
 OpenBabel03252503423D

 16 16  0  0  0  0  0  0  0  0999 V2000
   37.9420   30.5940   41.3400 C   0  0  0  0  0  0  0  0  0  0  0  0
   36.8810   30.9060   40.4960 C   0  0  0  0  0  0  0  0  0  0  0  0
   35.8120   30.0250   40.4240 C   0  0  0  0  0  0  0  0  0  0  0  0
   35.8550   28.8960   41.1880 N   0  0  0  0  0  0  0  0  0  0  0  0
   36.9000   28.6320   41.9920 C   0  0  0  0  0  0  0  0  0  0  0  0
   37.9560   29.4640   42.0860 N   0  0  0  0  0  0  0  0  0  0  0  0
   38.8100   31.2310   41.4480 H   0  0  0  0  0  0  0  0  0  0  0  0
   35.0260   30.3130   39.7630 H   0  0  0  0  0  0  0  0  0  0  0  0
   37.0350   32.1850   39.7530 C   0  0  0  0  0  0  0  0  0  0  0  0
   37.0830   33.0610   40.4630 H   0  0  0  0  0  0  0  0  0  0  0  0
   37.9140   32.1730   39.0750 H   0  0  0  0  0  0  0  0  0  0  0  0
   36.1150   32.3620   39.1550 H   0  0  0  0  0  0  0  0  0  0  0  0
   36.8740   27.3720   42.7990 C   0  0  0  0  0  0  0  0  0  0  0  0
   35.8280   27.3210   43.6790 F   0  0  0  0  0  0  0  0  0  0  0  0
   36.8710   26.2410   41.9720 F   0  0  0  0  0  0  0  0  0  0  0  0
   38.0460   27.2550   43.5500 F   0  0  0  0  0  0  0  0  0  0  0  0
  1  7  1  0  0  0  0
  1  6  1  0  0  0  0
  2  1  2  0  0  0  0
  3  2  1  0  0  0  0
  3  4  2  0  0  0  0
  4  5  1  0  0  0  0
  5  6  2  0  0  0  0
  5 13  1  0  0  0  0
  8  3  1  0  0  0  0
  9 10  1  0  0  0  0
  9  2  1  0  0  0  0
 11  9  1  0  0  0  0
 12  9  1  0  0  0  0
 13 16  1  0  0  0  0
 13 14  1  0  0  0  0
 15 13  1  0  0  0  0
M  END
>  <minimizedAffinity>
-3.97261143

$$$$

 OpenBabel03252503423D

 16 16  0  0  0  0  0  0  0  0999 V2000
   36.1160   30.3040   40.6760 C   0  0  0  0  0  0  0  0  0  0  0  0
   37.2590   31.0930   40.7480 C   0  0  0  0  0  0  0  0  0  0  0  0
   38.3090   30.6650   41.5470 C   0  0  0  0  0  0  0  0  0  0  0  0
   38.1670   29.4870   42.2220 N   0  0  0  0  0  0  0  0  0  0  0  0
   37.0440   28.7540   42.1240 C   0  0  0  0  0  0  0  0  0  0  0  0
   36.0040   29.1390   41.3580 N   0  0  0  0  0  0  0  0  0  0  0  0
   35.2570   30.5730   40.0750 H   0  0  0  0  0  0  0  0  0  0  0  0
   39.1600   31.3070   41.5660 H   0  0  0  0  0  0  0  0  0  0  0  0
   37.2070   32.3360   39.9340 C   0  0  0  0  0  0  0  0  0  0  0  0
   37.1120   32.0970   38.8360 H   0  0  0  0  0  0  0  0  0  0  0  0
   36.3960   33.0200   40.2640 H   0  0  0  0  0  0  0  0  0  0  0  0
   38.1830   32.8600   40.0220 H   0  0  0  0  0  0  0  0  0  0  0  0
   36.9630   27.4740   42.8950 C   0  0  0  0  0  0  0  0  0  0  0  0
   38.0690   27.2420   43.6670 F   0  0  0  0  0  0  0  0  0  0  0  0
   35.8030   27.4280   43.6790 F   0  0  0  0  0  0  0  0  0  0  0  0
   36.8410   26.3900   42.0220 F   0  0  0  0  0  0  0  0  0  0  0  0
  1  2  2  0  0  0  0
  1  6  1  0  0  0  0
  2  3  1  0  0  0  0
  3  8  1  0  0  0  0
  3  4  2  0  0  0  0
  5  4  1  0  0  0  0
  5 13  1  0  0  0  0
  6  5  2  0  0  0  0
  7  1  1  0  0  0  0
  9 12  1  0  0  0  0
  9 11  1  0  0  0  0
  9  2  1  0  0  0  0
 10  9  1  0  0  0  0
 13 14  1  0  0  0  0
 13 15  1  0  0  0  0
 16 13  1  0  0  0  0
M  END
>  <minimizedAffinity>
-3.89997125

$$$$

 OpenBabel03252503423D

 16 16  0  0  0  0  0  0  0  0999 V2000
   36.0300   29.9830   40.3670 C   0  0  0  0  0  0  0  0  0  0  0  0
   37.0580   30.9080   40.5160 C   0  0  0  0  0  0  0  0  0  0  0  0
   38.0540   30.6460   41.4460 C   0  0  0  0  0  0  0  0  0  0  0  0
   37.9730   29.4910   42.1680 N   0  0  0  0  0  0  0  0  0  0  0  0
   36.9610   28.6230   41.9920 C   0  0  0  0  0  0  0  0  0  0  0  0
   35.9770   28.8450   41.0990 N   0  0  0  0  0  0  0  0  0  0  0  0
   35.2190   30.1190   39.6630 H   0  0  0  0  0  0  0  0  0  0  0  0
   38.8170   31.3870   41.5190 H   0  0  0  0  0  0  0  0  0  0  0  0
   36.9540   32.0980   39.6310 C   0  0  0  0  0  0  0  0  0  0  0  0
   37.0130   31.8010   38.5440 H   0  0  0  0  0  0  0  0  0  0  0  0
   36.0380   32.6920   39.8320 H   0  0  0  0  0  0  0  0  0  0  0  0
   37.8470   32.7400   39.7920 H   0  0  0  0  0  0  0  0  0  0  0  0
   36.9430   27.3780   42.8220 C   0  0  0  0  0  0  0  0  0  0  0  0
   36.8650   26.2350   42.0730 F   0  0  0  0  0  0  0  0  0  0  0  0
   38.0500   27.3240   43.6790 F   0  0  0  0  0  0  0  0  0  0  0  0
   35.8370   27.3820   43.6750 F   0  0  0  0  0  0  0  0  0  0  0  0
  1  2  2  0  0  0  0
  1  6  1  0  0  0  0
  2  3  1  0  0  0  0
  3  8  1  0  0  0  0
  3  4  2  0  0  0  0
  5  4  1  0  0  0  0
  5 13  1  0  0  0  0
  6  5  2  0  0  0  0
  7  1  1  0  0  0  0
  9 12  1  0  0  0  0
  9 11  1  0  0  0  0
  9  2  1  0  0  0  0
 10  9  1  0  0  0  0
 13 16  1  0  0  0  0
 13 15  1  0  0  0  0
 14 13  1  0  0  0  0
M  END
>  <minimizedAffinity>
-3.88875294

$$$$

 OpenBabel03252503423D

 16 16  0  0  0  0  0  0  0  0999 V2000
   36.9710   28.9450   39.5300 C   0  0  0  0  0  0  0  0  0  0  0  0
   36.9500   30.2930   39.8690 C   0  0  0  0  0  0  0  0  0  0  0  0
   36.9110   30.6360   41.2130 C   0  0  0  0  0  0  0  0  0  0  0  0
   36.8970   29.6310   42.1350 N   0  0  0  0  0  0  0  0  0  0  0  0
   36.9180   28.3390   41.7630 C   0  0  0  0  0  0  0  0  0  0  0  0
   36.9560   27.9680   40.4680 N   0  0  0  0  0  0  0  0  0  0  0  0
   37.0010   28.6000   38.5040 H   0  0  0  0  0  0  0  0  0  0  0  0
   36.8970   31.6830   41.4160 H   0  0  0  0  0  0  0  0  0  0  0  0
   36.9720   31.2250   38.7100 C   0  0  0  0  0  0  0  0  0  0  0  0
   37.9240   31.1090   38.1170 H   0  0  0  0  0  0  0  0  0  0  0  0
   36.0800   31.1050   38.0590 H   0  0  0  0  0  0  0  0  0  0  0  0
   37.0070   32.2670   39.0930 H   0  0  0  0  0  0  0  0  0  0  0  0
   36.9000   27.2930   42.8330 C   0  0  0  0  0  0  0  0  0  0  0  0
   35.8300   27.4090   43.6790 F   0  0  0  0  0  0  0  0  0  0  0  0
   36.9470   26.0050   42.2830 F   0  0  0  0  0  0  0  0  0  0  0  0
   38.0520   27.3830   43.6180 F   0  0  0  0  0  0  0  0  0  0  0  0
  1  2  2  0  0  0  0
  1  6  1  0  0  0  0
  2  3  1  0  0  0  0
  3  8  1  0  0  0  0
  3  4  2  0  0  0  0
  5  4  1  0  0  0  0
  5 13  1  0  0  0  0
  6  5  2  0  0  0  0
  7  1  1  0  0  0  0
  9 12  1  0  0  0  0
  9  2  1  0  0  0  0
 10  9  1  0  0  0  0
 11  9  1  0  0  0  0
 13 16  1  0  0  0  0
 13 14  1  0  0  0  0
 15 13  1  0  0  0  0
M  END
>  <minimizedAffinity>
-3.68590164

$$$$

 OpenBabel03252503423D

 16 16  0  0  0  0  0  0  0  0999 V2000
   38.3670   30.0390   41.8880 C   0  0  0  0  0  0  0  0  0  0  0  0
   37.0780   29.5450   41.7170 C   0  0  0  0  0  0  0  0  0  0  0  0
   36.1660   30.3090   41.0040 C   0  0  0  0  0  0  0  0  0  0  0  0
   36.5820   31.5090   40.5050 N   0  0  0  0  0  0  0  0  0  0  0  0
   37.8380   31.9490   40.6920 C   0  0  0  0  0  0  0  0  0  0  0  0
   38.7510   31.2340   41.3800 N   0  0  0  0  0  0  0  0  0  0  0  0
   39.1320   29.5000   42.4320 H   0  0  0  0  0  0  0  0  0  0  0  0
   35.1930   29.8840   40.9030 H   0  0  0  0  0  0  0  0  0  0  0  0
   36.8340   28.2180   42.3420 C   0  0  0  0  0  0  0  0  0  0  0  0
   37.4910   27.4260   41.8790 H   0  0  0  0  0  0  0  0  0  0  0  0
   36.9610   28.2440   43.4450 H   0  0  0  0  0  0  0  0  0  0  0  0
   35.7990   27.8960   42.1010 H   0  0  0  0  0  0  0  0  0  0  0  0
   38.2190   33.2760   40.1130 C   0  0  0  0  0  0  0  0  0  0  0  0
   39.2100   33.1860   39.1730 F   0  0  0  0  0  0  0  0  0  0  0  0
   37.1030   33.9360   39.5840 F   0  0  0  0  0  0  0  0  0  0  0  0
   38.6870   34.1260   41.1180 F   0  0  0  0  0  0  0  0  0  0  0  0
  1  7  1  0  0  0  0
  2  1  1  0  0  0  0
  2  9  1  0  0  0  0
  3  2  2  0  0  0  0
  4  5  2  0  0  0  0
  4  3  1  0  0  0  0
  5  6  1  0  0  0  0
  6  1  2  0  0  0  0
  8  3  1  0  0  0  0
  9 11  1  0  0  0  0
 10  9  1  0  0  0  0
 12  9  1  0  0  0  0
 13  5  1  0  0  0  0
 13 16  1  0  0  0  0
 14 13  1  0  0  0  0
 15 13  1  0  0  0  0
M  END
>  <minimizedAffinity>
-3.66327477

$$$$

 OpenBabel03252503423D

 16 16  0  0  0  0  0  0  0  0999 V2000
   36.1630   27.5730   39.1090 C   0  0  0  0  0  0  0  0  0  0  0  0
   35.6690   28.8710   39.0350 C   0  0  0  0  0  0  0  0  0  0  0  0
   35.5870   29.6150   40.2030 C   0  0  0  0  0  0  0  0  0  0  0  0
   35.9980   29.0340   41.3680 N   0  0  0  0  0  0  0  0  0  0  0  0
   36.4700   27.7760   41.3950 C   0  0  0  0  0  0  0  0  0  0  0  0
   36.5630   27.0230   40.2810 N   0  0  0  0  0  0  0  0  0  0  0  0
   36.2560   26.9330   38.2420 H   0  0  0  0  0  0  0  0  0  0  0  0
   35.2020   30.6030   40.0890 H   0  0  0  0  0  0  0  0  0  0  0  0
   35.2780   29.3090   37.6690 C   0  0  0  0  0  0  0  0  0  0  0  0
   36.1690   29.3180   36.9770 H   0  0  0  0  0  0  0  0  0  0  0  0
   34.4550   28.6910   37.2500 H   0  0  0  0  0  0  0  0  0  0  0  0
   34.9500   30.3700   37.7160 H   0  0  0  0  0  0  0  0  0  0  0  0
   36.9010   27.2080   42.7110 C   0  0  0  0  0  0  0  0  0  0  0  0
   38.0820   27.7340   43.1610 F   0  0  0  0  0  0  0  0  0  0  0  0
   35.9010   27.3600   43.6800 F   0  0  0  0  0  0  0  0  0  0  0  0
   37.0830   25.8280   42.6060 F   0  0  0  0  0  0  0  0  0  0  0  0
  1  6  1  0  0  0  0
  2  1  2  0  0  0  0
  2  3  1  0  0  0  0
  3  4  2  0  0  0  0
  4  5  1  0  0  0  0
  5 13  1  0  0  0  0
  6  5  2  0  0  0  0
  7  1  1  0  0  0  0
  8  3  1  0  0  0  0
  9 12  1  0  0  0  0
  9  2  1  0  0  0  0
 10  9  1  0  0  0  0
 11  9  1  0  0  0  0
 13 14  1  0  0  0  0
 13 15  1  0  0  0  0
 16 13  1  0  0  0  0
M  END
>  <minimizedAffinity>
-3.61514044

$$$$

 OpenBabel03252503423D

 16 16  0  0  0  0  0  0  0  0999 V2000
   36.9610   26.0040   40.4570 C   0  0  0  0  0  0  0  0  0  0  0  0
   37.2710   25.8700   41.8060 C   0  0  0  0  0  0  0  0  0  0  0  0
   36.9990   26.9330   42.6560 C   0  0  0  0  0  0  0  0  0  0  0  0
   36.4400   28.0570   42.1230 N   0  0  0  0  0  0  0  0  0  0  0  0
   36.1550   28.1450   40.8120 C   0  0  0  0  0  0  0  0  0  0  0  0
   36.4060   27.1340   39.9570 N   0  0  0  0  0  0  0  0  0  0  0  0
   37.1440   25.2200   39.7340 H   0  0  0  0  0  0  0  0  0  0  0  0
   37.2560   26.7760   43.6790 H   0  0  0  0  0  0  0  0  0  0  0  0
   37.8740   24.5630   42.1770 C   0  0  0  0  0  0  0  0  0  0  0  0
   37.1560   23.7160   41.9780 H   0  0  0  0  0  0  0  0  0  0  0  0
   38.8450   24.3890   41.6670 H   0  0  0  0  0  0  0  0  0  0  0  0
   38.0300   24.5430   43.2770 H   0  0  0  0  0  0  0  0  0  0  0  0
   35.5420   29.4120   40.3020 C   0  0  0  0  0  0  0  0  0  0  0  0
   35.7350   30.4760   41.1410 F   0  0  0  0  0  0  0  0  0  0  0  0
   36.0060   29.7170   39.0160 F   0  0  0  0  0  0  0  0  0  0  0  0
   34.1630   29.2560   40.1520 F   0  0  0  0  0  0  0  0  0  0  0  0
  1  2  1  0  0  0  0
  2  9  1  0  0  0  0
  2  3  2  0  0  0  0
  3  8  1  0  0  0  0
  4  3  1  0  0  0  0
  5  4  2  0  0  0  0
  6  1  2  0  0  0  0
  6  5  1  0  0  0  0
  7  1  1  0  0  0  0
  9 12  1  0  0  0  0
 10  9  1  0  0  0  0
 11  9  1  0  0  0  0
 13  5  1  0  0  0  0
 13 14  1  0  0  0  0
 15 13  1  0  0  0  0
 16 13  1  0  0  0  0
M  END
>  <minimizedAffinity>
-3.55739856

$$$$

 OpenBabel03252503423D

 16 16  0  0  0  0  0  0  0  0999 V2000
   40.2660   28.1500   42.3140 C   0  0  0  0  0  0  0  0  0  0  0  0
   40.3630   29.5090   42.5960 C   0  0  0  0  0  0  0  0  0  0  0  0
   39.1940   30.2240   42.8100 C   0  0  0  0  0  0  0  0  0  0  0  0
   38.0060   29.5570   42.7340 N   0  0  0  0  0  0  0  0  0  0  0  0
   37.9580   28.2420   42.4590 C   0  0  0  0  0  0  0  0  0  0  0  0
   39.0720   27.5150   42.2450 N   0  0  0  0  0  0  0  0  0  0  0  0
   41.1330   27.5270   42.1340 H   0  0  0  0  0  0  0  0  0  0  0  0
   39.3260   31.2610   43.0230 H   0  0  0  0  0  0  0  0  0  0  0  0
   41.7520   30.0370   42.6320 C   0  0  0  0  0  0  0  0  0  0  0  0
   42.3500   29.5470   43.4530 H   0  0  0  0  0  0  0  0  0  0  0  0
   42.2650   29.9370   41.6520 H   0  0  0  0  0  0  0  0  0  0  0  0
   41.7170   31.1110   42.9160 H   0  0  0  0  0  0  0  0  0  0  0  0
   36.6170   27.5800   42.3920 C   0  0  0  0  0  0  0  0  0  0  0  0
   35.7070   28.2870   41.6540 F   0  0  0  0  0  0  0  0  0  0  0  0
   36.7230   26.2690   41.9100 F   0  0  0  0  0  0  0  0  0  0  0  0
   36.0810   27.4420   43.6750 F   0  0  0  0  0  0  0  0  0  0  0  0
  1  2  1  0  0  0  0
  2  9  1  0  0  0  0
  2  3  2  0  0  0  0
  3  8  1  0  0  0  0
  4  3  1  0  0  0  0
  5  4  2  0  0  0  0
  6  1  2  0  0  0  0
  6  5  1  0  0  0  0
  7  1  1  0  0  0  0
  9 12  1  0  0  0  0
  9 10  1  0  0  0  0
 11  9  1  0  0  0  0
 13  5  1  0  0  0  0
 13 16  1  0  0  0  0
 14 13  1  0  0  0  0
 15 13  1  0  0  0  0
M  END
>  <minimizedAffinity>
-3.49515653

$$$$

 OpenBabel03252503423D

 16 16  0  0  0  0  0  0  0  0999 V2000
   36.9660   29.9980   41.7230 C   0  0  0  0  0  0  0  0  0  0  0  0
   38.0130   29.5680   42.5320 C   0  0  0  0  0  0  0  0  0  0  0  0
   39.2030   30.2800   42.5070 C   0  0  0  0  0  0  0  0  0  0  0  0
   39.2860   31.3690   41.6890 N   0  0  0  0  0  0  0  0  0  0  0  0
   38.2490   31.7510   40.9240 C   0  0  0  0  0  0  0  0  0  0  0  0
   37.0780   31.0830   40.9210 N   0  0  0  0  0  0  0  0  0  0  0  0
   36.0090   29.4930   41.6890 H   0  0  0  0  0  0  0  0  0  0  0  0
   39.9720   29.9080   43.1460 H   0  0  0  0  0  0  0  0  0  0  0  0
   37.7130   28.3600   43.3450 C   0  0  0  0  0  0  0  0  0  0  0  0
   36.8740   28.5600   44.0720 H   0  0  0  0  0  0  0  0  0  0  0  0
   37.4890   27.4740   42.7140 H   0  0  0  0  0  0  0  0  0  0  0  0
   38.5910   28.1370   43.9890 H   0  0  0  0  0  0  0  0  0  0  0  0
   38.4160   32.9560   40.0520 C   0  0  0  0  0  0  0  0  0  0  0  0
   37.2720   33.6990   39.9390 F   0  0  0  0  0  0  0  0  0  0  0  0
   39.4760   33.7580   40.4960 F   0  0  0  0  0  0  0  0  0  0  0  0
   38.7820   32.5720   38.7600 F   0  0  0  0  0  0  0  0  0  0  0  0
  1  2  1  0  0  0  0
  2  9  1  0  0  0  0
  3  2  2  0  0  0  0
  3  8  1  0  0  0  0
  4  3  1  0  0  0  0
  5  4  2  0  0  0  0
  6  5  1  0  0  0  0
  6  1  2  0  0  0  0
  7  1  1  0  0  0  0
  9 12  1  0  0  0  0
  9 10  1  0  0  0  0
 11  9  1  0  0  0  0
 13 15  1  0  0  0  0
 13  5  1  0  0  0  0
 14 13  1  0  0  0  0
 16 13  1  0  0  0  0
M  END
>  <minimizedAffinity>
-3.48056006

$$$$
