
 OpenBabel03252506413D

 35 37  0  0  1  0  0  0  0  0999 V2000
   49.5440   33.4070   41.4810 N   0  0  1  0  0  0  0  0  0  0  0  0
   50.7070   33.0820   42.2700 C   0  0  0  0  0  0  0  0  0  0  0  0
   51.3070   31.7510   42.0410 C   0  0  0  0  0  0  0  0  0  0  0  0
   50.3200   30.6540   42.3200 C   0  0  0  0  0  0  0  0  0  0  0  0
   48.9150   31.0900   42.1140 C   0  0  0  0  0  0  0  0  0  0  0  0
   48.8720   32.1920   41.1020 C   0  0  2  0  0  0  0  0  0  0  0  0
   50.4780   33.1690   43.3590 H   0  0  0  0  0  0  0  0  0  0  0  0
   51.4690   33.8770   42.0250 H   0  0  0  0  0  0  0  0  0  0  0  0
   52.0660   31.6390   42.8920 H   0  0  0  0  0  0  0  0  0  0  0  0
   51.9340   31.6220   41.1560 H   0  0  0  0  0  0  0  0  0  0  0  0
   50.4000   30.1950   43.3130 H   0  0  0  0  0  0  0  0  0  0  0  0
   50.5880   29.8270   41.5990 H   0  0  0  0  0  0  0  0  0  0  0  0
   48.4690   31.4850   43.0630 H   0  0  0  0  0  0  0  0  0  0  0  0
   48.2670   30.2850   41.7380 H   0  0  0  0  0  0  0  0  0  0  0  0
   47.7650   32.5250   41.1910 H   0  0  0  0  0  0  0  0  0  0  0  0
   47.3090   34.5940   41.9610 C   0  0  1  0  0  0  0  0  0  0  0  0
   48.3660   35.5800   41.6790 C   0  0  0  0  0  0  0  0  0  0  0  0
   48.7360   34.2770   42.2810 C   0  0  2  0  0  0  0  0  0  0  0  0
   46.8650   34.1290   41.0700 H   0  0  0  0  0  0  0  0  0  0  0  0
   48.4240   36.4480   42.3460 H   0  0  0  0  0  0  0  0  0  0  0  0
   48.6740   35.8020   40.6330 H   0  0  0  0  0  0  0  0  0  0  0  0
   48.9530   34.1900   43.3690 H   0  0  0  0  0  0  0  0  0  0  0  0
   45.5650   36.0120   43.1170 C   0  0  0  0  0  0  0  0  0  0  0  0
   46.3710   34.8490   43.0930 C   0  0  0  0  0  0  0  0  0  0  0  0
   46.2530   33.9490   44.1630 C   0  0  0  0  0  0  0  0  0  0  0  0
   45.3760   34.2430   45.1540 N   0  0  0  0  0  0  0  0  0  0  0  0
   44.6180   35.3690   45.1450 C   0  0  0  0  0  0  0  0  0  0  0  0
   44.7080   36.2650   44.1210 N   0  0  0  0  0  0  0  0  0  0  0  0
   45.6340   36.7240   42.3070 H   0  0  0  0  0  0  0  0  0  0  0  0
   46.8590   33.0630   44.1550 H   0  0  0  0  0  0  0  0  0  0  0  0
   43.9550   35.4860   46.0010 H   0  0  0  0  0  0  0  0  0  0  0  0
   48.9720   31.7890   39.6750 C   0  0  0  0  0  0  0  0  0  0  0  0
   48.6110   30.4440   39.4870 F   0  0  0  0  0  0  0  0  0  0  0  0
   48.0070   32.4580   38.8890 F   0  0  0  0  0  0  0  0  0  0  0  0
   50.1580   32.0880   39.0500 F   0  0  0  0  0  0  0  0  0  0  0  0
  1  2  1  1  0  0  0
  1 18  1  0  0  0  0
  2  7  1  0  0  0  0
  3  2  1  0  0  0  0
  3  4  1  0  0  0  0
  3  9  1  0  0  0  0
  4 11  1  0  0  0  0
  5  4  1  0  0  0  0
  5 13  1  0  0  0  0
  6 15  1  1  0  0  0
  6  1  1  0  0  0  0
  6  5  1  0  0  0  0
  8  2  1  0  0  0  0
 10  3  1  0  0  0  0
 12  4  1  0  0  0  0
 14  5  1  0  0  0  0
 16 19  1  6  0  0  0
 16 18  1  0  0  0  0
 16 24  1  0  0  0  0
 17 16  1  0  0  0  0
 17 18  1  0  0  0  0
 17 20  1  0  0  0  0
 18 22  1  1  0  0  0
 21 17  1  0  0  0  0
 23 28  1  0  0  0  0
 24 23  2  0  0  0  0
 24 25  1  0  0  0  0
 25 26  2  0  0  0  0
 27 26  1  0  0  0  0
 27 31  1  0  0  0  0
 28 27  2  0  0  0  0
 29 23  1  0  0  0  0
 30 25  1  0  0  0  0
 32  6  1  0  0  0  0
 33 32  1  0  0  0  0
 34 32  1  0  0  0  0
 35 32  1  0  0  0  0
M  END
>  <minimizedAffinity>
-4.72580814

>  <minimizedRMSD>
0.84104234

$$$$
