
 OpenBabel03252500413D

 23 24  0  0  1  0  0  0  0  0999 V2000
   47.3190   34.0570   42.5910 C   0  0  0  0  0  0  0  0  0  0  0  0
   48.2810   33.7620   43.0400 H   0  0  0  0  0  0  0  0  0  0  0  0
   46.8370   33.1800   42.0620 H   0  0  0  0  0  0  0  0  0  0  0  0
   46.3810   34.4130   43.6670 C   0  0  0  0  0  0  0  0  0  0  0  0
   45.5480   35.4830   43.4330 C   0  0  0  0  0  0  0  0  0  0  0  0
   44.6160   35.8540   44.4290 C   0  0  0  0  0  0  0  0  0  0  0  0
   44.6110   35.1090   45.5700 N   0  0  0  0  0  0  0  0  0  0  0  0
   45.4540   34.0600   45.7530 C   0  0  0  0  0  0  0  0  0  0  0  0
   46.3320   33.7180   44.8070 N   0  0  0  0  0  0  0  0  0  0  0  0
   45.4220   36.1670   42.6130 H   0  0  0  0  0  0  0  0  0  0  0  0
   43.9100   36.6410   44.4140 H   0  0  0  0  0  0  0  0  0  0  0  0
   45.3680   33.5340   46.6990 H   0  0  0  0  0  0  0  0  0  0  0  0
   47.4910   35.1510   41.5910 C   0  0  1  0  0  0  0  0  0  0  0  0
   48.9400   35.5910   41.4100 C   0  0  0  0  0  0  0  0  0  0  0  0
   48.2450   34.8070   40.3520 C   0  0  1  0  0  0  0  0  0  0  0  0
   46.6610   35.8370   41.3410 H   0  0  0  0  0  0  0  0  0  0  0  0
   49.0070   36.6950   41.3000 H   0  0  0  0  0  0  0  0  0  0  0  0
   49.7030   35.1660   42.0580 H   0  0  0  0  0  0  0  0  0  0  0  0
   48.1000   35.3820   39.3980 H   0  0  0  0  0  0  0  0  0  0  0  0
   48.5330   33.3670   40.1180 C   0  0  0  0  0  0  0  0  0  0  0  0
   49.5000   32.9540   41.0130 F   0  0  0  0  0  0  0  0  0  0  0  0
   48.8650   33.0540   38.8160 F   0  0  0  0  0  0  0  0  0  0  0  0
   47.4090   32.5870   40.4170 F   0  0  0  0  0  0  0  0  0  0  0  0
  1  2  1  0  0  0  0
  1  4  1  0  0  0  0
  3  1  1  0  0  0  0
  4  9  1  0  0  0  0
  5  4  2  0  0  0  0
  5  6  1  0  0  0  0
  6  7  2  0  0  0  0
  7  8  1  0  0  0  0
  8 12  1  0  0  0  0
  9  8  2  0  0  0  0
 10  5  1  0  0  0  0
 11  6  1  0  0  0  0
 13 16  1  6  0  0  0
 13  1  1  0  0  0  0
 14 13  1  0  0  0  0
 14 18  1  0  0  0  0
 15 19  1  6  0  0  0
 15 14  1  0  0  0  0
 15 13  1  0  0  0  0
 17 14  1  0  0  0  0
 20 15  1  0  0  0  0
 20 23  1  0  0  0  0
 20 21  1  0  0  0  0
 22 20  1  0  0  0  0
M  END
>  <minimizedAffinity>
-4.56838131

>  <minimizedRMSD>
0.49500221

$$$$
