
 OpenBabel03242523193D

 32 34  0  0  0  0  0  0  0  0999 V2000
   47.3810   32.8120   44.0160 C   0  0  0  0  0  0  0  0  0  0  0  0
   48.2380   33.3120   43.1130 C   0  0  0  0  0  0  0  0  0  0  0  0
   49.0770   32.3850   42.5380 C   0  0  0  0  0  0  0  0  0  0  0  0
   48.9710   31.0400   42.9350 N   0  0  0  0  0  0  0  0  0  0  0  0
   48.1060   30.6240   43.8320 C   0  0  0  0  0  0  0  0  0  0  0  0
   47.2510   31.5210   44.4250 N   0  0  0  0  0  0  0  0  0  0  0  0
   49.8300   32.5790   41.7950 H   0  0  0  0  0  0  0  0  0  0  0  0
   48.1390   29.5570   44.0390 H   0  0  0  0  0  0  0  0  0  0  0  0
   48.4220   34.6870   42.7980 C   0  0  0  0  0  0  0  0  0  0  0  0
   49.4530   35.2720   42.1330 C   0  0  0  0  0  0  0  0  0  0  0  0
   48.2270   35.1000   41.2750 C   0  0  0  0  0  0  0  0  0  0  0  0
   47.9490   35.3740   43.5220 H   0  0  0  0  0  0  0  0  0  0  0  0
   49.7920   36.3330   42.1440 H   0  0  0  0  0  0  0  0  0  0  0  0
   50.3540   34.6450   41.8470 H   0  0  0  0  0  0  0  0  0  0  0  0
   48.2370   34.2400   40.6090 H   0  0  0  0  0  0  0  0  0  0  0  0
   47.5300   35.9380   41.1300 H   0  0  0  0  0  0  0  0  0  0  0  0
   46.3140   33.5450   44.7090 C   0  0  0  0  0  0  0  0  0  0  0  0
   45.7410   33.9290   45.6950 O   0  0  0  0  0  0  0  0  0  0  0  0
   44.5430   31.7620   42.9220 Cl  0  0  0  0  0  0  0  0  0  0  0  0
   44.5690   33.5140   42.7790 C   0  0  0  0  0  0  0  0  0  0  0  0
   45.4290   34.1790   43.6800 C   0  0  0  0  0  0  0  0  0  0  0  0
   45.3790   35.5510   43.4950 C   0  0  0  0  0  0  0  0  0  0  0  0
   44.6650   36.2720   42.6190 C   0  0  0  0  0  0  0  0  0  0  0  0
   43.8570   35.5550   41.7800 C   0  0  0  0  0  0  0  0  0  0  0  0
   43.8000   34.2090   41.8470 C   0  0  0  0  0  0  0  0  0  0  0  0
   45.9720   36.2270   44.1490 H   0  0  0  0  0  0  0  0  0  0  0  0
   44.6570   37.3390   42.5070 H   0  0  0  0  0  0  0  0  0  0  0  0
   43.2140   35.9680   41.0170 H   0  0  0  0  0  0  0  0  0  0  0  0
   42.9520   33.3030   40.9830 C   0  0  0  0  0  0  0  0  0  0  0  0
   43.7660   32.5290   40.2120 F   0  0  0  0  0  0  0  0  0  0  0  0
   42.2230   34.1090   40.1010 F   0  0  0  0  0  0  0  0  0  0  0  0
   42.0410   32.6010   41.7250 F   0  0  0  0  0  0  0  0  0  0  0  0
  1  6  1  0  0  0  0
  1 17  1  0  0  0  0
  2  1  2  0  0  0  0
  3  4  2  0  0  0  0
  3  2  1  0  0  0  0
  4  5  1  0  0  0  0
  5  8  1  0  0  0  0
  5  6  2  0  0  0  0
  7  3  1  0  0  0  0
  9  2  1  0  0  0  0
  9 12  1  0  0  0  0
 10 13  1  0  0  0  0
 10  9  1  0  0  0  0
 11 10  1  0  0  0  0
 11  9  1  0  0  0  0
 14 10  1  0  0  0  0
 15 11  1  0  0  0  0
 16 11  1  0  0  0  0
 17 18  2  0  0  0  0
 20 19  1  0  0  0  0
 20 21  1  0  0  0  0
 21 17  1  0  0  0  0
 22 21  2  0  0  0  0
 22 26  1  0  0  0  0
 23 22  1  0  0  0  0
 24 25  1  0  0  0  0
 24 23  2  0  0  0  0
 25 20  2  0  0  0  0
 27 23  1  0  0  0  0
 28 24  1  0  0  0  0
 29 32  1  0  0  0  0
 29 25  1  0  0  0  0
 30 29  1  0  0  0  0
 31 29  1  0  0  0  0
M  END
>  <minimizedAffinity>
-5.22813845

>  <minimizedRMSD>
0.436732978

$$$$
