
 OpenBabel03252506013D

 23 24  0  0  0  0  0  0  0  0999 V2000
   44.8870   36.3580   42.9380 Cl  0  0  0  0  0  0  0  0  0  0  0  0
   45.4940   35.0750   43.9550 C   0  0  0  0  0  0  0  0  0  0  0  0
   46.4980   34.2430   43.5130 C   0  0  0  0  0  0  0  0  0  0  0  0
   46.8990   33.2680   44.3850 C   0  0  0  0  0  0  0  0  0  0  0  0
   46.3720   33.0770   45.6430 C   0  0  0  0  0  0  0  0  0  0  0  0
   45.3730   33.9220   46.0560 C   0  0  0  0  0  0  0  0  0  0  0  0
   44.7380   33.6440   47.6620 Cl  0  0  0  0  0  0  0  0  0  0  0  0
   44.9310   34.9180   45.2220 C   0  0  0  0  0  0  0  0  0  0  0  0
   47.6930   32.6030   44.0460 H   0  0  0  0  0  0  0  0  0  0  0  0
   44.1490   35.5590   45.5790 H   0  0  0  0  0  0  0  0  0  0  0  0
   48.7380   35.4070   40.8630 C   0  0  0  0  0  0  0  0  0  0  0  0
   48.2600   34.7360   39.7340 C   0  0  0  0  0  0  0  0  0  0  0  0
   47.1440   33.8630   39.8760 C   0  0  0  0  0  0  0  0  0  0  0  0
   46.6320   33.7550   41.1210 N   0  0  0  0  0  0  0  0  0  0  0  0
   47.0950   34.3980   42.1930 C   0  0  0  0  0  0  0  0  0  0  0  0
   48.1650   35.2390   42.0710 N   0  0  0  0  0  0  0  0  0  0  0  0
   49.5820   36.0520   40.6840 H   0  0  0  0  0  0  0  0  0  0  0  0
   48.6880   34.8420   38.7480 H   0  0  0  0  0  0  0  0  0  0  0  0
   46.7180   33.3090   39.0500 H   0  0  0  0  0  0  0  0  0  0  0  0
   46.8830   31.9810   46.5150 C   0  0  0  0  0  0  0  0  0  0  0  0
   47.5800   32.5470   47.5840 F   0  0  0  0  0  0  0  0  0  0  0  0
   45.8610   31.1890   47.0050 F   0  0  0  0  0  0  0  0  0  0  0  0
   47.7790   31.1670   45.8340 F   0  0  0  0  0  0  0  0  0  0  0  0
  1  2  1  0  0  0  0
  2  8  1  0  0  0  0
  3  2  2  0  0  0  0
  3  4  1  0  0  0  0
  4  5  2  0  0  0  0
  5  6  1  0  0  0  0
  5 20  1  0  0  0  0
  6  7  1  0  0  0  0
  8 10  1  0  0  0  0
  8  6  2  0  0  0  0
  9  4  1  0  0  0  0
 11 16  1  0  0  0  0
 12 13  1  0  0  0  0
 12 11  2  0  0  0  0
 13 14  2  0  0  0  0
 14 15  1  0  0  0  0
 15  3  1  0  0  0  0
 16 15  2  0  0  0  0
 17 11  1  0  0  0  0
 18 12  1  0  0  0  0
 19 13  1  0  0  0  0
 20 22  1  0  0  0  0
 20 21  1  0  0  0  0
 23 20  1  0  0  0  0
M  END
>  <minimizedAffinity>
-5.42000294

>  <minimizedRMSD>
0.55012238

$$$$
