
 OpenBabel03252502443D

 26 27  0  0  1  0  0  0  0  0999 V2000
   46.0930   32.6600   44.7590 C   0  0  0  0  0  0  0  0  0  0  0  0
   47.0550   32.1140   44.6690 H   0  0  0  0  0  0  0  0  0  0  0  0
   45.2290   31.9630   44.7360 H   0  0  0  0  0  0  0  0  0  0  0  0
   45.9130   33.6390   43.6400 C   0  0  1  0  0  0  0  0  0  0  0  0
   44.6770   33.5050   42.8070 C   0  0  0  0  0  0  0  0  0  0  0  0
   44.8200   34.6160   43.7680 C   0  0  2  0  0  0  0  0  0  0  0  0
   46.8930   33.8720   43.1460 H   0  0  0  0  0  0  0  0  0  0  0  0
   44.8630   33.6730   41.7230 H   0  0  0  0  0  0  0  0  0  0  0  0
   43.9720   32.6590   42.9220 H   0  0  0  0  0  0  0  0  0  0  0  0
   44.2450   34.9090   44.6140 H   0  0  0  0  0  0  0  0  0  0  0  0
   45.1990   35.9420   43.0810 C   0  0  0  0  0  0  0  0  0  0  0  0
   44.2600   36.1850   42.0720 F   0  0  0  0  0  0  0  0  0  0  0  0
   45.0830   37.0170   43.9380 F   0  0  0  0  0  0  0  0  0  0  0  0
   46.4780   35.9500   42.6110 F   0  0  0  0  0  0  0  0  0  0  0  0
   46.1890   33.4860   46.0190 C   0  0  0  0  0  0  0  0  0  0  0  0
   45.1280   33.8230   46.2480 H   0  0  0  0  0  0  0  0  0  0  0  0
   46.9210   34.2770   45.9950 H   0  0  0  0  0  0  0  0  0  0  0  0
   45.2640   31.4840   49.0440 C   0  0  0  0  0  0  0  0  0  0  0  0
   45.1410   32.3010   47.9050 C   0  0  0  0  0  0  0  0  0  0  0  0
   46.2770   32.5720   47.1960 C   0  0  0  0  0  0  0  0  0  0  0  0
   47.4670   32.0470   47.6030 N   0  0  0  0  0  0  0  0  0  0  0  0
   47.5650   31.2780   48.6760 C   0  0  0  0  0  0  0  0  0  0  0  0
   46.4750   30.9900   49.4040 N   0  0  0  0  0  0  0  0  0  0  0  0
   44.4690   31.1850   49.7010 H   0  0  0  0  0  0  0  0  0  0  0  0
   44.1110   32.5750   47.7820 H   0  0  0  0  0  0  0  0  0  0  0  0
   48.5750   30.9290   48.8860 H   0  0  0  0  0  0  0  0  0  0  0  0
  1 15  1  0  0  0  0
  2  1  1  0  0  0  0
  3  1  1  0  0  0  0
  4  7  1  6  0  0  0
  4  6  1  0  0  0  0
  4  1  1  0  0  0  0
  5  9  1  0  0  0  0
  5  4  1  0  0  0  0
  5  6  1  0  0  0  0
  6 10  1  1  0  0  0
  8  5  1  0  0  0  0
 11  6  1  0  0  0  0
 11 13  1  0  0  0  0
 12 11  1  0  0  0  0
 14 11  1  0  0  0  0
 15 16  1  0  0  0  0
 15 20  1  0  0  0  0
 17 15  1  0  0  0  0
 18 23  1  0  0  0  0
 18 24  1  0  0  0  0
 19 18  2  0  0  0  0
 20 21  2  0  0  0  0
 20 19  1  0  0  0  0
 21 22  1  0  0  0  0
 22 26  1  0  0  0  0
 22 23  2  0  0  0  0
 25 19  1  0  0  0  0
M  END
>  <minimizedAffinity>
-4.44568539

>  <minimizedRMSD>
5.55114126

$$$$
