
 OpenBabel03252500073D

 23 24  0  0  0  0  0  0  0  0999 V2000
   47.5900   33.2270   43.3780 C   0  0  0  0  0  0  0  0  0  0  0  0
   46.6620   34.1230   43.9460 C   0  0  0  0  0  0  0  0  0  0  0  0
   45.9500   34.9490   43.0840 C   0  0  0  0  0  0  0  0  0  0  0  0
   46.1690   34.8640   41.7450 N   0  0  0  0  0  0  0  0  0  0  0  0
   47.0730   33.9870   41.2240 C   0  0  0  0  0  0  0  0  0  0  0  0
   47.7730   33.1780   42.0440 N   0  0  0  0  0  0  0  0  0  0  0  0
   48.1180   32.6060   44.0850 H   0  0  0  0  0  0  0  0  0  0  0  0
   46.4760   34.2020   45.0110 H   0  0  0  0  0  0  0  0  0  0  0  0
   45.1060   32.3030   39.7380 Cl  0  0  0  0  0  0  0  0  0  0  0  0
   46.4120   33.1770   39.0080 C   0  0  0  0  0  0  0  0  0  0  0  0
   47.2760   33.9320   39.7710 C   0  0  0  0  0  0  0  0  0  0  0  0
   48.3350   34.6460   39.2160 C   0  0  0  0  0  0  0  0  0  0  0  0
   48.4700   34.5520   37.8450 C   0  0  0  0  0  0  0  0  0  0  0  0
   47.6140   33.8020   37.0750 C   0  0  0  0  0  0  0  0  0  0  0  0
   46.5910   33.1170   37.6410 C   0  0  0  0  0  0  0  0  0  0  0  0
   49.0100   35.2380   39.8150 H   0  0  0  0  0  0  0  0  0  0  0  0
   49.2690   35.0760   37.3280 H   0  0  0  0  0  0  0  0  0  0  0  0
   47.7220   33.7310   36.0070 H   0  0  0  0  0  0  0  0  0  0  0  0
   45.8970   32.5130   37.0510 H   0  0  0  0  0  0  0  0  0  0  0  0
   44.9320   35.9480   43.5660 C   0  0  0  0  0  0  0  0  0  0  0  0
   45.2650   37.2170   43.1740 F   0  0  0  0  0  0  0  0  0  0  0  0
   43.6970   35.6190   43.0220 F   0  0  0  0  0  0  0  0  0  0  0  0
   44.8870   35.8340   44.9350 F   0  0  0  0  0  0  0  0  0  0  0  0
  1  2  1  0  0  0  0
  1  7  1  0  0  0  0
  2  8  1  0  0  0  0
  3 20  1  0  0  0  0
  3  2  2  0  0  0  0
  4  3  1  0  0  0  0
  5  4  2  0  0  0  0
  5  6  1  0  0  0  0
  6  1  2  0  0  0  0
 10  9  1  0  0  0  0
 10 11  1  0  0  0  0
 11  5  1  0  0  0  0
 12 11  2  0  0  0  0
 12 16  1  0  0  0  0
 13 12  1  0  0  0  0
 14 15  1  0  0  0  0
 14 13  2  0  0  0  0
 15 10  2  0  0  0  0
 17 13  1  0  0  0  0
 18 14  1  0  0  0  0
 19 15  1  0  0  0  0
 20 23  1  0  0  0  0
 21 20  1  0  0  0  0
 22 20  1  0  0  0  0
M  END
>  <minimizedAffinity>
-4.95162964

>  <minimizedRMSD>
2.50458479

$$$$
