REMARK  Name = 
REMARK  2 active torsions:
REMARK  status: ('A' for Active; 'I' for Inactive)
REMARK    1  A    between atoms: C_2  and  N_7
REMARK    2  A    between atoms: C_8  and  C_24
REMARK                            x       y       z     vdW  Elec       q    Type
REMARK                         _______ _______ _______ _____ _____    ______ ____
ROOT
ATOM      1  N   UNL     1      44.294  34.408  41.979  0.00  0.00    +0.000 N 
ATOM      2  C   UNL     1      44.573  33.501  40.924  0.00  0.00    +0.000 C 
ATOM      3  C   UNL     1      43.817  33.729  39.657  0.00  0.00    +0.000 C 
ATOM      4  N   UNL     1      42.578  34.375  39.707  0.00  0.00    +0.000 NA
ATOM      5  C   UNL     1      42.336  35.242  40.783  0.00  0.00    +0.000 C 
ATOM      6  C   UNL     1      43.585  35.569  41.543  0.00  0.00    +0.000 C 
ATOM      7  H   UNL     1      44.391  32.459  41.256  0.00  0.00    +0.000 HD
ATOM      8  H   UNL     1      44.479  34.342  38.968  0.00  0.00    +0.000 HD
ATOM      9  H   UNL     1      43.672  32.736  39.157  0.00  0.00    +0.000 HD
ATOM     10  H   UNL     1      42.377  34.860  38.812  0.00  0.00    +0.000 HD
ATOM     11  H   UNL     1      41.689  34.677  41.518  0.00  0.00    +0.000 HD
ATOM     12  H   UNL     1      41.770  36.154  40.561  0.00  0.00    +0.000 HD
ATOM     13  H   UNL     1      43.432  36.365  42.290  0.00  0.00    +0.000 HD
ATOM     14  H   UNL     1      44.265  36.066  40.784  0.00  0.00    +0.000 HD
ENDROOT
BRANCH   1  16
ATOM     15  C   UNL     1      44.697  35.177  44.195  0.00  0.00    +0.000 A 
ATOM     16  C   UNL     1      44.737  34.102  43.281  0.00  0.00    +0.000 A 
ATOM     17  C   UNL     1      45.227  32.885  43.712  0.00  0.00    +0.000 A 
ATOM     18  N   UNL     1      45.667  32.714  44.986  0.00  0.00    +0.000 NA
ATOM     19  C   UNL     1      45.623  33.769  45.862  0.00  0.00    +0.000 A 
ATOM     20  N   UNL     1      45.147  34.969  45.469  0.00  0.00    +0.000 NA
ATOM     21  H   UNL     1      44.359  36.183  44.064  0.00  0.00    +0.000 HD
ATOM     22  H   UNL     1      45.250  32.060  43.052  0.00  0.00    +0.000 HD
ATOM     23  H   UNL     1      45.975  33.634  46.883  0.00  0.00    +0.000 HD
ENDBRANCH   1  16
BRANCH   2  24
ATOM     24  C   UNL     1      46.059  33.577  40.501  0.00  0.00    +0.000 C 
ATOM     25  F   UNL     1      46.561  32.417  40.031  0.00  0.00    +0.000 F 
ATOM     26  F   UNL     1      46.816  33.880  41.642  0.00  0.00    +0.000 F 
ATOM     27  F   UNL     1      46.247  34.658  39.660  0.00  0.00    +0.000 F 
ENDBRANCH   2  24
TORSDOF 2
