
 OpenBabel03252509203D

 20 21  0  0  0  0  0  0  0  0999 V2000
   44.8540   35.2300   45.0120 C   0  0  0  0  0  0  0  0  0  0  0  0
   45.6260   34.8290   43.8730 C   0  0  0  0  0  0  0  0  0  0  0  0
   46.3540   33.6730   44.0750 C   0  0  0  0  0  0  0  0  0  0  0  0
   46.3260   32.9790   45.2710 N   0  0  0  0  0  0  0  0  0  0  0  0
   45.5720   33.4120   46.3110 C   0  0  0  0  0  0  0  0  0  0  0  0
   44.8460   34.5320   46.1670 N   0  0  0  0  0  0  0  0  0  0  0  0
   44.2510   36.1060   44.9840 H   0  0  0  0  0  0  0  0  0  0  0  0
   45.7000   32.7250   47.1320 H   0  0  0  0  0  0  0  0  0  0  0  0
   47.1130   33.1240   42.8970 C   0  0  0  0  0  0  0  0  0  0  0  0
   48.6200   33.3850   43.0470 C   0  0  0  0  0  0  0  0  0  0  0  0
   47.9540   31.9790   43.0970 C   0  0  0  0  0  0  0  0  0  0  0  0
   46.7630   33.5030   41.9290 H   0  0  0  0  0  0  0  0  0  0  0  0
   48.9450   33.8250   43.9910 H   0  0  0  0  0  0  0  0  0  0  0  0
   49.2300   33.5950   42.1670 H   0  0  0  0  0  0  0  0  0  0  0  0
   48.2510   31.2980   42.2440 H   0  0  0  0  0  0  0  0  0  0  0  0
   48.1130   31.4890   44.0970 H   0  0  0  0  0  0  0  0  0  0  0  0
   45.5660   35.6400   42.6630 C   0  0  0  0  0  0  0  0  0  0  0  0
   44.9830   36.8670   42.9130 F   0  0  0  0  0  0  0  0  0  0  0  0
   44.9460   34.9800   41.6250 F   0  0  0  0  0  0  0  0  0  0  0  0
   46.8510   35.9120   42.2340 F   0  0  0  0  0  0  0  0  0  0  0  0
  1  6  1  0  0  0  0
  2  3  1  0  0  0  0
  2  1  2  0  0  0  0
  3  4  2  0  0  0  0
  4  5  1  0  0  0  0
  5  8  1  0  0  0  0
  6  5  2  0  0  0  0
  7  1  1  0  0  0  0
  9 10  1  0  0  0  0
  9 11  1  0  0  0  0
  9  3  1  0  0  0  0
 10 11  1  0  0  0  0
 10 13  1  0  0  0  0
 11 16  1  0  0  0  0
 12  9  1  0  0  0  0
 14 10  1  0  0  0  0
 15 11  1  0  0  0  0
 17 18  1  0  0  0  0
 17  2  1  0  0  0  0
 19 17  1  0  0  0  0
 20 17  1  0  0  0  0
M  END
>  <minimizedAffinity>
-3.87501097

>  <minimizedRMSD>
1.68376327

$$$$
