
 OpenBabel03252506423D

 35 37  0  0  1  0  0  0  0  0999 V2000
   49.5460   33.4070   41.4800 N   0  0  1  0  0  0  0  0  0  0  0  0
   50.7090   33.0810   42.2670 C   0  0  0  0  0  0  0  0  0  0  0  0
   51.3100   31.7510   42.0360 C   0  0  0  0  0  0  0  0  0  0  0  0
   50.3240   30.6540   42.3160 C   0  0  0  0  0  0  0  0  0  0  0  0
   48.9180   31.0890   42.1120 C   0  0  0  0  0  0  0  0  0  0  0  0
   48.8730   32.1920   41.1010 C   0  0  2  0  0  0  0  0  0  0  0  0
   50.4820   33.1680   43.3560 H   0  0  0  0  0  0  0  0  0  0  0  0
   51.4710   33.8770   42.0220 H   0  0  0  0  0  0  0  0  0  0  0  0
   52.0700   31.6390   42.8870 H   0  0  0  0  0  0  0  0  0  0  0  0
   51.9360   31.6230   41.1500 H   0  0  0  0  0  0  0  0  0  0  0  0
   50.4050   30.1940   43.3080 H   0  0  0  0  0  0  0  0  0  0  0  0
   50.5900   29.8270   41.5940 H   0  0  0  0  0  0  0  0  0  0  0  0
   48.4730   31.4830   43.0620 H   0  0  0  0  0  0  0  0  0  0  0  0
   48.2700   30.2840   41.7370 H   0  0  0  0  0  0  0  0  0  0  0  0
   47.7660   32.5250   41.1920 H   0  0  0  0  0  0  0  0  0  0  0  0
   47.3130   34.5970   41.9610 C   0  0  1  0  0  0  0  0  0  0  0  0
   48.3720   35.5820   41.6840 C   0  0  0  0  0  0  0  0  0  0  0  0
   48.7380   34.2760   42.2810 C   0  0  2  0  0  0  0  0  0  0  0  0
   46.8690   34.1360   41.0670 H   0  0  0  0  0  0  0  0  0  0  0  0
   48.4310   36.4470   42.3530 H   0  0  0  0  0  0  0  0  0  0  0  0
   48.6820   35.8060   40.6380 H   0  0  0  0  0  0  0  0  0  0  0  0
   48.9540   34.1850   43.3690 H   0  0  0  0  0  0  0  0  0  0  0  0
   45.5660   36.0130   43.1150 C   0  0  0  0  0  0  0  0  0  0  0  0
   46.3730   34.8510   43.0910 C   0  0  0  0  0  0  0  0  0  0  0  0
   46.2550   33.9500   44.1610 C   0  0  0  0  0  0  0  0  0  0  0  0
   45.3780   34.2430   45.1520 N   0  0  0  0  0  0  0  0  0  0  0  0
   44.6190   35.3680   45.1420 C   0  0  0  0  0  0  0  0  0  0  0  0
   44.7070   36.2650   44.1190 N   0  0  0  0  0  0  0  0  0  0  0  0
   45.6340   36.7250   42.3050 H   0  0  0  0  0  0  0  0  0  0  0  0
   46.8630   33.0660   44.1530 H   0  0  0  0  0  0  0  0  0  0  0  0
   43.9540   35.4840   45.9980 H   0  0  0  0  0  0  0  0  0  0  0  0
   48.9720   31.7900   39.6730 C   0  0  0  0  0  0  0  0  0  0  0  0
   48.6100   30.4450   39.4850 F   0  0  0  0  0  0  0  0  0  0  0  0
   48.0080   32.4600   38.8880 F   0  0  0  0  0  0  0  0  0  0  0  0
   50.1580   32.0890   39.0490 F   0  0  0  0  0  0  0  0  0  0  0  0
  1  2  1  1  0  0  0
  1 18  1  0  0  0  0
  2  7  1  0  0  0  0
  3  2  1  0  0  0  0
  3  4  1  0  0  0  0
  3  9  1  0  0  0  0
  4 11  1  0  0  0  0
  5  4  1  0  0  0  0
  5 13  1  0  0  0  0
  6 15  1  1  0  0  0
  6  1  1  0  0  0  0
  6  5  1  0  0  0  0
  8  2  1  0  0  0  0
 10  3  1  0  0  0  0
 12  4  1  0  0  0  0
 14  5  1  0  0  0  0
 16 19  1  6  0  0  0
 16 18  1  0  0  0  0
 16 24  1  0  0  0  0
 17 16  1  0  0  0  0
 17 18  1  0  0  0  0
 17 20  1  0  0  0  0
 18 22  1  1  0  0  0
 21 17  1  0  0  0  0
 23 28  1  0  0  0  0
 24 23  2  0  0  0  0
 24 25  1  0  0  0  0
 25 26  2  0  0  0  0
 27 26  1  0  0  0  0
 27 31  1  0  0  0  0
 28 27  2  0  0  0  0
 29 23  1  0  0  0  0
 30 25  1  0  0  0  0
 32  6  1  0  0  0  0
 33 32  1  0  0  0  0
 34 32  1  0  0  0  0
 35 32  1  0  0  0  0
M  END
>  <minimizedAffinity>
-4.72561216

>  <minimizedRMSD>
0.484563261

$$$$
