
 OpenBabel03252503113D

 29 31  0  0  0  0  0  0  0  0999 V2000
   45.5320   36.1810   43.2260 C   0  0  0  0  0  0  0  0  0  0  0  0
   46.1620   34.9440   43.0070 C   0  0  0  0  0  0  0  0  0  0  0  0
   45.9270   33.9880   43.9850 C   0  0  0  0  0  0  0  0  0  0  0  0
   45.1600   34.2150   45.0610 N   0  0  0  0  0  0  0  0  0  0  0  0
   44.5690   35.4330   45.2280 C   0  0  0  0  0  0  0  0  0  0  0  0
   44.7580   36.4030   44.3140 N   0  0  0  0  0  0  0  0  0  0  0  0
   45.6670   36.9790   42.5070 H   0  0  0  0  0  0  0  0  0  0  0  0
   43.9460   35.6470   46.0830 H   0  0  0  0  0  0  0  0  0  0  0  0
   46.5270   32.7270   43.8370 C   0  0  0  0  0  0  0  0  0  0  0  0
   47.7580   32.1970   44.0910 C   0  0  0  0  0  0  0  0  0  0  0  0
   48.0930   30.9430   43.8600 C   0  0  0  0  0  0  0  0  0  0  0  0
   47.1150   30.1620   43.3330 C   0  0  0  0  0  0  0  0  0  0  0  0
   45.6790   31.3030   43.1780 S   0  0  0  0  0  0  0  0  0  0  0  0
   48.4660   32.9390   44.5220 H   0  0  0  0  0  0  0  0  0  0  0  0
   49.0550   30.4970   44.0500 H   0  0  0  0  0  0  0  0  0  0  0  0
   47.2030   29.0180   43.0510 H   0  0  0  0  0  0  0  0  0  0  0  0
   46.9610   34.7570   41.8540 C   0  0  0  0  0  0  0  0  0  0  0  0
   48.1820   35.1160   41.9660 O   0  0  0  0  0  0  0  0  0  0  0  0
   46.3680   34.1740   40.6070 C   0  0  0  0  0  0  0  0  0  0  0  0
   45.0390   33.9030   40.3810 C   0  0  0  0  0  0  0  0  0  0  0  0
   44.9740   33.3920   39.1360 N   0  0  0  0  0  0  0  0  0  0  0  0
   46.2300   33.3560   38.6200 C   0  0  0  0  0  0  0  0  0  0  0  0
   47.1000   33.8440   39.5360 N   0  0  0  0  0  0  0  0  0  0  0  0
   44.2240   34.0710   41.0730 H   0  0  0  0  0  0  0  0  0  0  0  0
   44.1210   33.0690   38.6190 H   0  0  0  0  0  0  0  0  0  0  0  0
   46.5610   32.8470   37.2440 C   0  0  0  0  0  0  0  0  0  0  0  0
   45.4680   33.0390   36.4140 F   0  0  0  0  0  0  0  0  0  0  0  0
   47.6750   33.4440   36.7330 F   0  0  0  0  0  0  0  0  0  0  0  0
   46.8060   31.4850   37.2530 F   0  0  0  0  0  0  0  0  0  0  0  0
  1  6  1  0  0  0  0
  2  1  2  0  0  0  0
  2  3  1  0  0  0  0
  3  4  2  0  0  0  0
  4  5  1  0  0  0  0
  5  8  1  0  0  0  0
  6  5  2  0  0  0  0
  7  1  1  0  0  0  0
  9  3  1  0  0  0  0
  9 10  2  0  0  0  0
 10 14  1  0  0  0  0
 11 15  1  0  0  0  0
 11 10  1  0  0  0  0
 12 11  2  0  0  0  0
 13 12  1  0  0  0  0
 13  9  1  0  0  0  0
 16 12  1  0  0  0  0
 17 18  2  0  0  0  0
 17  2  1  0  0  0  0
 19 17  1  0  0  0  0
 20 19  2  0  0  0  0
 20 24  1  0  0  0  0
 21 20  1  0  0  0  0
 22 21  1  0  0  0  0
 22 23  2  0  0  0  0
 23 19  1  0  0  0  0
 25 21  1  0  0  0  0
 26 29  1  0  0  0  0
 26 22  1  0  0  0  0
 27 26  1  0  0  0  0
 28 26  1  0  0  0  0
M  END
>  <minimizedAffinity>
-4.64204788

>  <minimizedRMSD>
0.74656868

$$$$
