
 OpenBabel03242510103D

 23 24  0  0  0  0  0  0  0  0999 V2000
   39.7290   29.7340   42.0190 Br  0  0  0  0  0  0  0  0  0  0  0  0
   37.9570   29.6970   41.2740 C   0  0  0  0  0  0  0  0  0  0  0  0
   37.5430   30.7070   40.4340 C   0  0  0  0  0  0  0  0  0  0  0  0
   36.2660   30.6940   39.8880 C   0  0  0  0  0  0  0  0  0  0  0  0
   35.4250   29.6610   40.1980 C   0  0  0  0  0  0  0  0  0  0  0  0
   35.8880   28.6710   41.0460 C   0  0  0  0  0  0  0  0  0  0  0  0
   37.1210   28.6540   41.5930 C   0  0  0  0  0  0  0  0  0  0  0  0
   36.0020   31.5170   39.2360 H   0  0  0  0  0  0  0  0  0  0  0  0
   34.4370   29.6330   39.7880 H   0  0  0  0  0  0  0  0  0  0  0  0
   35.1970   27.8660   41.2730 H   0  0  0  0  0  0  0  0  0  0  0  0
   39.2830   33.9200   40.5900 C   0  0  0  0  0  0  0  0  0  0  0  0
   40.2220   33.8350   39.5550 C   0  0  0  0  0  0  0  0  0  0  0  0
   40.2500   32.6610   38.8040 C   0  0  0  0  0  0  0  0  0  0  0  0
   39.3730   31.6680   39.1100 N   0  0  0  0  0  0  0  0  0  0  0  0
   38.4650   31.7830   40.1310 C   0  0  0  0  0  0  0  0  0  0  0  0
   38.4440   32.9150   40.8480 N   0  0  0  0  0  0  0  0  0  0  0  0
   39.3140   34.8590   41.1340 H   0  0  0  0  0  0  0  0  0  0  0  0
   40.9460   34.5590   39.2430 H   0  0  0  0  0  0  0  0  0  0  0  0
   40.9130   32.4400   37.9760 H   0  0  0  0  0  0  0  0  0  0  0  0
   37.5900   27.5690   42.5060 C   0  0  0  0  0  0  0  0  0  0  0  0
   38.5440   26.7810   41.8850 F   0  0  0  0  0  0  0  0  0  0  0  0
   38.1300   28.0590   43.6800 F   0  0  0  0  0  0  0  0  0  0  0  0
   36.5730   26.7120   42.8660 F   0  0  0  0  0  0  0  0  0  0  0  0
  2  7  1  0  0  0  0
  2  1  1  0  0  0  0
  3  2  2  0  0  0  0
  4  5  2  0  0  0  0
  4  3  1  0  0  0  0
  5  6  1  0  0  0  0
  6 10  1  0  0  0  0
  6  7  2  0  0  0  0
  7 20  1  0  0  0  0
  8  4  1  0  0  0  0
  9  5  1  0  0  0  0
 11 16  1  0  0  0  0
 11 17  1  0  0  0  0
 12 11  2  0  0  0  0
 13 14  2  0  0  0  0
 13 12  1  0  0  0  0
 14 15  1  0  0  0  0
 15  3  1  0  0  0  0
 15 16  2  0  0  0  0
 18 12  1  0  0  0  0
 19 13  1  0  0  0  0
 20 23  1  0  0  0  0
 20 22  1  0  0  0  0
 21 20  1  0  0  0  0
M  END
>  <minimizedAffinity>
-4.88416624

$$$$

 OpenBabel03242510103D

 23 24  0  0  0  0  0  0  0  0999 V2000
   38.0610   29.3130   42.8140 Br  0  0  0  0  0  0  0  0  0  0  0  0
   37.4720   28.4100   41.2220 C   0  0  0  0  0  0  0  0  0  0  0  0
   37.4770   29.0710   40.0130 C   0  0  0  0  0  0  0  0  0  0  0  0
   37.0540   28.4310   38.8550 C   0  0  0  0  0  0  0  0  0  0  0  0
   36.6320   27.1320   38.9350 C   0  0  0  0  0  0  0  0  0  0  0  0
   36.6460   26.5120   40.1710 C   0  0  0  0  0  0  0  0  0  0  0  0
   37.0490   27.1050   41.3140 C   0  0  0  0  0  0  0  0  0  0  0  0
   37.0830   29.0050   37.9390 H   0  0  0  0  0  0  0  0  0  0  0  0
   36.3020   26.6220   38.0540 H   0  0  0  0  0  0  0  0  0  0  0  0
   36.3050   25.4830   40.2010 H   0  0  0  0  0  0  0  0  0  0  0  0
   37.4500   32.7270   40.0650 C   0  0  0  0  0  0  0  0  0  0  0  0
   38.7980   33.0680   39.8990 C   0  0  0  0  0  0  0  0  0  0  0  0
   39.7150   32.0260   39.7700 C   0  0  0  0  0  0  0  0  0  0  0  0
   39.2600   30.7450   39.8100 N   0  0  0  0  0  0  0  0  0  0  0  0
   37.9320   30.4460   39.9740 C   0  0  0  0  0  0  0  0  0  0  0  0
   37.0560   31.4530   40.0980 N   0  0  0  0  0  0  0  0  0  0  0  0
   36.7900   33.5840   40.1590 H   0  0  0  0  0  0  0  0  0  0  0  0
   39.2460   34.0390   39.8550 H   0  0  0  0  0  0  0  0  0  0  0  0
   40.7850   32.1220   39.6350 H   0  0  0  0  0  0  0  0  0  0  0  0
   37.0520   26.4060   42.6350 C   0  0  0  0  0  0  0  0  0  0  0  0
   38.3300   26.3590   43.1640 F   0  0  0  0  0  0  0  0  0  0  0  0
   36.2220   27.0150   43.5570 F   0  0  0  0  0  0  0  0  0  0  0  0
   36.6380   25.0960   42.5340 F   0  0  0  0  0  0  0  0  0  0  0  0
  2  7  1  0  0  0  0
  2  1  1  0  0  0  0
  3  2  2  0  0  0  0
  4  5  2  0  0  0  0
  4  3  1  0  0  0  0
  5  6  1  0  0  0  0
  6 10  1  0  0  0  0
  6  7  2  0  0  0  0
  7 20  1  0  0  0  0
  8  4  1  0  0  0  0
  9  5  1  0  0  0  0
 11 16  1  0  0  0  0
 11 17  1  0  0  0  0
 12 11  2  0  0  0  0
 13 14  2  0  0  0  0
 13 12  1  0  0  0  0
 14 15  1  0  0  0  0
 15  3  1  0  0  0  0
 15 16  2  0  0  0  0
 18 12  1  0  0  0  0
 19 13  1  0  0  0  0
 20 21  1  0  0  0  0
 20 22  1  0  0  0  0
 23 20  1  0  0  0  0
M  END
>  <minimizedAffinity>
-4.81577969

$$$$

 OpenBabel03242510103D

 23 24  0  0  0  0  0  0  0  0999 V2000
   37.8450   28.2800   39.1200 Br  0  0  0  0  0  0  0  0  0  0  0  0
   37.5070   28.0100   40.9930 C   0  0  0  0  0  0  0  0  0  0  0  0
   37.6420   29.0600   41.8760 C   0  0  0  0  0  0  0  0  0  0  0  0
   37.4010   28.8800   43.2310 C   0  0  0  0  0  0  0  0  0  0  0  0
   37.0250   27.6420   43.6770 C   0  0  0  0  0  0  0  0  0  0  0  0
   36.9020   26.6210   42.7520 C   0  0  0  0  0  0  0  0  0  0  0  0
   37.1290   26.7620   41.4300 C   0  0  0  0  0  0  0  0  0  0  0  0
   37.5260   29.7440   43.8710 H   0  0  0  0  0  0  0  0  0  0  0  0
   36.8340   27.4840   44.7180 H   0  0  0  0  0  0  0  0  0  0  0  0
   36.6030   25.6530   43.1380 H   0  0  0  0  0  0  0  0  0  0  0  0
   37.4750   32.3830   40.3590 C   0  0  0  0  0  0  0  0  0  0  0  0
   38.8050   32.8210   40.3790 C   0  0  0  0  0  0  0  0  0  0  0  0
   39.7590   31.9600   40.9210 C   0  0  0  0  0  0  0  0  0  0  0  0
   39.3540   30.7520   41.3960 N   0  0  0  0  0  0  0  0  0  0  0  0
   38.0430   30.3540   41.3610 C   0  0  0  0  0  0  0  0  0  0  0  0
   37.1320   31.1860   40.8390 N   0  0  0  0  0  0  0  0  0  0  0  0
   36.7840   33.0990   39.9240 H   0  0  0  0  0  0  0  0  0  0  0  0
   39.2130   33.7460   40.0310 H   0  0  0  0  0  0  0  0  0  0  0  0
   40.8210   32.1490   41.0100 H   0  0  0  0  0  0  0  0  0  0  0  0
   36.9880   25.6380   40.4570 C   0  0  0  0  0  0  0  0  0  0  0  0
   36.1010   25.9700   39.4470 F   0  0  0  0  0  0  0  0  0  0  0  0
   38.1910   25.2830   39.8780 F   0  0  0  0  0  0  0  0  0  0  0  0
   36.4800   24.4990   41.0430 F   0  0  0  0  0  0  0  0  0  0  0  0
  1  2  1  0  0  0  0
  2  7  2  0  0  0  0
  2  3  1  0  0  0  0
  3  4  2  0  0  0  0
  4  5  1  0  0  0  0
  4  8  1  0  0  0  0
  5  9  1  0  0  0  0
  6 10  1  0  0  0  0
  6  5  2  0  0  0  0
  7  6  1  0  0  0  0
 11 12  2  0  0  0  0
 11 16  1  0  0  0  0
 12 13  1  0  0  0  0
 13 19  1  0  0  0  0
 13 14  2  0  0  0  0
 15 14  1  0  0  0  0
 15  3  1  0  0  0  0
 16 15  2  0  0  0  0
 17 11  1  0  0  0  0
 18 12  1  0  0  0  0
 20 23  1  0  0  0  0
 20  7  1  0  0  0  0
 21 20  1  0  0  0  0
 22 20  1  0  0  0  0
M  END
>  <minimizedAffinity>
-4.81390858

$$$$

 OpenBabel03242510103D

 23 24  0  0  0  0  0  0  0  0999 V2000
   37.5230   27.5400   39.0440 Br  0  0  0  0  0  0  0  0  0  0  0  0
   37.4150   27.7550   40.9510 C   0  0  0  0  0  0  0  0  0  0  0  0
   37.5710   29.0030   41.5140 C   0  0  0  0  0  0  0  0  0  0  0  0
   37.4940   29.1730   42.8900 C   0  0  0  0  0  0  0  0  0  0  0  0
   37.2610   28.0790   43.6790 C   0  0  0  0  0  0  0  0  0  0  0  0
   37.1120   26.8480   43.0670 C   0  0  0  0  0  0  0  0  0  0  0  0
   37.1800   26.6490   41.7350 C   0  0  0  0  0  0  0  0  0  0  0  0
   37.6260   30.1780   43.2690 H   0  0  0  0  0  0  0  0  0  0  0  0
   37.2000   28.1900   44.7420 H   0  0  0  0  0  0  0  0  0  0  0  0
   36.9290   26.0020   43.7200 H   0  0  0  0  0  0  0  0  0  0  0  0
   36.9970   31.9370   39.4080 C   0  0  0  0  0  0  0  0  0  0  0  0
   38.2820   32.2890   38.9780 C   0  0  0  0  0  0  0  0  0  0  0  0
   39.3480   31.5060   39.4220 C   0  0  0  0  0  0  0  0  0  0  0  0
   39.0880   30.4510   40.2390 N   0  0  0  0  0  0  0  0  0  0  0  0
   37.8160   30.1330   40.6420 C   0  0  0  0  0  0  0  0  0  0  0  0
   36.7970   30.8910   40.2110 N   0  0  0  0  0  0  0  0  0  0  0  0
   36.2150   32.5860   39.0270 H   0  0  0  0  0  0  0  0  0  0  0  0
   38.5810   33.0950   38.3410 H   0  0  0  0  0  0  0  0  0  0  0  0
   40.3940   31.6450   39.1810 H   0  0  0  0  0  0  0  0  0  0  0  0
   37.0140   25.3050   41.1040 C   0  0  0  0  0  0  0  0  0  0  0  0
   36.5480   24.3830   42.0250 F   0  0  0  0  0  0  0  0  0  0  0  0
   36.1420   25.3260   40.0320 F   0  0  0  0  0  0  0  0  0  0  0  0
   38.2050   24.7970   40.6340 F   0  0  0  0  0  0  0  0  0  0  0  0
  1  2  1  0  0  0  0
  2  3  2  0  0  0  0
  2  7  1  0  0  0  0
  3  4  1  0  0  0  0
  4  8  1  0  0  0  0
  4  5  2  0  0  0  0
  5  9  1  0  0  0  0
  6  5  1  0  0  0  0
  6 10  1  0  0  0  0
  7  6  2  0  0  0  0
 11 16  1  0  0  0  0
 12 11  2  0  0  0  0
 12 13  1  0  0  0  0
 13 14  2  0  0  0  0
 14 15  1  0  0  0  0
 15  3  1  0  0  0  0
 16 15  2  0  0  0  0
 17 11  1  0  0  0  0
 18 12  1  0  0  0  0
 19 13  1  0  0  0  0
 20  7  1  0  0  0  0
 20 21  1  0  0  0  0
 22 20  1  0  0  0  0
 23 20  1  0  0  0  0
M  END
>  <minimizedAffinity>
-4.76880217

$$$$

 OpenBabel03242510103D

 23 24  0  0  0  0  0  0  0  0999 V2000
   37.7150   28.4280   39.0130 Br  0  0  0  0  0  0  0  0  0  0  0  0
   37.4830   28.1160   40.8960 C   0  0  0  0  0  0  0  0  0  0  0  0
   37.6890   29.1400   41.7940 C   0  0  0  0  0  0  0  0  0  0  0  0
   37.5250   28.9300   43.1570 C   0  0  0  0  0  0  0  0  0  0  0  0
   37.1550   27.6870   43.5930 C   0  0  0  0  0  0  0  0  0  0  0  0
   36.9600   26.6920   42.6530 C   0  0  0  0  0  0  0  0  0  0  0  0
   37.1110   26.8640   41.3240 C   0  0  0  0  0  0  0  0  0  0  0  0
   37.7030   29.7740   43.8100 H   0  0  0  0  0  0  0  0  0  0  0  0
   37.0240   27.5050   44.6400 H   0  0  0  0  0  0  0  0  0  0  0  0
   36.6670   25.7190   43.0310 H   0  0  0  0  0  0  0  0  0  0  0  0
   39.7550   32.0010   40.8350 C   0  0  0  0  0  0  0  0  0  0  0  0
   38.8280   32.9200   40.3270 C   0  0  0  0  0  0  0  0  0  0  0  0
   37.4860   32.5430   40.3170 C   0  0  0  0  0  0  0  0  0  0  0  0
   37.1470   31.3170   40.7980 N   0  0  0  0  0  0  0  0  0  0  0  0
   38.0800   30.4410   41.2890 C   0  0  0  0  0  0  0  0  0  0  0  0
   39.3690   30.8100   41.2950 N   0  0  0  0  0  0  0  0  0  0  0  0
   40.7810   32.3570   40.8130 H   0  0  0  0  0  0  0  0  0  0  0  0
   38.9990   33.8990   39.9310 H   0  0  0  0  0  0  0  0  0  0  0  0
   36.6520   33.1350   39.9600 H   0  0  0  0  0  0  0  0  0  0  0  0
   36.8920   25.7670   40.3330 C   0  0  0  0  0  0  0  0  0  0  0  0
   36.4630   24.6120   40.9630 F   0  0  0  0  0  0  0  0  0  0  0  0
   35.9640   26.1030   39.3660 F   0  0  0  0  0  0  0  0  0  0  0  0
   38.0490   25.4240   39.6680 F   0  0  0  0  0  0  0  0  0  0  0  0
  1  2  1  0  0  0  0
  2  7  2  0  0  0  0
  2  3  1  0  0  0  0
  3  4  2  0  0  0  0
  4  5  1  0  0  0  0
  4  8  1  0  0  0  0
  5  9  1  0  0  0  0
  6 10  1  0  0  0  0
  6  5  2  0  0  0  0
  7  6  1  0  0  0  0
 11 16  1  0  0  0  0
 12 11  2  0  0  0  0
 13 12  1  0  0  0  0
 13 14  2  0  0  0  0
 14 15  1  0  0  0  0
 15 16  2  0  0  0  0
 15  3  1  0  0  0  0
 17 11  1  0  0  0  0
 18 12  1  0  0  0  0
 19 13  1  0  0  0  0
 20 21  1  0  0  0  0
 20  7  1  0  0  0  0
 22 20  1  0  0  0  0
 23 20  1  0  0  0  0
M  END
>  <minimizedAffinity>
-4.75723791

$$$$

 OpenBabel03242510103D

 23 24  0  0  0  0  0  0  0  0999 V2000
   36.3800   27.2110   39.2430 Br  0  0  0  0  0  0  0  0  0  0  0  0
   37.0620   27.6470   40.9860 C   0  0  0  0  0  0  0  0  0  0  0  0
   37.7910   26.7150   41.6930 C   0  0  0  0  0  0  0  0  0  0  0  0
   38.2900   27.0160   42.9540 C   0  0  0  0  0  0  0  0  0  0  0  0
   38.0470   28.2540   43.4820 C   0  0  0  0  0  0  0  0  0  0  0  0
   37.3110   29.1540   42.7340 C   0  0  0  0  0  0  0  0  0  0  0  0
   36.8120   28.8940   41.5080 C   0  0  0  0  0  0  0  0  0  0  0  0
   38.8540   26.2410   43.4570 H   0  0  0  0  0  0  0  0  0  0  0  0
   38.4230   28.5040   44.4530 H   0  0  0  0  0  0  0  0  0  0  0  0
   37.1350   30.1260   43.1810 H   0  0  0  0  0  0  0  0  0  0  0  0
   37.3600   23.2030   40.7690 C   0  0  0  0  0  0  0  0  0  0  0  0
   38.4710   22.9380   39.9580 C   0  0  0  0  0  0  0  0  0  0  0  0
   39.3680   23.9820   39.7330 C   0  0  0  0  0  0  0  0  0  0  0  0
   39.1230   25.1900   40.3060 N   0  0  0  0  0  0  0  0  0  0  0  0
   38.0250   25.4160   41.0960 C   0  0  0  0  0  0  0  0  0  0  0  0
   37.1670   24.4080   41.3080 N   0  0  0  0  0  0  0  0  0  0  0  0
   36.7030   22.3500   40.9040 H   0  0  0  0  0  0  0  0  0  0  0  0
   38.7440   22.0270   39.4680 H   0  0  0  0  0  0  0  0  0  0  0  0
   40.2690   23.9390   39.1340 H   0  0  0  0  0  0  0  0  0  0  0  0
   36.0200   29.8890   40.7250 C   0  0  0  0  0  0  0  0  0  0  0  0
   35.8840   31.0740   41.4280 F   0  0  0  0  0  0  0  0  0  0  0  0
   36.5910   30.1760   39.5000 F   0  0  0  0  0  0  0  0  0  0  0  0
   34.7370   29.4540   40.4710 F   0  0  0  0  0  0  0  0  0  0  0  0
  1  2  1  0  0  0  0
  2  7  2  0  0  0  0
  2  3  1  0  0  0  0
  3  4  2  0  0  0  0
  4  8  1  0  0  0  0
  4  5  1  0  0  0  0
  5  9  1  0  0  0  0
  6 10  1  0  0  0  0
  6  5  2  0  0  0  0
  7  6  1  0  0  0  0
 11 17  1  0  0  0  0
 11 16  1  0  0  0  0
 12 11  2  0  0  0  0
 13 12  1  0  0  0  0
 13 14  2  0  0  0  0
 14 15  1  0  0  0  0
 15 16  2  0  0  0  0
 15  3  1  0  0  0  0
 18 12  1  0  0  0  0
 19 13  1  0  0  0  0
 20 21  1  0  0  0  0
 20  7  1  0  0  0  0
 22 20  1  0  0  0  0
 23 20  1  0  0  0  0
M  END
>  <minimizedAffinity>
-4.75596333

$$$$

 OpenBabel03242510103D

 23 24  0  0  0  0  0  0  0  0999 V2000
   36.6850   26.8820   40.2490 Br  0  0  0  0  0  0  0  0  0  0  0  0
   37.9970   27.1370   41.6320 C   0  0  0  0  0  0  0  0  0  0  0  0
   38.4880   28.3970   41.8910 C   0  0  0  0  0  0  0  0  0  0  0  0
   39.4360   28.5960   42.8870 C   0  0  0  0  0  0  0  0  0  0  0  0
   39.8730   27.5190   43.6070 C   0  0  0  0  0  0  0  0  0  0  0  0
   39.3490   26.2740   43.3090 C   0  0  0  0  0  0  0  0  0  0  0  0
   38.4290   26.0470   42.3490 C   0  0  0  0  0  0  0  0  0  0  0  0
   39.7820   29.6100   43.0400 H   0  0  0  0  0  0  0  0  0  0  0  0
   40.6030   27.6510   44.3780 H   0  0  0  0  0  0  0  0  0  0  0  0
   39.7160   25.4410   43.8980 H   0  0  0  0  0  0  0  0  0  0  0  0
   36.4470   31.2260   40.7940 C   0  0  0  0  0  0  0  0  0  0  0  0
   37.0620   31.6330   39.6040 C   0  0  0  0  0  0  0  0  0  0  0  0
   38.1860   30.9240   39.1840 C   0  0  0  0  0  0  0  0  0  0  0  0
   38.6240   29.8840   39.9420 N   0  0  0  0  0  0  0  0  0  0  0  0
   37.9980   29.5110   41.1040 C   0  0  0  0  0  0  0  0  0  0  0  0
   36.9180   30.1970   41.5010 N   0  0  0  0  0  0  0  0  0  0  0  0
   35.5780   31.8190   41.0640 H   0  0  0  0  0  0  0  0  0  0  0  0
   36.7910   32.4330   38.9460 H   0  0  0  0  0  0  0  0  0  0  0  0
   38.7710   31.1120   38.2920 H   0  0  0  0  0  0  0  0  0  0  0  0
   37.8830   24.6880   42.0520 C   0  0  0  0  0  0  0  0  0  0  0  0
   38.5200   23.7240   42.8130 F   0  0  0  0  0  0  0  0  0  0  0  0
   36.5240   24.5990   42.2900 F   0  0  0  0  0  0  0  0  0  0  0  0
   38.0800   24.3210   40.7390 F   0  0  0  0  0  0  0  0  0  0  0  0
  1  2  1  0  0  0  0
  2  3  2  0  0  0  0
  2  7  1  0  0  0  0
  3  4  1  0  0  0  0
  4  8  1  0  0  0  0
  4  5  2  0  0  0  0
  5  9  1  0  0  0  0
  6  5  1  0  0  0  0
  6 10  1  0  0  0  0
  7  6  2  0  0  0  0
 11 17  1  0  0  0  0
 11 16  1  0  0  0  0
 12 11  2  0  0  0  0
 13 12  1  0  0  0  0
 13 14  2  0  0  0  0
 14 15  1  0  0  0  0
 15 16  2  0  0  0  0
 15  3  1  0  0  0  0
 18 12  1  0  0  0  0
 19 13  1  0  0  0  0
 20 22  1  0  0  0  0
 20  7  1  0  0  0  0
 20 21  1  0  0  0  0
 23 20  1  0  0  0  0
M  END
>  <minimizedAffinity>
-4.75198603

$$$$

 OpenBabel03242510103D

 23 24  0  0  0  0  0  0  0  0999 V2000
   36.3880   27.1910   39.2380 Br  0  0  0  0  0  0  0  0  0  0  0  0
   37.0530   27.6110   40.9920 C   0  0  0  0  0  0  0  0  0  0  0  0
   37.7770   26.6730   41.6960 C   0  0  0  0  0  0  0  0  0  0  0  0
   38.2640   26.9630   42.9640 C   0  0  0  0  0  0  0  0  0  0  0  0
   38.0140   28.1950   43.5030 C   0  0  0  0  0  0  0  0  0  0  0  0
   37.2830   29.1010   42.7570 C   0  0  0  0  0  0  0  0  0  0  0  0
   36.7950   28.8520   41.5240 C   0  0  0  0  0  0  0  0  0  0  0  0
   38.8250   26.1840   43.4650 H   0  0  0  0  0  0  0  0  0  0  0  0
   38.3800   28.4370   44.4790 H   0  0  0  0  0  0  0  0  0  0  0  0
   37.1010   30.0680   43.2120 H   0  0  0  0  0  0  0  0  0  0  0  0
   39.3630   23.9960   39.7760 C   0  0  0  0  0  0  0  0  0  0  0  0
   38.4820   22.9170   39.9270 C   0  0  0  0  0  0  0  0  0  0  0  0
   37.3380   23.1220   40.6980 C   0  0  0  0  0  0  0  0  0  0  0  0
   37.1370   24.3450   41.2560 N   0  0  0  0  0  0  0  0  0  0  0  0
   38.0190   25.3810   41.0880 C   0  0  0  0  0  0  0  0  0  0  0  0
   39.1170   25.1760   40.3460 N   0  0  0  0  0  0  0  0  0  0  0  0
   40.2310   23.7690   39.1650 H   0  0  0  0  0  0  0  0  0  0  0  0
   38.5570   21.9270   39.5290 H   0  0  0  0  0  0  0  0  0  0  0  0
   36.5650   22.3940   40.9100 H   0  0  0  0  0  0  0  0  0  0  0  0
   36.0080   29.8540   40.7430 C   0  0  0  0  0  0  0  0  0  0  0  0
   35.9010   31.0450   41.4380 F   0  0  0  0  0  0  0  0  0  0  0  0
   36.5670   30.1210   39.5080 F   0  0  0  0  0  0  0  0  0  0  0  0
   34.7160   29.4370   40.5100 F   0  0  0  0  0  0  0  0  0  0  0  0
  1  2  1  0  0  0  0
  2  7  2  0  0  0  0
  2  3  1  0  0  0  0
  3  4  2  0  0  0  0
  4  8  1  0  0  0  0
  4  5  1  0  0  0  0
  5  9  1  0  0  0  0
  6 10  1  0  0  0  0
  6  5  2  0  0  0  0
  7  6  1  0  0  0  0
 11 12  2  0  0  0  0
 11 16  1  0  0  0  0
 12 13  1  0  0  0  0
 13 19  1  0  0  0  0
 13 14  2  0  0  0  0
 15 14  1  0  0  0  0
 15  3  1  0  0  0  0
 16 15  2  0  0  0  0
 17 11  1  0  0  0  0
 18 12  1  0  0  0  0
 20 21  1  0  0  0  0
 20  7  1  0  0  0  0
 22 20  1  0  0  0  0
 23 20  1  0  0  0  0
M  END
>  <minimizedAffinity>
-4.74409819

$$$$

 OpenBabel03242510103D

 23 24  0  0  0  0  0  0  0  0999 V2000
   36.9550   26.3460   40.3000 Br  0  0  0  0  0  0  0  0  0  0  0  0
   38.2570   26.1050   41.6930 C   0  0  0  0  0  0  0  0  0  0  0  0
   39.0320   24.9650   41.7220 C   0  0  0  0  0  0  0  0  0  0  0  0
   39.9770   24.7770   42.7220 C   0  0  0  0  0  0  0  0  0  0  0  0
   40.1260   25.7430   43.6790 C   0  0  0  0  0  0  0  0  0  0  0  0
   39.3260   26.8680   43.6080 C   0  0  0  0  0  0  0  0  0  0  0  0
   38.3990   27.0810   42.6510 C   0  0  0  0  0  0  0  0  0  0  0  0
   40.5520   23.8610   42.6890 H   0  0  0  0  0  0  0  0  0  0  0  0
   40.8490   25.6160   44.4590 H   0  0  0  0  0  0  0  0  0  0  0  0
   39.4680   27.6140   44.3810 H   0  0  0  0  0  0  0  0  0  0  0  0
   37.7560   22.0500   39.9210 C   0  0  0  0  0  0  0  0  0  0  0  0
   38.4760   22.0650   38.7190 C   0  0  0  0  0  0  0  0  0  0  0  0
   39.4030   23.0900   38.5370 C   0  0  0  0  0  0  0  0  0  0  0  0
   39.5620   24.0120   39.5230 N   0  0  0  0  0  0  0  0  0  0  0  0
   38.8410   23.9680   40.6890 C   0  0  0  0  0  0  0  0  0  0  0  0
   37.9510   22.9800   40.8570 N   0  0  0  0  0  0  0  0  0  0  0  0
   37.0520   21.2270   39.9990 H   0  0  0  0  0  0  0  0  0  0  0  0
   38.4190   21.3880   37.8930 H   0  0  0  0  0  0  0  0  0  0  0  0
   40.0340   23.2410   37.6700 H   0  0  0  0  0  0  0  0  0  0  0  0
   37.5500   28.3090   42.6010 C   0  0  0  0  0  0  0  0  0  0  0  0
   37.8030   29.0370   41.4510 F   0  0  0  0  0  0  0  0  0  0  0  0
   36.1990   28.0210   42.6430 F   0  0  0  0  0  0  0  0  0  0  0  0
   37.8050   29.1650   43.6500 F   0  0  0  0  0  0  0  0  0  0  0  0
  1  2  1  0  0  0  0
  2  3  2  0  0  0  0
  2  7  1  0  0  0  0
  3  4  1  0  0  0  0
  4  5  2  0  0  0  0
  5  9  1  0  0  0  0
  6  5  1  0  0  0  0
  6 10  1  0  0  0  0
  7  6  2  0  0  0  0
  8  4  1  0  0  0  0
 11 17  1  0  0  0  0
 11 16  1  0  0  0  0
 12 11  2  0  0  0  0
 13 12  1  0  0  0  0
 13 14  2  0  0  0  0
 14 15  1  0  0  0  0
 15 16  2  0  0  0  0
 15  3  1  0  0  0  0
 18 12  1  0  0  0  0
 19 13  1  0  0  0  0
 20 22  1  0  0  0  0
 20  7  1  0  0  0  0
 20 23  1  0  0  0  0
 21 20  1  0  0  0  0
M  END
>  <minimizedAffinity>
-4.67703533

$$$$
