
 OpenBabel03252508363D

 26 27  0  0  0  0  0  0  0  0999 V2000
   37.5670   28.2600   41.0430 C   0  0  0  0  0  0  0  0  0  0  0  0
   37.5950   28.8590   39.8020 C   0  0  0  0  0  0  0  0  0  0  0  0
   37.1250   28.1240   38.7410 C   0  0  0  0  0  0  0  0  0  0  0  0
   36.6360   26.8340   38.8760 C   0  0  0  0  0  0  0  0  0  0  0  0
   36.6260   26.2760   40.1330 C   0  0  0  0  0  0  0  0  0  0  0  0
   37.0920   26.9840   41.2270 C   0  0  0  0  0  0  0  0  0  0  0  0
   37.1550   28.6110   37.7760 H   0  0  0  0  0  0  0  0  0  0  0  0
   36.2780   26.3040   38.0010 H   0  0  0  0  0  0  0  0  0  0  0  0
   36.2400   25.2650   40.2240 H   0  0  0  0  0  0  0  0  0  0  0  0
   37.7940   32.6180   39.6810 C   0  0  0  0  0  0  0  0  0  0  0  0
   37.2680   31.3270   39.7640 C   0  0  0  0  0  0  0  0  0  0  0  0
   38.1200   30.2150   39.7170 C   0  0  0  0  0  0  0  0  0  0  0  0
   39.4380   30.4750   39.5910 N   0  0  0  0  0  0  0  0  0  0  0  0
   39.9280   31.7200   39.5130 C   0  0  0  0  0  0  0  0  0  0  0  0
   39.1090   32.7800   39.5580 N   0  0  0  0  0  0  0  0  0  0  0  0
   36.9100   33.7130   39.7310 N   0  0  0  0  0  0  0  0  0  0  0  0
   36.2180   31.1760   39.8630 H   0  0  0  0  0  0  0  0  0  0  0  0
   40.9840   31.9590   39.4110 H   0  0  0  0  0  0  0  0  0  0  0  0
   35.9110   33.6000   40.0180 H   0  0  0  0  0  0  0  0  0  0  0  0
   37.2260   34.6800   39.4820 H   0  0  0  0  0  0  0  0  0  0  0  0
   37.0810   26.3820   42.5860 C   0  0  0  0  0  0  0  0  0  0  0  0
   38.3340   26.3230   43.1610 F   0  0  0  0  0  0  0  0  0  0  0  0
   36.6540   25.0590   42.4950 F   0  0  0  0  0  0  0  0  0  0  0  0
   36.2240   27.1330   43.3850 F   0  0  0  0  0  0  0  0  0  0  0  0
   38.4430   29.5570   43.1440 N   0  0  0  0  0  0  0  0  0  0  0  0
   38.0430   28.9680   42.2000 C   0  0  0  0  0  0  0  0  0  0  0  0
  1  6  1  0  0  0  0
  1 26  1  0  0  0  0
  2  1  2  0  0  0  0
  3  4  2  0  0  0  0
  3  2  1  0  0  0  0
  4  5  1  0  0  0  0
  5  9  1  0  0  0  0
  5  6  2  0  0  0  0
  6 21  1  0  0  0  0
  7  3  1  0  0  0  0
  8  4  1  0  0  0  0
 10 16  1  0  0  0  0
 10 11  1  0  0  0  0
 11 17  1  0  0  0  0
 12 11  2  0  0  0  0
 12  2  1  0  0  0  0
 13 12  1  0  0  0  0
 14 15  1  0  0  0  0
 14 13  2  0  0  0  0
 15 10  2  0  0  0  0
 16 19  1  0  0  0  0
 18 14  1  0  0  0  0
 20 16  1  0  0  0  0
 21 22  1  0  0  0  0
 21 24  1  0  0  0  0
 23 21  1  0  0  0  0
 26 25  3  0  0  0  0
M  END
>  <minimizedAffinity>
-5.37768078

$$$$

 OpenBabel03252508363D

 26 27  0  0  0  0  0  0  0  0999 V2000
   38.0770   29.3540   41.1930 C   0  0  0  0  0  0  0  0  0  0  0  0
   37.6050   30.3890   40.4130 C   0  0  0  0  0  0  0  0  0  0  0  0
   36.2640   30.3870   40.1170 C   0  0  0  0  0  0  0  0  0  0  0  0
   35.3940   29.4070   40.5650 C   0  0  0  0  0  0  0  0  0  0  0  0
   35.9070   28.3930   41.3400 C   0  0  0  0  0  0  0  0  0  0  0  0
   37.2530   28.3580   41.6600 C   0  0  0  0  0  0  0  0  0  0  0  0
   35.9130   31.2080   39.5040 H   0  0  0  0  0  0  0  0  0  0  0  0
   34.3440   29.4600   40.2980 H   0  0  0  0  0  0  0  0  0  0  0  0
   35.2140   27.6320   41.6840 H   0  0  0  0  0  0  0  0  0  0  0  0
   39.9460   32.3870   38.2430 C   0  0  0  0  0  0  0  0  0  0  0  0
   39.0270   31.4160   38.6460 C   0  0  0  0  0  0  0  0  0  0  0  0
   38.5630   31.3910   39.9690 C   0  0  0  0  0  0  0  0  0  0  0  0
   39.0520   32.3410   40.7930 N   0  0  0  0  0  0  0  0  0  0  0  0
   39.9330   33.2680   40.3910 C   0  0  0  0  0  0  0  0  0  0  0  0
   40.3740   33.2870   39.1260 N   0  0  0  0  0  0  0  0  0  0  0  0
   40.3910   32.3840   36.9080 N   0  0  0  0  0  0  0  0  0  0  0  0
   38.6720   30.6870   37.9560 H   0  0  0  0  0  0  0  0  0  0  0  0
   40.3440   34.0440   41.0330 H   0  0  0  0  0  0  0  0  0  0  0  0
   39.9200   31.8090   36.1720 H   0  0  0  0  0  0  0  0  0  0  0  0
   41.2130   32.9590   36.6060 H   0  0  0  0  0  0  0  0  0  0  0  0
   37.8100   27.2640   42.4980 C   0  0  0  0  0  0  0  0  0  0  0  0
   38.8110   26.5550   41.8670 F   0  0  0  0  0  0  0  0  0  0  0  0
   36.8060   26.3340   42.7590 F   0  0  0  0  0  0  0  0  0  0  0  0
   38.2930   27.8260   43.6780 F   0  0  0  0  0  0  0  0  0  0  0  0
   40.6170   29.2440   41.8250 N   0  0  0  0  0  0  0  0  0  0  0  0
   39.4690   29.2880   41.5430 C   0  0  0  0  0  0  0  0  0  0  0  0
  1 26  1  0  0  0  0
  1  6  1  0  0  0  0
  2  1  2  0  0  0  0
  3  2  1  0  0  0  0
  3  4  2  0  0  0  0
  4  5  1  0  0  0  0
  5  6  2  0  0  0  0
  5  9  1  0  0  0  0
  6 21  1  0  0  0  0
  7  3  1  0  0  0  0
  8  4  1  0  0  0  0
 10 11  2  0  0  0  0
 10 15  1  0  0  0  0
 11 12  1  0  0  0  0
 12  2  1  0  0  0  0
 12 13  2  0  0  0  0
 14 13  1  0  0  0  0
 14 18  1  0  0  0  0
 15 14  2  0  0  0  0
 16 10  1  0  0  0  0
 17 11  1  0  0  0  0
 19 16  1  0  0  0  0
 20 16  1  0  0  0  0
 21 23  1  0  0  0  0
 21 24  1  0  0  0  0
 22 21  1  0  0  0  0
 26 25  3  0  0  0  0
M  END
>  <minimizedAffinity>
-5.21262169

$$$$

 OpenBabel03252508363D

 26 27  0  0  0  0  0  0  0  0999 V2000
   37.4860   28.1450   41.0130 C   0  0  0  0  0  0  0  0  0  0  0  0
   37.6170   29.1760   41.9190 C   0  0  0  0  0  0  0  0  0  0  0  0
   37.3830   28.8820   43.2400 C   0  0  0  0  0  0  0  0  0  0  0  0
   37.0300   27.6160   43.6790 C   0  0  0  0  0  0  0  0  0  0  0  0
   36.9100   26.6170   42.7420 C   0  0  0  0  0  0  0  0  0  0  0  0
   37.1370   26.8730   41.4000 C   0  0  0  0  0  0  0  0  0  0  0  0
   37.4910   29.7040   43.9350 H   0  0  0  0  0  0  0  0  0  0  0  0
   36.8580   27.4450   44.7360 H   0  0  0  0  0  0  0  0  0  0  0  0
   36.6330   25.6300   43.1000 H   0  0  0  0  0  0  0  0  0  0  0  0
   39.6190   32.2510   41.0720 C   0  0  0  0  0  0  0  0  0  0  0  0
   39.2850   30.9920   41.5760 C   0  0  0  0  0  0  0  0  0  0  0  0
   37.9890   30.4860   41.4030 C   0  0  0  0  0  0  0  0  0  0  0  0
   37.1210   31.2760   40.7390 N   0  0  0  0  0  0  0  0  0  0  0  0
   37.4570   32.4820   40.2600 C   0  0  0  0  0  0  0  0  0  0  0  0
   38.6970   32.9620   40.4280 N   0  0  0  0  0  0  0  0  0  0  0  0
   40.9290   32.7290   41.2630 N   0  0  0  0  0  0  0  0  0  0  0  0
   40.0090   30.4070   42.0940 H   0  0  0  0  0  0  0  0  0  0  0  0
   36.7780   33.1410   39.7220 H   0  0  0  0  0  0  0  0  0  0  0  0
   41.7010   32.1050   41.5920 H   0  0  0  0  0  0  0  0  0  0  0  0
   41.1760   33.7300   41.0790 H   0  0  0  0  0  0  0  0  0  0  0  0
   37.0090   25.7950   40.3850 C   0  0  0  0  0  0  0  0  0  0  0  0
   36.0910   26.0880   39.3980 F   0  0  0  0  0  0  0  0  0  0  0  0
   36.5320   24.6420   41.0040 F   0  0  0  0  0  0  0  0  0  0  0  0
   38.2650   25.5800   39.8220 F   0  0  0  0  0  0  0  0  0  0  0  0
   37.9010   28.5810   38.4640 N   0  0  0  0  0  0  0  0  0  0  0  0
   37.7150   28.3770   39.6140 C   0  0  0  0  0  0  0  0  0  0  0  0
  1  6  2  0  0  0  0
  1  2  1  0  0  0  0
  2  3  2  0  0  0  0
  3  4  1  0  0  0  0
  3  7  1  0  0  0  0
  4  8  1  0  0  0  0
  5  9  1  0  0  0  0
  5  4  2  0  0  0  0
  6  5  1  0  0  0  0
 10 16  1  0  0  0  0
 10 11  1  0  0  0  0
 11 17  1  0  0  0  0
 12 11  2  0  0  0  0
 12  2  1  0  0  0  0
 13 12  1  0  0  0  0
 14 15  1  0  0  0  0
 14 13  2  0  0  0  0
 15 10  2  0  0  0  0
 16 19  1  0  0  0  0
 18 14  1  0  0  0  0
 20 16  1  0  0  0  0
 21 23  1  0  0  0  0
 21  6  1  0  0  0  0
 22 21  1  0  0  0  0
 24 21  1  0  0  0  0
 25 26  3  0  0  0  0
 26  1  1  0  0  0  0
M  END
>  <minimizedAffinity>
-5.15184689

$$$$

 OpenBabel03252508363D

 26 27  0  0  0  0  0  0  0  0999 V2000
   38.3000   29.0370   41.5590 C   0  0  0  0  0  0  0  0  0  0  0  0
   39.4510   29.7940   41.4920 C   0  0  0  0  0  0  0  0  0  0  0  0
   40.5580   29.3060   42.1430 C   0  0  0  0  0  0  0  0  0  0  0  0
   40.5550   28.1100   42.8420 C   0  0  0  0  0  0  0  0  0  0  0  0
   39.3860   27.3880   42.8830 C   0  0  0  0  0  0  0  0  0  0  0  0
   38.2480   27.8460   42.2410 C   0  0  0  0  0  0  0  0  0  0  0  0
   41.4510   29.9140   42.0790 H   0  0  0  0  0  0  0  0  0  0  0  0
   41.4610   27.7770   43.3360 H   0  0  0  0  0  0  0  0  0  0  0  0
   39.3980   26.4530   43.4340 H   0  0  0  0  0  0  0  0  0  0  0  0
   39.5890   32.2810   38.6680 C   0  0  0  0  0  0  0  0  0  0  0  0
   39.6460   31.0720   39.3640 C   0  0  0  0  0  0  0  0  0  0  0  0
   39.3980   31.0420   40.7440 C   0  0  0  0  0  0  0  0  0  0  0  0
   39.1110   32.2240   41.3270 N   0  0  0  0  0  0  0  0  0  0  0  0
   39.0590   33.3770   40.6450 C   0  0  0  0  0  0  0  0  0  0  0  0
   39.2980   33.4000   39.3260 N   0  0  0  0  0  0  0  0  0  0  0  0
   39.8430   32.2760   37.2830 N   0  0  0  0  0  0  0  0  0  0  0  0
   39.8770   30.1650   38.8570 H   0  0  0  0  0  0  0  0  0  0  0  0
   38.8310   34.3440   41.0880 H   0  0  0  0  0  0  0  0  0  0  0  0
   39.8810   31.3860   36.7340 H   0  0  0  0  0  0  0  0  0  0  0  0
   40.0030   33.1660   36.7550 H   0  0  0  0  0  0  0  0  0  0  0  0
   36.9830   27.0670   42.2820 C   0  0  0  0  0  0  0  0  0  0  0  0
   37.1290   25.8300   42.8760 F   0  0  0  0  0  0  0  0  0  0  0  0
   36.5660   26.8040   40.9790 F   0  0  0  0  0  0  0  0  0  0  0  0
   36.0340   27.8180   42.9710 F   0  0  0  0  0  0  0  0  0  0  0  0
   36.1130   29.8600   40.3740 N   0  0  0  0  0  0  0  0  0  0  0  0
   37.1010   29.4840   40.9030 C   0  0  0  0  0  0  0  0  0  0  0  0
  1  6  1  0  0  0  0
  2  1  2  0  0  0  0
  2  3  1  0  0  0  0
  3  4  2  0  0  0  0
  4  5  1  0  0  0  0
  4  8  1  0  0  0  0
  5  9  1  0  0  0  0
  6 21  1  0  0  0  0
  6  5  2  0  0  0  0
  7  3  1  0  0  0  0
 10 15  2  0  0  0  0
 10 11  1  0  0  0  0
 11 12  2  0  0  0  0
 12 13  1  0  0  0  0
 12  2  1  0  0  0  0
 14 18  1  0  0  0  0
 14 13  2  0  0  0  0
 15 14  1  0  0  0  0
 16 10  1  0  0  0  0
 17 11  1  0  0  0  0
 19 16  1  0  0  0  0
 20 16  1  0  0  0  0
 21 22  1  0  0  0  0
 21 24  1  0  0  0  0
 23 21  1  0  0  0  0
 25 26  3  0  0  0  0
 26  1  1  0  0  0  0
M  END
>  <minimizedAffinity>
-4.98195648

$$$$

 OpenBabel03252508363D

 26 27  0  0  0  0  0  0  0  0999 V2000
   36.6940   25.9580   39.8710 C   0  0  0  0  0  0  0  0  0  0  0  0
   37.1220   26.5370   41.0470 C   0  0  0  0  0  0  0  0  0  0  0  0
   37.2340   25.7160   42.1430 C   0  0  0  0  0  0  0  0  0  0  0  0
   36.9400   24.3630   42.1040 C   0  0  0  0  0  0  0  0  0  0  0  0
   36.5160   23.8280   40.9100 C   0  0  0  0  0  0  0  0  0  0  0  0
   36.3900   24.6220   39.7830 C   0  0  0  0  0  0  0  0  0  0  0  0
   37.5710   26.1890   43.0570 H   0  0  0  0  0  0  0  0  0  0  0  0
   37.0480   23.7660   43.0030 H   0  0  0  0  0  0  0  0  0  0  0  0
   36.2900   22.7660   40.8950 H   0  0  0  0  0  0  0  0  0  0  0  0
   36.7080   30.2780   41.1750 C   0  0  0  0  0  0  0  0  0  0  0  0
   36.4010   28.9160   41.1940 C   0  0  0  0  0  0  0  0  0  0  0  0
   37.4170   27.9630   41.0320 C   0  0  0  0  0  0  0  0  0  0  0  0
   38.6660   28.4420   40.8630 N   0  0  0  0  0  0  0  0  0  0  0  0
   38.9460   29.7530   40.8480 C   0  0  0  0  0  0  0  0  0  0  0  0
   37.9710   30.6600   41.0030 N   0  0  0  0  0  0  0  0  0  0  0  0
   35.6640   31.2080   41.3410 N   0  0  0  0  0  0  0  0  0  0  0  0
   35.3970   28.5890   41.3300 H   0  0  0  0  0  0  0  0  0  0  0  0
   39.9420   30.1680   40.7140 H   0  0  0  0  0  0  0  0  0  0  0  0
   34.7140   30.9170   41.6650 H   0  0  0  0  0  0  0  0  0  0  0  0
   35.8060   32.2270   41.1440 H   0  0  0  0  0  0  0  0  0  0  0  0
   35.9330   24.0450   38.4920 C   0  0  0  0  0  0  0  0  0  0  0  0
   34.7820   24.6360   38.0130 F   0  0  0  0  0  0  0  0  0  0  0  0
   35.6100   22.7040   38.6800 F   0  0  0  0  0  0  0  0  0  0  0  0
   36.9640   24.1890   37.5660 F   0  0  0  0  0  0  0  0  0  0  0  0
   36.4300   27.3990   37.6980 N   0  0  0  0  0  0  0  0  0  0  0  0
   36.5520   26.7540   38.6830 C   0  0  0  0  0  0  0  0  0  0  0  0
  1  2  1  0  0  0  0
  2  3  2  0  0  0  0
  3  7  1  0  0  0  0
  4  3  1  0  0  0  0
  4  8  1  0  0  0  0
  5  4  2  0  0  0  0
  6  1  2  0  0  0  0
  6  5  1  0  0  0  0
  9  5  1  0  0  0  0
 10 11  1  0  0  0  0
 10 16  1  0  0  0  0
 11 17  1  0  0  0  0
 12  2  1  0  0  0  0
 12 11  2  0  0  0  0
 13 12  1  0  0  0  0
 14 13  2  0  0  0  0
 14 15  1  0  0  0  0
 15 10  2  0  0  0  0
 16 19  1  0  0  0  0
 18 14  1  0  0  0  0
 20 16  1  0  0  0  0
 21 23  1  0  0  0  0
 21  6  1  0  0  0  0
 22 21  1  0  0  0  0
 24 21  1  0  0  0  0
 25 26  3  0  0  0  0
 26  1  1  0  0  0  0
M  END
>  <minimizedAffinity>
-4.86339808

$$$$

 OpenBabel03252508363D

 26 27  0  0  0  0  0  0  0  0999 V2000
   37.7460   26.8580   41.3890 C   0  0  0  0  0  0  0  0  0  0  0  0
   37.2480   28.1430   41.3430 C   0  0  0  0  0  0  0  0  0  0  0  0
   37.3380   28.8900   42.4930 C   0  0  0  0  0  0  0  0  0  0  0  0
   37.8980   28.4060   43.6640 C   0  0  0  0  0  0  0  0  0  0  0  0
   38.3820   27.1190   43.6650 C   0  0  0  0  0  0  0  0  0  0  0  0
   38.3100   26.3340   42.5270 C   0  0  0  0  0  0  0  0  0  0  0  0
   36.9420   29.8960   42.4370 H   0  0  0  0  0  0  0  0  0  0  0  0
   37.9410   29.0440   44.5400 H   0  0  0  0  0  0  0  0  0  0  0  0
   38.8190   26.7530   44.5890 H   0  0  0  0  0  0  0  0  0  0  0  0
   34.7570   28.9780   38.6460 C   0  0  0  0  0  0  0  0  0  0  0  0
   35.2890   28.5340   39.8580 C   0  0  0  0  0  0  0  0  0  0  0  0
   36.6700   28.6000   40.0870 C   0  0  0  0  0  0  0  0  0  0  0  0
   37.4200   29.1060   39.0870 N   0  0  0  0  0  0  0  0  0  0  0  0
   36.8950   29.5300   37.9290 C   0  0  0  0  0  0  0  0  0  0  0  0
   35.5740   29.4640   37.7140 N   0  0  0  0  0  0  0  0  0  0  0  0
   33.3660   28.8970   38.4470 N   0  0  0  0  0  0  0  0  0  0  0  0
   34.6530   28.1420   40.6170 H   0  0  0  0  0  0  0  0  0  0  0  0
   37.4750   29.9410   37.1050 H   0  0  0  0  0  0  0  0  0  0  0  0
   32.7090   28.7000   39.2360 H   0  0  0  0  0  0  0  0  0  0  0  0
   32.9420   29.0330   37.5000 H   0  0  0  0  0  0  0  0  0  0  0  0
   38.8340   24.9430   42.5260 C   0  0  0  0  0  0  0  0  0  0  0  0
   39.5190   24.6220   43.6800 F   0  0  0  0  0  0  0  0  0  0  0  0
   39.7610   24.8060   41.4950 F   0  0  0  0  0  0  0  0  0  0  0  0
   37.7580   24.0760   42.3520 F   0  0  0  0  0  0  0  0  0  0  0  0
   37.6440   25.3350   39.2610 N   0  0  0  0  0  0  0  0  0  0  0  0
   37.6870   26.0170   40.2250 C   0  0  0  0  0  0  0  0  0  0  0  0
  1  6  1  0  0  0  0
  2  1  2  0  0  0  0
  2  3  1  0  0  0  0
  3  4  2  0  0  0  0
  4  5  1  0  0  0  0
  4  8  1  0  0  0  0
  5  9  1  0  0  0  0
  6  5  2  0  0  0  0
  7  3  1  0  0  0  0
 10 11  1  0  0  0  0
 11 12  2  0  0  0  0
 11 17  1  0  0  0  0
 12  2  1  0  0  0  0
 13 12  1  0  0  0  0
 14 13  2  0  0  0  0
 15 14  1  0  0  0  0
 15 10  2  0  0  0  0
 16 10  1  0  0  0  0
 16 19  1  0  0  0  0
 18 14  1  0  0  0  0
 20 16  1  0  0  0  0
 21  6  1  0  0  0  0
 21 22  1  0  0  0  0
 23 21  1  0  0  0  0
 24 21  1  0  0  0  0
 25 26  3  0  0  0  0
 26  1  1  0  0  0  0
M  END
>  <minimizedAffinity>
-4.84063482

$$$$

 OpenBabel03252508363D

 26 27  0  0  0  0  0  0  0  0999 V2000
   38.4100   27.2230   41.5400 C   0  0  0  0  0  0  0  0  0  0  0  0
   39.1320   28.3900   41.6780 C   0  0  0  0  0  0  0  0  0  0  0  0
   40.0620   28.4330   42.6890 C   0  0  0  0  0  0  0  0  0  0  0  0
   40.2900   27.3710   43.5490 C   0  0  0  0  0  0  0  0  0  0  0  0
   39.5460   26.2280   43.3750 C   0  0  0  0  0  0  0  0  0  0  0  0
   38.5990   26.1440   42.3680 C   0  0  0  0  0  0  0  0  0  0  0  0
   40.6190   29.3560   42.7810 H   0  0  0  0  0  0  0  0  0  0  0  0
   41.0370   27.4650   44.3280 H   0  0  0  0  0  0  0  0  0  0  0  0
   39.7360   25.4040   44.0560 H   0  0  0  0  0  0  0  0  0  0  0  0
   37.6620   31.5000   40.1470 C   0  0  0  0  0  0  0  0  0  0  0  0
   37.9140   30.4700   41.0550 C   0  0  0  0  0  0  0  0  0  0  0  0
   38.8520   29.4740   40.7470 C   0  0  0  0  0  0  0  0  0  0  0  0
   39.4690   29.5800   39.5520 N   0  0  0  0  0  0  0  0  0  0  0  0
   39.2160   30.5750   38.6910 C   0  0  0  0  0  0  0  0  0  0  0  0
   38.3190   31.5250   38.9890 N   0  0  0  0  0  0  0  0  0  0  0  0
   36.7150   32.4840   40.4870 N   0  0  0  0  0  0  0  0  0  0  0  0
   37.4000   30.4310   41.9860 H   0  0  0  0  0  0  0  0  0  0  0  0
   39.6970   30.6860   37.7210 H   0  0  0  0  0  0  0  0  0  0  0  0
   36.3430   32.5760   41.4600 H   0  0  0  0  0  0  0  0  0  0  0  0
   36.3500   33.1590   39.7740 H   0  0  0  0  0  0  0  0  0  0  0  0
   37.7950   24.9090   42.1780 C   0  0  0  0  0  0  0  0  0  0  0  0
   38.2230   23.8590   42.9640 F   0  0  0  0  0  0  0  0  0  0  0  0
   37.9390   24.4700   40.8640 F   0  0  0  0  0  0  0  0  0  0  0  0
   36.4660   25.2090   42.4650 F   0  0  0  0  0  0  0  0  0  0  0  0
   36.6010   27.0190   39.6550 N   0  0  0  0  0  0  0  0  0  0  0  0
   37.4190   27.1040   40.5050 C   0  0  0  0  0  0  0  0  0  0  0  0
  1  2  2  0  0  0  0
  1  6  1  0  0  0  0
  2  3  1  0  0  0  0
  3  7  1  0  0  0  0
  3  4  2  0  0  0  0
  4  8  1  0  0  0  0
  5  4  1  0  0  0  0
  5  9  1  0  0  0  0
  6  5  2  0  0  0  0
 10 16  1  0  0  0  0
 10 11  1  0  0  0  0
 11 17  1  0  0  0  0
 12 11  2  0  0  0  0
 12  2  1  0  0  0  0
 13 12  1  0  0  0  0
 14 15  1  0  0  0  0
 14 13  2  0  0  0  0
 15 10  2  0  0  0  0
 16 19  1  0  0  0  0
 18 14  1  0  0  0  0
 20 16  1  0  0  0  0
 21  6  1  0  0  0  0
 21 24  1  0  0  0  0
 21 22  1  0  0  0  0
 23 21  1  0  0  0  0
 25 26  3  0  0  0  0
 26  1  1  0  0  0  0
M  END
>  <minimizedAffinity>
-4.83085203

$$$$

 OpenBabel03252508363D

 26 27  0  0  0  0  0  0  0  0999 V2000
   37.8930   30.4370   40.0240 C   0  0  0  0  0  0  0  0  0  0  0  0
   37.2340   31.0470   38.9780 C   0  0  0  0  0  0  0  0  0  0  0  0
   37.2260   32.4210   38.9600 C   0  0  0  0  0  0  0  0  0  0  0  0
   37.8440   33.1910   39.9330 C   0  0  0  0  0  0  0  0  0  0  0  0
   38.4890   32.5400   40.9580 C   0  0  0  0  0  0  0  0  0  0  0  0
   38.5190   31.1570   41.0120 C   0  0  0  0  0  0  0  0  0  0  0  0
   36.7040   32.8810   38.1310 H   0  0  0  0  0  0  0  0  0  0  0  0
   37.8030   34.2720   39.8640 H   0  0  0  0  0  0  0  0  0  0  0  0
   38.9680   33.1560   41.7130 H   0  0  0  0  0  0  0  0  0  0  0  0
   36.6040   29.0900   35.8230 C   0  0  0  0  0  0  0  0  0  0  0  0
   37.2280   29.9150   36.7600 C   0  0  0  0  0  0  0  0  0  0  0  0
   36.6030   30.1900   37.9840 C   0  0  0  0  0  0  0  0  0  0  0  0
   35.3970   29.6190   38.1820 N   0  0  0  0  0  0  0  0  0  0  0  0
   34.8100   28.8290   37.2730 C   0  0  0  0  0  0  0  0  0  0  0  0
   35.4120   28.5690   36.1030 N   0  0  0  0  0  0  0  0  0  0  0  0
   37.2590   28.8350   34.6040 N   0  0  0  0  0  0  0  0  0  0  0  0
   38.1820   30.3430   36.5550 H   0  0  0  0  0  0  0  0  0  0  0  0
   33.8390   28.3560   37.4040 H   0  0  0  0  0  0  0  0  0  0  0  0
   38.2660   29.0800   34.4580 H   0  0  0  0  0  0  0  0  0  0  0  0
   36.7590   28.3890   33.7990 H   0  0  0  0  0  0  0  0  0  0  0  0
   39.2170   30.4530   42.1190 C   0  0  0  0  0  0  0  0  0  0  0  0
   38.3750   29.6620   42.8730 F   0  0  0  0  0  0  0  0  0  0  0  0
   39.7320   31.3950   43.0070 F   0  0  0  0  0  0  0  0  0  0  0  0
   40.2330   29.6770   41.5650 F   0  0  0  0  0  0  0  0  0  0  0  0
   37.9970   27.8240   40.1770 N   0  0  0  0  0  0  0  0  0  0  0  0
   37.9430   29.0030   40.1100 C   0  0  0  0  0  0  0  0  0  0  0  0
  1 26  1  0  0  0  0
  1  6  1  0  0  0  0
  2  1  2  0  0  0  0
  3  2  1  0  0  0  0
  3  4  2  0  0  0  0
  4  5  1  0  0  0  0
  5  6  2  0  0  0  0
  5  9  1  0  0  0  0
  6 21  1  0  0  0  0
  7  3  1  0  0  0  0
  8  4  1  0  0  0  0
 10 15  2  0  0  0  0
 10 11  1  0  0  0  0
 11 12  2  0  0  0  0
 12 13  1  0  0  0  0
 12  2  1  0  0  0  0
 14 18  1  0  0  0  0
 14 13  2  0  0  0  0
 15 14  1  0  0  0  0
 16 10  1  0  0  0  0
 17 11  1  0  0  0  0
 19 16  1  0  0  0  0
 20 16  1  0  0  0  0
 21 22  1  0  0  0  0
 21 23  1  0  0  0  0
 24 21  1  0  0  0  0
 26 25  3  0  0  0  0
M  END
>  <minimizedAffinity>
-4.78329706

$$$$

 OpenBabel03252508363D

 26 27  0  0  0  0  0  0  0  0999 V2000
   37.0680   27.5380   40.9730 C   0  0  0  0  0  0  0  0  0  0  0  0
   37.8910   26.6630   41.6510 C   0  0  0  0  0  0  0  0  0  0  0  0
   38.4210   27.0990   42.8410 C   0  0  0  0  0  0  0  0  0  0  0  0
   38.1600   28.3530   43.3680 C   0  0  0  0  0  0  0  0  0  0  0  0
   37.3330   29.1920   42.6590 C   0  0  0  0  0  0  0  0  0  0  0  0
   36.7800   28.7910   41.4550 C   0  0  0  0  0  0  0  0  0  0  0  0
   39.0650   26.3980   43.3580 H   0  0  0  0  0  0  0  0  0  0  0  0
   38.6080   28.6400   44.3130 H   0  0  0  0  0  0  0  0  0  0  0  0
   37.1370   30.1720   43.0840 H   0  0  0  0  0  0  0  0  0  0  0  0
   39.4050   23.8940   39.5960 C   0  0  0  0  0  0  0  0  0  0  0  0
   39.1940   25.1550   40.1590 C   0  0  0  0  0  0  0  0  0  0  0  0
   38.1320   25.3590   41.0510 C   0  0  0  0  0  0  0  0  0  0  0  0
   37.3580   24.2860   41.3160 N   0  0  0  0  0  0  0  0  0  0  0  0
   37.5730   23.0820   40.7680 C   0  0  0  0  0  0  0  0  0  0  0  0
   38.5900   22.8920   39.9150 N   0  0  0  0  0  0  0  0  0  0  0  0
   40.4800   23.7240   38.7040 N   0  0  0  0  0  0  0  0  0  0  0  0
   39.8350   25.9700   39.9160 H   0  0  0  0  0  0  0  0  0  0  0  0
   36.9660   22.2000   40.9630 H   0  0  0  0  0  0  0  0  0  0  0  0
   41.2290   24.4470   38.6000 H   0  0  0  0  0  0  0  0  0  0  0  0
   40.5670   22.8640   38.1120 H   0  0  0  0  0  0  0  0  0  0  0  0
   35.8850   29.6970   40.6880 C   0  0  0  0  0  0  0  0  0  0  0  0
   36.3490   29.9650   39.4170 F   0  0  0  0  0  0  0  0  0  0  0  0
   35.8290   30.9320   41.3290 F   0  0  0  0  0  0  0  0  0  0  0  0
   34.6250   29.1070   40.6230 F   0  0  0  0  0  0  0  0  0  0  0  0
   35.9800   26.8430   38.6930 N   0  0  0  0  0  0  0  0  0  0  0  0
   36.4770   27.1520   39.7210 C   0  0  0  0  0  0  0  0  0  0  0  0
  1  6  2  0  0  0  0
  1  2  1  0  0  0  0
  2  3  2  0  0  0  0
  3  7  1  0  0  0  0
  3  4  1  0  0  0  0
  4  8  1  0  0  0  0
  5  9  1  0  0  0  0
  5  4  2  0  0  0  0
  6  5  1  0  0  0  0
 10 15  2  0  0  0  0
 10 11  1  0  0  0  0
 11 12  2  0  0  0  0
 12 13  1  0  0  0  0
 12  2  1  0  0  0  0
 14 18  1  0  0  0  0
 14 13  2  0  0  0  0
 15 14  1  0  0  0  0
 16 10  1  0  0  0  0
 17 11  1  0  0  0  0
 19 16  1  0  0  0  0
 20 16  1  0  0  0  0
 21 23  1  0  0  0  0
 21  6  1  0  0  0  0
 22 21  1  0  0  0  0
 24 21  1  0  0  0  0
 25 26  3  0  0  0  0
 26  1  1  0  0  0  0
M  END
>  <minimizedAffinity>
-4.7483654

$$$$
