
 OpenBabel03252508233D

 43 45  0  0  0  0  0  0  0  0999 V2000
   46.2680   33.8780   40.4830 C   0  0  0  0  0  0  0  0  0  0  0  0
   46.8940   33.7190   39.2660 C   0  0  0  0  0  0  0  0  0  0  0  0
   48.1140   34.2610   38.9420 C   0  0  0  0  0  0  0  0  0  0  0  0
   48.7270   35.0190   39.9490 C   0  0  0  0  0  0  0  0  0  0  0  0
   48.1490   35.2050   41.1720 C   0  0  0  0  0  0  0  0  0  0  0  0
   46.9350   34.6480   41.4480 C   0  0  0  0  0  0  0  0  0  0  0  0
   46.4940   33.1430   38.4470 H   0  0  0  0  0  0  0  0  0  0  0  0
   48.6280   34.1580   38.0100 H   0  0  0  0  0  0  0  0  0  0  0  0
   49.7040   35.4780   39.7480 H   0  0  0  0  0  0  0  0  0  0  0  0
   48.6940   35.8100   41.8990 H   0  0  0  0  0  0  0  0  0  0  0  0
   46.4280   34.8920   42.7440 N   0  0  0  0  0  0  0  0  0  0  0  0
   45.4800   35.9210   43.0610 C   0  0  0  0  0  0  0  0  0  0  0  0
   44.7820   35.6360   44.3730 C   0  0  0  0  0  0  0  0  0  0  0  0
   44.4830   34.2620   44.5830 N   0  0  0  0  0  0  0  0  0  0  0  0
   45.5840   33.3870   44.4790 C   0  0  0  0  0  0  0  0  0  0  0  0
   46.7910   34.1360   43.9520 C   0  0  0  0  0  0  0  0  0  0  0  0
   44.8160   36.2490   42.2640 H   0  0  0  0  0  0  0  0  0  0  0  0
   46.1130   36.8360   43.2720 H   0  0  0  0  0  0  0  0  0  0  0  0
   43.8370   36.2060   44.3740 H   0  0  0  0  0  0  0  0  0  0  0  0
   45.4120   35.9660   45.2310 H   0  0  0  0  0  0  0  0  0  0  0  0
   43.7810   34.1130   45.2940 H   0  0  0  0  0  0  0  0  0  0  0  0
   45.8570   32.9960   45.4840 H   0  0  0  0  0  0  0  0  0  0  0  0
   45.3880   32.5070   43.8440 H   0  0  0  0  0  0  0  0  0  0  0  0
   47.1780   34.8430   44.7230 H   0  0  0  0  0  0  0  0  0  0  0  0
   47.5470   33.3730   43.6540 H   0  0  0  0  0  0  0  0  0  0  0  0
   44.9670   33.3020   40.8190 C   0  0  0  0  0  0  0  0  0  0  0  0
   44.3210   33.9340   41.4240 H   0  0  0  0  0  0  0  0  0  0  0  0
   45.1890   32.4030   41.4660 H   0  0  0  0  0  0  0  0  0  0  0  0
   44.2250   32.8290   39.5860 C   0  0  0  0  0  0  0  0  0  0  0  0
   43.9380   31.7410   39.7020 H   0  0  0  0  0  0  0  0  0  0  0  0
   44.7400   32.9610   38.6480 H   0  0  0  0  0  0  0  0  0  0  0  0
   41.5010   35.1820   38.4470 C   0  0  0  0  0  0  0  0  0  0  0  0
   42.7490   34.5160   38.5200 C   0  0  0  0  0  0  0  0  0  0  0  0
   42.9300   33.5420   39.4940 C   0  0  0  0  0  0  0  0  0  0  0  0
   41.8800   33.2830   40.3330 N   0  0  0  0  0  0  0  0  0  0  0  0
   40.7150   33.9210   40.2480 C   0  0  0  0  0  0  0  0  0  0  0  0
   40.5200   34.8700   39.3090 N   0  0  0  0  0  0  0  0  0  0  0  0
   41.3780   35.9470   37.6710 H   0  0  0  0  0  0  0  0  0  0  0  0
   43.5390   34.7570   37.8370 H   0  0  0  0  0  0  0  0  0  0  0  0
   39.6550   33.5340   41.2320 C   0  0  0  0  0  0  0  0  0  0  0  0
   39.7460   32.1850   41.5870 F   0  0  0  0  0  0  0  0  0  0  0  0
   38.3860   33.6960   40.7010 F   0  0  0  0  0  0  0  0  0  0  0  0
   39.7500   34.2410   42.4160 F   0  0  0  0  0  0  0  0  0  0  0  0
  1 26  1  0  0  0  0
  1  6  1  0  0  0  0
  2  1  2  0  0  0  0
  3  2  1  0  0  0  0
  3  4  2  0  0  0  0
  4  5  1  0  0  0  0
  5  6  2  0  0  0  0
  5 10  1  0  0  0  0
  6 11  1  0  0  0  0
  7  2  1  0  0  0  0
  8  3  1  0  0  0  0
  9  4  1  0  0  0  0
 11 12  1  0  0  0  0
 11 16  1  0  0  0  0
 12 18  1  0  0  0  0
 12 13  1  0  0  0  0
 13 19  1  0  0  0  0
 13 14  1  0  0  0  0
 13 20  1  0  0  0  0
 14 21  1  0  0  0  0
 15 14  1  0  0  0  0
 15 22  1  0  0  0  0
 16 15  1  0  0  0  0
 16 24  1  0  0  0  0
 17 12  1  0  0  0  0
 23 15  1  0  0  0  0
 25 16  1  0  0  0  0
 26 27  1  0  0  0  0
 26 28  1  0  0  0  0
 29 30  1  0  0  0  0
 29 26  1  0  0  0  0
 31 29  1  0  0  0  0
 32 33  2  0  0  0  0
 32 37  1  0  0  0  0
 33 34  1  0  0  0  0
 34 29  1  0  0  0  0
 34 35  2  0  0  0  0
 36 35  1  0  0  0  0
 36 40  1  0  0  0  0
 37 36  2  0  0  0  0
 38 32  1  0  0  0  0
 39 33  1  0  0  0  0
 40 41  1  0  0  0  0
 40 43  1  0  0  0  0
 42 40  1  0  0  0  0
M  END
>  <minimizedAffinity>
-5.94008875

>  <minimizedRMSD>
1.04528928

$$$$
