
 OpenBabel03252501303D

 33 34  0  0  0  0  0  0  0  0999 V2000
   37.3410   29.5870   41.8680 C   0  0  0  0  0  0  0  0  0  0  0  0
   38.5280   30.2820   41.9870 C   0  0  0  0  0  0  0  0  0  0  0  0
   38.7730   31.4780   41.3900 C   0  0  0  0  0  0  0  0  0  0  0  0
   37.7820   32.0370   40.6180 C   0  0  0  0  0  0  0  0  0  0  0  0
   36.5950   31.3590   40.4880 C   0  0  0  0  0  0  0  0  0  0  0  0
   36.3600   30.1420   41.1040 C   0  0  0  0  0  0  0  0  0  0  0  0
   39.2750   29.7750   42.6190 H   0  0  0  0  0  0  0  0  0  0  0  0
   39.7470   31.9040   41.5720 H   0  0  0  0  0  0  0  0  0  0  0  0
   35.9330   31.9560   39.8390 H   0  0  0  0  0  0  0  0  0  0  0  0
   34.8820   29.0090   39.5660 C   0  0  0  0  0  0  0  0  0  0  0  0
   35.5960   28.5330   38.6080 O   0  0  0  0  0  0  0  0  0  0  0  0
   35.0270   29.7750   40.7550 N   0  0  0  0  0  0  0  0  0  0  0  0
   33.9140   28.6240   39.2110 H   0  0  0  0  0  0  0  0  0  0  0  0
   34.1430   29.9680   41.2160 H   0  0  0  0  0  0  0  0  0  0  0  0
   38.1460   33.3560   40.0010 C   0  0  0  0  0  0  0  0  0  0  0  0
   37.0600   34.0220   39.5150 F   0  0  0  0  0  0  0  0  0  0  0  0
   38.8280   34.0820   40.9780 F   0  0  0  0  0  0  0  0  0  0  0  0
   39.0910   33.0420   39.0240 F   0  0  0  0  0  0  0  0  0  0  0  0
   36.9610   28.3040   42.4470 C   0  0  0  0  0  0  0  0  0  0  0  0
   37.0130   27.4530   41.7140 H   0  0  0  0  0  0  0  0  0  0  0  0
   35.8810   28.3540   42.7040 H   0  0  0  0  0  0  0  0  0  0  0  0
   37.8290   27.9510   43.6270 C   0  0  0  0  0  0  0  0  0  0  0  0
   37.1630   27.6770   44.4920 H   0  0  0  0  0  0  0  0  0  0  0  0
   38.4430   28.8080   43.9680 H   0  0  0  0  0  0  0  0  0  0  0  0
   40.5990   25.5690   43.3620 C   0  0  0  0  0  0  0  0  0  0  0  0
   40.0250   24.5100   42.6200 C   0  0  0  0  0  0  0  0  0  0  0  0
   38.6830   24.6730   42.2400 C   0  0  0  0  0  0  0  0  0  0  0  0
   38.0160   25.7760   42.5790 N   0  0  0  0  0  0  0  0  0  0  0  0
   38.6210   26.7560   43.2910 C   0  0  0  0  0  0  0  0  0  0  0  0
   39.8660   26.6720   43.6760 N   0  0  0  0  0  0  0  0  0  0  0  0
   41.6350   25.4350   43.6510 H   0  0  0  0  0  0  0  0  0  0  0  0
   40.5460   23.6240   42.3440 H   0  0  0  0  0  0  0  0  0  0  0  0
   38.1690   23.8890   41.6610 H   0  0  0  0  0  0  0  0  0  0  0  0
  1  2  1  0  0  0  0
  1 19  1  0  0  0  0
  2  7  1  0  0  0  0
  3  8  1  0  0  0  0
  3  2  2  0  0  0  0
  4  3  1  0  0  0  0
  5  4  2  0  0  0  0
  5  6  1  0  0  0  0
  6  1  2  0  0  0  0
  9  5  1  0  0  0  0
 10 12  1  0  0  0  0
 11 10  2  0  0  0  0
 12  6  1  0  0  0  0
 12 14  1  0  0  0  0
 13 10  1  0  0  0  0
 15  4  1  0  0  0  0
 15 17  1  0  0  0  0
 16 15  1  0  0  0  0
 18 15  1  0  0  0  0
 19 21  1  0  0  0  0
 19 22  1  0  0  0  0
 20 19  1  0  0  0  0
 22 24  1  0  0  0  0
 22 23  1  0  0  0  0
 25 31  1  0  0  0  0
 25 30  1  0  0  0  0
 26 25  2  0  0  0  0
 27 28  2  0  0  0  0
 27 26  1  0  0  0  0
 28 29  1  0  0  0  0
 29 22  1  0  0  0  0
 29 30  2  0  0  0  0
 32 26  1  0  0  0  0
 33 27  1  0  0  0  0
M  END
>  <minimizedAffinity>
-5.74769115

$$$$

 OpenBabel03252501303D

 33 34  0  0  0  0  0  0  0  0999 V2000
   36.2260   28.4190   40.4760 C   0  0  0  0  0  0  0  0  0  0  0  0
   36.1960   27.4390   39.5040 C   0  0  0  0  0  0  0  0  0  0  0  0
   36.5500   26.1440   39.7170 C   0  0  0  0  0  0  0  0  0  0  0  0
   36.9640   25.7800   40.9760 C   0  0  0  0  0  0  0  0  0  0  0  0
   37.0000   26.7420   41.9560 C   0  0  0  0  0  0  0  0  0  0  0  0
   36.6350   28.0560   41.7230 C   0  0  0  0  0  0  0  0  0  0  0  0
   35.8560   27.8030   38.5220 H   0  0  0  0  0  0  0  0  0  0  0  0
   36.4760   25.4900   38.8630 H   0  0  0  0  0  0  0  0  0  0  0  0
   37.3540   26.2660   42.8860 H   0  0  0  0  0  0  0  0  0  0  0  0
   38.1080   29.1050   43.3250 C   0  0  0  0  0  0  0  0  0  0  0  0
   39.3110   28.9970   42.8870 O   0  0  0  0  0  0  0  0  0  0  0  0
   36.7820   28.7320   42.9710 N   0  0  0  0  0  0  0  0  0  0  0  0
   38.3510   29.6710   44.2380 H   0  0  0  0  0  0  0  0  0  0  0  0
   36.0920   29.0000   43.6650 H   0  0  0  0  0  0  0  0  0  0  0  0
   37.3330   24.3320   41.1140 C   0  0  0  0  0  0  0  0  0  0  0  0
   38.4010   23.9890   40.3390 F   0  0  0  0  0  0  0  0  0  0  0  0
   37.5590   24.1020   42.4720 F   0  0  0  0  0  0  0  0  0  0  0  0
   36.1660   23.6360   40.7950 F   0  0  0  0  0  0  0  0  0  0  0  0
   35.8820   29.8320   40.3730 C   0  0  0  0  0  0  0  0  0  0  0  0
   36.1080   30.4140   41.3080 H   0  0  0  0  0  0  0  0  0  0  0  0
   34.7770   29.9070   40.2870 H   0  0  0  0  0  0  0  0  0  0  0  0
   36.6060   30.4940   39.2300 C   0  0  0  0  0  0  0  0  0  0  0  0
   35.8420   30.9340   38.5300 H   0  0  0  0  0  0  0  0  0  0  0  0
   37.1960   29.7720   38.6310 H   0  0  0  0  0  0  0  0  0  0  0  0
   39.1230   32.4060   41.0810 C   0  0  0  0  0  0  0  0  0  0  0  0
   38.8360   33.7390   40.7050 C   0  0  0  0  0  0  0  0  0  0  0  0
   37.7670   33.9160   39.8120 C   0  0  0  0  0  0  0  0  0  0  0  0
   37.0830   32.8650   39.3620 N   0  0  0  0  0  0  0  0  0  0  0  0
   37.4050   31.6110   39.7600 C   0  0  0  0  0  0  0  0  0  0  0  0
   38.3870   31.3730   40.5880 N   0  0  0  0  0  0  0  0  0  0  0  0
   39.9500   32.2770   41.7710 H   0  0  0  0  0  0  0  0  0  0  0  0
   39.3750   34.5870   41.0550 H   0  0  0  0  0  0  0  0  0  0  0  0
   37.4870   34.9260   39.4740 H   0  0  0  0  0  0  0  0  0  0  0  0
  1  6  1  0  0  0  0
  2  3  1  0  0  0  0
  2  1  2  0  0  0  0
  3  4  2  0  0  0  0
  4 15  1  0  0  0  0
  4  5  1  0  0  0  0
  5  9  1  0  0  0  0
  6  5  2  0  0  0  0
  6 12  1  0  0  0  0
  7  2  1  0  0  0  0
  8  3  1  0  0  0  0
 10 13  1  0  0  0  0
 11 10  2  0  0  0  0
 12 10  1  0  0  0  0
 12 14  1  0  0  0  0
 15 17  1  0  0  0  0
 16 15  1  0  0  0  0
 18 15  1  0  0  0  0
 19  1  1  0  0  0  0
 19 20  1  0  0  0  0
 21 19  1  0  0  0  0
 22 29  1  0  0  0  0
 22 19  1  0  0  0  0
 23 22  1  0  0  0  0
 24 22  1  0  0  0  0
 25 31  1  0  0  0  0
 26 32  1  0  0  0  0
 26 25  1  0  0  0  0
 27 26  2  0  0  0  0
 28 29  2  0  0  0  0
 28 27  1  0  0  0  0
 29 30  1  0  0  0  0
 30 25  2  0  0  0  0
 33 27  1  0  0  0  0
M  END
>  <minimizedAffinity>
-5.567554

$$$$

 OpenBabel03252501303D

 33 34  0  0  0  0  0  0  0  0999 V2000
   38.7620   28.9130   42.5440 C   0  0  0  0  0  0  0  0  0  0  0  0
   39.5530   27.7870   42.6570 C   0  0  0  0  0  0  0  0  0  0  0  0
   39.0980   26.5170   42.4900 C   0  0  0  0  0  0  0  0  0  0  0  0
   37.7680   26.3350   42.1900 C   0  0  0  0  0  0  0  0  0  0  0  0
   36.9670   27.4450   42.0730 C   0  0  0  0  0  0  0  0  0  0  0  0
   37.4460   28.7310   42.2450 C   0  0  0  0  0  0  0  0  0  0  0  0
   40.6040   28.0090   42.9000 H   0  0  0  0  0  0  0  0  0  0  0  0
   39.8300   25.7350   42.6090 H   0  0  0  0  0  0  0  0  0  0  0  0
   35.9470   27.1020   41.8330 H   0  0  0  0  0  0  0  0  0  0  0  0
   35.8250   29.6300   40.6980 C   0  0  0  0  0  0  0  0  0  0  0  0
   36.0680   29.1350   39.5370 O   0  0  0  0  0  0  0  0  0  0  0  0
   36.3350   29.5980   42.0240 N   0  0  0  0  0  0  0  0  0  0  0  0
   34.9430   30.2220   40.4050 H   0  0  0  0  0  0  0  0  0  0  0  0
   35.8330   30.2080   42.6610 H   0  0  0  0  0  0  0  0  0  0  0  0
   37.3600   24.9000   42.0240 C   0  0  0  0  0  0  0  0  0  0  0  0
   38.3600   24.0320   42.3500 F   0  0  0  0  0  0  0  0  0  0  0  0
   36.2150   24.7170   42.8010 F   0  0  0  0  0  0  0  0  0  0  0  0
   36.9440   24.8010   40.6960 F   0  0  0  0  0  0  0  0  0  0  0  0
   39.1260   30.3150   42.7060 C   0  0  0  0  0  0  0  0  0  0  0  0
   39.6770   30.5240   43.6640 H   0  0  0  0  0  0  0  0  0  0  0  0
   38.1860   30.8990   42.8200 H   0  0  0  0  0  0  0  0  0  0  0  0
   39.9820   30.8000   41.5650 C   0  0  0  0  0  0  0  0  0  0  0  0
   40.5180   29.9170   41.1190 H   0  0  0  0  0  0  0  0  0  0  0  0
   40.7700   31.5040   41.9000 H   0  0  0  0  0  0  0  0  0  0  0  0
   37.4120   32.7730   39.8560 C   0  0  0  0  0  0  0  0  0  0  0  0
   37.5140   32.3210   38.5200 C   0  0  0  0  0  0  0  0  0  0  0  0
   38.4860   31.3390   38.2680 C   0  0  0  0  0  0  0  0  0  0  0  0
   39.2530   30.8800   39.2570 N   0  0  0  0  0  0  0  0  0  0  0  0
   39.1060   31.3530   40.5180 C   0  0  0  0  0  0  0  0  0  0  0  0
   38.2240   32.2660   40.8240 N   0  0  0  0  0  0  0  0  0  0  0  0
   36.6600   33.5320   40.0420 H   0  0  0  0  0  0  0  0  0  0  0  0
   36.9090   32.6800   37.7210 H   0  0  0  0  0  0  0  0  0  0  0  0
   38.6230   30.9400   37.2510 H   0  0  0  0  0  0  0  0  0  0  0  0
  1  2  1  0  0  0  0
  1 19  1  0  0  0  0
  2  7  1  0  0  0  0
  3  8  1  0  0  0  0
  3  2  2  0  0  0  0
  4  3  1  0  0  0  0
  5  4  2  0  0  0  0
  5  6  1  0  0  0  0
  6  1  2  0  0  0  0
  9  5  1  0  0  0  0
 10 12  1  0  0  0  0
 11 10  2  0  0  0  0
 12  6  1  0  0  0  0
 12 14  1  0  0  0  0
 13 10  1  0  0  0  0
 15  4  1  0  0  0  0
 15 16  1  0  0  0  0
 15 17  1  0  0  0  0
 18 15  1  0  0  0  0
 19 21  1  0  0  0  0
 19 20  1  0  0  0  0
 22 24  1  0  0  0  0
 22 19  1  0  0  0  0
 23 22  1  0  0  0  0
 25 31  1  0  0  0  0
 25 30  1  0  0  0  0
 26 25  2  0  0  0  0
 27 26  1  0  0  0  0
 27 28  2  0  0  0  0
 28 29  1  0  0  0  0
 29 30  2  0  0  0  0
 29 22  1  0  0  0  0
 32 26  1  0  0  0  0
 33 27  1  0  0  0  0
M  END
>  <minimizedAffinity>
-5.33139515

$$$$

 OpenBabel03252501303D

 33 34  0  0  0  0  0  0  0  0999 V2000
   36.3610   29.4490   39.8520 C   0  0  0  0  0  0  0  0  0  0  0  0
   36.6020   30.2000   38.7200 C   0  0  0  0  0  0  0  0  0  0  0  0
   37.1380   31.4490   38.7350 C   0  0  0  0  0  0  0  0  0  0  0  0
   37.4640   32.0050   39.9500 C   0  0  0  0  0  0  0  0  0  0  0  0
   37.2300   31.2710   41.0870 C   0  0  0  0  0  0  0  0  0  0  0  0
   36.6840   30.0000   41.0550 C   0  0  0  0  0  0  0  0  0  0  0  0
   36.3160   29.6930   37.7850 H   0  0  0  0  0  0  0  0  0  0  0  0
   37.2700   31.9170   37.7720 H   0  0  0  0  0  0  0  0  0  0  0  0
   37.5500   31.8750   41.9520 H   0  0  0  0  0  0  0  0  0  0  0  0
   37.8520   29.1650   42.9970 C   0  0  0  0  0  0  0  0  0  0  0  0
   39.0890   29.0150   42.6810 O   0  0  0  0  0  0  0  0  0  0  0  0
   36.6200   29.5650   42.4110 N   0  0  0  0  0  0  0  0  0  0  0  0
   37.9470   28.8520   44.0480 H   0  0  0  0  0  0  0  0  0  0  0  0
   35.8320   29.4890   43.0470 H   0  0  0  0  0  0  0  0  0  0  0  0
   38.0490   33.3840   39.8650 C   0  0  0  0  0  0  0  0  0  0  0  0
   38.4700   33.8480   41.0750 F   0  0  0  0  0  0  0  0  0  0  0  0
   39.0790   33.3260   38.9240 F   0  0  0  0  0  0  0  0  0  0  0  0
   37.0440   34.1610   39.2870 F   0  0  0  0  0  0  0  0  0  0  0  0
   35.7880   28.1140   39.9680 C   0  0  0  0  0  0  0  0  0  0  0  0
   34.7110   28.0620   39.6480 H   0  0  0  0  0  0  0  0  0  0  0  0
   35.7450   27.8550   41.0490 H   0  0  0  0  0  0  0  0  0  0  0  0
   36.5600   27.1080   39.1550 C   0  0  0  0  0  0  0  0  0  0  0  0
   37.5120   27.5910   38.7980 H   0  0  0  0  0  0  0  0  0  0  0  0
   36.0120   26.7930   38.2450 H   0  0  0  0  0  0  0  0  0  0  0  0
   36.8740   23.7430   40.5680 C   0  0  0  0  0  0  0  0  0  0  0  0
   37.6870   23.9610   41.7050 C   0  0  0  0  0  0  0  0  0  0  0  0
   38.0970   25.2840   41.9320 C   0  0  0  0  0  0  0  0  0  0  0  0
   37.7230   26.2580   41.1020 N   0  0  0  0  0  0  0  0  0  0  0  0
   36.9420   25.9860   40.0290 C   0  0  0  0  0  0  0  0  0  0  0  0
   36.5240   24.7790   39.7580 N   0  0  0  0  0  0  0  0  0  0  0  0
   36.5620   22.7180   40.4000 H   0  0  0  0  0  0  0  0  0  0  0  0
   37.9950   23.1920   42.3750 H   0  0  0  0  0  0  0  0  0  0  0  0
   38.7330   25.5290   42.7970 H   0  0  0  0  0  0  0  0  0  0  0  0
  1 19  1  0  0  0  0
  1  6  1  0  0  0  0
  2  3  1  0  0  0  0
  2  1  2  0  0  0  0
  3  4  2  0  0  0  0
  4  5  1  0  0  0  0
  5  9  1  0  0  0  0
  6  5  2  0  0  0  0
  6 12  1  0  0  0  0
  7  2  1  0  0  0  0
  8  3  1  0  0  0  0
 10 13  1  0  0  0  0
 11 10  2  0  0  0  0
 12 10  1  0  0  0  0
 12 14  1  0  0  0  0
 15  4  1  0  0  0  0
 15 16  1  0  0  0  0
 17 15  1  0  0  0  0
 18 15  1  0  0  0  0
 19 21  1  0  0  0  0
 20 19  1  0  0  0  0
 22 19  1  0  0  0  0
 22 29  1  0  0  0  0
 23 22  1  0  0  0  0
 24 22  1  0  0  0  0
 25 26  1  0  0  0  0
 26 27  2  0  0  0  0
 26 32  1  0  0  0  0
 27 33  1  0  0  0  0
 28 27  1  0  0  0  0
 29 28  2  0  0  0  0
 30 29  1  0  0  0  0
 30 25  2  0  0  0  0
 31 25  1  0  0  0  0
M  END
>  <minimizedAffinity>
-5.26313162

$$$$

 OpenBabel03252501303D

 33 34  0  0  0  0  0  0  0  0999 V2000
   39.0180   28.7210   42.7090 C   0  0  0  0  0  0  0  0  0  0  0  0
   40.1010   27.8700   42.8010 C   0  0  0  0  0  0  0  0  0  0  0  0
   40.0130   26.5150   42.7330 C   0  0  0  0  0  0  0  0  0  0  0  0
   38.7720   25.9500   42.5610 C   0  0  0  0  0  0  0  0  0  0  0  0
   37.6820   26.7820   42.4670 C   0  0  0  0  0  0  0  0  0  0  0  0
   37.7890   28.1590   42.5380 C   0  0  0  0  0  0  0  0  0  0  0  0
   41.0610   28.3920   42.9380 H   0  0  0  0  0  0  0  0  0  0  0  0
   40.9440   25.9780   42.8210 H   0  0  0  0  0  0  0  0  0  0  0  0
   36.7860   26.1530   42.3350 H   0  0  0  0  0  0  0  0  0  0  0  0
   35.9930   28.7670   41.0410 C   0  0  0  0  0  0  0  0  0  0  0  0
   36.4010   28.5800   39.8360 O   0  0  0  0  0  0  0  0  0  0  0  0
   36.4650   28.6650   42.3780 N   0  0  0  0  0  0  0  0  0  0  0  0
   34.9750   29.0990   40.7840 H   0  0  0  0  0  0  0  0  0  0  0  0
   35.7840   28.9710   43.0660 H   0  0  0  0  0  0  0  0  0  0  0  0
   38.7760   24.4510   42.4980 C   0  0  0  0  0  0  0  0  0  0  0  0
   37.5190   23.9240   42.5120 F   0  0  0  0  0  0  0  0  0  0  0  0
   39.4920   24.0990   41.3520 F   0  0  0  0  0  0  0  0  0  0  0  0
   39.5610   24.0520   43.5800 F   0  0  0  0  0  0  0  0  0  0  0  0
   38.9800   30.1760   42.7740 C   0  0  0  0  0  0  0  0  0  0  0  0
   39.3150   30.5860   43.7660 H   0  0  0  0  0  0  0  0  0  0  0  0
   37.9150   30.4910   42.7160 H   0  0  0  0  0  0  0  0  0  0  0  0
   39.8350   30.8000   41.7030 C   0  0  0  0  0  0  0  0  0  0  0  0
   40.6020   30.0460   41.3720 H   0  0  0  0  0  0  0  0  0  0  0  0
   40.4040   31.6760   42.0760 H   0  0  0  0  0  0  0  0  0  0  0  0
   38.5330   30.9230   38.2820 C   0  0  0  0  0  0  0  0  0  0  0  0
   37.3690   31.7140   38.4230 C   0  0  0  0  0  0  0  0  0  0  0  0
   37.0840   32.1740   39.7190 C   0  0  0  0  0  0  0  0  0  0  0  0
   37.8870   31.8640   40.7360 N   0  0  0  0  0  0  0  0  0  0  0  0
   38.9880   31.1020   40.5370 C   0  0  0  0  0  0  0  0  0  0  0  0
   39.3140   30.6400   39.3600 N   0  0  0  0  0  0  0  0  0  0  0  0
   38.7460   30.5700   37.2780 H   0  0  0  0  0  0  0  0  0  0  0  0
   36.7190   31.9680   37.6190 H   0  0  0  0  0  0  0  0  0  0  0  0
   36.1930   32.7950   39.9050 H   0  0  0  0  0  0  0  0  0  0  0  0
  1 19  1  0  0  0  0
  1  2  1  0  0  0  0
  2  7  1  0  0  0  0
  3  2  2  0  0  0  0
  3  8  1  0  0  0  0
  4  3  1  0  0  0  0
  5  6  1  0  0  0  0
  5  4  2  0  0  0  0
  6  1  2  0  0  0  0
  9  5  1  0  0  0  0
 10 12  1  0  0  0  0
 11 10  2  0  0  0  0
 12  6  1  0  0  0  0
 12 14  1  0  0  0  0
 13 10  1  0  0  0  0
 15 16  1  0  0  0  0
 15  4  1  0  0  0  0
 15 18  1  0  0  0  0
 17 15  1  0  0  0  0
 19 20  1  0  0  0  0
 21 19  1  0  0  0  0
 22 24  1  0  0  0  0
 22 19  1  0  0  0  0
 23 22  1  0  0  0  0
 25 26  2  0  0  0  0
 25 30  1  0  0  0  0
 26 27  1  0  0  0  0
 27 33  1  0  0  0  0
 27 28  2  0  0  0  0
 29 28  1  0  0  0  0
 29 22  1  0  0  0  0
 30 29  2  0  0  0  0
 31 25  1  0  0  0  0
 32 26  1  0  0  0  0
M  END
>  <minimizedAffinity>
-5.25119209

$$$$

 OpenBabel03252501303D

 33 34  0  0  0  0  0  0  0  0999 V2000
   37.1370   28.0520   41.8800 C   0  0  0  0  0  0  0  0  0  0  0  0
   37.2950   26.9410   42.6850 C   0  0  0  0  0  0  0  0  0  0  0  0
   37.1900   25.6600   42.2440 C   0  0  0  0  0  0  0  0  0  0  0  0
   36.9090   25.4480   40.9140 C   0  0  0  0  0  0  0  0  0  0  0  0
   36.7480   26.5420   40.0990 C   0  0  0  0  0  0  0  0  0  0  0  0
   36.8590   27.8410   40.5630 C   0  0  0  0  0  0  0  0  0  0  0  0
   37.5160   27.1860   43.7350 H   0  0  0  0  0  0  0  0  0  0  0  0
   37.3390   24.8930   42.9870 H   0  0  0  0  0  0  0  0  0  0  0  0
   36.5310   26.1770   39.0810 H   0  0  0  0  0  0  0  0  0  0  0  0
   35.3340   29.1830   39.2570 C   0  0  0  0  0  0  0  0  0  0  0  0
   34.1690   29.0950   39.7940 O   0  0  0  0  0  0  0  0  0  0  0  0
   36.6540   28.6830   39.4310 N   0  0  0  0  0  0  0  0  0  0  0  0
   35.0540   29.8780   38.4500 H   0  0  0  0  0  0  0  0  0  0  0  0
   37.2970   28.9960   38.7110 H   0  0  0  0  0  0  0  0  0  0  0  0
   36.8130   24.0030   40.5220 C   0  0  0  0  0  0  0  0  0  0  0  0
   37.2790   23.7720   39.2620 F   0  0  0  0  0  0  0  0  0  0  0  0
   37.5060   23.2770   41.4930 F   0  0  0  0  0  0  0  0  0  0  0  0
   35.4660   23.6790   40.6890 F   0  0  0  0  0  0  0  0  0  0  0  0
   37.2150   29.4640   42.2310 C   0  0  0  0  0  0  0  0  0  0  0  0
   36.8740   29.6820   43.2800 H   0  0  0  0  0  0  0  0  0  0  0  0
   36.4780   30.0110   41.6050 H   0  0  0  0  0  0  0  0  0  0  0  0
   38.6180   29.9930   42.0820 C   0  0  0  0  0  0  0  0  0  0  0  0
   39.2120   29.2650   41.4630 H   0  0  0  0  0  0  0  0  0  0  0  0
   39.1430   30.0730   43.0550 H   0  0  0  0  0  0  0  0  0  0  0  0
   39.5500   33.2380   40.6600 C   0  0  0  0  0  0  0  0  0  0  0  0
   38.3930   33.5980   39.9300 C   0  0  0  0  0  0  0  0  0  0  0  0
   37.3270   32.6850   39.9640 C   0  0  0  0  0  0  0  0  0  0  0  0
   37.4330   31.5500   40.6550 N   0  0  0  0  0  0  0  0  0  0  0  0
   38.5680   31.2610   41.3350 C   0  0  0  0  0  0  0  0  0  0  0  0
   39.5980   32.0640   41.3470 N   0  0  0  0  0  0  0  0  0  0  0  0
   40.3690   33.9480   40.6280 H   0  0  0  0  0  0  0  0  0  0  0  0
   38.2960   34.5000   39.3730 H   0  0  0  0  0  0  0  0  0  0  0  0
   36.3940   32.8980   39.4180 H   0  0  0  0  0  0  0  0  0  0  0  0
  1 19  1  0  0  0  0
  1  2  1  0  0  0  0
  2  7  1  0  0  0  0
  3  2  2  0  0  0  0
  3  8  1  0  0  0  0
  4  3  1  0  0  0  0
  5  6  1  0  0  0  0
  5  4  2  0  0  0  0
  6  1  2  0  0  0  0
  9  5  1  0  0  0  0
 10 12  1  0  0  0  0
 10 11  2  0  0  0  0
 12  6  1  0  0  0  0
 13 10  1  0  0  0  0
 14 12  1  0  0  0  0
 15 18  1  0  0  0  0
 15  4  1  0  0  0  0
 15 17  1  0  0  0  0
 16 15  1  0  0  0  0
 19 20  1  0  0  0  0
 21 19  1  0  0  0  0
 22 19  1  0  0  0  0
 22 24  1  0  0  0  0
 23 22  1  0  0  0  0
 25 30  1  0  0  0  0
 26 27  1  0  0  0  0
 26 25  2  0  0  0  0
 27 28  2  0  0  0  0
 28 29  1  0  0  0  0
 29 30  2  0  0  0  0
 29 22  1  0  0  0  0
 31 25  1  0  0  0  0
 32 26  1  0  0  0  0
 33 27  1  0  0  0  0
M  END
>  <minimizedAffinity>
-5.09079504

$$$$

 OpenBabel03252501303D

 33 34  0  0  0  0  0  0  0  0999 V2000
   36.4270   29.3020   40.0110 C   0  0  0  0  0  0  0  0  0  0  0  0
   36.5780   30.0110   38.8360 C   0  0  0  0  0  0  0  0  0  0  0  0
   37.0280   31.2920   38.7730 C   0  0  0  0  0  0  0  0  0  0  0  0
   37.3550   31.9280   39.9480 C   0  0  0  0  0  0  0  0  0  0  0  0
   37.2100   31.2360   41.1260 C   0  0  0  0  0  0  0  0  0  0  0  0
   36.7510   29.9320   41.1730 C   0  0  0  0  0  0  0  0  0  0  0  0
   36.2970   29.4410   37.9370 H   0  0  0  0  0  0  0  0  0  0  0  0
   37.0960   31.7200   37.7860 H   0  0  0  0  0  0  0  0  0  0  0  0
   37.5170   31.9020   41.9500 H   0  0  0  0  0  0  0  0  0  0  0  0
   38.0020   29.0850   43.0580 C   0  0  0  0  0  0  0  0  0  0  0  0
   39.1950   28.8220   42.6560 O   0  0  0  0  0  0  0  0  0  0  0  0
   36.7620   29.5600   42.5500 N   0  0  0  0  0  0  0  0  0  0  0  0
   38.1560   28.8100   44.1130 H   0  0  0  0  0  0  0  0  0  0  0  0
   36.0250   29.5760   43.2480 H   0  0  0  0  0  0  0  0  0  0  0  0
   37.8420   33.3370   39.7780 C   0  0  0  0  0  0  0  0  0  0  0  0
   36.8860   34.1610   39.2620 F   0  0  0  0  0  0  0  0  0  0  0  0
   38.2960   33.7590   41.0280 F   0  0  0  0  0  0  0  0  0  0  0  0
   38.9770   33.2260   38.9740 F   0  0  0  0  0  0  0  0  0  0  0  0
   35.9500   27.9390   40.2100 C   0  0  0  0  0  0  0  0  0  0  0  0
   34.8790   27.7920   39.9000 H   0  0  0  0  0  0  0  0  0  0  0  0
   35.9280   27.7430   41.3040 H   0  0  0  0  0  0  0  0  0  0  0  0
   36.7910   26.9430   39.4540 C   0  0  0  0  0  0  0  0  0  0  0  0
   37.3590   27.4900   38.6510 H   0  0  0  0  0  0  0  0  0  0  0  0
   36.1760   26.1820   38.9340 H   0  0  0  0  0  0  0  0  0  0  0  0
   38.3140   25.3110   42.3580 C   0  0  0  0  0  0  0  0  0  0  0  0
   39.6910   25.3260   42.0330 C   0  0  0  0  0  0  0  0  0  0  0  0
   40.0330   25.9090   40.8020 C   0  0  0  0  0  0  0  0  0  0  0  0
   39.0870   26.4100   40.0080 N   0  0  0  0  0  0  0  0  0  0  0  0
   37.7850   26.3670   40.3750 C   0  0  0  0  0  0  0  0  0  0  0  0
   37.3950   25.8400   41.5050 N   0  0  0  0  0  0  0  0  0  0  0  0
   38.0590   24.8590   43.3100 H   0  0  0  0  0  0  0  0  0  0  0  0
   40.4560   24.9280   42.6570 H   0  0  0  0  0  0  0  0  0  0  0  0
   41.0860   25.9550   40.4820 H   0  0  0  0  0  0  0  0  0  0  0  0
  1 19  1  0  0  0  0
  1  6  1  0  0  0  0
  2  1  2  0  0  0  0
  3  2  1  0  0  0  0
  3  4  2  0  0  0  0
  4  5  1  0  0  0  0
  5  6  2  0  0  0  0
  5  9  1  0  0  0  0
  6 12  1  0  0  0  0
  7  2  1  0  0  0  0
  8  3  1  0  0  0  0
 10 13  1  0  0  0  0
 11 10  2  0  0  0  0
 12 10  1  0  0  0  0
 12 14  1  0  0  0  0
 15  4  1  0  0  0  0
 15 17  1  0  0  0  0
 16 15  1  0  0  0  0
 18 15  1  0  0  0  0
 19 21  1  0  0  0  0
 20 19  1  0  0  0  0
 22 19  1  0  0  0  0
 22 29  1  0  0  0  0
 23 22  1  0  0  0  0
 24 22  1  0  0  0  0
 25 31  1  0  0  0  0
 26 25  1  0  0  0  0
 26 32  1  0  0  0  0
 27 26  2  0  0  0  0
 28 29  2  0  0  0  0
 28 27  1  0  0  0  0
 29 30  1  0  0  0  0
 30 25  2  0  0  0  0
 33 27  1  0  0  0  0
M  END
>  <minimizedAffinity>
-5.0875659

$$$$

 OpenBabel03252501303D

 33 34  0  0  0  0  0  0  0  0999 V2000
   36.6620   29.7100   40.2960 C   0  0  0  0  0  0  0  0  0  0  0  0
   36.5190   29.0540   39.0900 C   0  0  0  0  0  0  0  0  0  0  0  0
   36.5120   27.7020   38.9550 C   0  0  0  0  0  0  0  0  0  0  0  0
   36.6580   26.9330   40.0850 C   0  0  0  0  0  0  0  0  0  0  0  0
   36.8020   27.5690   41.2940 C   0  0  0  0  0  0  0  0  0  0  0  0
   36.8040   28.9470   41.4150 C   0  0  0  0  0  0  0  0  0  0  0  0
   36.4080   29.7320   38.2290 H   0  0  0  0  0  0  0  0  0  0  0  0
   36.3920   27.3300   37.9500 H   0  0  0  0  0  0  0  0  0  0  0  0
   36.9040   26.7960   42.0740 H   0  0  0  0  0  0  0  0  0  0  0  0
   38.2830   29.2480   43.3010 C   0  0  0  0  0  0  0  0  0  0  0  0
   39.4870   29.0590   42.8940 O   0  0  0  0  0  0  0  0  0  0  0  0
   36.9500   29.2200   42.8070 N   0  0  0  0  0  0  0  0  0  0  0  0
   38.5340   29.4920   44.3450 H   0  0  0  0  0  0  0  0  0  0  0  0
   36.2540   29.4020   43.5240 H   0  0  0  0  0  0  0  0  0  0  0  0
   36.6390   25.4530   39.8360 C   0  0  0  0  0  0  0  0  0  0  0  0
   36.4640   24.7330   40.9800 F   0  0  0  0  0  0  0  0  0  0  0  0
   35.6350   25.2170   38.8950 F   0  0  0  0  0  0  0  0  0  0  0  0
   37.8450   25.1870   39.1870 F   0  0  0  0  0  0  0  0  0  0  0  0
   36.6920   31.1420   40.5700 C   0  0  0  0  0  0  0  0  0  0  0  0
   37.4700   31.4340   41.3280 H   0  0  0  0  0  0  0  0  0  0  0  0
   35.7360   31.4130   41.0680 H   0  0  0  0  0  0  0  0  0  0  0  0
   36.9470   31.9390   39.3170 C   0  0  0  0  0  0  0  0  0  0  0  0
   36.1930   32.7720   39.2630 H   0  0  0  0  0  0  0  0  0  0  0  0
   36.8060   31.3340   38.3980 H   0  0  0  0  0  0  0  0  0  0  0  0
   39.6920   34.1610   40.2890 C   0  0  0  0  0  0  0  0  0  0  0  0
   40.7760   33.6600   39.5310 C   0  0  0  0  0  0  0  0  0  0  0  0
   40.5020   32.5570   38.7060 C   0  0  0  0  0  0  0  0  0  0  0  0
   39.2770   32.0350   38.6640 N   0  0  0  0  0  0  0  0  0  0  0  0
   38.2780   32.5600   39.4140 C   0  0  0  0  0  0  0  0  0  0  0  0
   38.4620   33.5840   40.2020 N   0  0  0  0  0  0  0  0  0  0  0  0
   39.9120   35.0120   40.9230 H   0  0  0  0  0  0  0  0  0  0  0  0
   41.7600   34.0670   39.5560 H   0  0  0  0  0  0  0  0  0  0  0  0
   41.2990   32.1130   38.0880 H   0  0  0  0  0  0  0  0  0  0  0  0
  1 19  1  0  0  0  0
  1  6  1  0  0  0  0
  2  1  2  0  0  0  0
  3  2  1  0  0  0  0
  3  4  2  0  0  0  0
  4  5  1  0  0  0  0
  5  6  2  0  0  0  0
  5  9  1  0  0  0  0
  6 12  1  0  0  0  0
  7  2  1  0  0  0  0
  8  3  1  0  0  0  0
 10 13  1  0  0  0  0
 11 10  2  0  0  0  0
 12 10  1  0  0  0  0
 12 14  1  0  0  0  0
 15  4  1  0  0  0  0
 15 16  1  0  0  0  0
 17 15  1  0  0  0  0
 18 15  1  0  0  0  0
 19 21  1  0  0  0  0
 19 20  1  0  0  0  0
 22 29  1  0  0  0  0
 22 19  1  0  0  0  0
 23 22  1  0  0  0  0
 24 22  1  0  0  0  0
 25 31  1  0  0  0  0
 26 32  1  0  0  0  0
 26 25  2  0  0  0  0
 27 26  1  0  0  0  0
 28 27  2  0  0  0  0
 28 29  1  0  0  0  0
 29 30  2  0  0  0  0
 30 25  1  0  0  0  0
 33 27  1  0  0  0  0
M  END
>  <minimizedAffinity>
-5.01354408

$$$$

 OpenBabel03252501303D

 33 34  0  0  0  0  0  0  0  0999 V2000
   36.5060   29.4420   40.0220 C   0  0  0  0  0  0  0  0  0  0  0  0
   36.6760   30.1840   38.8700 C   0  0  0  0  0  0  0  0  0  0  0  0
   37.1430   31.4600   38.8490 C   0  0  0  0  0  0  0  0  0  0  0  0
   37.4680   32.0560   40.0450 C   0  0  0  0  0  0  0  0  0  0  0  0
   37.3050   31.3320   41.2000 C   0  0  0  0  0  0  0  0  0  0  0  0
   36.8300   30.0330   41.2050 C   0  0  0  0  0  0  0  0  0  0  0  0
   36.3950   29.6440   37.9520 H   0  0  0  0  0  0  0  0  0  0  0  0
   37.2230   31.9160   37.8750 H   0  0  0  0  0  0  0  0  0  0  0  0
   37.6140   31.9700   42.0460 H   0  0  0  0  0  0  0  0  0  0  0  0
   38.0440   29.0760   43.0610 C   0  0  0  0  0  0  0  0  0  0  0  0
   39.2230   28.7720   42.6490 O   0  0  0  0  0  0  0  0  0  0  0  0
   36.8260   29.6210   42.5710 N   0  0  0  0  0  0  0  0  0  0  0  0
   38.1860   28.7630   44.1070 H   0  0  0  0  0  0  0  0  0  0  0  0
   36.0900   29.6490   43.2700 H   0  0  0  0  0  0  0  0  0  0  0  0
   37.9730   33.4640   39.9190 C   0  0  0  0  0  0  0  0  0  0  0  0
   38.3500   33.9920   41.1180 F   0  0  0  0  0  0  0  0  0  0  0  0
   39.0170   33.4350   38.9930 F   0  0  0  0  0  0  0  0  0  0  0  0
   36.9330   34.1610   39.3040 F   0  0  0  0  0  0  0  0  0  0  0  0
   36.0120   28.0800   40.1770 C   0  0  0  0  0  0  0  0  0  0  0  0
   35.1520   27.8380   39.4940 H   0  0  0  0  0  0  0  0  0  0  0  0
   35.5630   27.9950   41.1910 H   0  0  0  0  0  0  0  0  0  0  0  0
   37.0980   27.0660   39.9300 C   0  0  0  0  0  0  0  0  0  0  0  0
   37.6520   26.8920   40.8940 H   0  0  0  0  0  0  0  0  0  0  0  0
   37.8510   27.4250   39.2010 H   0  0  0  0  0  0  0  0  0  0  0  0
   35.2700   24.5020   38.0580 C   0  0  0  0  0  0  0  0  0  0  0  0
   35.3360   23.3840   38.9220 C   0  0  0  0  0  0  0  0  0  0  0  0
   36.0240   23.5720   40.1320 C   0  0  0  0  0  0  0  0  0  0  0  0
   36.5720   24.7530   40.4180 N   0  0  0  0  0  0  0  0  0  0  0  0
   36.4740   25.7870   39.5500 C   0  0  0  0  0  0  0  0  0  0  0  0
   35.8500   25.6830   38.4080 N   0  0  0  0  0  0  0  0  0  0  0  0
   34.7380   24.3480   37.1260 H   0  0  0  0  0  0  0  0  0  0  0  0
   34.9040   22.4350   38.7040 H   0  0  0  0  0  0  0  0  0  0  0  0
   36.1170   22.7450   40.8530 H   0  0  0  0  0  0  0  0  0  0  0  0
  1 19  1  0  0  0  0
  1  6  1  0  0  0  0
  2  1  2  0  0  0  0
  3  2  1  0  0  0  0
  3  4  2  0  0  0  0
  4  5  1  0  0  0  0
  5  6  2  0  0  0  0
  5  9  1  0  0  0  0
  6 12  1  0  0  0  0
  7  2  1  0  0  0  0
  8  3  1  0  0  0  0
 10 13  1  0  0  0  0
 11 10  2  0  0  0  0
 12 10  1  0  0  0  0
 12 14  1  0  0  0  0
 15  4  1  0  0  0  0
 15 16  1  0  0  0  0
 17 15  1  0  0  0  0
 18 15  1  0  0  0  0
 19 21  1  0  0  0  0
 20 19  1  0  0  0  0
 22 19  1  0  0  0  0
 22 23  1  0  0  0  0
 24 22  1  0  0  0  0
 25 30  2  0  0  0  0
 25 26  1  0  0  0  0
 26 27  2  0  0  0  0
 27 28  1  0  0  0  0
 27 33  1  0  0  0  0
 29 22  1  0  0  0  0
 29 28  2  0  0  0  0
 30 29  1  0  0  0  0
 31 25  1  0  0  0  0
 32 26  1  0  0  0  0
M  END
>  <minimizedAffinity>
-5.00548601

$$$$
