
 OpenBabel03252508233D

 43 45  0  0  0  0  0  0  0  0999 V2000
   46.2750   33.8760   40.4830 C   0  0  0  0  0  0  0  0  0  0  0  0
   46.9020   33.7190   39.2660 C   0  0  0  0  0  0  0  0  0  0  0  0
   48.1210   34.2660   38.9420 C   0  0  0  0  0  0  0  0  0  0  0  0
   48.7310   35.0250   39.9490 C   0  0  0  0  0  0  0  0  0  0  0  0
   48.1510   35.2100   41.1720 C   0  0  0  0  0  0  0  0  0  0  0  0
   46.9400   34.6480   41.4480 C   0  0  0  0  0  0  0  0  0  0  0  0
   46.5040   33.1420   38.4460 H   0  0  0  0  0  0  0  0  0  0  0  0
   48.6350   34.1650   38.0100 H   0  0  0  0  0  0  0  0  0  0  0  0
   49.7060   35.4880   39.7490 H   0  0  0  0  0  0  0  0  0  0  0  0
   48.6940   35.8160   41.9000 H   0  0  0  0  0  0  0  0  0  0  0  0
   46.4310   34.8910   42.7440 N   0  0  0  0  0  0  0  0  0  0  0  0
   45.4820   35.9180   43.0610 C   0  0  0  0  0  0  0  0  0  0  0  0
   44.7830   35.6300   44.3730 C   0  0  0  0  0  0  0  0  0  0  0  0
   44.4850   34.2560   44.5800 N   0  0  0  0  0  0  0  0  0  0  0  0
   45.5880   33.3820   44.4760 C   0  0  0  0  0  0  0  0  0  0  0  0
   46.7940   34.1330   43.9510 C   0  0  0  0  0  0  0  0  0  0  0  0
   44.8180   36.2460   42.2640 H   0  0  0  0  0  0  0  0  0  0  0  0
   46.1140   36.8340   43.2740 H   0  0  0  0  0  0  0  0  0  0  0  0
   43.8380   36.2000   44.3740 H   0  0  0  0  0  0  0  0  0  0  0  0
   45.4120   35.9600   45.2310 H   0  0  0  0  0  0  0  0  0  0  0  0
   43.7830   34.1060   45.2910 H   0  0  0  0  0  0  0  0  0  0  0  0
   45.8600   32.9900   45.4810 H   0  0  0  0  0  0  0  0  0  0  0  0
   45.3920   32.5030   43.8400 H   0  0  0  0  0  0  0  0  0  0  0  0
   47.1800   34.8390   44.7230 H   0  0  0  0  0  0  0  0  0  0  0  0
   47.5510   33.3710   43.6530 H   0  0  0  0  0  0  0  0  0  0  0  0
   44.9760   33.2960   40.8180 C   0  0  0  0  0  0  0  0  0  0  0  0
   44.3270   33.9260   41.4230 H   0  0  0  0  0  0  0  0  0  0  0  0
   45.2010   32.3980   41.4650 H   0  0  0  0  0  0  0  0  0  0  0  0
   44.2360   32.8200   39.5850 C   0  0  0  0  0  0  0  0  0  0  0  0
   43.9510   31.7320   39.7020 H   0  0  0  0  0  0  0  0  0  0  0  0
   44.7520   32.9510   38.6470 H   0  0  0  0  0  0  0  0  0  0  0  0
   41.5140   35.1740   38.4460 C   0  0  0  0  0  0  0  0  0  0  0  0
   42.7620   34.5100   38.5220 C   0  0  0  0  0  0  0  0  0  0  0  0
   42.9400   33.5310   39.4900 C   0  0  0  0  0  0  0  0  0  0  0  0
   41.8870   33.2640   40.3210 N   0  0  0  0  0  0  0  0  0  0  0  0
   40.7200   33.9010   40.2340 C   0  0  0  0  0  0  0  0  0  0  0  0
   40.5290   34.8550   39.3000 N   0  0  0  0  0  0  0  0  0  0  0  0
   41.3940   35.9440   37.6740 H   0  0  0  0  0  0  0  0  0  0  0  0
   43.5560   34.7580   37.8440 H   0  0  0  0  0  0  0  0  0  0  0  0
   39.6560   33.5050   41.2100 C   0  0  0  0  0  0  0  0  0  0  0  0
   39.7390   34.2440   42.3940 F   0  0  0  0  0  0  0  0  0  0  0  0
   39.7830   32.1780   41.5880 F   0  0  0  0  0  0  0  0  0  0  0  0
   38.3810   33.7220   40.7220 F   0  0  0  0  0  0  0  0  0  0  0  0
  1 26  1  0  0  0  0
  1  6  1  0  0  0  0
  2  1  2  0  0  0  0
  3  2  1  0  0  0  0
  3  4  2  0  0  0  0
  4  5  1  0  0  0  0
  5  6  2  0  0  0  0
  5 10  1  0  0  0  0
  6 11  1  0  0  0  0
  7  2  1  0  0  0  0
  8  3  1  0  0  0  0
  9  4  1  0  0  0  0
 11 12  1  0  0  0  0
 11 16  1  0  0  0  0
 12 18  1  0  0  0  0
 12 13  1  0  0  0  0
 13 19  1  0  0  0  0
 13 14  1  0  0  0  0
 13 20  1  0  0  0  0
 14 21  1  0  0  0  0
 15 14  1  0  0  0  0
 15 22  1  0  0  0  0
 16 15  1  0  0  0  0
 16 24  1  0  0  0  0
 17 12  1  0  0  0  0
 23 15  1  0  0  0  0
 25 16  1  0  0  0  0
 26 27  1  0  0  0  0
 26 28  1  0  0  0  0
 29 30  1  0  0  0  0
 29 26  1  0  0  0  0
 31 29  1  0  0  0  0
 32 33  2  0  0  0  0
 32 37  1  0  0  0  0
 33 34  1  0  0  0  0
 34 29  1  0  0  0  0
 34 35  2  0  0  0  0
 36 35  1  0  0  0  0
 36 40  1  0  0  0  0
 37 36  2  0  0  0  0
 38 32  1  0  0  0  0
 39 33  1  0  0  0  0
 40 42  1  0  0  0  0
 40 41  1  0  0  0  0
 43 40  1  0  0  0  0
M  END
>  <minimizedAffinity>
-5.9236021

>  <minimizedRMSD>
1.05890954

$$$$
