
 OpenBabel03252502533D

 26 27  0  0  0  0  0  0  0  0999 V2000
   45.4840   29.9760   44.6270 Br  0  0  0  0  0  0  0  0  0  0  0  0
   46.0640   30.7580   46.2860 C   0  0  0  0  0  0  0  0  0  0  0  0
   46.7530   31.9520   46.1900 C   0  0  0  0  0  0  0  0  0  0  0  0
   47.1510   32.4760   47.4160 C   0  0  0  0  0  0  0  0  0  0  0  0
   46.8950   31.8810   48.6230 C   0  0  0  0  0  0  0  0  0  0  0  0
   46.2110   30.7030   48.6440 C   0  0  0  0  0  0  0  0  0  0  0  0
   45.7730   30.1050   47.4690 C   0  0  0  0  0  0  0  0  0  0  0  0
   47.7000   33.4200   47.4060 H   0  0  0  0  0  0  0  0  0  0  0  0
   47.2540   32.3800   49.5250 H   0  0  0  0  0  0  0  0  0  0  0  0
   45.9930   30.2100   49.5750 H   0  0  0  0  0  0  0  0  0  0  0  0
   45.0180   28.8130   47.4470 C   0  0  0  0  0  0  0  0  0  0  0  0
   45.8180   27.9150   46.7240 F   0  0  0  0  0  0  0  0  0  0  0  0
   43.8930   28.9860   46.6510 F   0  0  0  0  0  0  0  0  0  0  0  0
   44.7050   28.3630   48.6940 F   0  0  0  0  0  0  0  0  0  0  0  0
   47.0810   32.6730   44.9530 C   0  0  0  0  0  0  0  0  0  0  0  0
   46.8640   31.9670   44.1070 H   0  0  0  0  0  0  0  0  0  0  0  0
   48.1340   32.9980   44.9480 H   0  0  0  0  0  0  0  0  0  0  0  0
   44.5510   35.3900   45.3460 C   0  0  0  0  0  0  0  0  0  0  0  0
   44.6440   36.0500   44.1110 C   0  0  0  0  0  0  0  0  0  0  0  0
   45.5520   35.5600   43.1900 C   0  0  0  0  0  0  0  0  0  0  0  0
   46.3100   34.4790   43.5000 N   0  0  0  0  0  0  0  0  0  0  0  0
   46.1910   33.8550   44.7270 C   0  0  0  0  0  0  0  0  0  0  0  0
   45.3100   34.3380   45.6090 N   0  0  0  0  0  0  0  0  0  0  0  0
   43.8700   35.7210   46.0940 H   0  0  0  0  0  0  0  0  0  0  0  0
   43.9910   36.9070   43.9590 H   0  0  0  0  0  0  0  0  0  0  0  0
   45.6220   36.0640   42.2450 H   0  0  0  0  0  0  0  0  0  0  0  0
  1  2  1  0  0  0  0
  2  7  1  0  0  0  0
  3  2  2  0  0  0  0
  3  4  1  0  0  0  0
  4  5  2  0  0  0  0
  5  6  1  0  0  0  0
  5  9  1  0  0  0  0
  6 10  1  0  0  0  0
  7  6  2  0  0  0  0
  8  4  1  0  0  0  0
 11  7  1  0  0  0  0
 11 14  1  0  0  0  0
 12 11  1  0  0  0  0
 13 11  1  0  0  0  0
 15  3  1  0  0  0  0
 16 15  1  0  0  0  0
 17 15  1  0  0  0  0
 18 23  1  0  0  0  0
 18 24  1  0  0  0  0
 19 18  2  0  0  0  0
 20 21  2  0  0  0  0
 20 19  1  0  0  0  0
 21 22  1  0  0  0  0
 22 15  1  0  0  0  0
 22 23  2  0  0  0  0
 25 19  1  0  0  0  0
 26 20  1  0  0  0  0
M  END
>  <minimizedAffinity>
-5.06269693

>  <minimizedRMSD>
0.869480789

$$$$
