
 OpenBabel03252508403D

 36 38  0  0  0  0  0  0  0  0999 V2000
   38.6420   27.9700   41.4930 C   0  0  0  0  0  0  0  0  0  0  0  0
   39.0120   27.6190   42.7620 C   0  0  0  0  0  0  0  0  0  0  0  0
   38.0130   27.4610   43.6780 C   0  0  0  0  0  0  0  0  0  0  0  0
   36.6830   27.6330   43.4080 C   0  0  0  0  0  0  0  0  0  0  0  0
   36.3380   27.9870   42.1230 C   0  0  0  0  0  0  0  0  0  0  0  0
   37.3030   28.1620   41.1460 C   0  0  0  0  0  0  0  0  0  0  0  0
   38.2910   27.1820   44.6880 H   0  0  0  0  0  0  0  0  0  0  0  0
   35.9240   27.4990   44.1600 H   0  0  0  0  0  0  0  0  0  0  0  0
   35.2910   28.1270   41.8900 H   0  0  0  0  0  0  0  0  0  0  0  0
   42.4020   26.0700   43.3560 C   0  0  0  0  0  0  0  0  0  0  0  0
   41.0140   26.1770   43.1100 C   0  0  0  0  0  0  0  0  0  0  0  0
   40.4290   27.4440   43.0120 C   0  0  0  0  0  0  0  0  0  0  0  0
   41.2780   28.5000   43.1660 N   0  0  0  0  0  0  0  0  0  0  0  0
   42.5830   28.3700   43.3980 C   0  0  0  0  0  0  0  0  0  0  0  0
   43.1430   27.1670   43.4920 N   0  0  0  0  0  0  0  0  0  0  0  0
   42.9250   24.7500   43.4430 N   0  0  0  0  0  0  0  0  0  0  0  0
   40.3620   25.3280   42.9910 H   0  0  0  0  0  0  0  0  0  0  0  0
   43.1650   29.2800   43.5040 H   0  0  0  0  0  0  0  0  0  0  0  0
   42.3560   24.0440   43.9680 H   0  0  0  0  0  0  0  0  0  0  0  0
   43.8480   24.6290   42.9590 H   0  0  0  0  0  0  0  0  0  0  0  0
   36.8420   28.5360   39.8260 C   0  0  0  0  0  0  0  0  0  0  0  0
   36.6020   27.4790   38.9650 C   0  0  0  0  0  0  0  0  0  0  0  0
   36.1520   27.6290   37.6540 C   0  0  0  0  0  0  0  0  0  0  0  0
   35.9410   28.9150   37.2060 C   0  0  0  0  0  0  0  0  0  0  0  0
   36.1750   29.9810   38.0490 C   0  0  0  0  0  0  0  0  0  0  0  0
   36.6250   29.8050   39.3580 C   0  0  0  0  0  0  0  0  0  0  0  0
   36.7530   26.4320   39.2660 H   0  0  0  0  0  0  0  0  0  0  0  0
   35.9780   26.7740   37.0200 H   0  0  0  0  0  0  0  0  0  0  0  0
   35.5950   29.1250   36.2120 H   0  0  0  0  0  0  0  0  0  0  0  0
   36.0240   31.0210   37.7490 H   0  0  0  0  0  0  0  0  0  0  0  0
   36.8920   30.9500   40.2630 C   0  0  0  0  0  0  0  0  0  0  0  0
   38.2440   31.0360   40.5060 F   0  0  0  0  0  0  0  0  0  0  0  0
   36.1090   30.9570   41.3810 F   0  0  0  0  0  0  0  0  0  0  0  0
   36.5730   32.1080   39.5440 F   0  0  0  0  0  0  0  0  0  0  0  0
   40.4130   28.3200   39.5990 N   0  0  0  0  0  0  0  0  0  0  0  0
   39.6300   28.1650   40.4530 C   0  0  0  0  0  0  0  0  0  0  0  0
  1  2  1  0  0  0  0
  2 12  1  0  0  0  0
  2  3  2  0  0  0  0
  3  7  1  0  0  0  0
  4  3  1  0  0  0  0
  4  8  1  0  0  0  0
  5  4  2  0  0  0  0
  6  1  2  0  0  0  0
  6  5  1  0  0  0  0
  9  5  1  0  0  0  0
 10 16  1  0  0  0  0
 10 15  1  0  0  0  0
 11 10  2  0  0  0  0
 12 11  1  0  0  0  0
 12 13  2  0  0  0  0
 13 14  1  0  0  0  0
 14 15  2  0  0  0  0
 14 18  1  0  0  0  0
 16 19  1  0  0  0  0
 17 11  1  0  0  0  0
 20 16  1  0  0  0  0
 21  6  1  0  0  0  0
 22 27  1  0  0  0  0
 22 21  2  0  0  0  0
 23 22  1  0  0  0  0
 24 23  2  0  0  0  0
 24 25  1  0  0  0  0
 25 26  2  0  0  0  0
 26 21  1  0  0  0  0
 26 31  1  0  0  0  0
 28 23  1  0  0  0  0
 29 24  1  0  0  0  0
 30 25  1  0  0  0  0
 31 32  1  0  0  0  0
 31 33  1  0  0  0  0
 34 31  1  0  0  0  0
 35 36  3  0  0  0  0
 36  1  1  0  0  0  0
M  END
>  <minimizedAffinity>
-6.18398619

$$$$

 OpenBabel03252508403D

 36 38  0  0  0  0  0  0  0  0999 V2000
   38.6150   29.8570   39.4690 C   0  0  0  0  0  0  0  0  0  0  0  0
   38.3940   30.9830   38.7260 C   0  0  0  0  0  0  0  0  0  0  0  0
   37.2670   31.0070   37.9570 C   0  0  0  0  0  0  0  0  0  0  0  0
   36.3590   29.9850   37.8860 C   0  0  0  0  0  0  0  0  0  0  0  0
   36.6060   28.8630   38.6430 C   0  0  0  0  0  0  0  0  0  0  0  0
   37.7320   28.7760   39.4450 C   0  0  0  0  0  0  0  0  0  0  0  0
   37.0770   31.8930   37.3630 H   0  0  0  0  0  0  0  0  0  0  0  0
   35.4810   30.0430   37.2660 H   0  0  0  0  0  0  0  0  0  0  0  0
   35.9000   28.0450   38.6000 H   0  0  0  0  0  0  0  0  0  0  0  0
   41.2610   33.3220   37.9850 C   0  0  0  0  0  0  0  0  0  0  0  0
   40.3280   32.2720   37.8290 C   0  0  0  0  0  0  0  0  0  0  0  0
   39.3750   32.0450   38.8280 C   0  0  0  0  0  0  0  0  0  0  0  0
   39.4310   32.8860   39.8990 N   0  0  0  0  0  0  0  0  0  0  0  0
   40.3220   33.8690   40.0210 C   0  0  0  0  0  0  0  0  0  0  0  0
   41.2300   34.0870   39.0740 N   0  0  0  0  0  0  0  0  0  0  0  0
   42.1990   33.4920   36.9300 N   0  0  0  0  0  0  0  0  0  0  0  0
   40.3030   31.6180   36.9730 H   0  0  0  0  0  0  0  0  0  0  0  0
   40.2740   34.4790   40.9170 H   0  0  0  0  0  0  0  0  0  0  0  0
   42.6180   32.6240   36.5180 H   0  0  0  0  0  0  0  0  0  0  0  0
   42.3720   34.4950   36.6750 H   0  0  0  0  0  0  0  0  0  0  0  0
   37.9070   27.5550   40.2030 C   0  0  0  0  0  0  0  0  0  0  0  0
   38.6510   26.5720   39.5720 C   0  0  0  0  0  0  0  0  0  0  0  0
   38.9340   25.3280   40.1340 C   0  0  0  0  0  0  0  0  0  0  0  0
   38.4340   25.0810   41.3940 C   0  0  0  0  0  0  0  0  0  0  0  0
   37.6910   26.0470   42.0380 C   0  0  0  0  0  0  0  0  0  0  0  0
   37.4210   27.2860   41.4550 C   0  0  0  0  0  0  0  0  0  0  0  0
   39.0740   26.7130   38.5670 H   0  0  0  0  0  0  0  0  0  0  0  0
   39.5190   24.5940   39.6030 H   0  0  0  0  0  0  0  0  0  0  0  0
   38.6030   24.1510   41.9040 H   0  0  0  0  0  0  0  0  0  0  0  0
   37.2710   25.9060   43.0370 H   0  0  0  0  0  0  0  0  0  0  0  0
   36.6090   28.3220   42.1390 C   0  0  0  0  0  0  0  0  0  0  0  0
   35.4490   28.5360   41.4300 F   0  0  0  0  0  0  0  0  0  0  0  0
   37.3120   29.4530   42.4420 F   0  0  0  0  0  0  0  0  0  0  0  0
   36.2000   27.7670   43.3570 F   0  0  0  0  0  0  0  0  0  0  0  0
   40.7280   29.6580   41.0020 N   0  0  0  0  0  0  0  0  0  0  0  0
   39.7860   29.7360   40.3130 C   0  0  0  0  0  0  0  0  0  0  0  0
  1 36  1  0  0  0  0
  2 12  1  0  0  0  0
  2  1  2  0  0  0  0
  3  2  1  0  0  0  0
  4  3  2  0  0  0  0
  4  5  1  0  0  0  0
  5  6  2  0  0  0  0
  6  1  1  0  0  0  0
  6 21  1  0  0  0  0
  7  3  1  0  0  0  0
  8  4  1  0  0  0  0
  9  5  1  0  0  0  0
 10 15  1  0  0  0  0
 11 10  2  0  0  0  0
 11 12  1  0  0  0  0
 12 13  2  0  0  0  0
 13 14  1  0  0  0  0
 14 18  1  0  0  0  0
 15 14  2  0  0  0  0
 16 10  1  0  0  0  0
 17 11  1  0  0  0  0
 19 16  1  0  0  0  0
 20 16  1  0  0  0  0
 21 26  1  0  0  0  0
 22 23  1  0  0  0  0
 22 21  2  0  0  0  0
 23 24  2  0  0  0  0
 24 29  1  0  0  0  0
 24 25  1  0  0  0  0
 25 30  1  0  0  0  0
 26 25  2  0  0  0  0
 26 31  1  0  0  0  0
 27 22  1  0  0  0  0
 28 23  1  0  0  0  0
 31 33  1  0  0  0  0
 31 34  1  0  0  0  0
 32 31  1  0  0  0  0
 36 35  3  0  0  0  0
M  END
>  <minimizedAffinity>
-5.94157219

$$$$

 OpenBabel03252508403D

 36 38  0  0  0  0  0  0  0  0999 V2000
   37.9440   27.6580   41.2490 C   0  0  0  0  0  0  0  0  0  0  0  0
   37.2040   26.5850   41.6630 C   0  0  0  0  0  0  0  0  0  0  0  0
   36.5770   26.6940   42.8700 C   0  0  0  0  0  0  0  0  0  0  0  0
   36.6440   27.7950   43.6790 C   0  0  0  0  0  0  0  0  0  0  0  0
   37.3960   28.8600   43.2390 C   0  0  0  0  0  0  0  0  0  0  0  0
   38.0580   28.8140   42.0230 C   0  0  0  0  0  0  0  0  0  0  0  0
   35.9860   25.8520   43.2110 H   0  0  0  0  0  0  0  0  0  0  0  0
   36.1340   27.8410   44.6260 H   0  0  0  0  0  0  0  0  0  0  0  0
   37.4620   29.7400   43.8650 H   0  0  0  0  0  0  0  0  0  0  0  0
   37.6690   23.1320   40.2130 C   0  0  0  0  0  0  0  0  0  0  0  0
   37.7490   24.2160   41.1160 C   0  0  0  0  0  0  0  0  0  0  0  0
   37.1540   25.4370   40.7800 C   0  0  0  0  0  0  0  0  0  0  0  0
   36.5260   25.4740   39.5700 N   0  0  0  0  0  0  0  0  0  0  0  0
   36.4650   24.4360   38.7380 C   0  0  0  0  0  0  0  0  0  0  0  0
   37.0300   23.2740   39.0540 N   0  0  0  0  0  0  0  0  0  0  0  0
   38.2980   21.9240   40.6230 N   0  0  0  0  0  0  0  0  0  0  0  0
   38.2520   24.1650   42.0670 H   0  0  0  0  0  0  0  0  0  0  0  0
   35.9380   24.5780   37.8000 H   0  0  0  0  0  0  0  0  0  0  0  0
   39.2330   22.0060   41.0890 H   0  0  0  0  0  0  0  0  0  0  0  0
   37.7390   21.0620   40.4070 H   0  0  0  0  0  0  0  0  0  0  0  0
   38.8250   29.9830   41.6470 C   0  0  0  0  0  0  0  0  0  0  0  0
   40.1300   30.0020   42.1090 C   0  0  0  0  0  0  0  0  0  0  0  0
   41.0310   31.0360   41.8530 C   0  0  0  0  0  0  0  0  0  0  0  0
   40.5750   32.0920   41.0940 C   0  0  0  0  0  0  0  0  0  0  0  0
   39.2790   32.0900   40.6260 C   0  0  0  0  0  0  0  0  0  0  0  0
   38.3960   31.0430   40.8950 C   0  0  0  0  0  0  0  0  0  0  0  0
   40.5480   29.1880   42.7180 H   0  0  0  0  0  0  0  0  0  0  0  0
   42.0390   31.0070   42.2350 H   0  0  0  0  0  0  0  0  0  0  0  0
   41.1990   32.9300   40.8480 H   0  0  0  0  0  0  0  0  0  0  0  0
   38.8640   32.8990   40.0200 H   0  0  0  0  0  0  0  0  0  0  0  0
   36.9950   31.0450   40.4050 C   0  0  0  0  0  0  0  0  0  0  0  0
   36.1350   31.0410   41.4790 F   0  0  0  0  0  0  0  0  0  0  0  0
   36.7440   30.0840   39.4680 F   0  0  0  0  0  0  0  0  0  0  0  0
   36.7950   32.2790   39.7760 F   0  0  0  0  0  0  0  0  0  0  0  0
   39.2370   27.6250   38.9730 N   0  0  0  0  0  0  0  0  0  0  0  0
   38.6500   27.6360   39.9840 C   0  0  0  0  0  0  0  0  0  0  0  0
  1  2  2  0  0  0  0
  1  6  1  0  0  0  0
  2  3  1  0  0  0  0
  3  7  1  0  0  0  0
  3  4  2  0  0  0  0
  4  8  1  0  0  0  0
  5  4  1  0  0  0  0
  5  9  1  0  0  0  0
  6  5  2  0  0  0  0
 10 16  1  0  0  0  0
 10 11  1  0  0  0  0
 11 17  1  0  0  0  0
 12 11  2  0  0  0  0
 12  2  1  0  0  0  0
 13 12  1  0  0  0  0
 14 15  1  0  0  0  0
 14 13  2  0  0  0  0
 15 10  2  0  0  0  0
 16 19  1  0  0  0  0
 18 14  1  0  0  0  0
 20 16  1  0  0  0  0
 21  6  1  0  0  0  0
 21 22  1  0  0  0  0
 22 27  1  0  0  0  0
 23 22  2  0  0  0  0
 23 28  1  0  0  0  0
 24 23  1  0  0  0  0
 25 26  1  0  0  0  0
 25 24  2  0  0  0  0
 26 21  2  0  0  0  0
 29 24  1  0  0  0  0
 30 25  1  0  0  0  0
 31 26  1  0  0  0  0
 31 32  1  0  0  0  0
 33 31  1  0  0  0  0
 34 31  1  0  0  0  0
 35 36  3  0  0  0  0
 36  1  1  0  0  0  0
M  END
>  <minimizedAffinity>
-5.856215

$$$$

 OpenBabel03252508403D

 36 38  0  0  0  0  0  0  0  0999 V2000
   39.0870   30.6610   39.9730 C   0  0  0  0  0  0  0  0  0  0  0  0
   39.0870   32.0270   39.8990 C   0  0  0  0  0  0  0  0  0  0  0  0
   37.8890   32.6580   40.0720 C   0  0  0  0  0  0  0  0  0  0  0  0
   36.7060   32.0150   40.3110 C   0  0  0  0  0  0  0  0  0  0  0  0
   36.7330   30.6400   40.3810 C   0  0  0  0  0  0  0  0  0  0  0  0
   37.9160   29.9400   40.2140 C   0  0  0  0  0  0  0  0  0  0  0  0
   37.8740   33.7400   40.0160 H   0  0  0  0  0  0  0  0  0  0  0  0
   35.7810   32.5490   40.4420 H   0  0  0  0  0  0  0  0  0  0  0  0
   35.8080   30.1130   40.5690 H   0  0  0  0  0  0  0  0  0  0  0  0
   42.0110   33.6730   38.1720 C   0  0  0  0  0  0  0  0  0  0  0  0
   40.7590   33.0460   38.3570 C   0  0  0  0  0  0  0  0  0  0  0  0
   40.3590   32.6740   39.6460 C   0  0  0  0  0  0  0  0  0  0  0  0
   41.2430   32.9610   40.6430 N   0  0  0  0  0  0  0  0  0  0  0  0
   42.4190   33.5530   40.4410 C   0  0  0  0  0  0  0  0  0  0  0  0
   42.8020   33.9070   39.2170 N   0  0  0  0  0  0  0  0  0  0  0  0
   42.3490   34.0210   36.8350 N   0  0  0  0  0  0  0  0  0  0  0  0
   40.0750   32.8290   37.5530 H   0  0  0  0  0  0  0  0  0  0  0  0
   43.0440   33.7330   41.3090 H   0  0  0  0  0  0  0  0  0  0  0  0
   42.1210   33.3240   36.0870 H   0  0  0  0  0  0  0  0  0  0  0  0
   42.8020   34.9640   36.7450 H   0  0  0  0  0  0  0  0  0  0  0  0
   37.8450   28.4960   40.3020 C   0  0  0  0  0  0  0  0  0  0  0  0
   37.5510   27.8490   39.1140 C   0  0  0  0  0  0  0  0  0  0  0  0
   37.4400   26.4650   38.9890 C   0  0  0  0  0  0  0  0  0  0  0  0
   37.6380   25.7140   40.1280 C   0  0  0  0  0  0  0  0  0  0  0  0
   37.9310   26.3410   41.3200 C   0  0  0  0  0  0  0  0  0  0  0  0
   38.0370   27.7290   41.4200 C   0  0  0  0  0  0  0  0  0  0  0  0
   37.3830   28.3950   38.1750 H   0  0  0  0  0  0  0  0  0  0  0  0
   37.2090   26.0050   38.0420 H   0  0  0  0  0  0  0  0  0  0  0  0
   37.5720   24.6420   40.1250 H   0  0  0  0  0  0  0  0  0  0  0  0
   38.0980   25.7970   42.2530 H   0  0  0  0  0  0  0  0  0  0  0  0
   38.3380   28.4080   42.7040 C   0  0  0  0  0  0  0  0  0  0  0  0
   37.2700   29.1990   43.0650 F   0  0  0  0  0  0  0  0  0  0  0  0
   39.5480   29.0420   42.7160 F   0  0  0  0  0  0  0  0  0  0  0  0
   38.4010   27.4070   43.6790 F   0  0  0  0  0  0  0  0  0  0  0  0
   41.2950   29.2960   39.6370 N   0  0  0  0  0  0  0  0  0  0  0  0
   40.3080   29.9030   39.7980 C   0  0  0  0  0  0  0  0  0  0  0  0
  1  6  1  0  0  0  0
  2  1  2  0  0  0  0
  2  3  1  0  0  0  0
  3  4  2  0  0  0  0
  4  5  1  0  0  0  0
  4  8  1  0  0  0  0
  5  9  1  0  0  0  0
  6 21  1  0  0  0  0
  6  5  2  0  0  0  0
  7  3  1  0  0  0  0
 10 11  2  0  0  0  0
 10 15  1  0  0  0  0
 11 12  1  0  0  0  0
 12  2  1  0  0  0  0
 12 13  2  0  0  0  0
 14 13  1  0  0  0  0
 14 18  1  0  0  0  0
 15 14  2  0  0  0  0
 16 10  1  0  0  0  0
 17 11  1  0  0  0  0
 19 16  1  0  0  0  0
 20 16  1  0  0  0  0
 21 26  1  0  0  0  0
 22 21  2  0  0  0  0
 23 22  1  0  0  0  0
 23 24  2  0  0  0  0
 24 25  1  0  0  0  0
 25 26  2  0  0  0  0
 25 30  1  0  0  0  0
 26 31  1  0  0  0  0
 27 22  1  0  0  0  0
 28 23  1  0  0  0  0
 29 24  1  0  0  0  0
 31 33  1  0  0  0  0
 31 32  1  0  0  0  0
 31 34  1  0  0  0  0
 35 36  3  0  0  0  0
 36  1  1  0  0  0  0
M  END
>  <minimizedAffinity>
-5.75946236

$$$$

 OpenBabel03252508403D

 36 38  0  0  0  0  0  0  0  0999 V2000
   39.7830   28.4420   40.8020 C   0  0  0  0  0  0  0  0  0  0  0  0
   40.6520   29.4990   40.8160 C   0  0  0  0  0  0  0  0  0  0  0  0
   41.4730   29.6100   41.9000 C   0  0  0  0  0  0  0  0  0  0  0  0
   41.4790   28.7420   42.9570 C   0  0  0  0  0  0  0  0  0  0  0  0
   40.5950   27.6880   42.9170 C   0  0  0  0  0  0  0  0  0  0  0  0
   39.7340   27.5170   41.8460 C   0  0  0  0  0  0  0  0  0  0  0  0
   42.1680   30.4420   41.9260 H   0  0  0  0  0  0  0  0  0  0  0  0
   42.1450   28.8650   43.7950 H   0  0  0  0  0  0  0  0  0  0  0  0
   40.5850   26.9900   43.7440 H   0  0  0  0  0  0  0  0  0  0  0  0
   41.3530   31.1110   37.4770 C   0  0  0  0  0  0  0  0  0  0  0  0
   41.4280   30.2000   38.5550 C   0  0  0  0  0  0  0  0  0  0  0  0
   40.6180   30.3970   39.6800 C   0  0  0  0  0  0  0  0  0  0  0  0
   39.8000   31.4860   39.6330 N   0  0  0  0  0  0  0  0  0  0  0  0
   39.7480   32.3290   38.6040 C   0  0  0  0  0  0  0  0  0  0  0  0
   40.5170   32.1450   37.5330 N   0  0  0  0  0  0  0  0  0  0  0  0
   42.2050   30.8460   36.3700 N   0  0  0  0  0  0  0  0  0  0  0  0
   42.0830   29.3450   38.5700 H   0  0  0  0  0  0  0  0  0  0  0  0
   39.0580   33.1630   38.6740 H   0  0  0  0  0  0  0  0  0  0  0  0
   43.1840   30.5370   36.5830 H   0  0  0  0  0  0  0  0  0  0  0  0
   41.7460   30.9950   35.4380 H   0  0  0  0  0  0  0  0  0  0  0  0
   38.8390   26.3800   41.8960 C   0  0  0  0  0  0  0  0  0  0  0  0
   39.3680   25.1950   41.4120 C   0  0  0  0  0  0  0  0  0  0  0  0
   38.6690   23.9890   41.3760 C   0  0  0  0  0  0  0  0  0  0  0  0
   37.3760   23.9980   41.8540 C   0  0  0  0  0  0  0  0  0  0  0  0
   36.8330   25.1690   42.3390 C   0  0  0  0  0  0  0  0  0  0  0  0
   37.5530   26.3640   42.3650 C   0  0  0  0  0  0  0  0  0  0  0  0
   40.3920   25.1280   41.0190 H   0  0  0  0  0  0  0  0  0  0  0  0
   39.1230   23.0910   40.9890 H   0  0  0  0  0  0  0  0  0  0  0  0
   36.7640   23.1170   41.8640 H   0  0  0  0  0  0  0  0  0  0  0  0
   35.8150   25.2350   42.7300 H   0  0  0  0  0  0  0  0  0  0  0  0
   36.9670   27.6290   42.8730 C   0  0  0  0  0  0  0  0  0  0  0  0
   36.4400   28.3440   41.8210 F   0  0  0  0  0  0  0  0  0  0  0  0
   37.8120   28.3370   43.6790 F   0  0  0  0  0  0  0  0  0  0  0  0
   35.8680   27.2700   43.6620 F   0  0  0  0  0  0  0  0  0  0  0  0
   38.1390   28.0630   38.8000 N   0  0  0  0  0  0  0  0  0  0  0  0
   38.8690   28.2420   39.6970 C   0  0  0  0  0  0  0  0  0  0  0  0
  1  2  2  0  0  0  0
  1  6  1  0  0  0  0
  2  3  1  0  0  0  0
  3  7  1  0  0  0  0
  3  4  2  0  0  0  0
  4  8  1  0  0  0  0
  5  4  1  0  0  0  0
  5  9  1  0  0  0  0
  6 21  1  0  0  0  0
  6  5  2  0  0  0  0
 10 15  2  0  0  0  0
 10 11  1  0  0  0  0
 11 17  1  0  0  0  0
 11 12  2  0  0  0  0
 12  2  1  0  0  0  0
 13 12  1  0  0  0  0
 14 18  1  0  0  0  0
 14 13  2  0  0  0  0
 15 14  1  0  0  0  0
 16 19  1  0  0  0  0
 16 10  1  0  0  0  0
 20 16  1  0  0  0  0
 21 26  1  0  0  0  0
 22 21  2  0  0  0  0
 23 22  1  0  0  0  0
 23 24  2  0  0  0  0
 24 29  1  0  0  0  0
 24 25  1  0  0  0  0
 25 26  2  0  0  0  0
 25 30  1  0  0  0  0
 26 31  1  0  0  0  0
 27 22  1  0  0  0  0
 28 23  1  0  0  0  0
 31 34  1  0  0  0  0
 31 33  1  0  0  0  0
 32 31  1  0  0  0  0
 35 36  3  0  0  0  0
 36  1  1  0  0  0  0
M  END
>  <minimizedAffinity>
-5.74530268

$$$$

 OpenBabel03252508403D

 36 38  0  0  0  0  0  0  0  0999 V2000
   37.8770   28.9740   40.1920 C   0  0  0  0  0  0  0  0  0  0  0  0
   37.7780   30.3370   40.1130 C   0  0  0  0  0  0  0  0  0  0  0  0
   36.5560   30.8860   40.3730 C   0  0  0  0  0  0  0  0  0  0  0  0
   35.4400   30.1660   40.7010 C   0  0  0  0  0  0  0  0  0  0  0  0
   35.5660   28.7980   40.7730 C   0  0  0  0  0  0  0  0  0  0  0  0
   36.7790   28.1770   40.5220 C   0  0  0  0  0  0  0  0  0  0  0  0
   36.4630   31.9640   40.3150 H   0  0  0  0  0  0  0  0  0  0  0  0
   34.4930   30.6380   40.8990 H   0  0  0  0  0  0  0  0  0  0  0  0
   34.6950   28.2110   41.0320 H   0  0  0  0  0  0  0  0  0  0  0  0
   40.4300   32.1950   38.1760 C   0  0  0  0  0  0  0  0  0  0  0  0
   39.2390   31.4880   38.4550 C   0  0  0  0  0  0  0  0  0  0  0  0
   38.9810   31.0660   39.7640 C   0  0  0  0  0  0  0  0  0  0  0  0
   39.9340   31.3860   40.6860 N   0  0  0  0  0  0  0  0  0  0  0  0
   41.0480   32.0540   40.3950 C   0  0  0  0  0  0  0  0  0  0  0  0
   41.2970   32.4560   39.1510 N   0  0  0  0  0  0  0  0  0  0  0  0
   40.6240   32.5910   36.8230 N   0  0  0  0  0  0  0  0  0  0  0  0
   38.5000   31.2460   37.7100 H   0  0  0  0  0  0  0  0  0  0  0  0
   41.7380   32.2540   41.2080 H   0  0  0  0  0  0  0  0  0  0  0  0
   40.3710   31.8950   36.0800 H   0  0  0  0  0  0  0  0  0  0  0  0
   41.0100   33.5610   36.7180 H   0  0  0  0  0  0  0  0  0  0  0  0
   36.8120   26.7330   40.6200 C   0  0  0  0  0  0  0  0  0  0  0  0
   37.1360   26.2360   41.8710 C   0  0  0  0  0  0  0  0  0  0  0  0
   37.2180   24.8780   42.1720 C   0  0  0  0  0  0  0  0  0  0  0  0
   36.9580   23.9920   41.1480 C   0  0  0  0  0  0  0  0  0  0  0  0
   36.6340   24.4680   39.8960 C   0  0  0  0  0  0  0  0  0  0  0  0
   36.5580   25.8340   39.6190 C   0  0  0  0  0  0  0  0  0  0  0  0
   37.3530   26.8950   42.7250 H   0  0  0  0  0  0  0  0  0  0  0  0
   37.4740   24.5380   43.1630 H   0  0  0  0  0  0  0  0  0  0  0  0
   36.9980   22.9280   41.2890 H   0  0  0  0  0  0  0  0  0  0  0  0
   36.4190   23.8130   39.0480 H   0  0  0  0  0  0  0  0  0  0  0  0
   36.2250   26.3490   38.2690 C   0  0  0  0  0  0  0  0  0  0  0  0
   37.3400   26.9360   37.7150 F   0  0  0  0  0  0  0  0  0  0  0  0
   35.0990   27.1230   38.2430 F   0  0  0  0  0  0  0  0  0  0  0  0
   35.9610   25.2310   37.4700 F   0  0  0  0  0  0  0  0  0  0  0  0
   40.1520   27.7640   39.7340 N   0  0  0  0  0  0  0  0  0  0  0  0
   39.1310   28.2990   39.9300 C   0  0  0  0  0  0  0  0  0  0  0  0
  1  6  1  0  0  0  0
  2  1  2  0  0  0  0
  2  3  1  0  0  0  0
  3  4  2  0  0  0  0
  4  5  1  0  0  0  0
  4  8  1  0  0  0  0
  5  9  1  0  0  0  0
  6 21  1  0  0  0  0
  6  5  2  0  0  0  0
  7  3  1  0  0  0  0
 10 11  2  0  0  0  0
 10 15  1  0  0  0  0
 11 12  1  0  0  0  0
 12  2  1  0  0  0  0
 12 13  2  0  0  0  0
 14 13  1  0  0  0  0
 14 18  1  0  0  0  0
 15 14  2  0  0  0  0
 16 10  1  0  0  0  0
 17 11  1  0  0  0  0
 19 16  1  0  0  0  0
 20 16  1  0  0  0  0
 21 22  1  0  0  0  0
 22 23  2  0  0  0  0
 22 27  1  0  0  0  0
 23 28  1  0  0  0  0
 24 29  1  0  0  0  0
 24 23  1  0  0  0  0
 25 24  2  0  0  0  0
 26 25  1  0  0  0  0
 26 21  2  0  0  0  0
 30 25  1  0  0  0  0
 31 26  1  0  0  0  0
 32 31  1  0  0  0  0
 33 31  1  0  0  0  0
 34 31  1  0  0  0  0
 35 36  3  0  0  0  0
 36  1  1  0  0  0  0
M  END
>  <minimizedAffinity>
-5.71557903

$$$$

 OpenBabel03252508403D

 36 38  0  0  0  0  0  0  0  0999 V2000
   37.8120   28.9160   39.8300 C   0  0  0  0  0  0  0  0  0  0  0  0
   37.8250   30.2700   40.0200 C   0  0  0  0  0  0  0  0  0  0  0  0
   36.6870   30.8380   40.5150 C   0  0  0  0  0  0  0  0  0  0  0  0
   35.5500   30.1440   40.8260 C   0  0  0  0  0  0  0  0  0  0  0  0
   35.5630   28.7830   40.6250 C   0  0  0  0  0  0  0  0  0  0  0  0
   36.6860   28.1440   40.1260 C   0  0  0  0  0  0  0  0  0  0  0  0
   36.6830   31.9100   40.6710 H   0  0  0  0  0  0  0  0  0  0  0  0
   34.6720   30.6310   41.2150 H   0  0  0  0  0  0  0  0  0  0  0  0
   34.6730   28.2160   40.8660 H   0  0  0  0  0  0  0  0  0  0  0  0
   40.4920   32.1510   38.1250 C   0  0  0  0  0  0  0  0  0  0  0  0
   39.2810   31.4760   38.3970 C   0  0  0  0  0  0  0  0  0  0  0  0
   39.0470   30.9720   39.6810 C   0  0  0  0  0  0  0  0  0  0  0  0
   40.0430   31.1840   40.5880 N   0  0  0  0  0  0  0  0  0  0  0  0
   41.1760   31.8240   40.3050 C   0  0  0  0  0  0  0  0  0  0  0  0
   41.4010   32.3040   39.0840 N   0  0  0  0  0  0  0  0  0  0  0  0
   40.6580   32.6350   36.7980 N   0  0  0  0  0  0  0  0  0  0  0  0
   38.5070   31.3200   37.6630 H   0  0  0  0  0  0  0  0  0  0  0  0
   41.9000   31.9360   41.1050 H   0  0  0  0  0  0  0  0  0  0  0  0
   40.3500   32.0070   36.0170 H   0  0  0  0  0  0  0  0  0  0  0  0
   41.0830   33.5930   36.7480 H   0  0  0  0  0  0  0  0  0  0  0  0
   36.6030   26.7100   39.9470 C   0  0  0  0  0  0  0  0  0  0  0  0
   36.1080   26.2980   38.7210 C   0  0  0  0  0  0  0  0  0  0  0  0
   35.9520   24.9630   38.3530 C   0  0  0  0  0  0  0  0  0  0  0  0
   36.3190   24.0100   39.2800 C   0  0  0  0  0  0  0  0  0  0  0  0
   36.8140   24.4010   40.5050 C   0  0  0  0  0  0  0  0  0  0  0  0
   36.9600   25.7450   40.8500 C   0  0  0  0  0  0  0  0  0  0  0  0
   35.8000   27.0130   37.9440 H   0  0  0  0  0  0  0  0  0  0  0  0
   35.5620   24.6900   37.3860 H   0  0  0  0  0  0  0  0  0  0  0  0
   36.2340   22.9580   39.0820 H   0  0  0  0  0  0  0  0  0  0  0  0
   37.1200   23.6900   41.2770 H   0  0  0  0  0  0  0  0  0  0  0  0
   37.4780   26.1690   42.1740 C   0  0  0  0  0  0  0  0  0  0  0  0
   36.4610   26.7460   42.9000 F   0  0  0  0  0  0  0  0  0  0  0  0
   38.6210   26.9140   42.1000 F   0  0  0  0  0  0  0  0  0  0  0  0
   37.8080   24.9980   42.8670 F   0  0  0  0  0  0  0  0  0  0  0  0
   39.9040   27.6750   38.8650 N   0  0  0  0  0  0  0  0  0  0  0  0
   38.9700   28.2230   39.3060 C   0  0  0  0  0  0  0  0  0  0  0  0
  1  2  2  0  0  0  0
  1  6  1  0  0  0  0
  2  3  1  0  0  0  0
  3  7  1  0  0  0  0
  3  4  2  0  0  0  0
  4  8  1  0  0  0  0
  5  4  1  0  0  0  0
  5  9  1  0  0  0  0
  6  5  2  0  0  0  0
 10 11  2  0  0  0  0
 10 15  1  0  0  0  0
 11 12  1  0  0  0  0
 12  2  1  0  0  0  0
 12 13  2  0  0  0  0
 14 13  1  0  0  0  0
 14 18  1  0  0  0  0
 15 14  2  0  0  0  0
 16 10  1  0  0  0  0
 17 11  1  0  0  0  0
 19 16  1  0  0  0  0
 20 16  1  0  0  0  0
 21  6  1  0  0  0  0
 21 26  1  0  0  0  0
 22 21  2  0  0  0  0
 23 22  1  0  0  0  0
 23 24  2  0  0  0  0
 24 25  1  0  0  0  0
 25 26  2  0  0  0  0
 25 30  1  0  0  0  0
 26 31  1  0  0  0  0
 27 22  1  0  0  0  0
 28 23  1  0  0  0  0
 29 24  1  0  0  0  0
 31 34  1  0  0  0  0
 31 32  1  0  0  0  0
 33 31  1  0  0  0  0
 35 36  3  0  0  0  0
 36  1  1  0  0  0  0
M  END
>  <minimizedAffinity>
-5.71416569

$$$$

 OpenBabel03252508403D

 36 38  0  0  0  0  0  0  0  0999 V2000
   38.5810   27.7060   41.4140 C   0  0  0  0  0  0  0  0  0  0  0  0
   39.0280   27.5280   42.6950 C   0  0  0  0  0  0  0  0  0  0  0  0
   38.0840   27.4840   43.6800 C   0  0  0  0  0  0  0  0  0  0  0  0
   36.7380   27.6060   43.4660 C   0  0  0  0  0  0  0  0  0  0  0  0
   36.3160   27.7850   42.1680 C   0  0  0  0  0  0  0  0  0  0  0  0
   37.2220   27.8380   41.1220 C   0  0  0  0  0  0  0  0  0  0  0  0
   38.4220   27.3430   44.6990 H   0  0  0  0  0  0  0  0  0  0  0  0
   36.0250   27.5660   44.2710 H   0  0  0  0  0  0  0  0  0  0  0  0
   35.2550   27.8830   41.9780 H   0  0  0  0  0  0  0  0  0  0  0  0
   42.4770   26.0950   43.2350 C   0  0  0  0  0  0  0  0  0  0  0  0
   41.0770   26.1560   43.0540 C   0  0  0  0  0  0  0  0  0  0  0  0
   40.4590   27.4000   42.8830 C   0  0  0  0  0  0  0  0  0  0  0  0
   41.2910   28.4800   42.9070 N   0  0  0  0  0  0  0  0  0  0  0  0
   42.6080   28.3940   43.0790 C   0  0  0  0  0  0  0  0  0  0  0  0
   43.1990   27.2130   43.2420 N   0  0  0  0  0  0  0  0  0  0  0  0
   43.0330   24.7970   43.4030 N   0  0  0  0  0  0  0  0  0  0  0  0
   40.4380   25.2890   43.0400 H   0  0  0  0  0  0  0  0  0  0  0  0
   43.1740   29.3200   43.0800 H   0  0  0  0  0  0  0  0  0  0  0  0
   42.5070   24.1260   44.0130 H   0  0  0  0  0  0  0  0  0  0  0  0
   43.9330   24.6530   42.8820 H   0  0  0  0  0  0  0  0  0  0  0  0
   36.6830   28.0310   39.7930 C   0  0  0  0  0  0  0  0  0  0  0  0
   36.4640   29.3500   39.4330 C   0  0  0  0  0  0  0  0  0  0  0  0
   35.9530   29.7450   38.1970 C   0  0  0  0  0  0  0  0  0  0  0  0
   35.6530   28.7480   37.2940 C   0  0  0  0  0  0  0  0  0  0  0  0
   35.8650   27.4290   37.6350 C   0  0  0  0  0  0  0  0  0  0  0  0
   36.3780   27.0580   38.8790 C   0  0  0  0  0  0  0  0  0  0  0  0
   36.6840   30.1870   40.1110 H   0  0  0  0  0  0  0  0  0  0  0  0
   35.8000   30.7860   37.9620 H   0  0  0  0  0  0  0  0  0  0  0  0
   35.2560   28.9590   36.3190 H   0  0  0  0  0  0  0  0  0  0  0  0
   35.6460   26.5980   36.9600 H   0  0  0  0  0  0  0  0  0  0  0  0
   36.5920   25.6390   39.2540 C   0  0  0  0  0  0  0  0  0  0  0  0
   35.9410   24.8250   38.3550 F   0  0  0  0  0  0  0  0  0  0  0  0
   36.3200   25.3750   40.5660 F   0  0  0  0  0  0  0  0  0  0  0  0
   37.9550   25.3790   39.0680 F   0  0  0  0  0  0  0  0  0  0  0  0
   40.2390   27.8160   39.3910 N   0  0  0  0  0  0  0  0  0  0  0  0
   39.5070   27.7700   40.3030 C   0  0  0  0  0  0  0  0  0  0  0  0
  1  2  1  0  0  0  0
  2 12  1  0  0  0  0
  2  3  2  0  0  0  0
  3  7  1  0  0  0  0
  4  3  1  0  0  0  0
  4  8  1  0  0  0  0
  5  4  2  0  0  0  0
  6  1  2  0  0  0  0
  6  5  1  0  0  0  0
  9  5  1  0  0  0  0
 10 15  1  0  0  0  0
 10 16  1  0  0  0  0
 11 10  2  0  0  0  0
 12 13  2  0  0  0  0
 12 11  1  0  0  0  0
 13 14  1  0  0  0  0
 14 18  1  0  0  0  0
 14 15  2  0  0  0  0
 16 19  1  0  0  0  0
 17 11  1  0  0  0  0
 20 16  1  0  0  0  0
 21  6  1  0  0  0  0
 22 21  1  0  0  0  0
 22 27  1  0  0  0  0
 23 22  2  0  0  0  0
 24 25  2  0  0  0  0
 24 23  1  0  0  0  0
 25 26  1  0  0  0  0
 26 31  1  0  0  0  0
 26 21  2  0  0  0  0
 28 23  1  0  0  0  0
 29 24  1  0  0  0  0
 30 25  1  0  0  0  0
 31 33  1  0  0  0  0
 32 31  1  0  0  0  0
 34 31  1  0  0  0  0
 35 36  3  0  0  0  0
 36  1  1  0  0  0  0
M  END
>  <minimizedAffinity>
-5.71140909

$$$$

 OpenBabel03252508403D

 36 38  0  0  0  0  0  0  0  0999 V2000
   38.6070   27.6750   41.5780 C   0  0  0  0  0  0  0  0  0  0  0  0
   38.9140   28.4540   42.6590 C   0  0  0  0  0  0  0  0  0  0  0  0
   38.0060   28.4890   43.6770 C   0  0  0  0  0  0  0  0  0  0  0  0
   36.8230   27.8020   43.6800 C   0  0  0  0  0  0  0  0  0  0  0  0
   36.5380   27.0250   42.5800 C   0  0  0  0  0  0  0  0  0  0  0  0
   37.4170   26.9460   41.5130 C   0  0  0  0  0  0  0  0  0  0  0  0
   38.2360   29.1020   44.5400 H   0  0  0  0  0  0  0  0  0  0  0  0
   36.1320   27.8560   44.5040 H   0  0  0  0  0  0  0  0  0  0  0  0
   35.6070   26.4740   42.5630 H   0  0  0  0  0  0  0  0  0  0  0  0
   41.5150   31.1550   42.2330 C   0  0  0  0  0  0  0  0  0  0  0  0
   40.2560   30.5140   42.2520 C   0  0  0  0  0  0  0  0  0  0  0  0
   40.1760   29.1660   42.6220 C   0  0  0  0  0  0  0  0  0  0  0  0
   41.3590   28.5720   42.9430 N   0  0  0  0  0  0  0  0  0  0  0  0
   42.5330   29.2000   42.9170 C   0  0  0  0  0  0  0  0  0  0  0  0
   42.6140   30.4810   42.5650 N   0  0  0  0  0  0  0  0  0  0  0  0
   41.5190   32.5240   41.8460 N   0  0  0  0  0  0  0  0  0  0  0  0
   39.3330   31.0040   41.9930 H   0  0  0  0  0  0  0  0  0  0  0  0
   43.4130   28.6280   43.1930 H   0  0  0  0  0  0  0  0  0  0  0  0
   40.9040   32.7950   41.0410 H   0  0  0  0  0  0  0  0  0  0  0  0
   42.1540   33.1250   42.4250 H   0  0  0  0  0  0  0  0  0  0  0  0
   37.0290   26.1060   40.4000 C   0  0  0  0  0  0  0  0  0  0  0  0
   36.3570   26.7560   39.3790 C   0  0  0  0  0  0  0  0  0  0  0  0
   35.9010   26.1250   38.2220 C   0  0  0  0  0  0  0  0  0  0  0  0
   36.1440   24.7730   38.1070 C   0  0  0  0  0  0  0  0  0  0  0  0
   36.8120   24.1090   39.1140 C   0  0  0  0  0  0  0  0  0  0  0  0
   37.2590   24.7630   40.2630 C   0  0  0  0  0  0  0  0  0  0  0  0
   36.1340   27.8320   39.4160 H   0  0  0  0  0  0  0  0  0  0  0  0
   35.3820   26.6740   37.4530 H   0  0  0  0  0  0  0  0  0  0  0  0
   35.8300   24.2060   37.2510 H   0  0  0  0  0  0  0  0  0  0  0  0
   37.0330   23.0400   39.0760 H   0  0  0  0  0  0  0  0  0  0  0  0
   37.9650   24.0490   41.3550 C   0  0  0  0  0  0  0  0  0  0  0  0
   37.1760   24.0440   42.4830 F   0  0  0  0  0  0  0  0  0  0  0  0
   39.2440   24.4830   41.5530 F   0  0  0  0  0  0  0  0  0  0  0  0
   38.0530   22.7080   40.9620 F   0  0  0  0  0  0  0  0  0  0  0  0
   40.2260   27.4790   39.5310 N   0  0  0  0  0  0  0  0  0  0  0  0
   39.5060   27.5780   40.4470 C   0  0  0  0  0  0  0  0  0  0  0  0
  1  2  1  0  0  0  0
  2  3  2  0  0  0  0
  3  4  1  0  0  0  0
  3  7  1  0  0  0  0
  4  8  1  0  0  0  0
  5  4  2  0  0  0  0
  6  1  2  0  0  0  0
  6  5  1  0  0  0  0
  9  5  1  0  0  0  0
 10 11  2  0  0  0  0
 10 15  1  0  0  0  0
 11 12  1  0  0  0  0
 12  2  1  0  0  0  0
 12 13  2  0  0  0  0
 14 13  1  0  0  0  0
 14 18  1  0  0  0  0
 15 14  2  0  0  0  0
 16 10  1  0  0  0  0
 16 20  1  0  0  0  0
 17 11  1  0  0  0  0
 19 16  1  0  0  0  0
 21  6  1  0  0  0  0
 22 27  1  0  0  0  0
 22 21  2  0  0  0  0
 23 22  1  0  0  0  0
 24 23  2  0  0  0  0
 24 25  1  0  0  0  0
 25 26  2  0  0  0  0
 26 21  1  0  0  0  0
 26 31  1  0  0  0  0
 28 23  1  0  0  0  0
 29 24  1  0  0  0  0
 30 25  1  0  0  0  0
 31 33  1  0  0  0  0
 31 32  1  0  0  0  0
 34 31  1  0  0  0  0
 35 36  3  0  0  0  0
 36  1  1  0  0  0  0
M  END
>  <minimizedAffinity>
-5.64738369

$$$$
