
 OpenBabel03252500373D

 41 43  0  0  1  0  0  0  0  0999 V2000
   38.1690   26.8090   41.7060 C   0  0  0  0  0  0  0  0  0  0  0  0
   37.8780   27.6620   41.0550 H   0  0  0  0  0  0  0  0  0  0  0  0
   39.2250   26.5410   41.5000 H   0  0  0  0  0  0  0  0  0  0  0  0
   37.2930   25.7130   41.5050 N   0  0  0  0  0  0  0  0  0  0  0  0
   37.6270   24.4830   42.0860 C   0  0  0  0  0  0  0  0  0  0  0  0
   38.4740   23.6170   41.1360 C   0  0  0  0  0  0  0  0  0  0  0  0
   37.5500   23.2310   39.9980 C   0  0  0  0  0  0  0  0  0  0  0  0
   37.1510   24.5240   39.3320 C   0  0  0  0  0  0  0  0  0  0  0  0
   36.6370   25.5760   40.2730 C   0  0  2  0  0  0  0  0  0  0  0  0
   36.6550   23.9030   42.1430 H   0  0  0  0  0  0  0  0  0  0  0  0
   37.9780   24.4570   43.1180 H   0  0  0  0  0  0  0  0  0  0  0  0
   39.2250   24.3180   40.6710 H   0  0  0  0  0  0  0  0  0  0  0  0
   38.9280   22.7640   41.6430 H   0  0  0  0  0  0  0  0  0  0  0  0
   36.6160   22.7680   40.4230 H   0  0  0  0  0  0  0  0  0  0  0  0
   38.0090   22.5980   39.2350 H   0  0  0  0  0  0  0  0  0  0  0  0
   36.3780   24.3900   38.5440 H   0  0  0  0  0  0  0  0  0  0  0  0
   38.0710   24.9200   38.8530 H   0  0  0  0  0  0  0  0  0  0  0  0
   35.5580   25.3350   40.4700 H   0  0  0  0  0  0  0  0  0  0  0  0
   36.6110   26.8820   39.4920 C   0  0  0  0  0  0  0  0  0  0  0  0
   37.6420   27.1040   39.1770 H   0  0  0  0  0  0  0  0  0  0  0  0
   36.2280   27.6840   40.1670 H   0  0  0  0  0  0  0  0  0  0  0  0
   35.9460   26.7480   38.6320 H   0  0  0  0  0  0  0  0  0  0  0  0
   37.6840   28.6820   43.4780 C   0  0  1  0  0  0  0  0  0  0  0  0
   36.7620   27.6520   43.6770 C   0  0  0  0  0  0  0  0  0  0  0  0
   38.0560   27.2110   43.1300 C   0  0  1  0  0  0  0  0  0  0  0  0
   38.2540   29.1160   44.3470 H   0  0  0  0  0  0  0  0  0  0  0  0
   35.8890   27.5350   42.9720 H   0  0  0  0  0  0  0  0  0  0  0  0
   36.4610   27.3440   44.7040 H   0  0  0  0  0  0  0  0  0  0  0  0
   38.9000   26.8800   43.7510 H   0  0  0  0  0  0  0  0  0  0  0  0
   36.4760   29.9020   41.6660 C   0  0  0  0  0  0  0  0  0  0  0  0
   37.7140   29.6550   42.3440 C   0  0  0  0  0  0  0  0  0  0  0  0
   38.8450   30.2920   41.9460 C   0  0  0  0  0  0  0  0  0  0  0  0
   38.7350   31.1610   40.8880 N   0  0  0  0  0  0  0  0  0  0  0  0
   37.5540   31.3860   40.2520 C   0  0  0  0  0  0  0  0  0  0  0  0
   36.3860   30.7610   40.6250 N   0  0  0  0  0  0  0  0  0  0  0  0
   35.5960   29.3750   42.0120 H   0  0  0  0  0  0  0  0  0  0  0  0
   39.7720   30.1150   42.4460 H   0  0  0  0  0  0  0  0  0  0  0  0
   37.5960   32.3600   39.1170 C   0  0  0  0  0  0  0  0  0  0  0  0
   38.9240   32.6930   38.8500 F   0  0  0  0  0  0  0  0  0  0  0  0
   37.0450   31.7790   37.9950 F   0  0  0  0  0  0  0  0  0  0  0  0
   36.9350   33.5270   39.4270 F   0  0  0  0  0  0  0  0  0  0  0  0
  1 25  1  0  0  0  0
  2  1  1  0  0  0  0
  3  1  1  0  0  0  0
  4  1  1  0  0  0  0
  4  5  1  0  0  0  0
  5 10  1  0  0  0  0
  5 11  1  0  0  0  0
  6 13  1  0  0  0  0
  6  5  1  0  0  0  0
  7 14  1  0  0  0  0
  7  6  1  0  0  0  0
  8  7  1  0  0  0  0
  8  9  1  0  0  0  0
  9 18  1  1  0  0  0
  9  4  1  0  0  0  0
 12  6  1  0  0  0  0
 15  7  1  0  0  0  0
 16  8  1  0  0  0  0
 17  8  1  0  0  0  0
 19 21  1  0  0  0  0
 19  9  1  0  0  0  0
 20 19  1  0  0  0  0
 22 19  1  0  0  0  0
 23 24  1  0  0  0  0
 23 26  1  1  0  0  0
 24 28  1  0  0  0  0
 25 23  1  0  0  0  0
 25 24  1  0  0  0  0
 25 29  1  1  0  0  0
 27 24  1  0  0  0  0
 30 36  1  0  0  0  0
 30 31  1  0  0  0  0
 31 23  1  0  0  0  0
 32 31  2  0  0  0  0
 32 37  1  0  0  0  0
 33 32  1  0  0  0  0
 34 35  1  0  0  0  0
 34 33  2  0  0  0  0
 35 30  2  0  0  0  0
 38 41  1  0  0  0  0
 38 34  1  0  0  0  0
 39 38  1  0  0  0  0
 40 38  1  0  0  0  0
M  END
>  <minimizedAffinity>
-5.57390547

$$$$

 OpenBabel03252500373D

 41 43  0  0  1  0  0  0  0  0999 V2000
   38.4870   30.4210   40.2700 C   0  0  0  0  0  0  0  0  0  0  0  0
   39.1450   30.7190   39.4250 H   0  0  0  0  0  0  0  0  0  0  0  0
   38.6040   29.3340   40.4530 H   0  0  0  0  0  0  0  0  0  0  0  0
   37.1410   30.7730   39.9960 N   0  0  0  0  0  0  0  0  0  0  0  0
   36.1730   30.4950   40.9690 C   0  0  0  0  0  0  0  0  0  0  0  0
   35.5520   29.1000   40.7720 C   0  0  0  0  0  0  0  0  0  0  0  0
   34.7500   29.1840   39.4890 C   0  0  0  0  0  0  0  0  0  0  0  0
   35.7450   29.4880   38.3970 C   0  0  0  0  0  0  0  0  0  0  0  0
   36.6530   30.6490   38.6880 C   0  0  2  0  0  0  0  0  0  0  0  0
   35.3040   31.1830   40.7350 H   0  0  0  0  0  0  0  0  0  0  0  0
   36.3830   30.7270   42.0140 H   0  0  0  0  0  0  0  0  0  0  0  0
   36.4130   28.4140   40.5270 H   0  0  0  0  0  0  0  0  0  0  0  0
   34.9690   28.7770   41.6350 H   0  0  0  0  0  0  0  0  0  0  0  0
   34.0430   30.0580   39.5530 H   0  0  0  0  0  0  0  0  0  0  0  0
   34.2340   28.2620   39.2140 H   0  0  0  0  0  0  0  0  0  0  0  0
   35.2680   29.6890   37.4130 H   0  0  0  0  0  0  0  0  0  0  0  0
   36.3780   28.5810   38.2980 H   0  0  0  0  0  0  0  0  0  0  0  0
   36.0790   31.5800   38.4330 H   0  0  0  0  0  0  0  0  0  0  0  0
   37.7760   30.5900   37.6630 C   0  0  0  0  0  0  0  0  0  0  0  0
   38.3030   29.6330   37.7990 H   0  0  0  0  0  0  0  0  0  0  0  0
   38.4670   31.4460   37.8520 H   0  0  0  0  0  0  0  0  0  0  0  0
   37.3280   30.6650   36.6660 H   0  0  0  0  0  0  0  0  0  0  0  0
   39.4880   30.3500   42.6930 C   0  0  1  0  0  0  0  0  0  0  0  0
   40.3070   31.1700   41.9140 C   0  0  0  0  0  0  0  0  0  0  0  0
   38.8940   31.1490   41.4970 C   0  0  1  0  0  0  0  0  0  0  0  0
   39.1350   30.6930   43.7060 H   0  0  0  0  0  0  0  0  0  0  0  0
   41.0230   30.7090   41.1730 H   0  0  0  0  0  0  0  0  0  0  0  0
   40.7470   32.1040   42.3320 H   0  0  0  0  0  0  0  0  0  0  0  0
   38.1410   31.8630   41.8580 H   0  0  0  0  0  0  0  0  0  0  0  0
   38.2080   28.2700   43.2090 C   0  0  0  0  0  0  0  0  0  0  0  0
   39.3710   28.8630   42.6160 C   0  0  0  0  0  0  0  0  0  0  0  0
   40.3040   28.0770   42.0210 C   0  0  0  0  0  0  0  0  0  0  0  0
   40.0760   26.7230   42.0220 N   0  0  0  0  0  0  0  0  0  0  0  0
   38.9690   26.1720   42.5890 C   0  0  0  0  0  0  0  0  0  0  0  0
   37.9990   26.9340   43.2010 N   0  0  0  0  0  0  0  0  0  0  0  0
   37.4870   28.9300   43.6740 H   0  0  0  0  0  0  0  0  0  0  0  0
   41.1740   28.5100   41.5760 H   0  0  0  0  0  0  0  0  0  0  0  0
   38.8630   24.6820   42.5080 C   0  0  0  0  0  0  0  0  0  0  0  0
   39.4250   24.2480   41.3080 F   0  0  0  0  0  0  0  0  0  0  0  0
   39.5560   24.1180   43.5580 F   0  0  0  0  0  0  0  0  0  0  0  0
   37.5510   24.2670   42.5210 F   0  0  0  0  0  0  0  0  0  0  0  0
  1  3  1  0  0  0  0
  1 25  1  0  0  0  0
  2  1  1  0  0  0  0
  4  1  1  0  0  0  0
  4  5  1  0  0  0  0
  5 11  1  0  0  0  0
  6  5  1  0  0  0  0
  6 13  1  0  0  0  0
  7 14  1  0  0  0  0
  7  6  1  0  0  0  0
  8  9  1  0  0  0  0
  8  7  1  0  0  0  0
  9 18  1  6  0  0  0
  9  4  1  0  0  0  0
 10  5  1  0  0  0  0
 12  6  1  0  0  0  0
 15  7  1  0  0  0  0
 16  8  1  0  0  0  0
 17  8  1  0  0  0  0
 19 20  1  0  0  0  0
 19 21  1  0  0  0  0
 19  9  1  0  0  0  0
 22 19  1  0  0  0  0
 23 26  1  1  0  0  0
 24 28  1  0  0  0  0
 24 23  1  0  0  0  0
 25 29  1  1  0  0  0
 25 24  1  0  0  0  0
 25 23  1  0  0  0  0
 27 24  1  0  0  0  0
 30 36  1  0  0  0  0
 31 23  1  0  0  0  0
 31 30  2  0  0  0  0
 32 33  2  0  0  0  0
 32 31  1  0  0  0  0
 33 34  1  0  0  0  0
 34 35  2  0  0  0  0
 35 30  1  0  0  0  0
 37 32  1  0  0  0  0
 38 41  1  0  0  0  0
 38 34  1  0  0  0  0
 38 40  1  0  0  0  0
 39 38  1  0  0  0  0
M  END
>  <minimizedAffinity>
-5.37931347

$$$$

 OpenBabel03252500373D

 41 43  0  0  1  0  0  0  0  0999 V2000
   38.6560   26.8940   42.0680 C   0  0  0  0  0  0  0  0  0  0  0  0
   37.8110   26.6940   41.3740 H   0  0  0  0  0  0  0  0  0  0  0  0
   39.2800   27.7100   41.6520 H   0  0  0  0  0  0  0  0  0  0  0  0
   39.4050   25.7100   42.2900 N   0  0  0  0  0  0  0  0  0  0  0  0
   39.9480   25.4990   43.5630 C   0  0  0  0  0  0  0  0  0  0  0  0
   41.3680   26.0820   43.6800 C   0  0  0  0  0  0  0  0  0  0  0  0
   42.2380   25.2300   42.7780 C   0  0  0  0  0  0  0  0  0  0  0  0
   41.6950   25.4150   41.3830 C   0  0  0  0  0  0  0  0  0  0  0  0
   40.2120   25.2080   41.2600 C   0  0  2  0  0  0  0  0  0  0  0  0
   40.1370   24.3830   43.6290 H   0  0  0  0  0  0  0  0  0  0  0  0
   39.3340   25.6870   44.4450 H   0  0  0  0  0  0  0  0  0  0  0  0
   41.3280   27.0890   43.1720 H   0  0  0  0  0  0  0  0  0  0  0  0
   41.7170   26.1290   44.7120 H   0  0  0  0  0  0  0  0  0  0  0  0
   42.1020   24.1470   43.0520 H   0  0  0  0  0  0  0  0  0  0  0  0
   43.2920   25.5170   42.7600 H   0  0  0  0  0  0  0  0  0  0  0  0
   42.1780   24.7500   40.6340 H   0  0  0  0  0  0  0  0  0  0  0  0
   41.9130   26.4680   41.1050 H   0  0  0  0  0  0  0  0  0  0  0  0
   40.0460   24.1000   41.1860 H   0  0  0  0  0  0  0  0  0  0  0  0
   39.8090   25.7560   39.8990 C   0  0  0  0  0  0  0  0  0  0  0  0
   40.0600   26.8280   39.8820 H   0  0  0  0  0  0  0  0  0  0  0  0
   38.7090   25.6120   39.7770 H   0  0  0  0  0  0  0  0  0  0  0  0
   40.3610   25.2000   39.1340 H   0  0  0  0  0  0  0  0  0  0  0  0
   37.3600   28.6860   43.4790 C   0  0  1  0  0  0  0  0  0  0  0  0
   36.6740   27.4750   43.5880 C   0  0  0  0  0  0  0  0  0  0  0  0
   38.1250   27.3340   43.3820 C   0  0  1  0  0  0  0  0  0  0  0  0
   37.5970   29.2940   44.3970 H   0  0  0  0  0  0  0  0  0  0  0  0
   36.0390   27.1080   42.7290 H   0  0  0  0  0  0  0  0  0  0  0  0
   36.2180   27.1600   44.5540 H   0  0  0  0  0  0  0  0  0  0  0  0
   38.8520   27.2550   44.2020 H   0  0  0  0  0  0  0  0  0  0  0  0
   38.6270   30.3490   42.1150 C   0  0  0  0  0  0  0  0  0  0  0  0
   37.4330   29.5720   42.2780 C   0  0  0  0  0  0  0  0  0  0  0  0
   36.4340   29.6640   41.3640 C   0  0  0  0  0  0  0  0  0  0  0  0
   36.6280   30.5200   40.3070 N   0  0  0  0  0  0  0  0  0  0  0  0
   37.7650   31.2530   40.1640 C   0  0  0  0  0  0  0  0  0  0  0  0
   38.8010   31.1880   41.0680 N   0  0  0  0  0  0  0  0  0  0  0  0
   39.4010   30.2490   42.8650 H   0  0  0  0  0  0  0  0  0  0  0  0
   35.5410   29.0890   41.4770 H   0  0  0  0  0  0  0  0  0  0  0  0
   37.8260   32.1390   38.9610 C   0  0  0  0  0  0  0  0  0  0  0  0
   36.8750   33.1510   39.0880 F   0  0  0  0  0  0  0  0  0  0  0  0
   39.0790   32.7090   38.8760 F   0  0  0  0  0  0  0  0  0  0  0  0
   37.5360   31.4460   37.8070 F   0  0  0  0  0  0  0  0  0  0  0  0
  1  4  1  0  0  0  0
  1 25  1  0  0  0  0
  2  1  1  0  0  0  0
  3  1  1  0  0  0  0
  4  5  1  0  0  0  0
  5 10  1  0  0  0  0
  5  6  1  0  0  0  0
  5 11  1  0  0  0  0
  6 13  1  0  0  0  0
  7 14  1  0  0  0  0
  7  6  1  0  0  0  0
  8  7  1  0  0  0  0
  9 18  1  6  0  0  0
  9  8  1  0  0  0  0
  9  4  1  0  0  0  0
 12  6  1  0  0  0  0
 15  7  1  0  0  0  0
 16  8  1  0  0  0  0
 17  8  1  0  0  0  0
 19  9  1  0  0  0  0
 20 19  1  0  0  0  0
 21 19  1  0  0  0  0
 22 19  1  0  0  0  0
 23 24  1  0  0  0  0
 23 26  1  1  0  0  0
 24 28  1  0  0  0  0
 25 23  1  0  0  0  0
 25 24  1  0  0  0  0
 25 29  1  1  0  0  0
 27 24  1  0  0  0  0
 30 31  1  0  0  0  0
 30 36  1  0  0  0  0
 31 23  1  0  0  0  0
 32 37  1  0  0  0  0
 32 31  2  0  0  0  0
 33 32  1  0  0  0  0
 34 33  2  0  0  0  0
 34 35  1  0  0  0  0
 35 30  2  0  0  0  0
 38 39  1  0  0  0  0
 38 34  1  0  0  0  0
 40 38  1  0  0  0  0
 41 38  1  0  0  0  0
M  END
>  <minimizedAffinity>
-5.26982832

$$$$

 OpenBabel03252500373D

 41 43  0  0  1  0  0  0  0  0999 V2000
   36.9810   28.1160   40.9110 C   0  0  0  0  0  0  0  0  0  0  0  0
   36.9010   27.1980   40.2880 H   0  0  0  0  0  0  0  0  0  0  0  0
   37.7460   28.7860   40.4700 H   0  0  0  0  0  0  0  0  0  0  0  0
   37.2810   27.7770   42.2540 N   0  0  0  0  0  0  0  0  0  0  0  0
   37.9860   28.7050   43.0300 C   0  0  0  0  0  0  0  0  0  0  0  0
   39.5080   28.4900   42.9320 C   0  0  0  0  0  0  0  0  0  0  0  0
   39.7810   27.1700   43.6250 C   0  0  0  0  0  0  0  0  0  0  0  0
   39.0390   26.1240   42.8320 C   0  0  0  0  0  0  0  0  0  0  0  0
   37.5960   26.4480   42.5710 C   0  0  2  0  0  0  0  0  0  0  0  0
   37.7690   28.4250   44.1070 H   0  0  0  0  0  0  0  0  0  0  0  0
   37.6990   29.7570   42.9970 H   0  0  0  0  0  0  0  0  0  0  0  0
   39.7190   28.2910   41.8430 H   0  0  0  0  0  0  0  0  0  0  0  0
   40.0740   29.3280   43.3410 H   0  0  0  0  0  0  0  0  0  0  0  0
   39.3290   27.1950   44.6560 H   0  0  0  0  0  0  0  0  0  0  0  0
   40.8330   26.8790   43.6480 H   0  0  0  0  0  0  0  0  0  0  0  0
   39.0650   25.1170   43.3030 H   0  0  0  0  0  0  0  0  0  0  0  0
   39.5530   26.0610   41.8490 H   0  0  0  0  0  0  0  0  0  0  0  0
   37.0280   26.1590   43.4970 H   0  0  0  0  0  0  0  0  0  0  0  0
   37.1190   25.4770   41.5010 C   0  0  0  0  0  0  0  0  0  0  0  0
   37.7290   25.6450   40.6010 H   0  0  0  0  0  0  0  0  0  0  0  0
   36.0440   25.6920   41.2890 H   0  0  0  0  0  0  0  0  0  0  0  0
   37.2430   24.4600   41.8880 H   0  0  0  0  0  0  0  0  0  0  0  0
   35.5530   30.1830   40.1590 C   0  0  1  0  0  0  0  0  0  0  0  0
   34.9410   29.0330   39.6560 C   0  0  0  0  0  0  0  0  0  0  0  0
   35.6790   28.8280   40.9140 C   0  0  1  0  0  0  0  0  0  0  0  0
   34.9460   30.9650   40.6980 H   0  0  0  0  0  0  0  0  0  0  0  0
   35.3830   28.5070   38.7610 H   0  0  0  0  0  0  0  0  0  0  0  0
   33.8330   28.9330   39.6420 H   0  0  0  0  0  0  0  0  0  0  0  0
   35.2210   28.9080   41.9100 H   0  0  0  0  0  0  0  0  0  0  0  0
   37.5530   31.5980   40.6380 C   0  0  0  0  0  0  0  0  0  0  0  0
   36.8310   30.8000   39.6920 C   0  0  0  0  0  0  0  0  0  0  0  0
   37.3160   30.6340   38.4340 C   0  0  0  0  0  0  0  0  0  0  0  0
   38.5010   31.2590   38.1330 N   0  0  0  0  0  0  0  0  0  0  0  0
   39.1760   32.0150   39.0400 C   0  0  0  0  0  0  0  0  0  0  0  0
   38.7190   32.2070   40.3240 N   0  0  0  0  0  0  0  0  0  0  0  0
   37.1340   31.7070   41.6300 H   0  0  0  0  0  0  0  0  0  0  0  0
   36.7850   30.0400   37.7220 H   0  0  0  0  0  0  0  0  0  0  0  0
   40.4530   32.6290   38.5600 C   0  0  0  0  0  0  0  0  0  0  0  0
   40.5020   32.5560   37.1680 F   0  0  0  0  0  0  0  0  0  0  0  0
   40.4940   33.9530   38.9410 F   0  0  0  0  0  0  0  0  0  0  0  0
   41.5520   31.9560   39.0450 F   0  0  0  0  0  0  0  0  0  0  0  0
  1 25  1  0  0  0  0
  1  4  1  0  0  0  0
  2  1  1  0  0  0  0
  3  1  1  0  0  0  0
  4  9  1  0  0  0  0
  4  5  1  0  0  0  0
  5 10  1  0  0  0  0
  6  5  1  0  0  0  0
  6 13  1  0  0  0  0
  6  7  1  0  0  0  0
  7 15  1  0  0  0  0
  7 14  1  0  0  0  0
  8 16  1  0  0  0  0
  8  7  1  0  0  0  0
  9  8  1  0  0  0  0
  9 18  1  1  0  0  0
 11  5  1  0  0  0  0
 12  6  1  0  0  0  0
 17  8  1  0  0  0  0
 19 22  1  0  0  0  0
 19  9  1  0  0  0  0
 20 19  1  0  0  0  0
 21 19  1  0  0  0  0
 23 26  1  1  0  0  0
 23 25  1  0  0  0  0
 24 23  1  0  0  0  0
 24 25  1  0  0  0  0
 25 29  1  1  0  0  0
 27 24  1  0  0  0  0
 28 24  1  0  0  0  0
 30 36  1  0  0  0  0
 31 23  1  0  0  0  0
 31 30  2  0  0  0  0
 32 31  1  0  0  0  0
 33 32  2  0  0  0  0
 33 34  1  0  0  0  0
 34 35  2  0  0  0  0
 35 30  1  0  0  0  0
 37 32  1  0  0  0  0
 38 40  1  0  0  0  0
 38 34  1  0  0  0  0
 38 41  1  0  0  0  0
 39 38  1  0  0  0  0
M  END
>  <minimizedAffinity>
-5.2650671

$$$$

 OpenBabel03252500373D

 41 43  0  0  1  0  0  0  0  0999 V2000
   38.2330   26.8640   41.6320 C   0  0  0  0  0  0  0  0  0  0  0  0
   37.2030   26.7190   41.2400 H   0  0  0  0  0  0  0  0  0  0  0  0
   38.7200   27.6860   41.0700 H   0  0  0  0  0  0  0  0  0  0  0  0
   38.9680   25.6540   41.5490 N   0  0  0  0  0  0  0  0  0  0  0  0
   40.3250   25.7250   41.2100 C   0  0  0  0  0  0  0  0  0  0  0  0
   40.5360   25.6280   39.6880 C   0  0  0  0  0  0  0  0  0  0  0  0
   40.1500   24.2120   39.3090 C   0  0  0  0  0  0  0  0  0  0  0  0
   38.6900   24.0730   39.6580 C   0  0  0  0  0  0  0  0  0  0  0  0
   38.3400   24.5030   41.0540 C   0  0  2  0  0  0  0  0  0  0  0  0
   40.7800   24.7560   41.5810 H   0  0  0  0  0  0  0  0  0  0  0  0
   40.9560   26.4790   41.6830 H   0  0  0  0  0  0  0  0  0  0  0  0
   39.7370   26.2760   39.2260 H   0  0  0  0  0  0  0  0  0  0  0  0
   41.5480   25.9040   39.3890 H   0  0  0  0  0  0  0  0  0  0  0  0
   40.7220   23.4890   39.9560 H   0  0  0  0  0  0  0  0  0  0  0  0
   40.2570   23.9810   38.2470 H   0  0  0  0  0  0  0  0  0  0  0  0
   38.3070   23.0370   39.5330 H   0  0  0  0  0  0  0  0  0  0  0  0
   38.1420   24.7340   38.9530 H   0  0  0  0  0  0  0  0  0  0  0  0
   38.5900   23.6420   41.7300 H   0  0  0  0  0  0  0  0  0  0  0  0
   36.8230   24.6130   41.1070 C   0  0  0  0  0  0  0  0  0  0  0  0
   36.5160   25.3730   40.3710 H   0  0  0  0  0  0  0  0  0  0  0  0
   36.5310   24.9280   42.1370 H   0  0  0  0  0  0  0  0  0  0  0  0
   36.4050   23.6290   40.8680 H   0  0  0  0  0  0  0  0  0  0  0  0
   37.7400   28.6930   43.4460 C   0  0  1  0  0  0  0  0  0  0  0  0
   36.8830   27.6160   43.6790 C   0  0  0  0  0  0  0  0  0  0  0  0
   38.1700   27.2470   43.0640 C   0  0  1  0  0  0  0  0  0  0  0  0
   38.3280   29.1490   44.2910 H   0  0  0  0  0  0  0  0  0  0  0  0
   35.9830   27.4580   43.0160 H   0  0  0  0  0  0  0  0  0  0  0  0
   36.6500   27.2830   44.7150 H   0  0  0  0  0  0  0  0  0  0  0  0
   39.0590   26.9550   43.6390 H   0  0  0  0  0  0  0  0  0  0  0  0
   38.8710   30.3660   41.9780 C   0  0  0  0  0  0  0  0  0  0  0  0
   37.6630   29.6760   42.3230 C   0  0  0  0  0  0  0  0  0  0  0  0
   36.5180   29.9310   41.6400 C   0  0  0  0  0  0  0  0  0  0  0  0
   36.5840   30.8610   40.6310 N   0  0  0  0  0  0  0  0  0  0  0  0
   37.7370   31.5100   40.3140 C   0  0  0  0  0  0  0  0  0  0  0  0
   38.9180   31.2790   40.9820 N   0  0  0  0  0  0  0  0  0  0  0  0
   39.7640   30.1360   42.5460 H   0  0  0  0  0  0  0  0  0  0  0  0
   35.6120   29.4210   41.8890 H   0  0  0  0  0  0  0  0  0  0  0  0
   37.6470   32.4930   39.1910 C   0  0  0  0  0  0  0  0  0  0  0  0
   38.9300   32.9380   38.8690 F   0  0  0  0  0  0  0  0  0  0  0  0
   37.0960   31.8780   38.0880 F   0  0  0  0  0  0  0  0  0  0  0  0
   36.9070   33.5990   39.5440 F   0  0  0  0  0  0  0  0  0  0  0  0
  1 25  1  0  0  0  0
  2  1  1  0  0  0  0
  3  1  1  0  0  0  0
  4  1  1  0  0  0  0
  5  4  1  0  0  0  0
  5 10  1  0  0  0  0
  5 11  1  0  0  0  0
  6  5  1  0  0  0  0
  7  8  1  0  0  0  0
  7  6  1  0  0  0  0
  7 14  1  0  0  0  0
  8  9  1  0  0  0  0
  9 19  1  0  0  0  0
  9  4  1  0  0  0  0
  9 18  1  1  0  0  0
 12  6  1  0  0  0  0
 13  6  1  0  0  0  0
 15  7  1  0  0  0  0
 16  8  1  0  0  0  0
 17  8  1  0  0  0  0
 19 21  1  0  0  0  0
 20 19  1  0  0  0  0
 22 19  1  0  0  0  0
 23 24  1  0  0  0  0
 23 26  1  1  0  0  0
 24 28  1  0  0  0  0
 25 23  1  0  0  0  0
 25 29  1  1  0  0  0
 25 24  1  0  0  0  0
 27 24  1  0  0  0  0
 30 31  1  0  0  0  0
 30 36  1  0  0  0  0
 31 23  1  0  0  0  0
 32 37  1  0  0  0  0
 32 31  2  0  0  0  0
 33 32  1  0  0  0  0
 34 33  2  0  0  0  0
 34 35  1  0  0  0  0
 35 30  2  0  0  0  0
 38 41  1  0  0  0  0
 38 34  1  0  0  0  0
 39 38  1  0  0  0  0
 40 38  1  0  0  0  0
M  END
>  <minimizedAffinity>
-5.26167297

$$$$

 OpenBabel03252500373D

 41 43  0  0  1  0  0  0  0  0999 V2000
   39.3200   31.2370   38.7670 C   0  0  0  0  0  0  0  0  0  0  0  0
   39.2460   30.9650   39.8430 H   0  0  0  0  0  0  0  0  0  0  0  0
   39.5050   30.3180   38.1750 H   0  0  0  0  0  0  0  0  0  0  0  0
   40.3330   32.2090   38.5710 N   0  0  0  0  0  0  0  0  0  0  0  0
   40.9340   32.2940   37.3090 C   0  0  0  0  0  0  0  0  0  0  0  0
   42.1760   31.3900   37.2090 C   0  0  0  0  0  0  0  0  0  0  0  0
   43.2080   32.0040   38.1340 C   0  0  0  0  0  0  0  0  0  0  0  0
   42.6120   31.9430   39.5170 C   0  0  0  0  0  0  0  0  0  0  0  0
   41.2190   32.4970   39.6200 C   0  0  2  0  0  0  0  0  0  0  0  0
   41.3850   33.3330   37.2590 H   0  0  0  0  0  0  0  0  0  0  0  0
   40.3090   32.2650   36.4160 H   0  0  0  0  0  0  0  0  0  0  0  0
   41.8880   30.4190   37.7040 H   0  0  0  0  0  0  0  0  0  0  0  0
   42.5220   31.2700   36.1810 H   0  0  0  0  0  0  0  0  0  0  0  0
   43.3390   33.0900   37.8700 H   0  0  0  0  0  0  0  0  0  0  0  0
   44.1620   31.4740   38.1650 H   0  0  0  0  0  0  0  0  0  0  0  0
   43.2250   32.4680   40.2820 H   0  0  0  0  0  0  0  0  0  0  0  0
   42.5670   30.8670   39.7860 H   0  0  0  0  0  0  0  0  0  0  0  0
   41.3190   33.6120   39.7040 H   0  0  0  0  0  0  0  0  0  0  0  0
   40.6720   32.0510   40.9680 C   0  0  0  0  0  0  0  0  0  0  0  0
   40.6600   30.9500   40.9770 H   0  0  0  0  0  0  0  0  0  0  0  0
   39.6350   32.4520   41.0740 H   0  0  0  0  0  0  0  0  0  0  0  0
   41.3260   32.4540   41.7480 H   0  0  0  0  0  0  0  0  0  0  0  0
   36.7360   31.5270   39.1110 C   0  0  1  0  0  0  0  0  0  0  0  0
   37.3230   32.7920   39.1790 C   0  0  0  0  0  0  0  0  0  0  0  0
   38.0390   31.8350   38.3170 C   0  0  1  0  0  0  0  0  0  0  0  0
   35.8270   31.3520   38.4680 H   0  0  0  0  0  0  0  0  0  0  0  0
   37.8860   33.1010   40.1070 H   0  0  0  0  0  0  0  0  0  0  0  0
   36.8260   33.6790   38.7270 H   0  0  0  0  0  0  0  0  0  0  0  0
   37.8570   31.7310   37.2390 H   0  0  0  0  0  0  0  0  0  0  0  0
   36.4800   29.1150   39.7000 C   0  0  0  0  0  0  0  0  0  0  0  0
   36.8260   30.4380   40.1290 C   0  0  0  0  0  0  0  0  0  0  0  0
   37.2130   30.6550   41.4120 C   0  0  0  0  0  0  0  0  0  0  0  0
   37.2510   29.5660   42.2480 N   0  0  0  0  0  0  0  0  0  0  0  0
   36.9180   28.3150   41.8290 C   0  0  0  0  0  0  0  0  0  0  0  0
   36.5220   28.0530   40.5370 N   0  0  0  0  0  0  0  0  0  0  0  0
   36.1760   28.9820   38.6700 H   0  0  0  0  0  0  0  0  0  0  0  0
   37.4740   31.6370   41.7420 H   0  0  0  0  0  0  0  0  0  0  0  0
   37.0100   27.2330   42.8580 C   0  0  0  0  0  0  0  0  0  0  0  0
   35.8840   27.2860   43.6790 F   0  0  0  0  0  0  0  0  0  0  0  0
   37.0490   26.0070   42.2290 F   0  0  0  0  0  0  0  0  0  0  0  0
   38.1140   27.3940   43.6640 F   0  0  0  0  0  0  0  0  0  0  0  0
  1  2  1  0  0  0  0
  3  1  1  0  0  0  0
  4  1  1  0  0  0  0
  4  9  1  0  0  0  0
  5  4  1  0  0  0  0
  6  5  1  0  0  0  0
  6 12  1  0  0  0  0
  6  7  1  0  0  0  0
  7 15  1  0  0  0  0
  7  8  1  0  0  0  0
  8  9  1  0  0  0  0
  8 17  1  0  0  0  0
  8 16  1  0  0  0  0
  9 18  1  1  0  0  0
  9 19  1  0  0  0  0
 10  5  1  0  0  0  0
 11  5  1  0  0  0  0
 13  6  1  0  0  0  0
 14  7  1  0  0  0  0
 19 20  1  0  0  0  0
 19 21  1  0  0  0  0
 19 22  1  0  0  0  0
 23 26  1  6  0  0  0
 23 24  1  0  0  0  0
 23 31  1  0  0  0  0
 24 27  1  0  0  0  0
 25 29  1  6  0  0  0
 25  1  1  0  0  0  0
 25 23  1  0  0  0  0
 25 24  1  0  0  0  0
 28 24  1  0  0  0  0
 30 31  2  0  0  0  0
 30 35  1  0  0  0  0
 31 32  1  0  0  0  0
 32 37  1  0  0  0  0
 32 33  2  0  0  0  0
 34 33  1  0  0  0  0
 34 38  1  0  0  0  0
 35 34  2  0  0  0  0
 36 30  1  0  0  0  0
 38 41  1  0  0  0  0
 38 39  1  0  0  0  0
 40 38  1  0  0  0  0
M  END
>  <minimizedAffinity>
-5.21110106

$$$$

 OpenBabel03252500373D

 41 43  0  0  1  0  0  0  0  0999 V2000
   40.4270   30.8660   40.2030 C   0  0  0  0  0  0  0  0  0  0  0  0
   41.4650   30.6970   39.8430 H   0  0  0  0  0  0  0  0  0  0  0  0
   39.9470   29.8860   40.3960 H   0  0  0  0  0  0  0  0  0  0  0  0
   39.6980   31.6400   39.2660 N   0  0  0  0  0  0  0  0  0  0  0  0
   39.6710   33.0300   39.4330 C   0  0  0  0  0  0  0  0  0  0  0  0
   38.4800   33.4760   40.3020 C   0  0  0  0  0  0  0  0  0  0  0  0
   37.2410   33.1940   39.4760 C   0  0  0  0  0  0  0  0  0  0  0  0
   37.2180   31.7030   39.2580 C   0  0  0  0  0  0  0  0  0  0  0  0
   38.5050   31.1300   38.7360 C   0  0  2  0  0  0  0  0  0  0  0  0
   39.4010   33.4510   38.4160 H   0  0  0  0  0  0  0  0  0  0  0  0
   40.5950   33.5590   39.6700 H   0  0  0  0  0  0  0  0  0  0  0  0
   38.4300   32.7380   41.1530 H   0  0  0  0  0  0  0  0  0  0  0  0
   38.5660   34.5130   40.6280 H   0  0  0  0  0  0  0  0  0  0  0  0
   37.3530   33.6810   38.4670 H   0  0  0  0  0  0  0  0  0  0  0  0
   36.3010   33.4690   39.9590 H   0  0  0  0  0  0  0  0  0  0  0  0
   36.4120   31.3740   38.5650 H   0  0  0  0  0  0  0  0  0  0  0  0
   37.0260   31.2490   40.2540 H   0  0  0  0  0  0  0  0  0  0  0  0
   38.5070   31.2990   37.6260 H   0  0  0  0  0  0  0  0  0  0  0  0
   38.4060   29.6200   38.9010 C   0  0  0  0  0  0  0  0  0  0  0  0
   38.2870   29.4080   39.9750 H   0  0  0  0  0  0  0  0  0  0  0  0
   39.3500   29.1650   38.5170 H   0  0  0  0  0  0  0  0  0  0  0  0
   37.5440   29.2720   38.3230 H   0  0  0  0  0  0  0  0  0  0  0  0
   40.0140   30.9310   42.7930 C   0  0  1  0  0  0  0  0  0  0  0  0
   41.3620   31.2150   42.5660 C   0  0  0  0  0  0  0  0  0  0  0  0
   40.4620   31.6290   41.4760 C   0  0  1  0  0  0  0  0  0  0  0  0
   39.4020   31.5790   43.4810 H   0  0  0  0  0  0  0  0  0  0  0  0
   42.0750   30.3830   42.2960 H   0  0  0  0  0  0  0  0  0  0  0  0
   41.8940   31.9860   43.1670 H   0  0  0  0  0  0  0  0  0  0  0  0
   40.0080   32.6270   41.4060 H   0  0  0  0  0  0  0  0  0  0  0  0
   37.9080   29.6190   42.5200 C   0  0  0  0  0  0  0  0  0  0  0  0
   39.3360   29.6090   42.6410 C   0  0  0  0  0  0  0  0  0  0  0  0
   40.0100   28.4300   42.6170 C   0  0  0  0  0  0  0  0  0  0  0  0
   39.2650   27.2850   42.4740 N   0  0  0  0  0  0  0  0  0  0  0  0
   37.9100   27.3090   42.3610 C   0  0  0  0  0  0  0  0  0  0  0  0
   37.1900   28.4820   42.3810 N   0  0  0  0  0  0  0  0  0  0  0  0
   37.4070   30.5780   42.5440 H   0  0  0  0  0  0  0  0  0  0  0  0
   41.0750   28.4120   42.7060 H   0  0  0  0  0  0  0  0  0  0  0  0
   37.2410   25.9790   42.2120 C   0  0  0  0  0  0  0  0  0  0  0  0
   36.7370   25.8630   40.9170 F   0  0  0  0  0  0  0  0  0  0  0  0
   38.1650   24.9770   42.4260 F   0  0  0  0  0  0  0  0  0  0  0  0
   36.1810   25.8460   43.0790 F   0  0  0  0  0  0  0  0  0  0  0  0
  1  3  1  0  0  0  0
  1 25  1  0  0  0  0
  2  1  1  0  0  0  0
  4  5  1  0  0  0  0
  4  1  1  0  0  0  0
  5 11  1  0  0  0  0
  5  6  1  0  0  0  0
  6 13  1  0  0  0  0
  6 12  1  0  0  0  0
  7 15  1  0  0  0  0
  7  6  1  0  0  0  0
  8  7  1  0  0  0  0
  8 17  1  0  0  0  0
  9 18  1  6  0  0  0
  9 19  1  0  0  0  0
  9  8  1  0  0  0  0
  9  4  1  0  0  0  0
 10  5  1  0  0  0  0
 14  7  1  0  0  0  0
 16  8  1  0  0  0  0
 19 20  1  0  0  0  0
 21 19  1  0  0  0  0
 22 19  1  0  0  0  0
 23 26  1  1  0  0  0
 24 23  1  0  0  0  0
 24 28  1  0  0  0  0
 25 29  1  6  0  0  0
 25 24  1  0  0  0  0
 25 23  1  0  0  0  0
 27 24  1  0  0  0  0
 30 36  1  0  0  0  0
 30 31  1  0  0  0  0
 31 23  1  0  0  0  0
 32 31  2  0  0  0  0
 32 37  1  0  0  0  0
 33 32  1  0  0  0  0
 34 35  1  0  0  0  0
 34 33  2  0  0  0  0
 35 30  2  0  0  0  0
 38 34  1  0  0  0  0
 38 40  1  0  0  0  0
 38 41  1  0  0  0  0
 39 38  1  0  0  0  0
M  END
>  <minimizedAffinity>
-5.19787073

$$$$

 OpenBabel03252500373D

 41 43  0  0  1  0  0  0  0  0999 V2000
   37.6630   27.0280   39.0070 C   0  0  0  0  0  0  0  0  0  0  0  0
   38.0950   26.9050   37.9900 H   0  0  0  0  0  0  0  0  0  0  0  0
   37.8810   28.0530   39.3700 H   0  0  0  0  0  0  0  0  0  0  0  0
   38.1680   26.0340   39.8830 N   0  0  0  0  0  0  0  0  0  0  0  0
   37.6860   24.7270   39.7490 C   0  0  0  0  0  0  0  0  0  0  0  0
   36.4520   24.4810   40.6370 C   0  0  0  0  0  0  0  0  0  0  0  0
   36.9580   24.5270   42.0650 C   0  0  0  0  0  0  0  0  0  0  0  0
   37.4980   25.9200   42.2690 C   0  0  0  0  0  0  0  0  0  0  0  0
   38.4620   26.3760   41.2100 C   0  0  2  0  0  0  0  0  0  0  0  0
   38.4690   24.0650   40.2320 H   0  0  0  0  0  0  0  0  0  0  0  0
   37.5900   24.2910   38.7530 H   0  0  0  0  0  0  0  0  0  0  0  0
   35.8110   25.4030   40.5310 H   0  0  0  0  0  0  0  0  0  0  0  0
   35.9330   23.5560   40.3830 H   0  0  0  0  0  0  0  0  0  0  0  0
   37.8220   23.8120   42.1720 H   0  0  0  0  0  0  0  0  0  0  0  0
   36.1920   24.3590   42.8240 H   0  0  0  0  0  0  0  0  0  0  0  0
   38.0070   26.0540   43.2490 H   0  0  0  0  0  0  0  0  0  0  0  0
   36.6190   26.5980   42.2390 H   0  0  0  0  0  0  0  0  0  0  0  0
   39.4630   25.9410   41.4760 H   0  0  0  0  0  0  0  0  0  0  0  0
   38.6270   27.8780   41.3900 C   0  0  0  0  0  0  0  0  0  0  0  0
   37.6390   28.3420   41.2500 H   0  0  0  0  0  0  0  0  0  0  0  0
   39.3440   28.2450   40.6170 H   0  0  0  0  0  0  0  0  0  0  0  0
   39.0180   28.0560   42.3980 H   0  0  0  0  0  0  0  0  0  0  0  0
   35.2830   28.1150   38.8180 C   0  0  1  0  0  0  0  0  0  0  0  0
   35.4470   27.2490   37.7360 C   0  0  0  0  0  0  0  0  0  0  0  0
   36.1900   26.8570   38.9460 C   0  0  1  0  0  0  0  0  0  0  0  0
   34.3450   28.0820   39.4410 H   0  0  0  0  0  0  0  0  0  0  0  0
   36.0950   27.5540   36.8640 H   0  0  0  0  0  0  0  0  0  0  0  0
   34.6040   26.6170   37.3750 H   0  0  0  0  0  0  0  0  0  0  0  0
   35.7910   26.1820   39.7150 H   0  0  0  0  0  0  0  0  0  0  0  0
   35.9160   29.9870   40.3450 C   0  0  0  0  0  0  0  0  0  0  0  0
   35.9540   29.4350   39.0220 C   0  0  0  0  0  0  0  0  0  0  0  0
   36.5780   30.1100   38.0230 C   0  0  0  0  0  0  0  0  0  0  0  0
   37.1530   31.3150   38.3460 N   0  0  0  0  0  0  0  0  0  0  0  0
   37.1090   31.8280   39.6050 C   0  0  0  0  0  0  0  0  0  0  0  0
   36.4860   31.1750   40.6440 N   0  0  0  0  0  0  0  0  0  0  0  0
   35.4080   29.4190   41.1140 H   0  0  0  0  0  0  0  0  0  0  0  0
   36.6120   29.7070   37.0350 H   0  0  0  0  0  0  0  0  0  0  0  0
   37.7810   33.1510   39.7970 C   0  0  0  0  0  0  0  0  0  0  0  0
   38.9200   33.2060   38.9940 F   0  0  0  0  0  0  0  0  0  0  0  0
   36.9190   34.1600   39.4230 F   0  0  0  0  0  0  0  0  0  0  0  0
   38.1880   33.3270   41.1000 F   0  0  0  0  0  0  0  0  0  0  0  0
  1  3  1  0  0  0  0
  1  4  1  0  0  0  0
  2  1  1  0  0  0  0
  4  9  1  0  0  0  0
  5  4  1  0  0  0  0
  5 10  1  0  0  0  0
  5  6  1  0  0  0  0
  6  7  1  0  0  0  0
  7 14  1  0  0  0  0
  7  8  1  0  0  0  0
  7 15  1  0  0  0  0
  8 16  1  0  0  0  0
  9 19  1  0  0  0  0
  9 18  1  1  0  0  0
  9  8  1  0  0  0  0
 11  5  1  0  0  0  0
 12  6  1  0  0  0  0
 13  6  1  0  0  0  0
 17  8  1  0  0  0  0
 19 22  1  0  0  0  0
 20 19  1  0  0  0  0
 21 19  1  0  0  0  0
 23 25  1  0  0  0  0
 23 31  1  0  0  0  0
 23 26  1  1  0  0  0
 24 23  1  0  0  0  0
 24 25  1  0  0  0  0
 25  1  1  0  0  0  0
 25 29  1  1  0  0  0
 27 24  1  0  0  0  0
 28 24  1  0  0  0  0
 30 35  1  0  0  0  0
 30 36  1  0  0  0  0
 31 30  2  0  0  0  0
 32 33  2  0  0  0  0
 32 31  1  0  0  0  0
 33 34  1  0  0  0  0
 34 38  1  0  0  0  0
 34 35  2  0  0  0  0
 37 32  1  0  0  0  0
 38 41  1  0  0  0  0
 39 38  1  0  0  0  0
 40 38  1  0  0  0  0
M  END
>  <minimizedAffinity>
-5.14017248

$$$$

 OpenBabel03252500373D

 41 43  0  0  1  0  0  0  0  0999 V2000
   37.7020   26.9970   39.9080 C   0  0  0  0  0  0  0  0  0  0  0  0
   38.3720   26.5310   39.1520 H   0  0  0  0  0  0  0  0  0  0  0  0
   37.9320   28.0790   39.9750 H   0  0  0  0  0  0  0  0  0  0  0  0
   37.8390   26.3450   41.1590 N   0  0  0  0  0  0  0  0  0  0  0  0
   37.1170   26.8460   42.2500 C   0  0  0  0  0  0  0  0  0  0  0  0
   37.9250   27.9000   43.0300 C   0  0  0  0  0  0  0  0  0  0  0  0
   39.0670   27.1450   43.6780 C   0  0  0  0  0  0  0  0  0  0  0  0
   39.8830   26.5740   42.5460 C   0  0  0  0  0  0  0  0  0  0  0  0
   39.0850   25.8160   41.5240 C   0  0  2  0  0  0  0  0  0  0  0  0
   37.0550   25.9900   42.9900 H   0  0  0  0  0  0  0  0  0  0  0  0
   36.0700   27.1200   42.1180 H   0  0  0  0  0  0  0  0  0  0  0  0
   38.4160   28.5480   42.2480 H   0  0  0  0  0  0  0  0  0  0  0  0
   37.3090   28.4590   43.7350 H   0  0  0  0  0  0  0  0  0  0  0  0
   38.6510   26.2780   44.2630 H   0  0  0  0  0  0  0  0  0  0  0  0
   39.7350   27.7630   44.2830 H   0  0  0  0  0  0  0  0  0  0  0  0
   40.6960   25.8970   42.8890 H   0  0  0  0  0  0  0  0  0  0  0  0
   40.3480   27.4430   42.0330 H   0  0  0  0  0  0  0  0  0  0  0  0
   38.9260   24.7840   41.9380 H   0  0  0  0  0  0  0  0  0  0  0  0
   39.9950   25.6180   40.3210 C   0  0  0  0  0  0  0  0  0  0  0  0
   40.2730   26.6140   39.9440 H   0  0  0  0  0  0  0  0  0  0  0  0
   39.4280   25.0510   39.5440 H   0  0  0  0  0  0  0  0  0  0  0  0
   40.8730   25.0520   40.6510 H   0  0  0  0  0  0  0  0  0  0  0  0
   35.4880   28.1040   39.0410 C   0  0  1  0  0  0  0  0  0  0  0  0
   35.8940   27.1580   38.0970 C   0  0  0  0  0  0  0  0  0  0  0  0
   36.2890   26.8440   39.4800 C   0  0  1  0  0  0  0  0  0  0  0  0
   34.4210   28.1290   39.4020 H   0  0  0  0  0  0  0  0  0  0  0  0
   36.7530   27.3890   37.4030 H   0  0  0  0  0  0  0  0  0  0  0  0
   35.1500   26.5150   37.5740 H   0  0  0  0  0  0  0  0  0  0  0  0
   35.6840   26.2330   40.1640 H   0  0  0  0  0  0  0  0  0  0  0  0
   36.8930   30.0160   38.2670 C   0  0  0  0  0  0  0  0  0  0  0  0
   36.1270   29.4240   39.3230 C   0  0  0  0  0  0  0  0  0  0  0  0
   36.0110   30.0620   40.5160 C   0  0  0  0  0  0  0  0  0  0  0  0
   36.6520   31.2700   40.6460 N   0  0  0  0  0  0  0  0  0  0  0  0
   37.3760   31.8210   39.6350 C   0  0  0  0  0  0  0  0  0  0  0  0
   37.5180   31.2060   38.4110 N   0  0  0  0  0  0  0  0  0  0  0  0
   36.9620   29.4770   37.3300 H   0  0  0  0  0  0  0  0  0  0  0  0
   35.4420   29.6290   41.3100 H   0  0  0  0  0  0  0  0  0  0  0  0
   38.0140   33.1410   39.9300 C   0  0  0  0  0  0  0  0  0  0  0  0
   37.1050   34.1610   39.6510 F   0  0  0  0  0  0  0  0  0  0  0  0
   38.3530   33.1960   41.2660 F   0  0  0  0  0  0  0  0  0  0  0  0
   39.1240   33.3540   39.1450 F   0  0  0  0  0  0  0  0  0  0  0  0
  1  3  1  0  0  0  0
  1  4  1  0  0  0  0
  2  1  1  0  0  0  0
  4  9  1  0  0  0  0
  4  5  1  0  0  0  0
  5 10  1  0  0  0  0
  5  6  1  0  0  0  0
  6  7  1  0  0  0  0
  6 13  1  0  0  0  0
  7 14  1  0  0  0  0
  7 15  1  0  0  0  0
  8 16  1  0  0  0  0
  8  7  1  0  0  0  0
  9 18  1  1  0  0  0
  9  8  1  0  0  0  0
 11  5  1  0  0  0  0
 12  6  1  0  0  0  0
 17  8  1  0  0  0  0
 19 22  1  0  0  0  0
 19  9  1  0  0  0  0
 20 19  1  0  0  0  0
 21 19  1  0  0  0  0
 23 31  1  0  0  0  0
 23 26  1  1  0  0  0
 23 25  1  0  0  0  0
 24 23  1  0  0  0  0
 24 25  1  0  0  0  0
 25  1  1  0  0  0  0
 25 29  1  1  0  0  0
 27 24  1  0  0  0  0
 28 24  1  0  0  0  0
 30 35  2  0  0  0  0
 30 31  1  0  0  0  0
 31 32  2  0  0  0  0
 32 33  1  0  0  0  0
 32 37  1  0  0  0  0
 34 38  1  0  0  0  0
 34 33  2  0  0  0  0
 35 34  1  0  0  0  0
 36 30  1  0  0  0  0
 38 40  1  0  0  0  0
 39 38  1  0  0  0  0
 41 38  1  0  0  0  0
M  END
>  <minimizedAffinity>
-5.02106667

$$$$
