
 OpenBabel03242510163D

 13 13  0  0  0  0  0  0  0  0999 V2000
   35.7220   28.6380   41.0750 C   0  0  0  0  0  0  0  0  0  0  0  0
   36.7860   28.5700   41.9860 C   0  0  0  0  0  0  0  0  0  0  0  0
   37.6260   29.6770   42.0740 C   0  0  0  0  0  0  0  0  0  0  0  0
   37.3890   30.7600   41.2900 N   0  0  0  0  0  0  0  0  0  0  0  0
   36.3450   30.7820   40.4210 C   0  0  0  0  0  0  0  0  0  0  0  0
   35.5140   29.7310   40.3090 N   0  0  0  0  0  0  0  0  0  0  0  0
   35.0460   27.7890   40.9800 H   0  0  0  0  0  0  0  0  0  0  0  0
   38.4050   29.5490   42.7850 H   0  0  0  0  0  0  0  0  0  0  0  0
   36.2270   31.6940   39.8280 H   0  0  0  0  0  0  0  0  0  0  0  0
   36.9150   27.3190   42.7730 C   0  0  0  0  0  0  0  0  0  0  0  0
   35.8700   27.3160   43.6790 F   0  0  0  0  0  0  0  0  0  0  0  0
   38.1200   27.3250   43.4220 F   0  0  0  0  0  0  0  0  0  0  0  0
   36.8330   26.2480   41.8780 F   0  0  0  0  0  0  0  0  0  0  0  0
  1  2  1  0  0  0  0
  2  3  2  0  0  0  0
  2 10  1  0  0  0  0
  3  8  1  0  0  0  0
  4  3  1  0  0  0  0
  5  4  2  0  0  0  0
  6  5  1  0  0  0  0
  6  1  2  0  0  0  0
  7  1  1  0  0  0  0
  9  5  1  0  0  0  0
 10 12  1  0  0  0  0
 10 11  1  0  0  0  0
 13 10  1  0  0  0  0
M  END
>  <minimizedAffinity>
-3.64584899

$$$$

 OpenBabel03242510163D

 13 13  0  0  0  0  0  0  0  0999 V2000
   39.0950   26.8460   43.6060 C   0  0  0  0  0  0  0  0  0  0  0  0
   37.9160   26.6140   42.8820 C   0  0  0  0  0  0  0  0  0  0  0  0
   37.7910   25.3860   42.2370 C   0  0  0  0  0  0  0  0  0  0  0  0
   38.7940   24.4760   42.3310 N   0  0  0  0  0  0  0  0  0  0  0  0
   39.9190   24.7430   43.0450 C   0  0  0  0  0  0  0  0  0  0  0  0
   40.0740   25.9180   43.6800 N   0  0  0  0  0  0  0  0  0  0  0  0
   39.2260   27.7960   44.1220 H   0  0  0  0  0  0  0  0  0  0  0  0
   36.8720   25.2870   41.7120 H   0  0  0  0  0  0  0  0  0  0  0  0
   40.6770   23.9540   43.0690 H   0  0  0  0  0  0  0  0  0  0  0  0
   36.9100   27.7060   42.8720 C   0  0  0  0  0  0  0  0  0  0  0  0
   37.5480   28.8310   43.3620 F   0  0  0  0  0  0  0  0  0  0  0  0
   35.8630   27.3510   43.6790 F   0  0  0  0  0  0  0  0  0  0  0  0
   36.4900   27.8770   41.5500 F   0  0  0  0  0  0  0  0  0  0  0  0
  1  6  1  0  0  0  0
  1  7  1  0  0  0  0
  2  1  2  0  0  0  0
  3  4  2  0  0  0  0
  3  2  1  0  0  0  0
  4  5  1  0  0  0  0
  5  9  1  0  0  0  0
  5  6  2  0  0  0  0
  8  3  1  0  0  0  0
 10  2  1  0  0  0  0
 10 11  1  0  0  0  0
 10 12  1  0  0  0  0
 13 10  1  0  0  0  0
M  END
>  <minimizedAffinity>
-3.59017324

$$$$

 OpenBabel03242510163D

 13 13  0  0  0  0  0  0  0  0999 V2000
   37.5120   25.4270   42.1910 C   0  0  0  0  0  0  0  0  0  0  0  0
   37.8470   26.6130   42.8580 C   0  0  0  0  0  0  0  0  0  0  0  0
   39.0830   26.6620   43.4970 C   0  0  0  0  0  0  0  0  0  0  0  0
   39.9020   25.5810   43.4520 N   0  0  0  0  0  0  0  0  0  0  0  0
   39.5360   24.4500   42.7920 C   0  0  0  0  0  0  0  0  0  0  0  0
   38.3500   24.3680   42.1640 N   0  0  0  0  0  0  0  0  0  0  0  0
   36.5520   25.3540   41.6800 H   0  0  0  0  0  0  0  0  0  0  0  0
   39.2630   27.5930   43.9790 H   0  0  0  0  0  0  0  0  0  0  0  0
   40.2560   23.6260   42.8050 H   0  0  0  0  0  0  0  0  0  0  0  0
   36.8470   27.7090   42.8190 C   0  0  0  0  0  0  0  0  0  0  0  0
   37.5070   28.8570   43.2210 F   0  0  0  0  0  0  0  0  0  0  0  0
   35.8260   27.4090   43.6800 F   0  0  0  0  0  0  0  0  0  0  0  0
   36.3820   27.8080   41.5040 F   0  0  0  0  0  0  0  0  0  0  0  0
  1  2  1  0  0  0  0
  2  3  2  0  0  0  0
  3  8  1  0  0  0  0
  4  3  1  0  0  0  0
  5  9  1  0  0  0  0
  5  4  2  0  0  0  0
  6  1  2  0  0  0  0
  6  5  1  0  0  0  0
  7  1  1  0  0  0  0
 10  2  1  0  0  0  0
 10 11  1  0  0  0  0
 10 12  1  0  0  0  0
 13 10  1  0  0  0  0
M  END
>  <minimizedAffinity>
-3.55125976

$$$$

 OpenBabel03242510163D

 13 13  0  0  0  0  0  0  0  0999 V2000
   37.8680   29.5800   42.0900 C   0  0  0  0  0  0  0  0  0  0  0  0
   36.8510   28.6210   41.9950 C   0  0  0  0  0  0  0  0  0  0  0  0
   35.8160   28.8710   41.0970 C   0  0  0  0  0  0  0  0  0  0  0  0
   35.8300   30.0110   40.3610 N   0  0  0  0  0  0  0  0  0  0  0  0
   36.8370   30.9140   40.4860 C   0  0  0  0  0  0  0  0  0  0  0  0
   37.8520   30.7060   41.3430 N   0  0  0  0  0  0  0  0  0  0  0  0
   38.6930   29.4170   42.7830 H   0  0  0  0  0  0  0  0  0  0  0  0
   35.0860   28.0980   41.0820 H   0  0  0  0  0  0  0  0  0  0  0  0
   36.7710   31.8060   39.8550 H   0  0  0  0  0  0  0  0  0  0  0  0
   36.9740   27.4240   42.8640 C   0  0  0  0  0  0  0  0  0  0  0  0
   38.1330   27.5930   43.6010 F   0  0  0  0  0  0  0  0  0  0  0  0
   37.0580   26.3090   42.0750 F   0  0  0  0  0  0  0  0  0  0  0  0
   35.8400   27.3780   43.6800 F   0  0  0  0  0  0  0  0  0  0  0  0
  1  7  1  0  0  0  0
  2  1  1  0  0  0  0
  2 10  1  0  0  0  0
  3  2  2  0  0  0  0
  4  5  2  0  0  0  0
  4  3  1  0  0  0  0
  5  6  1  0  0  0  0
  6  1  2  0  0  0  0
  8  3  1  0  0  0  0
  9  5  1  0  0  0  0
 10 11  1  0  0  0  0
 10 13  1  0  0  0  0
 12 10  1  0  0  0  0
M  END
>  <minimizedAffinity>
-3.54249692

$$$$

 OpenBabel03242510163D

 13 13  0  0  0  0  0  0  0  0999 V2000
   36.4310   30.2700   38.5970 C   0  0  0  0  0  0  0  0  0  0  0  0
   36.0630   30.0800   39.9360 C   0  0  0  0  0  0  0  0  0  0  0  0
   36.4390   31.0620   40.8490 C   0  0  0  0  0  0  0  0  0  0  0  0
   37.1340   32.1450   40.4180 N   0  0  0  0  0  0  0  0  0  0  0  0
   37.4690   32.2880   39.1090 C   0  0  0  0  0  0  0  0  0  0  0  0
   37.1230   31.3600   38.2000 N   0  0  0  0  0  0  0  0  0  0  0  0
   36.1530   29.5210   37.8560 H   0  0  0  0  0  0  0  0  0  0  0  0
   36.1230   30.8470   41.8410 H   0  0  0  0  0  0  0  0  0  0  0  0
   38.0290   33.1910   38.8470 H   0  0  0  0  0  0  0  0  0  0  0  0
   35.3040   28.8450   40.2540 C   0  0  0  0  0  0  0  0  0  0  0  0
   33.9640   29.1610   40.1140 F   0  0  0  0  0  0  0  0  0  0  0  0
   35.5830   28.4720   41.5410 F   0  0  0  0  0  0  0  0  0  0  0  0
   35.7060   27.8590   39.3480 F   0  0  0  0  0  0  0  0  0  0  0  0
  1  2  1  0  0  0  0
  2 10  1  0  0  0  0
  2  3  2  0  0  0  0
  3  8  1  0  0  0  0
  4  3  1  0  0  0  0
  5  4  2  0  0  0  0
  6  1  2  0  0  0  0
  6  5  1  0  0  0  0
  7  1  1  0  0  0  0
  9  5  1  0  0  0  0
 10 12  1  0  0  0  0
 11 10  1  0  0  0  0
 13 10  1  0  0  0  0
M  END
>  <minimizedAffinity>
-3.36029816

$$$$

 OpenBabel03242510163D

 13 13  0  0  0  0  0  0  0  0999 V2000
   36.5680   27.8150   42.0160 C   0  0  0  0  0  0  0  0  0  0  0  0
   36.9590   29.1360   41.7560 C   0  0  0  0  0  0  0  0  0  0  0  0
   38.1180   29.5950   42.3770 C   0  0  0  0  0  0  0  0  0  0  0  0
   38.8120   28.7640   43.1940 N   0  0  0  0  0  0  0  0  0  0  0  0
   38.3970   27.4900   43.4180 C   0  0  0  0  0  0  0  0  0  0  0  0
   37.2820   27.0130   42.8350 N   0  0  0  0  0  0  0  0  0  0  0  0
   35.6660   27.4230   41.5470 H   0  0  0  0  0  0  0  0  0  0  0  0
   38.3470   30.6040   42.1300 H   0  0  0  0  0  0  0  0  0  0  0  0
   39.0160   26.8880   44.0900 H   0  0  0  0  0  0  0  0  0  0  0  0
   36.0960   29.9220   40.8390 C   0  0  0  0  0  0  0  0  0  0  0  0
   36.7690   29.9960   39.6330 F   0  0  0  0  0  0  0  0  0  0  0  0
   35.9090   31.1710   41.3680 F   0  0  0  0  0  0  0  0  0  0  0  0
   34.8810   29.2420   40.7180 F   0  0  0  0  0  0  0  0  0  0  0  0
  1  6  1  0  0  0  0
  2  1  2  0  0  0  0
  2  3  1  0  0  0  0
  3  4  2  0  0  0  0
  4  5  1  0  0  0  0
  5  9  1  0  0  0  0
  6  5  2  0  0  0  0
  7  1  1  0  0  0  0
  8  3  1  0  0  0  0
 10 12  1  0  0  0  0
 10  2  1  0  0  0  0
 11 10  1  0  0  0  0
 13 10  1  0  0  0  0
M  END
>  <minimizedAffinity>
-3.35414553

$$$$

 OpenBabel03242510163D

 13 13  0  0  0  0  0  0  0  0999 V2000
   37.9920   29.7090   42.2150 C   0  0  0  0  0  0  0  0  0  0  0  0
   36.8550   29.0950   41.6690 C   0  0  0  0  0  0  0  0  0  0  0  0
   36.6100   27.7710   42.0240 C   0  0  0  0  0  0  0  0  0  0  0  0
   37.4610   27.1360   42.8680 N   0  0  0  0  0  0  0  0  0  0  0  0
   38.5510   27.7710   43.3740 C   0  0  0  0  0  0  0  0  0  0  0  0
   38.8200   29.0490   43.0530 N   0  0  0  0  0  0  0  0  0  0  0  0
   38.2150   30.7440   41.9580 H   0  0  0  0  0  0  0  0  0  0  0  0
   35.7320   27.3780   41.5710 H   0  0  0  0  0  0  0  0  0  0  0  0
   39.1850   27.1860   44.0480 H   0  0  0  0  0  0  0  0  0  0  0  0
   36.0190   29.9190   40.7610 C   0  0  0  0  0  0  0  0  0  0  0  0
   34.8000   29.2740   40.6570 F   0  0  0  0  0  0  0  0  0  0  0  0
   36.6340   29.9960   39.5400 F   0  0  0  0  0  0  0  0  0  0  0  0
   35.8930   31.1860   41.3390 F   0  0  0  0  0  0  0  0  0  0  0  0
  1  6  1  0  0  0  0
  2  3  1  0  0  0  0
  2  1  2  0  0  0  0
  3  4  2  0  0  0  0
  4  5  1  0  0  0  0
  5  9  1  0  0  0  0
  6  5  2  0  0  0  0
  7  1  1  0  0  0  0
  8  3  1  0  0  0  0
 10 13  1  0  0  0  0
 10  2  1  0  0  0  0
 11 10  1  0  0  0  0
 12 10  1  0  0  0  0
M  END
>  <minimizedAffinity>
-3.33180404

$$$$

 OpenBabel03242510163D

 13 13  0  0  0  0  0  0  0  0999 V2000
   37.4620   29.5060   42.4530 C   0  0  0  0  0  0  0  0  0  0  0  0
   36.6800   28.7920   41.5350 C   0  0  0  0  0  0  0  0  0  0  0  0
   36.7630   27.4020   41.5670 C   0  0  0  0  0  0  0  0  0  0  0  0
   37.5800   26.8010   42.4680 N   0  0  0  0  0  0  0  0  0  0  0  0
   38.3210   27.5330   43.3410 C   0  0  0  0  0  0  0  0  0  0  0  0
   38.2670   28.8770   43.3380 N   0  0  0  0  0  0  0  0  0  0  0  0
   37.4230   30.5940   42.4560 H   0  0  0  0  0  0  0  0  0  0  0  0
   36.1400   26.9350   40.8420 H   0  0  0  0  0  0  0  0  0  0  0  0
   38.9530   26.9690   44.0330 H   0  0  0  0  0  0  0  0  0  0  0  0
   35.8350   29.5900   40.6120 C   0  0  0  0  0  0  0  0  0  0  0  0
   35.8050   30.8760   41.1200 F   0  0  0  0  0  0  0  0  0  0  0  0
   34.5770   29.0500   40.5830 F   0  0  0  0  0  0  0  0  0  0  0  0
   36.4300   29.5410   39.3480 F   0  0  0  0  0  0  0  0  0  0  0  0
  1  7  1  0  0  0  0
  1  6  1  0  0  0  0
  2  3  1  0  0  0  0
  2  1  2  0  0  0  0
  3  4  2  0  0  0  0
  4  5  1  0  0  0  0
  5  9  1  0  0  0  0
  6  5  2  0  0  0  0
  8  3  1  0  0  0  0
 10 11  1  0  0  0  0
 10  2  1  0  0  0  0
 12 10  1  0  0  0  0
 13 10  1  0  0  0  0
M  END
>  <minimizedAffinity>
-3.32931828

$$$$

 OpenBabel03242510163D

 13 13  0  0  0  0  0  0  0  0999 V2000
   38.9770   27.0350   42.1500 C   0  0  0  0  0  0  0  0  0  0  0  0
   37.7410   26.4770   42.5060 C   0  0  0  0  0  0  0  0  0  0  0  0
   36.8550   27.2830   43.2170 C   0  0  0  0  0  0  0  0  0  0  0  0
   37.2120   28.5530   43.5320 N   0  0  0  0  0  0  0  0  0  0  0  0
   38.4220   29.0540   43.1660 C   0  0  0  0  0  0  0  0  0  0  0  0
   39.3020   28.3040   42.4800 N   0  0  0  0  0  0  0  0  0  0  0  0
   39.6940   26.4330   41.5950 H   0  0  0  0  0  0  0  0  0  0  0  0
   35.9420   26.7890   43.4480 H   0  0  0  0  0  0  0  0  0  0  0  0
   38.6290   30.0870   43.4600 H   0  0  0  0  0  0  0  0  0  0  0  0
   37.4940   25.0740   42.0900 C   0  0  0  0  0  0  0  0  0  0  0  0
   37.4710   25.0740   40.7070 F   0  0  0  0  0  0  0  0  0  0  0  0
   36.2900   24.6660   42.5970 F   0  0  0  0  0  0  0  0  0  0  0  0
   38.5400   24.2950   42.5950 F   0  0  0  0  0  0  0  0  0  0  0  0
  1  6  2  0  0  0  0
  1  2  1  0  0  0  0
  2  3  2  0  0  0  0
  3  8  1  0  0  0  0
  3  4  1  0  0  0  0
  5  9  1  0  0  0  0
  5  4  2  0  0  0  0
  6  5  1  0  0  0  0
  7  1  1  0  0  0  0
 10  2  1  0  0  0  0
 10 13  1  0  0  0  0
 10 12  1  0  0  0  0
 11 10  1  0  0  0  0
M  END
>  <minimizedAffinity>
-3.26237679

$$$$
