
 OpenBabel03252508413D

 23 24  0  0  0  0  0  0  0  0999 V2000
   46.2430   34.1750   41.2720 C   0  0  0  0  0  0  0  0  0  0  0  0
   47.4940   34.6030   40.9290 C   0  0  0  0  0  0  0  0  0  0  0  0
   48.0490   34.3310   39.7010 C   0  0  0  0  0  0  0  0  0  0  0  0
   47.2980   33.6010   38.8100 C   0  0  0  0  0  0  0  0  0  0  0  0
   46.0200   33.1310   39.0860 C   0  0  0  0  0  0  0  0  0  0  0  0
   45.5300   33.4490   40.3510 C   0  0  0  0  0  0  0  0  0  0  0  0
   49.0430   34.6910   39.4740 H   0  0  0  0  0  0  0  0  0  0  0  0
   47.7450   33.3910   37.8440 H   0  0  0  0  0  0  0  0  0  0  0  0
   45.4280   32.5560   38.3830 H   0  0  0  0  0  0  0  0  0  0  0  0
   44.5410   33.1130   40.6270 H   0  0  0  0  0  0  0  0  0  0  0  0
   44.5270   35.8780   44.1710 C   0  0  0  0  0  0  0  0  0  0  0  0
   44.9500   35.6440   42.8370 C   0  0  0  0  0  0  0  0  0  0  0  0
   45.7490   34.5170   42.5970 C   0  0  0  0  0  0  0  0  0  0  0  0
   46.0660   33.7230   43.6380 N   0  0  0  0  0  0  0  0  0  0  0  0
   45.6560   33.9580   44.9030 C   0  0  0  0  0  0  0  0  0  0  0  0
   44.8820   35.0400   45.1700 N   0  0  0  0  0  0  0  0  0  0  0  0
   43.9190   36.7700   44.2430 H   0  0  0  0  0  0  0  0  0  0  0  0
   44.7030   36.2670   42.0090 H   0  0  0  0  0  0  0  0  0  0  0  0
   45.9040   33.3270   45.7460 H   0  0  0  0  0  0  0  0  0  0  0  0
   48.3050   35.4020   41.9180 C   0  0  0  0  0  0  0  0  0  0  0  0
   48.7770   34.5910   42.9460 F   0  0  0  0  0  0  0  0  0  0  0  0
   49.3410   36.0820   41.2950 F   0  0  0  0  0  0  0  0  0  0  0  0
   47.5080   36.3500   42.5310 F   0  0  0  0  0  0  0  0  0  0  0  0
  1 13  1  0  0  0  0
  2  1  1  0  0  0  0
  2 20  1  0  0  0  0
  3  2  2  0  0  0  0
  4  5  2  0  0  0  0
  4  3  1  0  0  0  0
  5  6  1  0  0  0  0
  6 10  1  0  0  0  0
  6  1  2  0  0  0  0
  7  3  1  0  0  0  0
  8  4  1  0  0  0  0
  9  5  1  0  0  0  0
 11 17  1  0  0  0  0
 11 16  1  0  0  0  0
 12 11  2  0  0  0  0
 13 12  1  0  0  0  0
 13 14  2  0  0  0  0
 14 15  1  0  0  0  0
 15 16  2  0  0  0  0
 15 19  1  0  0  0  0
 18 12  1  0  0  0  0
 20 23  1  0  0  0  0
 20 21  1  0  0  0  0
 22 20  1  0  0  0  0
M  END
>  <minimizedAffinity>
-5.14668083

>  <minimizedRMSD>
1.16273916

$$$$
