
 OpenBabel03242522123D

 15 15  0  0  0  0  0  0  0  0999 V2000
   36.7770   30.1580   41.3680 C   0  0  0  0  0  0  0  0  0  0  0  0
   36.9770   29.0640   42.2140 C   0  0  0  0  0  0  0  0  0  0  0  0
   36.7650   27.7890   41.6880 C   0  0  0  0  0  0  0  0  0  0  0  0
   36.3820   27.7000   40.3970 N   0  0  0  0  0  0  0  0  0  0  0  0
   36.1970   28.7740   39.6060 C   0  0  0  0  0  0  0  0  0  0  0  0
   36.3940   30.0130   40.0890 N   0  0  0  0  0  0  0  0  0  0  0  0
   36.9090   31.2030   41.6580 H   0  0  0  0  0  0  0  0  0  0  0  0
   35.8870   28.4650   38.5990 H   0  0  0  0  0  0  0  0  0  0  0  0
   36.9870   26.6790   42.6110 C   0  0  0  0  0  0  0  0  0  0  0  0
   36.8000   25.4910   41.9360 F   0  0  0  0  0  0  0  0  0  0  0  0
   36.1120   26.8020   43.6790 F   0  0  0  0  0  0  0  0  0  0  0  0
   38.2630   26.6320   43.1280 F   0  0  0  0  0  0  0  0  0  0  0  0
   37.3840   29.3680   43.5490 N   0  0  0  0  0  0  0  0  0  0  0  0
   38.3660   29.7710   43.5800 H   0  0  0  0  0  0  0  0  0  0  0  0
   36.7440   29.1900   44.3480 H   0  0  0  0  0  0  0  0  0  0  0  0
  1  7  1  0  0  0  0
  1  2  1  0  0  0  0
  2 13  1  0  0  0  0
  3  2  2  0  0  0  0
  3  9  1  0  0  0  0
  4  3  1  0  0  0  0
  5  6  1  0  0  0  0
  5  4  2  0  0  0  0
  6  1  2  0  0  0  0
  8  5  1  0  0  0  0
  9 12  1  0  0  0  0
  9 11  1  0  0  0  0
 10  9  1  0  0  0  0
 13 14  1  0  0  0  0
 13 15  1  0  0  0  0
M  END
>  <minimizedAffinity>
-3.89082479

$$$$

 OpenBabel03242522123D

 15 15  0  0  0  0  0  0  0  0999 V2000
   37.2250   29.3470   42.2610 C   0  0  0  0  0  0  0  0  0  0  0  0
   36.2990   29.6100   41.2480 C   0  0  0  0  0  0  0  0  0  0  0  0
   36.0130   28.5830   40.3470 C   0  0  0  0  0  0  0  0  0  0  0  0
   36.6510   27.4050   40.5170 N   0  0  0  0  0  0  0  0  0  0  0  0
   37.5400   27.1840   41.5040 C   0  0  0  0  0  0  0  0  0  0  0  0
   37.8330   28.1570   42.3840 N   0  0  0  0  0  0  0  0  0  0  0  0
   37.5330   30.0650   43.0250 H   0  0  0  0  0  0  0  0  0  0  0  0
   37.9330   26.1600   41.4490 H   0  0  0  0  0  0  0  0  0  0  0  0
   35.0390   28.9060   39.3070 C   0  0  0  0  0  0  0  0  0  0  0  0
   34.8390   27.7910   38.5200 F   0  0  0  0  0  0  0  0  0  0  0  0
   35.5140   29.9760   38.5650 F   0  0  0  0  0  0  0  0  0  0  0  0
   33.8010   29.2600   39.7960 F   0  0  0  0  0  0  0  0  0  0  0  0
   35.7320   30.9210   41.2380 N   0  0  0  0  0  0  0  0  0  0  0  0
   35.0980   31.0820   42.0750 H   0  0  0  0  0  0  0  0  0  0  0  0
   35.9560   31.5860   40.4730 H   0  0  0  0  0  0  0  0  0  0  0  0
  1  6  1  0  0  0  0
  1  7  1  0  0  0  0
  2  1  2  0  0  0  0
  3  4  2  0  0  0  0
  3  2  1  0  0  0  0
  4  5  1  0  0  0  0
  5  6  2  0  0  0  0
  8  5  1  0  0  0  0
  9 12  1  0  0  0  0
  9  3  1  0  0  0  0
 10  9  1  0  0  0  0
 11  9  1  0  0  0  0
 13  2  1  0  0  0  0
 13 14  1  0  0  0  0
 15 13  1  0  0  0  0
M  END
>  <minimizedAffinity>
-3.86036491

$$$$

 OpenBabel03242522123D

 15 15  0  0  0  0  0  0  0  0999 V2000
   37.0520   31.9830   39.6450 C   0  0  0  0  0  0  0  0  0  0  0  0
   36.2680   30.9010   40.0540 C   0  0  0  0  0  0  0  0  0  0  0  0
   36.0730   29.8590   39.1460 C   0  0  0  0  0  0  0  0  0  0  0  0
   36.6560   29.9690   37.9330 N   0  0  0  0  0  0  0  0  0  0  0  0
   37.4070   31.0260   37.5680 C   0  0  0  0  0  0  0  0  0  0  0  0
   37.6090   32.0420   38.4240 N   0  0  0  0  0  0  0  0  0  0  0  0
   37.2780   32.8570   40.2600 H   0  0  0  0  0  0  0  0  0  0  0  0
   37.7780   30.9010   36.5420 H   0  0  0  0  0  0  0  0  0  0  0  0
   35.2470   28.7520   39.6200 C   0  0  0  0  0  0  0  0  0  0  0  0
   35.2750   27.7400   38.6840 F   0  0  0  0  0  0  0  0  0  0  0  0
   33.9580   29.2140   39.8330 F   0  0  0  0  0  0  0  0  0  0  0  0
   35.6860   28.1980   40.8020 F   0  0  0  0  0  0  0  0  0  0  0  0
   35.7390   30.9740   41.3790 N   0  0  0  0  0  0  0  0  0  0  0  0
   36.5030   30.8990   42.1130 H   0  0  0  0  0  0  0  0  0  0  0  0
   34.7180   31.0850   41.5330 H   0  0  0  0  0  0  0  0  0  0  0  0
  1  2  1  0  0  0  0
  1  7  1  0  0  0  0
  2 13  1  0  0  0  0
  3  9  1  0  0  0  0
  3  2  2  0  0  0  0
  4  3  1  0  0  0  0
  5  4  2  0  0  0  0
  5  6  1  0  0  0  0
  6  1  2  0  0  0  0
  8  5  1  0  0  0  0
  9 11  1  0  0  0  0
  9 12  1  0  0  0  0
 10  9  1  0  0  0  0
 13 15  1  0  0  0  0
 13 14  1  0  0  0  0
M  END
>  <minimizedAffinity>
-3.84318328

$$$$

 OpenBabel03242522123D

 15 15  0  0  0  0  0  0  0  0999 V2000
   39.1130   30.0410   42.5540 C   0  0  0  0  0  0  0  0  0  0  0  0
   37.9540   29.2640   42.4850 C   0  0  0  0  0  0  0  0  0  0  0  0
   38.0850   27.8850   42.6540 C   0  0  0  0  0  0  0  0  0  0  0  0
   39.3240   27.3960   42.8730 N   0  0  0  0  0  0  0  0  0  0  0  0
   40.4230   28.1720   42.9340 C   0  0  0  0  0  0  0  0  0  0  0  0
   40.3230   29.5030   42.7740 N   0  0  0  0  0  0  0  0  0  0  0  0
   39.1440   31.1270   42.4390 H   0  0  0  0  0  0  0  0  0  0  0  0
   41.3170   27.5620   43.1190 H   0  0  0  0  0  0  0  0  0  0  0  0
   36.8450   27.1170   42.5740 C   0  0  0  0  0  0  0  0  0  0  0  0
   36.1980   27.4330   41.3970 F   0  0  0  0  0  0  0  0  0  0  0  0
   36.0630   27.4110   43.6800 F   0  0  0  0  0  0  0  0  0  0  0  0
   37.0360   25.7530   42.5550 F   0  0  0  0  0  0  0  0  0  0  0  0
   36.7360   29.9720   42.2460 N   0  0  0  0  0  0  0  0  0  0  0  0
   36.4660   30.5830   43.0710 H   0  0  0  0  0  0  0  0  0  0  0  0
   36.2270   29.8550   41.3480 H   0  0  0  0  0  0  0  0  0  0  0  0
  1  6  1  0  0  0  0
  2  1  2  0  0  0  0
  2  3  1  0  0  0  0
  3  4  2  0  0  0  0
  4  5  1  0  0  0  0
  5  8  1  0  0  0  0
  6  5  2  0  0  0  0
  7  1  1  0  0  0  0
  9  3  1  0  0  0  0
  9 11  1  0  0  0  0
 10  9  1  0  0  0  0
 12  9  1  0  0  0  0
 13  2  1  0  0  0  0
 13 14  1  0  0  0  0
 15 13  1  0  0  0  0
M  END
>  <minimizedAffinity>
-3.82453227

$$$$

 OpenBabel03242522123D

 15 15  0  0  0  0  0  0  0  0999 V2000
   36.9500   29.4490   40.3150 C   0  0  0  0  0  0  0  0  0  0  0  0
   36.9530   28.7710   41.5370 C   0  0  0  0  0  0  0  0  0  0  0  0
   36.8920   27.3770   41.5060 C   0  0  0  0  0  0  0  0  0  0  0  0
   36.8350   26.7790   40.2960 N   0  0  0  0  0  0  0  0  0  0  0  0
   36.8330   27.4620   39.1350 C   0  0  0  0  0  0  0  0  0  0  0  0
   36.8910   28.8050   39.1390 N   0  0  0  0  0  0  0  0  0  0  0  0
   36.9930   30.5360   40.2050 H   0  0  0  0  0  0  0  0  0  0  0  0
   36.7810   26.7740   38.2820 H   0  0  0  0  0  0  0  0  0  0  0  0
   36.8980   26.7140   42.8070 C   0  0  0  0  0  0  0  0  0  0  0  0
   38.1100   26.9470   43.4230 F   0  0  0  0  0  0  0  0  0  0  0  0
   36.6730   25.3590   42.6210 F   0  0  0  0  0  0  0  0  0  0  0  0
   35.9310   27.1780   43.6710 F   0  0  0  0  0  0  0  0  0  0  0  0
   37.0190   29.5860   42.7080 N   0  0  0  0  0  0  0  0  0  0  0  0
   37.9580   30.0720   42.7980 H   0  0  0  0  0  0  0  0  0  0  0  0
   36.2070   29.6480   43.3530 H   0  0  0  0  0  0  0  0  0  0  0  0
  1  2  1  0  0  0  0
  2 13  1  0  0  0  0
  3  2  2  0  0  0  0
  3  9  1  0  0  0  0
  4  3  1  0  0  0  0
  5  6  1  0  0  0  0
  5  4  2  0  0  0  0
  6  1  2  0  0  0  0
  7  1  1  0  0  0  0
  8  5  1  0  0  0  0
  9 10  1  0  0  0  0
  9 12  1  0  0  0  0
 11  9  1  0  0  0  0
 13 14  1  0  0  0  0
 13 15  1  0  0  0  0
M  END
>  <minimizedAffinity>
-3.75223017

$$$$

 OpenBabel03242522123D

 15 15  0  0  0  0  0  0  0  0999 V2000
   37.6190   29.7750   42.1350 C   0  0  0  0  0  0  0  0  0  0  0  0
   37.0440   30.4950   41.0840 C   0  0  0  0  0  0  0  0  0  0  0  0
   37.8360   30.7550   39.9650 C   0  0  0  0  0  0  0  0  0  0  0  0
   39.1040   30.2920   39.9740 N   0  0  0  0  0  0  0  0  0  0  0  0
   39.6300   29.6010   41.0030 C   0  0  0  0  0  0  0  0  0  0  0  0
   38.8880   29.3380   42.0930 N   0  0  0  0  0  0  0  0  0  0  0  0
   37.1070   29.5080   43.0620 H   0  0  0  0  0  0  0  0  0  0  0  0
   40.6730   29.3280   40.7930 H   0  0  0  0  0  0  0  0  0  0  0  0
   37.1900   31.5110   38.8950 C   0  0  0  0  0  0  0  0  0  0  0  0
   36.7330   32.7080   39.4050 F   0  0  0  0  0  0  0  0  0  0  0  0
   36.1560   30.7510   38.3710 F   0  0  0  0  0  0  0  0  0  0  0  0
   38.0330   31.8320   37.8540 F   0  0  0  0  0  0  0  0  0  0  0  0
   35.6850   30.8970   41.2670 N   0  0  0  0  0  0  0  0  0  0  0  0
   35.0250   30.0650   41.2670 H   0  0  0  0  0  0  0  0  0  0  0  0
   35.4430   31.9000   41.3810 H   0  0  0  0  0  0  0  0  0  0  0  0
  1  7  1  0  0  0  0
  2 13  1  0  0  0  0
  2  1  2  0  0  0  0
  3  4  2  0  0  0  0
  3  2  1  0  0  0  0
  4  5  1  0  0  0  0
  5  6  2  0  0  0  0
  6  1  1  0  0  0  0
  8  5  1  0  0  0  0
  9 10  1  0  0  0  0
  9  3  1  0  0  0  0
 11  9  1  0  0  0  0
 12  9  1  0  0  0  0
 13 14  1  0  0  0  0
 13 15  1  0  0  0  0
M  END
>  <minimizedAffinity>
-3.7517693

$$$$

 OpenBabel03242522123D

 15 15  0  0  0  0  0  0  0  0999 V2000
   36.5930   31.1410   40.6510 C   0  0  0  0  0  0  0  0  0  0  0  0
   36.3250   29.8390   41.0830 C   0  0  0  0  0  0  0  0  0  0  0  0
   37.3590   29.1330   41.6990 C   0  0  0  0  0  0  0  0  0  0  0  0
   38.5480   29.7580   41.8360 N   0  0  0  0  0  0  0  0  0  0  0  0
   38.7750   31.0140   41.4080 C   0  0  0  0  0  0  0  0  0  0  0  0
   37.7960   31.7140   40.8110 N   0  0  0  0  0  0  0  0  0  0  0  0
   35.8710   31.7940   40.1550 H   0  0  0  0  0  0  0  0  0  0  0  0
   39.8090   31.3150   41.6230 H   0  0  0  0  0  0  0  0  0  0  0  0
   37.0300   27.7780   42.1330 C   0  0  0  0  0  0  0  0  0  0  0  0
   38.1230   27.2350   42.7750 F   0  0  0  0  0  0  0  0  0  0  0  0
   36.6650   27.0290   41.0260 F   0  0  0  0  0  0  0  0  0  0  0  0
   35.9870   27.7200   43.0310 F   0  0  0  0  0  0  0  0  0  0  0  0
   35.0010   29.3580   40.8460 N   0  0  0  0  0  0  0  0  0  0  0  0
   34.2830   29.8700   41.4380 H   0  0  0  0  0  0  0  0  0  0  0  0
   34.8320   28.5940   40.1620 H   0  0  0  0  0  0  0  0  0  0  0  0
  1  6  2  0  0  0  0
  1  2  1  0  0  0  0
  2  3  2  0  0  0  0
  3  4  1  0  0  0  0
  3  9  1  0  0  0  0
  5  8  1  0  0  0  0
  5  4  2  0  0  0  0
  6  5  1  0  0  0  0
  7  1  1  0  0  0  0
  9 10  1  0  0  0  0
  9 12  1  0  0  0  0
 11  9  1  0  0  0  0
 13  2  1  0  0  0  0
 13 14  1  0  0  0  0
 15 13  1  0  0  0  0
M  END
>  <minimizedAffinity>
-3.73705745

$$$$

 OpenBabel03242522123D

 15 15  0  0  0  0  0  0  0  0999 V2000
   39.2670   24.7470   42.7120 C   0  0  0  0  0  0  0  0  0  0  0  0
   38.1290   25.5530   42.6110 C   0  0  0  0  0  0  0  0  0  0  0  0
   38.2190   26.8640   43.0790 C   0  0  0  0  0  0  0  0  0  0  0  0
   39.4000   27.2650   43.5970 N   0  0  0  0  0  0  0  0  0  0  0  0
   40.4790   26.4640   43.6800 C   0  0  0  0  0  0  0  0  0  0  0  0
   40.4180   25.1960   43.2370 N   0  0  0  0  0  0  0  0  0  0  0  0
   39.3250   23.7060   42.3830 H   0  0  0  0  0  0  0  0  0  0  0  0
   41.3240   26.9980   44.1340 H   0  0  0  0  0  0  0  0  0  0  0  0
   37.0040   27.6660   42.9530 C   0  0  0  0  0  0  0  0  0  0  0  0
   36.6040   27.6660   41.6330 F   0  0  0  0  0  0  0  0  0  0  0  0
   37.2650   28.9490   43.4070 F   0  0  0  0  0  0  0  0  0  0  0  0
   35.9390   27.1800   43.6780 F   0  0  0  0  0  0  0  0  0  0  0  0
   36.9750   24.9410   42.0320 N   0  0  0  0  0  0  0  0  0  0  0  0
   37.1140   24.7370   40.9990 H   0  0  0  0  0  0  0  0  0  0  0  0
   36.1340   24.7480   42.6110 H   0  0  0  0  0  0  0  0  0  0  0  0
  1  6  1  0  0  0  0
  2  1  2  0  0  0  0
  2  3  1  0  0  0  0
  3  4  2  0  0  0  0
  4  5  1  0  0  0  0
  5  8  1  0  0  0  0
  6  5  2  0  0  0  0
  7  1  1  0  0  0  0
  9  3  1  0  0  0  0
  9 11  1  0  0  0  0
  9 12  1  0  0  0  0
 10  9  1  0  0  0  0
 13  2  1  0  0  0  0
 13 15  1  0  0  0  0
 14 13  1  0  0  0  0
M  END
>  <minimizedAffinity>
-3.68259859

$$$$

 OpenBabel03242522123D

 15 15  0  0  0  0  0  0  0  0999 V2000
   36.5430   30.6820   39.0740 C   0  0  0  0  0  0  0  0  0  0  0  0
   36.5170   30.1840   40.3800 C   0  0  0  0  0  0  0  0  0  0  0  0
   37.3020   29.0650   40.6630 C   0  0  0  0  0  0  0  0  0  0  0  0
   38.0330   28.5410   39.6560 N   0  0  0  0  0  0  0  0  0  0  0  0
   38.0350   29.0450   38.4070 C   0  0  0  0  0  0  0  0  0  0  0  0
   37.2880   30.1210   38.1080 N   0  0  0  0  0  0  0  0  0  0  0  0
   35.9750   31.5490   38.7260 H   0  0  0  0  0  0  0  0  0  0  0  0
   38.6990   28.4610   37.7560 H   0  0  0  0  0  0  0  0  0  0  0  0
   37.2410   28.5830   42.0410 C   0  0  0  0  0  0  0  0  0  0  0  0
   38.2220   27.6300   42.2240 F   0  0  0  0  0  0  0  0  0  0  0  0
   35.9780   28.0670   42.2790 F   0  0  0  0  0  0  0  0  0  0  0  0
   37.4720   29.5600   42.9830 F   0  0  0  0  0  0  0  0  0  0  0  0
   35.6790   30.8810   41.3020 N   0  0  0  0  0  0  0  0  0  0  0  0
   36.0480   31.8540   41.5140 H   0  0  0  0  0  0  0  0  0  0  0  0
   34.8240   30.4290   41.6820 H   0  0  0  0  0  0  0  0  0  0  0  0
  1  2  1  0  0  0  0
  2  3  2  0  0  0  0
  2 13  1  0  0  0  0
  3  9  1  0  0  0  0
  4  3  1  0  0  0  0
  5  4  2  0  0  0  0
  6  5  1  0  0  0  0
  6  1  2  0  0  0  0
  7  1  1  0  0  0  0
  8  5  1  0  0  0  0
  9 10  1  0  0  0  0
  9 11  1  0  0  0  0
  9 12  1  0  0  0  0
 13 14  1  0  0  0  0
 13 15  1  0  0  0  0
M  END
>  <minimizedAffinity>
-3.63261509

$$$$
