
 OpenBabel03252501543D

 16 16  0  0  0  0  0  0  0  0999 V2000
   44.8480   35.1470   44.9590 C   0  0  0  0  0  0  0  0  0  0  0  0
   45.4590   35.3020   43.7110 C   0  0  0  0  0  0  0  0  0  0  0  0
   46.4950   34.4380   43.3930 C   0  0  0  0  0  0  0  0  0  0  0  0
   46.8550   33.5020   44.2960 N   0  0  0  0  0  0  0  0  0  0  0  0
   46.2420   33.3770   45.4980 C   0  0  0  0  0  0  0  0  0  0  0  0
   45.2280   34.2010   45.8450 N   0  0  0  0  0  0  0  0  0  0  0  0
   44.0170   35.7740   45.3190 H   0  0  0  0  0  0  0  0  0  0  0  0
   46.6600   32.5730   46.0970 H   0  0  0  0  0  0  0  0  0  0  0  0
   44.9020   36.3920   42.8850 C   0  0  0  0  0  0  0  0  0  0  0  0
   45.3290   36.4640   41.8870 H   0  0  0  0  0  0  0  0  0  0  0  0
   43.8010   36.2990   42.7860 H   0  0  0  0  0  0  0  0  0  0  0  0
   45.1740   37.3520   43.4140 H   0  0  0  0  0  0  0  0  0  0  0  0
   47.1010   34.6390   42.0810 C   0  0  0  0  0  0  0  0  0  0  0  0
   47.7340   35.8540   42.0300 F   0  0  0  0  0  0  0  0  0  0  0  0
   47.9400   33.5970   41.7370 F   0  0  0  0  0  0  0  0  0  0  0  0
   46.0590   34.6790   41.1480 F   0  0  0  0  0  0  0  0  0  0  0  0
  1  7  1  0  0  0  0
  1  6  1  0  0  0  0
  2  1  2  0  0  0  0
  3  2  1  0  0  0  0
  3  4  2  0  0  0  0
  4  5  1  0  0  0  0
  5  6  2  0  0  0  0
  5  8  1  0  0  0  0
  9 12  1  0  0  0  0
  9  2  1  0  0  0  0
 10  9  1  0  0  0  0
 11  9  1  0  0  0  0
 13  3  1  0  0  0  0
 14 13  1  0  0  0  0
 15 13  1  0  0  0  0
 16 13  1  0  0  0  0
M  END
>  <minimizedAffinity>
-3.82225657

>  <minimizedRMSD>
1.75381482

$$$$
