
 OpenBabel03252508193D

 42 45  0  0  1  0  0  0  0  0999 V2000
   34.3030   29.0910   39.5100 C   0  0  0  0  0  3  0  0  0  0  0  0
   34.4620   28.5670   38.3670 C   0  0  0  0  0  3  0  0  0  0  0  0
   37.0220   30.5340   41.5370 C   0  0  0  0  0  0  0  0  0  0  0  0
   37.7000   29.4110   41.9960 C   0  0  0  0  0  0  0  0  0  0  0  0
   37.2100   28.2130   41.6000 C   0  0  0  0  0  0  0  0  0  0  0  0
   36.1110   28.1520   40.7960 N   0  0  0  0  0  0  0  0  0  0  0  0
   35.4780   29.2530   40.3700 C   0  0  0  0  0  0  0  0  0  0  0  0
   35.9540   30.4230   40.7550 N   0  0  0  0  0  0  0  0  0  0  0  0
   37.3870   31.5200   41.8340 H   0  0  0  0  0  0  0  0  0  0  0  0
   38.5660   29.4760   42.6290 H   0  0  0  0  0  0  0  0  0  0  0  0
   37.8150   26.9460   42.0000 C   0  0  0  0  0  0  0  0  0  0  0  0
   38.9480   26.8250   42.7590 C   0  0  0  0  0  0  0  0  0  0  0  0
   39.5090   25.6230   43.1310 C   0  0  0  0  0  0  0  0  0  0  0  0
   38.9170   24.4370   42.7290 C   0  0  0  0  0  0  0  0  0  0  0  0
   37.7800   24.4950   41.9670 C   0  0  0  0  0  0  0  0  0  0  0  0
   37.2580   25.7300   41.6210 C   0  0  0  0  0  0  0  0  0  0  0  0
   39.4240   27.7600   43.0820 H   0  0  0  0  0  0  0  0  0  0  0  0
   40.4130   25.6730   43.7370 H   0  0  0  0  0  0  0  0  0  0  0  0
   39.4070   23.5260   43.0540 H   0  0  0  0  0  0  0  0  0  0  0  0
   37.3210   23.5830   41.6560 H   0  0  0  0  0  0  0  0  0  0  0  0
   36.3540   25.7350   41.0150 H   0  0  0  0  0  0  0  0  0  0  0  0
   33.2210   28.4850   37.5050 C   0  0  0  0  0  0  0  0  0  0  0  0
   32.4050   28.6710   38.1800 H   0  0  0  0  0  0  0  0  0  0  0  0
   33.2370   27.4170   37.1410 H   0  0  0  0  0  0  0  0  0  0  0  0
   33.3610   29.3430   36.2970 C   0  0  1  0  0  0  0  0  0  0  0  0
   32.8040   28.7680   35.0380 C   0  0  0  0  0  0  0  0  0  0  0  0
   32.1680   29.9270   35.6540 C   0  0  1  0  0  0  0  0  0  0  0  0
   34.4130   29.7010   36.0970 H   0  0  0  0  0  0  0  0  0  0  0  0
   33.2910   28.8980   34.0540 H   0  0  0  0  0  0  0  0  0  0  0  0
   32.1940   27.8220   35.0640 H   0  0  0  0  0  0  0  0  0  0  0  0
   32.3200   30.9070   35.1570 H   0  0  0  0  0  0  0  0  0  0  0  0
   30.8610   29.8150   36.3730 C   0  0  2  0  0  0  0  0  0  0  0  0
   30.0540   31.1400   36.3780 C   0  0  0  0  0  0  0  0  0  0  0  0
   30.6620   30.6620   37.6240 C   0  0  1  0  0  0  0  0  0  0  0  0
   30.1830   28.9600   36.2130 H   0  0  0  0  0  0  0  0  0  0  0  0
   28.9750   31.1190   36.2410 H   0  0  0  0  0  0  0  0  0  0  0  0
   30.5250   32.0350   35.9230 H   0  0  0  0  0  0  0  0  0  0  0  0
   31.5850   31.1860   38.0030 H   0  0  0  0  0  0  0  0  0  0  0  0
   29.7230   30.0880   38.6610 C   0  0  0  0  0  0  0  0  0  0  0  0
   30.4740   29.7270   39.7610 F   0  0  0  0  0  0  0  0  0  0  0  0
   28.8610   31.0860   39.1140 F   0  0  0  0  0  0  0  0  0  0  0  0
   29.0360   29.0050   38.1850 F   0  0  0  0  0  0  0  0  0  0  0  0
  1  7  1  0  0  0  0
  2  1  2  0  0  0  0
  3  9  1  0  0  0  0
  3  4  1  0  0  0  0
  4 10  1  0  0  0  0
  5  4  2  0  0  0  0
  5 11  1  0  0  0  0
  6  5  1  0  0  0  0
  7  8  1  0  0  0  0
  7  6  2  0  0  0  0
  8  3  2  0  0  0  0
 11 12  1  0  0  0  0
 12 17  1  0  0  0  0
 12 13  2  0  0  0  0
 13 18  1  0  0  0  0
 14 19  1  0  0  0  0
 14 13  1  0  0  0  0
 15 14  2  0  0  0  0
 16 15  1  0  0  0  0
 16 11  2  0  0  0  0
 20 15  1  0  0  0  0
 21 16  1  0  0  0  0
 22 23  1  0  0  0  0
 22  2  1  0  0  0  0
 24 22  1  0  0  0  0
 25 28  1  6  0  0  0
 25 22  1  0  0  0  0
 26 30  1  0  0  0  0
 26 27  1  0  0  0  0
 26 25  1  0  0  0  0
 27 31  1  6  0  0  0
 27 25  1  0  0  0  0
 27 32  1  0  0  0  0
 29 26  1  0  0  0  0
 32 35  1  6  0  0  0
 32 33  1  0  0  0  0
 32 34  1  0  0  0  0
 33 34  1  0  0  0  0
 34 38  1  1  0  0  0
 34 39  1  0  0  0  0
 36 33  1  0  0  0  0
 37 33  1  0  0  0  0
 39 41  1  0  0  0  0
 39 40  1  0  0  0  0
 42 39  1  0  0  0  0
M  END
>  <minimizedAffinity>
-6.07297564

$$$$

 OpenBabel03252508193D

 42 45  0  0  1  0  0  0  0  0999 V2000
   39.7870   31.1600   42.0900 C   0  0  0  0  0  3  0  0  0  0  0  0
   40.2890   30.0290   41.8160 C   0  0  0  0  0  3  0  0  0  0  0  0
   37.9960   33.6500   40.0470 C   0  0  0  0  0  0  0  0  0  0  0  0
   37.2590   32.8640   39.1700 C   0  0  0  0  0  0  0  0  0  0  0  0
   37.3980   31.5240   39.3070 C   0  0  0  0  0  0  0  0  0  0  0  0
   38.2240   31.0130   40.2640 N   0  0  0  0  0  0  0  0  0  0  0  0
   38.9230   31.7980   41.0940 C   0  0  0  0  0  0  0  0  0  0  0  0
   38.7890   33.1050   40.9630 N   0  0  0  0  0  0  0  0  0  0  0  0
   37.9110   34.7370   39.9680 H   0  0  0  0  0  0  0  0  0  0  0  0
   36.6110   33.2820   38.4220 H   0  0  0  0  0  0  0  0  0  0  0  0
   36.6860   30.5700   38.4610 C   0  0  0  0  0  0  0  0  0  0  0  0
   35.6640   29.7630   38.8790 C   0  0  0  0  0  0  0  0  0  0  0  0
   35.0000   28.8680   38.0690 C   0  0  0  0  0  0  0  0  0  0  0  0
   35.3620   28.7480   36.7380 C   0  0  0  0  0  0  0  0  0  0  0  0
   36.3810   29.5310   36.2610 C   0  0  0  0  0  0  0  0  0  0  0  0
   37.0150   30.4140   37.1180 C   0  0  0  0  0  0  0  0  0  0  0  0
   35.3690   29.8510   39.9330 H   0  0  0  0  0  0  0  0  0  0  0  0
   34.2020   28.2870   38.5340 H   0  0  0  0  0  0  0  0  0  0  0  0
   34.8020   28.0270   36.1540 H   0  0  0  0  0  0  0  0  0  0  0  0
   36.6630   29.4410   35.2360 H   0  0  0  0  0  0  0  0  0  0  0  0
   37.8190   31.0190   36.7040 H   0  0  0  0  0  0  0  0  0  0  0  0
   41.1220   29.3990   42.9110 C   0  0  0  0  0  0  0  0  0  0  0  0
   40.5150   29.4720   43.7950 H   0  0  0  0  0  0  0  0  0  0  0  0
   42.0270   30.0700   42.9590 H   0  0  0  0  0  0  0  0  0  0  0  0
   41.6150   28.0580   42.4910 C   0  0  1  0  0  0  0  0  0  0  0  0
   42.0420   27.1590   43.6020 C   0  0  0  0  0  0  0  0  0  0  0  0
   40.8490   26.8420   42.8260 C   0  0  1  0  0  0  0  0  0  0  0  0
   42.4310   28.0830   41.7120 H   0  0  0  0  0  0  0  0  0  0  0  0
   42.9140   26.4830   43.5240 H   0  0  0  0  0  0  0  0  0  0  0  0
   41.8490   27.4450   44.6740 H   0  0  0  0  0  0  0  0  0  0  0  0
   40.9280   26.0070   42.1000 H   0  0  0  0  0  0  0  0  0  0  0  0
   39.4750   27.0150   43.3930 C   0  0  2  0  0  0  0  0  0  0  0  0
   38.5010   25.8800   42.9820 C   0  0  0  0  0  0  0  0  0  0  0  0
   38.3240   27.2210   42.4170 C   0  0  1  0  0  0  0  0  0  0  0  0
   39.3140   27.2880   44.4490 H   0  0  0  0  0  0  0  0  0  0  0  0
   37.7930   25.4830   43.7080 H   0  0  0  0  0  0  0  0  0  0  0  0
   38.8740   25.1050   42.2820 H   0  0  0  0  0  0  0  0  0  0  0  0
   38.6250   27.3920   41.3440 H   0  0  0  0  0  0  0  0  0  0  0  0
   37.1580   28.0300   42.9400 C   0  0  0  0  0  0  0  0  0  0  0  0
   36.4170   28.4560   41.8580 F   0  0  0  0  0  0  0  0  0  0  0  0
   36.3040   27.2020   43.6690 F   0  0  0  0  0  0  0  0  0  0  0  0
   37.5720   29.1040   43.6790 F   0  0  0  0  0  0  0  0  0  0  0  0
  2  1  2  0  0  0  0
  2 22  1  0  0  0  0
  3  8  1  0  0  0  0
  4  5  1  0  0  0  0
  4  3  2  0  0  0  0
  5  6  2  0  0  0  0
  6  7  1  0  0  0  0
  7  1  1  0  0  0  0
  8  7  2  0  0  0  0
  9  3  1  0  0  0  0
 10  4  1  0  0  0  0
 11 12  1  0  0  0  0
 11  5  1  0  0  0  0
 12 17  1  0  0  0  0
 13 18  1  0  0  0  0
 13 12  2  0  0  0  0
 14 13  1  0  0  0  0
 15 14  2  0  0  0  0
 15 16  1  0  0  0  0
 16 11  2  0  0  0  0
 19 14  1  0  0  0  0
 20 15  1  0  0  0  0
 21 16  1  0  0  0  0
 22 24  1  0  0  0  0
 22 23  1  0  0  0  0
 25 28  1  6  0  0  0
 25 27  1  0  0  0  0
 25 22  1  0  0  0  0
 25 26  1  0  0  0  0
 26 30  1  0  0  0  0
 27 31  1  6  0  0  0
 27 32  1  0  0  0  0
 27 26  1  0  0  0  0
 29 26  1  0  0  0  0
 32 35  1  1  0  0  0
 33 32  1  0  0  0  0
 33 36  1  0  0  0  0
 34 38  1  6  0  0  0
 34 39  1  0  0  0  0
 34 33  1  0  0  0  0
 34 32  1  0  0  0  0
 37 33  1  0  0  0  0
 39 41  1  0  0  0  0
 39 42  1  0  0  0  0
 40 39  1  0  0  0  0
M  END
>  <minimizedAffinity>
-5.89636612

$$$$

 OpenBabel03252508193D

 42 45  0  0  1  0  0  0  0  0999 V2000
   35.5020   27.3640   38.4410 C   0  0  0  0  0  3  0  0  0  0  0  0
   36.2420   26.3350   38.4220 C   0  0  0  0  0  3  0  0  0  0  0  0
   33.4570   26.8840   35.4130 C   0  0  0  0  0  0  0  0  0  0  0  0
   32.4980   27.8840   35.5220 C   0  0  0  0  0  0  0  0  0  0  0  0
   32.5830   28.6790   36.6150 C   0  0  0  0  0  0  0  0  0  0  0  0
   33.5690   28.4780   37.5340 N   0  0  0  0  0  0  0  0  0  0  0  0
   34.4800   27.5050   37.4020 C   0  0  0  0  0  0  0  0  0  0  0  0
   34.3990   26.7290   36.3370 N   0  0  0  0  0  0  0  0  0  0  0  0
   33.4220   26.2220   34.5450 H   0  0  0  0  0  0  0  0  0  0  0  0
   31.7270   28.0290   34.7880 H   0  0  0  0  0  0  0  0  0  0  0  0
   31.6480   29.7710   36.8660 C   0  0  0  0  0  0  0  0  0  0  0  0
   30.9350   29.9420   38.0220 C   0  0  0  0  0  0  0  0  0  0  0  0
   30.0560   30.9790   38.2460 C   0  0  0  0  0  0  0  0  0  0  0  0
   29.8540   31.9310   37.2620 C   0  0  0  0  0  0  0  0  0  0  0  0
   30.5400   31.8130   36.0820 C   0  0  0  0  0  0  0  0  0  0  0  0
   31.4110   30.7500   35.9070 C   0  0  0  0  0  0  0  0  0  0  0  0
   31.0900   29.1920   38.8090 H   0  0  0  0  0  0  0  0  0  0  0  0
   29.5550   30.9930   39.2150 H   0  0  0  0  0  0  0  0  0  0  0  0
   29.1500   32.7210   37.5000 H   0  0  0  0  0  0  0  0  0  0  0  0
   30.3850   32.5440   35.3200 H   0  0  0  0  0  0  0  0  0  0  0  0
   31.9370   30.6900   34.9580 H   0  0  0  0  0  0  0  0  0  0  0  0
   37.2360   26.2200   39.5570 C   0  0  0  0  0  0  0  0  0  0  0  0
   37.4230   27.2340   39.8630 H   0  0  0  0  0  0  0  0  0  0  0  0
   38.1350   25.7530   39.0610 H   0  0  0  0  0  0  0  0  0  0  0  0
   36.7620   25.2420   40.5750 C   0  0  1  0  0  0  0  0  0  0  0  0
   37.8370   24.5380   41.3320 C   0  0  0  0  0  0  0  0  0  0  0  0
   36.9760   25.4990   42.0120 C   0  0  1  0  0  0  0  0  0  0  0  0
   36.0340   24.4750   40.1820 H   0  0  0  0  0  0  0  0  0  0  0  0
   37.7670   23.4730   41.6210 H   0  0  0  0  0  0  0  0  0  0  0  0
   38.9120   24.8570   41.2260 H   0  0  0  0  0  0  0  0  0  0  0  0
   36.2050   25.0860   42.6960 H   0  0  0  0  0  0  0  0  0  0  0  0
   37.4740   26.8510   42.4160 C   0  0  2  0  0  0  0  0  0  0  0  0
   36.6560   27.4780   43.5760 C   0  0  0  0  0  0  0  0  0  0  0  0
   36.5370   28.0380   42.2260 C   0  0  1  0  0  0  0  0  0  0  0  0
   38.5480   27.0550   42.5560 H   0  0  0  0  0  0  0  0  0  0  0  0
   37.1680   28.0270   44.3640 H   0  0  0  0  0  0  0  0  0  0  0  0
   35.7730   26.9200   43.9470 H   0  0  0  0  0  0  0  0  0  0  0  0
   35.5990   27.8240   41.6400 H   0  0  0  0  0  0  0  0  0  0  0  0
   37.2110   29.3700   41.9820 C   0  0  0  0  0  0  0  0  0  0  0  0
   37.9960   29.2480   40.8540 F   0  0  0  0  0  0  0  0  0  0  0  0
   36.2490   30.3280   41.6600 F   0  0  0  0  0  0  0  0  0  0  0  0
   37.9750   29.7600   43.0470 F   0  0  0  0  0  0  0  0  0  0  0  0
  2  1  2  0  0  0  0
  2 22  1  0  0  0  0
  3  4  2  0  0  0  0
  3  8  1  0  0  0  0
  4  5  1  0  0  0  0
  5 11  1  0  0  0  0
  5  6  2  0  0  0  0
  7  6  1  0  0  0  0
  7  1  1  0  0  0  0
  8  7  2  0  0  0  0
  9  3  1  0  0  0  0
 10  4  1  0  0  0  0
 11 12  1  0  0  0  0
 12 13  2  0  0  0  0
 12 17  1  0  0  0  0
 13 18  1  0  0  0  0
 14 19  1  0  0  0  0
 14 13  1  0  0  0  0
 15 14  2  0  0  0  0
 16 15  1  0  0  0  0
 16 11  2  0  0  0  0
 20 15  1  0  0  0  0
 21 16  1  0  0  0  0
 22 23  1  0  0  0  0
 22 25  1  0  0  0  0
 24 22  1  0  0  0  0
 25 28  1  6  0  0  0
 25 26  1  0  0  0  0
 25 27  1  0  0  0  0
 26 29  1  0  0  0  0
 26 27  1  0  0  0  0
 27 32  1  0  0  0  0
 27 31  1  1  0  0  0
 30 26  1  0  0  0  0
 32 35  1  6  0  0  0
 32 33  1  0  0  0  0
 33 37  1  0  0  0  0
 33 36  1  0  0  0  0
 34 38  1  6  0  0  0
 34 32  1  0  0  0  0
 34 33  1  0  0  0  0
 39 34  1  0  0  0  0
 39 42  1  0  0  0  0
 40 39  1  0  0  0  0
 41 39  1  0  0  0  0
M  END
>  <minimizedAffinity>
-5.89145088

$$$$

 OpenBabel03252508193D

 42 45  0  0  1  0  0  0  0  0999 V2000
   32.4730   28.6400   35.6460 C   0  0  0  0  0  3  0  0  0  0  0  0
   32.6670   29.7360   35.0390 C   0  0  0  0  0  3  0  0  0  0  0  0
   34.8510   26.4420   37.4050 C   0  0  0  0  0  0  0  0  0  0  0  0
   35.5430   27.3230   38.2270 C   0  0  0  0  0  0  0  0  0  0  0  0
   35.1760   28.6250   38.1520 C   0  0  0  0  0  0  0  0  0  0  0  0
   34.1790   29.0090   37.3060 N   0  0  0  0  0  0  0  0  0  0  0  0
   33.5300   28.1360   36.5250 C   0  0  0  0  0  0  0  0  0  0  0  0
   33.8860   26.8660   36.5960 N   0  0  0  0  0  0  0  0  0  0  0  0
   35.1180   25.3830   37.4370 H   0  0  0  0  0  0  0  0  0  0  0  0
   36.3260   27.0040   38.8890 H   0  0  0  0  0  0  0  0  0  0  0  0
   35.8100   29.6670   38.9540 C   0  0  0  0  0  0  0  0  0  0  0  0
   35.6490   29.8210   40.3040 C   0  0  0  0  0  0  0  0  0  0  0  0
   36.2550   30.8090   41.0510 C   0  0  0  0  0  0  0  0  0  0  0  0
   37.0880   31.7230   40.4300 C   0  0  0  0  0  0  0  0  0  0  0  0
   37.2880   31.6190   39.0780 C   0  0  0  0  0  0  0  0  0  0  0  0
   36.6540   30.6080   38.3750 C   0  0  0  0  0  0  0  0  0  0  0  0
   34.9900   29.1000   40.8060 H   0  0  0  0  0  0  0  0  0  0  0  0
   36.0380   30.8150   42.1190 H   0  0  0  0  0  0  0  0  0  0  0  0
   37.5330   32.4750   41.0720 H   0  0  0  0  0  0  0  0  0  0  0  0
   37.9290   32.3230   38.5960 H   0  0  0  0  0  0  0  0  0  0  0  0
   36.8370   30.5570   37.3040 H   0  0  0  0  0  0  0  0  0  0  0  0
   31.5130   30.2310   34.1950 C   0  0  0  0  0  0  0  0  0  0  0  0
   30.6700   29.6400   34.5070 H   0  0  0  0  0  0  0  0  0  0  0  0
   31.8410   29.9820   33.1450 H   0  0  0  0  0  0  0  0  0  0  0  0
   31.4100   31.7150   34.2620 C   0  0  1  0  0  0  0  0  0  0  0  0
   30.0960   32.2830   33.8450 C   0  0  0  0  0  0  0  0  0  0  0  0
   30.5130   32.3580   35.2410 C   0  0  1  0  0  0  0  0  0  0  0  0
   32.2320   32.2650   33.7170 H   0  0  0  0  0  0  0  0  0  0  0  0
   30.0050   33.2260   33.2740 H   0  0  0  0  0  0  0  0  0  0  0  0
   29.2180   31.6060   33.6480 H   0  0  0  0  0  0  0  0  0  0  0  0
   30.8390   33.3500   35.6160 H   0  0  0  0  0  0  0  0  0  0  0  0
   29.8910   31.4950   36.2930 C   0  0  2  0  0  0  0  0  0  0  0  0
   29.4380   32.2920   37.5440 C   0  0  0  0  0  0  0  0  0  0  0  0
   30.5960   31.3980   37.6410 C   0  0  1  0  0  0  0  0  0  0  0  0
   29.1430   30.7250   36.0430 H   0  0  0  0  0  0  0  0  0  0  0  0
   28.4990   32.0430   38.0350 H   0  0  0  0  0  0  0  0  0  0  0  0
   29.6610   33.3780   37.5750 H   0  0  0  0  0  0  0  0  0  0  0  0
   31.6240   31.8580   37.6820 H   0  0  0  0  0  0  0  0  0  0  0  0
   30.3920   30.1030   38.3940 C   0  0  0  0  0  0  0  0  0  0  0  0
   29.3850   30.3010   39.3150 F   0  0  0  0  0  0  0  0  0  0  0  0
   29.9080   29.1270   37.5220 F   0  0  0  0  0  0  0  0  0  0  0  0
   31.5340   29.6930   39.0250 F   0  0  0  0  0  0  0  0  0  0  0  0
  1  7  1  0  0  0  0
  2  1  2  0  0  0  0
  3  9  1  0  0  0  0
  3  4  1  0  0  0  0
  4 10  1  0  0  0  0
  5  4  2  0  0  0  0
  5 11  1  0  0  0  0
  6  5  1  0  0  0  0
  7  8  1  0  0  0  0
  7  6  2  0  0  0  0
  8  3  2  0  0  0  0
 11 12  1  0  0  0  0
 12 17  1  0  0  0  0
 12 13  2  0  0  0  0
 13 18  1  0  0  0  0
 14 13  1  0  0  0  0
 14 19  1  0  0  0  0
 15 14  2  0  0  0  0
 16 11  2  0  0  0  0
 16 15  1  0  0  0  0
 20 15  1  0  0  0  0
 21 16  1  0  0  0  0
 22 25  1  0  0  0  0
 22 23  1  0  0  0  0
 22  2  1  0  0  0  0
 24 22  1  0  0  0  0
 25 28  1  6  0  0  0
 25 27  1  0  0  0  0
 26 25  1  0  0  0  0
 26 27  1  0  0  0  0
 27 31  1  1  0  0  0
 27 32  1  0  0  0  0
 29 26  1  0  0  0  0
 30 26  1  0  0  0  0
 32 35  1  6  0  0  0
 32 33  1  0  0  0  0
 32 34  1  0  0  0  0
 33 37  1  0  0  0  0
 33 34  1  0  0  0  0
 33 36  1  0  0  0  0
 34 38  1  1  0  0  0
 34 39  1  0  0  0  0
 39 42  1  0  0  0  0
 39 40  1  0  0  0  0
 41 39  1  0  0  0  0
M  END
>  <minimizedAffinity>
-5.7763114

$$$$

 OpenBabel03252508193D

 42 45  0  0  1  0  0  0  0  0999 V2000
   37.6130   26.9790   38.7760 C   0  0  0  0  0  3  0  0  0  0  0  0
   38.6700   26.8420   39.4620 C   0  0  0  0  0  3  0  0  0  0  0  0
   36.7970   29.3840   36.1060 C   0  0  0  0  0  0  0  0  0  0  0  0
   37.1720   30.6030   36.6570 C   0  0  0  0  0  0  0  0  0  0  0  0
   37.6850   30.5610   37.9100 C   0  0  0  0  0  0  0  0  0  0  0  0
   37.8120   29.3690   38.5600 N   0  0  0  0  0  0  0  0  0  0  0  0
   37.4410   28.2100   38.0010 C   0  0  0  0  0  0  0  0  0  0  0  0
   36.9400   28.2480   36.7800 N   0  0  0  0  0  0  0  0  0  0  0  0
   36.3790   29.3760   35.0960 H   0  0  0  0  0  0  0  0  0  0  0  0
   37.0660   31.5340   36.1310 H   0  0  0  0  0  0  0  0  0  0  0  0
   38.1240   31.7590   38.6190 C   0  0  0  0  0  0  0  0  0  0  0  0
   39.4290   32.1100   38.8280 C   0  0  0  0  0  0  0  0  0  0  0  0
   39.8300   33.2460   39.4980 C   0  0  0  0  0  0  0  0  0  0  0  0
   38.8790   34.1120   40.0090 C   0  0  0  0  0  0  0  0  0  0  0  0
   37.5540   33.8130   39.8310 C   0  0  0  0  0  0  0  0  0  0  0  0
   37.2050   32.6580   39.1500 C   0  0  0  0  0  0  0  0  0  0  0  0
   40.1920   31.4300   38.4260 H   0  0  0  0  0  0  0  0  0  0  0  0
   40.9050   33.4030   39.5910 H   0  0  0  0  0  0  0  0  0  0  0  0
   39.2590   34.9870   40.5260 H   0  0  0  0  0  0  0  0  0  0  0  0
   36.8180   34.4780   40.2240 H   0  0  0  0  0  0  0  0  0  0  0  0
   36.1440   32.4540   39.0290 H   0  0  0  0  0  0  0  0  0  0  0  0
   38.8130   25.5230   40.1890 C   0  0  0  0  0  0  0  0  0  0  0  0
   39.5970   25.6870   40.9060 H   0  0  0  0  0  0  0  0  0  0  0  0
   39.1290   24.8140   39.3690 H   0  0  0  0  0  0  0  0  0  0  0  0
   37.4900   25.0410   40.6730 C   0  0  1  0  0  0  0  0  0  0  0  0
   37.5240   24.2350   41.9270 C   0  0  0  0  0  0  0  0  0  0  0  0
   36.9200   25.5620   41.9300 C   0  0  1  0  0  0  0  0  0  0  0  0
   36.8840   24.4840   39.9000 H   0  0  0  0  0  0  0  0  0  0  0  0
   36.8690   23.3600   42.0940 H   0  0  0  0  0  0  0  0  0  0  0  0
   38.4760   24.1450   42.5220 H   0  0  0  0  0  0  0  0  0  0  0  0
   35.8120   25.6110   41.9740 H   0  0  0  0  0  0  0  0  0  0  0  0
   37.5980   26.7310   42.5740 C   0  0  2  0  0  0  0  0  0  0  0  0
   36.7120   27.4400   43.6320 C   0  0  0  0  0  0  0  0  0  0  0  0
   36.9900   28.1120   42.3590 C   0  0  1  0  0  0  0  0  0  0  0  0
   38.6390   26.6730   42.9300 H   0  0  0  0  0  0  0  0  0  0  0  0
   37.1560   27.7970   44.5600 H   0  0  0  0  0  0  0  0  0  0  0  0
   35.6750   27.0730   43.7690 H   0  0  0  0  0  0  0  0  0  0  0  0
   36.1670   28.1620   41.5910 H   0  0  0  0  0  0  0  0  0  0  0  0
   37.9630   29.2680   42.4000 C   0  0  0  0  0  0  0  0  0  0  0  0
   39.1410   28.8540   41.8150 F   0  0  0  0  0  0  0  0  0  0  0  0
   37.4930   30.3030   41.5900 F   0  0  0  0  0  0  0  0  0  0  0  0
   38.1970   29.6950   43.6780 F   0  0  0  0  0  0  0  0  0  0  0  0
  1  2  2  0  0  0  0
  2 22  1  0  0  0  0
  3  4  2  0  0  0  0
  3  8  1  0  0  0  0
  4  5  1  0  0  0  0
  5  6  2  0  0  0  0
  5 11  1  0  0  0  0
  7  6  1  0  0  0  0
  7  1  1  0  0  0  0
  8  7  2  0  0  0  0
  9  3  1  0  0  0  0
 10  4  1  0  0  0  0
 11 12  2  0  0  0  0
 11 16  1  0  0  0  0
 12 13  1  0  0  0  0
 13 18  1  0  0  0  0
 13 14  2  0  0  0  0
 14 19  1  0  0  0  0
 15 14  1  0  0  0  0
 15 20  1  0  0  0  0
 16 15  2  0  0  0  0
 17 12  1  0  0  0  0
 21 16  1  0  0  0  0
 22 25  1  0  0  0  0
 22 23  1  0  0  0  0
 24 22  1  0  0  0  0
 25 28  1  6  0  0  0
 25 26  1  0  0  0  0
 25 27  1  0  0  0  0
 26 27  1  0  0  0  0
 26 29  1  0  0  0  0
 26 30  1  0  0  0  0
 27 31  1  1  0  0  0
 27 32  1  0  0  0  0
 32 35  1  1  0  0  0
 32 33  1  0  0  0  0
 33 37  1  0  0  0  0
 33 36  1  0  0  0  0
 34 38  1  6  0  0  0
 34 39  1  0  0  0  0
 34 32  1  0  0  0  0
 34 33  1  0  0  0  0
 39 42  1  0  0  0  0
 40 39  1  0  0  0  0
 41 39  1  0  0  0  0
M  END
>  <minimizedAffinity>
-5.7436676

$$$$

 OpenBabel03252508193D

 42 45  0  0  1  0  0  0  0  0999 V2000
   35.4520   27.9820   39.4470 C   0  0  0  0  0  3  0  0  0  0  0  0
   35.4290   28.8910   40.3290 C   0  0  0  0  0  3  0  0  0  0  0  0
   34.6970   28.1290   35.8420 C   0  0  0  0  0  0  0  0  0  0  0  0
   33.4890   28.8140   35.8030 C   0  0  0  0  0  0  0  0  0  0  0  0
   32.9800   29.1980   36.9980 C   0  0  0  0  0  0  0  0  0  0  0  0
   33.6460   28.9110   38.1520 N   0  0  0  0  0  0  0  0  0  0  0  0
   34.8090   28.2480   38.1570 C   0  0  0  0  0  0  0  0  0  0  0  0
   35.3080   27.8720   36.9940 N   0  0  0  0  0  0  0  0  0  0  0  0
   35.1410   27.8020   34.8990 H   0  0  0  0  0  0  0  0  0  0  0  0
   32.9770   29.0340   34.8840 H   0  0  0  0  0  0  0  0  0  0  0  0
   31.7200   29.9260   37.1170 C   0  0  0  0  0  0  0  0  0  0  0  0
   30.9250   29.9380   38.2300 C   0  0  0  0  0  0  0  0  0  0  0  0
   29.7380   30.6320   38.3300 C   0  0  0  0  0  0  0  0  0  0  0  0
   29.2870   31.3760   37.2530 C   0  0  0  0  0  0  0  0  0  0  0  0
   30.0410   31.4020   36.1100 C   0  0  0  0  0  0  0  0  0  0  0  0
   31.2260   30.6870   36.0620 C   0  0  0  0  0  0  0  0  0  0  0  0
   31.2750   29.3510   39.0890 H   0  0  0  0  0  0  0  0  0  0  0  0
   29.2060   30.5530   39.2780 H   0  0  0  0  0  0  0  0  0  0  0  0
   28.3470   31.8980   37.3950 H   0  0  0  0  0  0  0  0  0  0  0  0
   29.6960   31.9740   35.2780 H   0  0  0  0  0  0  0  0  0  0  0  0
   31.7970   30.7320   35.1380 H   0  0  0  0  0  0  0  0  0  0  0  0
   36.1630   28.5760   41.6140 C   0  0  0  0  0  0  0  0  0  0  0  0
   35.8750   27.5690   41.8560 H   0  0  0  0  0  0  0  0  0  0  0  0
   35.7360   29.3270   42.3410 H   0  0  0  0  0  0  0  0  0  0  0  0
   37.6120   28.8950   41.4850 C   0  0  1  0  0  0  0  0  0  0  0  0
   38.3390   29.0920   42.7720 C   0  0  0  0  0  0  0  0  0  0  0  0
   38.6310   27.9310   41.9410 C   0  0  1  0  0  0  0  0  0  0  0  0
   37.8400   29.7650   40.8030 H   0  0  0  0  0  0  0  0  0  0  0  0
   39.1280   29.8560   42.9030 H   0  0  0  0  0  0  0  0  0  0  0  0
   37.8370   28.8600   43.7530 H   0  0  0  0  0  0  0  0  0  0  0  0
   39.5900   27.9410   41.3810 H   0  0  0  0  0  0  0  0  0  0  0  0
   38.1760   26.5580   42.3230 C   0  0  2  0  0  0  0  0  0  0  0  0
   39.2700   25.4760   42.1230 C   0  0  0  0  0  0  0  0  0  0  0  0
   38.1090   25.5000   41.2270 C   0  0  1  0  0  0  0  0  0  0  0  0
   37.6240   26.3700   43.2590 H   0  0  0  0  0  0  0  0  0  0  0  0
   39.3890   24.6830   42.8590 H   0  0  0  0  0  0  0  0  0  0  0  0
   40.2330   25.7910   41.6740 H   0  0  0  0  0  0  0  0  0  0  0  0
   38.2530   25.8840   40.1770 H   0  0  0  0  0  0  0  0  0  0  0  0
   37.0750   24.4160   41.4270 C   0  0  0  0  0  0  0  0  0  0  0  0
   36.4090   24.6750   42.6070 F   0  0  0  0  0  0  0  0  0  0  0  0
   36.1040   24.5060   40.4290 F   0  0  0  0  0  0  0  0  0  0  0  0
   37.6390   23.1710   41.4690 F   0  0  0  0  0  0  0  0  0  0  0  0
  1  2  2  0  0  0  0
  2 22  1  0  0  0  0
  3  8  1  0  0  0  0
  4  3  2  0  0  0  0
  4  5  1  0  0  0  0
  5 11  1  0  0  0  0
  5  6  2  0  0  0  0
  6  7  1  0  0  0  0
  7  1  1  0  0  0  0
  8  7  2  0  0  0  0
  9  3  1  0  0  0  0
 10  4  1  0  0  0  0
 11 12  1  0  0  0  0
 12 13  2  0  0  0  0
 12 17  1  0  0  0  0
 13 18  1  0  0  0  0
 14 19  1  0  0  0  0
 14 13  1  0  0  0  0
 15 14  2  0  0  0  0
 16 15  1  0  0  0  0
 16 11  2  0  0  0  0
 20 15  1  0  0  0  0
 21 16  1  0  0  0  0
 22 23  1  0  0  0  0
 22 24  1  0  0  0  0
 25 28  1  6  0  0  0
 25 22  1  0  0  0  0
 25 27  1  0  0  0  0
 25 26  1  0  0  0  0
 26 29  1  0  0  0  0
 26 30  1  0  0  0  0
 27 31  1  6  0  0  0
 27 32  1  0  0  0  0
 27 26  1  0  0  0  0
 32 35  1  1  0  0  0
 33 32  1  0  0  0  0
 33 36  1  0  0  0  0
 34 38  1  6  0  0  0
 34 39  1  0  0  0  0
 34 33  1  0  0  0  0
 34 32  1  0  0  0  0
 37 33  1  0  0  0  0
 39 42  1  0  0  0  0
 39 40  1  0  0  0  0
 41 39  1  0  0  0  0
M  END
>  <minimizedAffinity>
-5.64049959

$$$$

 OpenBabel03252508193D

 42 45  0  0  1  0  0  0  0  0999 V2000
   34.8620   28.5040   38.8050 C   0  0  0  0  0  3  0  0  0  0  0  0
   36.0080   27.9640   38.8000 C   0  0  0  0  0  3  0  0  0  0  0  0
   32.9900   26.8300   36.1080 C   0  0  0  0  0  0  0  0  0  0  0  0
   32.2180   27.8570   35.5780 C   0  0  0  0  0  0  0  0  0  0  0  0
   32.3630   29.0730   36.1550 C   0  0  0  0  0  0  0  0  0  0  0  0
   33.2280   29.2410   37.1950 N   0  0  0  0  0  0  0  0  0  0  0  0
   33.9590   28.2310   37.6840 C   0  0  0  0  0  0  0  0  0  0  0  0
   33.8190   27.0430   37.1230 N   0  0  0  0  0  0  0  0  0  0  0  0
   32.9010   25.8330   35.6690 H   0  0  0  0  0  0  0  0  0  0  0  0
   31.5410   27.7080   34.7570 H   0  0  0  0  0  0  0  0  0  0  0  0
   31.6210   30.2480   35.7070 C   0  0  0  0  0  0  0  0  0  0  0  0
   31.6440   30.7500   34.4340 C   0  0  0  0  0  0  0  0  0  0  0  0
   30.9380   31.8590   34.0240 C   0  0  0  0  0  0  0  0  0  0  0  0
   30.1410   32.5390   34.9300 C   0  0  0  0  0  0  0  0  0  0  0  0
   30.0780   32.0830   36.2210 C   0  0  0  0  0  0  0  0  0  0  0  0
   30.8090   30.9630   36.5810 C   0  0  0  0  0  0  0  0  0  0  0  0
   32.2730   30.2180   33.7080 H   0  0  0  0  0  0  0  0  0  0  0  0
   31.0480   32.1490   32.9780 H   0  0  0  0  0  0  0  0  0  0  0  0
   29.6120   33.4030   34.5450 H   0  0  0  0  0  0  0  0  0  0  0  0
   29.4660   32.6040   36.9220 H   0  0  0  0  0  0  0  0  0  0  0  0
   30.7340   30.6310   37.6140 H   0  0  0  0  0  0  0  0  0  0  0  0
   36.8670   28.2390   40.0150 C   0  0  0  0  0  0  0  0  0  0  0  0
   37.8290   28.5080   39.6170 H   0  0  0  0  0  0  0  0  0  0  0  0
   36.8890   27.2400   40.5410 H   0  0  0  0  0  0  0  0  0  0  0  0
   36.1840   29.1850   40.9410 C   0  0  1  0  0  0  0  0  0  0  0  0
   37.0140   29.6740   42.0790 C   0  0  0  0  0  0  0  0  0  0  0  0
   36.6170   30.5930   41.0190 C   0  0  1  0  0  0  0  0  0  0  0  0
   35.1980   28.8130   41.3440 H   0  0  0  0  0  0  0  0  0  0  0  0
   36.6040   29.8330   43.0940 H   0  0  0  0  0  0  0  0  0  0  0  0
   38.1170   29.4470   42.1210 H   0  0  0  0  0  0  0  0  0  0  0  0
   35.8220   31.3290   41.2630 H   0  0  0  0  0  0  0  0  0  0  0  0
   37.5940   31.0840   39.9980 C   0  0  2  0  0  0  0  0  0  0  0  0
   37.4240   32.5900   39.6680 C   0  0  0  0  0  0  0  0  0  0  0  0
   37.0420   31.5870   38.6700 C   0  0  1  0  0  0  0  0  0  0  0  0
   38.6640   30.8270   40.0510 H   0  0  0  0  0  0  0  0  0  0  0  0
   38.3020   33.2160   39.5220 H   0  0  0  0  0  0  0  0  0  0  0  0
   36.5870   33.1350   40.1510 H   0  0  0  0  0  0  0  0  0  0  0  0
   35.9450   31.3940   38.4990 H   0  0  0  0  0  0  0  0  0  0  0  0
   37.9600   31.4310   37.4790 C   0  0  0  0  0  0  0  0  0  0  0  0
   37.8930   30.1180   37.0600 F   0  0  0  0  0  0  0  0  0  0  0  0
   37.4720   32.1840   36.4100 F   0  0  0  0  0  0  0  0  0  0  0  0
   39.2520   31.7630   37.7810 F   0  0  0  0  0  0  0  0  0  0  0  0
  2  1  2  0  0  0  0
  2 22  1  0  0  0  0
  3  8  1  0  0  0  0
  4  3  2  0  0  0  0
  4  5  1  0  0  0  0
  5  6  2  0  0  0  0
  6  7  1  0  0  0  0
  7  1  1  0  0  0  0
  8  7  2  0  0  0  0
  9  3  1  0  0  0  0
 10  4  1  0  0  0  0
 11  5  1  0  0  0  0
 11 16  1  0  0  0  0
 12 11  2  0  0  0  0
 13 12  1  0  0  0  0
 13 14  2  0  0  0  0
 14 15  1  0  0  0  0
 15 16  2  0  0  0  0
 15 20  1  0  0  0  0
 16 21  1  0  0  0  0
 17 12  1  0  0  0  0
 18 13  1  0  0  0  0
 19 14  1  0  0  0  0
 22 24  1  0  0  0  0
 22 25  1  0  0  0  0
 23 22  1  0  0  0  0
 25 27  1  0  0  0  0
 25 28  1  1  0  0  0
 25 26  1  0  0  0  0
 26 30  1  0  0  0  0
 26 29  1  0  0  0  0
 27 31  1  1  0  0  0
 27 26  1  0  0  0  0
 32 35  1  1  0  0  0
 32 27  1  0  0  0  0
 33 32  1  0  0  0  0
 33 37  1  0  0  0  0
 34 38  1  6  0  0  0
 34 33  1  0  0  0  0
 34 32  1  0  0  0  0
 36 33  1  0  0  0  0
 39 42  1  0  0  0  0
 39 34  1  0  0  0  0
 40 39  1  0  0  0  0
 41 39  1  0  0  0  0
M  END
>  <minimizedAffinity>
-5.61704779

$$$$

 OpenBabel03252508193D

 42 45  0  0  1  0  0  0  0  0999 V2000
   37.1690   29.1320   42.1160 C   0  0  0  0  0  3  0  0  0  0  0  0
   37.3200   29.6340   40.9630 C   0  0  0  0  0  3  0  0  0  0  0  0
   39.3710   26.5840   43.6140 C   0  0  0  0  0  0  0  0  0  0  0  0
   39.0600   25.4380   42.8920 C   0  0  0  0  0  0  0  0  0  0  0  0
   38.1180   25.5750   41.9280 C   0  0  0  0  0  0  0  0  0  0  0  0
   37.5320   26.7860   41.7090 N   0  0  0  0  0  0  0  0  0  0  0  0
   37.8530   27.8730   42.4220 C   0  0  0  0  0  0  0  0  0  0  0  0
   38.7710   27.7420   43.3620 N   0  0  0  0  0  0  0  0  0  0  0  0
   40.1260   26.5150   44.4000 H   0  0  0  0  0  0  0  0  0  0  0  0
   39.5320   24.4910   43.0770 H   0  0  0  0  0  0  0  0  0  0  0  0
   37.6880   24.4620   41.0880 C   0  0  0  0  0  0  0  0  0  0  0  0
   38.4090   23.3190   40.8730 C   0  0  0  0  0  0  0  0  0  0  0  0
   37.9910   22.2750   40.0770 C   0  0  0  0  0  0  0  0  0  0  0  0
   36.7660   22.3490   39.4370 C   0  0  0  0  0  0  0  0  0  0  0  0
   35.9980   23.4700   39.6140 C   0  0  0  0  0  0  0  0  0  0  0  0
   36.4670   24.4910   40.4240 C   0  0  0  0  0  0  0  0  0  0  0  0
   39.3820   23.2510   41.3770 H   0  0  0  0  0  0  0  0  0  0  0  0
   38.6670   21.4230   39.9950 H   0  0  0  0  0  0  0  0  0  0  0  0
   36.4950   21.4950   38.8250 H   0  0  0  0  0  0  0  0  0  0  0  0
   35.0540   23.5310   39.1210 H   0  0  0  0  0  0  0  0  0  0  0  0
   35.8290   25.3650   40.5400 H   0  0  0  0  0  0  0  0  0  0  0  0
   36.6370   30.9650   40.7320 C   0  0  0  0  0  0  0  0  0  0  0  0
   36.7000   31.4740   41.6770 H   0  0  0  0  0  0  0  0  0  0  0  0
   35.5790   30.6660   40.4800 H   0  0  0  0  0  0  0  0  0  0  0  0
   37.1840   31.6350   39.5200 C   0  0  1  0  0  0  0  0  0  0  0  0
   37.0950   33.1230   39.5200 C   0  0  0  0  0  0  0  0  0  0  0  0
   38.3960   32.4720   39.6140 C   0  0  1  0  0  0  0  0  0  0  0  0
   36.7700   31.2460   38.5450 H   0  0  0  0  0  0  0  0  0  0  0  0
   36.8660   33.7090   38.6100 H   0  0  0  0  0  0  0  0  0  0  0  0
   36.7730   33.6770   40.4460 H   0  0  0  0  0  0  0  0  0  0  0  0
   39.0370   32.4950   38.7080 H   0  0  0  0  0  0  0  0  0  0  0  0
   39.1690   32.4440   40.8940 C   0  0  2  0  0  0  0  0  0  0  0  0
   40.6220   32.9660   40.7390 C   0  0  0  0  0  0  0  0  0  0  0  0
   40.3910   31.5370   40.9670 C   0  0  1  0  0  0  0  0  0  0  0  0
   38.7360   32.8060   41.8400 H   0  0  0  0  0  0  0  0  0  0  0  0
   41.0590   33.5910   41.5150 H   0  0  0  0  0  0  0  0  0  0  0  0
   40.9660   33.2440   39.7220 H   0  0  0  0  0  0  0  0  0  0  0  0
   40.5200   30.8300   40.0990 H   0  0  0  0  0  0  0  0  0  0  0  0
   40.7310   31.0050   42.3410 C   0  0  0  0  0  0  0  0  0  0  0  0
   39.6120   31.1390   43.1370 F   0  0  0  0  0  0  0  0  0  0  0  0
   40.9670   29.6320   42.2660 F   0  0  0  0  0  0  0  0  0  0  0  0
   41.7880   31.6680   42.9000 F   0  0  0  0  0  0  0  0  0  0  0  0
  1  7  1  0  0  0  0
  2  1  2  0  0  0  0
  3  9  1  0  0  0  0
  4 10  1  0  0  0  0
  4  3  2  0  0  0  0
  5  4  1  0  0  0  0
  6  5  2  0  0  0  0
  6  7  1  0  0  0  0
  7  8  2  0  0  0  0
  8  3  1  0  0  0  0
 11  5  1  0  0  0  0
 12 11  1  0  0  0  0
 12 17  1  0  0  0  0
 13 12  2  0  0  0  0
 14 15  2  0  0  0  0
 14 13  1  0  0  0  0
 15 16  1  0  0  0  0
 16 21  1  0  0  0  0
 16 11  2  0  0  0  0
 18 13  1  0  0  0  0
 19 14  1  0  0  0  0
 20 15  1  0  0  0  0
 22  2  1  0  0  0  0
 22 23  1  0  0  0  0
 24 22  1  0  0  0  0
 25 28  1  6  0  0  0
 25 26  1  0  0  0  0
 25 27  1  0  0  0  0
 25 22  1  0  0  0  0
 26 27  1  0  0  0  0
 26 30  1  0  0  0  0
 27 31  1  6  0  0  0
 27 32  1  0  0  0  0
 29 26  1  0  0  0  0
 32 34  1  0  0  0  0
 32 35  1  1  0  0  0
 33 32  1  0  0  0  0
 33 34  1  0  0  0  0
 33 36  1  0  0  0  0
 34 38  1  6  0  0  0
 34 39  1  0  0  0  0
 37 33  1  0  0  0  0
 39 42  1  0  0  0  0
 39 40  1  0  0  0  0
 41 39  1  0  0  0  0
M  END
>  <minimizedAffinity>
-5.5951004

$$$$

 OpenBabel03252508193D

 42 45  0  0  1  0  0  0  0  0999 V2000
   37.7340   27.8740   39.6890 C   0  0  0  0  0  3  0  0  0  0  0  0
   36.9650   27.0750   40.3020 C   0  0  0  0  0  3  0  0  0  0  0  0
   36.4510   31.1550   40.7710 C   0  0  0  0  0  0  0  0  0  0  0  0
   37.4250   32.0370   40.3200 C   0  0  0  0  0  0  0  0  0  0  0  0
   38.4760   31.4850   39.6680 C   0  0  0  0  0  0  0  0  0  0  0  0
   38.5380   30.1360   39.4840 N   0  0  0  0  0  0  0  0  0  0  0  0
   37.5820   29.3110   39.9320 C   0  0  0  0  0  0  0  0  0  0  0  0
   36.5560   29.8470   40.5670 N   0  0  0  0  0  0  0  0  0  0  0  0
   35.5860   31.5620   41.3010 H   0  0  0  0  0  0  0  0  0  0  0  0
   37.3610   33.0980   40.4720 H   0  0  0  0  0  0  0  0  0  0  0  0
   39.5760   32.2830   39.1350 C   0  0  0  0  0  0  0  0  0  0  0  0
   40.0730   33.4170   39.7170 C   0  0  0  0  0  0  0  0  0  0  0  0
   41.1140   34.1610   39.2040 C   0  0  0  0  0  0  0  0  0  0  0  0
   41.7220   33.7670   38.0250 C   0  0  0  0  0  0  0  0  0  0  0  0
   41.2670   32.6380   37.3960 C   0  0  0  0  0  0  0  0  0  0  0  0
   40.2180   31.9270   37.9540 C   0  0  0  0  0  0  0  0  0  0  0  0
   39.5980   33.7380   40.6530 H   0  0  0  0  0  0  0  0  0  0  0  0
   41.4090   35.0440   39.7720 H   0  0  0  0  0  0  0  0  0  0  0  0
   42.5340   34.3940   37.6740 H   0  0  0  0  0  0  0  0  0  0  0  0
   41.7330   32.3310   36.4860 H   0  0  0  0  0  0  0  0  0  0  0  0
   39.8850   31.0360   37.4260 H   0  0  0  0  0  0  0  0  0  0  0  0
   37.2150   25.6040   40.0540 C   0  0  0  0  0  0  0  0  0  0  0  0
   38.2090   25.5580   39.6460 H   0  0  0  0  0  0  0  0  0  0  0  0
   36.4290   25.3390   39.2900 H   0  0  0  0  0  0  0  0  0  0  0  0
   36.9040   24.8040   41.2710 C   0  0  1  0  0  0  0  0  0  0  0  0
   37.7130   23.5630   41.4430 C   0  0  0  0  0  0  0  0  0  0  0  0
   37.8940   24.6840   42.3580 C   0  0  1  0  0  0  0  0  0  0  0  0
   35.8120   24.5440   41.3930 H   0  0  0  0  0  0  0  0  0  0  0  0
   37.2900   22.6230   41.8420 H   0  0  0  0  0  0  0  0  0  0  0  0
   38.5900   23.3550   40.7680 H   0  0  0  0  0  0  0  0  0  0  0  0
   37.4760   24.5710   43.3810 H   0  0  0  0  0  0  0  0  0  0  0  0
   39.1070   25.5570   42.3000 C   0  0  2  0  0  0  0  0  0  0  0  0
   39.9820   25.4680   43.5780 C   0  0  0  0  0  0  0  0  0  0  0  0
   39.2170   26.6900   43.3130 C   0  0  1  0  0  0  0  0  0  0  0  0
   39.7480   25.5990   41.4040 H   0  0  0  0  0  0  0  0  0  0  0  0
   41.0680   25.4600   43.4920 H   0  0  0  0  0  0  0  0  0  0  0  0
   39.6150   24.8390   44.4140 H   0  0  0  0  0  0  0  0  0  0  0  0
   38.2900   26.8820   43.9250 H   0  0  0  0  0  0  0  0  0  0  0  0
   40.0040   27.8990   42.8600 C   0  0  0  0  0  0  0  0  0  0  0  0
   40.3700   27.6990   41.5450 F   0  0  0  0  0  0  0  0  0  0  0  0
   39.1720   29.0190   42.8440 F   0  0  0  0  0  0  0  0  0  0  0  0
   41.1140   28.1060   43.6320 F   0  0  0  0  0  0  0  0  0  0  0  0
  1  7  1  0  0  0  0
  1  2  2  0  0  0  0
  3  9  1  0  0  0  0
  4 10  1  0  0  0  0
  4  3  2  0  0  0  0
  5  4  1  0  0  0  0
  6  5  2  0  0  0  0
  6  7  1  0  0  0  0
  7  8  2  0  0  0  0
  8  3  1  0  0  0  0
 11  5  1  0  0  0  0
 11 12  1  0  0  0  0
 12 17  1  0  0  0  0
 13 12  2  0  0  0  0
 13 18  1  0  0  0  0
 14 13  1  0  0  0  0
 15 16  1  0  0  0  0
 15 14  2  0  0  0  0
 16 11  2  0  0  0  0
 19 14  1  0  0  0  0
 20 15  1  0  0  0  0
 21 16  1  0  0  0  0
 22  2  1  0  0  0  0
 22 25  1  0  0  0  0
 23 22  1  0  0  0  0
 24 22  1  0  0  0  0
 25 28  1  1  0  0  0
 25 26  1  0  0  0  0
 25 27  1  0  0  0  0
 26 29  1  0  0  0  0
 26 27  1  0  0  0  0
 27 31  1  1  0  0  0
 30 26  1  0  0  0  0
 32 35  1  6  0  0  0
 32 27  1  0  0  0  0
 32 34  1  0  0  0  0
 32 33  1  0  0  0  0
 33 37  1  0  0  0  0
 34 33  1  0  0  0  0
 34 38  1  1  0  0  0
 36 33  1  0  0  0  0
 39 34  1  0  0  0  0
 39 42  1  0  0  0  0
 40 39  1  0  0  0  0
 41 39  1  0  0  0  0
M  END
>  <minimizedAffinity>
-5.56716251

$$$$
