
     RDKit          3D

 19 19  0  0  0  0  0  0  0  0999 V2000
   47.8352   34.7857   42.4175 C   0  0  0  0  0  0  0  0  0  0  0  0
   48.1121   33.5655   43.0628 C   0  0  0  0  0  0  0  0  0  0  0  0
   47.1802   33.1077   44.0137 C   0  0  0  0  0  0  0  0  0  0  0  0
   46.0757   33.8693   44.2484 N   0  0  0  0  0  0  0  0  0  0  0  0
   45.8530   35.0228   43.6116 C   0  0  0  0  0  0  0  0  0  0  0  0
   46.7250   35.4794   42.7026 N   0  0  0  0  0  0  0  0  0  0  0  0
   48.8303   35.2585   41.4132 C   0  0  0  0  0  0  0  0  0  0  0  0
   48.3876   35.1640   40.1374 F   0  0  0  0  0  0  0  0  0  0  0  0
   49.1955   36.5703   41.7359 F   0  0  0  0  0  0  0  0  0  0  0  0
   50.0193   34.5198   41.5806 F   0  0  0  0  0  0  0  0  0  0  0  0
   44.6331   35.8383   43.8885 C   0  0  0  0  0  0  0  0  0  0  0  0
   43.6405   35.5746   42.9697 F   0  0  0  0  0  0  0  0  0  0  0  0
   44.9356   37.1952   43.9260 F   0  0  0  0  0  0  0  0  0  0  0  0
   44.1190   35.5539   45.1451 F   0  0  0  0  0  0  0  0  0  0  0  0
   49.0003   32.9794   42.8560 H   0  0  0  0  0  0  0  0  0  0  0  0
   47.3849   31.8456   44.7369 C   0  0  0  0  0  0  0  0  0  0  0  0
   48.7348   31.7781   45.0629 F   0  0  0  0  0  0  0  0  0  0  0  0
   47.1522   30.7381   43.9160 F   0  0  0  0  0  0  0  0  0  0  0  0
   46.5910   31.7563   45.8478 F   0  0  0  0  0  0  0  0  0  0  0  0
  1  6  2  0
  1  2  1  0
  2  3  2  0
  3  4  1  0
  5 11  1  0
  5  4  2  0
  6  5  1  0
  7 10  1  0
  7  9  1  0
  7  1  1  0
  8  7  1  0
 11 13  1  0
 11 14  1  0
 12 11  1  0
  2 15  1  0
 16 17  1  0
 16 18  1  0
 16 19  1  0
  3 16  1  0
M  ISO  1  15  14
M  END
>  <DihAtoms>  (1) 
1,2,15,16

>  <DihDeg>  (1) 
-34.41403743902584

$$$$
