
 OpenBabel03242522223D

 23 24  0  0  0  0  0  0  0  0999 V2000
   44.4610   35.9380   44.8740 C   0  0  0  0  0  0  0  0  0  0  0  0
   45.1140   35.8310   43.6410 C   0  0  0  0  0  0  0  0  0  0  0  0
   46.0050   34.7790   43.3900 C   0  0  0  0  0  0  0  0  0  0  0  0
   46.1930   33.8860   44.3920 N   0  0  0  0  0  0  0  0  0  0  0  0
   45.5500   34.0140   45.5720 C   0  0  0  0  0  0  0  0  0  0  0  0
   44.7030   35.0150   45.8130 N   0  0  0  0  0  0  0  0  0  0  0  0
   43.7820   36.7380   45.0690 H   0  0  0  0  0  0  0  0  0  0  0  0
   44.9390   36.5620   42.8650 H   0  0  0  0  0  0  0  0  0  0  0  0
   44.5090   33.1520   41.4540 Cl  0  0  0  0  0  0  0  0  0  0  0  0
   46.0720   33.9060   41.1260 C   0  0  0  0  0  0  0  0  0  0  0  0
   46.6930   34.6540   42.1100 C   0  0  0  0  0  0  0  0  0  0  0  0
   47.9170   35.2250   41.8050 C   0  0  0  0  0  0  0  0  0  0  0  0
   48.4840   35.0400   40.5490 C   0  0  0  0  0  0  0  0  0  0  0  0
   47.8120   34.2800   39.6060 C   0  0  0  0  0  0  0  0  0  0  0  0
   48.5530   34.0670   38.0360 Cl  0  0  0  0  0  0  0  0  0  0  0  0
   46.5910   33.6930   39.8660 C   0  0  0  0  0  0  0  0  0  0  0  0
   48.3620   35.7930   42.5910 H   0  0  0  0  0  0  0  0  0  0  0  0
   49.4500   35.5170   40.3740 H   0  0  0  0  0  0  0  0  0  0  0  0
   46.1090   33.1120   39.1040 H   0  0  0  0  0  0  0  0  0  0  0  0
   45.8250   32.9770   46.6180 C   0  0  0  0  0  0  0  0  0  0  0  0
   47.1190   33.0300   47.0730 F   0  0  0  0  0  0  0  0  0  0  0  0
   44.9170   33.0410   47.6520 F   0  0  0  0  0  0  0  0  0  0  0  0
   45.6880   31.7260   46.0030 F   0  0  0  0  0  0  0  0  0  0  0  0
  1  7  1  0  0  0  0
  1  6  1  0  0  0  0
  2  1  2  0  0  0  0
  3  2  1  0  0  0  0
  3  4  2  0  0  0  0
  4  5  1  0  0  0  0
  5  6  2  0  0  0  0
  5 20  1  0  0  0  0
  8  2  1  0  0  0  0
 10  9  1  0  0  0  0
 10 11  1  0  0  0  0
 11  3  1  0  0  0  0
 12 11  2  0  0  0  0
 12 17  1  0  0  0  0
 13 12  1  0  0  0  0
 14 16  1  0  0  0  0
 14 13  2  0  0  0  0
 15 14  1  0  0  0  0
 16 10  2  0  0  0  0
 18 13  1  0  0  0  0
 19 16  1  0  0  0  0
 20 21  1  0  0  0  0
 20 22  1  0  0  0  0
 23 20  1  0  0  0  0
M  END
>  <minimizedAffinity>
-6.12425375

>  <minimizedRMSD>
0.166956067

$$$$
