
 OpenBabel03242514093D

 41 43  0  0  1  0  0  0  0  0999 V2000
   47.3840   33.9710   42.4340 C   0  0  0  0  0  0  0  0  0  0  0  0
   48.2480   35.0310   42.2840 C   0  0  0  0  0  0  0  0  0  0  0  0
   48.7140   35.4800   41.0570 C   0  0  0  0  0  0  0  0  0  0  0  0
   48.2300   34.7600   39.9580 C   0  0  0  0  0  0  0  0  0  0  0  0
   47.3450   33.6760   40.1140 C   0  0  0  0  0  0  0  0  0  0  0  0
   46.9360   33.2970   41.3370 N   0  0  0  0  0  0  0  0  0  0  0  0
   48.5690   35.5280   43.1980 H   0  0  0  0  0  0  0  0  0  0  0  0
   49.3800   36.3040   41.0030 H   0  0  0  0  0  0  0  0  0  0  0  0
   48.6320   35.1570   39.0370 H   0  0  0  0  0  0  0  0  0  0  0  0
   46.8640   32.9850   38.9210 C   0  0  1  0  0  0  0  0  0  0  0  0
   45.3100   33.2350   38.7320 C   0  0  0  0  0  0  0  0  0  0  0  0
   44.9290   32.0950   37.7440 C   0  0  0  0  0  0  0  0  0  0  0  0
   45.4980   32.5830   36.4040 C   0  0  0  0  0  0  0  0  0  0  0  0
   46.9730   32.6680   36.4580 C   0  0  0  0  0  0  0  0  0  0  0  0
   47.5800   33.2030   37.7000 C   0  0  2  0  0  0  0  0  0  0  0  0
   46.8360   31.8900   39.1980 H   0  0  0  0  0  0  0  0  0  0  0  0
   45.2010   34.2120   38.2650 H   0  0  0  0  0  0  0  0  0  0  0  0
   44.8120   33.0840   39.6920 H   0  0  0  0  0  0  0  0  0  0  0  0
   45.4020   31.1630   38.0700 H   0  0  0  0  0  0  0  0  0  0  0  0
   43.8260   32.0260   37.6490 H   0  0  0  0  0  0  0  0  0  0  0  0
   45.1730   31.8290   35.6680 H   0  0  0  0  0  0  0  0  0  0  0  0
   44.9800   33.5270   36.1610 H   0  0  0  0  0  0  0  0  0  0  0  0
   47.3490   31.6260   36.2280 H   0  0  0  0  0  0  0  0  0  0  0  0
   47.3240   33.2580   35.5860 H   0  0  0  0  0  0  0  0  0  0  0  0
   47.7500   34.3110   37.5300 H   0  0  0  0  0  0  0  0  0  0  0  0
   49.1860   32.3600   37.8800 S   0  0  0  0  0  0  0  0  0  0  0  0
   49.0290   31.0080   37.5490 H   0  0  0  0  0  0  0  0  0  0  0  0
   46.9350   32.2220   45.6040 C   0  0  0  0  0  0  0  0  0  0  0  0
   45.9810   32.9470   46.2700 C   0  0  0  0  0  0  0  0  0  0  0  0
   45.4910   34.0500   45.6140 C   0  0  0  0  0  0  0  0  0  0  0  0
   45.9750   34.3540   44.3600 N   0  0  0  0  0  0  0  0  0  0  0  0
   46.9400   33.5700   43.7540 C   0  0  0  0  0  0  0  0  0  0  0  0
   47.4000   32.5370   44.3690 N   0  0  0  0  0  0  0  0  0  0  0  0
   44.5120   34.9390   46.0930 N   0  0  0  0  0  0  0  0  0  0  0  0
   47.3300   31.3400   46.1260 H   0  0  0  0  0  0  0  0  0  0  0  0
   43.5730   35.1110   45.6370 H   0  0  0  0  0  0  0  0  0  0  0  0
   44.7520   35.4510   46.9570 H   0  0  0  0  0  0  0  0  0  0  0  0
   45.4440   32.6520   47.6060 C   0  0  0  0  0  0  0  0  0  0  0  0
   44.4230   33.5300   47.9160 F   0  0  0  0  0  0  0  0  0  0  0  0
   46.3840   32.7240   48.6000 F   0  0  0  0  0  0  0  0  0  0  0  0
   44.8750   31.3730   47.6560 F   0  0  0  0  0  0  0  0  0  0  0  0
  1 32  1  0  0  0  0
  2  1  1  0  0  0  0
  2  7  1  0  0  0  0
  3  2  2  0  0  0  0
  4  5  2  0  0  0  0
  4  3  1  0  0  0  0
  5  6  1  0  0  0  0
  6  1  2  0  0  0  0
  8  3  1  0  0  0  0
  9  4  1  0  0  0  0
 10 16  1  1  0  0  0
 10  5  1  0  0  0  0
 11 10  1  0  0  0  0
 11 18  1  0  0  0  0
 12 19  1  0  0  0  0
 12 11  1  0  0  0  0
 13 14  1  0  0  0  0
 13 12  1  0  0  0  0
 14 15  1  0  0  0  0
 15 25  1  6  0  0  0
 15 26  1  0  0  0  0
 15 10  1  0  0  0  0
 17 11  1  0  0  0  0
 20 12  1  0  0  0  0
 21 13  1  0  0  0  0
 22 13  1  0  0  0  0
 23 14  1  0  0  0  0
 24 14  1  0  0  0  0
 27 26  1  0  0  0  0
 28 35  1  0  0  0  0
 28 29  1  0  0  0  0
 29 38  1  0  0  0  0
 30 34  1  0  0  0  0
 30 29  2  0  0  0  0
 31 30  1  0  0  0  0
 32 31  2  0  0  0  0
 32 33  1  0  0  0  0
 33 28  2  0  0  0  0
 34 37  1  0  0  0  0
 36 34  1  0  0  0  0
 38 41  1  0  0  0  0
 38 39  1  0  0  0  0
 38 40  1  0  0  0  0
M  END
>  <minimizedAffinity>
-6.61502409

>  <minimizedRMSD>
0.389599532

$$$$
