REMARK  Name = 
REMARK  3 active torsions:
REMARK  status: ('A' for Active; 'I' for Inactive)
REMARK    1  A    between atoms: C_1  and  C_10
REMARK    2  A    between atoms: C_4  and  C_12
REMARK    3  A    between atoms: C_17  and  C_33
REMARK                            x       y       z     vdW  Elec       q    Type
REMARK                         _______ _______ _______ _____ _____    ______ ____
ROOT
ATOM      1  C   UNL     1      47.797  30.668  48.857  0.00  0.00    +0.000 C 
ATOM      2  C   UNL     1      48.167  29.506  47.999  0.00  0.00    +0.000 C 
ATOM      3  C   UNL     1      49.586  29.049  48.133  0.00  0.00    +0.000 C 
ATOM      4  C   UNL     1      50.053  29.007  49.569  0.00  0.00    +0.000 C 
ATOM      5  C   UNL     1      49.663  30.237  50.344  0.00  0.00    +0.000 C 
ATOM      6  C   UNL     1      49.101  31.300  49.387  0.00  0.00    +0.000 C 
ATOM      7  H   UNL     1      47.298  30.291  49.770  0.00  0.00    +0.000 HD
ATOM      8  H   UNL     1      48.033  29.838  46.928  0.00  0.00    +0.000 HD
ATOM      9  H   UNL     1      47.439  28.664  48.108  0.00  0.00    +0.000 HD
ATOM     10  H   UNL     1      50.280  29.649  47.514  0.00  0.00    +0.000 HD
ATOM     11  H   UNL     1      49.642  27.995  47.763  0.00  0.00    +0.000 HD
ATOM     12  H   UNL     1      49.615  28.116  50.089  0.00  0.00    +0.000 HD
ATOM     13  H   UNL     1      51.147  28.838  49.553  0.00  0.00    +0.000 HD
ATOM     14  H   UNL     1      50.568  30.647  50.844  0.00  0.00    +0.000 HD
ATOM     15  H   UNL     1      48.900  30.034  51.098  0.00  0.00    +0.000 HD
ATOM     16  H   UNL     1      49.803  31.543  48.590  0.00  0.00    +0.000 HD
ENDROOT
BRANCH   1  20
ATOM     17  C   UNL     1      45.806  33.226  46.356  0.00  0.00    +0.000 A 
ATOM     18  C   UNL     1      45.199  33.140  47.620  0.00  0.00    +0.000 A 
ATOM     19  C   UNL     1      45.772  32.329  48.538  0.00  0.00    +0.000 A 
ATOM     20  C   UNL     1      46.936  31.605  48.213  0.00  0.00    +0.000 A 
ATOM     21  S   UNL     1      47.242  32.108  46.490  0.00  0.00    +0.000 S 
ATOM     22  H   UNL     1      44.307  33.691  47.875  0.00  0.00    +0.000 HD
ATOM     23  H   UNL     1      45.463  32.130  49.552  0.00  0.00    +0.000 HD
BRANCH  17  28
ATOM     24  C   UNL     1      44.312  35.911  44.257  0.00  0.00    +0.000 A 
ATOM     25  C   UNL     1      44.496  35.340  42.972  0.00  0.00    +0.000 A 
ATOM     26  C   UNL     1      45.120  34.069  42.882  0.00  0.00    +0.000 A 
ATOM     27  N   UNL     1      45.498  33.487  44.057  0.00  0.00    +0.000 NA
ATOM     28  C   UNL     1      45.306  34.062  45.259  0.00  0.00    +0.000 A 
ATOM     29  N   UNL     1      44.715  35.267  45.344  0.00  0.00    +0.000 NA
ATOM     30  H   UNL     1      43.839  36.881  44.359  0.00  0.00    +0.000 HD
ATOM     31  H   UNL     1      44.176  35.848  42.086  0.00  0.00    +0.000 HD
ATOM     32  H   UNL     1      45.284  33.589  41.926  0.00  0.00    +0.000 HD
ENDBRANCH  17  28
ENDBRANCH   1  20
BRANCH   6  33
ATOM     33  C   UNL     1      48.769  32.502  50.257  0.00  0.00    +0.000 C 
ATOM     34  F   UNL     1      47.597  33.108  49.845  0.00  0.00    +0.000 F 
ATOM     35  F   UNL     1      48.697  32.108  51.573  0.00  0.00    +0.000 F 
ATOM     36  F   UNL     1      49.795  33.398  50.123  0.00  0.00    +0.000 F 
ENDBRANCH   6  33
TORSDOF 3
