
 OpenBabel03242514413D

 27 28  0  0  1  0  0  0  0  0999 V2000
   38.1960   29.8060   41.4440 N   0  0  0  0  0  0  0  0  0  0  0  0
   39.0020   30.8700   40.8520 C   0  0  0  0  0  0  0  0  0  0  0  0
   38.3300   32.2120   40.9510 C   0  0  0  0  0  0  0  0  0  0  0  0
   36.9870   32.2360   40.4970 N   0  0  0  0  0  0  0  0  0  0  0  0
   36.2130   31.0920   40.7720 C   0  0  0  0  0  0  0  0  0  0  0  0
   36.7990   29.9870   41.5620 C   0  0  1  0  0  0  0  0  0  0  0  0
   39.9170   30.9270   41.4960 H   0  0  0  0  0  0  0  0  0  0  0  0
   39.2390   30.5740   39.8120 H   0  0  0  0  0  0  0  0  0  0  0  0
   38.4630   32.6100   41.9740 H   0  0  0  0  0  0  0  0  0  0  0  0
   38.9130   32.8970   40.2770 H   0  0  0  0  0  0  0  0  0  0  0  0
   36.8500   32.6500   39.5530 H   0  0  0  0  0  0  0  0  0  0  0  0
   35.2920   31.4400   41.3050 H   0  0  0  0  0  0  0  0  0  0  0  0
   35.8220   30.7010   39.7970 H   0  0  0  0  0  0  0  0  0  0  0  0
   36.5510   30.1200   42.6500 H   0  0  0  0  0  0  0  0  0  0  0  0
   39.5080   27.0280   43.5650 C   0  0  0  0  0  0  0  0  0  0  0  0
   38.8650   28.2300   43.2330 C   0  0  0  0  0  0  0  0  0  0  0  0
   38.8100   28.6190   41.8950 C   0  0  0  0  0  0  0  0  0  0  0  0
   39.4020   27.7750   40.9930 N   0  0  0  0  0  0  0  0  0  0  0  0
   40.0120   26.6230   41.3470 C   0  0  0  0  0  0  0  0  0  0  0  0
   40.0600   26.2560   42.6420 N   0  0  0  0  0  0  0  0  0  0  0  0
   39.5070   26.8030   44.6060 H   0  0  0  0  0  0  0  0  0  0  0  0
   38.4130   28.8540   43.9910 H   0  0  0  0  0  0  0  0  0  0  0  0
   40.4530   26.0180   40.5590 H   0  0  0  0  0  0  0  0  0  0  0  0
   36.1030   28.7090   41.1470 C   0  0  0  0  0  0  0  0  0  0  0  0
   36.0900   27.8350   42.2020 F   0  0  0  0  0  0  0  0  0  0  0  0
   36.7160   28.1530   40.0260 F   0  0  0  0  0  0  0  0  0  0  0  0
   34.7780   28.9850   40.8390 F   0  0  0  0  0  0  0  0  0  0  0  0
  1  6  1  0  0  0  0
  1 17  1  0  0  0  0
  2  3  1  0  0  0  0
  2  1  1  0  0  0  0
  2  7  1  0  0  0  0
  3  9  1  0  0  0  0
  4  5  1  0  0  0  0
  4  3  1  0  0  0  0
  5 12  1  0  0  0  0
  5  6  1  0  0  0  0
  6 14  1  1  0  0  0
  8  2  1  0  0  0  0
 10  3  1  0  0  0  0
 11  4  1  0  0  0  0
 13  5  1  0  0  0  0
 15 21  1  0  0  0  0
 16 15  1  0  0  0  0
 16 22  1  0  0  0  0
 17 16  2  0  0  0  0
 18 19  2  0  0  0  0
 18 17  1  0  0  0  0
 19 20  1  0  0  0  0
 20 15  2  0  0  0  0
 23 19  1  0  0  0  0
 24  6  1  0  0  0  0
 24 25  1  0  0  0  0
 26 24  1  0  0  0  0
 27 24  1  0  0  0  0
M  END
>  <minimizedAffinity>
-4.65291214

$$$$

 OpenBabel03242514413D

 27 28  0  0  1  0  0  0  0  0999 V2000
   37.0950   28.2090   41.1200 N   0  0  0  0  0  0  0  0  0  0  0  0
   35.7080   28.3320   40.6780 C   0  0  0  0  0  0  0  0  0  0  0  0
   35.4010   29.7070   40.1530 C   0  0  0  0  0  0  0  0  0  0  0  0
   35.7910   30.7680   41.0090 N   0  0  0  0  0  0  0  0  0  0  0  0
   36.9950   30.5890   41.7190 C   0  0  0  0  0  0  0  0  0  0  0  0
   37.8050   29.3740   41.4860 C   0  0  1  0  0  0  0  0  0  0  0  0
   35.6240   27.6340   39.8050 H   0  0  0  0  0  0  0  0  0  0  0  0
   35.0580   28.0290   41.5210 H   0  0  0  0  0  0  0  0  0  0  0  0
   35.7910   29.7980   39.1220 H   0  0  0  0  0  0  0  0  0  0  0  0
   34.2820   29.7580   40.0620 H   0  0  0  0  0  0  0  0  0  0  0  0
   35.0160   31.2030   41.5490 H   0  0  0  0  0  0  0  0  0  0  0  0
   37.6400   31.4760   41.4960 H   0  0  0  0  0  0  0  0  0  0  0  0
   36.7670   30.6950   42.8110 H   0  0  0  0  0  0  0  0  0  0  0  0
   38.5810   29.5760   40.6980 H   0  0  0  0  0  0  0  0  0  0  0  0
   38.0340   24.7130   42.0350 C   0  0  0  0  0  0  0  0  0  0  0  0
   37.3460   25.9350   42.0680 C   0  0  0  0  0  0  0  0  0  0  0  0
   37.7110   26.9410   41.1740 C   0  0  0  0  0  0  0  0  0  0  0  0
   38.7370   26.6460   40.3160 N   0  0  0  0  0  0  0  0  0  0  0  0
   39.3790   25.4570   40.3090 C   0  0  0  0  0  0  0  0  0  0  0  0
   39.0180   24.4920   41.1760 N   0  0  0  0  0  0  0  0  0  0  0  0
   37.6950   23.9990   42.7490 H   0  0  0  0  0  0  0  0  0  0  0  0
   36.5410   26.1080   42.7690 H   0  0  0  0  0  0  0  0  0  0  0  0
   40.1810   25.3160   39.5900 H   0  0  0  0  0  0  0  0  0  0  0  0
   38.5850   29.0950   42.7520 C   0  0  0  0  0  0  0  0  0  0  0  0
   39.7200   28.3930   42.4420 F   0  0  0  0  0  0  0  0  0  0  0  0
   37.7970   28.4160   43.6790 F   0  0  0  0  0  0  0  0  0  0  0  0
   38.9980   30.2950   43.3130 F   0  0  0  0  0  0  0  0  0  0  0  0
  1 17  1  0  0  0  0
  1  6  1  0  0  0  0
  2  1  1  0  0  0  0
  2  8  1  0  0  0  0
  3  2  1  0  0  0  0
  3  4  1  0  0  0  0
  4 11  1  0  0  0  0
  4  5  1  0  0  0  0
  5 13  1  0  0  0  0
  6 14  1  6  0  0  0
  6  5  1  0  0  0  0
  6 24  1  0  0  0  0
  7  2  1  0  0  0  0
  9  3  1  0  0  0  0
 10  3  1  0  0  0  0
 12  5  1  0  0  0  0
 15 16  1  0  0  0  0
 15 21  1  0  0  0  0
 16 22  1  0  0  0  0
 17 16  2  0  0  0  0
 18 17  1  0  0  0  0
 19 18  2  0  0  0  0
 19 20  1  0  0  0  0
 20 15  2  0  0  0  0
 23 19  1  0  0  0  0
 24 27  1  0  0  0  0
 24 26  1  0  0  0  0
 25 24  1  0  0  0  0
M  END
>  <minimizedAffinity>
-4.45926571

$$$$

 OpenBabel03242514413D

 27 28  0  0  1  0  0  0  0  0999 V2000
   38.2360   29.8360   41.5110 N   0  0  0  0  0  0  0  0  0  0  0  0
   38.8970   29.4890   42.7660 C   0  0  0  0  0  0  0  0  0  0  0  0
   38.6640   28.0550   43.1520 C   0  0  0  0  0  0  0  0  0  0  0  0
   37.3060   27.6500   43.1280 N   0  0  0  0  0  0  0  0  0  0  0  0
   36.5080   28.1920   42.1010 C   0  0  0  0  0  0  0  0  0  0  0  0
   37.1270   29.0710   41.0850 C   0  0  1  0  0  0  0  0  0  0  0  0
   39.9920   29.5830   42.5460 H   0  0  0  0  0  0  0  0  0  0  0  0
   38.5610   30.2110   43.5350 H   0  0  0  0  0  0  0  0  0  0  0  0
   39.3350   27.4060   42.5600 H   0  0  0  0  0  0  0  0  0  0  0  0
   39.0110   27.9630   44.2170 H   0  0  0  0  0  0  0  0  0  0  0  0
   36.8490   27.5890   44.0610 H   0  0  0  0  0  0  0  0  0  0  0  0
   36.0370   27.3300   41.5640 H   0  0  0  0  0  0  0  0  0  0  0  0
   35.6390   28.7120   42.5810 H   0  0  0  0  0  0  0  0  0  0  0  0
   37.4390   28.4640   40.1920 H   0  0  0  0  0  0  0  0  0  0  0  0
   39.7220   31.9310   38.8020 C   0  0  0  0  0  0  0  0  0  0  0  0
   39.2870   30.7820   39.4790 C   0  0  0  0  0  0  0  0  0  0  0  0
   38.7050   30.9190   40.7380 C   0  0  0  0  0  0  0  0  0  0  0  0
   38.6030   32.1960   41.2230 N   0  0  0  0  0  0  0  0  0  0  0  0
   39.0330   33.2830   40.5450 C   0  0  0  0  0  0  0  0  0  0  0  0
   39.5930   33.1400   39.3290 N   0  0  0  0  0  0  0  0  0  0  0  0
   40.1550   31.7410   37.8480 H   0  0  0  0  0  0  0  0  0  0  0  0
   39.3910   29.7990   39.0410 H   0  0  0  0  0  0  0  0  0  0  0  0
   38.9090   34.2550   41.0130 H   0  0  0  0  0  0  0  0  0  0  0  0
   36.0530   30.0070   40.5760 C   0  0  0  0  0  0  0  0  0  0  0  0
   36.3410   30.3710   39.2870 F   0  0  0  0  0  0  0  0  0  0  0  0
   35.9270   31.1160   41.4090 F   0  0  0  0  0  0  0  0  0  0  0  0
   34.8370   29.3370   40.5390 F   0  0  0  0  0  0  0  0  0  0  0  0
  1  2  1  0  0  0  0
  2  3  1  0  0  0  0
  2  8  1  0  0  0  0
  3 10  1  0  0  0  0
  4  3  1  0  0  0  0
  4 11  1  0  0  0  0
  5 13  1  0  0  0  0
  5  4  1  0  0  0  0
  6 14  1  6  0  0  0
  6  1  1  0  0  0  0
  6  5  1  0  0  0  0
  7  2  1  0  0  0  0
  9  3  1  0  0  0  0
 12  5  1  0  0  0  0
 15 20  2  0  0  0  0
 15 16  1  0  0  0  0
 16 17  2  0  0  0  0
 17 18  1  0  0  0  0
 17  1  1  0  0  0  0
 19 23  1  0  0  0  0
 19 18  2  0  0  0  0
 20 19  1  0  0  0  0
 21 15  1  0  0  0  0
 22 16  1  0  0  0  0
 24  6  1  0  0  0  0
 24 26  1  0  0  0  0
 25 24  1  0  0  0  0
 27 24  1  0  0  0  0
M  END
>  <minimizedAffinity>
-4.34347105

$$$$

 OpenBabel03242514413D

 27 28  0  0  1  0  0  0  0  0999 V2000
   38.7310   28.2620   41.9870 N   0  0  0  0  0  0  0  0  0  0  0  0
   39.8160   28.8240   42.7880 C   0  0  0  0  0  0  0  0  0  0  0  0
   40.8600   27.7970   43.1270 C   0  0  0  0  0  0  0  0  0  0  0  0
   40.3490   26.5940   43.6780 N   0  0  0  0  0  0  0  0  0  0  0  0
   39.1230   26.1370   43.1560 C   0  0  0  0  0  0  0  0  0  0  0  0
   38.4870   26.8710   42.0410 C   0  0  1  0  0  0  0  0  0  0  0  0
   40.3120   29.5680   42.1120 H   0  0  0  0  0  0  0  0  0  0  0  0
   39.3650   29.3020   43.6780 H   0  0  0  0  0  0  0  0  0  0  0  0
   41.5170   27.6430   42.2510 H   0  0  0  0  0  0  0  0  0  0  0  0
   41.5070   28.2660   43.9170 H   0  0  0  0  0  0  0  0  0  0  0  0
   40.4550   26.5040   44.7090 H   0  0  0  0  0  0  0  0  0  0  0  0
   39.2840   25.0810   42.8210 H   0  0  0  0  0  0  0  0  0  0  0  0
   38.4040   26.0370   44.0100 H   0  0  0  0  0  0  0  0  0  0  0  0
   38.7970   26.4210   41.0590 H   0  0  0  0  0  0  0  0  0  0  0  0
   37.1780   29.9950   39.0680 C   0  0  0  0  0  0  0  0  0  0  0  0
   38.0060   29.1130   39.7780 C   0  0  0  0  0  0  0  0  0  0  0  0
   37.9450   29.1010   41.1710 C   0  0  0  0  0  0  0  0  0  0  0  0
   37.0590   29.9740   41.7460 N   0  0  0  0  0  0  0  0  0  0  0  0
   36.2750   30.8120   41.0320 C   0  0  0  0  0  0  0  0  0  0  0  0
   36.3410   30.8150   39.6870 N   0  0  0  0  0  0  0  0  0  0  0  0
   37.2860   29.9430   38.0100 H   0  0  0  0  0  0  0  0  0  0  0  0
   38.6840   28.4440   39.2660 H   0  0  0  0  0  0  0  0  0  0  0  0
   35.6030   31.4680   41.5780 H   0  0  0  0  0  0  0  0  0  0  0  0
   36.9950   26.6390   42.1340 C   0  0  0  0  0  0  0  0  0  0  0  0
   36.4240   26.8530   40.9060 F   0  0  0  0  0  0  0  0  0  0  0  0
   36.4270   27.4510   43.1140 F   0  0  0  0  0  0  0  0  0  0  0  0
   36.7540   25.3120   42.4610 F   0  0  0  0  0  0  0  0  0  0  0  0
  1  6  1  0  0  0  0
  1  2  1  0  0  0  0
  2  3  1  0  0  0  0
  2  8  1  0  0  0  0
  3  4  1  0  0  0  0
  3 10  1  0  0  0  0
  4 11  1  0  0  0  0
  5  4  1  0  0  0  0
  5 13  1  0  0  0  0
  6 14  1  6  0  0  0
  6 24  1  0  0  0  0
  6  5  1  0  0  0  0
  7  2  1  0  0  0  0
  9  3  1  0  0  0  0
 12  5  1  0  0  0  0
 15 20  2  0  0  0  0
 15 16  1  0  0  0  0
 16 17  2  0  0  0  0
 17 18  1  0  0  0  0
 17  1  1  0  0  0  0
 19 23  1  0  0  0  0
 19 18  2  0  0  0  0
 20 19  1  0  0  0  0
 21 15  1  0  0  0  0
 22 16  1  0  0  0  0
 24 27  1  0  0  0  0
 24 26  1  0  0  0  0
 25 24  1  0  0  0  0
M  END
>  <minimizedAffinity>
-4.34271622

$$$$

 OpenBabel03242514413D

 27 28  0  0  1  0  0  0  0  0999 V2000
   39.0630   26.5180   42.1910 N   0  0  0  0  0  0  0  0  0  0  0  0
   40.1720   26.4070   43.1360 C   0  0  0  0  0  0  0  0  0  0  0  0
   40.8480   25.0660   43.0600 C   0  0  0  0  0  0  0  0  0  0  0  0
   39.9690   23.9560   43.1270 N   0  0  0  0  0  0  0  0  0  0  0  0
   38.7250   24.1020   42.4810 C   0  0  0  0  0  0  0  0  0  0  0  0
   38.4380   25.3400   41.7250 C   0  0  1  0  0  0  0  0  0  0  0  0
   40.9230   27.1600   42.7830 H   0  0  0  0  0  0  0  0  0  0  0  0
   39.7810   26.6450   44.1430 H   0  0  0  0  0  0  0  0  0  0  0  0
   41.5240   25.0490   42.1850 H   0  0  0  0  0  0  0  0  0  0  0  0
   41.5140   25.0070   43.9630 H   0  0  0  0  0  0  0  0  0  0  0  0
   39.9370   23.4760   44.0490 H   0  0  0  0  0  0  0  0  0  0  0  0
   38.6210   23.2400   41.7750 H   0  0  0  0  0  0  0  0  0  0  0  0
   37.9220   23.9210   43.2400 H   0  0  0  0  0  0  0  0  0  0  0  0
   38.7110   25.2010   40.6430 H   0  0  0  0  0  0  0  0  0  0  0  0
   37.6020   29.9500   42.0250 C   0  0  0  0  0  0  0  0  0  0  0  0
   37.9930   28.7180   42.5710 C   0  0  0  0  0  0  0  0  0  0  0  0
   38.6300   27.7870   41.7530 C   0  0  0  0  0  0  0  0  0  0  0  0
   38.8270   28.1600   40.4490 N   0  0  0  0  0  0  0  0  0  0  0  0
   38.4380   29.3550   39.9540 C   0  0  0  0  0  0  0  0  0  0  0  0
   37.8240   30.2480   40.7530 N   0  0  0  0  0  0  0  0  0  0  0  0
   37.1220   30.6040   42.7140 H   0  0  0  0  0  0  0  0  0  0  0  0
   37.8120   28.4830   43.6110 H   0  0  0  0  0  0  0  0  0  0  0  0
   38.6390   29.5610   38.9060 H   0  0  0  0  0  0  0  0  0  0  0  0
   36.9390   25.5440   41.7350 C   0  0  0  0  0  0  0  0  0  0  0  0
   36.5710   26.2720   40.6330 F   0  0  0  0  0  0  0  0  0  0  0  0
   36.5310   26.1590   42.9170 F   0  0  0  0  0  0  0  0  0  0  0  0
   36.3050   24.3140   41.6310 F   0  0  0  0  0  0  0  0  0  0  0  0
  1  2  1  0  0  0  0
  2  8  1  0  0  0  0
  3  4  1  0  0  0  0
  3  2  1  0  0  0  0
  3 10  1  0  0  0  0
  4 11  1  0  0  0  0
  5  4  1  0  0  0  0
  5 13  1  0  0  0  0
  6 14  1  6  0  0  0
  6 24  1  0  0  0  0
  6  1  1  0  0  0  0
  6  5  1  0  0  0  0
  7  2  1  0  0  0  0
  9  3  1  0  0  0  0
 12  5  1  0  0  0  0
 15 16  1  0  0  0  0
 15 21  1  0  0  0  0
 16 22  1  0  0  0  0
 17  1  1  0  0  0  0
 17 16  2  0  0  0  0
 18 17  1  0  0  0  0
 19 18  2  0  0  0  0
 19 20  1  0  0  0  0
 20 15  2  0  0  0  0
 23 19  1  0  0  0  0
 24 26  1  0  0  0  0
 25 24  1  0  0  0  0
 27 24  1  0  0  0  0
M  END
>  <minimizedAffinity>
-4.32600117

$$$$

 OpenBabel03242514413D

 27 28  0  0  1  0  0  0  0  0999 V2000
   37.7480   30.0810   41.1810 N   0  0  0  0  0  0  0  0  0  0  0  0
   36.5620   30.8450   40.8010 C   0  0  0  0  0  0  0  0  0  0  0  0
   36.9110   32.0780   40.0150 C   0  0  0  0  0  0  0  0  0  0  0  0
   37.9110   32.8920   40.6050 N   0  0  0  0  0  0  0  0  0  0  0  0
   38.9550   32.2190   41.2690 C   0  0  0  0  0  0  0  0  0  0  0  0
   38.9950   30.7400   41.2530 C   0  0  1  0  0  0  0  0  0  0  0  0
   36.0030   30.1720   40.1000 H   0  0  0  0  0  0  0  0  0  0  0  0
   35.9890   31.0590   41.7230 H   0  0  0  0  0  0  0  0  0  0  0  0
   37.1260   31.7940   38.9690 H   0  0  0  0  0  0  0  0  0  0  0  0
   35.9720   32.6940   39.9780 H   0  0  0  0  0  0  0  0  0  0  0  0
   37.5570   33.7450   41.0840 H   0  0  0  0  0  0  0  0  0  0  0  0
   39.9150   32.5900   40.8290 H   0  0  0  0  0  0  0  0  0  0  0  0
   38.9860   32.5920   42.3250 H   0  0  0  0  0  0  0  0  0  0  0  0
   39.6320   30.3830   40.3990 H   0  0  0  0  0  0  0  0  0  0  0  0
   36.8820   26.7950   42.7280 C   0  0  0  0  0  0  0  0  0  0  0  0
   36.9130   28.1850   42.5370 C   0  0  0  0  0  0  0  0  0  0  0  0
   37.6420   28.7040   41.4670 C   0  0  0  0  0  0  0  0  0  0  0  0
   38.2830   27.7920   40.6720 N   0  0  0  0  0  0  0  0  0  0  0  0
   38.2330   26.4590   40.8830 C   0  0  0  0  0  0  0  0  0  0  0  0
   37.5260   25.9670   41.9180 N   0  0  0  0  0  0  0  0  0  0  0  0
   36.3050   26.4800   43.5650 H   0  0  0  0  0  0  0  0  0  0  0  0
   36.3820   28.8540   43.1990 H   0  0  0  0  0  0  0  0  0  0  0  0
   38.7750   25.8140   40.1960 H   0  0  0  0  0  0  0  0  0  0  0  0
   39.7160   30.2890   42.5050 C   0  0  0  0  0  0  0  0  0  0  0  0
   40.4200   29.1450   42.2360 F   0  0  0  0  0  0  0  0  0  0  0  0
   38.8180   30.1070   43.5540 F   0  0  0  0  0  0  0  0  0  0  0  0
   40.6440   31.2520   42.8750 F   0  0  0  0  0  0  0  0  0  0  0  0
  1  6  1  0  0  0  0
  1 17  1  0  0  0  0
  2  1  1  0  0  0  0
  2  8  1  0  0  0  0
  3  4  1  0  0  0  0
  3  2  1  0  0  0  0
  4 11  1  0  0  0  0
  4  5  1  0  0  0  0
  5 13  1  0  0  0  0
  6 14  1  6  0  0  0
  6  5  1  0  0  0  0
  6 24  1  0  0  0  0
  7  2  1  0  0  0  0
  9  3  1  0  0  0  0
 10  3  1  0  0  0  0
 12  5  1  0  0  0  0
 15 21  1  0  0  0  0
 16 15  1  0  0  0  0
 16 22  1  0  0  0  0
 17 16  2  0  0  0  0
 18 19  2  0  0  0  0
 18 17  1  0  0  0  0
 19 20  1  0  0  0  0
 20 15  2  0  0  0  0
 23 19  1  0  0  0  0
 24 27  1  0  0  0  0
 24 26  1  0  0  0  0
 25 24  1  0  0  0  0
M  END
>  <minimizedAffinity>
-4.32598734

$$$$

 OpenBabel03242514413D

 27 28  0  0  1  0  0  0  0  0999 V2000
   38.2340   31.1950   40.9000 N   0  0  0  0  0  0  0  0  0  0  0  0
   39.2320   32.2570   41.0010 C   0  0  0  0  0  0  0  0  0  0  0  0
   38.6570   33.6070   40.6740 C   0  0  0  0  0  0  0  0  0  0  0  0
   37.9310   33.6620   39.4570 N   0  0  0  0  0  0  0  0  0  0  0  0
   37.1650   32.5260   39.1330 C   0  0  0  0  0  0  0  0  0  0  0  0
   37.0970   31.3960   40.0860 C   0  0  1  0  0  0  0  0  0  0  0  0
   39.5080   32.2860   42.0870 H   0  0  0  0  0  0  0  0  0  0  0  0
   40.0880   31.9780   40.3580 H   0  0  0  0  0  0  0  0  0  0  0  0
   38.0930   33.9830   41.5480 H   0  0  0  0  0  0  0  0  0  0  0  0
   39.5370   34.2960   40.5580 H   0  0  0  0  0  0  0  0  0  0  0  0
   38.4410   34.0960   38.6610 H   0  0  0  0  0  0  0  0  0  0  0  0
   36.1190   32.8790   38.9490 H   0  0  0  0  0  0  0  0  0  0  0  0
   37.5020   32.1600   38.1290 H   0  0  0  0  0  0  0  0  0  0  0  0
   36.2010   31.5120   40.7540 H   0  0  0  0  0  0  0  0  0  0  0  0
   39.5280   27.9240   42.1510 C   0  0  0  0  0  0  0  0  0  0  0  0
   39.4570   29.0980   41.3860 C   0  0  0  0  0  0  0  0  0  0  0  0
   38.4090   29.9890   41.6100 C   0  0  0  0  0  0  0  0  0  0  0  0
   37.5120   29.6370   42.5840 N   0  0  0  0  0  0  0  0  0  0  0  0
   37.6090   28.4980   43.3040 C   0  0  0  0  0  0  0  0  0  0  0  0
   38.6250   27.6440   43.0800 N   0  0  0  0  0  0  0  0  0  0  0  0
   40.3560   27.2970   41.9190 H   0  0  0  0  0  0  0  0  0  0  0  0
   40.1990   29.3220   40.6320 H   0  0  0  0  0  0  0  0  0  0  0  0
   36.8480   28.3060   44.0560 H   0  0  0  0  0  0  0  0  0  0  0  0
   36.8390   30.1380   39.2850 C   0  0  0  0  0  0  0  0  0  0  0  0
   36.0530   30.4400   38.2040 F   0  0  0  0  0  0  0  0  0  0  0  0
   36.2600   29.1540   40.0840 F   0  0  0  0  0  0  0  0  0  0  0  0
   38.0400   29.6560   38.7850 F   0  0  0  0  0  0  0  0  0  0  0  0
  1  2  1  0  0  0  0
  1 17  1  0  0  0  0
  2  7  1  0  0  0  0
  3  2  1  0  0  0  0
  3  9  1  0  0  0  0
  4  3  1  0  0  0  0
  5  4  1  0  0  0  0
  5  6  1  0  0  0  0
  6 14  1  1  0  0  0
  6  1  1  0  0  0  0
  8  2  1  0  0  0  0
 10  3  1  0  0  0  0
 11  4  1  0  0  0  0
 12  5  1  0  0  0  0
 13  5  1  0  0  0  0
 15 20  1  0  0  0  0
 16 17  1  0  0  0  0
 16 15  2  0  0  0  0
 17 18  2  0  0  0  0
 18 19  1  0  0  0  0
 19 23  1  0  0  0  0
 20 19  2  0  0  0  0
 21 15  1  0  0  0  0
 22 16  1  0  0  0  0
 24 26  1  0  0  0  0
 24  6  1  0  0  0  0
 25 24  1  0  0  0  0
 27 24  1  0  0  0  0
M  END
>  <minimizedAffinity>
-4.25325251

$$$$

 OpenBabel03242514413D

 27 28  0  0  1  0  0  0  0  0999 V2000
   38.7890   30.0760   39.6530 N   0  0  0  0  0  0  0  0  0  0  0  0
   39.6130   29.2710   38.7550 C   0  0  0  0  0  0  0  0  0  0  0  0
   40.5500   30.1160   37.9370 C   0  0  0  0  0  0  0  0  0  0  0  0
   39.9350   31.2070   37.2730 N   0  0  0  0  0  0  0  0  0  0  0  0
   38.8990   31.8610   37.9680 C   0  0  0  0  0  0  0  0  0  0  0  0
   38.5650   31.4370   39.3460 C   0  0  1  0  0  0  0  0  0  0  0  0
   40.2560   28.6550   39.4360 H   0  0  0  0  0  0  0  0  0  0  0  0
   38.9340   28.6490   38.1420 H   0  0  0  0  0  0  0  0  0  0  0  0
   41.4170   30.4040   38.5600 H   0  0  0  0  0  0  0  0  0  0  0  0
   40.9570   29.4380   37.1390 H   0  0  0  0  0  0  0  0  0  0  0  0
   39.7670   31.0640   36.2560 H   0  0  0  0  0  0  0  0  0  0  0  0
   39.1620   32.9480   38.0010 H   0  0  0  0  0  0  0  0  0  0  0  0
   37.9820   31.8300   37.3250 H   0  0  0  0  0  0  0  0  0  0  0  0
   39.1310   32.0640   40.0870 H   0  0  0  0  0  0  0  0  0  0  0  0
   38.0380   29.1310   43.1860 C   0  0  0  0  0  0  0  0  0  0  0  0
   38.6670   29.7700   42.1070 C   0  0  0  0  0  0  0  0  0  0  0  0
   38.2300   29.4970   40.8120 C   0  0  0  0  0  0  0  0  0  0  0  0
   37.1970   28.6050   40.6960 N   0  0  0  0  0  0  0  0  0  0  0  0
   36.6120   28.0070   41.7570 C   0  0  0  0  0  0  0  0  0  0  0  0
   37.0410   28.2770   43.0040 N   0  0  0  0  0  0  0  0  0  0  0  0
   38.4300   29.3930   44.1410 H   0  0  0  0  0  0  0  0  0  0  0  0
   39.4770   30.4690   42.2630 H   0  0  0  0  0  0  0  0  0  0  0  0
   35.7980   27.3130   41.5640 H   0  0  0  0  0  0  0  0  0  0  0  0
   37.1060   31.7590   39.5820 C   0  0  0  0  0  0  0  0  0  0  0  0
   36.8730   31.8520   40.9300 F   0  0  0  0  0  0  0  0  0  0  0  0
   36.2850   30.8070   38.9830 F   0  0  0  0  0  0  0  0  0  0  0  0
   36.8150   33.0030   39.0400 F   0  0  0  0  0  0  0  0  0  0  0  0
  1 17  1  0  0  0  0
  2  7  1  0  0  0  0
  2  1  1  0  0  0  0
  3  9  1  0  0  0  0
  3  2  1  0  0  0  0
  4  3  1  0  0  0  0
  4  5  1  0  0  0  0
  5 12  1  0  0  0  0
  5  6  1  0  0  0  0
  6 24  1  0  0  0  0
  6  1  1  0  0  0  0
  6 14  1  1  0  0  0
  8  2  1  0  0  0  0
 10  3  1  0  0  0  0
 11  4  1  0  0  0  0
 13  5  1  0  0  0  0
 15 21  1  0  0  0  0
 16 22  1  0  0  0  0
 16 15  2  0  0  0  0
 17 16  1  0  0  0  0
 18 17  2  0  0  0  0
 18 19  1  0  0  0  0
 19 20  2  0  0  0  0
 20 15  1  0  0  0  0
 23 19  1  0  0  0  0
 24 25  1  0  0  0  0
 26 24  1  0  0  0  0
 27 24  1  0  0  0  0
M  END
>  <minimizedAffinity>
-4.23617744

$$$$

 OpenBabel03242514413D

 27 28  0  0  1  0  0  0  0  0999 V2000
   37.7420   29.2850   39.4050 N   0  0  0  0  0  0  0  0  0  0  0  0
   37.6470   28.2750   38.3540 C   0  0  0  0  0  0  0  0  0  0  0  0
   38.2460   28.7490   37.0580 C   0  0  0  0  0  0  0  0  0  0  0  0
   37.7920   30.0210   36.6270 N   0  0  0  0  0  0  0  0  0  0  0  0
   37.5650   30.9790   37.6350 C   0  0  0  0  0  0  0  0  0  0  0  0
   37.8730   30.6440   39.0420 C   0  0  1  0  0  0  0  0  0  0  0  0
   38.2930   27.4310   38.7100 H   0  0  0  0  0  0  0  0  0  0  0  0
   36.5840   27.9810   38.2640 H   0  0  0  0  0  0  0  0  0  0  0  0
   39.3470   28.6620   37.1140 H   0  0  0  0  0  0  0  0  0  0  0  0
   37.9190   28.0070   36.2800 H   0  0  0  0  0  0  0  0  0  0  0  0
   37.0840   30.0000   35.8650 H   0  0  0  0  0  0  0  0  0  0  0  0
   38.1600   31.8870   37.3630 H   0  0  0  0  0  0  0  0  0  0  0  0
   36.5020   31.3230   37.5460 H   0  0  0  0  0  0  0  0  0  0  0  0
   38.9150   30.9780   39.2960 H   0  0  0  0  0  0  0  0  0  0  0  0
   36.7040   27.9130   42.7190 C   0  0  0  0  0  0  0  0  0  0  0  0
   36.6300   28.2440   41.3570 C   0  0  0  0  0  0  0  0  0  0  0  0
   37.7060   28.9000   40.7620 C   0  0  0  0  0  0  0  0  0  0  0  0
   38.7730   29.1760   41.5750 N   0  0  0  0  0  0  0  0  0  0  0  0
   38.8130   28.8430   42.8840 C   0  0  0  0  0  0  0  0  0  0  0  0
   37.7680   28.2090   43.4500 N   0  0  0  0  0  0  0  0  0  0  0  0
   35.8420   27.4150   43.0970 H   0  0  0  0  0  0  0  0  0  0  0  0
   35.7600   27.9960   40.7650 H   0  0  0  0  0  0  0  0  0  0  0  0
   39.7040   29.1040   43.4480 H   0  0  0  0  0  0  0  0  0  0  0  0
   36.9620   31.4750   39.9190 C   0  0  0  0  0  0  0  0  0  0  0  0
   37.5980   31.7520   41.1010 F   0  0  0  0  0  0  0  0  0  0  0  0
   35.7480   30.8250   40.1280 F   0  0  0  0  0  0  0  0  0  0  0  0
   36.7150   32.6940   39.3030 F   0  0  0  0  0  0  0  0  0  0  0  0
  1 17  1  0  0  0  0
  2  7  1  0  0  0  0
  2  1  1  0  0  0  0
  3  9  1  0  0  0  0
  3  2  1  0  0  0  0
  4  3  1  0  0  0  0
  4  5  1  0  0  0  0
  5  6  1  0  0  0  0
  6 14  1  1  0  0  0
  6  1  1  0  0  0  0
  6 24  1  0  0  0  0
  8  2  1  0  0  0  0
 10  3  1  0  0  0  0
 11  4  1  0  0  0  0
 12  5  1  0  0  0  0
 13  5  1  0  0  0  0
 15 21  1  0  0  0  0
 15 20  1  0  0  0  0
 16 15  2  0  0  0  0
 17 16  1  0  0  0  0
 17 18  2  0  0  0  0
 18 19  1  0  0  0  0
 19 23  1  0  0  0  0
 19 20  2  0  0  0  0
 22 16  1  0  0  0  0
 24 26  1  0  0  0  0
 24 25  1  0  0  0  0
 27 24  1  0  0  0  0
M  END
>  <minimizedAffinity>
-4.17851448

$$$$
