REMARK  Name = 
REMARK  2 active torsions:
REMARK  status: ('A' for Active; 'I' for Inactive)
REMARK    1  A    between atoms: C_2  and  C_17
REMARK    2  A    between atoms: C_3  and  C_7
REMARK                            x       y       z     vdW  Elec       q    Type
REMARK                         _______ _______ _______ _____ _____    ______ ____
ROOT
ATOM      1  C   UNL     1      44.588  35.913  44.315  0.00  0.00    +0.000 A 
ATOM      2  C   UNL     1      45.352  35.920  43.102  0.00  0.00    +0.000 A 
ATOM      3  C   UNL     1      46.302  34.920  43.038  0.00  0.00    +0.000 A 
ATOM      4  N   UNL     1      46.483  34.004  44.059  0.00  0.00    +0.000 NA
ATOM      5  C   UNL     1      45.724  34.052  45.181  0.00  0.00    +0.000 A 
ATOM      6  N   UNL     1      44.787  35.006  45.294  0.00  0.00    +0.000 NA
ATOM      7  H   UNL     1      43.825  36.635  44.486  0.00  0.00    +0.000 HD
ATOM      8  H   UNL     1      46.034  33.251  45.834  0.00  0.00    +0.000 HD
ENDROOT
BRANCH   3   9
ATOM      9  C   UNL     1      47.079  34.790  41.756  0.00  0.00    +0.000 C 
ATOM     10  C   UNL     1      48.451  35.472  41.876  0.00  0.00    +0.000 C 
ATOM     11  C   UNL     1      48.232  33.937  41.737  0.00  0.00    +0.000 C 
ATOM     12  H   UNL     1      46.548  35.173  40.876  0.00  0.00    +0.000 HD
ATOM     13  H   UNL     1      48.717  35.858  42.862  0.00  0.00    +0.000 HD
ATOM     14  H   UNL     1      48.891  35.974  41.013  0.00  0.00    +0.000 HD
ATOM     15  H   UNL     1      48.638  33.500  40.776  0.00  0.00    +0.000 HD
ATOM     16  H   UNL     1      48.617  33.388  42.640  0.00  0.00    +0.000 HD
ENDBRANCH   3   9
BRANCH   2  17
ATOM     17  C   UNL     1      45.061  36.933  42.094  0.00  0.00    +0.000 C 
ATOM     18  F   UNL     1      43.873  36.661  41.443  0.00  0.00    +0.000 F 
ATOM     19  F   UNL     1      46.103  37.102  41.211  0.00  0.00    +0.000 F 
ATOM     20  F   UNL     1      44.881  38.154  42.716  0.00  0.00    +0.000 F 
ENDBRANCH   2  17
TORSDOF 2
