
 OpenBabel03252508233D

 43 45  0  0  0  0  0  0  0  0999 V2000
   46.6490   33.9030   40.0050 C   0  0  0  0  0  0  0  0  0  0  0  0
   47.9950   34.1960   39.9550 C   0  0  0  0  0  0  0  0  0  0  0  0
   48.6770   34.8870   40.9280 C   0  0  0  0  0  0  0  0  0  0  0  0
   47.9130   35.3000   42.0270 C   0  0  0  0  0  0  0  0  0  0  0  0
   46.5770   35.0340   42.1250 C   0  0  0  0  0  0  0  0  0  0  0  0
   45.9410   34.3450   41.1340 C   0  0  0  0  0  0  0  0  0  0  0  0
   48.6510   33.9040   39.1520 H   0  0  0  0  0  0  0  0  0  0  0  0
   49.7180   35.1310   40.9210 H   0  0  0  0  0  0  0  0  0  0  0  0
   48.4040   35.8570   42.8360 H   0  0  0  0  0  0  0  0  0  0  0  0
   46.0570   35.3920   43.0150 H   0  0  0  0  0  0  0  0  0  0  0  0
   44.5620   34.1130   41.3350 N   0  0  0  0  0  0  0  0  0  0  0  0
   43.5190   34.9710   40.8520 C   0  0  0  0  0  0  0  0  0  0  0  0
   42.1940   34.2410   40.7940 C   0  0  0  0  0  0  0  0  0  0  0  0
   42.2970   32.8880   40.3710 N   0  0  0  0  0  0  0  0  0  0  0  0
   43.1960   32.0950   41.1140 C   0  0  0  0  0  0  0  0  0  0  0  0
   43.9940   32.9680   42.0610 C   0  0  0  0  0  0  0  0  0  0  0  0
   43.7360   35.5720   39.9710 H   0  0  0  0  0  0  0  0  0  0  0  0
   43.3810   35.7410   41.6710 H   0  0  0  0  0  0  0  0  0  0  0  0
   41.5500   34.7840   40.0820 H   0  0  0  0  0  0  0  0  0  0  0  0
   41.7090   34.2320   41.7970 H   0  0  0  0  0  0  0  0  0  0  0  0
   41.4160   32.5010   40.0600 H   0  0  0  0  0  0  0  0  0  0  0  0
   42.6350   31.3650   41.7380 H   0  0  0  0  0  0  0  0  0  0  0  0
   43.8840   31.5050   40.4860 H   0  0  0  0  0  0  0  0  0  0  0  0
   43.3430   33.3450   42.8850 H   0  0  0  0  0  0  0  0  0  0  0  0
   44.8450   32.3540   42.4370 H   0  0  0  0  0  0  0  0  0  0  0  0
   45.9290   33.1730   38.9640 C   0  0  0  0  0  0  0  0  0  0  0  0
   45.3820   33.7910   38.2560 H   0  0  0  0  0  0  0  0  0  0  0  0
   45.1380   32.5730   39.5030 H   0  0  0  0  0  0  0  0  0  0  0  0
   46.8330   32.2100   38.2230 C   0  0  0  0  0  0  0  0  0  0  0  0
   46.8230   31.2000   38.7350 H   0  0  0  0  0  0  0  0  0  0  0  0
   47.8540   32.5300   38.0920 H   0  0  0  0  0  0  0  0  0  0  0  0
   46.4280   32.0380   34.4740 C   0  0  0  0  0  0  0  0  0  0  0  0
   46.9850   32.3050   35.7480 C   0  0  0  0  0  0  0  0  0  0  0  0
   46.2660   31.9440   36.8800 C   0  0  0  0  0  0  0  0  0  0  0  0
   45.0490   31.3490   36.6940 N   0  0  0  0  0  0  0  0  0  0  0  0
   44.5410   31.1080   35.4870 C   0  0  0  0  0  0  0  0  0  0  0  0
   45.2250   31.4500   34.3760 N   0  0  0  0  0  0  0  0  0  0  0  0
   47.0110   32.3300   33.5920 H   0  0  0  0  0  0  0  0  0  0  0  0
   47.9450   32.7750   35.8380 H   0  0  0  0  0  0  0  0  0  0  0  0
   43.1980   30.4490   35.4340 C   0  0  0  0  0  0  0  0  0  0  0  0
   42.2870   31.0600   36.3010 F   0  0  0  0  0  0  0  0  0  0  0  0
   43.2660   29.1240   35.8370 F   0  0  0  0  0  0  0  0  0  0  0  0
   42.6230   30.5180   34.1790 F   0  0  0  0  0  0  0  0  0  0  0  0
  1  6  1  0  0  0  0
  2  1  2  0  0  0  0
  2  3  1  0  0  0  0
  3  4  2  0  0  0  0
  4  5  1  0  0  0  0
  4  9  1  0  0  0  0
  5 10  1  0  0  0  0
  6 11  1  0  0  0  0
  6  5  2  0  0  0  0
  7  2  1  0  0  0  0
  8  3  1  0  0  0  0
 11 16  1  0  0  0  0
 12 11  1  0  0  0  0
 12 18  1  0  0  0  0
 13 12  1  0  0  0  0
 13 20  1  0  0  0  0
 14 13  1  0  0  0  0
 14 15  1  0  0  0  0
 15 22  1  0  0  0  0
 15 16  1  0  0  0  0
 16 25  1  0  0  0  0
 16 24  1  0  0  0  0
 17 12  1  0  0  0  0
 19 13  1  0  0  0  0
 21 14  1  0  0  0  0
 23 15  1  0  0  0  0
 26 28  1  0  0  0  0
 26  1  1  0  0  0  0
 27 26  1  0  0  0  0
 29 30  1  0  0  0  0
 29 26  1  0  0  0  0
 31 29  1  0  0  0  0
 32 33  1  0  0  0  0
 33 39  1  0  0  0  0
 33 34  2  0  0  0  0
 34 29  1  0  0  0  0
 35 34  1  0  0  0  0
 36 35  2  0  0  0  0
 37 32  2  0  0  0  0
 37 36  1  0  0  0  0
 38 32  1  0  0  0  0
 40 36  1  0  0  0  0
 40 42  1  0  0  0  0
 40 41  1  0  0  0  0
 43 40  1  0  0  0  0
M  END
>  <minimizedAffinity>
-4.65196371

>  <minimizedRMSD>
5.83464432

$$$$
