
 OpenBabel03252502313D

 19 19  0  0  0  0  0  0  0  0999 V2000
   47.8010   34.7660   42.4060 C   0  0  0  0  0  0  0  0  0  0  0  0
   48.0180   33.5220   43.0280 C   0  0  0  0  0  0  0  0  0  0  0  0
   47.0480   33.0750   43.9450 C   0  0  0  0  0  0  0  0  0  0  0  0
   45.9670   33.8710   44.1730 N   0  0  0  0  0  0  0  0  0  0  0  0
   45.8010   35.0470   43.5610 C   0  0  0  0  0  0  0  0  0  0  0  0
   46.7110   35.4930   42.6840 N   0  0  0  0  0  0  0  0  0  0  0  0
   48.8890   32.9080   42.8260 H   0  0  0  0  0  0  0  0  0  0  0  0
   48.8360   35.2260   41.4370 C   0  0  0  0  0  0  0  0  0  0  0  0
   48.4400   35.1310   40.1470 F   0  0  0  0  0  0  0  0  0  0  0  0
   49.2020   36.5360   41.7690 F   0  0  0  0  0  0  0  0  0  0  0  0
   50.0120   34.4780   41.6510 F   0  0  0  0  0  0  0  0  0  0  0  0
   44.6050   35.9000   43.8300 C   0  0  0  0  0  0  0  0  0  0  0  0
   43.5870   35.6210   42.9450 F   0  0  0  0  0  0  0  0  0  0  0  0
   44.9380   37.2500   43.8040 F   0  0  0  0  0  0  0  0  0  0  0  0
   44.1140   35.6790   45.1080 F   0  0  0  0  0  0  0  0  0  0  0  0
   47.1900   31.7900   44.6410 C   0  0  0  0  0  0  0  0  0  0  0  0
   47.4160   32.0760   45.9820 F   0  0  0  0  0  0  0  0  0  0  0  0
   48.3290   31.0970   44.2180 F   0  0  0  0  0  0  0  0  0  0  0  0
   46.0910   30.9910   44.4730 F   0  0  0  0  0  0  0  0  0  0  0  0
  1  6  2  0  0  0  0
  1  2  1  0  0  0  0
  2  3  2  0  0  0  0
  3  4  1  0  0  0  0
  3 16  1  0  0  0  0
  5 12  1  0  0  0  0
  5  4  2  0  0  0  0
  6  5  1  0  0  0  0
  7  2  1  0  0  0  0
  8 11  1  0  0  0  0
  8 10  1  0  0  0  0
  8  1  1  0  0  0  0
  9  8  1  0  0  0  0
 12 15  1  0  0  0  0
 13 12  1  0  0  0  0
 14 12  1  0  0  0  0
 16 17  1  0  0  0  0
 18 16  1  0  0  0  0
 19 16  1  0  0  0  0
M  END
>  <minimizedAffinity>
-5.33568001

>  <minimizedRMSD>
0.45961383

$$$$
