
 OpenBabel03242523203D

 32 34  0  0  0  0  0  0  0  0999 V2000
   47.3840   32.8110   44.0160 C   0  0  0  0  0  0  0  0  0  0  0  0
   48.2410   33.3120   43.1140 C   0  0  0  0  0  0  0  0  0  0  0  0
   49.0790   32.3850   42.5380 C   0  0  0  0  0  0  0  0  0  0  0  0
   48.9720   31.0390   42.9330 N   0  0  0  0  0  0  0  0  0  0  0  0
   48.1070   30.6220   43.8290 C   0  0  0  0  0  0  0  0  0  0  0  0
   47.2520   31.5200   44.4240 N   0  0  0  0  0  0  0  0  0  0  0  0
   49.8330   32.5790   41.7950 H   0  0  0  0  0  0  0  0  0  0  0  0
   48.1380   29.5560   44.0340 H   0  0  0  0  0  0  0  0  0  0  0  0
   48.4260   34.6870   42.8010 C   0  0  0  0  0  0  0  0  0  0  0  0
   49.4590   35.2720   42.1400 C   0  0  0  0  0  0  0  0  0  0  0  0
   48.2350   35.1030   41.2790 C   0  0  0  0  0  0  0  0  0  0  0  0
   47.9530   35.3740   43.5260 H   0  0  0  0  0  0  0  0  0  0  0  0
   49.7990   36.3330   42.1520 H   0  0  0  0  0  0  0  0  0  0  0  0
   50.3600   34.6450   41.8540 H   0  0  0  0  0  0  0  0  0  0  0  0
   48.2450   34.2430   40.6120 H   0  0  0  0  0  0  0  0  0  0  0  0
   47.5380   35.9410   41.1340 H   0  0  0  0  0  0  0  0  0  0  0  0
   46.3170   33.5450   44.7100 C   0  0  0  0  0  0  0  0  0  0  0  0
   45.7450   33.9280   45.6970 O   0  0  0  0  0  0  0  0  0  0  0  0
   44.5430   31.7620   42.9260 Cl  0  0  0  0  0  0  0  0  0  0  0  0
   44.5700   33.5140   42.7820 C   0  0  0  0  0  0  0  0  0  0  0  0
   45.4310   34.1780   43.6830 C   0  0  0  0  0  0  0  0  0  0  0  0
   45.3820   35.5510   43.4970 C   0  0  0  0  0  0  0  0  0  0  0  0
   44.6670   36.2720   42.6220 C   0  0  0  0  0  0  0  0  0  0  0  0
   43.8580   35.5550   41.7830 C   0  0  0  0  0  0  0  0  0  0  0  0
   43.8010   34.2090   41.8510 C   0  0  0  0  0  0  0  0  0  0  0  0
   45.9760   36.2260   44.1500 H   0  0  0  0  0  0  0  0  0  0  0  0
   44.6600   37.3380   42.5090 H   0  0  0  0  0  0  0  0  0  0  0  0
   43.2150   35.9680   41.0200 H   0  0  0  0  0  0  0  0  0  0  0  0
   42.9520   33.3040   40.9880 C   0  0  0  0  0  0  0  0  0  0  0  0
   42.1620   32.5340   41.7880 F   0  0  0  0  0  0  0  0  0  0  0  0
   43.8080   32.4230   40.3150 F   0  0  0  0  0  0  0  0  0  0  0  0
   42.2730   34.0070   40.0300 F   0  0  0  0  0  0  0  0  0  0  0  0
  1  6  1  0  0  0  0
  1 17  1  0  0  0  0
  2  1  2  0  0  0  0
  3  4  2  0  0  0  0
  3  2  1  0  0  0  0
  4  5  1  0  0  0  0
  5  8  1  0  0  0  0
  5  6  2  0  0  0  0
  7  3  1  0  0  0  0
  9  2  1  0  0  0  0
  9 12  1  0  0  0  0
 10 13  1  0  0  0  0
 10  9  1  0  0  0  0
 11 10  1  0  0  0  0
 11  9  1  0  0  0  0
 14 10  1  0  0  0  0
 15 11  1  0  0  0  0
 16 11  1  0  0  0  0
 17 18  2  0  0  0  0
 20 19  1  0  0  0  0
 20 21  1  0  0  0  0
 21 17  1  0  0  0  0
 22 21  2  0  0  0  0
 22 26  1  0  0  0  0
 23 22  1  0  0  0  0
 24 25  1  0  0  0  0
 24 23  2  0  0  0  0
 25 20  2  0  0  0  0
 27 23  1  0  0  0  0
 28 24  1  0  0  0  0
 29 30  1  0  0  0  0
 29 25  1  0  0  0  0
 31 29  1  0  0  0  0
 32 29  1  0  0  0  0
M  END
>  <minimizedAffinity>
-5.21878099

>  <minimizedRMSD>
0.39043808

$$$$
