
     RDKit          3D

 20 21  0  0  0  0  0  0  0  0999 V2000
   44.5879   35.9129   44.3147 C   0  0  0  0  0  0  0  0  0  0  0  0
   45.3522   35.9201   43.1022 C   0  0  0  0  0  0  0  0  0  0  0  0
   46.3016   34.9199   43.0375 C   0  0  0  0  0  0  0  0  0  0  0  0
   46.4826   34.0044   44.0595 N   0  0  0  0  0  0  0  0  0  0  0  0
   45.7240   34.0517   45.1812 C   0  0  0  0  0  0  0  0  0  0  0  0
   44.7869   35.0059   45.2939 N   0  0  0  0  0  0  0  0  0  0  0  0
   47.0789   34.7898   41.7558 C   0  0  0  0  0  0  0  0  0  0  0  0
   48.4506   35.4724   41.8763 C   0  0  0  0  0  0  0  0  0  0  0  0
   48.2323   33.9369   41.7368 C   0  0  0  0  0  0  0  0  0  0  0  0
   43.8252   36.6350   44.4858 H   0  0  0  0  0  0  0  0  0  0  0  0
   46.0338   33.2510   45.8336 H   0  0  0  0  0  0  0  0  0  0  0  0
   46.5477   35.1729   40.8759 H   0  0  0  0  0  0  0  0  0  0  0  0
   48.7168   35.8585   42.8621 H   0  0  0  0  0  0  0  0  0  0  0  0
   48.8906   35.9735   41.0133 H   0  0  0  0  0  0  0  0  0  0  0  0
   48.6375   33.5004   40.7756 H   0  0  0  0  0  0  0  0  0  0  0  0
   48.6175   33.3878   42.6397 H   0  0  0  0  0  0  0  0  0  0  0  0
   45.0606   36.9328   42.0944 C   0  0  0  0  0  0  0  0  0  0  0  0
   46.2230   37.4697   41.5756 F   0  0  0  0  0  0  0  0  0  0  0  0
   44.2123   37.9088   42.5687 F   0  0  0  0  0  0  0  0  0  0  0  0
   44.4088   36.3396   41.0293 F   0  0  0  0  0  0  0  0  0  0  0  0
  1  6  2  0
  2  1  1  0
  3  2  2  0
  3  4  1  0
  4  5  2  0
  5  6  1  0
  7  8  1  0
  7  9  1  0
  7  3  1  0
  8  9  1  0
  1 10  1  0
  5 11  1  0
  7 12  1  0
  8 13  1  0
  8 14  1  0
  9 15  1  0
  9 16  1  0
 17 18  1  0
 17 19  1  0
 17 20  1  0
  2 17  1  0
M  ISO  7  10  14  11  14  12  13  13  13  14  13  15  13  16  13
M  END
>  <DihAtoms>  (1) 
0,1,16,17

>  <DihDeg>  (1) 
-118.34038519790661

$$$$
