
 OpenBabel03242522353D

 38 40  0  0  0  0  0  0  0  0999 V2000
   43.6300   35.2680   42.2740 C   0  0  0  0  0  0  0  0  0  0  0  0
   42.5920   35.0930   41.3990 C   0  0  0  0  0  0  0  0  0  0  0  0
   42.8590   34.5180   40.1720 C   0  0  0  0  0  0  0  0  0  0  0  0
   44.1180   34.1040   39.7660 C   0  0  0  0  0  0  0  0  0  0  0  0
   45.1690   34.2840   40.6560 C   0  0  0  0  0  0  0  0  0  0  0  0
   44.9010   34.8660   41.8990 C   0  0  0  0  0  0  0  0  0  0  0  0
   42.0830   34.3490   39.4290 H   0  0  0  0  0  0  0  0  0  0  0  0
   44.3060   33.6580   38.8070 H   0  0  0  0  0  0  0  0  0  0  0  0
   46.1830   33.9840   40.4090 H   0  0  0  0  0  0  0  0  0  0  0  0
   41.2070   35.4920   41.7210 C   0  0  0  0  0  0  0  0  0  0  0  0
   40.9550   36.5140   41.4660 H   0  0  0  0  0  0  0  0  0  0  0  0
   41.1120   35.4410   42.8470 H   0  0  0  0  0  0  0  0  0  0  0  0
   39.1010   32.4810   41.2780 C   0  0  0  0  0  0  0  0  0  0  0  0
   38.3170   32.8340   40.1810 C   0  0  0  0  0  0  0  0  0  0  0  0
   38.5290   34.0920   39.6190 C   0  0  0  0  0  0  0  0  0  0  0  0
   39.4680   34.8930   40.1580 N   0  0  0  0  0  0  0  0  0  0  0  0
   40.2140   34.5240   41.2240 C   0  0  0  0  0  0  0  0  0  0  0  0
   40.0170   33.3210   41.7680 N   0  0  0  0  0  0  0  0  0  0  0  0
   38.9810   31.5060   41.7610 H   0  0  0  0  0  0  0  0  0  0  0  0
   37.6050   32.0940   39.8560 H   0  0  0  0  0  0  0  0  0  0  0  0
   37.9270   34.3530   38.7830 H   0  0  0  0  0  0  0  0  0  0  0  0
   43.4170   35.8290   43.4970 O   0  0  0  0  0  0  0  0  0  0  0  0
   43.3390   36.8200   43.6290 H   0  0  0  0  0  0  0  0  0  0  0  0
   45.9590   35.0440   42.7740 O   0  0  0  0  0  0  0  0  0  0  0  0
   46.8490   33.9960   42.9270 C   0  0  0  0  0  0  0  0  0  0  0  0
   46.3670   32.8680   43.6120 C   0  0  0  0  0  0  0  0  0  0  0  0
   47.1950   31.7840   43.8030 C   0  0  0  0  0  0  0  0  0  0  0  0
   48.4930   31.7960   43.3240 C   0  0  0  0  0  0  0  0  0  0  0  0
   48.9010   32.9330   42.6630 C   0  0  0  0  0  0  0  0  0  0  0  0
   48.1240   34.0710   42.4310 C   0  0  0  0  0  0  0  0  0  0  0  0
   45.3410   32.8660   43.9860 H   0  0  0  0  0  0  0  0  0  0  0  0
   46.7800   30.9400   44.3350 H   0  0  0  0  0  0  0  0  0  0  0  0
   49.1460   30.9610   43.4630 H   0  0  0  0  0  0  0  0  0  0  0  0
   49.9400   32.9030   42.2980 H   0  0  0  0  0  0  0  0  0  0  0  0
   48.7350   35.2110   41.7410 C   0  0  0  0  0  0  0  0  0  0  0  0
   48.4220   35.2060   40.3700 F   0  0  0  0  0  0  0  0  0  0  0  0
   48.0820   36.3930   42.1840 F   0  0  0  0  0  0  0  0  0  0  0  0
   50.0510   35.4580   41.9800 F   0  0  0  0  0  0  0  0  0  0  0  0
  1 22  1  0  0  0  0
  2 10  1  0  0  0  0
  2  1  2  0  0  0  0
  3  2  1  0  0  0  0
  4  3  2  0  0  0  0
  4  5  1  0  0  0  0
  5  6  2  0  0  0  0
  6  1  1  0  0  0  0
  6 24  1  0  0  0  0
  7  3  1  0  0  0  0
  8  4  1  0  0  0  0
  9  5  1  0  0  0  0
 10 12  1  0  0  0  0
 11 10  1  0  0  0  0
 13 19  1  0  0  0  0
 13 18  1  0  0  0  0
 14 13  2  0  0  0  0
 15 16  2  0  0  0  0
 15 14  1  0  0  0  0
 16 17  1  0  0  0  0
 17 10  1  0  0  0  0
 17 18  2  0  0  0  0
 20 14  1  0  0  0  0
 21 15  1  0  0  0  0
 22 23  1  0  0  0  0
 24 25  1  0  0  0  0
 25 26  1  0  0  0  0
 26 27  2  0  0  0  0
 26 31  1  0  0  0  0
 27 32  1  0  0  0  0
 28 33  1  0  0  0  0
 28 27  1  0  0  0  0
 29 28  2  0  0  0  0
 30 29  1  0  0  0  0
 30 25  2  0  0  0  0
 34 29  1  0  0  0  0
 35 38  1  0  0  0  0
 35 37  1  0  0  0  0
 35 30  1  0  0  0  0
 36 35  1  0  0  0  0
M  END
>  <minimizedAffinity>
-6.58889532

>  <minimizedRMSD>
1.57420957

$$$$
