
 OpenBabel03252507033D

 33 34  0  0  0  0  0  0  0  0999 V2000
   36.3170   30.9260   40.8650 C   0  0  0  0  0  0  0  0  0  0  0  0
   35.5900   31.6670   41.2750 H   0  0  0  0  0  0  0  0  0  0  0  0
   36.5630   30.3340   41.8060 H   0  0  0  0  0  0  0  0  0  0  0  0
   37.3000   31.5400   40.2130 N   0  0  0  0  0  0  0  0  0  0  0  0
   37.2610   32.1840   38.9490 C   0  0  0  0  0  0  0  0  0  0  0  0
   37.2180   33.6550   39.4430 C   0  0  0  0  0  0  0  0  0  0  0  0
   38.4010   34.0360   40.2170 C   0  0  0  0  0  0  0  0  0  0  0  0
   39.1690   32.9870   40.8820 C   0  0  0  0  0  0  0  0  0  0  0  0
   38.5870   31.5980   40.9180 C   0  0  0  0  0  0  0  0  0  0  0  0
   38.0350   32.0060   38.2250 H   0  0  0  0  0  0  0  0  0  0  0  0
   36.2880   31.9710   38.4670 H   0  0  0  0  0  0  0  0  0  0  0  0
   36.2870   33.7090   40.0460 H   0  0  0  0  0  0  0  0  0  0  0  0
   37.0540   34.2870   38.5480 H   0  0  0  0  0  0  0  0  0  0  0  0
   38.0940   34.8420   40.9450 H   0  0  0  0  0  0  0  0  0  0  0  0
   39.1200   34.5680   39.5260 H   0  0  0  0  0  0  0  0  0  0  0  0
   40.0990   33.0840   41.3740 H   0  0  0  0  0  0  0  0  0  0  0  0
   39.3840   30.2710   41.7600 S   0  0  0  0  0  0  0  0  0  0  0  0
   39.7980   29.2460   40.8880 H   0  0  0  0  0  0  0  0  0  0  0  0
   35.5260   29.9930   40.0010 C   0  0  0  0  0  0  0  0  0  0  0  0
   35.4250   30.3320   38.9460 H   0  0  0  0  0  0  0  0  0  0  0  0
   34.5130   29.8810   40.4100 H   0  0  0  0  0  0  0  0  0  0  0  0
   36.2120   28.6730   40.0390 C   0  0  0  0  0  0  0  0  0  0  0  0
   36.6810   28.0700   38.8870 C   0  0  0  0  0  0  0  0  0  0  0  0
   37.3030   26.8220   39.0170 C   0  0  0  0  0  0  0  0  0  0  0  0
   37.4150   26.2650   40.2650 N   0  0  0  0  0  0  0  0  0  0  0  0
   36.9380   26.9040   41.3360 C   0  0  0  0  0  0  0  0  0  0  0  0
   36.3490   28.0850   41.2140 N   0  0  0  0  0  0  0  0  0  0  0  0
   36.5710   28.5430   37.9340 H   0  0  0  0  0  0  0  0  0  0  0  0
   37.6890   26.3020   38.1540 H   0  0  0  0  0  0  0  0  0  0  0  0
   37.0950   26.2380   42.6620 C   0  0  0  0  0  0  0  0  0  0  0  0
   36.6210   24.9540   42.5480 F   0  0  0  0  0  0  0  0  0  0  0  0
   38.3880   26.2610   43.1040 F   0  0  0  0  0  0  0  0  0  0  0  0
   36.2550   26.8980   43.5670 F   0  0  0  0  0  0  0  0  0  0  0  0
  1  2  1  0  0  0  0
  1  3  1  0  0  0  0
  4  1  1  0  0  0  0
  4  9  1  0  0  0  0
  5  6  1  0  0  0  0
  5  4  1  0  0  0  0
  6 12  1  0  0  0  0
  6  7  1  0  0  0  0
  7  8  1  0  0  0  0
  7 14  1  0  0  0  0
  8  9  2  0  0  0  0
  8 16  1  0  0  0  0
  9 17  1  0  0  0  0
 10  5  1  0  0  0  0
 11  5  1  0  0  0  0
 13  6  1  0  0  0  0
 15  7  1  0  0  0  0
 18 17  1  0  0  0  0
 19 22  1  0  0  0  0
 19 21  1  0  0  0  0
 19  1  1  0  0  0  0
 20 19  1  0  0  0  0
 22 27  1  0  0  0  0
 23 24  1  0  0  0  0
 23 22  2  0  0  0  0
 24 25  2  0  0  0  0
 25 26  1  0  0  0  0
 26 30  1  0  0  0  0
 27 26  2  0  0  0  0
 28 23  1  0  0  0  0
 29 24  1  0  0  0  0
 30 32  1  0  0  0  0
 30 33  1  0  0  0  0
 31 30  1  0  0  0  0
M  END
>  <minimizedAffinity>
-5.10724497

$$$$

 OpenBabel03252507033D

 33 34  0  0  0  0  0  0  0  0999 V2000
   39.8120   29.1490   42.0510 C   0  0  0  0  0  0  0  0  0  0  0  0
   39.4120   29.3080   41.0220 H   0  0  0  0  0  0  0  0  0  0  0  0
   40.8350   28.7110   41.8110 H   0  0  0  0  0  0  0  0  0  0  0  0
   38.9610   28.4360   42.7830 N   0  0  0  0  0  0  0  0  0  0  0  0
   37.6770   28.8040   43.2630 C   0  0  0  0  0  0  0  0  0  0  0  0
   36.8160   28.0220   42.2360 C   0  0  0  0  0  0  0  0  0  0  0  0
   37.0280   26.5750   42.2920 C   0  0  0  0  0  0  0  0  0  0  0  0
   38.2900   26.0740   42.8300 C   0  0  0  0  0  0  0  0  0  0  0  0
   39.3900   27.0670   43.0980 C   0  0  0  0  0  0  0  0  0  0  0  0
   37.4010   28.6050   44.2820 H   0  0  0  0  0  0  0  0  0  0  0  0
   37.5170   29.8830   43.0720 H   0  0  0  0  0  0  0  0  0  0  0  0
   37.1100   28.4520   41.2550 H   0  0  0  0  0  0  0  0  0  0  0  0
   35.7630   28.3210   42.4100 H   0  0  0  0  0  0  0  0  0  0  0  0
   36.8260   26.1540   41.2640 H   0  0  0  0  0  0  0  0  0  0  0  0
   36.2090   26.1210   42.9250 H   0  0  0  0  0  0  0  0  0  0  0  0
   38.5450   25.0700   43.0430 H   0  0  0  0  0  0  0  0  0  0  0  0
   40.9800   26.5700   43.6710 S   0  0  0  0  0  0  0  0  0  0  0  0
   41.2700   27.0610   44.9580 H   0  0  0  0  0  0  0  0  0  0  0  0
   40.0810   30.5110   42.6140 C   0  0  0  0  0  0  0  0  0  0  0  0
   41.0750   30.6070   43.1040 H   0  0  0  0  0  0  0  0  0  0  0  0
   39.3190   30.7570   43.3650 H   0  0  0  0  0  0  0  0  0  0  0  0
   39.9820   31.4780   41.4880 C   0  0  0  0  0  0  0  0  0  0  0  0
   41.0780   32.2060   41.0640 C   0  0  0  0  0  0  0  0  0  0  0  0
   40.8880   33.1020   40.0040 C   0  0  0  0  0  0  0  0  0  0  0  0
   39.6410   33.2130   39.4470 N   0  0  0  0  0  0  0  0  0  0  0  0
   38.6260   32.4790   39.9070 C   0  0  0  0  0  0  0  0  0  0  0  0
   38.8040   31.6300   40.9100 N   0  0  0  0  0  0  0  0  0  0  0  0
   42.0330   32.0850   41.5300 H   0  0  0  0  0  0  0  0  0  0  0  0
   41.7060   33.6980   39.6290 H   0  0  0  0  0  0  0  0  0  0  0  0
   37.2970   32.6520   39.2520 C   0  0  0  0  0  0  0  0  0  0  0  0
   36.4290   31.7450   39.8120 F   0  0  0  0  0  0  0  0  0  0  0  0
   36.8280   33.9300   39.3590 F   0  0  0  0  0  0  0  0  0  0  0  0
   37.4400   32.2920   37.9070 F   0  0  0  0  0  0  0  0  0  0  0  0
  1 19  1  0  0  0  0
  1  4  1  0  0  0  0
  2  1  1  0  0  0  0
  3  1  1  0  0  0  0
  4  9  1  0  0  0  0
  4  5  1  0  0  0  0
  5 10  1  0  0  0  0
  6  7  1  0  0  0  0
  6 13  1  0  0  0  0
  6  5  1  0  0  0  0
  7  8  1  0  0  0  0
  7 15  1  0  0  0  0
  8 16  1  0  0  0  0
  8  9  2  0  0  0  0
  9 17  1  0  0  0  0
 11  5  1  0  0  0  0
 12  6  1  0  0  0  0
 14  7  1  0  0  0  0
 17 18  1  0  0  0  0
 19 20  1  0  0  0  0
 19 21  1  0  0  0  0
 22 19  1  0  0  0  0
 23 22  1  0  0  0  0
 23 28  1  0  0  0  0
 24 23  2  0  0  0  0
 25 26  2  0  0  0  0
 25 24  1  0  0  0  0
 26 27  1  0  0  0  0
 27 22  2  0  0  0  0
 29 24  1  0  0  0  0
 30 32  1  0  0  0  0
 30 31  1  0  0  0  0
 30 26  1  0  0  0  0
 33 30  1  0  0  0  0
M  END
>  <minimizedAffinity>
-5.00072145

$$$$

 OpenBabel03252507033D

 33 34  0  0  0  0  0  0  0  0999 V2000
   36.5690   27.8930   42.0110 C   0  0  0  0  0  0  0  0  0  0  0  0
   35.6190   27.5780   42.5040 H   0  0  0  0  0  0  0  0  0  0  0  0
   36.1850   28.7280   41.3380 H   0  0  0  0  0  0  0  0  0  0  0  0
   37.1830   26.8510   41.4580 N   0  0  0  0  0  0  0  0  0  0  0  0
   38.0480   25.9050   42.0670 C   0  0  0  0  0  0  0  0  0  0  0  0
   37.0440   24.7280   42.1970 C   0  0  0  0  0  0  0  0  0  0  0  0
   36.5390   24.2580   40.9060 C   0  0  0  0  0  0  0  0  0  0  0  0
   36.5560   25.1780   39.7720 C   0  0  0  0  0  0  0  0  0  0  0  0
   36.8880   26.6240   40.0380 C   0  0  0  0  0  0  0  0  0  0  0  0
   38.9670   25.6230   41.5880 H   0  0  0  0  0  0  0  0  0  0  0  0
   38.2890   26.2450   43.0920 H   0  0  0  0  0  0  0  0  0  0  0  0
   36.2350   25.1330   42.8410 H   0  0  0  0  0  0  0  0  0  0  0  0
   37.5540   23.9390   42.7850 H   0  0  0  0  0  0  0  0  0  0  0  0
   35.5070   23.8320   41.0710 H   0  0  0  0  0  0  0  0  0  0  0  0
   37.1470   23.3570   40.5940 H   0  0  0  0  0  0  0  0  0  0  0  0
   36.3380   24.9590   38.7610 H   0  0  0  0  0  0  0  0  0  0  0  0
   36.8620   27.8390   38.7630 S   0  0  0  0  0  0  0  0  0  0  0  0
   38.1330   28.3900   38.5110 H   0  0  0  0  0  0  0  0  0  0  0  0
   37.3870   28.5720   43.0650 C   0  0  0  0  0  0  0  0  0  0  0  0
   38.1230   27.9040   43.5640 H   0  0  0  0  0  0  0  0  0  0  0  0
   36.7250   28.9730   43.8440 H   0  0  0  0  0  0  0  0  0  0  0  0
   38.1000   29.7010   42.4080 C   0  0  0  0  0  0  0  0  0  0  0  0
   39.3550   30.1020   42.8240 C   0  0  0  0  0  0  0  0  0  0  0  0
   39.9450   31.1820   42.1540 C   0  0  0  0  0  0  0  0  0  0  0  0
   39.2570   31.7810   41.1310 N   0  0  0  0  0  0  0  0  0  0  0  0
   38.0460   31.3410   40.7800 C   0  0  0  0  0  0  0  0  0  0  0  0
   37.4870   30.3190   41.4130 N   0  0  0  0  0  0  0  0  0  0  0  0
   39.8540   29.6030   43.6290 H   0  0  0  0  0  0  0  0  0  0  0  0
   40.9230   31.5410   42.4340 H   0  0  0  0  0  0  0  0  0  0  0  0
   37.3570   32.0400   39.6570 C   0  0  0  0  0  0  0  0  0  0  0  0
   36.2420   31.3080   39.3250 F   0  0  0  0  0  0  0  0  0  0  0  0
   37.0380   33.3320   39.9680 F   0  0  0  0  0  0  0  0  0  0  0  0
   38.2090   31.9980   38.5480 F   0  0  0  0  0  0  0  0  0  0  0  0
  1  2  1  0  0  0  0
  1 19  1  0  0  0  0
  3  1  1  0  0  0  0
  4  1  1  0  0  0  0
  4  5  1  0  0  0  0
  5  6  1  0  0  0  0
  5 11  1  0  0  0  0
  6 13  1  0  0  0  0
  6 12  1  0  0  0  0
  7 14  1  0  0  0  0
  7  6  1  0  0  0  0
  8  9  2  0  0  0  0
  8  7  1  0  0  0  0
  9  4  1  0  0  0  0
 10  5  1  0  0  0  0
 15  7  1  0  0  0  0
 16  8  1  0  0  0  0
 17  9  1  0  0  0  0
 18 17  1  0  0  0  0
 19 20  1  0  0  0  0
 19 21  1  0  0  0  0
 22 23  1  0  0  0  0
 22 19  1  0  0  0  0
 23 28  1  0  0  0  0
 24 29  1  0  0  0  0
 24 23  2  0  0  0  0
 25 24  1  0  0  0  0
 26 25  2  0  0  0  0
 26 27  1  0  0  0  0
 27 22  2  0  0  0  0
 30 32  1  0  0  0  0
 30 26  1  0  0  0  0
 31 30  1  0  0  0  0
 33 30  1  0  0  0  0
M  END
>  <minimizedAffinity>
-4.95786476

$$$$

 OpenBabel03252507033D

 33 34  0  0  0  0  0  0  0  0999 V2000
   38.0260   29.3140   43.0410 C   0  0  0  0  0  0  0  0  0  0  0  0
   37.7490   30.2100   43.6460 H   0  0  0  0  0  0  0  0  0  0  0  0
   39.1240   29.2060   43.3200 H   0  0  0  0  0  0  0  0  0  0  0  0
   37.7000   29.4890   41.7630 N   0  0  0  0  0  0  0  0  0  0  0  0
   36.4160   29.4480   41.1610 C   0  0  0  0  0  0  0  0  0  0  0  0
   36.1870   30.9750   41.0060 C   0  0  0  0  0  0  0  0  0  0  0  0
   37.1780   31.6200   40.1420 C   0  0  0  0  0  0  0  0  0  0  0  0
   38.4810   30.9810   39.9750 C   0  0  0  0  0  0  0  0  0  0  0  0
   38.8150   29.8120   40.8640 C   0  0  0  0  0  0  0  0  0  0  0  0
   36.2620   28.9050   40.2470 H   0  0  0  0  0  0  0  0  0  0  0  0
   35.6820   29.0810   41.9030 H   0  0  0  0  0  0  0  0  0  0  0  0
   36.2250   31.3610   42.0470 H   0  0  0  0  0  0  0  0  0  0  0  0
   35.1440   31.1080   40.6550 H   0  0  0  0  0  0  0  0  0  0  0  0
   37.2890   32.6910   40.4800 H   0  0  0  0  0  0  0  0  0  0  0  0
   36.7360   31.7170   39.1060 H   0  0  0  0  0  0  0  0  0  0  0  0
   39.2510   31.2540   39.3040 H   0  0  0  0  0  0  0  0  0  0  0  0
   40.3840   29.0130   40.8080 S   0  0  0  0  0  0  0  0  0  0  0  0
   40.2970   27.6750   40.3770 H   0  0  0  0  0  0  0  0  0  0  0  0
   37.3350   28.1470   43.6740 C   0  0  0  0  0  0  0  0  0  0  0  0
   36.2610   28.0550   43.3990 H   0  0  0  0  0  0  0  0  0  0  0  0
   37.3880   28.2350   44.7670 H   0  0  0  0  0  0  0  0  0  0  0  0
   38.0660   26.9220   43.2510 C   0  0  0  0  0  0  0  0  0  0  0  0
   39.3560   26.6670   43.6790 C   0  0  0  0  0  0  0  0  0  0  0  0
   39.9700   25.4960   43.2200 C   0  0  0  0  0  0  0  0  0  0  0  0
   39.2730   24.6680   42.3790 N   0  0  0  0  0  0  0  0  0  0  0  0
   38.0280   24.9760   42.0050 C   0  0  0  0  0  0  0  0  0  0  0  0
   37.4450   26.0850   42.4390 N   0  0  0  0  0  0  0  0  0  0  0  0
   39.8610   27.3430   44.3370 H   0  0  0  0  0  0  0  0  0  0  0  0
   40.9760   25.2430   43.5190 H   0  0  0  0  0  0  0  0  0  0  0  0
   37.3290   24.0290   41.0880 C   0  0  0  0  0  0  0  0  0  0  0  0
   37.9330   22.8010   41.2110 F   0  0  0  0  0  0  0  0  0  0  0  0
   35.9880   23.9590   41.3390 F   0  0  0  0  0  0  0  0  0  0  0  0
   37.5630   24.4620   39.7780 F   0  0  0  0  0  0  0  0  0  0  0  0
  1  3  1  0  0  0  0
  1  2  1  0  0  0  0
  1 19  1  0  0  0  0
  4  1  1  0  0  0  0
  5  4  1  0  0  0  0
  5 11  1  0  0  0  0
  6  5  1  0  0  0  0
  6 12  1  0  0  0  0
  7 14  1  0  0  0  0
  7  6  1  0  0  0  0
  8  7  1  0  0  0  0
  8  9  2  0  0  0  0
  9  4  1  0  0  0  0
 10  5  1  0  0  0  0
 13  6  1  0  0  0  0
 15  7  1  0  0  0  0
 16  8  1  0  0  0  0
 17  9  1  0  0  0  0
 18 17  1  0  0  0  0
 19 21  1  0  0  0  0
 20 19  1  0  0  0  0
 22 19  1  0  0  0  0
 22 23  1  0  0  0  0
 23 28  1  0  0  0  0
 24 29  1  0  0  0  0
 24 23  2  0  0  0  0
 25 24  1  0  0  0  0
 26 25  2  0  0  0  0
 26 27  1  0  0  0  0
 27 22  2  0  0  0  0
 30 31  1  0  0  0  0
 30 32  1  0  0  0  0
 30 26  1  0  0  0  0
 33 30  1  0  0  0  0
M  END
>  <minimizedAffinity>
-4.93303347

$$$$

 OpenBabel03252507033D

 33 34  0  0  0  0  0  0  0  0999 V2000
   37.6740   27.5390   42.6150 C   0  0  0  0  0  0  0  0  0  0  0  0
   37.1150   27.1290   43.4900 H   0  0  0  0  0  0  0  0  0  0  0  0
   36.8110   27.7890   41.9160 H   0  0  0  0  0  0  0  0  0  0  0  0
   38.6070   26.6830   42.2080 N   0  0  0  0  0  0  0  0  0  0  0  0
   40.0070   26.7220   42.4350 C   0  0  0  0  0  0  0  0  0  0  0  0
   40.0870   25.6480   43.5520 C   0  0  0  0  0  0  0  0  0  0  0  0
   39.6390   24.3250   43.1120 C   0  0  0  0  0  0  0  0  0  0  0  0
   38.7210   24.2400   41.9790 C   0  0  0  0  0  0  0  0  0  0  0  0
   38.1140   25.5180   41.4620 C   0  0  0  0  0  0  0  0  0  0  0  0
   40.6930   26.5410   41.6280 H   0  0  0  0  0  0  0  0  0  0  0  0
   40.2710   27.6930   42.8950 H   0  0  0  0  0  0  0  0  0  0  0  0
   39.4510   26.0570   44.3660 H   0  0  0  0  0  0  0  0  0  0  0  0
   41.1290   25.6570   43.9290 H   0  0  0  0  0  0  0  0  0  0  0  0
   39.2300   23.7790   44.0110 H   0  0  0  0  0  0  0  0  0  0  0  0
   40.5500   23.7180   42.8300 H   0  0  0  0  0  0  0  0  0  0  0  0
   38.4020   23.3690   41.4740 H   0  0  0  0  0  0  0  0  0  0  0  0
   36.9340   25.5310   40.1540 S   0  0  0  0  0  0  0  0  0  0  0  0
   37.4070   26.1900   39.0030 H   0  0  0  0  0  0  0  0  0  0  0  0
   38.2310   28.8590   43.0510 C   0  0  0  0  0  0  0  0  0  0  0  0
   39.3400   28.8770   43.1280 H   0  0  0  0  0  0  0  0  0  0  0  0
   37.8270   29.1220   44.0370 H   0  0  0  0  0  0  0  0  0  0  0  0
   37.7820   29.8730   42.0590 C   0  0  0  0  0  0  0  0  0  0  0  0
   36.5380   29.7990   41.4630 C   0  0  0  0  0  0  0  0  0  0  0  0
   36.2060   30.7910   40.5310 C   0  0  0  0  0  0  0  0  0  0  0  0
   37.1210   31.7740   40.2580 N   0  0  0  0  0  0  0  0  0  0  0  0
   38.3070   31.7850   40.8710 C   0  0  0  0  0  0  0  0  0  0  0  0
   38.6220   30.8470   41.7530 N   0  0  0  0  0  0  0  0  0  0  0  0
   35.8560   29.0120   41.7080 H   0  0  0  0  0  0  0  0  0  0  0  0
   35.2490   30.7860   40.0330 H   0  0  0  0  0  0  0  0  0  0  0  0
   39.2520   32.8860   40.5250 C   0  0  0  0  0  0  0  0  0  0  0  0
   40.4710   32.5870   41.0840 F   0  0  0  0  0  0  0  0  0  0  0  0
   39.3500   33.0810   39.1760 F   0  0  0  0  0  0  0  0  0  0  0  0
   38.7950   34.0480   41.1570 F   0  0  0  0  0  0  0  0  0  0  0  0
  1 19  1  0  0  0  0
  1  2  1  0  0  0  0
  3  1  1  0  0  0  0
  4  5  1  0  0  0  0
  4  1  1  0  0  0  0
  5 11  1  0  0  0  0
  5  6  1  0  0  0  0
  6 13  1  0  0  0  0
  6 12  1  0  0  0  0
  7  6  1  0  0  0  0
  7 14  1  0  0  0  0
  8  7  1  0  0  0  0
  9  8  2  0  0  0  0
  9  4  1  0  0  0  0
 10  5  1  0  0  0  0
 15  7  1  0  0  0  0
 16  8  1  0  0  0  0
 17  9  1  0  0  0  0
 18 17  1  0  0  0  0
 19 20  1  0  0  0  0
 19 21  1  0  0  0  0
 22 19  1  0  0  0  0
 23 28  1  0  0  0  0
 23 22  2  0  0  0  0
 24 23  1  0  0  0  0
 25 24  2  0  0  0  0
 25 26  1  0  0  0  0
 26 27  2  0  0  0  0
 27 22  1  0  0  0  0
 29 24  1  0  0  0  0
 30 26  1  0  0  0  0
 30 31  1  0  0  0  0
 30 33  1  0  0  0  0
 32 30  1  0  0  0  0
M  END
>  <minimizedAffinity>
-4.87633562

$$$$

 OpenBabel03252507033D

 33 34  0  0  0  0  0  0  0  0999 V2000
   39.1660   28.3700   42.4200 C   0  0  0  0  0  0  0  0  0  0  0  0
   39.6540   28.5490   41.4320 H   0  0  0  0  0  0  0  0  0  0  0  0
   40.0650   28.0460   43.0390 H   0  0  0  0  0  0  0  0  0  0  0  0
   38.1370   27.5380   42.2930 N   0  0  0  0  0  0  0  0  0  0  0  0
   36.7510   27.8390   42.2590 C   0  0  0  0  0  0  0  0  0  0  0  0
   36.5240   27.7040   40.7290 C   0  0  0  0  0  0  0  0  0  0  0  0
   36.8060   26.3600   40.2230 C   0  0  0  0  0  0  0  0  0  0  0  0
   37.7170   25.5050   40.9790 C   0  0  0  0  0  0  0  0  0  0  0  0
   38.4860   26.1220   42.1190 C   0  0  0  0  0  0  0  0  0  0  0  0
   36.0550   27.2610   42.8390 H   0  0  0  0  0  0  0  0  0  0  0  0
   36.6070   28.9050   42.5180 H   0  0  0  0  0  0  0  0  0  0  0  0
   37.2000   28.4680   40.2880 H   0  0  0  0  0  0  0  0  0  0  0  0
   35.4880   28.0420   40.5290 H   0  0  0  0  0  0  0  0  0  0  0  0
   37.1340   26.4550   39.1470 H   0  0  0  0  0  0  0  0  0  0  0  0
   35.8290   25.7970   40.1490 H   0  0  0  0  0  0  0  0  0  0  0  0
   37.9290   24.4820   40.8120 H   0  0  0  0  0  0  0  0  0  0  0  0
   39.6700   25.2100   43.0510 S   0  0  0  0  0  0  0  0  0  0  0  0
   39.2960   25.0530   44.3990 H   0  0  0  0  0  0  0  0  0  0  0  0
   38.7780   29.7160   42.9500 C   0  0  0  0  0  0  0  0  0  0  0  0
   39.2860   29.9880   43.9010 H   0  0  0  0  0  0  0  0  0  0  0  0
   37.6970   29.7420   43.1330 H   0  0  0  0  0  0  0  0  0  0  0  0
   39.1160   30.7140   41.8990 C   0  0  0  0  0  0  0  0  0  0  0  0
   40.3460   31.3420   41.8690 C   0  0  0  0  0  0  0  0  0  0  0  0
   40.5710   32.2770   40.8500 C   0  0  0  0  0  0  0  0  0  0  0  0
   39.5720   32.5220   39.9440 N   0  0  0  0  0  0  0  0  0  0  0  0
   38.4050   31.8780   40.0330 C   0  0  0  0  0  0  0  0  0  0  0  0
   38.1920   30.9930   40.9960 N   0  0  0  0  0  0  0  0  0  0  0  0
   41.0970   31.1190   42.5980 H   0  0  0  0  0  0  0  0  0  0  0  0
   41.5120   32.8000   40.7750 H   0  0  0  0  0  0  0  0  0  0  0  0
   37.3640   32.1940   39.0120 C   0  0  0  0  0  0  0  0  0  0  0  0
   36.8610   33.4400   39.2960 F   0  0  0  0  0  0  0  0  0  0  0  0
   37.8490   32.1230   37.7370 F   0  0  0  0  0  0  0  0  0  0  0  0
   36.3130   31.2870   39.1890 F   0  0  0  0  0  0  0  0  0  0  0  0
  1 19  1  0  0  0  0
  1  3  1  0  0  0  0
  2  1  1  0  0  0  0
  4  1  1  0  0  0  0
  5  4  1  0  0  0  0
  5 11  1  0  0  0  0
  5 10  1  0  0  0  0
  6  5  1  0  0  0  0
  7  6  1  0  0  0  0
  7  8  1  0  0  0  0
  8  9  2  0  0  0  0
  9  4  1  0  0  0  0
  9 17  1  0  0  0  0
 12  6  1  0  0  0  0
 13  6  1  0  0  0  0
 14  7  1  0  0  0  0
 15  7  1  0  0  0  0
 16  8  1  0  0  0  0
 17 18  1  0  0  0  0
 19 21  1  0  0  0  0
 19 20  1  0  0  0  0
 22 19  1  0  0  0  0
 23 22  1  0  0  0  0
 23 28  1  0  0  0  0
 24 23  2  0  0  0  0
 25 26  2  0  0  0  0
 25 24  1  0  0  0  0
 26 27  1  0  0  0  0
 27 22  2  0  0  0  0
 29 24  1  0  0  0  0
 30 33  1  0  0  0  0
 30 31  1  0  0  0  0
 30 26  1  0  0  0  0
 32 30  1  0  0  0  0
M  END
>  <minimizedAffinity>
-4.68585014

$$$$

 OpenBabel03252507033D

 33 34  0  0  0  0  0  0  0  0999 V2000
   39.0660   29.2240   39.4220 C   0  0  0  0  0  0  0  0  0  0  0  0
   39.9610   29.0740   38.7720 H   0  0  0  0  0  0  0  0  0  0  0  0
   38.6170   28.1780   39.4000 H   0  0  0  0  0  0  0  0  0  0  0  0
   38.3350   30.2480   38.9900 N   0  0  0  0  0  0  0  0  0  0  0  0
   36.9300   30.3220   38.8080 C   0  0  0  0  0  0  0  0  0  0  0  0
   36.5770   31.1340   40.0830 C   0  0  0  0  0  0  0  0  0  0  0  0
   37.1980   32.4600   40.1100 C   0  0  0  0  0  0  0  0  0  0  0  0
   38.4110   32.6800   39.3270 C   0  0  0  0  0  0  0  0  0  0  0  0
   39.0810   31.4820   38.7070 C   0  0  0  0  0  0  0  0  0  0  0  0
   36.5200   30.7490   37.9120 H   0  0  0  0  0  0  0  0  0  0  0  0
   36.4970   29.3110   38.9330 H   0  0  0  0  0  0  0  0  0  0  0  0
   36.9270   30.4900   40.9180 H   0  0  0  0  0  0  0  0  0  0  0  0
   35.4710   31.1640   40.1460 H   0  0  0  0  0  0  0  0  0  0  0  0
   37.3500   32.7500   41.1900 H   0  0  0  0  0  0  0  0  0  0  0  0
   36.4400   33.2130   39.7420 H   0  0  0  0  0  0  0  0  0  0  0  0
   38.9060   33.5970   39.1510 H   0  0  0  0  0  0  0  0  0  0  0  0
   40.5900   31.6140   37.8090 S   0  0  0  0  0  0  0  0  0  0  0  0
   40.4450   31.2750   36.4500 H   0  0  0  0  0  0  0  0  0  0  0  0
   39.5820   29.4100   40.8150 C   0  0  0  0  0  0  0  0  0  0  0  0
   39.6130   30.4720   41.1460 H   0  0  0  0  0  0  0  0  0  0  0  0
   40.6030   29.0130   40.8860 H   0  0  0  0  0  0  0  0  0  0  0  0
   38.6940   28.6300   41.7190 C   0  0  0  0  0  0  0  0  0  0  0  0
   38.1880   29.1780   42.8820 C   0  0  0  0  0  0  0  0  0  0  0  0
   37.3700   28.3660   43.6780 C   0  0  0  0  0  0  0  0  0  0  0  0
   37.1160   27.0820   43.2700 N   0  0  0  0  0  0  0  0  0  0  0  0
   37.6390   26.6170   42.1340 C   0  0  0  0  0  0  0  0  0  0  0  0
   38.4130   27.3850   41.3800 N   0  0  0  0  0  0  0  0  0  0  0  0
   38.4140   30.1870   43.1590 H   0  0  0  0  0  0  0  0  0  0  0  0
   36.9450   28.7380   44.5970 H   0  0  0  0  0  0  0  0  0  0  0  0
   37.3190   25.2100   41.7520 C   0  0  0  0  0  0  0  0  0  0  0  0
   36.3270   24.7620   42.5900 F   0  0  0  0  0  0  0  0  0  0  0  0
   36.9610   25.0970   40.4390 F   0  0  0  0  0  0  0  0  0  0  0  0
   38.4520   24.4330   42.0210 F   0  0  0  0  0  0  0  0  0  0  0  0
  1 19  1  0  0  0  0
  2  1  1  0  0  0  0
  3  1  1  0  0  0  0
  4  1  1  0  0  0  0
  5 11  1  0  0  0  0
  5  4  1  0  0  0  0
  5  6  1  0  0  0  0
  6  7  1  0  0  0  0
  6 13  1  0  0  0  0
  6 12  1  0  0  0  0
  7 14  1  0  0  0  0
  8  7  1  0  0  0  0
  9  4  1  0  0  0  0
  9  8  2  0  0  0  0
 10  5  1  0  0  0  0
 15  7  1  0  0  0  0
 16  8  1  0  0  0  0
 17  9  1  0  0  0  0
 18 17  1  0  0  0  0
 19 21  1  0  0  0  0
 19 20  1  0  0  0  0
 19 22  1  0  0  0  0
 22 23  1  0  0  0  0
 23 28  1  0  0  0  0
 23 24  2  0  0  0  0
 24 29  1  0  0  0  0
 25 24  1  0  0  0  0
 26 25  2  0  0  0  0
 27 22  2  0  0  0  0
 27 26  1  0  0  0  0
 30 33  1  0  0  0  0
 30 26  1  0  0  0  0
 30 31  1  0  0  0  0
 32 30  1  0  0  0  0
M  END
>  <minimizedAffinity>
-4.64862776

$$$$

 OpenBabel03252507033D

 33 34  0  0  0  0  0  0  0  0999 V2000
   39.6270   29.8010   40.1970 C   0  0  0  0  0  0  0  0  0  0  0  0
   40.4010   29.3710   39.5190 H   0  0  0  0  0  0  0  0  0  0  0  0
   38.9020   28.9250   40.2660 H   0  0  0  0  0  0  0  0  0  0  0  0
   39.1860   30.9670   39.7330 N   0  0  0  0  0  0  0  0  0  0  0  0
   39.9340   32.0570   39.2180 C   0  0  0  0  0  0  0  0  0  0  0  0
   39.6750   31.8190   37.7060 C   0  0  0  0  0  0  0  0  0  0  0  0
   38.2590   31.9060   37.3460 C   0  0  0  0  0  0  0  0  0  0  0  0
   37.2580   31.6640   38.3810 C   0  0  0  0  0  0  0  0  0  0  0  0
   37.7270   31.1270   39.7080 C   0  0  0  0  0  0  0  0  0  0  0  0
   39.7140   33.0610   39.5290 H   0  0  0  0  0  0  0  0  0  0  0  0
   41.0100   31.8720   39.3990 H   0  0  0  0  0  0  0  0  0  0  0  0
   40.0940   30.8080   37.5170 H   0  0  0  0  0  0  0  0  0  0  0  0
   40.3150   32.5370   37.1560 H   0  0  0  0  0  0  0  0  0  0  0  0
   38.0870   31.2430   36.4480 H   0  0  0  0  0  0  0  0  0  0  0  0
   38.0590   32.9440   36.9450 H   0  0  0  0  0  0  0  0  0  0  0  0
   36.2120   31.8020   38.3100 H   0  0  0  0  0  0  0  0  0  0  0  0
   36.6030   30.7220   41.0030 S   0  0  0  0  0  0  0  0  0  0  0  0
   36.7710   31.5350   42.1410 H   0  0  0  0  0  0  0  0  0  0  0  0
   40.2610   29.9030   41.5500 C   0  0  0  0  0  0  0  0  0  0  0  0
   39.9040   30.7690   42.1500 H   0  0  0  0  0  0  0  0  0  0  0  0
   41.3480   30.0040   41.4410 H   0  0  0  0  0  0  0  0  0  0  0  0
   39.9610   28.6370   42.2720 C   0  0  0  0  0  0  0  0  0  0  0  0
   40.9150   28.0050   43.0470 C   0  0  0  0  0  0  0  0  0  0  0  0
   40.5470   26.8110   43.6800 C   0  0  0  0  0  0  0  0  0  0  0  0
   39.2750   26.3320   43.5010 N   0  0  0  0  0  0  0  0  0  0  0  0
   38.4040   26.9950   42.7370 C   0  0  0  0  0  0  0  0  0  0  0  0
   38.7500   28.1250   42.1380 N   0  0  0  0  0  0  0  0  0  0  0  0
   41.8960   28.4180   43.1570 H   0  0  0  0  0  0  0  0  0  0  0  0
   41.2480   26.2720   44.2980 H   0  0  0  0  0  0  0  0  0  0  0  0
   37.0370   26.4150   42.5880 C   0  0  0  0  0  0  0  0  0  0  0  0
   37.1610   25.0470   42.5530 F   0  0  0  0  0  0  0  0  0  0  0  0
   36.1910   26.8190   43.5810 F   0  0  0  0  0  0  0  0  0  0  0  0
   36.5480   26.8050   41.3360 F   0  0  0  0  0  0  0  0  0  0  0  0
  1  3  1  0  0  0  0
  1 19  1  0  0  0  0
  2  1  1  0  0  0  0
  4  1  1  0  0  0  0
  5 11  1  0  0  0  0
  5 10  1  0  0  0  0
  5  4  1  0  0  0  0
  6  5  1  0  0  0  0
  7  6  1  0  0  0  0
  7  8  1  0  0  0  0
  8  9  2  0  0  0  0
  9  4  1  0  0  0  0
  9 17  1  0  0  0  0
 12  6  1  0  0  0  0
 13  6  1  0  0  0  0
 14  7  1  0  0  0  0
 15  7  1  0  0  0  0
 16  8  1  0  0  0  0
 17 18  1  0  0  0  0
 19 20  1  0  0  0  0
 19 22  1  0  0  0  0
 21 19  1  0  0  0  0
 22 23  1  0  0  0  0
 23 28  1  0  0  0  0
 23 24  2  0  0  0  0
 24 29  1  0  0  0  0
 25 24  1  0  0  0  0
 26 25  2  0  0  0  0
 27 22  2  0  0  0  0
 27 26  1  0  0  0  0
 30 26  1  0  0  0  0
 30 32  1  0  0  0  0
 31 30  1  0  0  0  0
 33 30  1  0  0  0  0
M  END
>  <minimizedAffinity>
-4.56991863

$$$$

 OpenBabel03252507033D

 33 34  0  0  0  0  0  0  0  0999 V2000
   37.1040   28.1550   39.3130 C   0  0  0  0  0  0  0  0  0  0  0  0
   37.0130   27.6630   38.3160 H   0  0  0  0  0  0  0  0  0  0  0  0
   36.7650   27.3080   39.9940 H   0  0  0  0  0  0  0  0  0  0  0  0
   36.4380   29.3060   39.3340 N   0  0  0  0  0  0  0  0  0  0  0  0
   35.4670   29.7530   40.2660 C   0  0  0  0  0  0  0  0  0  0  0  0
   36.3620   30.7250   41.0800 C   0  0  0  0  0  0  0  0  0  0  0  0
   36.8970   31.8250   40.2750 C   0  0  0  0  0  0  0  0  0  0  0  0
   37.0160   31.6400   38.8320 C   0  0  0  0  0  0  0  0  0  0  0  0
   36.7890   30.2590   38.2730 C   0  0  0  0  0  0  0  0  0  0  0  0
   34.5550   30.2070   39.9260 H   0  0  0  0  0  0  0  0  0  0  0  0
   35.2000   28.9140   40.9380 H   0  0  0  0  0  0  0  0  0  0  0  0
   37.1660   30.0750   41.4880 H   0  0  0  0  0  0  0  0  0  0  0  0
   35.7590   31.0650   41.9460 H   0  0  0  0  0  0  0  0  0  0  0  0
   37.8800   32.1420   40.7300 H   0  0  0  0  0  0  0  0  0  0  0  0
   36.2350   32.7290   40.4270 H   0  0  0  0  0  0  0  0  0  0  0  0
   37.2700   32.3680   38.1080 H   0  0  0  0  0  0  0  0  0  0  0  0
   36.9840   29.9000   36.5590 S   0  0  0  0  0  0  0  0  0  0  0  0
   35.7770   29.5120   35.9460 H   0  0  0  0  0  0  0  0  0  0  0  0
   38.5710   28.3150   39.5730 C   0  0  0  0  0  0  0  0  0  0  0  0
   38.9250   29.3680   39.5230 H   0  0  0  0  0  0  0  0  0  0  0  0
   39.1410   27.7400   38.8320 H   0  0  0  0  0  0  0  0  0  0  0  0
   38.8380   27.7610   40.9270 C   0  0  0  0  0  0  0  0  0  0  0  0
   39.2070   28.5760   41.9810 C   0  0  0  0  0  0  0  0  0  0  0  0
   39.4510   27.9650   43.2170 C   0  0  0  0  0  0  0  0  0  0  0  0
   39.3150   26.6050   43.3220 N   0  0  0  0  0  0  0  0  0  0  0  0
   38.9560   25.8770   42.2610 C   0  0  0  0  0  0  0  0  0  0  0  0
   38.7250   26.4540   41.0910 N   0  0  0  0  0  0  0  0  0  0  0  0
   39.3000   29.6340   41.8520 H   0  0  0  0  0  0  0  0  0  0  0  0
   39.7410   28.5490   44.0770 H   0  0  0  0  0  0  0  0  0  0  0  0
   38.8270   24.4030   42.4490 C   0  0  0  0  0  0  0  0  0  0  0  0
   39.2400   23.7930   41.2890 F   0  0  0  0  0  0  0  0  0  0  0  0
   39.5290   23.9540   43.5320 F   0  0  0  0  0  0  0  0  0  0  0  0
   37.4650   24.1140   42.5910 F   0  0  0  0  0  0  0  0  0  0  0  0
  1  4  1  0  0  0  0
  1 19  1  0  0  0  0
  1  3  1  0  0  0  0
  2  1  1  0  0  0  0
  4  5  1  0  0  0  0
  5 11  1  0  0  0  0
  5  6  1  0  0  0  0
  6 12  1  0  0  0  0
  6 13  1  0  0  0  0
  7 15  1  0  0  0  0
  7 14  1  0  0  0  0
  7  6  1  0  0  0  0
  8  7  1  0  0  0  0
  9  8  2  0  0  0  0
  9  4  1  0  0  0  0
 10  5  1  0  0  0  0
 16  8  1  0  0  0  0
 17  9  1  0  0  0  0
 18 17  1  0  0  0  0
 19 22  1  0  0  0  0
 20 19  1  0  0  0  0
 21 19  1  0  0  0  0
 22 27  2  0  0  0  0
 22 23  1  0  0  0  0
 23 24  2  0  0  0  0
 24 25  1  0  0  0  0
 24 29  1  0  0  0  0
 26 30  1  0  0  0  0
 26 25  2  0  0  0  0
 27 26  1  0  0  0  0
 28 23  1  0  0  0  0
 30 33  1  0  0  0  0
 30 32  1  0  0  0  0
 31 30  1  0  0  0  0
M  END
>  <minimizedAffinity>
-4.56986189

$$$$
