
 OpenBabel03252506413D

 35 37  0  0  1  0  0  0  0  0999 V2000
   49.4410   33.3370   41.5010 N   0  0  1  0  0  0  0  0  0  0  0  0
   50.6720   33.1080   42.2160 C   0  0  0  0  0  0  0  0  0  0  0  0
   51.3100   31.7890   42.0220 C   0  0  0  0  0  0  0  0  0  0  0  0
   50.3950   30.6760   42.4440 C   0  0  0  0  0  0  0  0  0  0  0  0
   48.9610   31.0430   42.3220 C   0  0  0  0  0  0  0  0  0  0  0  0
   48.7940   32.0760   41.2510 C   0  0  2  0  0  0  0  0  0  0  0  0
   50.5230   33.2560   43.3110 H   0  0  0  0  0  0  0  0  0  0  0  0
   51.3790   33.9140   41.8640 H   0  0  0  0  0  0  0  0  0  0  0  0
   52.1360   31.7610   42.8160 H   0  0  0  0  0  0  0  0  0  0  0  0
   51.8730   31.6270   41.0990 H   0  0  0  0  0  0  0  0  0  0  0  0
   50.5690   30.2840   43.4530 H   0  0  0  0  0  0  0  0  0  0  0  0
   50.6430   29.8140   41.7560 H   0  0  0  0  0  0  0  0  0  0  0  0
   48.5710   31.4810   43.2780 H   0  0  0  0  0  0  0  0  0  0  0  0
   48.3220   30.1920   42.0480 H   0  0  0  0  0  0  0  0  0  0  0  0
   47.6830   32.3710   41.4060 H   0  0  0  0  0  0  0  0  0  0  0  0
   47.2370   34.5740   41.9990 C   0  0  1  0  0  0  0  0  0  0  0  0
   48.3130   35.5370   41.7090 C   0  0  0  0  0  0  0  0  0  0  0  0
   48.6580   34.2250   42.3080 C   0  0  2  0  0  0  0  0  0  0  0  0
   46.7750   34.1200   41.1110 H   0  0  0  0  0  0  0  0  0  0  0  0
   48.3970   36.4030   42.3750 H   0  0  0  0  0  0  0  0  0  0  0  0
   48.6180   35.7510   40.6590 H   0  0  0  0  0  0  0  0  0  0  0  0
   48.8820   34.1330   43.3930 H   0  0  0  0  0  0  0  0  0  0  0  0
   45.5240   36.0260   43.1620 C   0  0  0  0  0  0  0  0  0  0  0  0
   46.3140   34.8510   43.1370 C   0  0  0  0  0  0  0  0  0  0  0  0
   46.1930   33.9600   44.2150 C   0  0  0  0  0  0  0  0  0  0  0  0
   45.3310   34.2740   45.2130 N   0  0  0  0  0  0  0  0  0  0  0  0
   44.5890   35.4100   45.2030 C   0  0  0  0  0  0  0  0  0  0  0  0
   44.6810   36.2980   44.1720 N   0  0  0  0  0  0  0  0  0  0  0  0
   45.5950   36.7300   42.3460 H   0  0  0  0  0  0  0  0  0  0  0  0
   46.7870   33.0660   44.2080 H   0  0  0  0  0  0  0  0  0  0  0  0
   43.9360   35.5430   46.0650 H   0  0  0  0  0  0  0  0  0  0  0  0
   48.8030   31.5860   39.8480 C   0  0  0  0  0  0  0  0  0  0  0  0
   47.6970   32.0600   39.1220 F   0  0  0  0  0  0  0  0  0  0  0  0
   49.8810   32.1410   39.1230 F   0  0  0  0  0  0  0  0  0  0  0  0
   48.9730   30.2320   39.6890 F   0  0  0  0  0  0  0  0  0  0  0  0
  1  2  1  1  0  0  0
  1 18  1  0  0  0  0
  2  7  1  0  0  0  0
  3  2  1  0  0  0  0
  3  4  1  0  0  0  0
  3  9  1  0  0  0  0
  4 11  1  0  0  0  0
  5  4  1  0  0  0  0
  5 13  1  0  0  0  0
  6 15  1  1  0  0  0
  6  1  1  0  0  0  0
  6  5  1  0  0  0  0
  8  2  1  0  0  0  0
 10  3  1  0  0  0  0
 12  4  1  0  0  0  0
 14  5  1  0  0  0  0
 16 19  1  6  0  0  0
 16 18  1  0  0  0  0
 16 24  1  0  0  0  0
 17 16  1  0  0  0  0
 17 18  1  0  0  0  0
 17 20  1  0  0  0  0
 18 22  1  1  0  0  0
 21 17  1  0  0  0  0
 23 28  1  0  0  0  0
 24 23  2  0  0  0  0
 24 25  1  0  0  0  0
 25 26  2  0  0  0  0
 27 26  1  0  0  0  0
 27 31  1  0  0  0  0
 28 27  2  0  0  0  0
 29 23  1  0  0  0  0
 30 25  1  0  0  0  0
 32  6  1  0  0  0  0
 33 32  1  0  0  0  0
 34 32  1  0  0  0  0
 35 32  1  0  0  0  0
M  END
>  <minimizedAffinity>
-4.68318176

>  <minimizedRMSD>
0.345270097

$$$$
