
 OpenBabel03252507353D

 26 28  0  0  0  0  0  0  0  0999 V2000
   37.0340   29.9370   40.7390 C   0  0  0  0  0  0  0  0  0  0  0  0
   38.2150   29.7680   41.4420 C   0  0  0  0  0  0  0  0  0  0  0  0
   39.0680   30.8320   41.5710 C   0  0  0  0  0  0  0  0  0  0  0  0
   38.8030   32.0800   41.0270 C   0  0  0  0  0  0  0  0  0  0  0  0
   39.4820   33.2470   41.0270 N   0  0  0  0  0  0  0  0  0  0  0  0
   38.7500   34.1610   40.3320 C   0  0  0  0  0  0  0  0  0  0  0  0
   37.6120   33.5370   39.9050 N   0  0  0  0  0  0  0  0  0  0  0  0
   37.6350   32.2630   40.3250 C   0  0  0  0  0  0  0  0  0  0  0  0
   36.7640   31.2000   40.1860 C   0  0  0  0  0  0  0  0  0  0  0  0
   36.2850   29.1960   40.5620 H   0  0  0  0  0  0  0  0  0  0  0  0
   39.9760   30.6350   42.1340 H   0  0  0  0  0  0  0  0  0  0  0  0
   40.4150   33.3180   41.5180 H   0  0  0  0  0  0  0  0  0  0  0  0
   39.1150   35.1740   40.2090 H   0  0  0  0  0  0  0  0  0  0  0  0
   35.8570   31.3900   39.6260 H   0  0  0  0  0  0  0  0  0  0  0  0
   38.1460   26.0830   42.2570 C   0  0  0  0  0  0  0  0  0  0  0  0
   37.7860   27.3020   41.6180 C   0  0  0  0  0  0  0  0  0  0  0  0
   38.4710   28.4450   42.0060 C   0  0  0  0  0  0  0  0  0  0  0  0
   39.4240   28.3500   42.9520 N   0  0  0  0  0  0  0  0  0  0  0  0
   39.7530   27.1770   43.5510 C   0  0  0  0  0  0  0  0  0  0  0  0
   39.1080   26.0590   43.1940 N   0  0  0  0  0  0  0  0  0  0  0  0
   37.0290   27.3830   40.8640 H   0  0  0  0  0  0  0  0  0  0  0  0
   40.5360   27.2410   44.2940 H   0  0  0  0  0  0  0  0  0  0  0  0
   37.4050   24.8640   41.8320 C   0  0  0  0  0  0  0  0  0  0  0  0
   36.3120   24.6540   42.6560 F   0  0  0  0  0  0  0  0  0  0  0  0
   36.8920   24.9940   40.5370 F   0  0  0  0  0  0  0  0  0  0  0  0
   38.1600   23.7190   41.8970 F   0  0  0  0  0  0  0  0  0  0  0  0
  1  2  1  0  0  0  0
  2  3  2  0  0  0  0
  2 17  1  0  0  0  0
  3 11  1  0  0  0  0
  4  5  1  0  0  0  0
  4  3  1  0  0  0  0
  5 12  1  0  0  0  0
  6  5  1  0  0  0  0
  7  8  1  0  0  0  0
  7  6  2  0  0  0  0
  8  4  2  0  0  0  0
  9  8  1  0  0  0  0
  9  1  2  0  0  0  0
 10  1  1  0  0  0  0
 13  6  1  0  0  0  0
 14  9  1  0  0  0  0
 15 20  1  0  0  0  0
 16 17  1  0  0  0  0
 16 15  2  0  0  0  0
 17 18  2  0  0  0  0
 18 19  1  0  0  0  0
 19 22  1  0  0  0  0
 20 19  2  0  0  0  0
 21 16  1  0  0  0  0
 23 26  1  0  0  0  0
 23 15  1  0  0  0  0
 23 24  1  0  0  0  0
 25 23  1  0  0  0  0
M  END
>  <minimizedAffinity>
-5.51946163

$$$$

 OpenBabel03252507353D

 26 28  0  0  0  0  0  0  0  0999 V2000
   36.0040   29.2660   37.3180 C   0  0  0  0  0  0  0  0  0  0  0  0
   35.2810   29.1260   38.4910 C   0  0  0  0  0  0  0  0  0  0  0  0
   33.9330   28.8940   38.4160 C   0  0  0  0  0  0  0  0  0  0  0  0
   33.2540   28.7900   37.2110 C   0  0  0  0  0  0  0  0  0  0  0  0
   31.9580   28.5690   36.9010 N   0  0  0  0  0  0  0  0  0  0  0  0
   31.8430   28.5660   35.5440 C   0  0  0  0  0  0  0  0  0  0  0  0
   33.0880   28.7880   35.0260 N   0  0  0  0  0  0  0  0  0  0  0  0
   33.9570   28.9270   36.0380 C   0  0  0  0  0  0  0  0  0  0  0  0
   35.3170   29.1620   36.0970 C   0  0  0  0  0  0  0  0  0  0  0  0
   37.0530   29.4490   37.2340 H   0  0  0  0  0  0  0  0  0  0  0  0
   33.4230   28.7940   39.3700 H   0  0  0  0  0  0  0  0  0  0  0  0
   31.2440   28.4370   37.6690 H   0  0  0  0  0  0  0  0  0  0  0  0
   30.8780   28.4040   35.0790 H   0  0  0  0  0  0  0  0  0  0  0  0
   35.8310   29.2620   35.1500 H   0  0  0  0  0  0  0  0  0  0  0  0
   36.8620   28.4720   41.8550 C   0  0  0  0  0  0  0  0  0  0  0  0
   36.1070   28.2150   40.6780 C   0  0  0  0  0  0  0  0  0  0  0  0
   36.0190   29.2390   39.7460 C   0  0  0  0  0  0  0  0  0  0  0  0
   36.6400   30.4080   39.9960 N   0  0  0  0  0  0  0  0  0  0  0  0
   37.3570   30.6350   41.1260 C   0  0  0  0  0  0  0  0  0  0  0  0
   37.4580   29.6620   42.0410 N   0  0  0  0  0  0  0  0  0  0  0  0
   35.6110   27.2870   40.4750 H   0  0  0  0  0  0  0  0  0  0  0  0
   37.8050   31.6170   41.2000 H   0  0  0  0  0  0  0  0  0  0  0  0
   36.9500   27.3660   42.8470 C   0  0  0  0  0  0  0  0  0  0  0  0
   35.8350   27.3690   43.6700 F   0  0  0  0  0  0  0  0  0  0  0  0
   36.9660   26.1120   42.2260 F   0  0  0  0  0  0  0  0  0  0  0  0
   38.0390   27.4630   43.6760 F   0  0  0  0  0  0  0  0  0  0  0  0
  1  2  1  0  0  0  0
  2 17  1  0  0  0  0
  3  2  2  0  0  0  0
  3 11  1  0  0  0  0
  4  3  1  0  0  0  0
  5  4  1  0  0  0  0
  5 12  1  0  0  0  0
  6  5  1  0  0  0  0
  7  6  2  0  0  0  0
  7  8  1  0  0  0  0
  8  9  1  0  0  0  0
  8  4  2  0  0  0  0
  9  1  2  0  0  0  0
 10  1  1  0  0  0  0
 13  6  1  0  0  0  0
 14  9  1  0  0  0  0
 15 20  1  0  0  0  0
 15 23  1  0  0  0  0
 16 15  2  0  0  0  0
 17 18  2  0  0  0  0
 17 16  1  0  0  0  0
 18 19  1  0  0  0  0
 19 22  1  0  0  0  0
 19 20  2  0  0  0  0
 21 16  1  0  0  0  0
 23 24  1  0  0  0  0
 23 26  1  0  0  0  0
 25 23  1  0  0  0  0
M  END
>  <minimizedAffinity>
-5.3609705

$$$$

 OpenBabel03252507353D

 26 28  0  0  0  0  0  0  0  0999 V2000
   38.8840   32.3710   39.7480 C   0  0  0  0  0  0  0  0  0  0  0  0
   39.0020   31.4600   40.7830 C   0  0  0  0  0  0  0  0  0  0  0  0
   40.1150   31.5030   41.5810 C   0  0  0  0  0  0  0  0  0  0  0  0
   41.1360   32.4230   41.3990 C   0  0  0  0  0  0  0  0  0  0  0  0
   42.3000   32.6470   42.0470 N   0  0  0  0  0  0  0  0  0  0  0  0
   42.9280   33.6910   41.4380 C   0  0  0  0  0  0  0  0  0  0  0  0
   42.1320   34.1040   40.4070 N   0  0  0  0  0  0  0  0  0  0  0  0
   41.0340   33.3340   40.3750 C   0  0  0  0  0  0  0  0  0  0  0  0
   39.9180   33.3040   39.5610 C   0  0  0  0  0  0  0  0  0  0  0  0
   38.0750   32.4470   39.0540 H   0  0  0  0  0  0  0  0  0  0  0  0
   40.1480   30.7620   42.3750 H   0  0  0  0  0  0  0  0  0  0  0  0
   42.5700   32.0480   42.8740 H   0  0  0  0  0  0  0  0  0  0  0  0
   43.8870   34.0390   41.8030 H   0  0  0  0  0  0  0  0  0  0  0  0
   39.8790   34.0400   38.7680 H   0  0  0  0  0  0  0  0  0  0  0  0
   36.8280   28.5820   41.8950 C   0  0  0  0  0  0  0  0  0  0  0  0
   37.9660   29.4330   41.8390 C   0  0  0  0  0  0  0  0  0  0  0  0
   37.9140   30.5010   40.9540 C   0  0  0  0  0  0  0  0  0  0  0  0
   36.8090   30.6790   40.2050 N   0  0  0  0  0  0  0  0  0  0  0  0
   35.7320   29.8560   40.2730 C   0  0  0  0  0  0  0  0  0  0  0  0
   35.7570   28.8180   41.1190 N   0  0  0  0  0  0  0  0  0  0  0  0
   38.8480   29.2960   42.4330 H   0  0  0  0  0  0  0  0  0  0  0  0
   34.9120   30.1120   39.6170 H   0  0  0  0  0  0  0  0  0  0  0  0
   36.8950   27.4400   42.8470 C   0  0  0  0  0  0  0  0  0  0  0  0
   35.7870   27.4420   43.6800 F   0  0  0  0  0  0  0  0  0  0  0  0
   36.8750   26.2090   42.1840 F   0  0  0  0  0  0  0  0  0  0  0  0
   37.9930   27.4820   43.6700 F   0  0  0  0  0  0  0  0  0  0  0  0
  1  2  1  0  0  0  0
  2 17  1  0  0  0  0
  2  3  2  0  0  0  0
  3 11  1  0  0  0  0
  4  3  1  0  0  0  0
  4  5  1  0  0  0  0
  5 12  1  0  0  0  0
  6 13  1  0  0  0  0
  6  5  1  0  0  0  0
  7  6  2  0  0  0  0
  8  7  1  0  0  0  0
  8  4  2  0  0  0  0
  9  1  2  0  0  0  0
  9  8  1  0  0  0  0
 10  1  1  0  0  0  0
 14  9  1  0  0  0  0
 15 23  1  0  0  0  0
 16 15  1  0  0  0  0
 16 21  1  0  0  0  0
 17 16  2  0  0  0  0
 18 19  2  0  0  0  0
 18 17  1  0  0  0  0
 19 20  1  0  0  0  0
 20 15  2  0  0  0  0
 22 19  1  0  0  0  0
 23 26  1  0  0  0  0
 23 24  1  0  0  0  0
 25 23  1  0  0  0  0
M  END
>  <minimizedAffinity>
-5.33182478

$$$$

 OpenBabel03252507353D

 26 28  0  0  0  0  0  0  0  0999 V2000
   36.4160   26.9310   39.5520 C   0  0  0  0  0  0  0  0  0  0  0  0
   35.7820   28.1620   39.5060 C   0  0  0  0  0  0  0  0  0  0  0  0
   35.8970   29.0060   40.5790 C   0  0  0  0  0  0  0  0  0  0  0  0
   36.6230   28.6850   41.7160 C   0  0  0  0  0  0  0  0  0  0  0  0
   36.8690   29.3450   42.8690 N   0  0  0  0  0  0  0  0  0  0  0  0
   37.6510   28.5510   43.6500 C   0  0  0  0  0  0  0  0  0  0  0  0
   37.8820   27.3950   42.9610 N   0  0  0  0  0  0  0  0  0  0  0  0
   37.2570   27.4670   41.7760 C   0  0  0  0  0  0  0  0  0  0  0  0
   37.1510   26.6030   40.7030 C   0  0  0  0  0  0  0  0  0  0  0  0
   36.4080   26.1820   38.7910 H   0  0  0  0  0  0  0  0  0  0  0  0
   35.3770   29.9560   40.4820 H   0  0  0  0  0  0  0  0  0  0  0  0
   36.4660   30.3100   43.0230 H   0  0  0  0  0  0  0  0  0  0  0  0
   37.9690   28.8930   44.6290 H   0  0  0  0  0  0  0  0  0  0  0  0
   37.6670   25.6560   40.7940 H   0  0  0  0  0  0  0  0  0  0  0  0
   33.0960   29.1720   37.0550 C   0  0  0  0  0  0  0  0  0  0  0  0
   33.7040   28.9030   38.3130 C   0  0  0  0  0  0  0  0  0  0  0  0
   35.0250   28.4770   38.2990 C   0  0  0  0  0  0  0  0  0  0  0  0
   35.6570   28.3380   37.1180 N   0  0  0  0  0  0  0  0  0  0  0  0
   35.0600   28.5990   35.9270 C   0  0  0  0  0  0  0  0  0  0  0  0
   33.7860   29.0130   35.9130 N   0  0  0  0  0  0  0  0  0  0  0  0
   33.2050   29.0120   39.2550 H   0  0  0  0  0  0  0  0  0  0  0  0
   35.6810   28.4470   35.0550 H   0  0  0  0  0  0  0  0  0  0  0  0
   31.6800   29.6300   37.0820 C   0  0  0  0  0  0  0  0  0  0  0  0
   30.8480   28.6490   36.5670 F   0  0  0  0  0  0  0  0  0  0  0  0
   31.2360   29.8640   38.3880 F   0  0  0  0  0  0  0  0  0  0  0  0
   31.4580   30.7560   36.3300 F   0  0  0  0  0  0  0  0  0  0  0  0
  1  9  1  0  0  0  0
  2  1  2  0  0  0  0
  2  3  1  0  0  0  0
  3  4  2  0  0  0  0
  4  8  1  0  0  0  0
  4  5  1  0  0  0  0
  5 12  1  0  0  0  0
  5  6  1  0  0  0  0
  6 13  1  0  0  0  0
  7  6  2  0  0  0  0
  8  7  1  0  0  0  0
  9 14  1  0  0  0  0
  9  8  2  0  0  0  0
 10  1  1  0  0  0  0
 11  3  1  0  0  0  0
 15 23  1  0  0  0  0
 15 16  1  0  0  0  0
 16 21  1  0  0  0  0
 17 16  2  0  0  0  0
 17  2  1  0  0  0  0
 18 17  1  0  0  0  0
 19 18  2  0  0  0  0
 20 19  1  0  0  0  0
 20 15  2  0  0  0  0
 22 19  1  0  0  0  0
 23 25  1  0  0  0  0
 24 23  1  0  0  0  0
 26 23  1  0  0  0  0
M  END
>  <minimizedAffinity>
-5.23595762

$$$$

 OpenBabel03252507353D

 26 28  0  0  0  0  0  0  0  0999 V2000
   34.7430   28.5790   37.9890 C   0  0  0  0  0  0  0  0  0  0  0  0
   36.0530   28.9530   38.2360 C   0  0  0  0  0  0  0  0  0  0  0  0
   36.8960   29.1520   37.1750 C   0  0  0  0  0  0  0  0  0  0  0  0
   36.4960   28.9960   35.8560 C   0  0  0  0  0  0  0  0  0  0  0  0
   37.1390   29.1360   34.6760 N   0  0  0  0  0  0  0  0  0  0  0  0
   36.2560   28.8550   33.6780 C   0  0  0  0  0  0  0  0  0  0  0  0
   35.0620   28.5420   34.2630 N   0  0  0  0  0  0  0  0  0  0  0  0
   35.1990   28.6250   35.5950 C   0  0  0  0  0  0  0  0  0  0  0  0
   34.3360   28.4200   36.6540 C   0  0  0  0  0  0  0  0  0  0  0  0
   33.9850   28.3920   38.7190 H   0  0  0  0  0  0  0  0  0  0  0  0
   37.9110   29.4440   37.4340 H   0  0  0  0  0  0  0  0  0  0  0  0
   38.1570   29.4190   34.6580 H   0  0  0  0  0  0  0  0  0  0  0  0
   36.5690   28.9080   32.6420 H   0  0  0  0  0  0  0  0  0  0  0  0
   33.3240   28.1300   36.4020 H   0  0  0  0  0  0  0  0  0  0  0  0
   36.8790   28.3720   41.8720 C   0  0  0  0  0  0  0  0  0  0  0  0
   36.4700   28.0650   40.5450 C   0  0  0  0  0  0  0  0  0  0  0  0
   36.4490   29.1100   39.6320 C   0  0  0  0  0  0  0  0  0  0  0  0
   36.8100   30.3430   40.0380 N   0  0  0  0  0  0  0  0  0  0  0  0
   37.1970   30.6160   41.3100 C   0  0  0  0  0  0  0  0  0  0  0  0
   37.2260   29.6250   42.2100 N   0  0  0  0  0  0  0  0  0  0  0  0
   36.1820   27.0860   40.2170 H   0  0  0  0  0  0  0  0  0  0  0  0
   37.4610   31.6470   41.5020 H   0  0  0  0  0  0  0  0  0  0  0  0
   36.8970   27.2430   42.8420 C   0  0  0  0  0  0  0  0  0  0  0  0
   37.9970   27.3460   43.6790 F   0  0  0  0  0  0  0  0  0  0  0  0
   35.7760   27.2580   43.6780 F   0  0  0  0  0  0  0  0  0  0  0  0
   36.9850   26.0110   42.2420 F   0  0  0  0  0  0  0  0  0  0  0  0
  1  2  1  0  0  0  0
  1 10  1  0  0  0  0
  2 17  1  0  0  0  0
  3 11  1  0  0  0  0
  3  2  2  0  0  0  0
  4  3  1  0  0  0  0
  5  4  1  0  0  0  0
  6  7  2  0  0  0  0
  6  5  1  0  0  0  0
  7  8  1  0  0  0  0
  8  4  2  0  0  0  0
  8  9  1  0  0  0  0
  9  1  2  0  0  0  0
 12  5  1  0  0  0  0
 13  6  1  0  0  0  0
 14  9  1  0  0  0  0
 15 20  1  0  0  0  0
 15 23  1  0  0  0  0
 16 15  2  0  0  0  0
 17 18  2  0  0  0  0
 17 16  1  0  0  0  0
 18 19  1  0  0  0  0
 19 22  1  0  0  0  0
 19 20  2  0  0  0  0
 21 16  1  0  0  0  0
 23 25  1  0  0  0  0
 23 24  1  0  0  0  0
 26 23  1  0  0  0  0
M  END
>  <minimizedAffinity>
-5.20789766

$$$$

 OpenBabel03252507353D

 26 28  0  0  0  0  0  0  0  0999 V2000
   36.7970   30.7740   38.9240 C   0  0  0  0  0  0  0  0  0  0  0  0
   37.4280   30.0510   39.9230 C   0  0  0  0  0  0  0  0  0  0  0  0
   38.2620   30.7060   40.7900 C   0  0  0  0  0  0  0  0  0  0  0  0
   38.5060   32.0690   40.7140 C   0  0  0  0  0  0  0  0  0  0  0  0
   39.2720   32.9100   41.4440 N   0  0  0  0  0  0  0  0  0  0  0  0
   39.1390   34.1610   40.9230 C   0  0  0  0  0  0  0  0  0  0  0  0
   38.2800   34.0760   39.8640 N   0  0  0  0  0  0  0  0  0  0  0  0
   37.8870   32.8010   39.7280 C   0  0  0  0  0  0  0  0  0  0  0  0
   37.0430   32.1550   38.8460 C   0  0  0  0  0  0  0  0  0  0  0  0
   36.1260   30.3910   38.1860 H   0  0  0  0  0  0  0  0  0  0  0  0
   38.7260   30.0840   41.5500 H   0  0  0  0  0  0  0  0  0  0  0  0
   39.8350   32.5410   42.2580 H   0  0  0  0  0  0  0  0  0  0  0  0
   39.6730   34.9950   41.3630 H   0  0  0  0  0  0  0  0  0  0  0  0
   36.5770   32.7700   38.0860 H   0  0  0  0  0  0  0  0  0  0  0  0
   37.1460   26.4400   40.9840 C   0  0  0  0  0  0  0  0  0  0  0  0
   37.4730   27.8220   41.0720 C   0  0  0  0  0  0  0  0  0  0  0  0
   37.1540   28.6180   39.9810 C   0  0  0  0  0  0  0  0  0  0  0  0
   36.5630   28.0560   38.9100 N   0  0  0  0  0  0  0  0  0  0  0  0
   36.2580   26.7350   38.8440 C   0  0  0  0  0  0  0  0  0  0  0  0
   36.5540   25.9450   39.8840 N   0  0  0  0  0  0  0  0  0  0  0  0
   37.9440   28.2730   41.9230 H   0  0  0  0  0  0  0  0  0  0  0  0
   35.7840   26.4150   37.9260 H   0  0  0  0  0  0  0  0  0  0  0  0
   37.4920   25.5960   42.1600 C   0  0  0  0  0  0  0  0  0  0  0  0
   38.5480   24.7530   41.8530 F   0  0  0  0  0  0  0  0  0  0  0  0
   37.9200   26.3690   43.2450 F   0  0  0  0  0  0  0  0  0  0  0  0
   36.4620   24.7870   42.5710 F   0  0  0  0  0  0  0  0  0  0  0  0
  1  2  1  0  0  0  0
  2 17  1  0  0  0  0
  2  3  2  0  0  0  0
  3 11  1  0  0  0  0
  4  3  1  0  0  0  0
  4  5  1  0  0  0  0
  5 12  1  0  0  0  0
  6 13  1  0  0  0  0
  6  5  1  0  0  0  0
  7  6  2  0  0  0  0
  8  7  1  0  0  0  0
  8  4  2  0  0  0  0
  9  1  2  0  0  0  0
  9  8  1  0  0  0  0
 10  1  1  0  0  0  0
 14  9  1  0  0  0  0
 15 16  1  0  0  0  0
 15 23  1  0  0  0  0
 16 21  1  0  0  0  0
 17 16  2  0  0  0  0
 18 17  1  0  0  0  0
 19 18  2  0  0  0  0
 19 20  1  0  0  0  0
 20 15  2  0  0  0  0
 22 19  1  0  0  0  0
 23 26  1  0  0  0  0
 23 25  1  0  0  0  0
 24 23  1  0  0  0  0
M  END
>  <minimizedAffinity>
-5.16734076

$$$$

 OpenBabel03252507353D

 26 28  0  0  0  0  0  0  0  0999 V2000
   39.6170   30.5070   41.9350 C   0  0  0  0  0  0  0  0  0  0  0  0
   38.3660   29.9920   41.6400 C   0  0  0  0  0  0  0  0  0  0  0  0
   37.4560   30.7880   40.9960 C   0  0  0  0  0  0  0  0  0  0  0  0
   37.7310   32.0950   40.6230 C   0  0  0  0  0  0  0  0  0  0  0  0
   37.0050   33.0450   39.9930 N   0  0  0  0  0  0  0  0  0  0  0  0
   37.7770   34.1610   39.8830 C   0  0  0  0  0  0  0  0  0  0  0  0
   38.9870   33.8820   40.4530 N   0  0  0  0  0  0  0  0  0  0  0  0
   38.9680   32.6210   40.9090 C   0  0  0  0  0  0  0  0  0  0  0  0
   39.8970   31.8310   41.5580 C   0  0  0  0  0  0  0  0  0  0  0  0
   40.4150   29.9990   42.4310 H   0  0  0  0  0  0  0  0  0  0  0  0
   36.4940   30.3260   40.7940 H   0  0  0  0  0  0  0  0  0  0  0  0
   36.0160   32.8390   39.6860 H   0  0  0  0  0  0  0  0  0  0  0  0
   37.3850   35.0510   39.4040 H   0  0  0  0  0  0  0  0  0  0  0  0
   40.8580   32.2860   41.7630 H   0  0  0  0  0  0  0  0  0  0  0  0
   38.6120   26.2880   42.3220 C   0  0  0  0  0  0  0  0  0  0  0  0
   39.0120   27.5800   41.8810 C   0  0  0  0  0  0  0  0  0  0  0  0
   38.1010   28.6140   42.0440 C   0  0  0  0  0  0  0  0  0  0  0  0
   36.9040   28.3510   42.6010 N   0  0  0  0  0  0  0  0  0  0  0  0
   36.5400   27.1110   43.0160 C   0  0  0  0  0  0  0  0  0  0  0  0
   37.4010   26.0960   42.8710 N   0  0  0  0  0  0  0  0  0  0  0  0
   39.9640   27.7930   41.4370 H   0  0  0  0  0  0  0  0  0  0  0  0
   35.5500   27.0390   43.4460 H   0  0  0  0  0  0  0  0  0  0  0  0
   39.5980   25.1870   42.1420 C   0  0  0  0  0  0  0  0  0  0  0  0
   40.8160   25.6970   41.7240 F   0  0  0  0  0  0  0  0  0  0  0  0
   39.8530   24.5180   43.3440 F   0  0  0  0  0  0  0  0  0  0  0  0
   39.2200   24.2680   41.1950 F   0  0  0  0  0  0  0  0  0  0  0  0
  1 10  1  0  0  0  0
  2  1  1  0  0  0  0
  2 17  1  0  0  0  0
  3  2  2  0  0  0  0
  4  8  2  0  0  0  0
  4  3  1  0  0  0  0
  5  4  1  0  0  0  0
  6  5  1  0  0  0  0
  6  7  2  0  0  0  0
  7  8  1  0  0  0  0
  8  9  1  0  0  0  0
  9 14  1  0  0  0  0
  9  1  2  0  0  0  0
 11  3  1  0  0  0  0
 12  5  1  0  0  0  0
 13  6  1  0  0  0  0
 15 20  1  0  0  0  0
 16 17  1  0  0  0  0
 16 15  2  0  0  0  0
 17 18  2  0  0  0  0
 18 19  1  0  0  0  0
 19 22  1  0  0  0  0
 20 19  2  0  0  0  0
 21 16  1  0  0  0  0
 23 15  1  0  0  0  0
 23 25  1  0  0  0  0
 24 23  1  0  0  0  0
 26 23  1  0  0  0  0
M  END
>  <minimizedAffinity>
-5.16189957

$$$$

 OpenBabel03252507353D

 26 28  0  0  0  0  0  0  0  0999 V2000
   36.9060   29.2380   39.0360 C   0  0  0  0  0  0  0  0  0  0  0  0
   37.0080   29.3200   40.4150 C   0  0  0  0  0  0  0  0  0  0  0  0
   37.1520   30.5520   40.9970 C   0  0  0  0  0  0  0  0  0  0  0  0
   37.2000   31.7290   40.2650 C   0  0  0  0  0  0  0  0  0  0  0  0
   37.3330   33.0260   40.6160 N   0  0  0  0  0  0  0  0  0  0  0  0
   37.3180   33.7750   39.4790 C   0  0  0  0  0  0  0  0  0  0  0  0
   37.1740   32.9180   38.4250 N   0  0  0  0  0  0  0  0  0  0  0  0
   37.1010   31.6640   38.8960 C   0  0  0  0  0  0  0  0  0  0  0  0
   36.9560   30.4290   38.2930 C   0  0  0  0  0  0  0  0  0  0  0  0
   36.7920   28.3470   38.4570 H   0  0  0  0  0  0  0  0  0  0  0  0
   37.2260   30.5490   42.0810 H   0  0  0  0  0  0  0  0  0  0  0  0
   37.4250   33.2930   41.6340 H   0  0  0  0  0  0  0  0  0  0  0  0
   37.4120   34.8530   39.5340 H   0  0  0  0  0  0  0  0  0  0  0  0
   36.8810   30.4250   37.2130 H   0  0  0  0  0  0  0  0  0  0  0  0
   37.0150   25.6850   41.4310 C   0  0  0  0  0  0  0  0  0  0  0  0
   37.0900   26.8170   40.5730 C   0  0  0  0  0  0  0  0  0  0  0  0
   36.9540   28.0670   41.1620 C   0  0  0  0  0  0  0  0  0  0  0  0
   36.7600   28.1470   42.4920 N   0  0  0  0  0  0  0  0  0  0  0  0
   36.6920   27.0550   43.2950 C   0  0  0  0  0  0  0  0  0  0  0  0
   36.8200   25.8380   42.7520 N   0  0  0  0  0  0  0  0  0  0  0  0
   37.2440   26.7580   39.5150 H   0  0  0  0  0  0  0  0  0  0  0  0
   36.5330   27.2610   44.3450 H   0  0  0  0  0  0  0  0  0  0  0  0
   37.1630   24.3510   40.7880 C   0  0  0  0  0  0  0  0  0  0  0  0
   35.9210   23.7590   40.6190 F   0  0  0  0  0  0  0  0  0  0  0  0
   37.7190   24.4500   39.5090 F   0  0  0  0  0  0  0  0  0  0  0  0
   37.9100   23.4690   41.5300 F   0  0  0  0  0  0  0  0  0  0  0  0
  1  2  1  0  0  0  0
  2  3  2  0  0  0  0
  2 17  1  0  0  0  0
  3 11  1  0  0  0  0
  4  5  1  0  0  0  0
  4  3  1  0  0  0  0
  5 12  1  0  0  0  0
  6 13  1  0  0  0  0
  6  5  1  0  0  0  0
  7  8  1  0  0  0  0
  7  6  2  0  0  0  0
  8  4  2  0  0  0  0
  9  8  1  0  0  0  0
  9  1  2  0  0  0  0
 10  1  1  0  0  0  0
 14  9  1  0  0  0  0
 15 20  1  0  0  0  0
 16 17  1  0  0  0  0
 16 15  2  0  0  0  0
 17 18  2  0  0  0  0
 18 19  1  0  0  0  0
 19 22  1  0  0  0  0
 20 19  2  0  0  0  0
 21 16  1  0  0  0  0
 23 15  1  0  0  0  0
 23 26  1  0  0  0  0
 24 23  1  0  0  0  0
 25 23  1  0  0  0  0
M  END
>  <minimizedAffinity>
-5.13795471

$$$$

 OpenBabel03252507353D

 26 28  0  0  0  0  0  0  0  0999 V2000
   39.1060   29.3970   39.9870 C   0  0  0  0  0  0  0  0  0  0  0  0
   39.0760   30.5440   40.7620 C   0  0  0  0  0  0  0  0  0  0  0  0
   38.4850   30.4940   41.9970 C   0  0  0  0  0  0  0  0  0  0  0  0
   37.9110   29.3400   42.5100 C   0  0  0  0  0  0  0  0  0  0  0  0
   37.2870   29.0630   43.6760 N   0  0  0  0  0  0  0  0  0  0  0  0
   36.9170   27.7530   43.6540 C   0  0  0  0  0  0  0  0  0  0  0  0
   37.3240   27.2300   42.4600 N   0  0  0  0  0  0  0  0  0  0  0  0
   37.9330   28.1940   41.7530 C   0  0  0  0  0  0  0  0  0  0  0  0
   38.5250   28.2280   40.5050 C   0  0  0  0  0  0  0  0  0  0  0  0
   39.5320   29.2970   39.0120 H   0  0  0  0  0  0  0  0  0  0  0  0
   38.4940   31.4260   42.5560 H   0  0  0  0  0  0  0  0  0  0  0  0
   37.1650   29.8180   44.4050 H   0  0  0  0  0  0  0  0  0  0  0  0
   36.3970   27.3190   44.5000 H   0  0  0  0  0  0  0  0  0  0  0  0
   38.5200   27.3020   39.9440 H   0  0  0  0  0  0  0  0  0  0  0  0
   41.1330   32.9710   38.7320 C   0  0  0  0  0  0  0  0  0  0  0  0
   40.6260   31.7190   39.1780 C   0  0  0  0  0  0  0  0  0  0  0  0
   39.6870   31.7450   40.1990 C   0  0  0  0  0  0  0  0  0  0  0  0
   39.3070   32.9310   40.7110 N   0  0  0  0  0  0  0  0  0  0  0  0
   39.8020   34.1160   40.2730 C   0  0  0  0  0  0  0  0  0  0  0  0
   40.7090   34.1190   39.2880 N   0  0  0  0  0  0  0  0  0  0  0  0
   40.9250   30.7730   38.7730 H   0  0  0  0  0  0  0  0  0  0  0  0
   39.4110   34.9930   40.7700 H   0  0  0  0  0  0  0  0  0  0  0  0
   42.1390   32.9320   37.6360 C   0  0  0  0  0  0  0  0  0  0  0  0
   42.2060   34.1610   37.0000 F   0  0  0  0  0  0  0  0  0  0  0  0
   43.4260   32.6800   38.1220 F   0  0  0  0  0  0  0  0  0  0  0  0
   41.8460   32.0110   36.6610 F   0  0  0  0  0  0  0  0  0  0  0  0
  1  9  2  0  0  0  0
  1  2  1  0  0  0  0
  2  3  2  0  0  0  0
  3  4  1  0  0  0  0
  3 11  1  0  0  0  0
  4  5  1  0  0  0  0
  5 12  1  0  0  0  0
  6  5  1  0  0  0  0
  6 13  1  0  0  0  0
  7  6  2  0  0  0  0
  8  7  1  0  0  0  0
  8  4  2  0  0  0  0
  9  8  1  0  0  0  0
 10  1  1  0  0  0  0
 14  9  1  0  0  0  0
 15 16  2  0  0  0  0
 15 20  1  0  0  0  0
 16 17  1  0  0  0  0
 17 18  2  0  0  0  0
 17  2  1  0  0  0  0
 19 18  1  0  0  0  0
 19 22  1  0  0  0  0
 20 19  2  0  0  0  0
 21 16  1  0  0  0  0
 23 25  1  0  0  0  0
 23 15  1  0  0  0  0
 24 23  1  0  0  0  0
 26 23  1  0  0  0  0
M  END
>  <minimizedAffinity>
-4.98428249

$$$$
