
 OpenBabel03252503253D

 42 46  0  0  1  0  0  0  0  0999 V2000
   35.4540   29.4830   37.5860 C   0  0  1  0  0  0  0  0  0  0  0  0
   35.4740   28.3070   36.7230 C   0  0  0  0  0  0  0  0  0  0  0  0
   34.2360   28.5810   37.4940 C   0  0  2  0  0  0  0  0  0  0  0  0
   35.3330   30.4960   37.1630 H   0  0  0  0  0  0  0  0  0  0  0  0
   36.0550   27.4280   37.1370 H   0  0  0  0  0  0  0  0  0  0  0  0
   35.6380   28.4730   35.6720 H   0  0  0  0  0  0  0  0  0  0  0  0
   33.9640   28.0720   38.4230 H   0  0  0  0  0  0  0  0  0  0  0  0
   33.0950   29.1830   36.7440 C   0  0  0  0  0  0  0  0  0  0  0  0
   33.0080   29.2270   35.3680 C   0  0  0  0  0  0  0  0  0  0  0  0
   31.9220   29.8130   34.7480 C   0  0  0  0  0  0  0  0  0  0  0  0
   30.9020   30.3670   35.4860 C   0  0  0  0  0  0  0  0  0  0  0  0
   29.8280   30.9470   34.9020 N   0  0  0  0  0  0  0  0  0  0  0  0
   28.8320   31.4900   35.6600 C   0  0  0  0  0  0  0  0  0  0  0  0
   28.8470   31.4860   37.0760 C   0  0  0  0  0  0  0  0  0  0  0  0
   29.9340   30.8990   37.6790 C   0  0  0  0  0  0  0  0  0  0  0  0
   30.9410   30.3500   36.8860 C   0  0  0  0  0  0  0  0  0  0  0  0
   32.0450   29.7550   37.4620 C   0  0  0  0  0  0  0  0  0  0  0  0
   33.8200   28.7860   34.8060 H   0  0  0  0  0  0  0  0  0  0  0  0
   31.8460   29.8500   33.6650 H   0  0  0  0  0  0  0  0  0  0  0  0
   27.9950   31.9410   35.1470 H   0  0  0  0  0  0  0  0  0  0  0  0
   28.0190   31.9380   37.6030 H   0  0  0  0  0  0  0  0  0  0  0  0
   29.9900   30.8730   38.7580 H   0  0  0  0  0  0  0  0  0  0  0  0
   32.0120   29.7830   38.5440 H   0  0  0  0  0  0  0  0  0  0  0  0
   37.2050   28.4910   39.0990 C   0  0  0  0  0  0  0  0  0  0  0  0
   36.1830   29.4770   38.8900 C   0  0  0  0  0  0  0  0  0  0  0  0
   35.9260   30.3650   39.9020 C   0  0  0  0  0  0  0  0  0  0  0  0
   36.6520   30.2620   41.0450 N   0  0  0  0  0  0  0  0  0  0  0  0
   37.6160   29.3230   41.2260 C   0  0  0  0  0  0  0  0  0  0  0  0
   37.8940   28.4340   40.2500 N   0  0  0  0  0  0  0  0  0  0  0  0
   37.3650   27.8160   38.2650 H   0  0  0  0  0  0  0  0  0  0  0  0
   35.1630   31.1200   39.7770 H   0  0  0  0  0  0  0  0  0  0  0  0
   38.3610   29.3250   42.5160 C   0  0  2  0  0  0  0  0  0  0  0  0
   39.1050   28.1630   42.9670 C   0  0  0  0  0  0  0  0  0  0  0  0
   37.7660   28.4320   43.6120 C   0  0  2  0  0  0  0  0  0  0  0  0
   38.4790   30.3720   42.9030 H   0  0  0  0  0  0  0  0  0  0  0  0
   40.0340   28.3800   43.5550 H   0  0  0  0  0  0  0  0  0  0  0  0
   39.2500   27.3400   42.2580 H   0  0  0  0  0  0  0  0  0  0  0  0
   37.8460   28.7700   44.6640 H   0  0  0  0  0  0  0  0  0  0  0  0
   36.6640   27.4970   43.3100 C   0  0  0  0  0  0  0  0  0  0  0  0
   35.8970   27.2340   44.4290 F   0  0  0  0  0  0  0  0  0  0  0  0
   37.2050   26.3030   42.8770 F   0  0  0  0  0  0  0  0  0  0  0  0
   35.7970   27.9120   42.3350 F   0  0  0  0  0  0  0  0  0  0  0  0
  1  4  1  6  0  0  0
  1 25  1  0  0  0  0
  2  5  1  0  0  0  0
  2  3  1  0  0  0  0
  2  1  1  0  0  0  0
  3  1  1  0  0  0  0
  3  7  1  1  0  0  0
  6  2  1  0  0  0  0
  8 17  1  0  0  0  0
  8  3  1  0  0  0  0
  9  8  2  0  0  0  0
 10  9  1  0  0  0  0
 10 11  2  0  0  0  0
 11 16  1  0  0  0  0
 12 11  1  0  0  0  0
 12 13  2  0  0  0  0
 13 14  1  0  0  0  0
 14 21  1  0  0  0  0
 14 15  2  0  0  0  0
 15 22  1  0  0  0  0
 16 17  2  0  0  0  0
 16 15  1  0  0  0  0
 17 23  1  0  0  0  0
 18  9  1  0  0  0  0
 19 10  1  0  0  0  0
 20 13  1  0  0  0  0
 24 29  1  0  0  0  0
 25 24  2  0  0  0  0
 25 26  1  0  0  0  0
 26 27  2  0  0  0  0
 27 28  1  0  0  0  0
 28 32  1  0  0  0  0
 29 28  2  0  0  0  0
 30 24  1  0  0  0  0
 31 26  1  0  0  0  0
 32 35  1  1  0  0  0
 32 33  1  0  0  0  0
 32 34  1  0  0  0  0
 33 36  1  0  0  0  0
 33 34  1  0  0  0  0
 34 38  1  1  0  0  0
 37 33  1  0  0  0  0
 39 34  1  0  0  0  0
 39 40  1  0  0  0  0
 41 39  1  0  0  0  0
 42 39  1  0  0  0  0
M  END
>  <minimizedAffinity>
-6.61861706

$$$$

 OpenBabel03252503253D

 42 46  0  0  1  0  0  0  0  0999 V2000
   35.1840   28.8320   37.7700 C   0  0  1  0  0  0  0  0  0  0  0  0
   35.2920   27.9990   36.5770 C   0  0  0  0  0  0  0  0  0  0  0  0
   33.9600   28.1210   37.2210 C   0  0  2  0  0  0  0  0  0  0  0  0
   35.1730   29.9340   37.6940 H   0  0  0  0  0  0  0  0  0  0  0  0
   35.7650   26.9850   36.7510 H   0  0  0  0  0  0  0  0  0  0  0  0
   35.6250   28.4790   35.6730 H   0  0  0  0  0  0  0  0  0  0  0  0
   33.5260   27.3670   37.8830 H   0  0  0  0  0  0  0  0  0  0  0  0
   32.9770   29.0320   36.5660 C   0  0  0  0  0  0  0  0  0  0  0  0
   33.0070   29.3750   35.2310 C   0  0  0  0  0  0  0  0  0  0  0  0
   32.0650   30.2360   34.7010 C   0  0  0  0  0  0  0  0  0  0  0  0
   31.0750   30.7700   35.4920 C   0  0  0  0  0  0  0  0  0  0  0  0
   30.1410   31.6150   34.9980 N   0  0  0  0  0  0  0  0  0  0  0  0
   29.1710   32.1310   35.8060 C   0  0  0  0  0  0  0  0  0  0  0  0
   29.0720   31.8300   37.1860 C   0  0  0  0  0  0  0  0  0  0  0  0
   30.0160   30.9720   37.6990 C   0  0  0  0  0  0  0  0  0  0  0  0
   30.9990   30.4550   36.8550 C   0  0  0  0  0  0  0  0  0  0  0  0
   31.9610   29.5920   37.3400 C   0  0  0  0  0  0  0  0  0  0  0  0
   33.7940   28.9440   34.6260 H   0  0  0  0  0  0  0  0  0  0  0  0
   32.0830   30.5100   33.6510 H   0  0  0  0  0  0  0  0  0  0  0  0
   28.4480   32.8020   35.3640 H   0  0  0  0  0  0  0  0  0  0  0  0
   28.2740   32.2810   37.7580 H   0  0  0  0  0  0  0  0  0  0  0  0
   29.9810   30.7120   38.7470 H   0  0  0  0  0  0  0  0  0  0  0  0
   31.8450   29.3990   38.3990 H   0  0  0  0  0  0  0  0  0  0  0  0
   35.4060   29.1060   40.2640 C   0  0  0  0  0  0  0  0  0  0  0  0
   35.6990   28.3420   39.0840 C   0  0  0  0  0  0  0  0  0  0  0  0
   36.4430   27.1990   39.2240 C   0  0  0  0  0  0  0  0  0  0  0  0
   36.8600   26.8540   40.4690 N   0  0  0  0  0  0  0  0  0  0  0  0
   36.5720   27.5870   41.5740 C   0  0  0  0  0  0  0  0  0  0  0  0
   35.8430   28.7180   41.4720 N   0  0  0  0  0  0  0  0  0  0  0  0
   34.8150   30.0000   40.0940 H   0  0  0  0  0  0  0  0  0  0  0  0
   36.6820   26.6020   38.3560 H   0  0  0  0  0  0  0  0  0  0  0  0
   37.0650   27.0920   42.8900 C   0  0  2  0  0  0  0  0  0  0  0  0
   37.1410   27.9610   44.0510 C   0  0  0  0  0  0  0  0  0  0  0  0
   38.4280   27.6480   43.3250 C   0  0  2  0  0  0  0  0  0  0  0  0
   37.0910   25.9700   42.9070 H   0  0  0  0  0  0  0  0  0  0  0  0
   36.9520   27.4690   45.0390 H   0  0  0  0  0  0  0  0  0  0  0  0
   36.6660   28.9470   43.9850 H   0  0  0  0  0  0  0  0  0  0  0  0
   39.1060   26.9850   43.8980 H   0  0  0  0  0  0  0  0  0  0  0  0
   39.0720   28.7440   42.5740 C   0  0  0  0  0  0  0  0  0  0  0  0
   39.2840   28.4020   41.2520 F   0  0  0  0  0  0  0  0  0  0  0  0
   40.3010   29.0070   43.1450 F   0  0  0  0  0  0  0  0  0  0  0  0
   38.3830   29.9280   42.5620 F   0  0  0  0  0  0  0  0  0  0  0  0
  1  4  1  6  0  0  0
  1 25  1  0  0  0  0
  2  5  1  0  0  0  0
  2  3  1  0  0  0  0
  2  1  1  0  0  0  0
  3  1  1  0  0  0  0
  3  7  1  1  0  0  0
  6  2  1  0  0  0  0
  8  3  1  0  0  0  0
  8 17  1  0  0  0  0
  9  8  2  0  0  0  0
 10  9  1  0  0  0  0
 10 11  2  0  0  0  0
 11 16  1  0  0  0  0
 12 11  1  0  0  0  0
 12 13  2  0  0  0  0
 13 14  1  0  0  0  0
 14 15  2  0  0  0  0
 14 21  1  0  0  0  0
 15 22  1  0  0  0  0
 16 17  2  0  0  0  0
 16 15  1  0  0  0  0
 17 23  1  0  0  0  0
 18  9  1  0  0  0  0
 19 10  1  0  0  0  0
 20 13  1  0  0  0  0
 24 29  1  0  0  0  0
 25 26  1  0  0  0  0
 25 24  2  0  0  0  0
 26 27  2  0  0  0  0
 27 28  1  0  0  0  0
 28 32  1  0  0  0  0
 29 28  2  0  0  0  0
 30 24  1  0  0  0  0
 31 26  1  0  0  0  0
 32 35  1  1  0  0  0
 32 34  1  0  0  0  0
 32 33  1  0  0  0  0
 33 36  1  0  0  0  0
 34 38  1  1  0  0  0
 34 33  1  0  0  0  0
 37 33  1  0  0  0  0
 39 41  1  0  0  0  0
 39 34  1  0  0  0  0
 40 39  1  0  0  0  0
 42 39  1  0  0  0  0
M  END
>  <minimizedAffinity>
-6.57307863

$$$$

 OpenBabel03252503253D

 42 46  0  0  1  0  0  0  0  0999 V2000
   34.6690   29.2150   37.9300 C   0  0  1  0  0  0  0  0  0  0  0  0
   34.5880   28.5160   36.6510 C   0  0  0  0  0  0  0  0  0  0  0  0
   33.3830   28.5210   37.5170 C   0  0  2  0  0  0  0  0  0  0  0  0
   34.6250   30.3170   37.9790 H   0  0  0  0  0  0  0  0  0  0  0  0
   35.1010   27.5080   36.6320 H   0  0  0  0  0  0  0  0  0  0  0  0
   34.7550   29.1010   35.7630 H   0  0  0  0  0  0  0  0  0  0  0  0
   33.0800   27.6870   38.1550 H   0  0  0  0  0  0  0  0  0  0  0  0
   32.2870   29.4600   37.1390 C   0  0  0  0  0  0  0  0  0  0  0  0
   31.3050   29.8960   38.0040 C   0  0  0  0  0  0  0  0  0  0  0  0
   30.3160   30.7590   37.5740 C   0  0  0  0  0  0  0  0  0  0  0  0
   30.2860   31.2040   36.2720 C   0  0  0  0  0  0  0  0  0  0  0  0
   29.3280   32.0490   35.8260 N   0  0  0  0  0  0  0  0  0  0  0  0
   29.3220   32.4730   34.5300 C   0  0  0  0  0  0  0  0  0  0  0  0
   30.2920   32.0710   33.5800 C   0  0  0  0  0  0  0  0  0  0  0  0
   31.2700   31.2130   34.0230 C   0  0  0  0  0  0  0  0  0  0  0  0
   31.2580   30.7920   35.3530 C   0  0  0  0  0  0  0  0  0  0  0  0
   32.2250   29.9300   35.8270 C   0  0  0  0  0  0  0  0  0  0  0  0
   31.3460   29.5340   39.0230 H   0  0  0  0  0  0  0  0  0  0  0  0
   29.5410   31.1070   38.2500 H   0  0  0  0  0  0  0  0  0  0  0  0
   28.5360   33.1480   34.2220 H   0  0  0  0  0  0  0  0  0  0  0  0
   30.2170   32.4520   32.5710 H   0  0  0  0  0  0  0  0  0  0  0  0
   32.0320   30.8780   33.3340 H   0  0  0  0  0  0  0  0  0  0  0  0
   32.9390   29.6490   35.0620 H   0  0  0  0  0  0  0  0  0  0  0  0
   35.1650   29.1200   40.3970 C   0  0  0  0  0  0  0  0  0  0  0  0
   35.4070   28.6070   39.0780 C   0  0  0  0  0  0  0  0  0  0  0  0
   36.3100   27.5850   38.9390 C   0  0  0  0  0  0  0  0  0  0  0  0
   36.9220   27.1140   40.0550 N   0  0  0  0  0  0  0  0  0  0  0  0
   36.6810   27.6100   41.2950 C   0  0  0  0  0  0  0  0  0  0  0  0
   35.7990   28.6160   41.4680 N   0  0  0  0  0  0  0  0  0  0  0  0
   34.4420   29.9280   40.4480 H   0  0  0  0  0  0  0  0  0  0  0  0
   36.5150   27.1770   37.9600 H   0  0  0  0  0  0  0  0  0  0  0  0
   37.3990   26.9940   42.4460 C   0  0  2  0  0  0  0  0  0  0  0  0
   37.4480   27.6390   43.7460 C   0  0  0  0  0  0  0  0  0  0  0  0
   38.6800   27.7200   42.8770 C   0  0  2  0  0  0  0  0  0  0  0  0
   37.6260   25.9150   42.2400 H   0  0  0  0  0  0  0  0  0  0  0  0
   37.4610   26.9510   44.6300 H   0  0  0  0  0  0  0  0  0  0  0  0
   36.8000   28.5080   43.9120 H   0  0  0  0  0  0  0  0  0  0  0  0
   39.5250   27.1110   43.2560 H   0  0  0  0  0  0  0  0  0  0  0  0
   39.0300   29.0380   42.3100 C   0  0  0  0  0  0  0  0  0  0  0  0
   39.1940   28.9760   40.9400 F   0  0  0  0  0  0  0  0  0  0  0  0
   40.2270   29.4510   42.8610 F   0  0  0  0  0  0  0  0  0  0  0  0
   38.1220   30.0350   42.5480 F   0  0  0  0  0  0  0  0  0  0  0  0
  1  4  1  6  0  0  0
  1 25  1  0  0  0  0
  2  3  1  0  0  0  0
  2  1  1  0  0  0  0
  3  1  1  0  0  0  0
  3  7  1  1  0  0  0
  5  2  1  0  0  0  0
  6  2  1  0  0  0  0
  8  3  1  0  0  0  0
  8  9  1  0  0  0  0
  9 18  1  0  0  0  0
 10  9  2  0  0  0  0
 10 19  1  0  0  0  0
 11 10  1  0  0  0  0
 12 11  1  0  0  0  0
 13 12  2  0  0  0  0
 14 15  2  0  0  0  0
 14 13  1  0  0  0  0
 15 16  1  0  0  0  0
 16 17  1  0  0  0  0
 16 11  2  0  0  0  0
 17  8  2  0  0  0  0
 20 13  1  0  0  0  0
 21 14  1  0  0  0  0
 22 15  1  0  0  0  0
 23 17  1  0  0  0  0
 24 30  1  0  0  0  0
 24 29  1  0  0  0  0
 25 24  2  0  0  0  0
 26 25  1  0  0  0  0
 26 27  2  0  0  0  0
 27 28  1  0  0  0  0
 28 29  2  0  0  0  0
 28 32  1  0  0  0  0
 31 26  1  0  0  0  0
 32 35  1  1  0  0  0
 32 34  1  0  0  0  0
 32 33  1  0  0  0  0
 33 37  1  0  0  0  0
 33 36  1  0  0  0  0
 34 38  1  1  0  0  0
 34 33  1  0  0  0  0
 39 42  1  0  0  0  0
 39 41  1  0  0  0  0
 39 34  1  0  0  0  0
 40 39  1  0  0  0  0
M  END
>  <minimizedAffinity>
-6.52187586

$$$$

 OpenBabel03252503253D

 42 46  0  0  1  0  0  0  0  0999 V2000
   34.8840   29.3030   37.5710 C   0  0  1  0  0  0  0  0  0  0  0  0
   34.4950   28.2200   36.6730 C   0  0  0  0  0  0  0  0  0  0  0  0
   33.5350   28.6240   37.7300 C   0  0  2  0  0  0  0  0  0  0  0  0
   34.8550   30.3560   37.2370 H   0  0  0  0  0  0  0  0  0  0  0  0
   34.9870   27.2250   36.8940 H   0  0  0  0  0  0  0  0  0  0  0  0
   34.4430   28.4500   35.6230 H   0  0  0  0  0  0  0  0  0  0  0  0
   33.3950   28.0870   38.6710 H   0  0  0  0  0  0  0  0  0  0  0  0
   32.3820   29.4690   37.3040 C   0  0  0  0  0  0  0  0  0  0  0  0
   31.3590   29.8650   38.1410 C   0  0  0  0  0  0  0  0  0  0  0  0
   30.3180   30.6400   37.6670 C   0  0  0  0  0  0  0  0  0  0  0  0
   30.2760   31.0340   36.3500 C   0  0  0  0  0  0  0  0  0  0  0  0
   29.2680   31.7930   35.8610 N   0  0  0  0  0  0  0  0  0  0  0  0
   29.2520   32.1690   34.5500 C   0  0  0  0  0  0  0  0  0  0  0  0
   30.2610   31.8030   33.6270 C   0  0  0  0  0  0  0  0  0  0  0  0
   31.2910   31.0320   34.1140 C   0  0  0  0  0  0  0  0  0  0  0  0
   31.2890   30.6600   35.4580 C   0  0  0  0  0  0  0  0  0  0  0  0
   32.3070   29.8860   35.9750 C   0  0  0  0  0  0  0  0  0  0  0  0
   31.4110   29.5440   39.1720 H   0  0  0  0  0  0  0  0  0  0  0  0
   29.5100   30.9560   38.3200 H   0  0  0  0  0  0  0  0  0  0  0  0
   28.4250   32.7750   34.2070 H   0  0  0  0  0  0  0  0  0  0  0  0
   30.1750   32.1410   32.6040 H   0  0  0  0  0  0  0  0  0  0  0  0
   32.0850   30.7280   33.4470 H   0  0  0  0  0  0  0  0  0  0  0  0
   33.0490   29.6290   35.2300 H   0  0  0  0  0  0  0  0  0  0  0  0
   36.4480   27.7510   38.7900 C   0  0  0  0  0  0  0  0  0  0  0  0
   35.8780   29.0620   38.6600 C   0  0  0  0  0  0  0  0  0  0  0  0
   36.2730   30.0290   39.5480 C   0  0  0  0  0  0  0  0  0  0  0  0
   37.1810   29.6930   40.4990 N   0  0  0  0  0  0  0  0  0  0  0  0
   37.7110   28.4480   40.6070 C   0  0  0  0  0  0  0  0  0  0  0  0
   37.3440   27.4730   39.7500 N   0  0  0  0  0  0  0  0  0  0  0  0
   36.0990   27.0270   38.0610 H   0  0  0  0  0  0  0  0  0  0  0  0
   35.8620   31.0260   39.4780 H   0  0  0  0  0  0  0  0  0  0  0  0
   38.7180   28.2070   41.6790 C   0  0  2  0  0  0  0  0  0  0  0  0
   39.0460   26.8660   42.1290 C   0  0  0  0  0  0  0  0  0  0  0  0
   38.1440   27.7000   43.0080 C   0  0  2  0  0  0  0  0  0  0  0  0
   39.3330   29.1290   41.8590 H   0  0  0  0  0  0  0  0  0  0  0  0
   40.1070   26.7080   42.4500 H   0  0  0  0  0  0  0  0  0  0  0  0
   38.6620   26.0220   41.5440 H   0  0  0  0  0  0  0  0  0  0  0  0
   38.6300   28.0280   43.9480 H   0  0  0  0  0  0  0  0  0  0  0  0
   36.7290   27.2930   43.1150 C   0  0  0  0  0  0  0  0  0  0  0  0
   36.2930   27.3010   44.4250 F   0  0  0  0  0  0  0  0  0  0  0  0
   36.6040   26.0040   42.6340 F   0  0  0  0  0  0  0  0  0  0  0  0
   35.8450   28.0640   42.4070 F   0  0  0  0  0  0  0  0  0  0  0  0
  1  4  1  6  0  0  0
  1  3  1  0  0  0  0
  1 25  1  0  0  0  0
  2  5  1  0  0  0  0
  2  1  1  0  0  0  0
  2  3  1  0  0  0  0
  3  7  1  1  0  0  0
  6  2  1  0  0  0  0
  8  3  1  0  0  0  0
  8  9  1  0  0  0  0
  9 18  1  0  0  0  0
 10  9  2  0  0  0  0
 10 19  1  0  0  0  0
 11 10  1  0  0  0  0
 12 11  1  0  0  0  0
 13 12  2  0  0  0  0
 14 15  2  0  0  0  0
 14 13  1  0  0  0  0
 15 16  1  0  0  0  0
 16 17  1  0  0  0  0
 16 11  2  0  0  0  0
 17  8  2  0  0  0  0
 20 13  1  0  0  0  0
 21 14  1  0  0  0  0
 22 15  1  0  0  0  0
 23 17  1  0  0  0  0
 24 29  1  0  0  0  0
 25 24  2  0  0  0  0
 25 26  1  0  0  0  0
 26 27  2  0  0  0  0
 27 28  1  0  0  0  0
 28 32  1  0  0  0  0
 29 28  2  0  0  0  0
 30 24  1  0  0  0  0
 31 26  1  0  0  0  0
 32 35  1  1  0  0  0
 32 33  1  0  0  0  0
 32 34  1  0  0  0  0
 33 36  1  0  0  0  0
 33 34  1  0  0  0  0
 34 39  1  0  0  0  0
 34 38  1  1  0  0  0
 37 33  1  0  0  0  0
 39 40  1  0  0  0  0
 41 39  1  0  0  0  0
 42 39  1  0  0  0  0
M  END
>  <minimizedAffinity>
-6.34873199

$$$$

 OpenBabel03252503253D

 42 46  0  0  1  0  0  0  0  0999 V2000
   34.6130   29.2800   37.8820 C   0  0  1  0  0  0  0  0  0  0  0  0
   34.4520   28.4580   36.6860 C   0  0  0  0  0  0  0  0  0  0  0  0
   33.2850   28.6020   37.5920 C   0  0  2  0  0  0  0  0  0  0  0  0
   34.6130   30.3830   37.8170 H   0  0  0  0  0  0  0  0  0  0  0  0
   34.9260   27.4320   36.7530 H   0  0  0  0  0  0  0  0  0  0  0  0
   34.6040   28.9410   35.7360 H   0  0  0  0  0  0  0  0  0  0  0  0
   32.9780   27.8510   38.3240 H   0  0  0  0  0  0  0  0  0  0  0  0
   32.2110   29.5430   37.1600 C   0  0  0  0  0  0  0  0  0  0  0  0
   31.2570   30.0720   38.0040 C   0  0  0  0  0  0  0  0  0  0  0  0
   30.2860   30.9300   37.5240 C   0  0  0  0  0  0  0  0  0  0  0  0
   30.2470   31.2760   36.1930 C   0  0  0  0  0  0  0  0  0  0  0  0
   29.3060   32.1140   35.6980 N   0  0  0  0  0  0  0  0  0  0  0  0
   29.2910   32.4390   34.3740 C   0  0  0  0  0  0  0  0  0  0  0  0
   30.2330   31.9380   33.4430 C   0  0  0  0  0  0  0  0  0  0  0  0
   31.1930   31.0860   33.9350 C   0  0  0  0  0  0  0  0  0  0  0  0
   31.1910   30.7670   35.2930 C   0  0  0  0  0  0  0  0  0  0  0  0
   32.1410   29.9140   35.8170 C   0  0  0  0  0  0  0  0  0  0  0  0
   31.3050   29.7870   39.0460 H   0  0  0  0  0  0  0  0  0  0  0  0
   29.5330   31.3500   38.1830 H   0  0  0  0  0  0  0  0  0  0  0  0
   28.5200   33.1120   34.0270 H   0  0  0  0  0  0  0  0  0  0  0  0
   30.1520   32.2440   32.4100 H   0  0  0  0  0  0  0  0  0  0  0  0
   31.9340   30.6780   33.2630 H   0  0  0  0  0  0  0  0  0  0  0  0
   32.8330   29.5550   35.0650 H   0  0  0  0  0  0  0  0  0  0  0  0
   36.5660   27.9970   38.8200 C   0  0  0  0  0  0  0  0  0  0  0  0
   35.3750   28.7630   39.0580 C   0  0  0  0  0  0  0  0  0  0  0  0
   34.9960   28.9800   40.3570 C   0  0  0  0  0  0  0  0  0  0  0  0
   35.7660   28.4580   41.3450 N   0  0  0  0  0  0  0  0  0  0  0  0
   36.8900   27.7360   41.1030 C   0  0  0  0  0  0  0  0  0  0  0  0
   37.2920   27.5040   39.8360 N   0  0  0  0  0  0  0  0  0  0  0  0
   36.8180   27.8570   37.7740 H   0  0  0  0  0  0  0  0  0  0  0  0
   34.1050   29.5520   40.5700 H   0  0  0  0  0  0  0  0  0  0  0  0
   37.6660   27.2360   42.2720 C   0  0  2  0  0  0  0  0  0  0  0  0
   37.5400   27.8420   43.5860 C   0  0  0  0  0  0  0  0  0  0  0  0
   38.7680   28.1800   42.7740 C   0  0  2  0  0  0  0  0  0  0  0  0
   38.1030   26.2260   42.0550 H   0  0  0  0  0  0  0  0  0  0  0  0
   37.6500   27.1440   44.4550 H   0  0  0  0  0  0  0  0  0  0  0  0
   36.7320   28.5670   43.7400 H   0  0  0  0  0  0  0  0  0  0  0  0
   39.6970   27.7320   43.1770 H   0  0  0  0  0  0  0  0  0  0  0  0
   38.8810   29.5550   42.2490 C   0  0  0  0  0  0  0  0  0  0  0  0
   37.6630   30.2070   42.2560 F   0  0  0  0  0  0  0  0  0  0  0  0
   39.3210   29.4930   40.9410 F   0  0  0  0  0  0  0  0  0  0  0  0
   39.7590   30.3650   42.9190 F   0  0  0  0  0  0  0  0  0  0  0  0
  1  4  1  6  0  0  0
  1 25  1  0  0  0  0
  2  5  1  0  0  0  0
  2  3  1  0  0  0  0
  2  1  1  0  0  0  0
  3  1  1  0  0  0  0
  3  7  1  1  0  0  0
  6  2  1  0  0  0  0
  8  3  1  0  0  0  0
  8  9  1  0  0  0  0
  9 18  1  0  0  0  0
 10  9  2  0  0  0  0
 10 19  1  0  0  0  0
 11 10  1  0  0  0  0
 12 11  1  0  0  0  0
 13 12  2  0  0  0  0
 14 15  2  0  0  0  0
 14 13  1  0  0  0  0
 15 16  1  0  0  0  0
 16 17  1  0  0  0  0
 16 11  2  0  0  0  0
 17  8  2  0  0  0  0
 20 13  1  0  0  0  0
 21 14  1  0  0  0  0
 22 15  1  0  0  0  0
 23 17  1  0  0  0  0
 24 25  2  0  0  0  0
 24 29  1  0  0  0  0
 25 26  1  0  0  0  0
 26 31  1  0  0  0  0
 26 27  2  0  0  0  0
 28 27  1  0  0  0  0
 28 32  1  0  0  0  0
 29 28  2  0  0  0  0
 30 24  1  0  0  0  0
 32 35  1  6  0  0  0
 32 34  1  0  0  0  0
 32 33  1  0  0  0  0
 33 37  1  0  0  0  0
 33 36  1  0  0  0  0
 34 38  1  1  0  0  0
 34 33  1  0  0  0  0
 39 40  1  0  0  0  0
 39 34  1  0  0  0  0
 39 42  1  0  0  0  0
 41 39  1  0  0  0  0
M  END
>  <minimizedAffinity>
-6.30381823

$$$$

 OpenBabel03252503253D

 42 46  0  0  1  0  0  0  0  0999 V2000
   34.1500   28.1740   37.6290 C   0  0  1  0  0  0  0  0  0  0  0  0
   35.4640   27.8650   37.0720 C   0  0  0  0  0  0  0  0  0  0  0  0
   35.2950   29.1620   37.7740 C   0  0  2  0  0  0  0  0  0  0  0  0
   33.8050   27.7000   38.5650 H   0  0  0  0  0  0  0  0  0  0  0  0
   35.5400   27.9890   35.9500 H   0  0  0  0  0  0  0  0  0  0  0  0
   35.9570   26.9830   37.4420 H   0  0  0  0  0  0  0  0  0  0  0  0
   35.1470   30.1200   37.2690 H   0  0  0  0  0  0  0  0  0  0  0  0
   35.8400   29.2520   39.1600 C   0  0  0  0  0  0  0  0  0  0  0  0
   36.0040   30.4330   39.8540 C   0  0  0  0  0  0  0  0  0  0  0  0
   36.5270   30.4350   41.1320 C   0  0  0  0  0  0  0  0  0  0  0  0
   36.8980   29.2590   41.7440 C   0  0  0  0  0  0  0  0  0  0  0  0
   37.4130   29.2340   42.9950 N   0  0  0  0  0  0  0  0  0  0  0  0
   37.7740   28.0540   43.5750 C   0  0  0  0  0  0  0  0  0  0  0  0
   37.6390   26.8010   42.9300 C   0  0  0  0  0  0  0  0  0  0  0  0
   37.1160   26.8150   41.6590 C   0  0  0  0  0  0  0  0  0  0  0  0
   36.7540   28.0330   41.0830 C   0  0  0  0  0  0  0  0  0  0  0  0
   36.2270   28.0800   39.8090 C   0  0  0  0  0  0  0  0  0  0  0  0
   35.7060   31.3460   39.3550 H   0  0  0  0  0  0  0  0  0  0  0  0
   36.6580   31.3600   41.6840 H   0  0  0  0  0  0  0  0  0  0  0  0
   38.1800   28.0860   44.5760 H   0  0  0  0  0  0  0  0  0  0  0  0
   37.9490   25.9110   43.4600 H   0  0  0  0  0  0  0  0  0  0  0  0
   36.9950   25.8830   41.1260 H   0  0  0  0  0  0  0  0  0  0  0  0
   36.1510   27.0980   39.3580 H   0  0  0  0  0  0  0  0  0  0  0  0
   31.9560   29.3620   37.2950 C   0  0  0  0  0  0  0  0  0  0  0  0
   33.0280   28.5900   36.7350 C   0  0  0  0  0  0  0  0  0  0  0  0
   32.9660   28.2690   35.4030 C   0  0  0  0  0  0  0  0  0  0  0  0
   31.8960   28.7010   34.6900 N   0  0  0  0  0  0  0  0  0  0  0  0
   30.8890   29.4310   35.2350 C   0  0  0  0  0  0  0  0  0  0  0  0
   30.9190   29.7640   36.5420 N   0  0  0  0  0  0  0  0  0  0  0  0
   32.0570   29.5860   38.3520 H   0  0  0  0  0  0  0  0  0  0  0  0
   33.7580   27.6890   34.9510 H   0  0  0  0  0  0  0  0  0  0  0  0
   29.7780   29.8670   34.3430 C   0  0  2  0  0  0  0  0  0  0  0  0
   30.0000   30.1620   32.9390 C   0  0  0  0  0  0  0  0  0  0  0  0
   29.8480   31.3300   33.8850 C   0  0  2  0  0  0  0  0  0  0  0  0
   28.7840   29.6670   34.8240 H   0  0  0  0  0  0  0  0  0  0  0  0
   29.1500   29.9170   32.2520 H   0  0  0  0  0  0  0  0  0  0  0  0
   30.9700   29.8920   32.5060 H   0  0  0  0  0  0  0  0  0  0  0  0
   28.8970   31.8820   33.7500 H   0  0  0  0  0  0  0  0  0  0  0  0
   31.0450   32.1500   34.1540 C   0  0  0  0  0  0  0  0  0  0  0  0
   31.0240   32.6830   35.4280 F   0  0  0  0  0  0  0  0  0  0  0  0
   31.0710   33.2000   33.2560 F   0  0  0  0  0  0  0  0  0  0  0  0
   32.2420   31.4960   34.0270 F   0  0  0  0  0  0  0  0  0  0  0  0
  1  3  1  0  0  0  0
  1  4  1  1  0  0  0
  2  6  1  0  0  0  0
  2  1  1  0  0  0  0
  2  3  1  0  0  0  0
  3  7  1  6  0  0  0
  3  8  1  0  0  0  0
  5  2  1  0  0  0  0
  8 17  2  0  0  0  0
  8  9  1  0  0  0  0
  9 10  2  0  0  0  0
 10 19  1  0  0  0  0
 10 11  1  0  0  0  0
 11 12  1  0  0  0  0
 12 13  2  0  0  0  0
 13 20  1  0  0  0  0
 14 21  1  0  0  0  0
 14 13  1  0  0  0  0
 15 14  2  0  0  0  0
 16 15  1  0  0  0  0
 16 11  2  0  0  0  0
 17 16  1  0  0  0  0
 18  9  1  0  0  0  0
 22 15  1  0  0  0  0
 23 17  1  0  0  0  0
 24 30  1  0  0  0  0
 25 24  1  0  0  0  0
 25  1  1  0  0  0  0
 26 25  2  0  0  0  0
 27 28  2  0  0  0  0
 27 26  1  0  0  0  0
 28 29  1  0  0  0  0
 29 24  2  0  0  0  0
 31 26  1  0  0  0  0
 32 35  1  1  0  0  0
 32 28  1  0  0  0  0
 33 34  1  0  0  0  0
 33 32  1  0  0  0  0
 34 38  1  6  0  0  0
 34 39  1  0  0  0  0
 34 32  1  0  0  0  0
 36 33  1  0  0  0  0
 37 33  1  0  0  0  0
 39 40  1  0  0  0  0
 41 39  1  0  0  0  0
 42 39  1  0  0  0  0
M  END
>  <minimizedAffinity>
-6.21711206

$$$$

 OpenBabel03252503253D

 42 46  0  0  1  0  0  0  0  0999 V2000
   37.3240   27.5460   41.7360 C   0  0  1  0  0  0  0  0  0  0  0  0
   37.1230   27.9400   43.1270 C   0  0  0  0  0  0  0  0  0  0  0  0
   38.4520   28.1950   42.5180 C   0  0  2  0  0  0  0  0  0  0  0  0
   36.9050   28.1480   40.9090 H   0  0  0  0  0  0  0  0  0  0  0  0
   37.1440   27.0840   43.8670 H   0  0  0  0  0  0  0  0  0  0  0  0
   36.3470   28.6600   43.3240 H   0  0  0  0  0  0  0  0  0  0  0  0
   39.3310   27.5640   42.6740 H   0  0  0  0  0  0  0  0  0  0  0  0
   38.7440   29.5980   42.1030 C   0  0  0  0  0  0  0  0  0  0  0  0
   39.8470   30.3160   42.5160 C   0  0  0  0  0  0  0  0  0  0  0  0
   40.0410   31.6170   42.0940 C   0  0  0  0  0  0  0  0  0  0  0  0
   39.1400   32.2280   41.2540 C   0  0  0  0  0  0  0  0  0  0  0  0
   39.3070   33.5010   40.8280 N   0  0  0  0  0  0  0  0  0  0  0  0
   38.3950   34.0820   39.9950 C   0  0  0  0  0  0  0  0  0  0  0  0
   37.2380   33.4140   39.5280 C   0  0  0  0  0  0  0  0  0  0  0  0
   37.0580   32.1200   39.9550 C   0  0  0  0  0  0  0  0  0  0  0  0
   38.0030   31.5440   40.8050 C   0  0  0  0  0  0  0  0  0  0  0  0
   37.8500   30.2480   41.2520 C   0  0  0  0  0  0  0  0  0  0  0  0
   40.5440   29.8170   43.1760 H   0  0  0  0  0  0  0  0  0  0  0  0
   40.9080   32.1880   42.4150 H   0  0  0  0  0  0  0  0  0  0  0  0
   38.5740   35.1010   39.6820 H   0  0  0  0  0  0  0  0  0  0  0  0
   36.5640   33.9450   38.8710 H   0  0  0  0  0  0  0  0  0  0  0  0
   36.1900   31.5690   39.6250 H   0  0  0  0  0  0  0  0  0  0  0  0
   36.9480   29.7840   40.8720 H   0  0  0  0  0  0  0  0  0  0  0  0
   38.2080   25.7900   40.1620 C   0  0  0  0  0  0  0  0  0  0  0  0
   37.5110   26.1080   41.3760 C   0  0  0  0  0  0  0  0  0  0  0  0
   37.0480   25.0720   42.1450 C   0  0  0  0  0  0  0  0  0  0  0  0
   37.2750   23.8040   41.7170 N   0  0  0  0  0  0  0  0  0  0  0  0
   37.9370   23.5210   40.5660 C   0  0  0  0  0  0  0  0  0  0  0  0
   38.4050   24.5170   39.7850 N   0  0  0  0  0  0  0  0  0  0  0  0
   38.5510   26.6480   39.5940 H   0  0  0  0  0  0  0  0  0  0  0  0
   36.5190   25.2770   43.0650 H   0  0  0  0  0  0  0  0  0  0  0  0
   38.1450   22.0890   40.2130 C   0  0  2  0  0  0  0  0  0  0  0  0
   38.4290   21.6730   38.8510 C   0  0  0  0  0  0  0  0  0  0  0  0
   37.0280   21.4580   39.3710 C   0  0  2  0  0  0  0  0  0  0  0  0
   38.3170   21.4740   41.1360 H   0  0  0  0  0  0  0  0  0  0  0  0
   39.1020   20.7840   38.7450 H   0  0  0  0  0  0  0  0  0  0  0  0
   38.6580   22.4530   38.1140 H   0  0  0  0  0  0  0  0  0  0  0  0
   36.7830   20.3900   39.5410 H   0  0  0  0  0  0  0  0  0  0  0  0
   35.9510   22.2890   38.7980 C   0  0  0  0  0  0  0  0  0  0  0  0
   35.1870   22.8850   39.7820 F   0  0  0  0  0  0  0  0  0  0  0  0
   35.1200   21.4800   38.0480 F   0  0  0  0  0  0  0  0  0  0  0  0
   36.3700   23.2960   37.9690 F   0  0  0  0  0  0  0  0  0  0  0  0
  1  4  1  6  0  0  0
  1  3  1  0  0  0  0
  1  2  1  0  0  0  0
  2  6  1  0  0  0  0
  2  5  1  0  0  0  0
  3  7  1  1  0  0  0
  3  2  1  0  0  0  0
  8  9  1  0  0  0  0
  8  3  1  0  0  0  0
  9 18  1  0  0  0  0
 10 19  1  0  0  0  0
 10  9  2  0  0  0  0
 11 10  1  0  0  0  0
 12 11  1  0  0  0  0
 13 12  2  0  0  0  0
 14 15  2  0  0  0  0
 14 13  1  0  0  0  0
 15 16  1  0  0  0  0
 16 17  1  0  0  0  0
 16 11  2  0  0  0  0
 17  8  2  0  0  0  0
 20 13  1  0  0  0  0
 21 14  1  0  0  0  0
 22 15  1  0  0  0  0
 23 17  1  0  0  0  0
 24 25  1  0  0  0  0
 25  1  1  0  0  0  0
 25 26  2  0  0  0  0
 26 31  1  0  0  0  0
 27 26  1  0  0  0  0
 28 27  2  0  0  0  0
 29 24  2  0  0  0  0
 29 28  1  0  0  0  0
 30 24  1  0  0  0  0
 32 28  1  0  0  0  0
 32 35  1  1  0  0  0
 33 34  1  0  0  0  0
 33 32  1  0  0  0  0
 34 38  1  1  0  0  0
 34 32  1  0  0  0  0
 36 33  1  0  0  0  0
 37 33  1  0  0  0  0
 39 34  1  0  0  0  0
 39 40  1  0  0  0  0
 41 39  1  0  0  0  0
 42 39  1  0  0  0  0
M  END
>  <minimizedAffinity>
-5.97101498

$$$$

 OpenBabel03252503253D

 42 46  0  0  1  0  0  0  0  0999 V2000
   37.5850   30.4790   39.8960 C   0  0  1  0  0  0  0  0  0  0  0  0
   36.9170   31.4240   40.7860 C   0  0  0  0  0  0  0  0  0  0  0  0
   38.3840   31.2530   40.9300 C   0  0  2  0  0  0  0  0  0  0  0  0
   37.7870   30.7390   38.8410 H   0  0  0  0  0  0  0  0  0  0  0  0
   36.3420   30.9450   41.6340 H   0  0  0  0  0  0  0  0  0  0  0  0
   36.3990   32.2470   40.3250 H   0  0  0  0  0  0  0  0  0  0  0  0
   38.8600   30.6420   41.7010 H   0  0  0  0  0  0  0  0  0  0  0  0
   39.2460   32.3230   40.3480 C   0  0  0  0  0  0  0  0  0  0  0  0
   39.0290   33.6740   40.5200 C   0  0  0  0  0  0  0  0  0  0  0  0
   39.8690   34.6050   39.9380 C   0  0  0  0  0  0  0  0  0  0  0  0
   40.9400   34.2060   39.1730 C   0  0  0  0  0  0  0  0  0  0  0  0
   41.7770   35.0970   38.5920 N   0  0  0  0  0  0  0  0  0  0  0  0
   42.8310   34.6730   37.8370 C   0  0  0  0  0  0  0  0  0  0  0  0
   43.1210   33.3060   37.6120 C   0  0  0  0  0  0  0  0  0  0  0  0
   42.2780   32.3920   38.1980 C   0  0  0  0  0  0  0  0  0  0  0  0
   41.2060   32.8460   38.9660 C   0  0  0  0  0  0  0  0  0  0  0  0
   40.3410   31.9540   39.5660 C   0  0  0  0  0  0  0  0  0  0  0  0
   38.1810   33.9660   41.1240 H   0  0  0  0  0  0  0  0  0  0  0  0
   39.7040   35.6690   40.0700 H   0  0  0  0  0  0  0  0  0  0  0  0
   43.4700   35.4230   37.3950 H   0  0  0  0  0  0  0  0  0  0  0  0
   43.9760   33.0530   37.0010 H   0  0  0  0  0  0  0  0  0  0  0  0
   42.4590   31.3370   38.0540 H   0  0  0  0  0  0  0  0  0  0  0  0
   40.6020   30.9240   39.3580 H   0  0  0  0  0  0  0  0  0  0  0  0
   36.8110   28.5520   41.3190 C   0  0  0  0  0  0  0  0  0  0  0  0
   37.4610   29.0080   40.1230 C   0  0  0  0  0  0  0  0  0  0  0  0
   37.9380   28.0670   39.2480 C   0  0  0  0  0  0  0  0  0  0  0  0
   37.7690   26.7570   39.5620 N   0  0  0  0  0  0  0  0  0  0  0  0
   37.1520   26.3420   40.6980 C   0  0  0  0  0  0  0  0  0  0  0  0
   36.6700   27.2430   41.5800 N   0  0  0  0  0  0  0  0  0  0  0  0
   36.4540   29.3400   41.9740 H   0  0  0  0  0  0  0  0  0  0  0  0
   38.4320   28.3770   38.3390 H   0  0  0  0  0  0  0  0  0  0  0  0
   37.0060   24.8770   40.9200 C   0  0  2  0  0  0  0  0  0  0  0  0
   36.7470   24.3280   42.2390 C   0  0  0  0  0  0  0  0  0  0  0  0
   38.1530   24.2200   41.6990 C   0  0  2  0  0  0  0  0  0  0  0  0
   36.8540   24.3420   39.9450 H   0  0  0  0  0  0  0  0  0  0  0  0
   36.1120   23.4060   42.2650 H   0  0  0  0  0  0  0  0  0  0  0  0
   36.4890   25.0280   43.0430 H   0  0  0  0  0  0  0  0  0  0  0  0
   38.4410   23.1840   41.4320 H   0  0  0  0  0  0  0  0  0  0  0  0
   39.1970   25.0410   42.3430 C   0  0  0  0  0  0  0  0  0  0  0  0
   39.9580   25.7210   41.4130 F   0  0  0  0  0  0  0  0  0  0  0  0
   40.0390   24.2060   43.0510 F   0  0  0  0  0  0  0  0  0  0  0  0
   38.7380   25.9790   43.2290 F   0  0  0  0  0  0  0  0  0  0  0  0
  1  4  1  6  0  0  0
  1 25  1  0  0  0  0
  1  2  1  0  0  0  0
  1  3  1  0  0  0  0
  2  3  1  0  0  0  0
  2  5  1  0  0  0  0
  3  7  1  1  0  0  0
  6  2  1  0  0  0  0
  8  9  1  0  0  0  0
  8  3  1  0  0  0  0
  9 18  1  0  0  0  0
 10 19  1  0  0  0  0
 10  9  2  0  0  0  0
 11 10  1  0  0  0  0
 12 11  2  0  0  0  0
 13 12  1  0  0  0  0
 14 13  2  0  0  0  0
 14 15  1  0  0  0  0
 15 16  2  0  0  0  0
 16 11  1  0  0  0  0
 16 17  1  0  0  0  0
 17  8  2  0  0  0  0
 20 13  1  0  0  0  0
 21 14  1  0  0  0  0
 22 15  1  0  0  0  0
 23 17  1  0  0  0  0
 24 29  1  0  0  0  0
 24 30  1  0  0  0  0
 25 24  2  0  0  0  0
 26 27  2  0  0  0  0
 26 25  1  0  0  0  0
 27 28  1  0  0  0  0
 28 32  1  0  0  0  0
 28 29  2  0  0  0  0
 31 26  1  0  0  0  0
 32 35  1  6  0  0  0
 32 34  1  0  0  0  0
 32 33  1  0  0  0  0
 33 36  1  0  0  0  0
 33 37  1  0  0  0  0
 34 38  1  6  0  0  0
 34 33  1  0  0  0  0
 34 39  1  0  0  0  0
 39 41  1  0  0  0  0
 39 42  1  0  0  0  0
 40 39  1  0  0  0  0
M  END
>  <minimizedAffinity>
-5.79390669

$$$$

 OpenBabel03252503253D

 42 46  0  0  1  0  0  0  0  0999 V2000
   35.3690   28.6830   37.5450 C   0  0  1  0  0  0  0  0  0  0  0  0
   35.8590   29.8160   38.3250 C   0  0  0  0  0  0  0  0  0  0  0  0
   35.2160   28.6960   39.0560 C   0  0  2  0  0  0  0  0  0  0  0  0
   36.0660   27.9290   37.1400 H   0  0  0  0  0  0  0  0  0  0  0  0
   35.2020   30.7370   38.2820 H   0  0  0  0  0  0  0  0  0  0  0  0
   36.9110   30.0350   38.2610 H   0  0  0  0  0  0  0  0  0  0  0  0
   34.1850   28.7090   39.4180 H   0  0  0  0  0  0  0  0  0  0  0  0
   36.1230   27.7440   39.7610 C   0  0  0  0  0  0  0  0  0  0  0  0
   36.3880   26.4610   39.3300 C   0  0  0  0  0  0  0  0  0  0  0  0
   37.2330   25.6350   40.0470 C   0  0  0  0  0  0  0  0  0  0  0  0
   37.8300   26.0730   41.2060 C   0  0  0  0  0  0  0  0  0  0  0  0
   38.6610   25.2840   41.9260 N   0  0  0  0  0  0  0  0  0  0  0  0
   39.2380   25.7440   43.0730 C   0  0  0  0  0  0  0  0  0  0  0  0
   39.0160   27.0460   43.5820 C   0  0  0  0  0  0  0  0  0  0  0  0
   38.1740   27.8560   42.8590 C   0  0  0  0  0  0  0  0  0  0  0  0
   37.5950   27.3660   41.6880 C   0  0  0  0  0  0  0  0  0  0  0  0
   36.7440   28.1550   40.9410 C   0  0  0  0  0  0  0  0  0  0  0  0
   35.9090   26.1360   38.4170 H   0  0  0  0  0  0  0  0  0  0  0  0
   37.4460   24.6240   39.7130 H   0  0  0  0  0  0  0  0  0  0  0  0
   39.8940   25.0760   43.6120 H   0  0  0  0  0  0  0  0  0  0  0  0
   39.5120   27.3340   44.4990 H   0  0  0  0  0  0  0  0  0  0  0  0
   37.9740   28.8590   43.2080 H   0  0  0  0  0  0  0  0  0  0  0  0
   36.6030   29.1370   41.3750 H   0  0  0  0  0  0  0  0  0  0  0  0
   32.8970   29.1500   37.4400 C   0  0  0  0  0  0  0  0  0  0  0  0
   34.1080   28.8000   36.7530 C   0  0  0  0  0  0  0  0  0  0  0  0
   34.0440   28.5860   35.4000 C   0  0  0  0  0  0  0  0  0  0  0  0
   32.8410   28.7180   34.7860 N   0  0  0  0  0  0  0  0  0  0  0  0
   31.7050   29.0510   35.4510 C   0  0  0  0  0  0  0  0  0  0  0  0
   31.7320   29.2670   36.7820 N   0  0  0  0  0  0  0  0  0  0  0  0
   33.0060   29.3060   38.5070 H   0  0  0  0  0  0  0  0  0  0  0  0
   34.9380   28.3210   34.8530 H   0  0  0  0  0  0  0  0  0  0  0  0
   30.4480   29.1890   34.6630 C   0  0  2  0  0  0  0  0  0  0  0  0
   30.4670   29.5500   33.2560 C   0  0  0  0  0  0  0  0  0  0  0  0
   30.0930   30.6240   34.2510 C   0  0  2  0  0  0  0  0  0  0  0  0
   29.5840   28.7270   35.2100 H   0  0  0  0  0  0  0  0  0  0  0  0
   29.6570   29.0990   32.6280 H   0  0  0  0  0  0  0  0  0  0  0  0
   31.4350   29.5520   32.7410 H   0  0  0  0  0  0  0  0  0  0  0  0
   29.0230   30.9070   34.2090 H   0  0  0  0  0  0  0  0  0  0  0  0
   31.0520   31.7280   34.4560 C   0  0  0  0  0  0  0  0  0  0  0  0
   31.1190   32.1060   35.7830 F   0  0  0  0  0  0  0  0  0  0  0  0
   30.6280   32.8200   33.7250 F   0  0  0  0  0  0  0  0  0  0  0  0
   32.3370   31.4670   34.0610 F   0  0  0  0  0  0  0  0  0  0  0  0
  1  4  1  6  0  0  0
  1  2  1  0  0  0  0
  1  3  1  0  0  0  0
  2  3  1  0  0  0  0
  3  7  1  1  0  0  0
  3  8  1  0  0  0  0
  5  2  1  0  0  0  0
  6  2  1  0  0  0  0
  8 17  1  0  0  0  0
  9  8  2  0  0  0  0
  9 10  1  0  0  0  0
 10 11  2  0  0  0  0
 11 16  1  0  0  0  0
 11 12  1  0  0  0  0
 12 13  2  0  0  0  0
 13 14  1  0  0  0  0
 13 20  1  0  0  0  0
 14 21  1  0  0  0  0
 15 22  1  0  0  0  0
 15 14  2  0  0  0  0
 16 15  1  0  0  0  0
 17 23  1  0  0  0  0
 17 16  2  0  0  0  0
 18  9  1  0  0  0  0
 19 10  1  0  0  0  0
 24 30  1  0  0  0  0
 25 24  2  0  0  0  0
 25  1  1  0  0  0  0
 26 25  1  0  0  0  0
 27 26  2  0  0  0  0
 27 28  1  0  0  0  0
 28 29  2  0  0  0  0
 29 24  1  0  0  0  0
 31 26  1  0  0  0  0
 32 35  1  1  0  0  0
 32 28  1  0  0  0  0
 33 34  1  0  0  0  0
 33 32  1  0  0  0  0
 34 38  1  1  0  0  0
 34 39  1  0  0  0  0
 34 32  1  0  0  0  0
 36 33  1  0  0  0  0
 37 33  1  0  0  0  0
 39 40  1  0  0  0  0
 41 39  1  0  0  0  0
 42 39  1  0  0  0  0
M  END
>  <minimizedAffinity>
-5.79075384

$$$$
