
 OpenBabel03252506413D

 35 37  0  0  1  0  0  0  0  0999 V2000
   49.5680   33.4270   41.4930 N   0  0  1  0  0  0  0  0  0  0  0  0
   50.7220   33.0880   42.2890 C   0  0  0  0  0  0  0  0  0  0  0  0
   51.3190   31.7570   42.0490 C   0  0  0  0  0  0  0  0  0  0  0  0
   50.3260   30.6610   42.3050 C   0  0  0  0  0  0  0  0  0  0  0  0
   48.9240   31.1040   42.0920 C   0  0  0  0  0  0  0  0  0  0  0  0
   48.8940   32.2200   41.0940 C   0  0  2  0  0  0  0  0  0  0  0  0
   50.4830   33.1630   43.3760 H   0  0  0  0  0  0  0  0  0  0  0  0
   51.4890   33.8830   42.0610 H   0  0  0  0  0  0  0  0  0  0  0  0
   52.0700   31.6320   42.9060 H   0  0  0  0  0  0  0  0  0  0  0  0
   51.9540   31.6370   41.1680 H   0  0  0  0  0  0  0  0  0  0  0  0
   50.3950   30.1890   43.2930 H   0  0  0  0  0  0  0  0  0  0  0  0
   50.5960   29.8410   41.5770 H   0  0  0  0  0  0  0  0  0  0  0  0
   48.4710   31.4900   43.0420 H   0  0  0  0  0  0  0  0  0  0  0  0
   48.2770   30.3070   41.7010 H   0  0  0  0  0  0  0  0  0  0  0  0
   47.7870   32.5550   41.1770 H   0  0  0  0  0  0  0  0  0  0  0  0
   47.3320   34.6150   41.9690 C   0  0  1  0  0  0  0  0  0  0  0  0
   48.3950   35.6020   41.7070 C   0  0  0  0  0  0  0  0  0  0  0  0
   48.7550   34.2900   42.2970 C   0  0  2  0  0  0  0  0  0  0  0  0
   46.8940   34.1630   41.0680 H   0  0  0  0  0  0  0  0  0  0  0  0
   48.4500   36.4610   42.3850 H   0  0  0  0  0  0  0  0  0  0  0  0
   48.7120   35.8340   40.6660 H   0  0  0  0  0  0  0  0  0  0  0  0
   48.9630   34.1900   43.3850 H   0  0  0  0  0  0  0  0  0  0  0  0
   45.5720   36.0180   43.1180 C   0  0  0  0  0  0  0  0  0  0  0  0
   46.3850   34.8600   43.0950 C   0  0  0  0  0  0  0  0  0  0  0  0
   46.2660   33.9560   44.1610 C   0  0  0  0  0  0  0  0  0  0  0  0
   45.3810   34.2410   45.1470 N   0  0  0  0  0  0  0  0  0  0  0  0
   44.6160   35.3610   45.1370 C   0  0  0  0  0  0  0  0  0  0  0  0
   44.7060   36.2620   44.1170 N   0  0  0  0  0  0  0  0  0  0  0  0
   45.6410   36.7330   42.3110 H   0  0  0  0  0  0  0  0  0  0  0  0
   46.8780   33.0740   44.1540 H   0  0  0  0  0  0  0  0  0  0  0  0
   43.9460   35.4720   45.9890 H   0  0  0  0  0  0  0  0  0  0  0  0
   49.0060   31.8330   39.6620 C   0  0  0  0  0  0  0  0  0  0  0  0
   50.3140   31.9990   39.1770 F   0  0  0  0  0  0  0  0  0  0  0  0
   48.8110   30.4450   39.4950 F   0  0  0  0  0  0  0  0  0  0  0  0
   48.0770   32.3920   38.8180 F   0  0  0  0  0  0  0  0  0  0  0  0
  1  2  1  1  0  0  0
  1 18  1  0  0  0  0
  2  7  1  0  0  0  0
  3  2  1  0  0  0  0
  3  4  1  0  0  0  0
  3  9  1  0  0  0  0
  4 11  1  0  0  0  0
  5  4  1  0  0  0  0
  5 13  1  0  0  0  0
  6 15  1  1  0  0  0
  6  1  1  0  0  0  0
  6  5  1  0  0  0  0
  8  2  1  0  0  0  0
 10  3  1  0  0  0  0
 12  4  1  0  0  0  0
 14  5  1  0  0  0  0
 16 19  1  6  0  0  0
 16 18  1  0  0  0  0
 16 24  1  0  0  0  0
 17 16  1  0  0  0  0
 17 18  1  0  0  0  0
 17 20  1  0  0  0  0
 18 22  1  1  0  0  0
 21 17  1  0  0  0  0
 23 28  1  0  0  0  0
 24 23  2  0  0  0  0
 24 25  1  0  0  0  0
 25 26  2  0  0  0  0
 27 26  1  0  0  0  0
 27 31  1  0  0  0  0
 28 27  2  0  0  0  0
 29 23  1  0  0  0  0
 30 25  1  0  0  0  0
 32  6  1  0  0  0  0
 33 32  1  0  0  0  0
 34 32  1  0  0  0  0
 35 32  1  0  0  0  0
M  END
>  <minimizedAffinity>
-4.73177671

>  <minimizedRMSD>
0.747591913

$$$$
