
 OpenBabel03242519573D

 23 24  0  0  0  0  0  0  0  0999 V2000
   44.5660   33.0940   41.2500 Br  0  0  0  0  0  0  0  0  0  0  0  0
   46.2480   33.9930   41.0520 C   0  0  0  0  0  0  0  0  0  0  0  0
   46.8230   34.7600   42.0570 C   0  0  0  0  0  0  0  0  0  0  0  0
   48.0290   35.3580   41.8050 C   0  0  0  0  0  0  0  0  0  0  0  0
   48.6820   35.2250   40.6010 C   0  0  0  0  0  0  0  0  0  0  0  0
   48.1330   34.4690   39.5860 C   0  0  0  0  0  0  0  0  0  0  0  0
   46.9100   33.8660   39.8460 C   0  0  0  0  0  0  0  0  0  0  0  0
   48.4460   35.9460   42.6100 H   0  0  0  0  0  0  0  0  0  0  0  0
   49.6330   35.7230   40.4650 H   0  0  0  0  0  0  0  0  0  0  0  0
   48.6350   34.3600   38.6430 H   0  0  0  0  0  0  0  0  0  0  0  0
   44.4720   35.9570   44.7770 C   0  0  0  0  0  0  0  0  0  0  0  0
   45.1750   35.8810   43.5640 C   0  0  0  0  0  0  0  0  0  0  0  0
   46.0780   34.8610   43.3140 C   0  0  0  0  0  0  0  0  0  0  0  0
   46.2400   33.9430   44.3100 N   0  0  0  0  0  0  0  0  0  0  0  0
   45.5620   34.0160   45.4770 C   0  0  0  0  0  0  0  0  0  0  0  0
   44.6920   35.0090   45.7060 N   0  0  0  0  0  0  0  0  0  0  0  0
   43.7720   36.7640   44.9490 H   0  0  0  0  0  0  0  0  0  0  0  0
   45.0110   36.6340   42.8060 H   0  0  0  0  0  0  0  0  0  0  0  0
   45.7560   33.2440   46.2100 H   0  0  0  0  0  0  0  0  0  0  0  0
   46.3010   33.0440   38.7580 C   0  0  0  0  0  0  0  0  0  0  0  0
   46.9820   33.1850   37.5790 F   0  0  0  0  0  0  0  0  0  0  0  0
   44.9970   33.4470   38.5050 F   0  0  0  0  0  0  0  0  0  0  0  0
   46.2400   31.7160   39.1230 F   0  0  0  0  0  0  0  0  0  0  0  0
  2  1  1  0  0  0  0
  2  3  1  0  0  0  0
  3 13  1  0  0  0  0
  4  3  2  0  0  0  0
  4  8  1  0  0  0  0
  5  4  1  0  0  0  0
  6  7  1  0  0  0  0
  6  5  2  0  0  0  0
  7  2  2  0  0  0  0
  9  5  1  0  0  0  0
 10  6  1  0  0  0  0
 11 17  1  0  0  0  0
 11 16  1  0  0  0  0
 12 11  2  0  0  0  0
 13 12  1  0  0  0  0
 13 14  2  0  0  0  0
 14 15  1  0  0  0  0
 15 16  2  0  0  0  0
 15 19  1  0  0  0  0
 18 12  1  0  0  0  0
 20 23  1  0  0  0  0
 20  7  1  0  0  0  0
 21 20  1  0  0  0  0
 22 20  1  0  0  0  0
M  END
>  <minimizedAffinity>
-5.36443377

>  <minimizedRMSD>
0.204141423

$$$$
