
 OpenBabel03252502453D

 26 27  0  0  1  0  0  0  0  0999 V2000
   38.2030   29.2770   43.3030 C   0  0  0  0  0  0  0  0  0  0  0  0
   38.8540   29.5540   44.1590 H   0  0  0  0  0  0  0  0  0  0  0  0
   37.2450   29.8370   43.3280 H   0  0  0  0  0  0  0  0  0  0  0  0
   37.8720   27.8170   43.3160 C   0  0  1  0  0  0  0  0  0  0  0  0
   36.4710   27.4360   43.6770 C   0  0  0  0  0  0  0  0  0  0  0  0
   36.9460   27.3260   42.2840 C   0  0  2  0  0  0  0  0  0  0  0  0
   38.7300   27.2120   43.7110 H   0  0  0  0  0  0  0  0  0  0  0  0
   36.4180   26.5340   44.3250 H   0  0  0  0  0  0  0  0  0  0  0  0
   35.7270   28.1760   44.0320 H   0  0  0  0  0  0  0  0  0  0  0  0
   36.6150   27.7740   41.3760 H   0  0  0  0  0  0  0  0  0  0  0  0
   37.2910   25.8750   41.8940 C   0  0  0  0  0  0  0  0  0  0  0  0
   38.5870   25.6080   42.3490 F   0  0  0  0  0  0  0  0  0  0  0  0
   36.4900   24.9620   42.5490 F   0  0  0  0  0  0  0  0  0  0  0  0
   37.1510   25.6360   40.5600 F   0  0  0  0  0  0  0  0  0  0  0  0
   39.0210   29.5040   42.0560 C   0  0  0  0  0  0  0  0  0  0  0  0
   38.5730   28.8210   41.2650 H   0  0  0  0  0  0  0  0  0  0  0  0
   40.0880   29.4130   42.1830 H   0  0  0  0  0  0  0  0  0  0  0  0
   36.9950   31.9400   40.0620 C   0  0  0  0  0  0  0  0  0  0  0  0
   37.3720   30.7580   40.7250 C   0  0  0  0  0  0  0  0  0  0  0  0
   38.5640   30.7620   41.3940 C   0  0  0  0  0  0  0  0  0  0  0  0
   39.3290   31.8910   41.4020 N   0  0  0  0  0  0  0  0  0  0  0  0
   38.9570   32.9940   40.7750 C   0  0  0  0  0  0  0  0  0  0  0  0
   37.7960   33.0330   40.1020 N   0  0  0  0  0  0  0  0  0  0  0  0
   36.0950   32.0920   39.4960 H   0  0  0  0  0  0  0  0  0  0  0  0
   36.6050   30.0210   40.5890 H   0  0  0  0  0  0  0  0  0  0  0  0
   39.6640   33.8190   40.8630 H   0  0  0  0  0  0  0  0  0  0  0  0
  1  4  1  0  0  0  0
  1  3  1  0  0  0  0
  1  2  1  0  0  0  0
  4  5  1  0  0  0  0
  4  7  1  1  0  0  0
  5  9  1  0  0  0  0
  5  8  1  0  0  0  0
  6 10  1  6  0  0  0
  6  4  1  0  0  0  0
  6  5  1  0  0  0  0
 11  6  1  0  0  0  0
 11 12  1  0  0  0  0
 11 13  1  0  0  0  0
 14 11  1  0  0  0  0
 15 17  1  0  0  0  0
 15  1  1  0  0  0  0
 16 15  1  0  0  0  0
 18 23  2  0  0  0  0
 18 19  1  0  0  0  0
 19 20  2  0  0  0  0
 20 21  1  0  0  0  0
 20 15  1  0  0  0  0
 22 26  1  0  0  0  0
 22 21  2  0  0  0  0
 23 22  1  0  0  0  0
 24 18  1  0  0  0  0
 25 19  1  0  0  0  0
M  END
>  <minimizedAffinity>
-4.50641298

$$$$

 OpenBabel03252502453D

 26 27  0  0  1  0  0  0  0  0999 V2000
   36.4580   29.2420   39.8610 C   0  0  0  0  0  0  0  0  0  0  0  0
   35.7480   29.2550   39.0080 H   0  0  0  0  0  0  0  0  0  0  0  0
   37.5110   29.2020   39.5100 H   0  0  0  0  0  0  0  0  0  0  0  0
   36.2330   28.0520   40.7420 C   0  0  1  0  0  0  0  0  0  0  0  0
   36.7670   26.7370   40.2670 C   0  0  0  0  0  0  0  0  0  0  0  0
   37.4150   27.4540   41.3830 C   0  0  2  0  0  0  0  0  0  0  0  0
   35.2240   28.0970   41.2310 H   0  0  0  0  0  0  0  0  0  0  0  0
   36.0780   25.8890   40.4700 H   0  0  0  0  0  0  0  0  0  0  0  0
   37.2110   26.6050   39.2610 H   0  0  0  0  0  0  0  0  0  0  0  0
   38.4010   27.8330   41.5150 H   0  0  0  0  0  0  0  0  0  0  0  0
   37.0430   26.8610   42.7570 C   0  0  0  0  0  0  0  0  0  0  0  0
   38.1220   27.0740   43.6200 F   0  0  0  0  0  0  0  0  0  0  0  0
   35.9870   27.5340   43.3370 F   0  0  0  0  0  0  0  0  0  0  0  0
   36.6840   25.5490   42.6890 F   0  0  0  0  0  0  0  0  0  0  0  0
   36.1320   30.4490   40.7050 C   0  0  0  0  0  0  0  0  0  0  0  0
   36.2510   30.1120   41.7840 H   0  0  0  0  0  0  0  0  0  0  0  0
   35.1910   30.9260   40.4800 H   0  0  0  0  0  0  0  0  0  0  0  0
   38.4080   33.3480   40.0500 C   0  0  0  0  0  0  0  0  0  0  0  0
   37.2570   32.5390   40.0520 C   0  0  0  0  0  0  0  0  0  0  0  0
   37.3160   31.3570   40.7360 C   0  0  0  0  0  0  0  0  0  0  0  0
   38.4630   31.0110   41.3850 N   0  0  0  0  0  0  0  0  0  0  0  0
   39.5360   31.7850   41.3750 C   0  0  0  0  0  0  0  0  0  0  0  0
   39.5230   32.9520   40.7130 N   0  0  0  0  0  0  0  0  0  0  0  0
   38.5170   34.2970   39.5600 H   0  0  0  0  0  0  0  0  0  0  0  0
   36.4850   33.0290   39.4900 H   0  0  0  0  0  0  0  0  0  0  0  0
   40.3810   31.3860   41.9340 H   0  0  0  0  0  0  0  0  0  0  0  0
  1 15  1  0  0  0  0
  1  4  1  0  0  0  0
  2  1  1  0  0  0  0
  3  1  1  0  0  0  0
  4  7  1  1  0  0  0
  4  6  1  0  0  0  0
  5  8  1  0  0  0  0
  5  4  1  0  0  0  0
  5  6  1  0  0  0  0
  6 10  1  6  0  0  0
  6 11  1  0  0  0  0
  9  5  1  0  0  0  0
 11 13  1  0  0  0  0
 11 12  1  0  0  0  0
 14 11  1  0  0  0  0
 15 20  1  0  0  0  0
 15 16  1  0  0  0  0
 17 15  1  0  0  0  0
 18 19  2  0  0  0  0
 18 23  1  0  0  0  0
 19 20  1  0  0  0  0
 20 21  2  0  0  0  0
 22 21  1  0  0  0  0
 22 26  1  0  0  0  0
 23 22  2  0  0  0  0
 24 18  1  0  0  0  0
 25 19  1  0  0  0  0
M  END
>  <minimizedAffinity>
-4.42124844

$$$$

 OpenBabel03252502453D

 26 27  0  0  1  0  0  0  0  0999 V2000
   36.0900   28.0470   39.8050 C   0  0  0  0  0  0  0  0  0  0  0  0
   35.3590   27.3600   39.3290 H   0  0  0  0  0  0  0  0  0  0  0  0
   37.0140   28.1380   39.1960 H   0  0  0  0  0  0  0  0  0  0  0  0
   36.4930   27.5610   41.1630 C   0  0  1  0  0  0  0  0  0  0  0  0
   37.4790   26.4380   41.2240 C   0  0  0  0  0  0  0  0  0  0  0  0
   37.8800   27.8120   41.5850 C   0  0  2  0  0  0  0  0  0  0  0  0
   35.6220   27.5740   41.8710 H   0  0  0  0  0  0  0  0  0  0  0  0
   37.2440   25.6950   42.0170 H   0  0  0  0  0  0  0  0  0  0  0  0
   37.8220   25.9000   40.3190 H   0  0  0  0  0  0  0  0  0  0  0  0
   38.6180   28.4700   41.1920 H   0  0  0  0  0  0  0  0  0  0  0  0
   37.9500   28.0210   43.1110 C   0  0  0  0  0  0  0  0  0  0  0  0
   36.7930   27.4700   43.6710 F   0  0  0  0  0  0  0  0  0  0  0  0
   38.9900   27.3150   43.6790 F   0  0  0  0  0  0  0  0  0  0  0  0
   38.1240   29.3270   43.4610 F   0  0  0  0  0  0  0  0  0  0  0  0
   35.3650   29.3510   40.0300 C   0  0  0  0  0  0  0  0  0  0  0  0
   35.3960   29.5300   41.1520 H   0  0  0  0  0  0  0  0  0  0  0  0
   34.3840   29.4140   39.5860 H   0  0  0  0  0  0  0  0  0  0  0  0
   37.5180   32.3940   40.3760 C   0  0  0  0  0  0  0  0  0  0  0  0
   36.6990   31.3020   40.7180 C   0  0  0  0  0  0  0  0  0  0  0  0
   36.2850   30.4820   39.7070 C   0  0  0  0  0  0  0  0  0  0  0  0
   36.6750   30.7410   38.4270 N   0  0  0  0  0  0  0  0  0  0  0  0
   37.4460   31.7710   38.1230 C   0  0  0  0  0  0  0  0  0  0  0  0
   37.8740   32.6040   39.0840 N   0  0  0  0  0  0  0  0  0  0  0  0
   37.9200   33.1250   41.0530 H   0  0  0  0  0  0  0  0  0  0  0  0
   36.5450   31.3010   41.7800 H   0  0  0  0  0  0  0  0  0  0  0  0
   37.6790   31.8590   37.0620 H   0  0  0  0  0  0  0  0  0  0  0  0
  1 15  1  0  0  0  0
  1  4  1  0  0  0  0
  2  1  1  0  0  0  0
  3  1  1  0  0  0  0
  4  5  1  0  0  0  0
  4  6  1  0  0  0  0
  4  7  1  1  0  0  0
  5  6  1  0  0  0  0
  5  8  1  0  0  0  0
  6 10  1  6  0  0  0
  6 11  1  0  0  0  0
  9  5  1  0  0  0  0
 11 14  1  0  0  0  0
 11 12  1  0  0  0  0
 11 13  1  0  0  0  0
 15 16  1  0  0  0  0
 17 15  1  0  0  0  0
 18 19  1  0  0  0  0
 18 24  1  0  0  0  0
 19 25  1  0  0  0  0
 20 15  1  0  0  0  0
 20 19  2  0  0  0  0
 21 20  1  0  0  0  0
 22 21  2  0  0  0  0
 22 23  1  0  0  0  0
 23 18  2  0  0  0  0
 26 22  1  0  0  0  0
M  END
>  <minimizedAffinity>
-4.29856682

$$$$

 OpenBabel03252502453D

 26 27  0  0  1  0  0  0  0  0999 V2000
   36.8390   27.4020   42.6390 C   0  0  0  0  0  0  0  0  0  0  0  0
   37.1230   26.4540   42.1350 H   0  0  0  0  0  0  0  0  0  0  0  0
   35.8860   27.2920   43.1980 H   0  0  0  0  0  0  0  0  0  0  0  0
   36.6570   28.5140   41.6520 C   0  0  1  0  0  0  0  0  0  0  0  0
   37.3920   28.4040   40.3540 C   0  0  0  0  0  0  0  0  0  0  0  0
   35.9310   28.2020   40.4110 C   0  0  2  0  0  0  0  0  0  0  0  0
   36.5920   29.5070   42.1710 H   0  0  0  0  0  0  0  0  0  0  0  0
   37.8120   29.3730   40.0080 H   0  0  0  0  0  0  0  0  0  0  0  0
   38.1310   27.6030   40.1560 H   0  0  0  0  0  0  0  0  0  0  0  0
   35.3120   27.3740   40.1570 H   0  0  0  0  0  0  0  0  0  0  0  0
   35.1480   29.4350   39.9200 C   0  0  0  0  0  0  0  0  0  0  0  0
   35.5280   30.5250   40.7090 F   0  0  0  0  0  0  0  0  0  0  0  0
   35.5020   29.7890   38.6330 F   0  0  0  0  0  0  0  0  0  0  0  0
   33.7990   29.2420   39.9180 F   0  0  0  0  0  0  0  0  0  0  0  0
   38.0170   27.7980   43.4950 C   0  0  0  0  0  0  0  0  0  0  0  0
   37.7420   27.4950   44.5560 H   0  0  0  0  0  0  0  0  0  0  0  0
   38.3430   28.8200   43.3850 H   0  0  0  0  0  0  0  0  0  0  0  0
   41.3720   26.1360   43.4830 C   0  0  0  0  0  0  0  0  0  0  0  0
   40.3730   27.1070   43.6790 C   0  0  0  0  0  0  0  0  0  0  0  0
   39.0890   26.7680   43.3560 C   0  0  0  0  0  0  0  0  0  0  0  0
   38.8240   25.5240   42.8680 N   0  0  0  0  0  0  0  0  0  0  0  0
   39.7750   24.6210   42.6910 C   0  0  0  0  0  0  0  0  0  0  0  0
   41.0500   24.9130   42.9920 N   0  0  0  0  0  0  0  0  0  0  0  0
   42.4200   26.2510   43.6860 H   0  0  0  0  0  0  0  0  0  0  0  0
   40.8230   27.9930   44.0850 H   0  0  0  0  0  0  0  0  0  0  0  0
   39.4220   23.6710   42.2930 H   0  0  0  0  0  0  0  0  0  0  0  0
  1  3  1  0  0  0  0
  1 15  1  0  0  0  0
  2  1  1  0  0  0  0
  4  7  1  1  0  0  0
  4  1  1  0  0  0  0
  5  6  1  0  0  0  0
  5  4  1  0  0  0  0
  6 10  1  6  0  0  0
  6  4  1  0  0  0  0
  8  5  1  0  0  0  0
  9  5  1  0  0  0  0
 11  6  1  0  0  0  0
 11 12  1  0  0  0  0
 13 11  1  0  0  0  0
 14 11  1  0  0  0  0
 15 16  1  0  0  0  0
 17 15  1  0  0  0  0
 18 19  1  0  0  0  0
 18 24  1  0  0  0  0
 19 25  1  0  0  0  0
 20 15  1  0  0  0  0
 20 19  2  0  0  0  0
 21 20  1  0  0  0  0
 22 21  2  0  0  0  0
 22 23  1  0  0  0  0
 23 18  2  0  0  0  0
 26 22  1  0  0  0  0
M  END
>  <minimizedAffinity>
-4.28135109

$$$$

 OpenBabel03252502453D

 26 27  0  0  1  0  0  0  0  0999 V2000
   36.2490   28.1690   41.8390 C   0  0  0  0  0  0  0  0  0  0  0  0
   36.2700   27.1060   41.5180 H   0  0  0  0  0  0  0  0  0  0  0  0
   35.2500   28.4530   42.2310 H   0  0  0  0  0  0  0  0  0  0  0  0
   36.5640   29.0900   40.7000 C   0  0  1  0  0  0  0  0  0  0  0  0
   35.4080   29.6590   39.9400 C   0  0  0  0  0  0  0  0  0  0  0  0
   36.1970   30.5060   40.8570 C   0  0  2  0  0  0  0  0  0  0  0  0
   37.4790   28.7490   40.1460 H   0  0  0  0  0  0  0  0  0  0  0  0
   35.5870   29.7020   38.8440 H   0  0  0  0  0  0  0  0  0  0  0  0
   34.3640   29.3390   40.1210 H   0  0  0  0  0  0  0  0  0  0  0  0
   35.9320   31.0640   41.7230 H   0  0  0  0  0  0  0  0  0  0  0  0
   37.1970   31.4090   40.1080 C   0  0  0  0  0  0  0  0  0  0  0  0
   38.4870   31.0050   40.4650 F   0  0  0  0  0  0  0  0  0  0  0  0
   37.1330   31.2240   38.7420 F   0  0  0  0  0  0  0  0  0  0  0  0
   36.9870   32.7360   40.3350 F   0  0  0  0  0  0  0  0  0  0  0  0
   37.3740   28.3370   42.8300 C   0  0  0  0  0  0  0  0  0  0  0  0
   36.9000   28.2250   43.8570 H   0  0  0  0  0  0  0  0  0  0  0  0
   37.9720   29.2260   42.7010 H   0  0  0  0  0  0  0  0  0  0  0  0
   40.0220   25.8300   43.6800 C   0  0  0  0  0  0  0  0  0  0  0  0
   39.2870   27.0300   43.6630 C   0  0  0  0  0  0  0  0  0  0  0  0
   38.1430   27.0600   42.9170 C   0  0  0  0  0  0  0  0  0  0  0  0
   37.7560   25.9470   42.2310 N   0  0  0  0  0  0  0  0  0  0  0  0
   38.4580   24.8260   42.2600 C   0  0  0  0  0  0  0  0  0  0  0  0
   39.5900   24.7540   42.9770 N   0  0  0  0  0  0  0  0  0  0  0  0
   40.9360   25.6520   44.2130 H   0  0  0  0  0  0  0  0  0  0  0  0
   39.7800   27.7500   44.2870 H   0  0  0  0  0  0  0  0  0  0  0  0
   38.0340   24.0170   41.6660 H   0  0  0  0  0  0  0  0  0  0  0  0
  1  3  1  0  0  0  0
  1 15  1  0  0  0  0
  2  1  1  0  0  0  0
  4  7  1  6  0  0  0
  4  6  1  0  0  0  0
  4  1  1  0  0  0  0
  5  9  1  0  0  0  0
  5  4  1  0  0  0  0
  5  6  1  0  0  0  0
  6 10  1  1  0  0  0
  8  5  1  0  0  0  0
 11 14  1  0  0  0  0
 11 12  1  0  0  0  0
 11  6  1  0  0  0  0
 13 11  1  0  0  0  0
 15 20  1  0  0  0  0
 15 16  1  0  0  0  0
 17 15  1  0  0  0  0
 18 24  1  0  0  0  0
 19 18  1  0  0  0  0
 19 25  1  0  0  0  0
 20 19  2  0  0  0  0
 21 22  2  0  0  0  0
 21 20  1  0  0  0  0
 22 23  1  0  0  0  0
 23 18  2  0  0  0  0
 26 22  1  0  0  0  0
M  END
>  <minimizedAffinity>
-4.25815725

$$$$

 OpenBabel03252502453D

 26 27  0  0  1  0  0  0  0  0999 V2000
   39.8330   29.5650   42.4680 C   0  0  0  0  0  0  0  0  0  0  0  0
   40.6200   29.6670   41.6910 H   0  0  0  0  0  0  0  0  0  0  0  0
   40.2650   29.6050   43.4890 H   0  0  0  0  0  0  0  0  0  0  0  0
   39.1020   28.2640   42.3390 C   0  0  1  0  0  0  0  0  0  0  0  0
   39.4460   27.1860   43.3180 C   0  0  0  0  0  0  0  0  0  0  0  0
   38.1620   27.9090   43.4150 C   0  0  2  0  0  0  0  0  0  0  0  0
   38.9320   28.0010   41.2620 H   0  0  0  0  0  0  0  0  0  0  0  0
   39.4870   26.1760   42.8570 H   0  0  0  0  0  0  0  0  0  0  0  0
   40.2790   27.2850   44.0410 H   0  0  0  0  0  0  0  0  0  0  0  0
   37.7300   28.5030   44.1850 H   0  0  0  0  0  0  0  0  0  0  0  0
   36.9830   27.0900   42.8530 C   0  0  0  0  0  0  0  0  0  0  0  0
   35.8770   27.3110   43.6800 F   0  0  0  0  0  0  0  0  0  0  0  0
   36.5910   27.5400   41.6090 F   0  0  0  0  0  0  0  0  0  0  0  0
   37.2740   25.7650   42.7180 F   0  0  0  0  0  0  0  0  0  0  0  0
   38.8130   30.6410   42.1840 C   0  0  0  0  0  0  0  0  0  0  0  0
   38.6850   31.2090   43.1610 H   0  0  0  0  0  0  0  0  0  0  0  0
   37.8950   30.2980   41.7350 H   0  0  0  0  0  0  0  0  0  0  0  0
   41.4510   32.8430   40.6970 C   0  0  0  0  0  0  0  0  0  0  0  0
   40.8390   31.7360   41.3130 C   0  0  0  0  0  0  0  0  0  0  0  0
   39.4840   31.7740   41.4790 C   0  0  0  0  0  0  0  0  0  0  0  0
   38.7820   32.8590   41.0460 N   0  0  0  0  0  0  0  0  0  0  0  0
   39.3720   33.8920   40.4680 C   0  0  0  0  0  0  0  0  0  0  0  0
   40.7030   33.8980   40.2880 N   0  0  0  0  0  0  0  0  0  0  0  0
   42.5000   32.9620   40.4990 H   0  0  0  0  0  0  0  0  0  0  0  0
   41.5920   31.0070   41.5470 H   0  0  0  0  0  0  0  0  0  0  0  0
   38.6920   34.6890   40.1730 H   0  0  0  0  0  0  0  0  0  0  0  0
  1  3  1  0  0  0  0
  2  1  1  0  0  0  0
  4  7  1  6  0  0  0
  4  1  1  0  0  0  0
  4  5  1  0  0  0  0
  4  6  1  0  0  0  0
  5  6  1  0  0  0  0
  5  9  1  0  0  0  0
  6 10  1  1  0  0  0
  8  5  1  0  0  0  0
 11  6  1  0  0  0  0
 11 12  1  0  0  0  0
 13 11  1  0  0  0  0
 14 11  1  0  0  0  0
 15  1  1  0  0  0  0
 15 16  1  0  0  0  0
 17 15  1  0  0  0  0
 18 19  1  0  0  0  0
 19 20  2  0  0  0  0
 19 25  1  0  0  0  0
 20 15  1  0  0  0  0
 21 20  1  0  0  0  0
 22 21  2  0  0  0  0
 23 22  1  0  0  0  0
 23 18  2  0  0  0  0
 24 18  1  0  0  0  0
 26 22  1  0  0  0  0
M  END
>  <minimizedAffinity>
-4.24582767

$$$$

 OpenBabel03252502453D

 26 27  0  0  1  0  0  0  0  0999 V2000
   36.6940   29.3560   39.0780 C   0  0  0  0  0  0  0  0  0  0  0  0
   37.2870   28.4200   39.1540 H   0  0  0  0  0  0  0  0  0  0  0  0
   36.0510   29.3540   38.1730 H   0  0  0  0  0  0  0  0  0  0  0  0
   37.5800   30.5610   38.9970 C   0  0  1  0  0  0  0  0  0  0  0  0
   37.5500   31.3480   37.7260 C   0  0  0  0  0  0  0  0  0  0  0  0
   36.9250   31.8780   38.9540 C   0  0  2  0  0  0  0  0  0  0  0  0
   38.5590   30.3770   39.5140 H   0  0  0  0  0  0  0  0  0  0  0  0
   38.5560   31.7030   37.4100 H   0  0  0  0  0  0  0  0  0  0  0  0
   36.9930   31.0100   36.8310 H   0  0  0  0  0  0  0  0  0  0  0  0
   35.9260   32.1660   39.1820 H   0  0  0  0  0  0  0  0  0  0  0  0
   37.8010   32.9390   39.6480 C   0  0  0  0  0  0  0  0  0  0  0  0
   37.1220   34.1610   39.5850 F   0  0  0  0  0  0  0  0  0  0  0  0
   37.9460   32.6840   40.9960 F   0  0  0  0  0  0  0  0  0  0  0  0
   39.0570   33.0170   39.1250 F   0  0  0  0  0  0  0  0  0  0  0  0
   35.9360   29.4860   40.3760 C   0  0  0  0  0  0  0  0  0  0  0  0
   35.1290   28.6860   40.3440 H   0  0  0  0  0  0  0  0  0  0  0  0
   35.5820   30.4790   40.6040 H   0  0  0  0  0  0  0  0  0  0  0  0
   37.4010   26.8600   42.6060 C   0  0  0  0  0  0  0  0  0  0  0  0
   36.7080   27.4570   41.5380 C   0  0  0  0  0  0  0  0  0  0  0  0
   36.7140   28.8220   41.4640 C   0  0  0  0  0  0  0  0  0  0  0  0
   37.3820   29.5440   42.4070 N   0  0  0  0  0  0  0  0  0  0  0  0
   38.0300   28.9670   43.4040 C   0  0  0  0  0  0  0  0  0  0  0  0
   38.0480   27.6300   43.5170 N   0  0  0  0  0  0  0  0  0  0  0  0
   37.4860   25.8070   42.8000 H   0  0  0  0  0  0  0  0  0  0  0  0
   36.2800   26.6870   40.9250 H   0  0  0  0  0  0  0  0  0  0  0  0
   38.5180   29.6640   44.0840 H   0  0  0  0  0  0  0  0  0  0  0  0
  1  2  1  0  0  0  0
  1 15  1  0  0  0  0
  3  1  1  0  0  0  0
  4  1  1  0  0  0  0
  4  7  1  1  0  0  0
  5  6  1  0  0  0  0
  5  4  1  0  0  0  0
  6  4  1  0  0  0  0
  6 10  1  1  0  0  0
  6 11  1  0  0  0  0
  8  5  1  0  0  0  0
  9  5  1  0  0  0  0
 11 13  1  0  0  0  0
 12 11  1  0  0  0  0
 14 11  1  0  0  0  0
 15 17  1  0  0  0  0
 15 20  1  0  0  0  0
 16 15  1  0  0  0  0
 18 24  1  0  0  0  0
 18 23  1  0  0  0  0
 19 18  2  0  0  0  0
 20 19  1  0  0  0  0
 20 21  2  0  0  0  0
 21 22  1  0  0  0  0
 22 23  2  0  0  0  0
 22 26  1  0  0  0  0
 25 19  1  0  0  0  0
M  END
>  <minimizedAffinity>
-4.23660183

$$$$

 OpenBabel03252502453D

 26 27  0  0  1  0  0  0  0  0999 V2000
   36.4910   31.2370   40.8220 C   0  0  0  0  0  0  0  0  0  0  0  0
   35.6250   31.8020   41.2260 H   0  0  0  0  0  0  0  0  0  0  0  0
   37.4000   31.3950   41.4400 H   0  0  0  0  0  0  0  0  0  0  0  0
   36.8190   31.6630   39.4240 C   0  0  1  0  0  0  0  0  0  0  0  0
   37.2810   33.0730   39.2280 C   0  0  0  0  0  0  0  0  0  0  0  0
   38.2300   31.9480   39.1190 C   0  0  2  0  0  0  0  0  0  0  0  0
   36.1100   31.2040   38.6850 H   0  0  0  0  0  0  0  0  0  0  0  0
   36.8620   33.5450   38.3130 H   0  0  0  0  0  0  0  0  0  0  0  0
   37.2790   33.8170   40.0480 H   0  0  0  0  0  0  0  0  0  0  0  0
   39.1190   31.7060   39.6520 H   0  0  0  0  0  0  0  0  0  0  0  0
   38.5490   31.5890   37.6540 C   0  0  0  0  0  0  0  0  0  0  0  0
   38.5470   30.1940   37.5460 F   0  0  0  0  0  0  0  0  0  0  0  0
   37.5570   32.0130   36.7940 F   0  0  0  0  0  0  0  0  0  0  0  0
   39.7140   32.1410   37.2140 F   0  0  0  0  0  0  0  0  0  0  0  0
   36.0520   29.7970   40.7230 C   0  0  0  0  0  0  0  0  0  0  0  0
   36.5900   29.3720   39.8160 H   0  0  0  0  0  0  0  0  0  0  0  0
   34.9850   29.6400   40.7310 H   0  0  0  0  0  0  0  0  0  0  0  0
   38.6730   28.7200   43.1700 C   0  0  0  0  0  0  0  0  0  0  0  0
   37.9310   29.5310   42.2910 C   0  0  0  0  0  0  0  0  0  0  0  0
   36.8240   28.9820   41.7070 C   0  0  0  0  0  0  0  0  0  0  0  0
   36.4780   27.6960   41.9950 N   0  0  0  0  0  0  0  0  0  0  0  0
   37.1860   26.9480   42.8260 C   0  0  0  0  0  0  0  0  0  0  0  0
   38.2820   27.4450   43.4180 N   0  0  0  0  0  0  0  0  0  0  0  0
   39.5620   29.0050   43.7000 H   0  0  0  0  0  0  0  0  0  0  0  0
   38.3890   30.5000   42.2390 H   0  0  0  0  0  0  0  0  0  0  0  0
   36.7960   25.9400   42.9630 H   0  0  0  0  0  0  0  0  0  0  0  0
  1  2  1  0  0  0  0
  1  3  1  0  0  0  0
  4  7  1  6  0  0  0
  4  1  1  0  0  0  0
  5  4  1  0  0  0  0
  5  9  1  0  0  0  0
  6  5  1  0  0  0  0
  6  4  1  0  0  0  0
  6 10  1  1  0  0  0
  8  5  1  0  0  0  0
 11  6  1  0  0  0  0
 12 11  1  0  0  0  0
 13 11  1  0  0  0  0
 14 11  1  0  0  0  0
 15 17  1  0  0  0  0
 15  1  1  0  0  0  0
 15 20  1  0  0  0  0
 16 15  1  0  0  0  0
 18 23  1  0  0  0  0
 18 24  1  0  0  0  0
 19 18  2  0  0  0  0
 20 21  2  0  0  0  0
 20 19  1  0  0  0  0
 21 22  1  0  0  0  0
 22 26  1  0  0  0  0
 22 23  2  0  0  0  0
 25 19  1  0  0  0  0
M  END
>  <minimizedAffinity>
-4.22519159

$$$$

 OpenBabel03252502453D

 26 27  0  0  1  0  0  0  0  0999 V2000
   36.5600   31.0960   39.7750 C   0  0  0  0  0  0  0  0  0  0  0  0
   35.6440   31.5530   39.3440 H   0  0  0  0  0  0  0  0  0  0  0  0
   37.1020   30.4900   39.0190 H   0  0  0  0  0  0  0  0  0  0  0  0
   36.2330   30.1940   40.9250 C   0  0  1  0  0  0  0  0  0  0  0  0
   35.3410   29.0260   40.6470 C   0  0  0  0  0  0  0  0  0  0  0  0
   36.7840   28.8310   40.8910 C   0  0  2  0  0  0  0  0  0  0  0  0
   36.0990   30.7810   41.8730 H   0  0  0  0  0  0  0  0  0  0  0  0
   34.6040   28.8380   41.4580 H   0  0  0  0  0  0  0  0  0  0  0  0
   34.8430   28.8790   39.6690 H   0  0  0  0  0  0  0  0  0  0  0  0
   37.5600   28.4090   40.2980 H   0  0  0  0  0  0  0  0  0  0  0  0
   37.0750   28.3300   42.3200 C   0  0  0  0  0  0  0  0  0  0  0  0
   38.2190   27.5270   42.2660 F   0  0  0  0  0  0  0  0  0  0  0  0
   37.4090   29.3650   43.1690 F   0  0  0  0  0  0  0  0  0  0  0  0
   36.0150   27.6850   42.8830 F   0  0  0  0  0  0  0  0  0  0  0  0
   37.3680   32.2300   40.3560 C   0  0  0  0  0  0  0  0  0  0  0  0
   37.9490   31.7810   41.2240 H   0  0  0  0  0  0  0  0  0  0  0  0
   36.8070   33.1190   40.5970 H   0  0  0  0  0  0  0  0  0  0  0  0
   39.9070   31.8930   37.6260 C   0  0  0  0  0  0  0  0  0  0  0  0
   38.7300   31.7060   38.3730 C   0  0  0  0  0  0  0  0  0  0  0  0
   38.5780   32.4510   39.5090 C   0  0  0  0  0  0  0  0  0  0  0  0
   39.5490   33.3360   39.8700 N   0  0  0  0  0  0  0  0  0  0  0  0
   40.6490   33.5010   39.1540 C   0  0  0  0  0  0  0  0  0  0  0  0
   40.8420   32.7880   38.0330 N   0  0  0  0  0  0  0  0  0  0  0  0
   40.1720   31.3850   36.7170 H   0  0  0  0  0  0  0  0  0  0  0  0
   38.1180   30.9750   37.8820 H   0  0  0  0  0  0  0  0  0  0  0  0
   41.3400   34.2390   39.5590 H   0  0  0  0  0  0  0  0  0  0  0  0
  1 15  1  0  0  0  0
  1  4  1  0  0  0  0
  2  1  1  0  0  0  0
  3  1  1  0  0  0  0
  4  7  1  1  0  0  0
  5  6  1  0  0  0  0
  5  4  1  0  0  0  0
  5  8  1  0  0  0  0
  6 10  1  6  0  0  0
  6  4  1  0  0  0  0
  6 11  1  0  0  0  0
  9  5  1  0  0  0  0
 11 14  1  0  0  0  0
 11 13  1  0  0  0  0
 12 11  1  0  0  0  0
 15 17  1  0  0  0  0
 15 16  1  0  0  0  0
 18 23  2  0  0  0  0
 18 19  1  0  0  0  0
 19 20  2  0  0  0  0
 20 21  1  0  0  0  0
 20 15  1  0  0  0  0
 22 26  1  0  0  0  0
 22 21  2  0  0  0  0
 23 22  1  0  0  0  0
 24 18  1  0  0  0  0
 25 19  1  0  0  0  0
M  END
>  <minimizedAffinity>
-4.22055292

$$$$
