
 OpenBabel03252506413D

 35 37  0  0  1  0  0  0  0  0999 V2000
   49.4660   33.3880   41.4140 N   0  0  1  0  0  0  0  0  0  0  0  0
   50.6870   33.1030   42.1280 C   0  0  0  0  0  0  0  0  0  0  0  0
   51.3030   31.7830   41.8760 C   0  0  0  0  0  0  0  0  0  0  0  0
   50.3650   30.6680   42.2350 C   0  0  0  0  0  0  0  0  0  0  0  0
   48.9390   31.0660   42.1190 C   0  0  0  0  0  0  0  0  0  0  0  0
   48.8000   32.1520   41.0980 C   0  0  2  0  0  0  0  0  0  0  0  0
   50.5300   33.2010   43.2270 H   0  0  0  0  0  0  0  0  0  0  0  0
   51.4100   33.9130   41.8210 H   0  0  0  0  0  0  0  0  0  0  0  0
   52.1200   31.7030   42.6750 H   0  0  0  0  0  0  0  0  0  0  0  0
   51.8720   31.6560   40.9520 H   0  0  0  0  0  0  0  0  0  0  0  0
   50.5220   30.2250   43.2260 H   0  0  0  0  0  0  0  0  0  0  0  0
   50.6040   29.8360   41.5090 H   0  0  0  0  0  0  0  0  0  0  0  0
   48.5470   31.4650   43.0910 H   0  0  0  0  0  0  0  0  0  0  0  0
   48.2870   30.2410   41.7990 H   0  0  0  0  0  0  0  0  0  0  0  0
   47.6930   32.4600   41.2570 H   0  0  0  0  0  0  0  0  0  0  0  0
   47.2820   34.6450   41.9490 C   0  0  1  0  0  0  0  0  0  0  0  0
   48.3810   35.5980   41.7200 C   0  0  0  0  0  0  0  0  0  0  0  0
   48.6920   34.2500   42.2560 C   0  0  2  0  0  0  0  0  0  0  0  0
   46.8220   34.2460   41.0340 H   0  0  0  0  0  0  0  0  0  0  0  0
   48.4740   36.4270   42.4310 H   0  0  0  0  0  0  0  0  0  0  0  0
   48.7040   35.8580   40.6870 H   0  0  0  0  0  0  0  0  0  0  0  0
   48.9000   34.0990   43.3380 H   0  0  0  0  0  0  0  0  0  0  0  0
   45.5380   36.0410   43.1320 C   0  0  0  0  0  0  0  0  0  0  0  0
   46.3500   34.8820   43.0890 C   0  0  0  0  0  0  0  0  0  0  0  0
   46.2430   33.9690   44.1490 C   0  0  0  0  0  0  0  0  0  0  0  0
   45.3710   34.2480   45.1490 N   0  0  0  0  0  0  0  0  0  0  0  0
   44.6080   35.3700   45.1580 C   0  0  0  0  0  0  0  0  0  0  0  0
   44.6870   36.2790   44.1440 N   0  0  0  0  0  0  0  0  0  0  0  0
   45.5980   36.7620   42.3290 H   0  0  0  0  0  0  0  0  0  0  0  0
   46.8540   33.0870   44.1270 H   0  0  0  0  0  0  0  0  0  0  0  0
   43.9500   35.4740   46.0200 H   0  0  0  0  0  0  0  0  0  0  0  0
   48.8140   31.7300   39.6730 C   0  0  0  0  0  0  0  0  0  0  0  0
   48.5460   30.3580   39.5330 F   0  0  0  0  0  0  0  0  0  0  0  0
   47.7380   32.3060   38.9610 F   0  0  0  0  0  0  0  0  0  0  0  0
   49.9180   32.1090   38.9480 F   0  0  0  0  0  0  0  0  0  0  0  0
  1  2  1  1  0  0  0
  1 18  1  0  0  0  0
  2  7  1  0  0  0  0
  3  2  1  0  0  0  0
  3  4  1  0  0  0  0
  3  9  1  0  0  0  0
  4 11  1  0  0  0  0
  5  4  1  0  0  0  0
  5 13  1  0  0  0  0
  6 15  1  1  0  0  0
  6  1  1  0  0  0  0
  6  5  1  0  0  0  0
  8  2  1  0  0  0  0
 10  3  1  0  0  0  0
 12  4  1  0  0  0  0
 14  5  1  0  0  0  0
 16 19  1  6  0  0  0
 16 18  1  0  0  0  0
 16 24  1  0  0  0  0
 17 16  1  0  0  0  0
 17 18  1  0  0  0  0
 17 20  1  0  0  0  0
 18 22  1  1  0  0  0
 21 17  1  0  0  0  0
 23 28  1  0  0  0  0
 24 23  2  0  0  0  0
 24 25  1  0  0  0  0
 25 26  2  0  0  0  0
 26 27  1  0  0  0  0
 27 31  1  0  0  0  0
 28 27  2  0  0  0  0
 29 23  1  0  0  0  0
 30 25  1  0  0  0  0
 32  6  1  0  0  0  0
 33 32  1  0  0  0  0
 34 32  1  0  0  0  0
 35 32  1  0  0  0  0
M  END
>  <minimizedAffinity>
-4.7076211

>  <minimizedRMSD>
0.513690233

$$$$
