
 OpenBabel03252508353D

 26 27  0  0  0  0  0  0  0  0999 V2000
   46.7500   33.8280   41.5220 C   0  0  0  0  0  0  0  0  0  0  0  0
   45.5830   33.4670   42.1630 C   0  0  0  0  0  0  0  0  0  0  0  0
   44.5060   33.1530   41.3700 C   0  0  0  0  0  0  0  0  0  0  0  0
   44.5540   33.1860   39.9860 C   0  0  0  0  0  0  0  0  0  0  0  0
   45.7380   33.5520   39.3890 C   0  0  0  0  0  0  0  0  0  0  0  0
   46.8460   33.8760   40.1530 C   0  0  0  0  0  0  0  0  0  0  0  0
   43.6000   32.8720   41.8910 H   0  0  0  0  0  0  0  0  0  0  0  0
   43.6700   32.9270   39.4140 H   0  0  0  0  0  0  0  0  0  0  0  0
   45.7610   33.5730   38.3040 H   0  0  0  0  0  0  0  0  0  0  0  0
   45.0200   34.4470   45.7550 C   0  0  0  0  0  0  0  0  0  0  0  0
   45.0030   34.4860   44.3590 C   0  0  0  0  0  0  0  0  0  0  0  0
   45.5890   33.4500   43.6190 C   0  0  0  0  0  0  0  0  0  0  0  0
   46.1510   32.4500   44.3290 N   0  0  0  0  0  0  0  0  0  0  0  0
   46.1590   32.4260   45.6690 C   0  0  0  0  0  0  0  0  0  0  0  0
   45.5970   33.4200   46.3720 N   0  0  0  0  0  0  0  0  0  0  0  0
   44.4220   35.5040   46.4680 N   0  0  0  0  0  0  0  0  0  0  0  0
   44.5460   35.2990   43.8450 H   0  0  0  0  0  0  0  0  0  0  0  0
   46.6040   31.6340   46.2670 H   0  0  0  0  0  0  0  0  0  0  0  0
   43.8070   36.2060   45.9970 H   0  0  0  0  0  0  0  0  0  0  0  0
   44.5750   35.6220   47.4970 H   0  0  0  0  0  0  0  0  0  0  0  0
   48.1260   34.2710   39.5090 C   0  0  0  0  0  0  0  0  0  0  0  0
   48.0400   34.3450   38.1340 F   0  0  0  0  0  0  0  0  0  0  0  0
   49.0860   33.2950   39.7680 F   0  0  0  0  0  0  0  0  0  0  0  0
   48.5100   35.5040   40.0310 F   0  0  0  0  0  0  0  0  0  0  0  0
   48.8860   34.4410   42.9090 N   0  0  0  0  0  0  0  0  0  0  0  0
   47.9190   34.1710   42.2850 C   0  0  0  0  0  0  0  0  0  0  0  0
  1  2  1  0  0  0  0
  1 26  1  0  0  0  0
  2 12  1  0  0  0  0
  3  7  1  0  0  0  0
  3  2  2  0  0  0  0
  4  3  1  0  0  0  0
  5  4  2  0  0  0  0
  5  6  1  0  0  0  0
  6  1  2  0  0  0  0
  8  4  1  0  0  0  0
  9  5  1  0  0  0  0
 10 15  1  0  0  0  0
 10 16  1  0  0  0  0
 11 10  2  0  0  0  0
 12 13  2  0  0  0  0
 12 11  1  0  0  0  0
 13 14  1  0  0  0  0
 14 18  1  0  0  0  0
 14 15  2  0  0  0  0
 16 20  1  0  0  0  0
 17 11  1  0  0  0  0
 19 16  1  0  0  0  0
 21 23  1  0  0  0  0
 21 24  1  0  0  0  0
 21  6  1  0  0  0  0
 22 21  1  0  0  0  0
 26 25  3  0  0  0  0
M  END
>  <minimizedAffinity>
-5.23880529

>  <minimizedRMSD>
2.27089977

$$$$
