
 OpenBabel03242523213D

 32 34  0  0  0  0  0  0  0  0999 V2000
   38.6520   30.9270   40.3180 C   0  0  0  0  0  0  0  0  0  0  0  0
   37.6350   30.9580   39.4420 C   0  0  0  0  0  0  0  0  0  0  0  0
   37.0940   32.2060   39.2310 C   0  0  0  0  0  0  0  0  0  0  0  0
   37.6300   33.3020   39.9300 N   0  0  0  0  0  0  0  0  0  0  0  0
   38.6270   33.1940   40.7770 C   0  0  0  0  0  0  0  0  0  0  0  0
   39.1950   31.9640   41.0110 N   0  0  0  0  0  0  0  0  0  0  0  0
   36.2790   32.4450   38.5700 H   0  0  0  0  0  0  0  0  0  0  0  0
   38.9360   34.1260   41.2430 H   0  0  0  0  0  0  0  0  0  0  0  0
   37.0210   29.8330   38.8250 C   0  0  0  0  0  0  0  0  0  0  0  0
   36.1590   29.8110   37.7750 C   0  0  0  0  0  0  0  0  0  0  0  0
   37.5630   29.4250   37.3880 C   0  0  0  0  0  0  0  0  0  0  0  0
   36.8620   28.9830   39.5130 H   0  0  0  0  0  0  0  0  0  0  0  0
   35.4280   29.0260   37.4740 H   0  0  0  0  0  0  0  0  0  0  0  0
   35.7770   30.7910   37.3520 H   0  0  0  0  0  0  0  0  0  0  0  0
   38.1580   30.2150   36.9310 H   0  0  0  0  0  0  0  0  0  0  0  0
   37.8440   28.3660   37.3060 H   0  0  0  0  0  0  0  0  0  0  0  0
   39.4760   29.7610   40.6600 C   0  0  0  0  0  0  0  0  0  0  0  0
   40.4880   29.1100   40.6130 O   0  0  0  0  0  0  0  0  0  0  0  0
   38.8230   26.9000   39.7110 Cl  0  0  0  0  0  0  0  0  0  0  0  0
   38.2790   27.5290   41.2600 C   0  0  0  0  0  0  0  0  0  0  0  0
   38.6740   28.8550   41.5420 C   0  0  0  0  0  0  0  0  0  0  0  0
   38.2030   29.2610   42.7820 C   0  0  0  0  0  0  0  0  0  0  0  0
   37.4660   28.5910   43.6780 C   0  0  0  0  0  0  0  0  0  0  0  0
   37.1230   27.3140   43.3310 C   0  0  0  0  0  0  0  0  0  0  0  0
   37.5140   26.7830   42.1530 C   0  0  0  0  0  0  0  0  0  0  0  0
   38.4550   30.2700   43.1730 H   0  0  0  0  0  0  0  0  0  0  0  0
   37.1190   28.9450   44.6300 H   0  0  0  0  0  0  0  0  0  0  0  0
   36.5360   26.6320   43.9280 H   0  0  0  0  0  0  0  0  0  0  0  0
   37.2050   25.3900   41.6520 C   0  0  0  0  0  0  0  0  0  0  0  0
   36.4450   25.4780   40.5260 F   0  0  0  0  0  0  0  0  0  0  0  0
   36.4140   24.7510   42.6150 F   0  0  0  0  0  0  0  0  0  0  0  0
   38.3400   24.6380   41.5110 F   0  0  0  0  0  0  0  0  0  0  0  0
  1 17  1  0  0  0  0
  1  6  1  0  0  0  0
  2  1  2  0  0  0  0
  3  2  1  0  0  0  0
  3  4  2  0  0  0  0
  4  5  1  0  0  0  0
  5  6  2  0  0  0  0
  5  8  1  0  0  0  0
  7  3  1  0  0  0  0
  9  2  1  0  0  0  0
  9 12  1  0  0  0  0
 10  9  1  0  0  0  0
 11 10  1  0  0  0  0
 11  9  1  0  0  0  0
 13 10  1  0  0  0  0
 14 10  1  0  0  0  0
 15 11  1  0  0  0  0
 16 11  1  0  0  0  0
 17 21  1  0  0  0  0
 18 17  2  0  0  0  0
 19 20  1  0  0  0  0
 20 21  2  0  0  0  0
 20 25  1  0  0  0  0
 21 22  1  0  0  0  0
 22 26  1  0  0  0  0
 22 23  2  0  0  0  0
 23 27  1  0  0  0  0
 24 23  1  0  0  0  0
 24 28  1  0  0  0  0
 25 24  2  0  0  0  0
 29 25  1  0  0  0  0
 29 31  1  0  0  0  0
 30 29  1  0  0  0  0
 32 29  1  0  0  0  0
M  END
>  <minimizedAffinity>
-5.56778622

$$$$

 OpenBabel03242523213D

 32 34  0  0  0  0  0  0  0  0999 V2000
   37.5230   30.1930   41.3010 C   0  0  0  0  0  0  0  0  0  0  0  0
   37.8260   31.2650   40.5530 C   0  0  0  0  0  0  0  0  0  0  0  0
   38.9800   31.9180   40.9220 C   0  0  0  0  0  0  0  0  0  0  0  0
   39.7150   31.4250   42.0160 N   0  0  0  0  0  0  0  0  0  0  0  0
   39.3520   30.3680   42.7040 C   0  0  0  0  0  0  0  0  0  0  0  0
   38.2070   29.6880   42.3630 N   0  0  0  0  0  0  0  0  0  0  0  0
   39.3960   32.7920   40.4540 H   0  0  0  0  0  0  0  0  0  0  0  0
   40.0170   30.1040   43.5220 H   0  0  0  0  0  0  0  0  0  0  0  0
   37.0220   31.8280   39.5230 C   0  0  0  0  0  0  0  0  0  0  0  0
   37.3900   32.6940   38.5420 C   0  0  0  0  0  0  0  0  0  0  0  0
   37.2610   31.2750   38.0520 C   0  0  0  0  0  0  0  0  0  0  0  0
   35.9590   31.9410   39.8020 H   0  0  0  0  0  0  0  0  0  0  0  0
   36.7620   33.3870   37.9370 H   0  0  0  0  0  0  0  0  0  0  0  0
   38.4380   33.1260   38.5490 H   0  0  0  0  0  0  0  0  0  0  0  0
   38.1940   30.7220   37.9650 H   0  0  0  0  0  0  0  0  0  0  0  0
   36.3410   30.9430   37.5500 H   0  0  0  0  0  0  0  0  0  0  0  0
   36.4130   29.2560   41.0770 C   0  0  0  0  0  0  0  0  0  0  0  0
   35.2470   28.9600   41.0500 O   0  0  0  0  0  0  0  0  0  0  0  0
   36.5760   26.9370   43.1030 Cl  0  0  0  0  0  0  0  0  0  0  0  0
   37.1400   26.7850   41.4450 C   0  0  0  0  0  0  0  0  0  0  0  0
   36.9840   27.9400   40.6480 C   0  0  0  0  0  0  0  0  0  0  0  0
   37.4520   27.7230   39.3610 C   0  0  0  0  0  0  0  0  0  0  0  0
   38.0020   26.6260   38.8230 C   0  0  0  0  0  0  0  0  0  0  0  0
   38.1200   25.5500   39.6600 C   0  0  0  0  0  0  0  0  0  0  0  0
   37.7040   25.6140   40.9410 C   0  0  0  0  0  0  0  0  0  0  0  0
   37.3710   28.5230   38.5930 H   0  0  0  0  0  0  0  0  0  0  0  0
   38.3550   26.5000   37.8180 H   0  0  0  0  0  0  0  0  0  0  0  0
   38.5370   24.5890   39.3980 H   0  0  0  0  0  0  0  0  0  0  0  0
   37.7760   24.5020   41.9640 C   0  0  0  0  0  0  0  0  0  0  0  0
   38.7270   24.8070   42.8900 F   0  0  0  0  0  0  0  0  0  0  0  0
   38.2160   23.3440   41.3110 F   0  0  0  0  0  0  0  0  0  0  0  0
   36.5450   24.2150   42.4900 F   0  0  0  0  0  0  0  0  0  0  0  0
  1  6  1  0  0  0  0
  2  3  1  0  0  0  0
  2  1  2  0  0  0  0
  3  4  2  0  0  0  0
  4  5  1  0  0  0  0
  5  8  1  0  0  0  0
  6  5  2  0  0  0  0
  7  3  1  0  0  0  0
  9 12  1  0  0  0  0
  9  2  1  0  0  0  0
 10 14  1  0  0  0  0
 10  9  1  0  0  0  0
 11 10  1  0  0  0  0
 11  9  1  0  0  0  0
 13 10  1  0  0  0  0
 15 11  1  0  0  0  0
 16 11  1  0  0  0  0
 17  1  1  0  0  0  0
 18 17  2  0  0  0  0
 20 19  1  0  0  0  0
 21 17  1  0  0  0  0
 21 20  2  0  0  0  0
 22 21  1  0  0  0  0
 23 22  2  0  0  0  0
 23 24  1  0  0  0  0
 24 25  2  0  0  0  0
 25 20  1  0  0  0  0
 25 29  1  0  0  0  0
 26 22  1  0  0  0  0
 27 23  1  0  0  0  0
 28 24  1  0  0  0  0
 29 32  1  0  0  0  0
 29 30  1  0  0  0  0
 31 29  1  0  0  0  0
M  END
>  <minimizedAffinity>
-5.45255995

$$$$

 OpenBabel03242523213D

 32 34  0  0  0  0  0  0  0  0999 V2000
   36.9980   30.4920   39.8250 C   0  0  0  0  0  0  0  0  0  0  0  0
   37.9660   30.2300   38.9340 C   0  0  0  0  0  0  0  0  0  0  0  0
   38.7970   31.2920   38.6570 C   0  0  0  0  0  0  0  0  0  0  0  0
   38.5660   32.5180   39.3060 N   0  0  0  0  0  0  0  0  0  0  0  0
   37.5920   32.7000   40.1670 C   0  0  0  0  0  0  0  0  0  0  0  0
   36.7430   31.6620   40.4700 N   0  0  0  0  0  0  0  0  0  0  0  0
   39.6310   31.2900   37.9770 H   0  0  0  0  0  0  0  0  0  0  0  0
   37.5340   33.7000   40.5880 H   0  0  0  0  0  0  0  0  0  0  0  0
   38.1270   29.0260   38.1940 C   0  0  0  0  0  0  0  0  0  0  0  0
   39.0740   28.7230   37.2680 C   0  0  0  0  0  0  0  0  0  0  0  0
   39.3460   28.0930   38.6090 C   0  0  0  0  0  0  0  0  0  0  0  0
   37.1800   28.4870   38.0130 H   0  0  0  0  0  0  0  0  0  0  0  0
   39.0550   27.9560   36.4600 H   0  0  0  0  0  0  0  0  0  0  0  0
   39.8030   29.5260   36.9380 H   0  0  0  0  0  0  0  0  0  0  0  0
   40.0700   28.6130   39.2340 H   0  0  0  0  0  0  0  0  0  0  0  0
   39.0580   27.0500   38.8010 H   0  0  0  0  0  0  0  0  0  0  0  0
   36.0360   29.5300   40.3790 C   0  0  0  0  0  0  0  0  0  0  0  0
   34.9390   29.0460   40.4800 O   0  0  0  0  0  0  0  0  0  0  0  0
   36.3240   26.5190   39.7750 Cl  0  0  0  0  0  0  0  0  0  0  0  0
   36.9670   27.2550   41.2360 C   0  0  0  0  0  0  0  0  0  0  0  0
   36.7550   28.6470   41.3520 C   0  0  0  0  0  0  0  0  0  0  0  0
   37.2980   29.1360   42.5300 C   0  0  0  0  0  0  0  0  0  0  0  0
   37.9490   28.4900   43.5060 C   0  0  0  0  0  0  0  0  0  0  0  0
   38.1120   27.1440   43.3210 C   0  0  0  0  0  0  0  0  0  0  0  0
   37.6380   26.5290   42.2180 C   0  0  0  0  0  0  0  0  0  0  0  0
   37.2490   30.2230   42.7600 H   0  0  0  0  0  0  0  0  0  0  0  0
   38.3530   28.9080   44.4070 H   0  0  0  0  0  0  0  0  0  0  0  0
   38.6110   26.4690   44.0010 H   0  0  0  0  0  0  0  0  0  0  0  0
   37.7520   25.0570   41.8930 C   0  0  0  0  0  0  0  0  0  0  0  0
   36.5210   24.4820   41.9840 F   0  0  0  0  0  0  0  0  0  0  0  0
   38.5420   24.4580   42.8830 F   0  0  0  0  0  0  0  0  0  0  0  0
   38.3890   24.8480   40.6990 F   0  0  0  0  0  0  0  0  0  0  0  0
  1 17  1  0  0  0  0
  1  6  1  0  0  0  0
  2  1  2  0  0  0  0
  3  2  1  0  0  0  0
  3  4  2  0  0  0  0
  4  5  1  0  0  0  0
  5  6  2  0  0  0  0
  5  8  1  0  0  0  0
  7  3  1  0  0  0  0
  9 11  1  0  0  0  0
  9  2  1  0  0  0  0
 10  9  1  0  0  0  0
 10 11  1  0  0  0  0
 11 16  1  0  0  0  0
 11 15  1  0  0  0  0
 12  9  1  0  0  0  0
 13 10  1  0  0  0  0
 14 10  1  0  0  0  0
 17 18  2  0  0  0  0
 17 21  1  0  0  0  0
 19 20  1  0  0  0  0
 20 21  2  0  0  0  0
 20 25  1  0  0  0  0
 21 22  1  0  0  0  0
 22 26  1  0  0  0  0
 22 23  2  0  0  0  0
 23 27  1  0  0  0  0
 24 23  1  0  0  0  0
 24 28  1  0  0  0  0
 25 24  2  0  0  0  0
 29 30  1  0  0  0  0
 29 25  1  0  0  0  0
 29 31  1  0  0  0  0
 32 29  1  0  0  0  0
M  END
>  <minimizedAffinity>
-5.37445068

$$$$

 OpenBabel03242523213D

 32 34  0  0  0  0  0  0  0  0999 V2000
   37.8280   29.9420   39.2710 C   0  0  0  0  0  0  0  0  0  0  0  0
   38.2750   31.2070   39.3010 C   0  0  0  0  0  0  0  0  0  0  0  0
   39.3150   31.4710   38.4380 C   0  0  0  0  0  0  0  0  0  0  0  0
   39.8050   30.4280   37.6310 N   0  0  0  0  0  0  0  0  0  0  0  0
   39.3160   29.2090   37.6610 C   0  0  0  0  0  0  0  0  0  0  0  0
   38.2760   28.9090   38.5080 N   0  0  0  0  0  0  0  0  0  0  0  0
   39.8120   32.4160   38.3070 H   0  0  0  0  0  0  0  0  0  0  0  0
   39.7950   28.5080   36.9830 H   0  0  0  0  0  0  0  0  0  0  0  0
   37.8560   32.2280   40.1970 C   0  0  0  0  0  0  0  0  0  0  0  0
   38.4010   33.4580   40.3930 C   0  0  0  0  0  0  0  0  0  0  0  0
   37.1530   33.4990   39.5510 C   0  0  0  0  0  0  0  0  0  0  0  0
   37.3590   31.8430   41.1060 H   0  0  0  0  0  0  0  0  0  0  0  0
   38.3170   34.1390   41.2710 H   0  0  0  0  0  0  0  0  0  0  0  0
   39.3680   33.7250   39.8650 H   0  0  0  0  0  0  0  0  0  0  0  0
   37.3130   33.5570   38.4760 H   0  0  0  0  0  0  0  0  0  0  0  0
   36.1840   33.7470   40.0060 H   0  0  0  0  0  0  0  0  0  0  0  0
   36.6740   29.4060   40.0060 C   0  0  0  0  0  0  0  0  0  0  0  0
   35.4950   29.2930   40.2180 O   0  0  0  0  0  0  0  0  0  0  0  0
   36.5290   26.3480   39.6350 Cl  0  0  0  0  0  0  0  0  0  0  0  0
   37.1780   27.0930   41.0880 C   0  0  0  0  0  0  0  0  0  0  0  0
   37.1790   28.5060   41.0910 C   0  0  0  0  0  0  0  0  0  0  0  0
   37.7110   29.0000   42.2720 C   0  0  0  0  0  0  0  0  0  0  0  0
   38.1860   28.3430   43.3380 C   0  0  0  0  0  0  0  0  0  0  0  0
   38.1490   26.9780   43.2600 C   0  0  0  0  0  0  0  0  0  0  0  0
   37.6600   26.3550   42.1670 C   0  0  0  0  0  0  0  0  0  0  0  0
   37.8170   30.0970   42.4220 H   0  0  0  0  0  0  0  0  0  0  0  0
   38.5890   28.7670   44.2380 H   0  0  0  0  0  0  0  0  0  0  0  0
   38.4890   26.2920   44.0210 H   0  0  0  0  0  0  0  0  0  0  0  0
   37.5650   24.8610   41.9550 C   0  0  0  0  0  0  0  0  0  0  0  0
   36.2700   24.4690   42.1110 F   0  0  0  0  0  0  0  0  0  0  0  0
   38.2940   24.2340   42.9730 F   0  0  0  0  0  0  0  0  0  0  0  0
   38.1330   24.4800   40.7690 F   0  0  0  0  0  0  0  0  0  0  0  0
  1  2  1  0  0  0  0
  1 17  1  0  0  0  0
  2  9  1  0  0  0  0
  3  2  2  0  0  0  0
  4  5  2  0  0  0  0
  4  3  1  0  0  0  0
  5  6  1  0  0  0  0
  6  1  2  0  0  0  0
  7  3  1  0  0  0  0
  8  5  1  0  0  0  0
  9 10  1  0  0  0  0
  9 12  1  0  0  0  0
 10 13  1  0  0  0  0
 11 16  1  0  0  0  0
 11  9  1  0  0  0  0
 11 10  1  0  0  0  0
 14 10  1  0  0  0  0
 15 11  1  0  0  0  0
 17 18  2  0  0  0  0
 17 21  1  0  0  0  0
 19 20  1  0  0  0  0
 20 21  2  0  0  0  0
 20 25  1  0  0  0  0
 21 22  1  0  0  0  0
 22 26  1  0  0  0  0
 22 23  2  0  0  0  0
 23 27  1  0  0  0  0
 24 23  1  0  0  0  0
 24 28  1  0  0  0  0
 25 24  2  0  0  0  0
 29 30  1  0  0  0  0
 29 25  1  0  0  0  0
 29 31  1  0  0  0  0
 32 29  1  0  0  0  0
M  END
>  <minimizedAffinity>
-5.35198069

$$$$

 OpenBabel03242523213D

 32 34  0  0  0  0  0  0  0  0999 V2000
   36.9070   29.7190   39.2990 C   0  0  0  0  0  0  0  0  0  0  0  0
   36.7770   29.6670   37.9640 C   0  0  0  0  0  0  0  0  0  0  0  0
   37.8680   30.1230   37.2610 C   0  0  0  0  0  0  0  0  0  0  0  0
   38.9860   30.5920   37.9760 N   0  0  0  0  0  0  0  0  0  0  0  0
   39.0380   30.6150   39.2870 C   0  0  0  0  0  0  0  0  0  0  0  0
   37.9680   30.1660   40.0240 N   0  0  0  0  0  0  0  0  0  0  0  0
   37.9670   30.1630   36.1900 H   0  0  0  0  0  0  0  0  0  0  0  0
   39.9640   31.0040   39.7020 H   0  0  0  0  0  0  0  0  0  0  0  0
   35.6050   29.3010   37.2460 C   0  0  0  0  0  0  0  0  0  0  0  0
   35.4730   29.0480   35.9170 C   0  0  0  0  0  0  0  0  0  0  0  0
   35.5160   27.7940   36.7500 C   0  0  0  0  0  0  0  0  0  0  0  0
   34.6730   29.6930   37.6900 H   0  0  0  0  0  0  0  0  0  0  0  0
   34.5610   29.0750   35.2770 H   0  0  0  0  0  0  0  0  0  0  0  0
   36.3580   29.2200   35.2300 H   0  0  0  0  0  0  0  0  0  0  0  0
   36.4790   27.2880   36.7890 H   0  0  0  0  0  0  0  0  0  0  0  0
   34.5840   27.2880   37.0390 H   0  0  0  0  0  0  0  0  0  0  0  0
   35.9490   29.2120   40.2910 C   0  0  0  0  0  0  0  0  0  0  0  0
   34.8420   29.0820   40.7450 O   0  0  0  0  0  0  0  0  0  0  0  0
   36.4780   26.2120   39.8150 Cl  0  0  0  0  0  0  0  0  0  0  0  0
   37.0190   27.0490   41.2630 C   0  0  0  0  0  0  0  0  0  0  0  0
   36.7020   28.4240   41.3170 C   0  0  0  0  0  0  0  0  0  0  0  0
   37.1700   28.9970   42.4900 C   0  0  0  0  0  0  0  0  0  0  0  0
   37.8380   28.4380   43.5080 C   0  0  0  0  0  0  0  0  0  0  0  0
   38.1060   27.1030   43.3820 C   0  0  0  0  0  0  0  0  0  0  0  0
   37.7130   26.4130   42.2910 C   0  0  0  0  0  0  0  0  0  0  0  0
   37.0330   30.0840   42.6750 H   0  0  0  0  0  0  0  0  0  0  0  0
   38.1810   28.9200   44.4030 H   0  0  0  0  0  0  0  0  0  0  0  0
   38.6320   26.4940   44.1010 H   0  0  0  0  0  0  0  0  0  0  0  0
   37.9460   24.9420   42.0280 C   0  0  0  0  0  0  0  0  0  0  0  0
   38.7980   24.4490   42.9700 F   0  0  0  0  0  0  0  0  0  0  0  0
   38.6050   24.8240   40.7980 F   0  0  0  0  0  0  0  0  0  0  0  0
   36.7680   24.2540   41.9140 F   0  0  0  0  0  0  0  0  0  0  0  0
  1  6  1  0  0  0  0
  1 17  1  0  0  0  0
  2  1  2  0  0  0  0
  3  2  1  0  0  0  0
  3  4  2  0  0  0  0
  4  5  1  0  0  0  0
  5  8  1  0  0  0  0
  5  6  2  0  0  0  0
  7  3  1  0  0  0  0
  9 12  1  0  0  0  0
  9  2  1  0  0  0  0
 10 11  1  0  0  0  0
 10  9  1  0  0  0  0
 11 15  1  0  0  0  0
 11 16  1  0  0  0  0
 11  9  1  0  0  0  0
 13 10  1  0  0  0  0
 14 10  1  0  0  0  0
 17 18  2  0  0  0  0
 17 21  1  0  0  0  0
 19 20  1  0  0  0  0
 20 21  2  0  0  0  0
 20 25  1  0  0  0  0
 21 22  1  0  0  0  0
 22 26  1  0  0  0  0
 22 23  2  0  0  0  0
 23 27  1  0  0  0  0
 24 23  1  0  0  0  0
 24 28  1  0  0  0  0
 25 24  2  0  0  0  0
 29 25  1  0  0  0  0
 29 30  1  0  0  0  0
 31 29  1  0  0  0  0
 32 29  1  0  0  0  0
M  END
>  <minimizedAffinity>
-5.30336666

$$$$

 OpenBabel03242523213D

 32 34  0  0  0  0  0  0  0  0999 V2000
   38.8020   27.5040   43.2040 C   0  0  0  0  0  0  0  0  0  0  0  0
   39.5950   28.5470   42.9150 C   0  0  0  0  0  0  0  0  0  0  0  0
   40.9440   28.2900   43.0120 C   0  0  0  0  0  0  0  0  0  0  0  0
   41.3600   27.0020   43.3970 N   0  0  0  0  0  0  0  0  0  0  0  0
   40.5210   26.0290   43.6680 C   0  0  0  0  0  0  0  0  0  0  0  0
   39.1670   26.2490   43.5790 N   0  0  0  0  0  0  0  0  0  0  0  0
   41.7420   28.9850   42.8210 H   0  0  0  0  0  0  0  0  0  0  0  0
   40.9860   25.0890   43.9520 H   0  0  0  0  0  0  0  0  0  0  0  0
   39.1720   29.8770   42.6390 C   0  0  0  0  0  0  0  0  0  0  0  0
   39.9360   30.9850   42.4480 C   0  0  0  0  0  0  0  0  0  0  0  0
   39.4100   30.4070   41.1590 C   0  0  0  0  0  0  0  0  0  0  0  0
   38.1800   30.1220   43.0590 H   0  0  0  0  0  0  0  0  0  0  0  0
   39.6620   32.0600   42.5480 H   0  0  0  0  0  0  0  0  0  0  0  0
   41.0570   30.9180   42.6030 H   0  0  0  0  0  0  0  0  0  0  0  0
   40.1090   29.7840   40.6050 H   0  0  0  0  0  0  0  0  0  0  0  0
   38.5090   30.8270   40.6900 H   0  0  0  0  0  0  0  0  0  0  0  0
   37.3380   27.4620   43.0900 C   0  0  0  0  0  0  0  0  0  0  0  0
   36.2230   27.5130   43.5420 O   0  0  0  0  0  0  0  0  0  0  0  0
   36.0320   29.7350   41.4660 Cl  0  0  0  0  0  0  0  0  0  0  0  0
   36.3720   28.1550   40.7750 C   0  0  0  0  0  0  0  0  0  0  0  0
   36.9810   27.2320   41.6540 C   0  0  0  0  0  0  0  0  0  0  0  0
   37.2120   26.0210   41.0210 C   0  0  0  0  0  0  0  0  0  0  0  0
   36.9410   25.6460   39.7630 C   0  0  0  0  0  0  0  0  0  0  0  0
   36.3500   26.5950   38.9750 C   0  0  0  0  0  0  0  0  0  0  0  0
   36.0680   27.8240   39.4560 C   0  0  0  0  0  0  0  0  0  0  0  0
   37.7180   25.1930   41.5640 H   0  0  0  0  0  0  0  0  0  0  0  0
   37.1360   24.6920   39.3120 H   0  0  0  0  0  0  0  0  0  0  0  0
   36.0640   26.4690   37.9420 H   0  0  0  0  0  0  0  0  0  0  0  0
   35.4210   28.9580   38.6930 C   0  0  0  0  0  0  0  0  0  0  0  0
   34.1970   29.2190   39.2310 F   0  0  0  0  0  0  0  0  0  0  0  0
   35.1910   28.5190   37.3830 F   0  0  0  0  0  0  0  0  0  0  0  0
   36.2460   30.0470   38.6070 F   0  0  0  0  0  0  0  0  0  0  0  0
  1  6  1  0  0  0  0
  2  3  1  0  0  0  0
  2  1  2  0  0  0  0
  3  4  2  0  0  0  0
  4  5  1  0  0  0  0
  5  8  1  0  0  0  0
  6  5  2  0  0  0  0
  7  3  1  0  0  0  0
  9  2  1  0  0  0  0
  9 12  1  0  0  0  0
 10 13  1  0  0  0  0
 10 14  1  0  0  0  0
 10  9  1  0  0  0  0
 11 10  1  0  0  0  0
 11  9  1  0  0  0  0
 15 11  1  0  0  0  0
 16 11  1  0  0  0  0
 17  1  1  0  0  0  0
 17 18  2  0  0  0  0
 20 19  1  0  0  0  0
 20 21  1  0  0  0  0
 21 17  1  0  0  0  0
 22 26  1  0  0  0  0
 22 21  2  0  0  0  0
 23 22  1  0  0  0  0
 24 25  1  0  0  0  0
 24 23  2  0  0  0  0
 25 20  2  0  0  0  0
 27 23  1  0  0  0  0
 28 24  1  0  0  0  0
 29 30  1  0  0  0  0
 29 25  1  0  0  0  0
 31 29  1  0  0  0  0
 32 29  1  0  0  0  0
M  END
>  <minimizedAffinity>
-5.28814077

$$$$

 OpenBabel03242523213D

 32 34  0  0  0  0  0  0  0  0999 V2000
   39.1510   29.8010   41.9110 C   0  0  0  0  0  0  0  0  0  0  0  0
   38.7390   30.6040   40.9180 C   0  0  0  0  0  0  0  0  0  0  0  0
   39.7450   31.0930   40.1160 C   0  0  0  0  0  0  0  0  0  0  0  0
   41.0730   30.7250   40.3990 N   0  0  0  0  0  0  0  0  0  0  0  0
   41.4010   29.9340   41.3940 C   0  0  0  0  0  0  0  0  0  0  0  0
   40.4220   29.4250   42.2150 N   0  0  0  0  0  0  0  0  0  0  0  0
   39.6270   31.7470   39.2700 H   0  0  0  0  0  0  0  0  0  0  0  0
   42.4650   29.7370   41.4920 H   0  0  0  0  0  0  0  0  0  0  0  0
   37.4110   31.0660   40.7050 C   0  0  0  0  0  0  0  0  0  0  0  0
   36.9580   31.9320   39.7600 C   0  0  0  0  0  0  0  0  0  0  0  0
   36.6540   30.4940   39.4300 C   0  0  0  0  0  0  0  0  0  0  0  0
   36.7990   31.0960   41.6240 H   0  0  0  0  0  0  0  0  0  0  0  0
   36.0320   32.5510   39.7510 H   0  0  0  0  0  0  0  0  0  0  0  0
   37.7040   32.4520   39.0830 H   0  0  0  0  0  0  0  0  0  0  0  0
   37.3340   30.0200   38.7240 H   0  0  0  0  0  0  0  0  0  0  0  0
   35.6650   30.0700   39.6550 H   0  0  0  0  0  0  0  0  0  0  0  0
   38.2960   29.0650   42.8520 C   0  0  0  0  0  0  0  0  0  0  0  0
   37.4250   28.9920   43.6800 O   0  0  0  0  0  0  0  0  0  0  0  0
   36.8070   27.1980   40.9010 Cl  0  0  0  0  0  0  0  0  0  0  0  0
   38.0810   26.6260   41.9700 C   0  0  0  0  0  0  0  0  0  0  0  0
   38.6650   27.6150   42.7930 C   0  0  0  0  0  0  0  0  0  0  0  0
   39.6570   27.0720   43.5940 C   0  0  0  0  0  0  0  0  0  0  0  0
   40.0940   25.8090   43.6790 C   0  0  0  0  0  0  0  0  0  0  0  0
   39.4780   24.9100   42.8510 C   0  0  0  0  0  0  0  0  0  0  0  0
   38.4940   25.2960   42.0120 C   0  0  0  0  0  0  0  0  0  0  0  0
   40.2420   27.7240   44.2790 H   0  0  0  0  0  0  0  0  0  0  0  0
   40.8670   25.4280   44.3180 H   0  0  0  0  0  0  0  0  0  0  0  0
   39.7010   23.8560   42.7850 H   0  0  0  0  0  0  0  0  0  0  0  0
   37.7370   24.4090   41.0500 C   0  0  0  0  0  0  0  0  0  0  0  0
   38.2390   23.1450   41.1170 F   0  0  0  0  0  0  0  0  0  0  0  0
   37.9900   24.8670   39.7510 F   0  0  0  0  0  0  0  0  0  0  0  0
   36.3840   24.4910   41.2420 F   0  0  0  0  0  0  0  0  0  0  0  0
  1  6  1  0  0  0  0
  1 17  1  0  0  0  0
  2  1  2  0  0  0  0
  3  4  2  0  0  0  0
  3  2  1  0  0  0  0
  4  5  1  0  0  0  0
  5  8  1  0  0  0  0
  5  6  2  0  0  0  0
  7  3  1  0  0  0  0
  9  2  1  0  0  0  0
  9 12  1  0  0  0  0
 10  9  1  0  0  0  0
 11 16  1  0  0  0  0
 11 10  1  0  0  0  0
 11  9  1  0  0  0  0
 13 10  1  0  0  0  0
 14 10  1  0  0  0  0
 15 11  1  0  0  0  0
 17 18  2  0  0  0  0
 19 20  1  0  0  0  0
 20 25  2  0  0  0  0
 20 21  1  0  0  0  0
 21 17  1  0  0  0  0
 21 22  2  0  0  0  0
 22 23  1  0  0  0  0
 22 26  1  0  0  0  0
 23 27  1  0  0  0  0
 24 23  2  0  0  0  0
 25 24  1  0  0  0  0
 28 24  1  0  0  0  0
 29 30  1  0  0  0  0
 29 32  1  0  0  0  0
 29 25  1  0  0  0  0
 31 29  1  0  0  0  0
M  END
>  <minimizedAffinity>
-5.27164507

$$$$

 OpenBabel03242523213D

 32 34  0  0  0  0  0  0  0  0999 V2000
   38.6510   28.3680   42.5510 C   0  0  0  0  0  0  0  0  0  0  0  0
   39.8160   27.7020   42.5250 C   0  0  0  0  0  0  0  0  0  0  0  0
   40.9370   28.5000   42.5570 C   0  0  0  0  0  0  0  0  0  0  0  0
   40.7710   29.8970   42.6080 N   0  0  0  0  0  0  0  0  0  0  0  0
   39.5940   30.4780   42.6270 C   0  0  0  0  0  0  0  0  0  0  0  0
   38.4520   29.7130   42.5990 N   0  0  0  0  0  0  0  0  0  0  0  0
   41.9590   28.1660   42.5460 H   0  0  0  0  0  0  0  0  0  0  0  0
   39.6200   31.5640   42.6660 H   0  0  0  0  0  0  0  0  0  0  0  0
   39.9810   26.3000   42.3570 C   0  0  0  0  0  0  0  0  0  0  0  0
   41.0610   25.5330   42.6610 C   0  0  0  0  0  0  0  0  0  0  0  0
   39.9570   25.4170   43.6790 C   0  0  0  0  0  0  0  0  0  0  0  0
   39.3960   25.8820   41.5180 H   0  0  0  0  0  0  0  0  0  0  0  0
   41.3530   24.5320   42.2680 H   0  0  0  0  0  0  0  0  0  0  0  0
   42.0140   26.0350   43.0150 H   0  0  0  0  0  0  0  0  0  0  0  0
   40.0830   26.0170   44.5790 H   0  0  0  0  0  0  0  0  0  0  0  0
   39.2490   24.5770   43.6370 H   0  0  0  0  0  0  0  0  0  0  0  0
   37.3080   27.7770   42.6250 C   0  0  0  0  0  0  0  0  0  0  0  0
   36.3350   27.3950   43.2220 O   0  0  0  0  0  0  0  0  0  0  0  0
   35.7620   29.8960   41.0020 Cl  0  0  0  0  0  0  0  0  0  0  0  0
   36.1310   28.3000   40.3640 C   0  0  0  0  0  0  0  0  0  0  0  0
   36.8540   27.4550   41.2350 C   0  0  0  0  0  0  0  0  0  0  0  0
   37.0990   26.2250   40.6460 C   0  0  0  0  0  0  0  0  0  0  0  0
   36.7520   25.7720   39.4330 C   0  0  0  0  0  0  0  0  0  0  0  0
   36.0530   26.6480   38.6490 C   0  0  0  0  0  0  0  0  0  0  0  0
   35.7430   27.8850   39.0910 C   0  0  0  0  0  0  0  0  0  0  0  0
   37.6890   25.4530   41.1850 H   0  0  0  0  0  0  0  0  0  0  0  0
   36.9610   24.8070   39.0140 H   0  0  0  0  0  0  0  0  0  0  0  0
   35.6940   26.4540   37.6500 H   0  0  0  0  0  0  0  0  0  0  0  0
   34.9800   28.9450   38.3280 C   0  0  0  0  0  0  0  0  0  0  0  0
   33.7700   29.1380   38.9210 F   0  0  0  0  0  0  0  0  0  0  0  0
   34.7180   28.4470   37.0460 F   0  0  0  0  0  0  0  0  0  0  0  0
   35.7200   30.0850   38.1660 F   0  0  0  0  0  0  0  0  0  0  0  0
  1  6  1  0  0  0  0
  1 17  1  0  0  0  0
  2  1  2  0  0  0  0
  2  3  1  0  0  0  0
  3  4  2  0  0  0  0
  4  5  1  0  0  0  0
  5  8  1  0  0  0  0
  6  5  2  0  0  0  0
  7  3  1  0  0  0  0
  9  2  1  0  0  0  0
  9 10  1  0  0  0  0
  9 11  1  0  0  0  0
 10 14  1  0  0  0  0
 10 11  1  0  0  0  0
 11 15  1  0  0  0  0
 12  9  1  0  0  0  0
 13 10  1  0  0  0  0
 16 11  1  0  0  0  0
 17 18  2  0  0  0  0
 20 19  1  0  0  0  0
 20 21  1  0  0  0  0
 21 17  1  0  0  0  0
 22 26  1  0  0  0  0
 22 21  2  0  0  0  0
 23 22  1  0  0  0  0
 24 25  1  0  0  0  0
 24 23  2  0  0  0  0
 25 20  2  0  0  0  0
 27 23  1  0  0  0  0
 28 24  1  0  0  0  0
 29 30  1  0  0  0  0
 29 25  1  0  0  0  0
 31 29  1  0  0  0  0
 32 29  1  0  0  0  0
M  END
>  <minimizedAffinity>
-5.2419219

$$$$

 OpenBabel03242523213D

 32 34  0  0  0  0  0  0  0  0999 V2000
   36.9570   26.3620   41.5130 C   0  0  0  0  0  0  0  0  0  0  0  0
   36.6260   26.8010   40.2880 C   0  0  0  0  0  0  0  0  0  0  0  0
   36.4590   25.8110   39.3470 C   0  0  0  0  0  0  0  0  0  0  0  0
   36.6460   24.4720   39.7340 N   0  0  0  0  0  0  0  0  0  0  0  0
   36.9730   24.1180   40.9550 C   0  0  0  0  0  0  0  0  0  0  0  0
   37.1460   25.0790   41.9230 N   0  0  0  0  0  0  0  0  0  0  0  0
   36.1930   25.9510   38.3140 H   0  0  0  0  0  0  0  0  0  0  0  0
   37.0840   23.0480   41.1080 H   0  0  0  0  0  0  0  0  0  0  0  0
   36.5510   28.1590   39.8720 C   0  0  0  0  0  0  0  0  0  0  0  0
   35.8640   28.6860   38.8240 C   0  0  0  0  0  0  0  0  0  0  0  0
   35.1780   28.9130   40.1470 C   0  0  0  0  0  0  0  0  0  0  0  0
   37.4530   28.7480   40.1170 H   0  0  0  0  0  0  0  0  0  0  0  0
   36.0230   29.6460   38.2830 H   0  0  0  0  0  0  0  0  0  0  0  0
   35.3360   27.9890   38.1020 H   0  0  0  0  0  0  0  0  0  0  0  0
   34.3680   28.2240   40.3800 H   0  0  0  0  0  0  0  0  0  0  0  0
   35.2970   29.8680   40.6760 H   0  0  0  0  0  0  0  0  0  0  0  0
   37.1000   27.1790   42.7250 C   0  0  0  0  0  0  0  0  0  0  0  0
   36.6650   27.7710   43.6790 O   0  0  0  0  0  0  0  0  0  0  0  0
   38.2320   29.9560   42.0040 Cl  0  0  0  0  0  0  0  0  0  0  0  0
   39.2350   28.6660   42.6530 C   0  0  0  0  0  0  0  0  0  0  0  0
   38.5560   27.4610   42.9370 C   0  0  0  0  0  0  0  0  0  0  0  0
   39.4250   26.5080   43.4460 C   0  0  0  0  0  0  0  0  0  0  0  0
   40.7420   26.5880   43.6790 C   0  0  0  0  0  0  0  0  0  0  0  0
   41.3270   27.7870   43.3770 C   0  0  0  0  0  0  0  0  0  0  0  0
   40.6030   28.8090   42.8760 C   0  0  0  0  0  0  0  0  0  0  0  0
   39.0430   25.5110   43.7560 H   0  0  0  0  0  0  0  0  0  0  0  0
   41.3810   25.8220   44.0740 H   0  0  0  0  0  0  0  0  0  0  0  0
   42.3720   28.0290   43.5000 H   0  0  0  0  0  0  0  0  0  0  0  0
   41.1250   30.1790   42.5030 C   0  0  0  0  0  0  0  0  0  0  0  0
   41.0670   30.3270   41.1500 F   0  0  0  0  0  0  0  0  0  0  0  0
   42.4810   30.2320   42.8490 F   0  0  0  0  0  0  0  0  0  0  0  0
   40.4980   31.1700   43.2080 F   0  0  0  0  0  0  0  0  0  0  0  0
  1  6  1  0  0  0  0
  1 17  1  0  0  0  0
  2  1  2  0  0  0  0
  3  4  2  0  0  0  0
  3  2  1  0  0  0  0
  4  5  1  0  0  0  0
  5  8  1  0  0  0  0
  5  6  2  0  0  0  0
  7  3  1  0  0  0  0
  9 12  1  0  0  0  0
  9 11  1  0  0  0  0
  9  2  1  0  0  0  0
 10  9  1  0  0  0  0
 10 11  1  0  0  0  0
 11 15  1  0  0  0  0
 11 16  1  0  0  0  0
 13 10  1  0  0  0  0
 14 10  1  0  0  0  0
 17 21  1  0  0  0  0
 17 18  2  0  0  0  0
 19 20  1  0  0  0  0
 20 25  2  0  0  0  0
 20 21  1  0  0  0  0
 21 22  2  0  0  0  0
 22 23  1  0  0  0  0
 22 26  1  0  0  0  0
 23 27  1  0  0  0  0
 24 28  1  0  0  0  0
 24 23  2  0  0  0  0
 25 24  1  0  0  0  0
 29 31  1  0  0  0  0
 29 25  1  0  0  0  0
 29 32  1  0  0  0  0
 30 29  1  0  0  0  0
M  END
>  <minimizedAffinity>
-5.17593908

$$$$
