
 OpenBabel03252502333D

 19 19  0  0  0  0  0  0  0  0999 V2000
   35.7670   29.6190   39.8210 C   0  0  0  0  0  0  0  0  0  0  0  0
   36.1760   28.8540   40.9300 C   0  0  0  0  0  0  0  0  0  0  0  0
   37.1800   29.3930   41.7570 C   0  0  0  0  0  0  0  0  0  0  0  0
   37.6890   30.6130   41.4340 N   0  0  0  0  0  0  0  0  0  0  0  0
   37.2730   31.3050   40.3700 C   0  0  0  0  0  0  0  0  0  0  0  0
   36.3190   30.8130   39.5690 N   0  0  0  0  0  0  0  0  0  0  0  0
   35.7510   27.8840   41.1640 H   0  0  0  0  0  0  0  0  0  0  0  0
   34.7040   29.0360   38.9550 C   0  0  0  0  0  0  0  0  0  0  0  0
   33.4610   29.1630   39.4750 F   0  0  0  0  0  0  0  0  0  0  0  0
   34.7940   29.6230   37.6870 F   0  0  0  0  0  0  0  0  0  0  0  0
   35.0080   27.6790   38.7250 F   0  0  0  0  0  0  0  0  0  0  0  0
   37.8500   32.6420   40.0400 C   0  0  0  0  0  0  0  0  0  0  0  0
   38.4720   33.1990   41.1360 F   0  0  0  0  0  0  0  0  0  0  0  0
   36.8780   33.4940   39.5280 F   0  0  0  0  0  0  0  0  0  0  0  0
   38.7990   32.5400   39.0340 F   0  0  0  0  0  0  0  0  0  0  0  0
   37.6680   28.6660   42.9360 C   0  0  0  0  0  0  0  0  0  0  0  0
   38.4360   29.5600   43.6750 F   0  0  0  0  0  0  0  0  0  0  0  0
   38.5460   27.6380   42.5810 F   0  0  0  0  0  0  0  0  0  0  0  0
   36.6440   28.1450   43.6800 F   0  0  0  0  0  0  0  0  0  0  0  0
  1  2  1  0  0  0  0
  2  7  1  0  0  0  0
  2  3  2  0  0  0  0
  3 16  1  0  0  0  0
  4  3  1  0  0  0  0
  5  4  2  0  0  0  0
  6  1  2  0  0  0  0
  6  5  1  0  0  0  0
  8  9  1  0  0  0  0
  8  1  1  0  0  0  0
 10  8  1  0  0  0  0
 11  8  1  0  0  0  0
 12  5  1  0  0  0  0
 12 13  1  0  0  0  0
 14 12  1  0  0  0  0
 15 12  1  0  0  0  0
 16 17  1  0  0  0  0
 16 19  1  0  0  0  0
 18 16  1  0  0  0  0
M  END
>  <minimizedAffinity>
-5.04434156

$$$$

 OpenBabel03252502333D

 19 19  0  0  0  0  0  0  0  0999 V2000
   35.6590   29.1430   39.8890 C   0  0  0  0  0  0  0  0  0  0  0  0
   36.4320   30.3130   39.7620 C   0  0  0  0  0  0  0  0  0  0  0  0
   37.4320   30.5390   40.7270 C   0  0  0  0  0  0  0  0  0  0  0  0
   37.5880   29.6180   41.7170 N   0  0  0  0  0  0  0  0  0  0  0  0
   36.8300   28.5200   41.8010 C   0  0  0  0  0  0  0  0  0  0  0  0
   35.8730   28.2830   40.8940 N   0  0  0  0  0  0  0  0  0  0  0  0
   36.2870   31.0300   38.9620 H   0  0  0  0  0  0  0  0  0  0  0  0
   34.6050   28.9170   38.8610 C   0  0  0  0  0  0  0  0  0  0  0  0
   33.3570   29.2000   39.3030 F   0  0  0  0  0  0  0  0  0  0  0  0
   34.9300   29.6640   37.7220 F   0  0  0  0  0  0  0  0  0  0  0  0
   34.6840   27.5790   38.4260 F   0  0  0  0  0  0  0  0  0  0  0  0
   37.0230   27.5260   42.8980 C   0  0  0  0  0  0  0  0  0  0  0  0
   35.8880   27.4140   43.6710 F   0  0  0  0  0  0  0  0  0  0  0  0
   38.1300   27.8480   43.6760 F   0  0  0  0  0  0  0  0  0  0  0  0
   37.3010   26.2680   42.3870 F   0  0  0  0  0  0  0  0  0  0  0  0
   38.2880   31.7310   40.6750 C   0  0  0  0  0  0  0  0  0  0  0  0
   39.0300   31.7520   41.8510 F   0  0  0  0  0  0  0  0  0  0  0  0
   37.5340   32.9080   40.7000 F   0  0  0  0  0  0  0  0  0  0  0  0
   39.0940   31.7370   39.5680 F   0  0  0  0  0  0  0  0  0  0  0  0
  1  6  1  0  0  0  0
  2  1  2  0  0  0  0
  2  3  1  0  0  0  0
  3  4  2  0  0  0  0
  4  5  1  0  0  0  0
  5 12  1  0  0  0  0
  6  5  2  0  0  0  0
  7  2  1  0  0  0  0
  8  9  1  0  0  0  0
  8  1  1  0  0  0  0
 10  8  1  0  0  0  0
 11  8  1  0  0  0  0
 12 13  1  0  0  0  0
 12 14  1  0  0  0  0
 15 12  1  0  0  0  0
 16 18  1  0  0  0  0
 16  3  1  0  0  0  0
 16 17  1  0  0  0  0
 19 16  1  0  0  0  0
M  END
>  <minimizedAffinity>
-4.99121952

$$$$

 OpenBabel03252502333D

 19 19  0  0  0  0  0  0  0  0999 V2000
   37.4630   31.6790   40.3240 C   0  0  0  0  0  0  0  0  0  0  0  0
   36.4570   31.0920   39.5350 C   0  0  0  0  0  0  0  0  0  0  0  0
   36.0180   29.8030   39.8950 C   0  0  0  0  0  0  0  0  0  0  0  0
   36.5910   29.2090   40.9770 N   0  0  0  0  0  0  0  0  0  0  0  0
   37.5460   29.8040   41.6980 C   0  0  0  0  0  0  0  0  0  0  0  0
   37.9800   31.0290   41.3760 N   0  0  0  0  0  0  0  0  0  0  0  0
   36.0160   31.5890   38.6780 H   0  0  0  0  0  0  0  0  0  0  0  0
   37.9180   33.0430   39.9320 C   0  0  0  0  0  0  0  0  0  0  0  0
   36.9210   33.8200   39.4460 F   0  0  0  0  0  0  0  0  0  0  0  0
   38.5410   33.6360   41.0360 F   0  0  0  0  0  0  0  0  0  0  0  0
   38.9520   32.9140   38.9830 F   0  0  0  0  0  0  0  0  0  0  0  0
   38.1580   29.1280   42.8810 C   0  0  0  0  0  0  0  0  0  0  0  0
   37.1930   28.5540   43.6790 F   0  0  0  0  0  0  0  0  0  0  0  0
   38.9500   30.0120   43.6070 F   0  0  0  0  0  0  0  0  0  0  0  0
   39.0220   28.1180   42.4860 F   0  0  0  0  0  0  0  0  0  0  0  0
   34.9710   29.1120   39.1300 C   0  0  0  0  0  0  0  0  0  0  0  0
   35.3340   27.7710   39.0630 F   0  0  0  0  0  0  0  0  0  0  0  0
   34.9320   29.5450   37.8010 F   0  0  0  0  0  0  0  0  0  0  0  0
   33.7330   29.2730   39.6920 F   0  0  0  0  0  0  0  0  0  0  0  0
  1  6  1  0  0  0  0
  2  3  1  0  0  0  0
  2  1  2  0  0  0  0
  3  4  2  0  0  0  0
  4  5  1  0  0  0  0
  5 12  1  0  0  0  0
  6  5  2  0  0  0  0
  7  2  1  0  0  0  0
  8  1  1  0  0  0  0
  8 10  1  0  0  0  0
  9  8  1  0  0  0  0
 11  8  1  0  0  0  0
 12 14  1  0  0  0  0
 12 13  1  0  0  0  0
 15 12  1  0  0  0  0
 16 19  1  0  0  0  0
 16  3  1  0  0  0  0
 17 16  1  0  0  0  0
 18 16  1  0  0  0  0
M  END
>  <minimizedAffinity>
-4.97416258

$$$$

 OpenBabel03252502333D

 19 19  0  0  0  0  0  0  0  0999 V2000
   36.9560   29.1440   41.6510 C   0  0  0  0  0  0  0  0  0  0  0  0
   35.9390   28.6310   40.8230 C   0  0  0  0  0  0  0  0  0  0  0  0
   35.5490   29.4080   39.7160 C   0  0  0  0  0  0  0  0  0  0  0  0
   36.1750   30.6000   39.5160 N   0  0  0  0  0  0  0  0  0  0  0  0
   37.1360   31.0500   40.3290 C   0  0  0  0  0  0  0  0  0  0  0  0
   37.5240   30.3280   41.3890 N   0  0  0  0  0  0  0  0  0  0  0  0
   35.4580   27.6760   41.0050 H   0  0  0  0  0  0  0  0  0  0  0  0
   37.3590   28.3100   42.8190 C   0  0  0  0  0  0  0  0  0  0  0  0
   36.3060   27.7840   43.4890 F   0  0  0  0  0  0  0  0  0  0  0  0
   38.2340   27.3140   42.3710 F   0  0  0  0  0  0  0  0  0  0  0  0
   38.1490   29.0990   43.6800 F   0  0  0  0  0  0  0  0  0  0  0  0
   37.8050   32.3620   40.0870 C   0  0  0  0  0  0  0  0  0  0  0  0
   38.3420   32.8680   41.2500 F   0  0  0  0  0  0  0  0  0  0  0  0
   36.9290   33.2700   39.5020 F   0  0  0  0  0  0  0  0  0  0  0  0
   38.8420   32.2310   39.1760 F   0  0  0  0  0  0  0  0  0  0  0  0
   34.4980   28.9530   38.7970 C   0  0  0  0  0  0  0  0  0  0  0  0
   34.7150   27.5980   38.5690 F   0  0  0  0  0  0  0  0  0  0  0  0
   34.6140   29.5570   37.5410 F   0  0  0  0  0  0  0  0  0  0  0  0
   33.2440   29.1870   39.2940 F   0  0  0  0  0  0  0  0  0  0  0  0
  1  8  1  0  0  0  0
  2  7  1  0  0  0  0
  2  1  2  0  0  0  0
  3  2  1  0  0  0  0
  4  3  2  0  0  0  0
  4  5  1  0  0  0  0
  5  6  2  0  0  0  0
  6  1  1  0  0  0  0
  8  9  1  0  0  0  0
  8 11  1  0  0  0  0
 10  8  1  0  0  0  0
 12  5  1  0  0  0  0
 12 13  1  0  0  0  0
 14 12  1  0  0  0  0
 15 12  1  0  0  0  0
 16 19  1  0  0  0  0
 16  3  1  0  0  0  0
 17 16  1  0  0  0  0
 18 16  1  0  0  0  0
M  END
>  <minimizedAffinity>
-4.96865892

$$$$

 OpenBabel03252502333D

 19 19  0  0  0  0  0  0  0  0999 V2000
   37.3840   30.5000   40.6750 C   0  0  0  0  0  0  0  0  0  0  0  0
   37.6160   29.6110   41.7420 C   0  0  0  0  0  0  0  0  0  0  0  0
   36.8270   28.4460   41.8000 C   0  0  0  0  0  0  0  0  0  0  0  0
   35.8950   28.2530   40.8270 N   0  0  0  0  0  0  0  0  0  0  0  0
   35.7070   29.1250   39.8320 C   0  0  0  0  0  0  0  0  0  0  0  0
   36.4460   30.2400   39.7560 N   0  0  0  0  0  0  0  0  0  0  0  0
   38.3670   29.7890   42.5040 H   0  0  0  0  0  0  0  0  0  0  0  0
   38.2260   31.7280   40.6270 C   0  0  0  0  0  0  0  0  0  0  0  0
   39.0390   31.8620   41.7010 F   0  0  0  0  0  0  0  0  0  0  0  0
   38.9520   31.7200   39.4290 F   0  0  0  0  0  0  0  0  0  0  0  0
   37.3780   32.8470   40.5050 F   0  0  0  0  0  0  0  0  0  0  0  0
   34.6770   28.8880   38.7780 C   0  0  0  0  0  0  0  0  0  0  0  0
   33.4200   29.2300   39.2270 F   0  0  0  0  0  0  0  0  0  0  0  0
   34.7100   27.5710   38.3330 F   0  0  0  0  0  0  0  0  0  0  0  0
   34.9340   29.6520   37.6500 F   0  0  0  0  0  0  0  0  0  0  0  0
   36.9990   27.4610   42.8760 C   0  0  0  0  0  0  0  0  0  0  0  0
   37.1160   26.2140   42.2710 F   0  0  0  0  0  0  0  0  0  0  0  0
   35.8590   27.3710   43.6800 F   0  0  0  0  0  0  0  0  0  0  0  0
   38.0830   27.7440   43.6640 F   0  0  0  0  0  0  0  0  0  0  0  0
  1  2  1  0  0  0  0
  2  3  2  0  0  0  0
  2  7  1  0  0  0  0
  3 16  1  0  0  0  0
  4  3  1  0  0  0  0
  5  4  2  0  0  0  0
  6  5  1  0  0  0  0
  6  1  2  0  0  0  0
  8  1  1  0  0  0  0
  8  9  1  0  0  0  0
 10  8  1  0  0  0  0
 11  8  1  0  0  0  0
 12 13  1  0  0  0  0
 12  5  1  0  0  0  0
 14 12  1  0  0  0  0
 15 12  1  0  0  0  0
 16 19  1  0  0  0  0
 16 18  1  0  0  0  0
 17 16  1  0  0  0  0
M  END
>  <minimizedAffinity>
-4.93708229

$$$$

 OpenBabel03252502333D

 19 19  0  0  0  0  0  0  0  0999 V2000
   37.3920   30.5610   40.6880 C   0  0  0  0  0  0  0  0  0  0  0  0
   36.4340   30.3290   39.6830 C   0  0  0  0  0  0  0  0  0  0  0  0
   35.6630   29.1550   39.7770 C   0  0  0  0  0  0  0  0  0  0  0  0
   35.8920   28.3210   40.8290 N   0  0  0  0  0  0  0  0  0  0  0  0
   36.8140   28.5790   41.7610 C   0  0  0  0  0  0  0  0  0  0  0  0
   37.5590   29.6900   41.6930 N   0  0  0  0  0  0  0  0  0  0  0  0
   36.2720   31.0120   38.8560 H   0  0  0  0  0  0  0  0  0  0  0  0
   38.2000   31.8080   40.5760 C   0  0  0  0  0  0  0  0  0  0  0  0
   39.0860   31.7800   39.5530 F   0  0  0  0  0  0  0  0  0  0  0  0
   37.3230   32.8940   40.4690 F   0  0  0  0  0  0  0  0  0  0  0  0
   38.8630   32.0230   41.8000 F   0  0  0  0  0  0  0  0  0  0  0  0
   37.0440   27.6450   42.9040 C   0  0  0  0  0  0  0  0  0  0  0  0
   35.9120   27.5220   43.6790 F   0  0  0  0  0  0  0  0  0  0  0  0
   38.1340   28.0490   43.6670 F   0  0  0  0  0  0  0  0  0  0  0  0
   37.3750   26.3770   42.4520 F   0  0  0  0  0  0  0  0  0  0  0  0
   34.6400   28.8310   38.7750 C   0  0  0  0  0  0  0  0  0  0  0  0
   34.8700   29.6540   37.6780 F   0  0  0  0  0  0  0  0  0  0  0  0
   33.3580   29.1670   39.2200 F   0  0  0  0  0  0  0  0  0  0  0  0
   34.6620   27.5070   38.4270 F   0  0  0  0  0  0  0  0  0  0  0  0
  1  6  1  0  0  0  0
  2  3  1  0  0  0  0
  2  1  2  0  0  0  0
  3  4  2  0  0  0  0
  4  5  1  0  0  0  0
  5 12  1  0  0  0  0
  6  5  2  0  0  0  0
  7  2  1  0  0  0  0
  8  1  1  0  0  0  0
  8 11  1  0  0  0  0
  9  8  1  0  0  0  0
 10  8  1  0  0  0  0
 12 14  1  0  0  0  0
 12 13  1  0  0  0  0
 15 12  1  0  0  0  0
 16 18  1  0  0  0  0
 16  3  1  0  0  0  0
 17 16  1  0  0  0  0
 19 16  1  0  0  0  0
M  END
>  <minimizedAffinity>
-4.92706108

$$$$

 OpenBabel03252502333D

 19 19  0  0  0  0  0  0  0  0999 V2000
   37.2820   29.5210   41.6410 C   0  0  0  0  0  0  0  0  0  0  0  0
   37.8420   30.7790   41.3450 C   0  0  0  0  0  0  0  0  0  0  0  0
   37.3690   31.4480   40.2000 C   0  0  0  0  0  0  0  0  0  0  0  0
   36.4050   30.8410   39.4550 N   0  0  0  0  0  0  0  0  0  0  0  0
   35.9020   29.6440   39.7730 C   0  0  0  0  0  0  0  0  0  0  0  0
   36.3360   28.9890   40.8570 N   0  0  0  0  0  0  0  0  0  0  0  0
   38.6090   31.2400   41.9580 H   0  0  0  0  0  0  0  0  0  0  0  0
   37.7920   28.8250   42.8560 C   0  0  0  0  0  0  0  0  0  0  0  0
   36.8110   28.2760   43.6100 F   0  0  0  0  0  0  0  0  0  0  0  0
   38.7310   27.8670   42.4550 F   0  0  0  0  0  0  0  0  0  0  0  0
   38.5440   29.7440   43.6150 F   0  0  0  0  0  0  0  0  0  0  0  0
   34.8450   29.0020   38.9370 C   0  0  0  0  0  0  0  0  0  0  0  0
   35.0700   27.6490   38.8050 F   0  0  0  0  0  0  0  0  0  0  0  0
   34.7470   29.6180   37.6930 F   0  0  0  0  0  0  0  0  0  0  0  0
   33.5920   29.1580   39.5100 F   0  0  0  0  0  0  0  0  0  0  0  0
   37.8950   32.7640   39.8140 C   0  0  0  0  0  0  0  0  0  0  0  0
   38.3760   33.3660   40.9720 F   0  0  0  0  0  0  0  0  0  0  0  0
   36.8810   33.6100   39.3570 F   0  0  0  0  0  0  0  0  0  0  0  0
   38.8660   32.6670   38.8540 F   0  0  0  0  0  0  0  0  0  0  0  0
  1  8  1  0  0  0  0
  2  1  1  0  0  0  0
  2  7  1  0  0  0  0
  3  2  2  0  0  0  0
  4  5  2  0  0  0  0
  4  3  1  0  0  0  0
  5  6  1  0  0  0  0
  6  1  2  0  0  0  0
  8  9  1  0  0  0  0
  8 11  1  0  0  0  0
 10  8  1  0  0  0  0
 12 15  1  0  0  0  0
 12  5  1  0  0  0  0
 13 12  1  0  0  0  0
 14 12  1  0  0  0  0
 16  3  1  0  0  0  0
 16 17  1  0  0  0  0
 18 16  1  0  0  0  0
 19 16  1  0  0  0  0
M  END
>  <minimizedAffinity>
-4.88167286

$$$$

 OpenBabel03252502333D

 19 19  0  0  0  0  0  0  0  0999 V2000
   35.5280   29.2230   39.4240 C   0  0  0  0  0  0  0  0  0  0  0  0
   35.8000   28.4630   40.5770 C   0  0  0  0  0  0  0  0  0  0  0  0
   36.7630   28.9650   41.4740 C   0  0  0  0  0  0  0  0  0  0  0  0
   37.3670   30.1460   41.1710 N   0  0  0  0  0  0  0  0  0  0  0  0
   37.0790   30.8350   40.0620 C   0  0  0  0  0  0  0  0  0  0  0  0
   36.1660   30.3780   39.1950 N   0  0  0  0  0  0  0  0  0  0  0  0
   35.3020   27.5240   40.7950 H   0  0  0  0  0  0  0  0  0  0  0  0
   34.5060   28.6790   38.4840 C   0  0  0  0  0  0  0  0  0  0  0  0
   34.6100   27.3430   38.2960 F   0  0  0  0  0  0  0  0  0  0  0  0
   33.2370   29.0360   38.9560 F   0  0  0  0  0  0  0  0  0  0  0  0
   34.6190   29.3630   37.2570 F   0  0  0  0  0  0  0  0  0  0  0  0
   37.7580   32.1280   39.7540 C   0  0  0  0  0  0  0  0  0  0  0  0
   37.2440   32.6990   38.6100 F   0  0  0  0  0  0  0  0  0  0  0  0
   39.1350   31.9590   39.6560 F   0  0  0  0  0  0  0  0  0  0  0  0
   37.5840   33.0390   40.7850 F   0  0  0  0  0  0  0  0  0  0  0  0
   37.1110   28.2410   42.7040 C   0  0  0  0  0  0  0  0  0  0  0  0
   38.0190   27.2480   42.3480 F   0  0  0  0  0  0  0  0  0  0  0  0
   36.0100   27.5580   43.2290 F   0  0  0  0  0  0  0  0  0  0  0  0
   37.6230   29.0730   43.6620 F   0  0  0  0  0  0  0  0  0  0  0  0
  1  2  1  0  0  0  0
  2  7  1  0  0  0  0
  2  3  2  0  0  0  0
  3 16  1  0  0  0  0
  4  3  1  0  0  0  0
  5  4  2  0  0  0  0
  6  1  2  0  0  0  0
  6  5  1  0  0  0  0
  8 10  1  0  0  0  0
  8  1  1  0  0  0  0
  9  8  1  0  0  0  0
 11  8  1  0  0  0  0
 12  5  1  0  0  0  0
 12 15  1  0  0  0  0
 13 12  1  0  0  0  0
 14 12  1  0  0  0  0
 16 18  1  0  0  0  0
 16 19  1  0  0  0  0
 17 16  1  0  0  0  0
M  END
>  <minimizedAffinity>
-4.76438522

$$$$

 OpenBabel03252502333D

 19 19  0  0  0  0  0  0  0  0999 V2000
   36.6420   29.8800   38.7790 C   0  0  0  0  0  0  0  0  0  0  0  0
   37.1100   31.2080   38.7990 C   0  0  0  0  0  0  0  0  0  0  0  0
   37.6510   31.6890   40.0060 C   0  0  0  0  0  0  0  0  0  0  0  0
   37.6890   30.8450   41.0730 N   0  0  0  0  0  0  0  0  0  0  0  0
   37.2320   29.5900   41.0110 C   0  0  0  0  0  0  0  0  0  0  0  0
   36.7130   29.1100   39.8730 N   0  0  0  0  0  0  0  0  0  0  0  0
   37.0680   31.8590   37.9320 H   0  0  0  0  0  0  0  0  0  0  0  0
   36.0720   29.3850   37.4940 C   0  0  0  0  0  0  0  0  0  0  0  0
   36.4030   28.1020   37.2210 F   0  0  0  0  0  0  0  0  0  0  0  0
   34.6840   29.5620   37.5290 F   0  0  0  0  0  0  0  0  0  0  0  0
   36.4990   30.2390   36.4570 F   0  0  0  0  0  0  0  0  0  0  0  0
   37.2860   28.6850   42.1970 C   0  0  0  0  0  0  0  0  0  0  0  0
   36.0810   28.0450   42.3880 F   0  0  0  0  0  0  0  0  0  0  0  0
   37.6710   29.3800   43.3390 F   0  0  0  0  0  0  0  0  0  0  0  0
   38.2540   27.7060   42.0340 F   0  0  0  0  0  0  0  0  0  0  0  0
   38.1640   33.0610   40.1200 C   0  0  0  0  0  0  0  0  0  0  0  0
   37.1230   33.9140   39.7690 F   0  0  0  0  0  0  0  0  0  0  0  0
   39.1730   33.3130   39.1860 F   0  0  0  0  0  0  0  0  0  0  0  0
   38.6370   33.3300   41.3760 F   0  0  0  0  0  0  0  0  0  0  0  0
  1  2  2  0  0  0  0
  1  6  1  0  0  0  0
  2  3  1  0  0  0  0
  3 16  1  0  0  0  0
  3  4  2  0  0  0  0
  5  4  1  0  0  0  0
  5 12  1  0  0  0  0
  6  5  2  0  0  0  0
  7  2  1  0  0  0  0
  8 10  1  0  0  0  0
  8  1  1  0  0  0  0
  9  8  1  0  0  0  0
 11  8  1  0  0  0  0
 12 13  1  0  0  0  0
 12 14  1  0  0  0  0
 15 12  1  0  0  0  0
 16 19  1  0  0  0  0
 17 16  1  0  0  0  0
 18 16  1  0  0  0  0
M  END
>  <minimizedAffinity>
-4.68856335

$$$$
