
 OpenBabel03242514363D

 28 29  0  0  0  0  0  0  0  0999 V2000
   49.3800   35.4530   42.4150 O   0  0  0  0  0  0  0  0  0  0  0  0
   48.7950   34.2660   41.7100 P   0  0  1  0  0  0  0  0  0  0  0  0
   50.0630   33.2420   41.2850 O   0  0  0  0  0  0  0  0  0  0  0  0
   49.7150   32.5750   40.6160 H   0  0  0  0  0  0  0  0  0  0  0  0
   47.6800   33.4610   42.7290 O   0  0  0  0  0  0  0  0  0  0  0  0
   46.1320   35.3060   42.7340 C   0  0  0  0  0  0  0  0  0  0  0  0
   46.6680   34.1870   43.3730 C   0  0  0  0  0  0  0  0  0  0  0  0
   46.1770   33.8200   44.6420 C   0  0  0  0  0  0  0  0  0  0  0  0
   45.1840   34.6020   45.1770 N   0  0  0  0  0  0  0  0  0  0  0  0
   44.6940   35.6720   44.5300 C   0  0  0  0  0  0  0  0  0  0  0  0
   45.1660   36.0140   43.3260 N   0  0  0  0  0  0  0  0  0  0  0  0
   46.4430   35.6510   41.7810 H   0  0  0  0  0  0  0  0  0  0  0  0
   46.6090   32.9570   45.1030 H   0  0  0  0  0  0  0  0  0  0  0  0
   43.9130   36.2570   44.9940 H   0  0  0  0  0  0  0  0  0  0  0  0
   48.0370   34.7660   40.3230 O   0  0  0  0  0  0  0  0  0  0  0  0
   47.4550   34.0010   39.3840 C   0  0  0  0  0  0  0  0  0  0  0  0
   46.3440   33.5050   39.8010 O   0  0  0  0  0  0  0  0  0  0  0  0
   47.6280   33.5030   38.0050 C   0  0  0  0  0  0  0  0  0  0  0  0
   48.8800   33.4530   37.2820 C   0  0  0  0  0  0  0  0  0  0  0  0
   48.7280   32.9480   36.0090 C   0  0  0  0  0  0  0  0  0  0  0  0
   47.5570   32.5490   35.5060 C   0  0  0  0  0  0  0  0  0  0  0  0
   46.3630   32.8840   36.9590 S   0  0  0  0  0  0  0  0  0  0  0  0
   49.7840   33.7910   37.7540 H   0  0  0  0  0  0  0  0  0  0  0  0
   49.5960   32.8620   35.3650 H   0  0  0  0  0  0  0  0  0  0  0  0
   47.1320   32.0030   34.2570 C   0  0  0  0  0  0  0  0  0  0  0  0
   47.8190   32.6260   33.2290 F   0  0  0  0  0  0  0  0  0  0  0  0
   45.7970   32.2360   34.0430 F   0  0  0  0  0  0  0  0  0  0  0  0
   47.4830   30.6720   34.2210 F   0  0  0  0  0  0  0  0  0  0  0  0
  2  1  2  1  0  0  0
  2  5  1  0  0  0  0
  3  2  1  0  0  0  0
  4  3  1  0  0  0  0
  5  7  1  0  0  0  0
  6 11  2  0  0  0  0
  6  7  1  0  0  0  0
  7  8  2  0  0  0  0
  8 13  1  0  0  0  0
  8  9  1  0  0  0  0
 10 14  1  0  0  0  0
 10  9  2  0  0  0  0
 11 10  1  0  0  0  0
 12  6  1  0  0  0  0
 15  2  1  0  0  0  0
 16 17  2  0  0  0  0
 16 15  1  0  0  0  0
 18 16  1  0  0  0  0
 19 23  1  0  0  0  0
 19 18  2  0  0  0  0
 20 19  1  0  0  0  0
 21 20  2  0  0  0  0
 21 22  1  0  0  0  0
 22 18  1  0  0  0  0
 24 20  1  0  0  0  0
 25 21  1  0  0  0  0
 26 25  1  0  0  0  0
 27 25  1  0  0  0  0
 28 25  1  0  0  0  0
M  END
>  <minimizedAffinity>
-4.89785719

>  <minimizedRMSD>
0.358519197

$$$$
