
 OpenBabel03252505043D

 29 30  0  0  1  0  0  0  0  0999 V2000
   37.1530   29.6470   39.9280 C   0  0  2  0  0  0  0  0  0  0  0  0
   38.3480   29.6500   39.0340 C   0  0  0  0  0  0  0  0  0  0  0  0
   39.1390   30.8980   39.0240 C   0  0  0  0  0  0  0  0  0  0  0  0
   38.1600   32.0000   38.6480 C   0  0  0  0  0  0  0  0  0  0  0  0
   37.1390   32.2020   39.6700 C   0  0  0  0  0  0  0  0  0  0  0  0
   36.6330   30.9460   40.3290 C   0  0  0  0  0  0  0  0  0  0  0  0
   36.3310   29.0720   39.4280 H   0  0  0  0  0  0  0  0  0  0  0  0
   39.0050   28.7640   39.2250 H   0  0  0  0  0  0  0  0  0  0  0  0
   37.9920   29.4910   37.9880 H   0  0  0  0  0  0  0  0  0  0  0  0
   39.5800   31.0520   40.0220 H   0  0  0  0  0  0  0  0  0  0  0  0
   39.8940   30.8620   38.2430 H   0  0  0  0  0  0  0  0  0  0  0  0
   38.7690   32.9270   38.6450 H   0  0  0  0  0  0  0  0  0  0  0  0
   37.8110   31.8230   37.6300 H   0  0  0  0  0  0  0  0  0  0  0  0
   36.6760   33.0750   40.0540 H   0  0  0  0  0  0  0  0  0  0  0  0
   38.3060   28.6640   43.3040 C   0  0  0  0  0  0  0  0  0  0  0  0
   38.1560   27.2530   43.2670 C   0  0  0  0  0  0  0  0  0  0  0  0
   37.6610   26.6720   42.0740 C   0  0  0  0  0  0  0  0  0  0  0  0
   37.3600   27.4950   41.0370 N   0  0  0  0  0  0  0  0  0  0  0  0
   37.5130   28.8190   41.1080 C   0  0  0  0  0  0  0  0  0  0  0  0
   37.9900   29.4250   42.2430 N   0  0  0  0  0  0  0  0  0  0  0  0
   38.6820   29.1290   44.2050 H   0  0  0  0  0  0  0  0  0  0  0  0
   38.4020   26.6390   44.1020 H   0  0  0  0  0  0  0  0  0  0  0  0
   37.4820   25.1980   41.9750 C   0  0  0  0  0  0  0  0  0  0  0  0
   36.3600   24.8710   42.7060 F   0  0  0  0  0  0  0  0  0  0  0  0
   38.5940   24.5010   42.4010 F   0  0  0  0  0  0  0  0  0  0  0  0
   37.2210   24.8270   40.6520 F   0  0  0  0  0  0  0  0  0  0  0  0
   35.6420   31.0030   41.3470 N   0  0  0  0  0  0  0  0  0  0  0  0
   34.6360   30.7640   41.2140 H   0  0  0  0  0  0  0  0  0  0  0  0
   36.0410   31.3200   42.2710 H   0  0  0  0  0  0  0  0  0  0  0  0
  1  7  1  6  0  0  0
  1  6  1  0  0  0  0
  1 19  1  0  0  0  0
  2  8  1  0  0  0  0
  2  1  1  0  0  0  0
  3  2  1  0  0  0  0
  3 10  1  0  0  0  0
  4  3  1  0  0  0  0
  4  5  1  0  0  0  0
  5 14  1  0  0  0  0
  5  6  2  0  0  0  0
  6 27  1  0  0  0  0
  9  2  1  0  0  0  0
 11  3  1  0  0  0  0
 12  4  1  0  0  0  0
 13  4  1  0  0  0  0
 15 21  1  0  0  0  0
 16 15  1  0  0  0  0
 16 22  1  0  0  0  0
 17 16  2  0  0  0  0
 18 19  2  0  0  0  0
 18 17  1  0  0  0  0
 19 20  1  0  0  0  0
 20 15  2  0  0  0  0
 23 17  1  0  0  0  0
 23 25  1  0  0  0  0
 23 24  1  0  0  0  0
 26 23  1  0  0  0  0
 27 29  1  0  0  0  0
 28 27  1  0  0  0  0
M  END
>  <minimizedAffinity>
-5.45309544

$$$$

 OpenBabel03252505043D

 29 30  0  0  1  0  0  0  0  0999 V2000
   36.8790   29.5880   39.6490 C   0  0  2  0  0  0  0  0  0  0  0  0
   37.9080   29.5170   38.5700 C   0  0  0  0  0  0  0  0  0  0  0  0
   38.7740   30.7050   38.4310 C   0  0  0  0  0  0  0  0  0  0  0  0
   37.8290   31.8790   38.2210 C   0  0  0  0  0  0  0  0  0  0  0  0
   37.0050   32.1400   39.3970 C   0  0  0  0  0  0  0  0  0  0  0  0
   36.5250   30.9150   40.1300 C   0  0  0  0  0  0  0  0  0  0  0  0
   35.9470   29.0790   39.2910 H   0  0  0  0  0  0  0  0  0  0  0  0
   38.5220   28.5840   38.6520 H   0  0  0  0  0  0  0  0  0  0  0  0
   37.3750   29.3950   37.5980 H   0  0  0  0  0  0  0  0  0  0  0  0
   39.3820   30.8160   39.3430 H   0  0  0  0  0  0  0  0  0  0  0  0
   39.3860   30.6260   37.5370 H   0  0  0  0  0  0  0  0  0  0  0  0
   38.4940   32.7600   38.1180 H   0  0  0  0  0  0  0  0  0  0  0  0
   37.3050   31.7380   37.2750 H   0  0  0  0  0  0  0  0  0  0  0  0
   36.6760   33.0390   39.8520 H   0  0  0  0  0  0  0  0  0  0  0  0
   38.5500   28.4760   42.7570 C   0  0  0  0  0  0  0  0  0  0  0  0
   38.2380   27.0900   42.7800 C   0  0  0  0  0  0  0  0  0  0  0  0
   37.4580   26.5710   41.7180 C   0  0  0  0  0  0  0  0  0  0  0  0
   37.0540   27.4250   40.7420 N   0  0  0  0  0  0  0  0  0  0  0  0
   37.3670   28.7230   40.7540 C   0  0  0  0  0  0  0  0  0  0  0  0
   38.1210   29.2680   41.7620 N   0  0  0  0  0  0  0  0  0  0  0  0
   39.1450   28.8920   43.5570 H   0  0  0  0  0  0  0  0  0  0  0  0
   38.5720   26.4510   43.5630 H   0  0  0  0  0  0  0  0  0  0  0  0
   37.0980   25.1280   41.6870 C   0  0  0  0  0  0  0  0  0  0  0  0
   38.2650   24.4100   41.8390 F   0  0  0  0  0  0  0  0  0  0  0  0
   36.4250   24.7760   40.5340 F   0  0  0  0  0  0  0  0  0  0  0  0
   36.2830   24.8050   42.7770 F   0  0  0  0  0  0  0  0  0  0  0  0
   35.7210   31.0300   41.2970 N   0  0  0  0  0  0  0  0  0  0  0  0
   34.6930   30.8650   41.3310 H   0  0  0  0  0  0  0  0  0  0  0  0
   36.2880   31.3080   42.1430 H   0  0  0  0  0  0  0  0  0  0  0  0
  1  7  1  6  0  0  0
  1  6  1  0  0  0  0
  1 19  1  0  0  0  0
  2  8  1  0  0  0  0
  2  1  1  0  0  0  0
  3  2  1  0  0  0  0
  3 10  1  0  0  0  0
  4  3  1  0  0  0  0
  4  5  1  0  0  0  0
  5 14  1  0  0  0  0
  5  6  2  0  0  0  0
  6 27  1  0  0  0  0
  9  2  1  0  0  0  0
 11  3  1  0  0  0  0
 12  4  1  0  0  0  0
 13  4  1  0  0  0  0
 15 16  1  0  0  0  0
 15 21  1  0  0  0  0
 16 22  1  0  0  0  0
 17 16  2  0  0  0  0
 18 19  2  0  0  0  0
 18 17  1  0  0  0  0
 19 20  1  0  0  0  0
 20 15  2  0  0  0  0
 23 17  1  0  0  0  0
 23 24  1  0  0  0  0
 23 26  1  0  0  0  0
 25 23  1  0  0  0  0
 27 28  1  0  0  0  0
 27 29  1  0  0  0  0
M  END
>  <minimizedAffinity>
-5.31138277

$$$$

 OpenBabel03252505043D

 29 30  0  0  1  0  0  0  0  0999 V2000
   36.7380   30.2680   39.1610 C   0  0  2  0  0  0  0  0  0  0  0  0
   37.9240   30.4470   38.2720 C   0  0  0  0  0  0  0  0  0  0  0  0
   39.0450   31.2170   38.8470 C   0  0  0  0  0  0  0  0  0  0  0  0
   38.4540   32.5570   39.2590 C   0  0  0  0  0  0  0  0  0  0  0  0
   37.4870   32.4210   40.3430 C   0  0  0  0  0  0  0  0  0  0  0  0
   36.6020   31.2050   40.2660 C   0  0  0  0  0  0  0  0  0  0  0  0
   35.8090   30.3180   38.5350 H   0  0  0  0  0  0  0  0  0  0  0  0
   38.2810   29.4670   37.8650 H   0  0  0  0  0  0  0  0  0  0  0  0
   37.5890   31.0010   37.3640 H   0  0  0  0  0  0  0  0  0  0  0  0
   39.4620   30.6620   39.7030 H   0  0  0  0  0  0  0  0  0  0  0  0
   39.7950   31.4210   38.0860 H   0  0  0  0  0  0  0  0  0  0  0  0
   39.3070   33.1210   39.6870 H   0  0  0  0  0  0  0  0  0  0  0  0
   38.1180   33.0790   38.3620 H   0  0  0  0  0  0  0  0  0  0  0  0
   37.2830   33.0170   41.1950 H   0  0  0  0  0  0  0  0  0  0  0  0
   36.4290   26.5820   39.2550 C   0  0  0  0  0  0  0  0  0  0  0  0
   36.8850   26.2820   40.5660 C   0  0  0  0  0  0  0  0  0  0  0  0
   37.2870   27.3620   41.3900 C   0  0  0  0  0  0  0  0  0  0  0  0
   37.2140   28.6190   40.8800 N   0  0  0  0  0  0  0  0  0  0  0  0
   36.7800   28.8630   39.6410 C   0  0  0  0  0  0  0  0  0  0  0  0
   36.3800   27.8480   38.8100 N   0  0  0  0  0  0  0  0  0  0  0  0
   36.1170   25.7730   38.6100 H   0  0  0  0  0  0  0  0  0  0  0  0
   36.9290   25.2830   40.9320 H   0  0  0  0  0  0  0  0  0  0  0  0
   37.7750   27.1110   42.7720 C   0  0  0  0  0  0  0  0  0  0  0  0
   38.6080   28.1550   43.1100 F   0  0  0  0  0  0  0  0  0  0  0  0
   38.4060   25.8890   42.8970 F   0  0  0  0  0  0  0  0  0  0  0  0
   36.7090   27.1390   43.6780 F   0  0  0  0  0  0  0  0  0  0  0  0
   35.6220   30.9490   41.2640 N   0  0  0  0  0  0  0  0  0  0  0  0
   34.5990   31.1080   41.1490 H   0  0  0  0  0  0  0  0  0  0  0  0
   36.0500   30.5750   42.1540 H   0  0  0  0  0  0  0  0  0  0  0  0
  1  7  1  6  0  0  0
  1 19  1  0  0  0  0
  1  6  1  0  0  0  0
  2  3  1  0  0  0  0
  2  1  1  0  0  0  0
  3  4  1  0  0  0  0
  3 10  1  0  0  0  0
  4 12  1  0  0  0  0
  4  5  1  0  0  0  0
  5 14  1  0  0  0  0
  6  5  2  0  0  0  0
  6 27  1  0  0  0  0
  8  2  1  0  0  0  0
  9  2  1  0  0  0  0
 11  3  1  0  0  0  0
 13  4  1  0  0  0  0
 15 16  1  0  0  0  0
 16 22  1  0  0  0  0
 16 17  2  0  0  0  0
 17 23  1  0  0  0  0
 18 17  1  0  0  0  0
 19 18  2  0  0  0  0
 20 15  2  0  0  0  0
 20 19  1  0  0  0  0
 21 15  1  0  0  0  0
 23 25  1  0  0  0  0
 23 24  1  0  0  0  0
 23 26  1  0  0  0  0
 27 29  1  0  0  0  0
 28 27  1  0  0  0  0
M  END
>  <minimizedAffinity>
-5.2544632

$$$$

 OpenBabel03252505043D

 29 30  0  0  1  0  0  0  0  0999 V2000
   38.1770   28.3230   41.3300 C   0  0  2  0  0  0  0  0  0  0  0  0
   38.2790   27.0800   40.5100 C   0  0  0  0  0  0  0  0  0  0  0  0
   37.1960   26.0940   40.7040 C   0  0  0  0  0  0  0  0  0  0  0  0
   37.1910   25.7780   42.1920 C   0  0  0  0  0  0  0  0  0  0  0  0
   36.8080   26.9320   42.9980 C   0  0  0  0  0  0  0  0  0  0  0  0
   37.3370   28.2570   42.5160 C   0  0  0  0  0  0  0  0  0  0  0  0
   39.2080   28.6340   41.6410 H   0  0  0  0  0  0  0  0  0  0  0  0
   38.4120   27.3170   39.4230 H   0  0  0  0  0  0  0  0  0  0  0  0
   39.2300   26.5670   40.7840 H   0  0  0  0  0  0  0  0  0  0  0  0
   36.2440   26.5340   40.3660 H   0  0  0  0  0  0  0  0  0  0  0  0
   37.4290   25.1690   40.1830 H   0  0  0  0  0  0  0  0  0  0  0  0
   36.3750   25.0380   42.3190 H   0  0  0  0  0  0  0  0  0  0  0  0
   38.1330   25.2910   42.4470 H   0  0  0  0  0  0  0  0  0  0  0  0
   36.2120   27.0270   43.8700 H   0  0  0  0  0  0  0  0  0  0  0  0
   36.4770   30.0880   38.5570 C   0  0  0  0  0  0  0  0  0  0  0  0
   36.9280   31.4220   38.7390 C   0  0  0  0  0  0  0  0  0  0  0  0
   37.8110   31.6820   39.8140 C   0  0  0  0  0  0  0  0  0  0  0  0
   38.1760   30.6430   40.6090 N   0  0  0  0  0  0  0  0  0  0  0  0
   37.7320   29.4000   40.4090 C   0  0  0  0  0  0  0  0  0  0  0  0
   36.8760   29.1030   39.3790 N   0  0  0  0  0  0  0  0  0  0  0  0
   35.8030   29.8670   37.7430 H   0  0  0  0  0  0  0  0  0  0  0  0
   36.6180   32.2120   38.0940 H   0  0  0  0  0  0  0  0  0  0  0  0
   38.3160   33.0600   40.0550 C   0  0  0  0  0  0  0  0  0  0  0  0
   37.2640   33.9260   39.8440 F   0  0  0  0  0  0  0  0  0  0  0  0
   39.4030   33.3710   39.2620 F   0  0  0  0  0  0  0  0  0  0  0  0
   38.6990   33.2130   41.3910 F   0  0  0  0  0  0  0  0  0  0  0  0
   37.0310   29.4610   43.2080 N   0  0  0  0  0  0  0  0  0  0  0  0
   37.6870   29.9710   43.8360 H   0  0  0  0  0  0  0  0  0  0  0  0
   36.0470   29.7910   43.0130 H   0  0  0  0  0  0  0  0  0  0  0  0
  1  7  1  1  0  0  0
  1  6  1  0  0  0  0
  2  3  1  0  0  0  0
  2  9  1  0  0  0  0
  2  1  1  0  0  0  0
  3  4  1  0  0  0  0
  4 12  1  0  0  0  0
  4 13  1  0  0  0  0
  4  5  1  0  0  0  0
  5 14  1  0  0  0  0
  6  5  2  0  0  0  0
  6 27  1  0  0  0  0
  8  2  1  0  0  0  0
 10  3  1  0  0  0  0
 11  3  1  0  0  0  0
 15 16  2  0  0  0  0
 15 20  1  0  0  0  0
 16 17  1  0  0  0  0
 17 23  1  0  0  0  0
 17 18  2  0  0  0  0
 19 18  1  0  0  0  0
 19  1  1  0  0  0  0
 20 19  2  0  0  0  0
 21 15  1  0  0  0  0
 22 16  1  0  0  0  0
 23 26  1  0  0  0  0
 24 23  1  0  0  0  0
 25 23  1  0  0  0  0
 27 28  1  0  0  0  0
 29 27  1  0  0  0  0
M  END
>  <minimizedAffinity>
-5.15685129

$$$$

 OpenBabel03252505043D

 29 30  0  0  1  0  0  0  0  0999 V2000
   36.3590   29.8660   39.2320 C   0  0  2  0  0  0  0  0  0  0  0  0
   37.1950   29.9830   38.0000 C   0  0  0  0  0  0  0  0  0  0  0  0
   38.2650   31.0000   38.0450 C   0  0  0  0  0  0  0  0  0  0  0  0
   37.5680   32.3130   38.3700 C   0  0  0  0  0  0  0  0  0  0  0  0
   36.9850   32.3100   39.7080 C   0  0  0  0  0  0  0  0  0  0  0  0
   36.3620   31.0080   40.1340 C   0  0  0  0  0  0  0  0  0  0  0  0
   35.3010   29.6530   38.9290 H   0  0  0  0  0  0  0  0  0  0  0  0
   37.6040   28.9880   37.6880 H   0  0  0  0  0  0  0  0  0  0  0  0
   36.5210   30.2660   37.1570 H   0  0  0  0  0  0  0  0  0  0  0  0
   39.0000   30.7150   38.8140 H   0  0  0  0  0  0  0  0  0  0  0  0
   38.7200   31.1160   37.0640 H   0  0  0  0  0  0  0  0  0  0  0  0
   38.3840   33.0640   38.4000 H   0  0  0  0  0  0  0  0  0  0  0  0
   36.9040   32.5680   37.5440 H   0  0  0  0  0  0  0  0  0  0  0  0
   36.9180   33.0560   40.4580 H   0  0  0  0  0  0  0  0  0  0  0  0
   36.7300   26.2980   40.1370 C   0  0  0  0  0  0  0  0  0  0  0  0
   37.6460   26.3630   41.2200 C   0  0  0  0  0  0  0  0  0  0  0  0
   38.1140   27.6390   41.6150 C   0  0  0  0  0  0  0  0  0  0  0  0
   37.6610   28.7260   40.9370 N   0  0  0  0  0  0  0  0  0  0  0  0
   36.7990   28.6270   39.9230 C   0  0  0  0  0  0  0  0  0  0  0  0
   36.3200   27.4110   39.5070 N   0  0  0  0  0  0  0  0  0  0  0  0
   36.3610   25.3330   39.8190 H   0  0  0  0  0  0  0  0  0  0  0  0
   37.9800   25.4880   41.7280 H   0  0  0  0  0  0  0  0  0  0  0  0
   39.0740   27.7720   42.7430 C   0  0  0  0  0  0  0  0  0  0  0  0
   38.7940   28.9590   43.3840 F   0  0  0  0  0  0  0  0  0  0  0  0
   40.3890   27.7110   42.3270 F   0  0  0  0  0  0  0  0  0  0  0  0
   38.8710   26.7520   43.6790 F   0  0  0  0  0  0  0  0  0  0  0  0
   35.7650   30.8680   41.4170 N   0  0  0  0  0  0  0  0  0  0  0  0
   34.7400   30.8660   41.6010 H   0  0  0  0  0  0  0  0  0  0  0  0
   36.4870   30.7660   42.1810 H   0  0  0  0  0  0  0  0  0  0  0  0
  1  7  1  6  0  0  0
  1 19  1  0  0  0  0
  1  6  1  0  0  0  0
  2  3  1  0  0  0  0
  2  1  1  0  0  0  0
  3  4  1  0  0  0  0
  3 10  1  0  0  0  0
  4 12  1  0  0  0  0
  4  5  1  0  0  0  0
  5  6  2  0  0  0  0
  5 14  1  0  0  0  0
  6 27  1  0  0  0  0
  8  2  1  0  0  0  0
  9  2  1  0  0  0  0
 11  3  1  0  0  0  0
 13  4  1  0  0  0  0
 15 16  1  0  0  0  0
 16 17  2  0  0  0  0
 16 22  1  0  0  0  0
 17 23  1  0  0  0  0
 18 17  1  0  0  0  0
 19 18  2  0  0  0  0
 20 19  1  0  0  0  0
 20 15  2  0  0  0  0
 21 15  1  0  0  0  0
 23 24  1  0  0  0  0
 23 26  1  0  0  0  0
 25 23  1  0  0  0  0
 27 28  1  0  0  0  0
 27 29  1  0  0  0  0
M  END
>  <minimizedAffinity>
-5.14711142

$$$$

 OpenBabel03252505043D

 29 30  0  0  1  0  0  0  0  0999 V2000
   36.0630   29.7950   40.2850 C   0  0  2  0  0  0  0  0  0  0  0  0
   34.8140   29.0800   39.8850 C   0  0  0  0  0  0  0  0  0  0  0  0
   34.8590   28.3970   38.5770 C   0  0  0  0  0  0  0  0  0  0  0  0
   35.2330   29.4690   37.5650 C   0  0  0  0  0  0  0  0  0  0  0  0
   36.5840   29.9780   37.7780 C   0  0  0  0  0  0  0  0  0  0  0  0
   36.9930   30.1330   39.2180 C   0  0  0  0  0  0  0  0  0  0  0  0
   35.7810   30.7360   40.8250 H   0  0  0  0  0  0  0  0  0  0  0  0
   34.4680   28.3820   40.6880 H   0  0  0  0  0  0  0  0  0  0  0  0
   33.9950   29.8350   39.8220 H   0  0  0  0  0  0  0  0  0  0  0  0
   35.6020   27.5840   38.6200 H   0  0  0  0  0  0  0  0  0  0  0  0
   33.8700   28.0340   38.3050 H   0  0  0  0  0  0  0  0  0  0  0  0
   35.2610   28.9400   36.5910 H   0  0  0  0  0  0  0  0  0  0  0  0
   34.4300   30.2060   37.5260 H   0  0  0  0  0  0  0  0  0  0  0  0
   37.3540   30.2600   37.1060 H   0  0  0  0  0  0  0  0  0  0  0  0
   37.8550   28.7830   43.3600 C   0  0  0  0  0  0  0  0  0  0  0  0
   37.8900   27.3690   43.2280 C   0  0  0  0  0  0  0  0  0  0  0  0
   37.2950   26.7970   42.0780 C   0  0  0  0  0  0  0  0  0  0  0  0
   36.7270   27.6310   41.1690 N   0  0  0  0  0  0  0  0  0  0  0  0
   36.7120   28.9560   41.3260 C   0  0  0  0  0  0  0  0  0  0  0  0
   37.2770   29.5530   42.4240 N   0  0  0  0  0  0  0  0  0  0  0  0
   38.3030   29.2400   44.2300 H   0  0  0  0  0  0  0  0  0  0  0  0
   38.3450   26.7470   43.9640 H   0  0  0  0  0  0  0  0  0  0  0  0
   37.3000   25.3230   41.8840 C   0  0  0  0  0  0  0  0  0  0  0  0
   38.5300   24.8580   42.3000 F   0  0  0  0  0  0  0  0  0  0  0  0
   37.0290   24.9600   40.5810 F   0  0  0  0  0  0  0  0  0  0  0  0
   36.3440   24.7200   42.7080 F   0  0  0  0  0  0  0  0  0  0  0  0
   38.2860   30.6130   39.5640 N   0  0  0  0  0  0  0  0  0  0  0  0
   38.4950   31.5760   39.9010 H   0  0  0  0  0  0  0  0  0  0  0  0
   39.0300   29.8730   39.4380 H   0  0  0  0  0  0  0  0  0  0  0  0
  1  7  1  1  0  0  0
  1 19  1  0  0  0  0
  2  1  1  0  0  0  0
  2  8  1  0  0  0  0
  3 10  1  0  0  0  0
  3  2  1  0  0  0  0
  4  5  1  0  0  0  0
  4  3  1  0  0  0  0
  5  6  2  0  0  0  0
  6 27  1  0  0  0  0
  6  1  1  0  0  0  0
  9  2  1  0  0  0  0
 11  3  1  0  0  0  0
 12  4  1  0  0  0  0
 13  4  1  0  0  0  0
 14  5  1  0  0  0  0
 15 21  1  0  0  0  0
 16 15  1  0  0  0  0
 16 22  1  0  0  0  0
 17 16  2  0  0  0  0
 18 19  2  0  0  0  0
 18 17  1  0  0  0  0
 19 20  1  0  0  0  0
 20 15  2  0  0  0  0
 23 17  1  0  0  0  0
 23 24  1  0  0  0  0
 23 26  1  0  0  0  0
 25 23  1  0  0  0  0
 27 28  1  0  0  0  0
 29 27  1  0  0  0  0
M  END
>  <minimizedAffinity>
-5.13094044

$$$$

 OpenBabel03252505043D

 29 30  0  0  1  0  0  0  0  0999 V2000
   39.1230   31.5640   39.8610 C   0  0  2  0  0  0  0  0  0  0  0  0
   40.5910   31.7870   39.7140 C   0  0  0  0  0  0  0  0  0  0  0  0
   41.1170   33.0220   40.3300 C   0  0  0  0  0  0  0  0  0  0  0  0
   40.3170   34.1610   39.7140 C   0  0  0  0  0  0  0  0  0  0  0  0
   38.9090   34.1120   40.0920 C   0  0  0  0  0  0  0  0  0  0  0  0
   38.3110   32.7320   40.1660 C   0  0  0  0  0  0  0  0  0  0  0  0
   38.7340   31.0960   38.9190 H   0  0  0  0  0  0  0  0  0  0  0  0
   41.1760   30.8940   40.0510 H   0  0  0  0  0  0  0  0  0  0  0  0
   40.8190   31.8530   38.6240 H   0  0  0  0  0  0  0  0  0  0  0  0
   40.9860   32.9630   41.4230 H   0  0  0  0  0  0  0  0  0  0  0  0
   42.1560   33.1740   40.0490 H   0  0  0  0  0  0  0  0  0  0  0  0
   40.7240   35.0780   40.1860 H   0  0  0  0  0  0  0  0  0  0  0  0
   40.5400   34.2030   38.6470 H   0  0  0  0  0  0  0  0  0  0  0  0
   38.2100   34.8700   40.3370 H   0  0  0  0  0  0  0  0  0  0  0  0
   39.7810   29.3480   42.7500 C   0  0  0  0  0  0  0  0  0  0  0  0
   38.6100   28.5460   42.7790 C   0  0  0  0  0  0  0  0  0  0  0  0
   37.6190   28.7880   41.7970 C   0  0  0  0  0  0  0  0  0  0  0  0
   37.8450   29.7700   40.8860 N   0  0  0  0  0  0  0  0  0  0  0  0
   38.9590   30.5050   40.8900 C   0  0  0  0  0  0  0  0  0  0  0  0
   39.9450   30.3050   41.8220 N   0  0  0  0  0  0  0  0  0  0  0  0
   40.5500   29.1810   43.4900 H   0  0  0  0  0  0  0  0  0  0  0  0
   38.4680   27.7850   43.5100 H   0  0  0  0  0  0  0  0  0  0  0  0
   36.3700   27.9810   41.7760 C   0  0  0  0  0  0  0  0  0  0  0  0
   36.6290   26.8430   41.0420 F   0  0  0  0  0  0  0  0  0  0  0  0
   35.2940   28.6830   41.2710 F   0  0  0  0  0  0  0  0  0  0  0  0
   36.0410   27.5580   43.0680 F   0  0  0  0  0  0  0  0  0  0  0  0
   36.9490   32.5450   40.5300 N   0  0  0  0  0  0  0  0  0  0  0  0
   36.1790   32.3210   39.8650 H   0  0  0  0  0  0  0  0  0  0  0  0
   36.7970   32.6600   41.5690 H   0  0  0  0  0  0  0  0  0  0  0  0
  1  7  1  6  0  0  0
  1  6  1  0  0  0  0
  1 19  1  0  0  0  0
  2  1  1  0  0  0  0
  2  8  1  0  0  0  0
  2  3  1  0  0  0  0
  3 10  1  0  0  0  0
  4  5  1  0  0  0  0
  4 12  1  0  0  0  0
  4  3  1  0  0  0  0
  5  6  2  0  0  0  0
  5 14  1  0  0  0  0
  6 27  1  0  0  0  0
  9  2  1  0  0  0  0
 11  3  1  0  0  0  0
 13  4  1  0  0  0  0
 15 16  1  0  0  0  0
 15 21  1  0  0  0  0
 16 22  1  0  0  0  0
 17 16  2  0  0  0  0
 18 19  2  0  0  0  0
 18 17  1  0  0  0  0
 19 20  1  0  0  0  0
 20 15  2  0  0  0  0
 23 17  1  0  0  0  0
 23 26  1  0  0  0  0
 24 23  1  0  0  0  0
 25 23  1  0  0  0  0
 27 29  1  0  0  0  0
 28 27  1  0  0  0  0
M  END
>  <minimizedAffinity>
-5.06773424

$$$$

 OpenBabel03252505043D

 29 30  0  0  1  0  0  0  0  0999 V2000
   37.8600   31.4360   38.7890 C   0  0  2  0  0  0  0  0  0  0  0  0
   39.0250   30.7250   38.1860 C   0  0  0  0  0  0  0  0  0  0  0  0
   40.3430   31.0420   38.7720 C   0  0  0  0  0  0  0  0  0  0  0  0
   40.4920   32.5520   38.6540 C   0  0  0  0  0  0  0  0  0  0  0  0
   39.5230   33.2660   39.4780 C   0  0  0  0  0  0  0  0  0  0  0  0
   38.1500   32.6530   39.5330 C   0  0  0  0  0  0  0  0  0  0  0  0
   37.1290   31.6820   37.9750 H   0  0  0  0  0  0  0  0  0  0  0  0
   38.8580   29.6180   38.1570 H   0  0  0  0  0  0  0  0  0  0  0  0
   39.0790   31.0100   37.1090 H   0  0  0  0  0  0  0  0  0  0  0  0
   40.3630   30.7010   39.8200 H   0  0  0  0  0  0  0  0  0  0  0  0
   41.1390   30.5970   38.1800 H   0  0  0  0  0  0  0  0  0  0  0  0
   41.4840   32.7720   39.0970 H   0  0  0  0  0  0  0  0  0  0  0  0
   40.5280   32.8150   37.5960 H   0  0  0  0  0  0  0  0  0  0  0  0
   39.5970   34.1470   40.0630 H   0  0  0  0  0  0  0  0  0  0  0  0
   35.3120   29.0350   39.9850 C   0  0  0  0  0  0  0  0  0  0  0  0
   35.8760   28.5950   41.2130 C   0  0  0  0  0  0  0  0  0  0  0  0
   37.1230   29.1410   41.6000 C   0  0  0  0  0  0  0  0  0  0  0  0
   37.7080   30.0510   40.7790 N   0  0  0  0  0  0  0  0  0  0  0  0
   37.1490   30.4410   39.6310 C   0  0  0  0  0  0  0  0  0  0  0  0
   35.9410   29.9390   39.2170 N   0  0  0  0  0  0  0  0  0  0  0  0
   34.3610   28.6310   39.6700 H   0  0  0  0  0  0  0  0  0  0  0  0
   35.3870   27.8790   41.8310 H   0  0  0  0  0  0  0  0  0  0  0  0
   37.7640   28.7200   42.8750 C   0  0  0  0  0  0  0  0  0  0  0  0
   36.7730   28.1980   43.6790 F   0  0  0  0  0  0  0  0  0  0  0  0
   38.4370   29.7520   43.4950 F   0  0  0  0  0  0  0  0  0  0  0  0
   38.6780   27.6860   42.6430 F   0  0  0  0  0  0  0  0  0  0  0  0
   37.1150   33.2460   40.3070 N   0  0  0  0  0  0  0  0  0  0  0  0
   36.3250   33.8040   39.9190 H   0  0  0  0  0  0  0  0  0  0  0  0
   37.2340   33.0580   41.3390 H   0  0  0  0  0  0  0  0  0  0  0  0
  1  7  1  6  0  0  0
  1  6  1  0  0  0  0
  1 19  1  0  0  0  0
  2  3  1  0  0  0  0
  2  1  1  0  0  0  0
  3 10  1  0  0  0  0
  4  3  1  0  0  0  0
  4 12  1  0  0  0  0
  4  5  1  0  0  0  0
  5  6  2  0  0  0  0
  5 14  1  0  0  0  0
  6 27  1  0  0  0  0
  8  2  1  0  0  0  0
  9  2  1  0  0  0  0
 11  3  1  0  0  0  0
 13  4  1  0  0  0  0
 15 16  1  0  0  0  0
 16 17  2  0  0  0  0
 16 22  1  0  0  0  0
 17 23  1  0  0  0  0
 18 17  1  0  0  0  0
 19 18  2  0  0  0  0
 20 19  1  0  0  0  0
 20 15  2  0  0  0  0
 21 15  1  0  0  0  0
 23 25  1  0  0  0  0
 23 24  1  0  0  0  0
 26 23  1  0  0  0  0
 27 29  1  0  0  0  0
 28 27  1  0  0  0  0
M  END
>  <minimizedAffinity>
-4.94150639

$$$$

 OpenBabel03252505043D

 29 30  0  0  1  0  0  0  0  0999 V2000
   37.2470   29.7860   39.9460 C   0  0  2  0  0  0  0  0  0  0  0  0
   38.4540   29.8870   39.0720 C   0  0  0  0  0  0  0  0  0  0  0  0
   39.1980   31.1600   39.1530 C   0  0  0  0  0  0  0  0  0  0  0  0
   38.1860   32.2490   38.8310 C   0  0  0  0  0  0  0  0  0  0  0  0
   37.1430   32.3490   39.8460 C   0  0  0  0  0  0  0  0  0  0  0  0
   36.6740   31.0370   40.4180 C   0  0  0  0  0  0  0  0  0  0  0  0
   36.4540   29.2150   39.3980 H   0  0  0  0  0  0  0  0  0  0  0  0
   39.1390   29.0140   39.2190 H   0  0  0  0  0  0  0  0  0  0  0  0
   38.1180   29.7810   38.0130 H   0  0  0  0  0  0  0  0  0  0  0  0
   39.6200   31.2670   40.1660 H   0  0  0  0  0  0  0  0  0  0  0  0
   39.9650   31.2010   38.3830 H   0  0  0  0  0  0  0  0  0  0  0  0
   38.7610   33.1950   38.8950 H   0  0  0  0  0  0  0  0  0  0  0  0
   37.8570   32.1230   37.7980 H   0  0  0  0  0  0  0  0  0  0  0  0
   36.6440   33.1790   40.2770 H   0  0  0  0  0  0  0  0  0  0  0  0
   36.9910   27.4750   42.8240 C   0  0  0  0  0  0  0  0  0  0  0  0
   38.3570   27.2600   43.1510 C   0  0  0  0  0  0  0  0  0  0  0  0
   39.3350   27.9210   42.3710 C   0  0  0  0  0  0  0  0  0  0  0  0
   38.9140   28.7200   41.3560 N   0  0  0  0  0  0  0  0  0  0  0  0
   37.6210   28.8990   41.0770 C   0  0  0  0  0  0  0  0  0  0  0  0
   36.6390   28.2790   41.8080 N   0  0  0  0  0  0  0  0  0  0  0  0
   36.2280   26.9810   43.4070 H   0  0  0  0  0  0  0  0  0  0  0  0
   38.6490   26.6250   43.9550 H   0  0  0  0  0  0  0  0  0  0  0  0
   40.7820   27.7350   42.6650 C   0  0  0  0  0  0  0  0  0  0  0  0
   41.2230   28.8790   43.2960 F   0  0  0  0  0  0  0  0  0  0  0  0
   41.5200   27.4570   41.5320 F   0  0  0  0  0  0  0  0  0  0  0  0
   40.9640   26.6830   43.5680 F   0  0  0  0  0  0  0  0  0  0  0  0
   35.6680   30.9950   41.4210 N   0  0  0  0  0  0  0  0  0  0  0  0
   34.6740   30.7300   41.2570 H   0  0  0  0  0  0  0  0  0  0  0  0
   36.0420   31.2670   42.3700 H   0  0  0  0  0  0  0  0  0  0  0  0
  1  7  1  6  0  0  0
  1  6  1  0  0  0  0
  1 19  1  0  0  0  0
  2  3  1  0  0  0  0
  2  8  1  0  0  0  0
  2  1  1  0  0  0  0
  3 10  1  0  0  0  0
  4 12  1  0  0  0  0
  4  3  1  0  0  0  0
  4  5  1  0  0  0  0
  5 14  1  0  0  0  0
  5  6  2  0  0  0  0
  6 27  1  0  0  0  0
  9  2  1  0  0  0  0
 11  3  1  0  0  0  0
 13  4  1  0  0  0  0
 15 16  1  0  0  0  0
 15 21  1  0  0  0  0
 16 22  1  0  0  0  0
 17 23  1  0  0  0  0
 17 16  2  0  0  0  0
 18 17  1  0  0  0  0
 19 18  2  0  0  0  0
 19 20  1  0  0  0  0
 20 15  2  0  0  0  0
 23 24  1  0  0  0  0
 23 26  1  0  0  0  0
 25 23  1  0  0  0  0
 27 29  1  0  0  0  0
 28 27  1  0  0  0  0
M  END
>  <minimizedAffinity>
-4.89148664

$$$$
