
 OpenBabel03252506413D

 35 37  0  0  1  0  0  0  0  0999 V2000
   49.4410   33.3370   41.5010 N   0  0  1  0  0  0  0  0  0  0  0  0
   50.6720   33.1060   42.2150 C   0  0  0  0  0  0  0  0  0  0  0  0
   51.3090   31.7870   42.0210 C   0  0  0  0  0  0  0  0  0  0  0  0
   50.3930   30.6740   42.4420 C   0  0  0  0  0  0  0  0  0  0  0  0
   48.9600   31.0420   42.3200 C   0  0  0  0  0  0  0  0  0  0  0  0
   48.7930   32.0760   41.2500 C   0  0  2  0  0  0  0  0  0  0  0  0
   50.5220   33.2540   43.3110 H   0  0  0  0  0  0  0  0  0  0  0  0
   51.3790   33.9130   41.8640 H   0  0  0  0  0  0  0  0  0  0  0  0
   52.1340   31.7580   42.8160 H   0  0  0  0  0  0  0  0  0  0  0  0
   51.8730   31.6250   41.0990 H   0  0  0  0  0  0  0  0  0  0  0  0
   50.5670   30.2820   43.4510 H   0  0  0  0  0  0  0  0  0  0  0  0
   50.6400   29.8130   41.7540 H   0  0  0  0  0  0  0  0  0  0  0  0
   48.5700   31.4800   43.2760 H   0  0  0  0  0  0  0  0  0  0  0  0
   48.3200   30.1910   42.0450 H   0  0  0  0  0  0  0  0  0  0  0  0
   47.6830   32.3720   41.4040 H   0  0  0  0  0  0  0  0  0  0  0  0
   47.2370   34.5740   41.9990 C   0  0  1  0  0  0  0  0  0  0  0  0
   48.3140   35.5370   41.7090 C   0  0  0  0  0  0  0  0  0  0  0  0
   48.6590   34.2240   42.3070 C   0  0  2  0  0  0  0  0  0  0  0  0
   46.7750   34.1210   41.1110 H   0  0  0  0  0  0  0  0  0  0  0  0
   48.3980   36.4020   42.3750 H   0  0  0  0  0  0  0  0  0  0  0  0
   48.6190   35.7510   40.6600 H   0  0  0  0  0  0  0  0  0  0  0  0
   48.8820   34.1320   43.3930 H   0  0  0  0  0  0  0  0  0  0  0  0
   45.5240   36.0260   43.1610 C   0  0  0  0  0  0  0  0  0  0  0  0
   46.3140   34.8510   43.1370 C   0  0  0  0  0  0  0  0  0  0  0  0
   46.1940   33.9600   44.2150 C   0  0  0  0  0  0  0  0  0  0  0  0
   45.3310   34.2740   45.2130 N   0  0  0  0  0  0  0  0  0  0  0  0
   44.5890   35.4100   45.2020 C   0  0  0  0  0  0  0  0  0  0  0  0
   44.6810   36.2980   44.1710 N   0  0  0  0  0  0  0  0  0  0  0  0
   45.5940   36.7300   42.3440 H   0  0  0  0  0  0  0  0  0  0  0  0
   46.7880   33.0670   44.2080 H   0  0  0  0  0  0  0  0  0  0  0  0
   43.9360   35.5430   46.0640 H   0  0  0  0  0  0  0  0  0  0  0  0
   48.8030   31.5870   39.8460 C   0  0  0  0  0  0  0  0  0  0  0  0
   47.6980   32.0620   39.1200 F   0  0  0  0  0  0  0  0  0  0  0  0
   49.8830   32.1390   39.1220 F   0  0  0  0  0  0  0  0  0  0  0  0
   48.9700   30.2330   39.6870 F   0  0  0  0  0  0  0  0  0  0  0  0
  1  2  1  1  0  0  0
  1 18  1  0  0  0  0
  2  7  1  0  0  0  0
  3  2  1  0  0  0  0
  3  4  1  0  0  0  0
  3  9  1  0  0  0  0
  4 11  1  0  0  0  0
  5  4  1  0  0  0  0
  5 13  1  0  0  0  0
  6 15  1  1  0  0  0
  6  1  1  0  0  0  0
  6  5  1  0  0  0  0
  8  2  1  0  0  0  0
 10  3  1  0  0  0  0
 12  4  1  0  0  0  0
 14  5  1  0  0  0  0
 16 19  1  6  0  0  0
 16 18  1  0  0  0  0
 16 24  1  0  0  0  0
 17 16  1  0  0  0  0
 17 18  1  0  0  0  0
 17 20  1  0  0  0  0
 18 22  1  1  0  0  0
 21 17  1  0  0  0  0
 23 28  1  0  0  0  0
 24 23  2  0  0  0  0
 24 25  1  0  0  0  0
 25 26  2  0  0  0  0
 27 26  1  0  0  0  0
 27 31  1  0  0  0  0
 28 27  2  0  0  0  0
 29 23  1  0  0  0  0
 30 25  1  0  0  0  0
 32  6  1  0  0  0  0
 33 32  1  0  0  0  0
 34 32  1  0  0  0  0
 35 32  1  0  0  0  0
M  END
>  <minimizedAffinity>
-4.68137455

>  <minimizedRMSD>
0.292237818

$$$$
