
 OpenBabel03252509183D

 36 38  0  0  1  0  0  0  0  0999 V2000
   47.9000   29.3250   46.2890 C   0  0  1  0  0  0  0  0  0  0  0  0
   49.1660   28.9600   45.5910 C   0  0  0  0  0  0  0  0  0  0  0  0
   50.4150   29.2110   46.3770 C   0  0  0  0  0  0  0  0  0  0  0  0
   50.2910   28.7880   47.8220 C   0  0  0  0  0  0  0  0  0  0  0  0
   48.9970   29.2310   48.4490 C   0  0  0  0  0  0  0  0  0  0  0  0
   48.2650   30.1990   47.5070 C   0  0  2  0  0  0  0  0  0  0  0  0
   47.4680   28.4120   46.7420 H   0  0  0  0  0  0  0  0  0  0  0  0
   49.2260   29.6090   44.6690 H   0  0  0  0  0  0  0  0  0  0  0  0
   49.1260   27.9200   45.1800 H   0  0  0  0  0  0  0  0  0  0  0  0
   50.7500   30.2640   46.3060 H   0  0  0  0  0  0  0  0  0  0  0  0
   51.2260   28.5770   45.9410 H   0  0  0  0  0  0  0  0  0  0  0  0
   50.3500   27.6710   47.9010 H   0  0  0  0  0  0  0  0  0  0  0  0
   51.1810   29.1750   48.3540 H   0  0  0  0  0  0  0  0  0  0  0  0
   49.2230   29.7600   49.4010 H   0  0  0  0  0  0  0  0  0  0  0  0
   48.3230   28.3970   48.6560 H   0  0  0  0  0  0  0  0  0  0  0  0
   48.8850   31.0540   47.2380 H   0  0  0  0  0  0  0  0  0  0  0  0
   45.6900   31.5990   43.7000 C   0  0  0  0  0  0  0  0  0  0  0  0
   44.9960   30.4550   44.1260 C   0  0  0  0  0  0  0  0  0  0  0  0
   45.6220   29.6270   44.9920 C   0  0  0  0  0  0  0  0  0  0  0  0
   46.9260   29.9220   45.4350 C   0  0  0  0  0  0  0  0  0  0  0  0
   47.2900   31.4810   44.5680 S   0  0  0  0  0  0  0  0  0  0  0  0
   43.9970   30.2220   43.7900 H   0  0  0  0  0  0  0  0  0  0  0  0
   45.2620   28.7100   45.4320 H   0  0  0  0  0  0  0  0  0  0  0  0
   43.5310   33.6540   41.4710 C   0  0  0  0  0  0  0  0  0  0  0  0
   44.4870   34.5950   41.0140 C   0  0  0  0  0  0  0  0  0  0  0  0
   45.8210   34.4860   41.4860 C   0  0  0  0  0  0  0  0  0  0  0  0
   46.0820   33.4670   42.3550 N   0  0  0  0  0  0  0  0  0  0  0  0
   45.1450   32.5920   42.7670 C   0  0  0  0  0  0  0  0  0  0  0  0
   43.8810   32.6960   42.3190 N   0  0  0  0  0  0  0  0  0  0  0  0
   42.5040   33.7110   41.1290 H   0  0  0  0  0  0  0  0  0  0  0  0
   44.2190   35.3740   40.3300 H   0  0  0  0  0  0  0  0  0  0  0  0
   46.5890   35.1790   41.1680 H   0  0  0  0  0  0  0  0  0  0  0  0
   46.9970   30.6080   48.2400 C   0  0  0  0  0  0  0  0  0  0  0  0
   47.2550   30.8770   49.5710 F   0  0  0  0  0  0  0  0  0  0  0  0
   46.4310   31.6900   47.6070 F   0  0  0  0  0  0  0  0  0  0  0  0
   46.1260   29.5540   48.1690 F   0  0  0  0  0  0  0  0  0  0  0  0
  1  7  1  1  0  0  0
  1  6  1  0  0  0  0
  2  1  1  0  0  0  0
  2  3  1  0  0  0  0
  3  4  1  0  0  0  0
  4 12  1  0  0  0  0
  4 13  1  0  0  0  0
  4  5  1  0  0  0  0
  5 15  1  0  0  0  0
  5 14  1  0  0  0  0
  6 16  1  6  0  0  0
  6 33  1  0  0  0  0
  6  5  1  0  0  0  0
  8  2  1  0  0  0  0
  9  2  1  0  0  0  0
 10  3  1  0  0  0  0
 11  3  1  0  0  0  0
 17 18  2  0  0  0  0
 17 21  1  0  0  0  0
 18 19  1  0  0  0  0
 19 23  1  0  0  0  0
 19 20  2  0  0  0  0
 20  1  1  0  0  0  0
 21 20  1  0  0  0  0
 22 18  1  0  0  0  0
 24 29  1  0  0  0  0
 25 24  2  0  0  0  0
 25 26  1  0  0  0  0
 26 27  2  0  0  0  0
 27 28  1  0  0  0  0
 28 17  1  0  0  0  0
 29 28  2  0  0  0  0
 30 24  1  0  0  0  0
 31 25  1  0  0  0  0
 32 26  1  0  0  0  0
 33 34  1  0  0  0  0
 35 33  1  0  0  0  0
 36 33  1  0  0  0  0
M  END
>  <minimizedAffinity>
-3.65674233

>  <minimizedRMSD>
3.06238437

$$$$
