
 OpenBabel03252500353D

 41 43  0  0  1  0  0  0  0  0999 V2000
   46.5350   33.0850   44.5060 C   0  0  0  0  0  0  0  0  0  0  0  0
   46.2470   32.7090   43.5000 H   0  0  0  0  0  0  0  0  0  0  0  0
   47.6380   33.1840   44.5510 H   0  0  0  0  0  0  0  0  0  0  0  0
   46.0360   32.2250   45.5170 N   0  0  0  0  0  0  0  0  0  0  0  0
   45.9640   32.7150   46.8260 C   0  0  0  0  0  0  0  0  0  0  0  0
   47.2560   32.4270   47.6130 C   0  0  0  0  0  0  0  0  0  0  0  0
   47.2970   30.9240   47.8000 C   0  0  0  0  0  0  0  0  0  0  0  0
   47.3710   30.3360   46.4130 C   0  0  0  0  0  0  0  0  0  0  0  0
   46.3330   30.8560   45.4600 C   0  0  2  0  0  0  0  0  0  0  0  0
   45.2060   32.0570   47.3530 H   0  0  0  0  0  0  0  0  0  0  0  0
   45.5690   33.7170   47.0020 H   0  0  0  0  0  0  0  0  0  0  0  0
   48.1030   32.6510   46.9030 H   0  0  0  0  0  0  0  0  0  0  0  0
   47.3090   32.9880   48.5470 H   0  0  0  0  0  0  0  0  0  0  0  0
   46.3270   30.5830   48.2590 H   0  0  0  0  0  0  0  0  0  0  0  0
   48.1620   30.5580   48.3570 H   0  0  0  0  0  0  0  0  0  0  0  0
   47.2930   29.2260   46.4030 H   0  0  0  0  0  0  0  0  0  0  0  0
   48.3680   30.6170   46.0130 H   0  0  0  0  0  0  0  0  0  0  0  0
   45.3910   30.2790   45.6620 H   0  0  0  0  0  0  0  0  0  0  0  0
   46.7660   30.4230   44.0670 C   0  0  0  0  0  0  0  0  0  0  0  0
   47.7490   30.8760   43.8660 H   0  0  0  0  0  0  0  0  0  0  0  0
   46.0090   30.7930   43.3350 H   0  0  0  0  0  0  0  0  0  0  0  0
   46.8170   29.3290   44.0540 H   0  0  0  0  0  0  0  0  0  0  0  0
   45.7480   35.3820   43.5150 C   0  0  1  0  0  0  0  0  0  0  0  0
   44.6430   34.7690   44.1090 C   0  0  0  0  0  0  0  0  0  0  0  0
   45.9350   34.4230   44.7270 C   0  0  1  0  0  0  0  0  0  0  0  0
   45.9880   36.4610   43.7300 H   0  0  0  0  0  0  0  0  0  0  0  0
   44.1270   33.9120   43.5870 H   0  0  0  0  0  0  0  0  0  0  0  0
   43.8970   35.3650   44.6820 H   0  0  0  0  0  0  0  0  0  0  0  0
   46.3710   34.9690   45.5740 H   0  0  0  0  0  0  0  0  0  0  0  0
   45.6330   34.2760   41.2800 C   0  0  0  0  0  0  0  0  0  0  0  0
   46.4250   34.9800   42.2450 C   0  0  0  0  0  0  0  0  0  0  0  0
   47.7300   35.2490   41.9850 C   0  0  0  0  0  0  0  0  0  0  0  0
   48.2300   34.8200   40.7800 N   0  0  0  0  0  0  0  0  0  0  0  0
   47.4670   34.1530   39.8720 C   0  0  0  0  0  0  0  0  0  0  0  0
   46.1410   33.8610   40.0980 N   0  0  0  0  0  0  0  0  0  0  0  0
   44.5960   34.0800   41.5240 H   0  0  0  0  0  0  0  0  0  0  0  0
   48.3280   35.7730   42.6980 H   0  0  0  0  0  0  0  0  0  0  0  0
   48.1560   33.7520   38.6060 C   0  0  0  0  0  0  0  0  0  0  0  0
   49.2110   32.8920   38.9120 F   0  0  0  0  0  0  0  0  0  0  0  0
   47.2620   33.0930   37.7890 F   0  0  0  0  0  0  0  0  0  0  0  0
   48.6900   34.8410   37.9540 F   0  0  0  0  0  0  0  0  0  0  0  0
  1  3  1  0  0  0  0
  1 25  1  0  0  0  0
  1  4  1  0  0  0  0
  2  1  1  0  0  0  0
  4  5  1  0  0  0  0
  5 11  1  0  0  0  0
  5 10  1  0  0  0  0
  5  6  1  0  0  0  0
  6  7  1  0  0  0  0
  6 13  1  0  0  0  0
  7 14  1  0  0  0  0
  7 15  1  0  0  0  0
  8  7  1  0  0  0  0
  9  4  1  0  0  0  0
  9 18  1  1  0  0  0
  9  8  1  0  0  0  0
 12  6  1  0  0  0  0
 16  8  1  0  0  0  0
 17  8  1  0  0  0  0
 19  9  1  0  0  0  0
 20 19  1  0  0  0  0
 21 19  1  0  0  0  0
 22 19  1  0  0  0  0
 23 26  1  1  0  0  0
 23 24  1  0  0  0  0
 23 25  1  0  0  0  0
 24 28  1  0  0  0  0
 24 25  1  0  0  0  0
 25 29  1  1  0  0  0
 27 24  1  0  0  0  0
 30 36  1  0  0  0  0
 30 31  1  0  0  0  0
 31 23  1  0  0  0  0
 32 31  2  0  0  0  0
 32 37  1  0  0  0  0
 33 32  1  0  0  0  0
 34 35  1  0  0  0  0
 34 33  2  0  0  0  0
 35 30  2  0  0  0  0
 38 39  1  0  0  0  0
 38 34  1  0  0  0  0
 40 38  1  0  0  0  0
 41 38  1  0  0  0  0
M  END
>  <minimizedAffinity>
-4.80000877

>  <minimizedRMSD>
2.55251646

$$$$
