
 OpenBabel03252500003D

 16 16  0  0  0  0  0  0  0  0999 V2000
   36.9390   30.7310   41.0950 C   0  0  0  0  0  0  0  0  0  0  0  0
   36.1680   30.4400   39.9560 C   0  0  0  0  0  0  0  0  0  0  0  0
   35.6830   29.1460   39.8240 C   0  0  0  0  0  0  0  0  0  0  0  0
   35.9660   28.2240   40.7810 N   0  0  0  0  0  0  0  0  0  0  0  0
   36.7080   28.5400   41.8610 C   0  0  0  0  0  0  0  0  0  0  0  0
   37.1950   29.8000   42.0150 N   0  0  0  0  0  0  0  0  0  0  0  0
   37.3160   31.7400   41.1980 H   0  0  0  0  0  0  0  0  0  0  0  0
   35.9450   31.1880   39.1890 H   0  0  0  0  0  0  0  0  0  0  0  0
   36.9120   27.4070   42.7980 C   0  0  0  0  0  0  0  0  0  0  0  0
   38.0780   27.5330   43.5160 F   0  0  0  0  0  0  0  0  0  0  0  0
   36.9060   26.2040   42.1090 F   0  0  0  0  0  0  0  0  0  0  0  0
   35.8240   27.3320   43.6640 F   0  0  0  0  0  0  0  0  0  0  0  0
   34.8520   28.7680   38.6290 C   0  0  0  0  0  0  0  0  0  0  0  0
   35.2380   29.6340   37.6170 F   0  0  0  0  0  0  0  0  0  0  0  0
   35.1940   27.4870   38.2590 F   0  0  0  0  0  0  0  0  0  0  0  0
   33.5390   28.9550   38.9190 F   0  0  0  0  0  0  0  0  0  0  0  0
  1  7  1  0  0  0  0
  1  6  1  0  0  0  0
  2  1  2  0  0  0  0
  3  2  1  0  0  0  0
  3  4  2  0  0  0  0
  4  5  1  0  0  0  0
  5  6  2  0  0  0  0
  5  9  1  0  0  0  0
  8  2  1  0  0  0  0
  9 10  1  0  0  0  0
  9 12  1  0  0  0  0
 11  9  1  0  0  0  0
 13 16  1  0  0  0  0
 13  3  1  0  0  0  0
 14 13  1  0  0  0  0
 15 13  1  0  0  0  0
M  END
>  <minimizedAffinity>
-4.44488192

$$$$

 OpenBabel03252500003D

 16 16  0  0  0  0  0  0  0  0999 V2000
   38.2460   28.6500   43.3040 C   0  0  0  0  0  0  0  0  0  0  0  0
   38.1890   27.2590   43.1070 C   0  0  0  0  0  0  0  0  0  0  0  0
   37.3640   26.7880   42.0960 C   0  0  0  0  0  0  0  0  0  0  0  0
   36.6530   27.6700   41.3460 N   0  0  0  0  0  0  0  0  0  0  0  0
   36.7330   28.9990   41.5630 C   0  0  0  0  0  0  0  0  0  0  0  0
   37.5340   29.4860   42.5480 N   0  0  0  0  0  0  0  0  0  0  0  0
   38.8900   29.0170   44.0930 H   0  0  0  0  0  0  0  0  0  0  0  0
   38.7650   26.5550   43.7150 H   0  0  0  0  0  0  0  0  0  0  0  0
   35.8880   29.8060   40.6490 C   0  0  0  0  0  0  0  0  0  0  0  0
   34.6240   29.2800   40.5130 F   0  0  0  0  0  0  0  0  0  0  0  0
   36.4930   29.9170   39.4060 F   0  0  0  0  0  0  0  0  0  0  0  0
   35.8130   31.1100   41.1310 F   0  0  0  0  0  0  0  0  0  0  0  0
   37.2580   25.3110   41.8320 C   0  0  0  0  0  0  0  0  0  0  0  0
   36.7700   25.1980   40.5400 F   0  0  0  0  0  0  0  0  0  0  0  0
   38.5270   24.7790   41.8670 F   0  0  0  0  0  0  0  0  0  0  0  0
   36.3770   24.7620   42.7070 F   0  0  0  0  0  0  0  0  0  0  0  0
  1  7  1  0  0  0  0
  2  1  1  0  0  0  0
  2  8  1  0  0  0  0
  3  2  2  0  0  0  0
  4  5  2  0  0  0  0
  4  3  1  0  0  0  0
  5  6  1  0  0  0  0
  6  1  2  0  0  0  0
  9 12  1  0  0  0  0
  9  5  1  0  0  0  0
 10  9  1  0  0  0  0
 11  9  1  0  0  0  0
 13 15  1  0  0  0  0
 13  3  1  0  0  0  0
 13 16  1  0  0  0  0
 14 13  1  0  0  0  0
M  END
>  <minimizedAffinity>
-4.42227077

$$$$

 OpenBabel03252500003D

 16 16  0  0  0  0  0  0  0  0999 V2000
   38.4550   28.5530   43.3170 C   0  0  0  0  0  0  0  0  0  0  0  0
   37.6410   29.3760   42.5170 C   0  0  0  0  0  0  0  0  0  0  0  0
   36.8230   28.7550   41.5840 C   0  0  0  0  0  0  0  0  0  0  0  0
   36.8360   27.4010   41.4770 N   0  0  0  0  0  0  0  0  0  0  0  0
   37.6290   26.6440   42.2620 C   0  0  0  0  0  0  0  0  0  0  0  0
   38.4410   27.2270   43.1840 N   0  0  0  0  0  0  0  0  0  0  0  0
   39.0940   29.0380   44.0430 H   0  0  0  0  0  0  0  0  0  0  0  0
   37.6370   30.4660   42.6090 H   0  0  0  0  0  0  0  0  0  0  0  0
   37.5090   25.1870   42.0050 C   0  0  0  0  0  0  0  0  0  0  0  0
   38.5940   24.4870   42.4760 F   0  0  0  0  0  0  0  0  0  0  0  0
   37.3420   24.9500   40.6490 F   0  0  0  0  0  0  0  0  0  0  0  0
   36.3410   24.7150   42.5990 F   0  0  0  0  0  0  0  0  0  0  0  0
   35.9280   29.5770   40.6980 C   0  0  0  0  0  0  0  0  0  0  0  0
   34.6810   28.9740   40.7650 F   0  0  0  0  0  0  0  0  0  0  0  0
   35.8310   30.8380   41.2410 F   0  0  0  0  0  0  0  0  0  0  0  0
   36.3940   29.5310   39.4240 F   0  0  0  0  0  0  0  0  0  0  0  0
  1  7  1  0  0  0  0
  2  8  1  0  0  0  0
  2  1  2  0  0  0  0
  3  2  1  0  0  0  0
  4  3  2  0  0  0  0
  4  5  1  0  0  0  0
  5  6  2  0  0  0  0
  6  1  1  0  0  0  0
  9  5  1  0  0  0  0
  9 10  1  0  0  0  0
  9 12  1  0  0  0  0
 11  9  1  0  0  0  0
 13 14  1  0  0  0  0
 13 15  1  0  0  0  0
 13  3  1  0  0  0  0
 16 13  1  0  0  0  0
M  END
>  <minimizedAffinity>
-4.31849957

$$$$

 OpenBabel03252500003D

 16 16  0  0  0  0  0  0  0  0999 V2000
   36.9400   27.3880   39.1890 C   0  0  0  0  0  0  0  0  0  0  0  0
   36.9400   26.7040   40.4180 C   0  0  0  0  0  0  0  0  0  0  0  0
   36.9120   27.4670   41.5770 C   0  0  0  0  0  0  0  0  0  0  0  0
   36.8870   28.8230   41.4860 N   0  0  0  0  0  0  0  0  0  0  0  0
   36.8870   29.4450   40.2900 C   0  0  0  0  0  0  0  0  0  0  0  0
   36.9150   28.7210   39.1390 N   0  0  0  0  0  0  0  0  0  0  0  0
   36.9620   26.7930   38.2860 H   0  0  0  0  0  0  0  0  0  0  0  0
   36.9600   25.6120   40.4830 H   0  0  0  0  0  0  0  0  0  0  0  0
   36.8580   30.9250   40.3860 C   0  0  0  0  0  0  0  0  0  0  0  0
   35.9480   31.3650   41.3190 F   0  0  0  0  0  0  0  0  0  0  0  0
   36.5770   31.4830   39.1480 F   0  0  0  0  0  0  0  0  0  0  0  0
   38.1320   31.3860   40.7080 F   0  0  0  0  0  0  0  0  0  0  0  0
   36.9090   26.7980   42.9230 C   0  0  0  0  0  0  0  0  0  0  0  0
   36.6630   25.4560   42.6730 F   0  0  0  0  0  0  0  0  0  0  0  0
   38.1710   26.9160   43.4610 F   0  0  0  0  0  0  0  0  0  0  0  0
   35.9080   27.3160   43.6790 F   0  0  0  0  0  0  0  0  0  0  0  0
  1  2  1  0  0  0  0
  2  8  1  0  0  0  0
  2  3  2  0  0  0  0
  3 13  1  0  0  0  0
  4  3  1  0  0  0  0
  5  9  1  0  0  0  0
  5  4  2  0  0  0  0
  6  1  2  0  0  0  0
  6  5  1  0  0  0  0
  7  1  1  0  0  0  0
  9 12  1  0  0  0  0
  9 10  1  0  0  0  0
 11  9  1  0  0  0  0
 13 15  1  0  0  0  0
 13 16  1  0  0  0  0
 14 13  1  0  0  0  0
M  END
>  <minimizedAffinity>
-4.19948149

$$$$

 OpenBabel03252500003D

 16 16  0  0  0  0  0  0  0  0999 V2000
   39.3750   30.2650   42.6730 C   0  0  0  0  0  0  0  0  0  0  0  0
   38.4080   29.2440   42.6310 C   0  0  0  0  0  0  0  0  0  0  0  0
   37.3960   29.3600   41.6890 C   0  0  0  0  0  0  0  0  0  0  0  0
   37.3730   30.4340   40.8570 N   0  0  0  0  0  0  0  0  0  0  0  0
   38.3180   31.3930   40.9260 C   0  0  0  0  0  0  0  0  0  0  0  0
   39.3210   31.3050   41.8400 N   0  0  0  0  0  0  0  0  0  0  0  0
   40.1640   30.1750   43.4080 H   0  0  0  0  0  0  0  0  0  0  0  0
   38.4330   28.3830   43.3040 H   0  0  0  0  0  0  0  0  0  0  0  0
   38.1330   32.4870   39.9410 C   0  0  0  0  0  0  0  0  0  0  0  0
   39.1120   32.4860   38.9750 F   0  0  0  0  0  0  0  0  0  0  0  0
   38.1000   33.7150   40.5840 F   0  0  0  0  0  0  0  0  0  0  0  0
   36.8790   32.3570   39.3480 F   0  0  0  0  0  0  0  0  0  0  0  0
   36.3310   28.3020   41.5910 C   0  0  0  0  0  0  0  0  0  0  0  0
   35.2050   28.9510   41.1060 F   0  0  0  0  0  0  0  0  0  0  0  0
   36.7350   27.3750   40.6570 F   0  0  0  0  0  0  0  0  0  0  0  0
   36.0780   27.8050   42.8280 F   0  0  0  0  0  0  0  0  0  0  0  0
  1  7  1  0  0  0  0
  2  1  1  0  0  0  0
  2  8  1  0  0  0  0
  3  2  2  0  0  0  0
  4  5  2  0  0  0  0
  4  3  1  0  0  0  0
  5  6  1  0  0  0  0
  6  1  2  0  0  0  0
  9 11  1  0  0  0  0
  9  5  1  0  0  0  0
 10  9  1  0  0  0  0
 12  9  1  0  0  0  0
 13  3  1  0  0  0  0
 13 16  1  0  0  0  0
 14 13  1  0  0  0  0
 15 13  1  0  0  0  0
M  END
>  <minimizedAffinity>
-4.13605833

$$$$

 OpenBabel03252500003D

 16 16  0  0  0  0  0  0  0  0999 V2000
   39.5970   29.8400   42.5830 C   0  0  0  0  0  0  0  0  0  0  0  0
   38.8780   30.6970   41.7300 C   0  0  0  0  0  0  0  0  0  0  0  0
   37.6750   30.2300   41.2190 C   0  0  0  0  0  0  0  0  0  0  0  0
   37.2420   28.9860   41.5530 N   0  0  0  0  0  0  0  0  0  0  0  0
   37.9580   28.1930   42.3750 C   0  0  0  0  0  0  0  0  0  0  0  0
   39.1410   28.6250   42.8890 N   0  0  0  0  0  0  0  0  0  0  0  0
   40.5350   30.2040   42.9800 H   0  0  0  0  0  0  0  0  0  0  0  0
   39.2330   31.6970   41.4650 H   0  0  0  0  0  0  0  0  0  0  0  0
   37.3300   26.8720   42.6270 C   0  0  0  0  0  0  0  0  0  0  0  0
   38.2430   25.9390   43.0610 F   0  0  0  0  0  0  0  0  0  0  0  0
   36.6910   26.4160   41.4840 F   0  0  0  0  0  0  0  0  0  0  0  0
   36.3170   27.0230   43.5710 F   0  0  0  0  0  0  0  0  0  0  0  0
   36.8570   31.0960   40.3010 C   0  0  0  0  0  0  0  0  0  0  0  0
   37.0920   32.4000   40.7100 F   0  0  0  0  0  0  0  0  0  0  0  0
   37.3460   30.9460   39.0230 F   0  0  0  0  0  0  0  0  0  0  0  0
   35.5420   30.7950   40.4550 F   0  0  0  0  0  0  0  0  0  0  0  0
  1  6  1  0  0  0  0
  1  7  1  0  0  0  0
  2  1  2  0  0  0  0
  3  4  2  0  0  0  0
  3  2  1  0  0  0  0
  4  5  1  0  0  0  0
  5  9  1  0  0  0  0
  5  6  2  0  0  0  0
  8  2  1  0  0  0  0
  9 10  1  0  0  0  0
  9 12  1  0  0  0  0
 11  9  1  0  0  0  0
 13 16  1  0  0  0  0
 13 14  1  0  0  0  0
 13  3  1  0  0  0  0
 15 13  1  0  0  0  0
M  END
>  <minimizedAffinity>
-4.1160512

$$$$

 OpenBabel03252500003D

 16 16  0  0  0  0  0  0  0  0999 V2000
   38.5290   27.9120   39.4690 C   0  0  0  0  0  0  0  0  0  0  0  0
   38.1330   29.2610   39.4360 C   0  0  0  0  0  0  0  0  0  0  0  0
   37.4110   29.7430   40.5180 C   0  0  0  0  0  0  0  0  0  0  0  0
   37.1170   28.9120   41.5520 N   0  0  0  0  0  0  0  0  0  0  0  0
   37.5140   27.6240   41.5490 C   0  0  0  0  0  0  0  0  0  0  0  0
   38.2230   27.1250   40.5010 N   0  0  0  0  0  0  0  0  0  0  0  0
   39.0920   27.5360   38.6240 H   0  0  0  0  0  0  0  0  0  0  0  0
   38.3730   29.9240   38.5990 H   0  0  0  0  0  0  0  0  0  0  0  0
   37.1040   26.8700   42.7590 C   0  0  0  0  0  0  0  0  0  0  0  0
   36.7480   25.5740   42.4660 F   0  0  0  0  0  0  0  0  0  0  0  0
   36.0580   27.5170   43.3990 F   0  0  0  0  0  0  0  0  0  0  0  0
   38.1500   26.8800   43.6790 F   0  0  0  0  0  0  0  0  0  0  0  0
   36.9580   31.1770   40.5460 C   0  0  0  0  0  0  0  0  0  0  0  0
   35.8620   31.2050   41.3950 F   0  0  0  0  0  0  0  0  0  0  0  0
   37.9630   31.9320   41.1070 F   0  0  0  0  0  0  0  0  0  0  0  0
   36.5820   31.5520   39.2970 F   0  0  0  0  0  0  0  0  0  0  0  0
  1  6  1  0  0  0  0
  2  1  2  0  0  0  0
  2  3  1  0  0  0  0
  3 13  1  0  0  0  0
  3  4  2  0  0  0  0
  5  4  1  0  0  0  0
  5  9  1  0  0  0  0
  6  5  2  0  0  0  0
  7  1  1  0  0  0  0
  8  2  1  0  0  0  0
  9 11  1  0  0  0  0
  9 12  1  0  0  0  0
 10  9  1  0  0  0  0
 13 15  1  0  0  0  0
 13 14  1  0  0  0  0
 16 13  1  0  0  0  0
M  END
>  <minimizedAffinity>
-4.11044121

$$$$

 OpenBabel03252500003D

 16 16  0  0  0  0  0  0  0  0999 V2000
   37.1830   30.5100   36.9250 C   0  0  0  0  0  0  0  0  0  0  0  0
   36.3790   29.5870   37.6180 C   0  0  0  0  0  0  0  0  0  0  0  0
   36.0630   29.8770   38.9370 C   0  0  0  0  0  0  0  0  0  0  0  0
   36.5330   31.0190   39.5040 N   0  0  0  0  0  0  0  0  0  0  0  0
   37.3010   31.8820   38.8080 C   0  0  0  0  0  0  0  0  0  0  0  0
   37.6260   31.6210   37.5130 N   0  0  0  0  0  0  0  0  0  0  0  0
   37.4300   30.2830   35.8960 H   0  0  0  0  0  0  0  0  0  0  0  0
   36.0050   28.6700   37.1550 H   0  0  0  0  0  0  0  0  0  0  0  0
   37.7200   33.0720   39.5880 C   0  0  0  0  0  0  0  0  0  0  0  0
   37.6950   32.8390   40.9440 F   0  0  0  0  0  0  0  0  0  0  0  0
   36.9170   34.1590   39.2780 F   0  0  0  0  0  0  0  0  0  0  0  0
   39.0020   33.4470   39.1930 F   0  0  0  0  0  0  0  0  0  0  0  0
   35.2060   28.9330   39.7350 C   0  0  0  0  0  0  0  0  0  0  0  0
   33.9070   29.1550   39.3060 F   0  0  0  0  0  0  0  0  0  0  0  0
   35.5620   27.6460   39.3970 F   0  0  0  0  0  0  0  0  0  0  0  0
   35.3140   29.2350   41.0530 F   0  0  0  0  0  0  0  0  0  0  0  0
  1  6  2  0  0  0  0
  1  2  1  0  0  0  0
  2  3  2  0  0  0  0
  3  4  1  0  0  0  0
  3 13  1  0  0  0  0
  5  4  2  0  0  0  0
  5  9  1  0  0  0  0
  6  5  1  0  0  0  0
  7  1  1  0  0  0  0
  8  2  1  0  0  0  0
  9 10  1  0  0  0  0
 11  9  1  0  0  0  0
 12  9  1  0  0  0  0
 13 16  1  0  0  0  0
 14 13  1  0  0  0  0
 15 13  1  0  0  0  0
M  END
>  <minimizedAffinity>
-4.07004166

$$$$

 OpenBabel03252500003D

 16 16  0  0  0  0  0  0  0  0999 V2000
   35.9490   29.8610   39.7230 C   0  0  0  0  0  0  0  0  0  0  0  0
   36.4990   31.1300   39.4660 C   0  0  0  0  0  0  0  0  0  0  0  0
   37.4700   31.5970   40.3400 C   0  0  0  0  0  0  0  0  0  0  0  0
   37.8490   30.8270   41.3940 N   0  0  0  0  0  0  0  0  0  0  0  0
   37.3000   29.6140   41.6090 C   0  0  0  0  0  0  0  0  0  0  0  0
   36.3460   29.1330   40.7680 N   0  0  0  0  0  0  0  0  0  0  0  0
   35.1910   29.4980   39.0410 H   0  0  0  0  0  0  0  0  0  0  0  0
   36.1880   31.7440   38.6160 H   0  0  0  0  0  0  0  0  0  0  0  0
   37.8370   28.9190   42.8050 C   0  0  0  0  0  0  0  0  0  0  0  0
   38.4820   29.7820   43.6600 F   0  0  0  0  0  0  0  0  0  0  0  0
   38.6950   27.8980   42.4240 F   0  0  0  0  0  0  0  0  0  0  0  0
   36.7920   28.2820   43.4680 F   0  0  0  0  0  0  0  0  0  0  0  0
   38.0980   32.9460   40.1220 C   0  0  0  0  0  0  0  0  0  0  0  0
   38.6780   33.2870   41.3350 F   0  0  0  0  0  0  0  0  0  0  0  0
   39.0970   32.8050   39.1860 F   0  0  0  0  0  0  0  0  0  0  0  0
   37.1320   33.8440   39.8060 F   0  0  0  0  0  0  0  0  0  0  0  0
  1  6  1  0  0  0  0
  2  1  2  0  0  0  0
  2  3  1  0  0  0  0
  3  4  2  0  0  0  0
  4  5  1  0  0  0  0
  5  9  1  0  0  0  0
  6  5  2  0  0  0  0
  7  1  1  0  0  0  0
  8  2  1  0  0  0  0
  9 12  1  0  0  0  0
  9 10  1  0  0  0  0
 11  9  1  0  0  0  0
 13  3  1  0  0  0  0
 13 14  1  0  0  0  0
 15 13  1  0  0  0  0
 16 13  1  0  0  0  0
M  END
>  <minimizedAffinity>
-4.06518936

$$$$
