
 OpenBabel03242521223D

 31 33  0  0  0  0  0  0  0  0999 V2000
   36.9760   29.4770   39.1310 C   0  0  0  0  0  0  0  0  0  0  0  0
   36.2200   30.4630   39.6910 C   0  0  0  0  0  0  0  0  0  0  0  0
   36.2440   30.7810   41.0350 C   0  0  0  0  0  0  0  0  0  0  0  0
   37.0880   30.0370   41.7900 N   0  0  0  0  0  0  0  0  0  0  0  0
   37.8320   29.0660   41.2370 C   0  0  0  0  0  0  0  0  0  0  0  0
   37.8080   28.7540   39.9170 N   0  0  0  0  0  0  0  0  0  0  0  0
   35.5490   31.0520   39.0810 H   0  0  0  0  0  0  0  0  0  0  0  0
   35.6570   31.5510   41.4870 H   0  0  0  0  0  0  0  0  0  0  0  0
   38.7470   28.2700   42.0950 C   0  0  0  0  0  0  0  0  0  0  0  0
   40.0510   28.6920   42.2660 C   0  0  0  0  0  0  0  0  0  0  0  0
   40.9810   28.0320   43.0380 C   0  0  0  0  0  0  0  0  0  0  0  0
   40.5530   26.8610   43.6800 C   0  0  0  0  0  0  0  0  0  0  0  0
   39.2630   26.4490   43.5070 C   0  0  0  0  0  0  0  0  0  0  0  0
   38.3490   27.1210   42.7330 C   0  0  0  0  0  0  0  0  0  0  0  0
   40.3550   29.6000   41.7600 H   0  0  0  0  0  0  0  0  0  0  0  0
   41.9910   28.4170   43.1320 H   0  0  0  0  0  0  0  0  0  0  0  0
   41.2670   26.3270   44.2900 H   0  0  0  0  0  0  0  0  0  0  0  0
   38.9690   25.5410   44.0180 H   0  0  0  0  0  0  0  0  0  0  0  0
   36.9500   26.6510   42.5610 C   0  0  0  0  0  0  0  0  0  0  0  0
   36.8970   25.3370   43.0410 F   0  0  0  0  0  0  0  0  0  0  0  0
   36.0250   27.3720   43.2540 F   0  0  0  0  0  0  0  0  0  0  0  0
   36.6820   26.5620   41.1990 F   0  0  0  0  0  0  0  0  0  0  0  0
   37.8590   28.1710   35.8220 C   0  0  0  0  0  0  0  0  0  0  0  0
   36.8050   28.6180   35.0350 C   0  0  0  0  0  0  0  0  0  0  0  0
   35.7970   29.3610   35.6260 C   0  0  0  0  0  0  0  0  0  0  0  0
   35.8820   29.6250   36.9710 N   0  0  0  0  0  0  0  0  0  0  0  0
   36.9130   29.1800   37.7080 C   0  0  0  0  0  0  0  0  0  0  0  0
   37.8860   28.4650   37.1420 N   0  0  0  0  0  0  0  0  0  0  0  0
   38.6210   27.5950   35.3140 H   0  0  0  0  0  0  0  0  0  0  0  0
   36.6570   28.4610   33.9930 H   0  0  0  0  0  0  0  0  0  0  0  0
   34.9040   29.7950   35.1980 H   0  0  0  0  0  0  0  0  0  0  0  0
  1  2  2  0  0  0  0
  1  6  1  0  0  0  0
  2  3  1  0  0  0  0
  3  8  1  0  0  0  0
  3  4  2  0  0  0  0
  5  4  1  0  0  0  0
  5  9  1  0  0  0  0
  6  5  2  0  0  0  0
  7  2  1  0  0  0  0
  9 10  2  0  0  0  0
  9 14  1  0  0  0  0
 10 11  1  0  0  0  0
 11 16  1  0  0  0  0
 11 12  2  0  0  0  0
 12 17  1  0  0  0  0
 13 12  1  0  0  0  0
 13 18  1  0  0  0  0
 14 13  2  0  0  0  0
 15 10  1  0  0  0  0
 19 14  1  0  0  0  0
 19 20  1  0  0  0  0
 19 21  1  0  0  0  0
 22 19  1  0  0  0  0
 23 28  1  0  0  0  0
 24 25  1  0  0  0  0
 24 23  2  0  0  0  0
 25 26  2  0  0  0  0
 26 27  1  0  0  0  0
 27  1  1  0  0  0  0
 28 27  2  0  0  0  0
 29 23  1  0  0  0  0
 30 24  1  0  0  0  0
 31 25  1  0  0  0  0
M  END
>  <minimizedAffinity>
-5.62275171

$$$$

 OpenBabel03242521223D

 31 33  0  0  0  0  0  0  0  0999 V2000
   37.8970   30.7440   39.4130 C   0  0  0  0  0  0  0  0  0  0  0  0
   36.8660   30.7740   38.5230 C   0  0  0  0  0  0  0  0  0  0  0  0
   36.0870   29.6770   38.2110 C   0  0  0  0  0  0  0  0  0  0  0  0
   36.4150   28.5330   38.8590 N   0  0  0  0  0  0  0  0  0  0  0  0
   37.4300   28.5050   39.7350 C   0  0  0  0  0  0  0  0  0  0  0  0
   38.1950   29.5830   40.0430 N   0  0  0  0  0  0  0  0  0  0  0  0
   36.6120   31.6920   38.0100 H   0  0  0  0  0  0  0  0  0  0  0  0
   35.2760   29.6860   37.5150 H   0  0  0  0  0  0  0  0  0  0  0  0
   37.7610   27.2330   40.4280 C   0  0  0  0  0  0  0  0  0  0  0  0
   38.5020   26.2740   39.7650 C   0  0  0  0  0  0  0  0  0  0  0  0
   38.8640   25.0630   40.3100 C   0  0  0  0  0  0  0  0  0  0  0  0
   38.4400   24.8110   41.6240 C   0  0  0  0  0  0  0  0  0  0  0  0
   37.7080   25.7610   42.2750 C   0  0  0  0  0  0  0  0  0  0  0  0
   37.3570   26.9640   41.7130 C   0  0  0  0  0  0  0  0  0  0  0  0
   38.8170   26.4950   38.7520 H   0  0  0  0  0  0  0  0  0  0  0  0
   39.4490   24.3530   39.7360 H   0  0  0  0  0  0  0  0  0  0  0  0
   38.7130   23.8660   42.0710 H   0  0  0  0  0  0  0  0  0  0  0  0
   37.4000   25.5300   43.2860 H   0  0  0  0  0  0  0  0  0  0  0  0
   36.5590   27.9830   42.4430 C   0  0  0  0  0  0  0  0  0  0  0  0
   36.0140   27.3490   43.5660 F   0  0  0  0  0  0  0  0  0  0  0  0
   37.2800   29.0480   42.8910 F   0  0  0  0  0  0  0  0  0  0  0  0
   35.4720   28.3380   41.6510 F   0  0  0  0  0  0  0  0  0  0  0  0
   38.7880   34.1520   40.4310 C   0  0  0  0  0  0  0  0  0  0  0  0
   40.1670   34.1600   40.2640 C   0  0  0  0  0  0  0  0  0  0  0  0
   40.7930   33.0130   39.8070 C   0  0  0  0  0  0  0  0  0  0  0  0
   40.0210   31.9100   39.5380 N   0  0  0  0  0  0  0  0  0  0  0  0
   38.6890   31.9300   39.7080 C   0  0  0  0  0  0  0  0  0  0  0  0
   38.0820   33.0330   40.1470 N   0  0  0  0  0  0  0  0  0  0  0  0
   38.3460   35.0710   40.7890 H   0  0  0  0  0  0  0  0  0  0  0  0
   40.8400   34.9630   40.4470 H   0  0  0  0  0  0  0  0  0  0  0  0
   41.8380   32.8150   39.6140 H   0  0  0  0  0  0  0  0  0  0  0  0
  1 27  1  0  0  0  0
  1  6  1  0  0  0  0
  2  1  2  0  0  0  0
  3  2  1  0  0  0  0
  3  4  2  0  0  0  0
  4  5  1  0  0  0  0
  5  6  2  0  0  0  0
  5  9  1  0  0  0  0
  7  2  1  0  0  0  0
  8  3  1  0  0  0  0
  9 14  1  0  0  0  0
 10 11  1  0  0  0  0
 10  9  2  0  0  0  0
 11 12  2  0  0  0  0
 12 17  1  0  0  0  0
 12 13  1  0  0  0  0
 13 18  1  0  0  0  0
 14 13  2  0  0  0  0
 14 19  1  0  0  0  0
 15 10  1  0  0  0  0
 16 11  1  0  0  0  0
 19 21  1  0  0  0  0
 19 20  1  0  0  0  0
 22 19  1  0  0  0  0
 23 29  1  0  0  0  0
 24 23  1  0  0  0  0
 24 30  1  0  0  0  0
 25 24  2  0  0  0  0
 26 27  2  0  0  0  0
 26 25  1  0  0  0  0
 27 28  1  0  0  0  0
 28 23  2  0  0  0  0
 31 25  1  0  0  0  0
M  END
>  <minimizedAffinity>
-5.55735111

$$$$

 OpenBabel03242521223D

 31 33  0  0  0  0  0  0  0  0999 V2000
   38.2500   30.7370   39.7920 C   0  0  0  0  0  0  0  0  0  0  0  0
   37.2850   31.4970   40.3810 C   0  0  0  0  0  0  0  0  0  0  0  0
   36.2010   30.9760   41.0590 C   0  0  0  0  0  0  0  0  0  0  0  0
   36.1480   29.6230   41.1100 N   0  0  0  0  0  0  0  0  0  0  0  0
   37.0990   28.8750   40.5300 C   0  0  0  0  0  0  0  0  0  0  0  0
   38.1640   29.3870   39.8650 N   0  0  0  0  0  0  0  0  0  0  0  0
   37.3350   32.5770   40.3350 H   0  0  0  0  0  0  0  0  0  0  0  0
   35.4370   31.5610   41.5250 H   0  0  0  0  0  0  0  0  0  0  0  0
   37.0090   27.3930   40.6070 C   0  0  0  0  0  0  0  0  0  0  0  0
   36.5190   26.6890   39.5240 C   0  0  0  0  0  0  0  0  0  0  0  0
   36.3930   25.3190   39.4870 C   0  0  0  0  0  0  0  0  0  0  0  0
   36.7940   24.6170   40.6340 C   0  0  0  0  0  0  0  0  0  0  0  0
   37.2770   25.3170   41.7000 C   0  0  0  0  0  0  0  0  0  0  0  0
   37.3960   26.6860   41.7180 C   0  0  0  0  0  0  0  0  0  0  0  0
   36.2170   27.2560   38.6520 H   0  0  0  0  0  0  0  0  0  0  0  0
   36.0000   24.8260   38.6050 H   0  0  0  0  0  0  0  0  0  0  0  0
   36.7020   23.5400   40.6260 H   0  0  0  0  0  0  0  0  0  0  0  0
   37.5760   24.7410   42.5670 H   0  0  0  0  0  0  0  0  0  0  0  0
   37.9260   27.4260   42.8930 C   0  0  0  0  0  0  0  0  0  0  0  0
   38.6230   26.5010   43.6800 F   0  0  0  0  0  0  0  0  0  0  0  0
   38.7940   28.4270   42.5820 F   0  0  0  0  0  0  0  0  0  0  0  0
   36.8500   27.8410   43.6700 F   0  0  0  0  0  0  0  0  0  0  0  0
   40.7630   33.1810   38.7210 C   0  0  0  0  0  0  0  0  0  0  0  0
   41.4830   32.4690   37.7690 C   0  0  0  0  0  0  0  0  0  0  0  0
   41.1160   31.1630   37.4930 C   0  0  0  0  0  0  0  0  0  0  0  0
   40.0530   30.6240   38.1730 N   0  0  0  0  0  0  0  0  0  0  0  0
   39.3740   31.3360   39.0880 C   0  0  0  0  0  0  0  0  0  0  0  0
   39.7230   32.5940   39.3580 N   0  0  0  0  0  0  0  0  0  0  0  0
   41.0880   34.1970   38.9020 H   0  0  0  0  0  0  0  0  0  0  0  0
   42.3160   32.8040   37.1980 H   0  0  0  0  0  0  0  0  0  0  0  0
   41.5390   30.4490   36.7990 H   0  0  0  0  0  0  0  0  0  0  0  0
  1  6  2  0  0  0  0
  1  2  1  0  0  0  0
  2  3  2  0  0  0  0
  3  4  1  0  0  0  0
  3  8  1  0  0  0  0
  5  9  1  0  0  0  0
  5  4  2  0  0  0  0
  6  5  1  0  0  0  0
  7  2  1  0  0  0  0
  9 14  1  0  0  0  0
 10  9  2  0  0  0  0
 11 10  1  0  0  0  0
 11 12  2  0  0  0  0
 12 13  1  0  0  0  0
 13 14  2  0  0  0  0
 13 18  1  0  0  0  0
 14 19  1  0  0  0  0
 15 10  1  0  0  0  0
 16 11  1  0  0  0  0
 17 12  1  0  0  0  0
 19 22  1  0  0  0  0
 19 20  1  0  0  0  0
 21 19  1  0  0  0  0
 23 29  1  0  0  0  0
 23 28  1  0  0  0  0
 24 23  2  0  0  0  0
 25 24  1  0  0  0  0
 25 26  2  0  0  0  0
 26 27  1  0  0  0  0
 27 28  2  0  0  0  0
 27  1  1  0  0  0  0
 30 24  1  0  0  0  0
 31 25  1  0  0  0  0
M  END
>  <minimizedAffinity>
-5.54110861

$$$$

 OpenBabel03242521223D

 31 33  0  0  0  0  0  0  0  0999 V2000
   40.2290   31.1000   39.3480 C   0  0  0  0  0  0  0  0  0  0  0  0
   40.0120   32.3980   39.7020 C   0  0  0  0  0  0  0  0  0  0  0  0
   39.1970   32.7840   40.7480 C   0  0  0  0  0  0  0  0  0  0  0  0
   38.6070   31.7690   41.4250 N   0  0  0  0  0  0  0  0  0  0  0  0
   38.8220   30.4920   41.0760 C   0  0  0  0  0  0  0  0  0  0  0  0
   39.6230   30.1130   40.0480 N   0  0  0  0  0  0  0  0  0  0  0  0
   40.4870   33.2010   39.1550 H   0  0  0  0  0  0  0  0  0  0  0  0
   39.0180   33.7970   41.0360 H   0  0  0  0  0  0  0  0  0  0  0  0
   38.1590   29.4050   41.8410 C   0  0  0  0  0  0  0  0  0  0  0  0
   38.8650   28.7440   42.8280 C   0  0  0  0  0  0  0  0  0  0  0  0
   38.3500   27.7250   43.5970 C   0  0  0  0  0  0  0  0  0  0  0  0
   37.0220   27.3520   43.3420 C   0  0  0  0  0  0  0  0  0  0  0  0
   36.3280   28.0070   42.3660 C   0  0  0  0  0  0  0  0  0  0  0  0
   36.8600   29.0230   41.6090 C   0  0  0  0  0  0  0  0  0  0  0  0
   39.8880   29.0530   43.0050 H   0  0  0  0  0  0  0  0  0  0  0  0
   38.9580   27.2480   44.3570 H   0  0  0  0  0  0  0  0  0  0  0  0
   36.5980   26.5530   43.9330 H   0  0  0  0  0  0  0  0  0  0  0  0
   35.3070   27.6910   42.1980 H   0  0  0  0  0  0  0  0  0  0  0  0
   36.0840   29.7210   40.5520 C   0  0  0  0  0  0  0  0  0  0  0  0
   34.8220   29.1170   40.5030 F   0  0  0  0  0  0  0  0  0  0  0  0
   35.8870   31.0490   40.7820 F   0  0  0  0  0  0  0  0  0  0  0  0
   36.6760   29.4500   39.3230 F   0  0  0  0  0  0  0  0  0  0  0  0
   42.7590   31.3580   36.7070 C   0  0  0  0  0  0  0  0  0  0  0  0
   42.7330   30.0880   36.1460 C   0  0  0  0  0  0  0  0  0  0  0  0
   41.8600   29.1460   36.6630 C   0  0  0  0  0  0  0  0  0  0  0  0
   41.0530   29.5090   37.7120 N   0  0  0  0  0  0  0  0  0  0  0  0
   41.0980   30.7450   38.2350 C   0  0  0  0  0  0  0  0  0  0  0  0
   41.9380   31.6550   37.7410 N   0  0  0  0  0  0  0  0  0  0  0  0
   43.4580   32.0580   36.2690 H   0  0  0  0  0  0  0  0  0  0  0  0
   43.3200   29.7210   35.3380 H   0  0  0  0  0  0  0  0  0  0  0  0
   41.6880   28.1180   36.3740 H   0  0  0  0  0  0  0  0  0  0  0  0
  1  2  2  0  0  0  0
  1  6  1  0  0  0  0
  2  3  1  0  0  0  0
  3  8  1  0  0  0  0
  3  4  2  0  0  0  0
  5  4  1  0  0  0  0
  5  9  1  0  0  0  0
  6  5  2  0  0  0  0
  7  2  1  0  0  0  0
  9 10  1  0  0  0  0
 10 15  1  0  0  0  0
 10 11  2  0  0  0  0
 11 16  1  0  0  0  0
 12 11  1  0  0  0  0
 12 17  1  0  0  0  0
 13 12  2  0  0  0  0
 14  9  2  0  0  0  0
 14 13  1  0  0  0  0
 18 13  1  0  0  0  0
 19 21  1  0  0  0  0
 19 14  1  0  0  0  0
 20 19  1  0  0  0  0
 22 19  1  0  0  0  0
 23 28  1  0  0  0  0
 24 25  1  0  0  0  0
 24 23  2  0  0  0  0
 25 26  2  0  0  0  0
 26 27  1  0  0  0  0
 27  1  1  0  0  0  0
 28 27  2  0  0  0  0
 29 23  1  0  0  0  0
 30 24  1  0  0  0  0
 31 25  1  0  0  0  0
M  END
>  <minimizedAffinity>
-5.45362616

$$$$

 OpenBabel03242521223D

 31 33  0  0  0  0  0  0  0  0999 V2000
   39.4090   29.9510   41.0650 C   0  0  0  0  0  0  0  0  0  0  0  0
   40.6000   29.9800   41.7250 C   0  0  0  0  0  0  0  0  0  0  0  0
   41.2190   28.8590   42.2430 C   0  0  0  0  0  0  0  0  0  0  0  0
   40.5570   27.6930   42.0520 N   0  0  0  0  0  0  0  0  0  0  0  0
   39.3840   27.6660   41.4010 C   0  0  0  0  0  0  0  0  0  0  0  0
   38.7760   28.7660   40.8920 N   0  0  0  0  0  0  0  0  0  0  0  0
   41.1220   30.9160   41.8730 H   0  0  0  0  0  0  0  0  0  0  0  0
   42.1530   28.8670   42.7630 H   0  0  0  0  0  0  0  0  0  0  0  0
   38.6860   26.3690   41.2100 C   0  0  0  0  0  0  0  0  0  0  0  0
   39.1990   25.4500   40.3150 C   0  0  0  0  0  0  0  0  0  0  0  0
   38.6350   24.2210   40.0600 C   0  0  0  0  0  0  0  0  0  0  0  0
   37.4640   23.9050   40.7670 C   0  0  0  0  0  0  0  0  0  0  0  0
   36.9610   24.8160   41.6490 C   0  0  0  0  0  0  0  0  0  0  0  0
   37.5400   26.0390   41.8900 C   0  0  0  0  0  0  0  0  0  0  0  0
   40.1040   25.7190   39.7830 H   0  0  0  0  0  0  0  0  0  0  0  0
   39.0890   23.5440   39.3450 H   0  0  0  0  0  0  0  0  0  0  0  0
   37.0050   22.9450   40.5820 H   0  0  0  0  0  0  0  0  0  0  0  0
   36.0570   24.5360   42.1760 H   0  0  0  0  0  0  0  0  0  0  0  0
   36.9720   27.0130   42.8570 C   0  0  0  0  0  0  0  0  0  0  0  0
   36.0860   26.3060   43.6800 F   0  0  0  0  0  0  0  0  0  0  0  0
   37.8930   27.6030   43.6690 F   0  0  0  0  0  0  0  0  0  0  0  0
   36.1860   27.9200   42.1540 F   0  0  0  0  0  0  0  0  0  0  0  0
   38.6100   33.4930   40.5580 C   0  0  0  0  0  0  0  0  0  0  0  0
   37.6530   33.4410   39.5530 C   0  0  0  0  0  0  0  0  0  0  0  0
   37.2800   32.2070   39.0480 C   0  0  0  0  0  0  0  0  0  0  0  0
   37.8740   31.0820   39.5640 N   0  0  0  0  0  0  0  0  0  0  0  0
   38.7970   31.1620   40.5370 C   0  0  0  0  0  0  0  0  0  0  0  0
   39.1590   32.3480   41.0260 N   0  0  0  0  0  0  0  0  0  0  0  0
   38.8680   34.4790   40.9190 H   0  0  0  0  0  0  0  0  0  0  0  0
   37.1440   34.2550   39.0950 H   0  0  0  0  0  0  0  0  0  0  0  0
   36.5650   31.9530   38.2770 H   0  0  0  0  0  0  0  0  0  0  0  0
  1  2  1  0  0  0  0
  2  7  1  0  0  0  0
  2  3  2  0  0  0  0
  3  8  1  0  0  0  0
  4  3  1  0  0  0  0
  5  4  2  0  0  0  0
  6  1  2  0  0  0  0
  6  5  1  0  0  0  0
  9  5  1  0  0  0  0
  9 14  1  0  0  0  0
 10  9  2  0  0  0  0
 11 10  1  0  0  0  0
 11 12  2  0  0  0  0
 12 13  1  0  0  0  0
 13 14  2  0  0  0  0
 13 18  1  0  0  0  0
 14 19  1  0  0  0  0
 15 10  1  0  0  0  0
 16 11  1  0  0  0  0
 17 12  1  0  0  0  0
 19 21  1  0  0  0  0
 19 20  1  0  0  0  0
 22 19  1  0  0  0  0
 23 29  1  0  0  0  0
 23 28  1  0  0  0  0
 24 23  2  0  0  0  0
 25 24  1  0  0  0  0
 25 26  2  0  0  0  0
 26 27  1  0  0  0  0
 27 28  2  0  0  0  0
 27  1  1  0  0  0  0
 30 24  1  0  0  0  0
 31 25  1  0  0  0  0
M  END
>  <minimizedAffinity>
-5.43930387

$$$$

 OpenBabel03242521223D

 31 33  0  0  0  0  0  0  0  0999 V2000
   39.2210   31.6020   39.1840 C   0  0  0  0  0  0  0  0  0  0  0  0
   38.3370   32.6390   39.1930 C   0  0  0  0  0  0  0  0  0  0  0  0
   37.1730   32.6510   39.9360 C   0  0  0  0  0  0  0  0  0  0  0  0
   36.9510   31.5420   40.6810 N   0  0  0  0  0  0  0  0  0  0  0  0
   37.8230   30.5210   40.6720 C   0  0  0  0  0  0  0  0  0  0  0  0
   38.9660   30.5090   39.9420 N   0  0  0  0  0  0  0  0  0  0  0  0
   38.5220   33.5210   38.5950 H   0  0  0  0  0  0  0  0  0  0  0  0
   36.4710   33.4580   39.9520 H   0  0  0  0  0  0  0  0  0  0  0  0
   37.5470   29.3200   41.5010 C   0  0  0  0  0  0  0  0  0  0  0  0
   37.9530   29.3020   42.8220 C   0  0  0  0  0  0  0  0  0  0  0  0
   37.7490   28.2440   43.6790 C   0  0  0  0  0  0  0  0  0  0  0  0
   37.0870   27.1250   43.1530 C   0  0  0  0  0  0  0  0  0  0  0  0
   36.6890   27.1470   41.8480 C   0  0  0  0  0  0  0  0  0  0  0  0
   36.9000   28.2140   41.0080 C   0  0  0  0  0  0  0  0  0  0  0  0
   38.4610   30.1800   43.2020 H   0  0  0  0  0  0  0  0  0  0  0  0
   38.0930   28.2940   44.7060 H   0  0  0  0  0  0  0  0  0  0  0  0
   36.9180   26.2830   43.8090 H   0  0  0  0  0  0  0  0  0  0  0  0
   36.1800   26.2650   41.4790 H   0  0  0  0  0  0  0  0  0  0  0  0
   36.4560   28.2130   39.5900 C   0  0  0  0  0  0  0  0  0  0  0  0
   35.8280   26.9840   39.3580 F   0  0  0  0  0  0  0  0  0  0  0  0
   35.5590   29.1900   39.2810 F   0  0  0  0  0  0  0  0  0  0  0  0
   37.5850   28.2150   38.7780 F   0  0  0  0  0  0  0  0  0  0  0  0
   42.1380   30.4910   37.2620 C   0  0  0  0  0  0  0  0  0  0  0  0
   42.7140   31.6940   36.8750 C   0  0  0  0  0  0  0  0  0  0  0  0
   42.1140   32.8790   37.2650 C   0  0  0  0  0  0  0  0  0  0  0  0
   40.9700   32.8150   38.0200 N   0  0  0  0  0  0  0  0  0  0  0  0
   40.4340   31.6370   38.3820 C   0  0  0  0  0  0  0  0  0  0  0  0
   41.0090   30.4930   38.0080 N   0  0  0  0  0  0  0  0  0  0  0  0
   42.6430   29.5930   36.9320 H   0  0  0  0  0  0  0  0  0  0  0  0
   43.5930   31.8380   36.2920 H   0  0  0  0  0  0  0  0  0  0  0  0
   42.3980   33.9050   37.0710 H   0  0  0  0  0  0  0  0  0  0  0  0
  1  2  2  0  0  0  0
  1  6  1  0  0  0  0
  2  3  1  0  0  0  0
  3  8  1  0  0  0  0
  3  4  2  0  0  0  0
  5  4  1  0  0  0  0
  5  9  1  0  0  0  0
  6  5  2  0  0  0  0
  7  2  1  0  0  0  0
  9 10  1  0  0  0  0
 10 15  1  0  0  0  0
 10 11  2  0  0  0  0
 11 16  1  0  0  0  0
 12 11  1  0  0  0  0
 12 17  1  0  0  0  0
 13 12  2  0  0  0  0
 14  9  2  0  0  0  0
 14 13  1  0  0  0  0
 18 13  1  0  0  0  0
 19 14  1  0  0  0  0
 20 19  1  0  0  0  0
 21 19  1  0  0  0  0
 22 19  1  0  0  0  0
 23 28  1  0  0  0  0
 24 23  2  0  0  0  0
 24 25  1  0  0  0  0
 25 26  2  0  0  0  0
 26 27  1  0  0  0  0
 27  1  1  0  0  0  0
 28 27  2  0  0  0  0
 29 23  1  0  0  0  0
 30 24  1  0  0  0  0
 31 25  1  0  0  0  0
M  END
>  <minimizedAffinity>
-5.35391951

$$$$

 OpenBabel03242521223D

 31 33  0  0  0  0  0  0  0  0999 V2000
   37.4460   29.1580   41.3470 C   0  0  0  0  0  0  0  0  0  0  0  0
   37.3590   29.4230   42.6800 C   0  0  0  0  0  0  0  0  0  0  0  0
   37.3850   28.4500   43.6610 C   0  0  0  0  0  0  0  0  0  0  0  0
   37.5060   27.1790   43.2100 N   0  0  0  0  0  0  0  0  0  0  0  0
   37.5920   26.9190   41.8970 C   0  0  0  0  0  0  0  0  0  0  0  0
   37.5670   27.8740   40.9340 N   0  0  0  0  0  0  0  0  0  0  0  0
   37.2610   30.4410   43.0320 H   0  0  0  0  0  0  0  0  0  0  0  0
   37.3170   28.6440   44.7100 H   0  0  0  0  0  0  0  0  0  0  0  0
   37.7250   25.5120   41.4380 C   0  0  0  0  0  0  0  0  0  0  0  0
   36.6390   24.8840   40.8600 C   0  0  0  0  0  0  0  0  0  0  0  0
   36.6520   23.5860   40.4000 C   0  0  0  0  0  0  0  0  0  0  0  0
   37.8550   22.8780   40.5410 C   0  0  0  0  0  0  0  0  0  0  0  0
   38.9250   23.5030   41.1140 C   0  0  0  0  0  0  0  0  0  0  0  0
   38.8930   24.8010   41.5660 C   0  0  0  0  0  0  0  0  0  0  0  0
   35.7230   25.4540   40.7620 H   0  0  0  0  0  0  0  0  0  0  0  0
   35.7640   23.1510   39.9550 H   0  0  0  0  0  0  0  0  0  0  0  0
   37.8870   21.8580   40.1880 H   0  0  0  0  0  0  0  0  0  0  0  0
   39.8350   22.9250   41.2050 H   0  0  0  0  0  0  0  0  0  0  0  0
   40.0720   25.4590   42.1860 C   0  0  0  0  0  0  0  0  0  0  0  0
   41.1830   24.6530   41.9110 F   0  0  0  0  0  0  0  0  0  0  0  0
   40.3430   26.7010   41.6980 F   0  0  0  0  0  0  0  0  0  0  0  0
   39.9170   25.4230   43.5680 F   0  0  0  0  0  0  0  0  0  0  0  0
   37.2850   32.5010   39.8500 C   0  0  0  0  0  0  0  0  0  0  0  0
   37.3510   32.2210   38.4910 C   0  0  0  0  0  0  0  0  0  0  0  0
   37.4490   30.9010   38.0840 C   0  0  0  0  0  0  0  0  0  0  0  0
   37.4790   29.9210   39.0440 N   0  0  0  0  0  0  0  0  0  0  0  0
   37.4130   30.2200   40.3520 C   0  0  0  0  0  0  0  0  0  0  0  0
   37.3180   31.4890   40.7490 N   0  0  0  0  0  0  0  0  0  0  0  0
   37.2090   33.5460   40.1180 H   0  0  0  0  0  0  0  0  0  0  0  0
   37.3360   32.9120   37.6820 H   0  0  0  0  0  0  0  0  0  0  0  0
   37.5120   30.4780   37.0910 H   0  0  0  0  0  0  0  0  0  0  0  0
  1  2  1  0  0  0  0
  2  7  1  0  0  0  0
  2  3  2  0  0  0  0
  3  8  1  0  0  0  0
  4  3  1  0  0  0  0
  5  4  2  0  0  0  0
  6  1  2  0  0  0  0
  6  5  1  0  0  0  0
  9 14  1  0  0  0  0
  9  5  1  0  0  0  0
 10  9  2  0  0  0  0
 11 12  2  0  0  0  0
 11 10  1  0  0  0  0
 12 13  1  0  0  0  0
 13 18  1  0  0  0  0
 13 14  2  0  0  0  0
 14 19  1  0  0  0  0
 15 10  1  0  0  0  0
 16 11  1  0  0  0  0
 17 12  1  0  0  0  0
 19 22  1  0  0  0  0
 20 19  1  0  0  0  0
 21 19  1  0  0  0  0
 23 29  1  0  0  0  0
 23 28  1  0  0  0  0
 24 23  2  0  0  0  0
 25 24  1  0  0  0  0
 25 26  2  0  0  0  0
 26 27  1  0  0  0  0
 27 28  2  0  0  0  0
 27  1  1  0  0  0  0
 30 24  1  0  0  0  0
 31 25  1  0  0  0  0
M  END
>  <minimizedAffinity>
-5.31578398

$$$$

 OpenBabel03242521223D

 31 33  0  0  0  0  0  0  0  0999 V2000
   38.7690   30.1530   38.1630 C   0  0  0  0  0  0  0  0  0  0  0  0
   37.6300   30.7370   37.6970 C   0  0  0  0  0  0  0  0  0  0  0  0
   36.3580   30.3580   38.0790 C   0  0  0  0  0  0  0  0  0  0  0  0
   36.3030   29.3410   38.9730 N   0  0  0  0  0  0  0  0  0  0  0  0
   37.4260   28.7660   39.4320 C   0  0  0  0  0  0  0  0  0  0  0  0
   38.6740   29.1390   39.0560 N   0  0  0  0  0  0  0  0  0  0  0  0
   37.6830   31.5480   36.9830 H   0  0  0  0  0  0  0  0  0  0  0  0
   35.4570   30.8070   37.7210 H   0  0  0  0  0  0  0  0  0  0  0  0
   37.3270   27.6540   40.4120 C   0  0  0  0  0  0  0  0  0  0  0  0
   37.1200   26.3660   39.9550 C   0  0  0  0  0  0  0  0  0  0  0  0
   37.0140   25.2640   40.7730 C   0  0  0  0  0  0  0  0  0  0  0  0
   37.1260   25.4890   42.1530 C   0  0  0  0  0  0  0  0  0  0  0  0
   37.3300   26.7630   42.5990 C   0  0  0  0  0  0  0  0  0  0  0  0
   37.4340   27.8510   41.7660 C   0  0  0  0  0  0  0  0  0  0  0  0
   37.0390   26.2210   38.8850 H   0  0  0  0  0  0  0  0  0  0  0  0
   36.8520   24.2790   40.3500 H   0  0  0  0  0  0  0  0  0  0  0  0
   37.0450   24.6380   42.8130 H   0  0  0  0  0  0  0  0  0  0  0  0
   37.4110   26.8970   43.6700 H   0  0  0  0  0  0  0  0  0  0  0  0
   37.6560   29.2280   42.2770 C   0  0  0  0  0  0  0  0  0  0  0  0
   37.5910   29.1630   43.6740 F   0  0  0  0  0  0  0  0  0  0  0  0
   38.8680   29.7590   41.9540 F   0  0  0  0  0  0  0  0  0  0  0  0
   36.5790   30.0180   41.8890 F   0  0  0  0  0  0  0  0  0  0  0  0
   41.5640   32.3330   37.2290 C   0  0  0  0  0  0  0  0  0  0  0  0
   42.5600   31.4190   36.9100 C   0  0  0  0  0  0  0  0  0  0  0  0
   42.2840   30.0660   37.0130 C   0  0  0  0  0  0  0  0  0  0  0  0
   41.0330   29.6840   37.4270 N   0  0  0  0  0  0  0  0  0  0  0  0
   40.0870   30.5900   37.7280 C   0  0  0  0  0  0  0  0  0  0  0  0
   40.3480   31.8930   37.6300 N   0  0  0  0  0  0  0  0  0  0  0  0
   41.8270   33.3780   37.1330 H   0  0  0  0  0  0  0  0  0  0  0  0
   43.5520   31.6240   36.5850 H   0  0  0  0  0  0  0  0  0  0  0  0
   42.9100   29.2070   36.8160 H   0  0  0  0  0  0  0  0  0  0  0  0
  1  6  1  0  0  0  0
  2  3  1  0  0  0  0
  2  1  2  0  0  0  0
  3  4  2  0  0  0  0
  4  5  1  0  0  0  0
  5  9  1  0  0  0  0
  6  5  2  0  0  0  0
  7  2  1  0  0  0  0
  8  3  1  0  0  0  0
  9 14  1  0  0  0  0
 10  9  2  0  0  0  0
 10 11  1  0  0  0  0
 11 12  2  0  0  0  0
 12 13  1  0  0  0  0
 12 17  1  0  0  0  0
 13 18  1  0  0  0  0
 14 19  1  0  0  0  0
 14 13  2  0  0  0  0
 15 10  1  0  0  0  0
 16 11  1  0  0  0  0
 19 20  1  0  0  0  0
 21 19  1  0  0  0  0
 22 19  1  0  0  0  0
 23 28  1  0  0  0  0
 24 25  1  0  0  0  0
 24 23  2  0  0  0  0
 25 26  2  0  0  0  0
 26 27  1  0  0  0  0
 27  1  1  0  0  0  0
 28 27  2  0  0  0  0
 29 23  1  0  0  0  0
 30 24  1  0  0  0  0
 31 25  1  0  0  0  0
M  END
>  <minimizedAffinity>
-5.26005697

$$$$

 OpenBabel03242521223D

 31 33  0  0  0  0  0  0  0  0999 V2000
   37.7860   26.6350   41.8040 C   0  0  0  0  0  0  0  0  0  0  0  0
   36.9870   26.6550   42.9060 C   0  0  0  0  0  0  0  0  0  0  0  0
   36.7610   27.7830   43.6720 C   0  0  0  0  0  0  0  0  0  0  0  0
   37.3970   28.9030   43.2520 N   0  0  0  0  0  0  0  0  0  0  0  0
   38.1840   28.8810   42.1660 C   0  0  0  0  0  0  0  0  0  0  0  0
   38.4050   27.7740   41.4140 N   0  0  0  0  0  0  0  0  0  0  0  0
   36.4830   25.7560   43.2350 H   0  0  0  0  0  0  0  0  0  0  0  0
   36.1370   27.8130   44.5390 H   0  0  0  0  0  0  0  0  0  0  0  0
   38.8660   30.1290   41.7340 C   0  0  0  0  0  0  0  0  0  0  0  0
   40.1590   30.3730   42.1540 C   0  0  0  0  0  0  0  0  0  0  0  0
   40.8830   31.4930   41.8140 C   0  0  0  0  0  0  0  0  0  0  0  0
   40.2450   32.4310   40.9900 C   0  0  0  0  0  0  0  0  0  0  0  0
   38.9670   32.1860   40.5780 C   0  0  0  0  0  0  0  0  0  0  0  0
   38.2600   31.0610   40.9270 C   0  0  0  0  0  0  0  0  0  0  0  0
   40.6290   29.6310   42.7890 H   0  0  0  0  0  0  0  0  0  0  0  0
   41.8970   31.6240   42.1780 H   0  0  0  0  0  0  0  0  0  0  0  0
   40.7950   33.3190   40.7120 H   0  0  0  0  0  0  0  0  0  0  0  0
   38.5080   32.9330   39.9430 H   0  0  0  0  0  0  0  0  0  0  0  0
   36.8690   30.8160   40.4650 C   0  0  0  0  0  0  0  0  0  0  0  0
   36.5660   31.8150   39.5320 F   0  0  0  0  0  0  0  0  0  0  0  0
   36.6840   29.6170   39.8480 F   0  0  0  0  0  0  0  0  0  0  0  0
   36.0080   31.0320   41.5360 F   0  0  0  0  0  0  0  0  0  0  0  0
   37.6520   23.1190   40.7710 C   0  0  0  0  0  0  0  0  0  0  0  0
   38.3750   23.1310   39.5850 C   0  0  0  0  0  0  0  0  0  0  0  0
   38.9060   24.3280   39.1370 C   0  0  0  0  0  0  0  0  0  0  0  0
   38.6950   25.4590   39.8860 N   0  0  0  0  0  0  0  0  0  0  0  0
   37.9920   25.4190   41.0310 C   0  0  0  0  0  0  0  0  0  0  0  0
   37.4790   24.2680   41.4660 N   0  0  0  0  0  0  0  0  0  0  0  0
   37.2570   22.1610   41.0800 H   0  0  0  0  0  0  0  0  0  0  0  0
   38.5860   22.3090   38.9430 H   0  0  0  0  0  0  0  0  0  0  0  0
   39.4890   24.5480   38.2530 H   0  0  0  0  0  0  0  0  0  0  0  0
  1  2  1  0  0  0  0
  2  7  1  0  0  0  0
  2  3  2  0  0  0  0
  3  8  1  0  0  0  0
  4  3  1  0  0  0  0
  5  4  2  0  0  0  0
  6  1  2  0  0  0  0
  6  5  1  0  0  0  0
  9 10  1  0  0  0  0
  9  5  1  0  0  0  0
 10 15  1  0  0  0  0
 11 10  2  0  0  0  0
 11 16  1  0  0  0  0
 12 11  1  0  0  0  0
 13 14  1  0  0  0  0
 13 12  2  0  0  0  0
 14  9  2  0  0  0  0
 17 12  1  0  0  0  0
 18 13  1  0  0  0  0
 19 14  1  0  0  0  0
 19 22  1  0  0  0  0
 20 19  1  0  0  0  0
 21 19  1  0  0  0  0
 23 29  1  0  0  0  0
 23 28  1  0  0  0  0
 24 23  2  0  0  0  0
 25 24  1  0  0  0  0
 25 26  2  0  0  0  0
 26 27  1  0  0  0  0
 27 28  2  0  0  0  0
 27  1  1  0  0  0  0
 30 24  1  0  0  0  0
 31 25  1  0  0  0  0
M  END
>  <minimizedAffinity>
-5.2290287

$$$$
