
 OpenBabel03242523193D

 32 34  0  0  0  0  0  0  0  0999 V2000
   47.3810   32.8090   44.0180 C   0  0  0  0  0  0  0  0  0  0  0  0
   48.2380   33.3100   43.1150 C   0  0  0  0  0  0  0  0  0  0  0  0
   49.0770   32.3820   42.5400 C   0  0  0  0  0  0  0  0  0  0  0  0
   48.9700   31.0360   42.9380 N   0  0  0  0  0  0  0  0  0  0  0  0
   48.1050   30.6210   43.8340 C   0  0  0  0  0  0  0  0  0  0  0  0
   47.2500   31.5190   44.4280 N   0  0  0  0  0  0  0  0  0  0  0  0
   49.8300   32.5750   41.7960 H   0  0  0  0  0  0  0  0  0  0  0  0
   48.1380   29.5550   44.0420 H   0  0  0  0  0  0  0  0  0  0  0  0
   48.4220   34.6840   42.7990 C   0  0  0  0  0  0  0  0  0  0  0  0
   49.4530   35.2680   42.1330 C   0  0  0  0  0  0  0  0  0  0  0  0
   48.2250   35.0970   41.2770 C   0  0  0  0  0  0  0  0  0  0  0  0
   47.9520   35.3720   43.5240 H   0  0  0  0  0  0  0  0  0  0  0  0
   49.7930   36.3290   42.1420 H   0  0  0  0  0  0  0  0  0  0  0  0
   50.3520   34.6400   41.8450 H   0  0  0  0  0  0  0  0  0  0  0  0
   48.2330   34.2370   40.6110 H   0  0  0  0  0  0  0  0  0  0  0  0
   47.5280   35.9350   41.1330 H   0  0  0  0  0  0  0  0  0  0  0  0
   46.3140   33.5440   44.7110 C   0  0  0  0  0  0  0  0  0  0  0  0
   45.7410   33.9280   45.6970 O   0  0  0  0  0  0  0  0  0  0  0  0
   44.5440   31.7610   42.9230 Cl  0  0  0  0  0  0  0  0  0  0  0  0
   44.5700   33.5130   42.7800 C   0  0  0  0  0  0  0  0  0  0  0  0
   45.4290   34.1770   43.6820 C   0  0  0  0  0  0  0  0  0  0  0  0
   45.3790   35.5500   43.4970 C   0  0  0  0  0  0  0  0  0  0  0  0
   44.6650   36.2710   42.6220 C   0  0  0  0  0  0  0  0  0  0  0  0
   43.8580   35.5540   41.7820 C   0  0  0  0  0  0  0  0  0  0  0  0
   43.8010   34.2080   41.8490 C   0  0  0  0  0  0  0  0  0  0  0  0
   45.9720   36.2260   44.1510 H   0  0  0  0  0  0  0  0  0  0  0  0
   44.6570   37.3380   42.5090 H   0  0  0  0  0  0  0  0  0  0  0  0
   43.2160   35.9670   41.0180 H   0  0  0  0  0  0  0  0  0  0  0  0
   42.9540   33.3020   40.9840 C   0  0  0  0  0  0  0  0  0  0  0  0
   43.7680   32.5280   40.2140 F   0  0  0  0  0  0  0  0  0  0  0  0
   42.2240   34.1090   40.1020 F   0  0  0  0  0  0  0  0  0  0  0  0
   42.0410   32.6010   41.7250 F   0  0  0  0  0  0  0  0  0  0  0  0
  1  6  1  0  0  0  0
  1 17  1  0  0  0  0
  2  1  2  0  0  0  0
  3  4  2  0  0  0  0
  3  2  1  0  0  0  0
  4  5  1  0  0  0  0
  5  8  1  0  0  0  0
  5  6  2  0  0  0  0
  7  3  1  0  0  0  0
  9  2  1  0  0  0  0
  9 12  1  0  0  0  0
 10 13  1  0  0  0  0
 10  9  1  0  0  0  0
 11 10  1  0  0  0  0
 11  9  1  0  0  0  0
 14 10  1  0  0  0  0
 15 11  1  0  0  0  0
 16 11  1  0  0  0  0
 17 18  2  0  0  0  0
 20 19  1  0  0  0  0
 20 21  1  0  0  0  0
 21 17  1  0  0  0  0
 22 21  2  0  0  0  0
 22 26  1  0  0  0  0
 23 22  1  0  0  0  0
 24 25  1  0  0  0  0
 24 23  2  0  0  0  0
 25 20  2  0  0  0  0
 27 23  1  0  0  0  0
 28 24  1  0  0  0  0
 29 32  1  0  0  0  0
 29 25  1  0  0  0  0
 30 29  1  0  0  0  0
 31 29  1  0  0  0  0
M  END
>  <minimizedAffinity>
-5.23156929

>  <minimizedRMSD>
0.2847417

$$$$
