
 OpenBabel03242519183D

 37 39  0  0  1  0  0  0  0  0999 V2000
   36.6870   26.6510   39.7330 C   0  0  0  0  0  0  0  0  0  0  0  0
   36.6840   25.2790   39.7330 C   0  0  0  0  0  0  0  0  0  0  0  0
   36.8250   24.5170   40.9000 C   0  0  0  0  0  0  0  0  0  0  0  0
   36.9640   25.2340   42.0390 N   0  0  0  0  0  0  0  0  0  0  0  0
   36.9660   26.5740   42.0350 C   0  0  0  0  0  0  0  0  0  0  0  0
   36.8310   27.2710   40.9010 N   0  0  0  0  0  0  0  0  0  0  0  0
   36.5670   24.7790   38.7760 H   0  0  0  0  0  0  0  0  0  0  0  0
   36.8180   23.4540   40.8630 H   0  0  0  0  0  0  0  0  0  0  0  0
   37.0940   27.3730   43.3000 C   0  0  2  0  0  0  0  0  0  0  0  0
   37.4520   28.8220   43.1920 C   0  0  0  0  0  0  0  0  0  0  0  0
   38.4740   27.7890   43.6800 C   0  0  2  0  0  0  0  0  0  0  0  0
   36.4060   27.0160   44.0910 H   0  0  0  0  0  0  0  0  0  0  0  0
   37.6740   29.2710   42.2140 H   0  0  0  0  0  0  0  0  0  0  0  0
   37.0160   29.5180   43.9450 H   0  0  0  0  0  0  0  0  0  0  0  0
   38.6940   27.8680   44.7500 H   0  0  0  0  0  0  0  0  0  0  0  0
   39.6310   27.4280   42.8100 C   0  0  0  0  0  0  0  0  0  0  0  0
   40.7820   27.8490   43.4840 F   0  0  0  0  0  0  0  0  0  0  0  0
   39.7650   26.0930   42.5350 F   0  0  0  0  0  0  0  0  0  0  0  0
   39.5740   28.1400   41.6260 F   0  0  0  0  0  0  0  0  0  0  0  0
   36.5280   27.4250   38.5160 C   0  0  0  0  0  0  0  0  0  0  0  0
   37.5020   27.8040   38.1430 H   0  0  0  0  0  0  0  0  0  0  0  0
   36.0910   26.8080   37.6800 H   0  0  0  0  0  0  0  0  0  0  0  0
   35.6280   28.5710   38.7270 C   0  0  0  0  0  0  0  0  0  0  0  0
   34.8070   28.6590   37.9840 H   0  0  0  0  0  0  0  0  0  0  0  0
   35.0970   28.4770   39.7170 H   0  0  0  0  0  0  0  0  0  0  0  0
   36.7700   29.5580   36.1730 Cl  0  0  0  0  0  0  0  0  0  0  0  0
   36.8920   30.4550   37.6530 C   0  0  0  0  0  0  0  0  0  0  0  0
   36.3310   29.8860   38.7730 C   0  0  0  0  0  0  0  0  0  0  0  0
   36.4370   30.5890   39.9670 C   0  0  0  0  0  0  0  0  0  0  0  0
   37.0780   31.8090   40.0180 C   0  0  0  0  0  0  0  0  0  0  0  0
   37.6380   32.3610   38.8560 C   0  0  0  0  0  0  0  0  0  0  0  0
   37.5280   31.6590   37.6870 C   0  0  0  0  0  0  0  0  0  0  0  0
   36.0310   30.2210   40.8800 H   0  0  0  0  0  0  0  0  0  0  0  0
   37.1610   32.3610   40.9500 H   0  0  0  0  0  0  0  0  0  0  0  0
   38.1340   33.3020   38.8890 H   0  0  0  0  0  0  0  0  0  0  0  0
   38.0560   32.1360   36.4810 O   0  0  0  0  0  0  0  0  0  0  0  0
   37.7810   31.7860   35.5990 H   0  0  0  0  0  0  0  0  0  0  0  0
  1  6  1  0  0  0  0
  2  1  2  0  0  0  0
  2  3  1  0  0  0  0
  3  4  2  0  0  0  0
  5  4  1  0  0  0  0
  5  9  1  0  0  0  0
  6  5  2  0  0  0  0
  7  2  1  0  0  0  0
  8  3  1  0  0  0  0
  9 11  1  0  0  0  0
  9 12  1  1  0  0  0
 10  9  1  0  0  0  0
 10 11  1  0  0  0  0
 10 14  1  0  0  0  0
 11 15  1  1  0  0  0
 13 10  1  0  0  0  0
 16 17  1  0  0  0  0
 16 11  1  0  0  0  0
 18 16  1  0  0  0  0
 19 16  1  0  0  0  0
 20 23  1  0  0  0  0
 20  1  1  0  0  0  0
 21 20  1  0  0  0  0
 22 20  1  0  0  0  0
 23 28  1  0  0  0  0
 23 25  1  0  0  0  0
 24 23  1  0  0  0  0
 26 27  1  0  0  0  0
 27 32  2  0  0  0  0
 27 28  1  0  0  0  0
 28 29  2  0  0  0  0
 29 30  1  0  0  0  0
 29 33  1  0  0  0  0
 30 34  1  0  0  0  0
 31 35  1  0  0  0  0
 31 30  2  0  0  0  0
 32 31  1  0  0  0  0
 36 32  1  0  0  0  0
 37 36  1  0  0  0  0
M  END
>  <minimizedAffinity>
-5.8901329

$$$$

 OpenBabel03242519183D

 37 39  0  0  1  0  0  0  0  0999 V2000
   37.1130   28.9580   42.3220 C   0  0  0  0  0  0  0  0  0  0  0  0
   36.1330   28.3130   41.6110 C   0  0  0  0  0  0  0  0  0  0  0  0
   35.5020   28.8800   40.4970 C   0  0  0  0  0  0  0  0  0  0  0  0
   35.9310   30.1210   40.1660 N   0  0  0  0  0  0  0  0  0  0  0  0
   36.8880   30.7480   40.8630 C   0  0  0  0  0  0  0  0  0  0  0  0
   37.4690   30.1760   41.9240 N   0  0  0  0  0  0  0  0  0  0  0  0
   35.8470   27.3190   41.9420 H   0  0  0  0  0  0  0  0  0  0  0  0
   34.7460   28.3520   39.9680 H   0  0  0  0  0  0  0  0  0  0  0  0
   37.3840   32.1120   40.4830 C   0  0  2  0  0  0  0  0  0  0  0  0
   37.1590   32.5860   39.0820 C   0  0  0  0  0  0  0  0  0  0  0  0
   38.5510   32.1550   39.5580 C   0  0  2  0  0  0  0  0  0  0  0  0
   37.3500   32.8220   41.3340 H   0  0  0  0  0  0  0  0  0  0  0  0
   36.6970   31.9240   38.3370 H   0  0  0  0  0  0  0  0  0  0  0  0
   36.9760   33.6740   38.9280 H   0  0  0  0  0  0  0  0  0  0  0  0
   39.2490   32.9930   39.6740 H   0  0  0  0  0  0  0  0  0  0  0  0
   39.1480   30.8880   39.0440 C   0  0  0  0  0  0  0  0  0  0  0  0
   40.2160   31.2550   38.2210 F   0  0  0  0  0  0  0  0  0  0  0  0
   39.6240   30.0330   40.0030 F   0  0  0  0  0  0  0  0  0  0  0  0
   38.2330   30.2230   38.2470 F   0  0  0  0  0  0  0  0  0  0  0  0
   37.7650   28.3500   43.4680 C   0  0  0  0  0  0  0  0  0  0  0  0
   38.5590   29.0060   43.8800 H   0  0  0  0  0  0  0  0  0  0  0  0
   37.0410   28.1650   44.3130 H   0  0  0  0  0  0  0  0  0  0  0  0
   38.3630   27.0530   43.1150 C   0  0  0  0  0  0  0  0  0  0  0  0
   38.0250   26.2000   43.7420 H   0  0  0  0  0  0  0  0  0  0  0  0
   38.0710   26.7580   42.0670 H   0  0  0  0  0  0  0  0  0  0  0  0
   39.6940   24.4050   43.2410 Cl  0  0  0  0  0  0  0  0  0  0  0  0
   40.5870   25.8910   43.1750 C   0  0  0  0  0  0  0  0  0  0  0  0
   39.8540   27.0550   43.1300 C   0  0  0  0  0  0  0  0  0  0  0  0
   40.5600   28.2520   43.0910 C   0  0  0  0  0  0  0  0  0  0  0  0
   41.9380   28.2630   43.0970 C   0  0  0  0  0  0  0  0  0  0  0  0
   42.6550   27.0580   43.1420 C   0  0  0  0  0  0  0  0  0  0  0  0
   41.9490   25.8860   43.1800 C   0  0  0  0  0  0  0  0  0  0  0  0
   40.0710   29.1970   43.0550 H   0  0  0  0  0  0  0  0  0  0  0  0
   42.4920   29.1970   43.0660 H   0  0  0  0  0  0  0  0  0  0  0  0
   43.7190   27.0600   43.1460 H   0  0  0  0  0  0  0  0  0  0  0  0
   42.5820   24.6380   43.2250 O   0  0  0  0  0  0  0  0  0  0  0  0
   42.1210   23.7930   43.0030 H   0  0  0  0  0  0  0  0  0  0  0  0
  1 20  1  0  0  0  0
  2  7  1  0  0  0  0
  2  1  2  0  0  0  0
  3  2  1  0  0  0  0
  4  3  2  0  0  0  0
  4  5  1  0  0  0  0
  5  6  2  0  0  0  0
  6  1  1  0  0  0  0
  8  3  1  0  0  0  0
  9  5  1  0  0  0  0
  9 12  1  1  0  0  0
 10 11  1  0  0  0  0
 10  9  1  0  0  0  0
 11 15  1  1  0  0  0
 11  9  1  0  0  0  0
 13 10  1  0  0  0  0
 14 10  1  0  0  0  0
 16 11  1  0  0  0  0
 16 18  1  0  0  0  0
 17 16  1  0  0  0  0
 19 16  1  0  0  0  0
 20 21  1  0  0  0  0
 20 22  1  0  0  0  0
 23 28  1  0  0  0  0
 23 20  1  0  0  0  0
 23 24  1  0  0  0  0
 25 23  1  0  0  0  0
 27 32  1  0  0  0  0
 27 26  1  0  0  0  0
 28 27  2  0  0  0  0
 29 30  2  0  0  0  0
 29 28  1  0  0  0  0
 30 31  1  0  0  0  0
 31 35  1  0  0  0  0
 31 32  2  0  0  0  0
 32 36  1  0  0  0  0
 33 29  1  0  0  0  0
 34 30  1  0  0  0  0
 37 36  1  0  0  0  0
M  END
>  <minimizedAffinity>
-5.86413479

$$$$

 OpenBabel03242519183D

 37 39  0  0  1  0  0  0  0  0999 V2000
   36.8600   26.3870   39.7680 C   0  0  0  0  0  0  0  0  0  0  0  0
   36.6570   25.0310   39.8210 C   0  0  0  0  0  0  0  0  0  0  0  0
   36.6920   24.3020   41.0160 C   0  0  0  0  0  0  0  0  0  0  0  0
   36.9420   25.0340   42.1270 N   0  0  0  0  0  0  0  0  0  0  0  0
   37.1400   26.3590   42.0710 C   0  0  0  0  0  0  0  0  0  0  0  0
   37.1010   27.0230   40.9110 N   0  0  0  0  0  0  0  0  0  0  0  0
   36.4610   24.5170   38.8840 H   0  0  0  0  0  0  0  0  0  0  0  0
   36.5290   23.2510   41.0210 H   0  0  0  0  0  0  0  0  0  0  0  0
   37.3920   27.1780   43.3030 C   0  0  2  0  0  0  0  0  0  0  0  0
   37.9750   28.5460   43.1410 C   0  0  0  0  0  0  0  0  0  0  0  0
   38.8190   27.3850   43.6770 C   0  0  2  0  0  0  0  0  0  0  0  0
   36.6540   26.9680   44.1030 H   0  0  0  0  0  0  0  0  0  0  0  0
   38.2670   28.9130   42.1470 H   0  0  0  0  0  0  0  0  0  0  0  0
   37.6550   29.3330   43.8610 H   0  0  0  0  0  0  0  0  0  0  0  0
   39.0470   27.4710   44.7460 H   0  0  0  0  0  0  0  0  0  0  0  0
   39.9060   26.8090   42.8320 C   0  0  0  0  0  0  0  0  0  0  0  0
   41.1080   27.0690   43.4970 F   0  0  0  0  0  0  0  0  0  0  0  0
   39.8260   25.4600   42.6110 F   0  0  0  0  0  0  0  0  0  0  0  0
   39.9640   27.4730   41.6200 F   0  0  0  0  0  0  0  0  0  0  0  0
   36.8080   27.1280   38.5220 C   0  0  0  0  0  0  0  0  0  0  0  0
   37.7970   27.5590   38.2620 H   0  0  0  0  0  0  0  0  0  0  0  0
   36.5150   26.4710   37.6530 H   0  0  0  0  0  0  0  0  0  0  0  0
   35.8250   28.2210   38.5920 C   0  0  0  0  0  0  0  0  0  0  0  0
   34.9940   28.1460   37.8580 H   0  0  0  0  0  0  0  0  0  0  0  0
   35.3090   28.2220   39.5950 H   0  0  0  0  0  0  0  0  0  0  0  0
   35.5760   30.0350   40.9260 Cl  0  0  0  0  0  0  0  0  0  0  0  0
   36.3850   30.5070   39.4660 C   0  0  0  0  0  0  0  0  0  0  0  0
   36.4240   29.5800   38.4500 C   0  0  0  0  0  0  0  0  0  0  0  0
   37.0570   29.9520   37.2700 C   0  0  0  0  0  0  0  0  0  0  0  0
   37.6210   31.2030   37.1310 C   0  0  0  0  0  0  0  0  0  0  0  0
   37.5630   32.1240   38.1880 C   0  0  0  0  0  0  0  0  0  0  0  0
   36.9380   31.7450   39.3440 C   0  0  0  0  0  0  0  0  0  0  0  0
   37.1320   29.2960   36.4350 H   0  0  0  0  0  0  0  0  0  0  0  0
   38.1160   31.4960   36.2100 H   0  0  0  0  0  0  0  0  0  0  0  0
   37.9970   33.0910   38.0870 H   0  0  0  0  0  0  0  0  0  0  0  0
   36.8360   32.6000   40.4480 O   0  0  0  0  0  0  0  0  0  0  0  0
   36.6220   32.2800   41.3580 H   0  0  0  0  0  0  0  0  0  0  0  0
  1  2  2  0  0  0  0
  1  6  1  0  0  0  0
  2  3  1  0  0  0  0
  3  8  1  0  0  0  0
  3  4  2  0  0  0  0
  5  4  1  0  0  0  0
  5  9  1  0  0  0  0
  6  5  2  0  0  0  0
  7  2  1  0  0  0  0
  9 11  1  0  0  0  0
  9 12  1  1  0  0  0
 10  9  1  0  0  0  0
 10 11  1  0  0  0  0
 10 14  1  0  0  0  0
 11 15  1  1  0  0  0
 13 10  1  0  0  0  0
 16 17  1  0  0  0  0
 16 11  1  0  0  0  0
 18 16  1  0  0  0  0
 19 16  1  0  0  0  0
 20 23  1  0  0  0  0
 20  1  1  0  0  0  0
 21 20  1  0  0  0  0
 22 20  1  0  0  0  0
 23 25  1  0  0  0  0
 24 23  1  0  0  0  0
 27 26  1  0  0  0  0
 28 23  1  0  0  0  0
 28 27  2  0  0  0  0
 29 28  1  0  0  0  0
 30 29  2  0  0  0  0
 30 31  1  0  0  0  0
 31 32  2  0  0  0  0
 32 27  1  0  0  0  0
 32 36  1  0  0  0  0
 33 29  1  0  0  0  0
 34 30  1  0  0  0  0
 35 31  1  0  0  0  0
 36 37  1  0  0  0  0
M  END
>  <minimizedAffinity>
-5.83371305

$$$$

 OpenBabel03242519183D

 37 39  0  0  1  0  0  0  0  0999 V2000
   36.6550   28.0240   41.5570 C   0  0  0  0  0  0  0  0  0  0  0  0
   36.9630   28.1650   42.8870 C   0  0  0  0  0  0  0  0  0  0  0  0
   38.0420   27.5090   43.4920 C   0  0  0  0  0  0  0  0  0  0  0  0
   38.7680   26.7190   42.6670 N   0  0  0  0  0  0  0  0  0  0  0  0
   38.4640   26.5840   41.3690 C   0  0  0  0  0  0  0  0  0  0  0  0
   37.4250   27.2250   40.8230 N   0  0  0  0  0  0  0  0  0  0  0  0
   36.3300   28.8190   43.4800 H   0  0  0  0  0  0  0  0  0  0  0  0
   38.2520   27.6410   44.5260 H   0  0  0  0  0  0  0  0  0  0  0  0
   39.2830   25.7290   40.4460 C   0  0  2  0  0  0  0  0  0  0  0  0
   38.6370   25.2060   39.2010 C   0  0  0  0  0  0  0  0  0  0  0  0
   38.9220   24.2840   40.3920 C   0  0  2  0  0  0  0  0  0  0  0  0
   40.3540   26.0140   40.4520 H   0  0  0  0  0  0  0  0  0  0  0  0
   37.5730   25.3950   39.0040 H   0  0  0  0  0  0  0  0  0  0  0  0
   39.2750   25.0980   38.2950 H   0  0  0  0  0  0  0  0  0  0  0  0
   39.7360   23.5740   40.2060 H   0  0  0  0  0  0  0  0  0  0  0  0
   37.7890   23.7640   41.2110 C   0  0  0  0  0  0  0  0  0  0  0  0
   38.2070   23.8100   42.5440 F   0  0  0  0  0  0  0  0  0  0  0  0
   36.6190   24.4680   41.1080 F   0  0  0  0  0  0  0  0  0  0  0  0
   37.5570   22.4350   40.9060 F   0  0  0  0  0  0  0  0  0  0  0  0
   35.5400   28.7210   40.9430 C   0  0  0  0  0  0  0  0  0  0  0  0
   34.6030   28.1310   41.0120 H   0  0  0  0  0  0  0  0  0  0  0  0
   35.3290   29.7060   41.4500 H   0  0  0  0  0  0  0  0  0  0  0  0
   35.8090   29.0110   39.5250 C   0  0  0  0  0  0  0  0  0  0  0  0
   36.3990   28.2320   38.9960 H   0  0  0  0  0  0  0  0  0  0  0  0
   34.8440   29.0680   38.9460 H   0  0  0  0  0  0  0  0  0  0  0  0
   36.8760   29.4970   36.8000 Cl  0  0  0  0  0  0  0  0  0  0  0  0
   37.0160   30.6660   38.0740 C   0  0  0  0  0  0  0  0  0  0  0  0
   36.4900   30.3180   39.2970 C   0  0  0  0  0  0  0  0  0  0  0  0
   36.6100   31.2410   40.3290 C   0  0  0  0  0  0  0  0  0  0  0  0
   37.2300   32.4560   40.1260 C   0  0  0  0  0  0  0  0  0  0  0  0
   37.7550   32.7790   38.8660 C   0  0  0  0  0  0  0  0  0  0  0  0
   37.6310   31.8610   37.8580 C   0  0  0  0  0  0  0  0  0  0  0  0
   36.2310   31.0520   41.3060 H   0  0  0  0  0  0  0  0  0  0  0  0
   37.3250   33.1800   40.9310 H   0  0  0  0  0  0  0  0  0  0  0  0
   38.2350   33.7140   38.7030 H   0  0  0  0  0  0  0  0  0  0  0  0
   38.1240   32.1020   36.5700 O   0  0  0  0  0  0  0  0  0  0  0  0
   37.8360   31.5840   35.7790 H   0  0  0  0  0  0  0  0  0  0  0  0
  1  2  1  0  0  0  0
  2  7  1  0  0  0  0
  2  3  2  0  0  0  0
  3  8  1  0  0  0  0
  4  3  1  0  0  0  0
  5  4  2  0  0  0  0
  6  5  1  0  0  0  0
  6  1  2  0  0  0  0
  9 12  1  6  0  0  0
  9  5  1  0  0  0  0
 10 11  1  0  0  0  0
 10  9  1  0  0  0  0
 11 15  1  6  0  0  0
 11  9  1  0  0  0  0
 11 16  1  0  0  0  0
 13 10  1  0  0  0  0
 14 10  1  0  0  0  0
 16 17  1  0  0  0  0
 18 16  1  0  0  0  0
 19 16  1  0  0  0  0
 20 21  1  0  0  0  0
 20 22  1  0  0  0  0
 20  1  1  0  0  0  0
 23 20  1  0  0  0  0
 24 23  1  0  0  0  0
 25 23  1  0  0  0  0
 26 27  1  0  0  0  0
 27 28  1  0  0  0  0
 28 23  1  0  0  0  0
 28 29  2  0  0  0  0
 29 33  1  0  0  0  0
 30 29  1  0  0  0  0
 30 34  1  0  0  0  0
 31 30  2  0  0  0  0
 32 27  2  0  0  0  0
 32 31  1  0  0  0  0
 35 31  1  0  0  0  0
 36 32  1  0  0  0  0
 37 36  1  0  0  0  0
M  END
>  <minimizedAffinity>
-5.78950119

$$$$

 OpenBabel03242519183D

 37 39  0  0  1  0  0  0  0  0999 V2000
   37.4590   28.9490   42.1200 C   0  0  0  0  0  0  0  0  0  0  0  0
   38.7090   29.0700   42.6720 C   0  0  0  0  0  0  0  0  0  0  0  0
   39.4560   27.9710   43.1140 C   0  0  0  0  0  0  0  0  0  0  0  0
   38.8540   26.7690   42.9580 N   0  0  0  0  0  0  0  0  0  0  0  0
   37.6320   26.6540   42.4190 C   0  0  0  0  0  0  0  0  0  0  0  0
   36.9460   27.7270   42.0080 N   0  0  0  0  0  0  0  0  0  0  0  0
   39.1220   30.0710   42.7610 H   0  0  0  0  0  0  0  0  0  0  0  0
   40.4230   28.1010   43.5370 H   0  0  0  0  0  0  0  0  0  0  0  0
   36.9720   25.3210   42.2200 C   0  0  2  0  0  0  0  0  0  0  0  0
   37.8380   24.1330   41.9450 C   0  0  0  0  0  0  0  0  0  0  0  0
   36.9980   24.7730   40.8350 C   0  0  2  0  0  0  0  0  0  0  0  0
   36.0450   25.2200   42.8190 H   0  0  0  0  0  0  0  0  0  0  0  0
   38.9250   24.2490   41.8310 H   0  0  0  0  0  0  0  0  0  0  0  0
   37.5070   23.1480   42.3460 H   0  0  0  0  0  0  0  0  0  0  0  0
   36.1440   24.1580   40.5270 H   0  0  0  0  0  0  0  0  0  0  0  0
   37.6720   25.5320   39.7410 C   0  0  0  0  0  0  0  0  0  0  0  0
   36.8040   26.5650   39.3790 F   0  0  0  0  0  0  0  0  0  0  0  0
   38.8800   26.0870   40.0710 F   0  0  0  0  0  0  0  0  0  0  0  0
   37.8240   24.7230   38.6290 F   0  0  0  0  0  0  0  0  0  0  0  0
   36.7040   30.0970   41.6560 C   0  0  0  0  0  0  0  0  0  0  0  0
   35.8440   29.7930   41.0240 H   0  0  0  0  0  0  0  0  0  0  0  0
   36.2680   30.6880   42.5130 H   0  0  0  0  0  0  0  0  0  0  0  0
   37.5530   31.0160   40.8810 C   0  0  0  0  0  0  0  0  0  0  0  0
   37.4180   32.0920   41.1260 H   0  0  0  0  0  0  0  0  0  0  0  0
   38.6420   30.8190   41.0940 H   0  0  0  0  0  0  0  0  0  0  0  0
   39.2310   32.7890   39.1950 Cl  0  0  0  0  0  0  0  0  0  0  0  0
   38.1330   31.6300   38.5170 C   0  0  0  0  0  0  0  0  0  0  0  0
   37.4020   30.8730   39.4040 C   0  0  0  0  0  0  0  0  0  0  0  0
   36.5080   29.9520   38.8720 C   0  0  0  0  0  0  0  0  0  0  0  0
   36.3670   29.8070   37.5080 C   0  0  0  0  0  0  0  0  0  0  0  0
   37.1290   30.5940   36.6310 C   0  0  0  0  0  0  0  0  0  0  0  0
   38.0050   31.4980   37.1680 C   0  0  0  0  0  0  0  0  0  0  0  0
   35.9040   29.3270   39.4870 H   0  0  0  0  0  0  0  0  0  0  0  0
   35.6690   29.0870   37.0890 H   0  0  0  0  0  0  0  0  0  0  0  0
   37.0240   30.4870   35.5780 H   0  0  0  0  0  0  0  0  0  0  0  0
   38.8050   32.3220   36.3680 O   0  0  0  0  0  0  0  0  0  0  0  0
   39.6060   32.7900   36.7090 H   0  0  0  0  0  0  0  0  0  0  0  0
  1  2  1  0  0  0  0
  2  7  1  0  0  0  0
  2  3  2  0  0  0  0
  3  8  1  0  0  0  0
  4  3  1  0  0  0  0
  5  4  2  0  0  0  0
  6  1  2  0  0  0  0
  6  5  1  0  0  0  0
  9  5  1  0  0  0  0
  9 12  1  1  0  0  0
 10  9  1  0  0  0  0
 10 14  1  0  0  0  0
 11 15  1  6  0  0  0
 11 10  1  0  0  0  0
 11  9  1  0  0  0  0
 13 10  1  0  0  0  0
 16 18  1  0  0  0  0
 16 11  1  0  0  0  0
 17 16  1  0  0  0  0
 19 16  1  0  0  0  0
 20  1  1  0  0  0  0
 20 22  1  0  0  0  0
 21 20  1  0  0  0  0
 23 25  1  0  0  0  0
 23 24  1  0  0  0  0
 23 20  1  0  0  0  0
 27 26  1  0  0  0  0
 27 28  1  0  0  0  0
 28 23  1  0  0  0  0
 29 28  2  0  0  0  0
 29 33  1  0  0  0  0
 30 29  1  0  0  0  0
 31 32  1  0  0  0  0
 31 30  2  0  0  0  0
 32 27  2  0  0  0  0
 34 30  1  0  0  0  0
 35 31  1  0  0  0  0
 36 37  1  0  0  0  0
 36 32  1  0  0  0  0
M  END
>  <minimizedAffinity>
-5.75027037

$$$$

 OpenBabel03242519183D

 37 39  0  0  1  0  0  0  0  0999 V2000
   37.2560   26.7160   39.2010 C   0  0  0  0  0  0  0  0  0  0  0  0
   38.4570   26.1670   38.8300 C   0  0  0  0  0  0  0  0  0  0  0  0
   39.3940   25.6880   39.7550 C   0  0  0  0  0  0  0  0  0  0  0  0
   39.0280   25.8050   41.0530 N   0  0  0  0  0  0  0  0  0  0  0  0
   37.8540   26.3410   41.4120 C   0  0  0  0  0  0  0  0  0  0  0  0
   36.9830   26.7900   40.5010 N   0  0  0  0  0  0  0  0  0  0  0  0
   38.6740   26.1100   37.7670 H   0  0  0  0  0  0  0  0  0  0  0  0
   40.3160   25.2680   39.4320 H   0  0  0  0  0  0  0  0  0  0  0  0
   37.4340   26.4480   42.8490 C   0  0  2  0  0  0  0  0  0  0  0  0
   36.4330   27.4960   43.2210 C   0  0  0  0  0  0  0  0  0  0  0  0
   37.9140   27.6500   43.5880 C   0  0  2  0  0  0  0  0  0  0  0  0
   37.4430   25.4660   43.3610 H   0  0  0  0  0  0  0  0  0  0  0  0
   36.0640   28.2070   42.4690 H   0  0  0  0  0  0  0  0  0  0  0  0
   35.7170   27.2580   44.0400 H   0  0  0  0  0  0  0  0  0  0  0  0
   38.1100   27.5310   44.6600 H   0  0  0  0  0  0  0  0  0  0  0  0
   38.7440   28.6760   42.8920 C   0  0  0  0  0  0  0  0  0  0  0  0
   40.0640   28.2190   42.9410 F   0  0  0  0  0  0  0  0  0  0  0  0
   38.4210   28.9010   41.5800 F   0  0  0  0  0  0  0  0  0  0  0  0
   38.7030   29.8700   43.5890 F   0  0  0  0  0  0  0  0  0  0  0  0
   36.2910   27.1960   38.2300 C   0  0  0  0  0  0  0  0  0  0  0  0
   36.7810   27.4810   37.2750 H   0  0  0  0  0  0  0  0  0  0  0  0
   35.5300   26.4070   37.9670 H   0  0  0  0  0  0  0  0  0  0  0  0
   35.5520   28.3600   38.7430 C   0  0  0  0  0  0  0  0  0  0  0  0
   34.5190   28.4670   38.3460 H   0  0  0  0  0  0  0  0  0  0  0  0
   35.4120   28.2760   39.8590 H   0  0  0  0  0  0  0  0  0  0  0  0
   35.6210   30.2360   41.0410 Cl  0  0  0  0  0  0  0  0  0  0  0  0
   36.3600   30.6080   39.5160 C   0  0  0  0  0  0  0  0  0  0  0  0
   36.2500   29.6600   38.5240 C   0  0  0  0  0  0  0  0  0  0  0  0
   36.8250   29.9550   37.2940 C   0  0  0  0  0  0  0  0  0  0  0  0
   37.4800   31.1500   37.0840 C   0  0  0  0  0  0  0  0  0  0  0  0
   37.5740   32.0940   38.1180 C   0  0  0  0  0  0  0  0  0  0  0  0
   37.0030   31.7930   39.3240 C   0  0  0  0  0  0  0  0  0  0  0  0
   36.7860   29.2770   36.4730 H   0  0  0  0  0  0  0  0  0  0  0  0
   37.9310   31.3820   36.1240 H   0  0  0  0  0  0  0  0  0  0  0  0
   38.0780   33.0180   37.9630 H   0  0  0  0  0  0  0  0  0  0  0  0
   37.0510   32.6750   40.4100 O   0  0  0  0  0  0  0  0  0  0  0  0
   36.8770   32.3930   41.3410 H   0  0  0  0  0  0  0  0  0  0  0  0
  1  6  1  0  0  0  0
  2  1  2  0  0  0  0
  2  3  1  0  0  0  0
  3  4  2  0  0  0  0
  4  5  1  0  0  0  0
  5  9  1  0  0  0  0
  6  5  2  0  0  0  0
  7  2  1  0  0  0  0
  8  3  1  0  0  0  0
  9 10  1  0  0  0  0
  9 12  1  1  0  0  0
  9 11  1  0  0  0  0
 10 11  1  0  0  0  0
 10 14  1  0  0  0  0
 11 15  1  1  0  0  0
 13 10  1  0  0  0  0
 16 17  1  0  0  0  0
 16 11  1  0  0  0  0
 16 19  1  0  0  0  0
 18 16  1  0  0  0  0
 20 23  1  0  0  0  0
 20  1  1  0  0  0  0
 21 20  1  0  0  0  0
 22 20  1  0  0  0  0
 23 25  1  0  0  0  0
 24 23  1  0  0  0  0
 27 26  1  0  0  0  0
 28 23  1  0  0  0  0
 28 27  2  0  0  0  0
 29 28  1  0  0  0  0
 30 29  2  0  0  0  0
 30 31  1  0  0  0  0
 31 32  2  0  0  0  0
 32 27  1  0  0  0  0
 32 36  1  0  0  0  0
 33 29  1  0  0  0  0
 34 30  1  0  0  0  0
 35 31  1  0  0  0  0
 36 37  1  0  0  0  0
M  END
>  <minimizedAffinity>
-5.68578768

$$$$

 OpenBabel03242519183D

 37 39  0  0  1  0  0  0  0  0999 V2000
   36.8670   28.3900   39.4710 C   0  0  0  0  0  0  0  0  0  0  0  0
   36.8720   28.4400   38.1000 C   0  0  0  0  0  0  0  0  0  0  0  0
   36.9000   29.6420   37.3820 C   0  0  0  0  0  0  0  0  0  0  0  0
   36.9210   30.7630   38.1410 N   0  0  0  0  0  0  0  0  0  0  0  0
   36.9150   30.7100   39.4800 C   0  0  0  0  0  0  0  0  0  0  0  0
   36.8880   29.5430   40.1340 N   0  0  0  0  0  0  0  0  0  0  0  0
   36.8550   27.4950   37.5660 H   0  0  0  0  0  0  0  0  0  0  0  0
   36.9040   29.6440   36.3190 H   0  0  0  0  0  0  0  0  0  0  0  0
   36.9650   31.9490   40.3250 C   0  0  2  0  0  0  0  0  0  0  0  0
   37.4130   33.2270   39.6880 C   0  0  0  0  0  0  0  0  0  0  0  0
   38.3220   32.4650   40.6590 C   0  0  2  0  0  0  0  0  0  0  0  0
   36.1830   31.9520   41.1110 H   0  0  0  0  0  0  0  0  0  0  0  0
   37.7550   33.2390   38.6430 H   0  0  0  0  0  0  0  0  0  0  0  0
   36.9480   34.1730   40.0450 H   0  0  0  0  0  0  0  0  0  0  0  0
   38.4410   32.9670   41.6260 H   0  0  0  0  0  0  0  0  0  0  0  0
   39.5360   31.7690   40.1420 C   0  0  0  0  0  0  0  0  0  0  0  0
   40.6390   32.4250   40.6970 F   0  0  0  0  0  0  0  0  0  0  0  0
   39.6300   30.4400   40.4590 F   0  0  0  0  0  0  0  0  0  0  0  0
   39.6230   31.9240   38.7700 F   0  0  0  0  0  0  0  0  0  0  0  0
   36.8510   27.1360   40.2000 C   0  0  0  0  0  0  0  0  0  0  0  0
   35.9590   26.5270   39.9450 H   0  0  0  0  0  0  0  0  0  0  0  0
   37.7470   26.4960   39.9550 H   0  0  0  0  0  0  0  0  0  0  0  0
   36.8630   27.3630   41.6540 C   0  0  0  0  0  0  0  0  0  0  0  0
   36.6880   28.4170   41.9600 H   0  0  0  0  0  0  0  0  0  0  0  0
   36.0290   26.7890   42.1490 H   0  0  0  0  0  0  0  0  0  0  0  0
   37.1740   24.4380   42.0360 Cl  0  0  0  0  0  0  0  0  0  0  0  0
   38.3810   25.5750   42.5470 C   0  0  0  0  0  0  0  0  0  0  0  0
   38.1150   26.9070   42.3230 C   0  0  0  0  0  0  0  0  0  0  0  0
   39.0690   27.8270   42.7420 C   0  0  0  0  0  0  0  0  0  0  0  0
   40.2330   27.4140   43.3540 C   0  0  0  0  0  0  0  0  0  0  0  0
   40.4730   26.0480   43.5660 C   0  0  0  0  0  0  0  0  0  0  0  0
   39.5260   25.1520   43.1500 C   0  0  0  0  0  0  0  0  0  0  0  0
   38.9420   28.8750   42.6080 H   0  0  0  0  0  0  0  0  0  0  0  0
   40.9800   28.1310   43.6820 H   0  0  0  0  0  0  0  0  0  0  0  0
   41.3700   25.7220   44.0380 H   0  0  0  0  0  0  0  0  0  0  0  0
   39.6850   23.7710   43.3190 O   0  0  0  0  0  0  0  0  0  0  0  0
   39.1560   23.1030   42.8180 H   0  0  0  0  0  0  0  0  0  0  0  0
  1  6  1  0  0  0  0
  1 20  1  0  0  0  0
  2  1  2  0  0  0  0
  3  2  1  0  0  0  0
  3  4  2  0  0  0  0
  4  5  1  0  0  0  0
  5  6  2  0  0  0  0
  5  9  1  0  0  0  0
  7  2  1  0  0  0  0
  8  3  1  0  0  0  0
  9 11  1  0  0  0  0
  9 12  1  1  0  0  0
 10 14  1  0  0  0  0
 10  9  1  0  0  0  0
 10 11  1  0  0  0  0
 11 15  1  1  0  0  0
 13 10  1  0  0  0  0
 16 18  1  0  0  0  0
 16 11  1  0  0  0  0
 16 17  1  0  0  0  0
 19 16  1  0  0  0  0
 20 23  1  0  0  0  0
 21 20  1  0  0  0  0
 22 20  1  0  0  0  0
 23 24  1  0  0  0  0
 23 25  1  0  0  0  0
 23 28  1  0  0  0  0
 26 27  1  0  0  0  0
 27 32  1  0  0  0  0
 28 27  2  0  0  0  0
 28 29  1  0  0  0  0
 29 30  2  0  0  0  0
 30 31  1  0  0  0  0
 30 34  1  0  0  0  0
 31 35  1  0  0  0  0
 32 36  1  0  0  0  0
 32 31  2  0  0  0  0
 33 29  1  0  0  0  0
 37 36  1  0  0  0  0
M  END
>  <minimizedAffinity>
-5.67512655

$$$$

 OpenBabel03242519183D

 37 39  0  0  1  0  0  0  0  0999 V2000
   37.6040   29.1140   39.4680 C   0  0  0  0  0  0  0  0  0  0  0  0
   36.2440   28.9370   39.4210 C   0  0  0  0  0  0  0  0  0  0  0  0
   35.4830   28.5850   40.5430 C   0  0  0  0  0  0  0  0  0  0  0  0
   36.1880   28.4300   41.6880 N   0  0  0  0  0  0  0  0  0  0  0  0
   37.5160   28.6020   41.7300 C   0  0  0  0  0  0  0  0  0  0  0  0
   38.2120   28.9380   40.6370 N   0  0  0  0  0  0  0  0  0  0  0  0
   35.7540   29.0820   38.4630 H   0  0  0  0  0  0  0  0  0  0  0  0
   34.4300   28.4570   40.4710 H   0  0  0  0  0  0  0  0  0  0  0  0
   38.2980   28.4560   43.0020 C   0  0  2  0  0  0  0  0  0  0  0  0
   39.7390   28.0650   42.9110 C   0  0  0  0  0  0  0  0  0  0  0  0
   38.6770   27.0680   43.3870 C   0  0  2  0  0  0  0  0  0  0  0  0
   37.9490   29.1540   43.7900 H   0  0  0  0  0  0  0  0  0  0  0  0
   40.1930   27.8310   41.9380 H   0  0  0  0  0  0  0  0  0  0  0  0
   40.4370   28.4840   43.6710 H   0  0  0  0  0  0  0  0  0  0  0  0
   38.7390   26.8470   44.4590 H   0  0  0  0  0  0  0  0  0  0  0  0
   38.2990   25.9180   42.5150 C   0  0  0  0  0  0  0  0  0  0  0  0
   36.9260   25.7190   42.6900 F   0  0  0  0  0  0  0  0  0  0  0  0
   38.5350   26.0950   41.1770 F   0  0  0  0  0  0  0  0  0  0  0  0
   38.9320   24.7670   42.9470 F   0  0  0  0  0  0  0  0  0  0  0  0
   38.3760   29.4910   38.2990 C   0  0  0  0  0  0  0  0  0  0  0  0
   39.4660   29.3870   38.4780 H   0  0  0  0  0  0  0  0  0  0  0  0
   38.1410   28.8350   37.4110 H   0  0  0  0  0  0  0  0  0  0  0  0
   38.0960   30.8790   37.9000 C   0  0  0  0  0  0  0  0  0  0  0  0
   38.1500   31.0680   36.8060 H   0  0  0  0  0  0  0  0  0  0  0  0
   37.0410   31.1630   38.1780 H   0  0  0  0  0  0  0  0  0  0  0  0
   36.9500   32.2840   40.2480 Cl  0  0  0  0  0  0  0  0  0  0  0  0
   38.5580   32.5930   39.6750 C   0  0  0  0  0  0  0  0  0  0  0  0
   38.9710   31.8850   38.5690 C   0  0  0  0  0  0  0  0  0  0  0  0
   40.2520   32.1360   38.0930 C   0  0  0  0  0  0  0  0  0  0  0  0
   41.0710   33.0570   38.7100 C   0  0  0  0  0  0  0  0  0  0  0  0
   40.6190   33.7610   39.8360 C   0  0  0  0  0  0  0  0  0  0  0  0
   39.3550   33.5060   40.2950 C   0  0  0  0  0  0  0  0  0  0  0  0
   40.6490   31.6320   37.2430 H   0  0  0  0  0  0  0  0  0  0  0  0
   42.0730   33.2540   38.3400 H   0  0  0  0  0  0  0  0  0  0  0  0
   41.2460   34.4740   40.3170 H   0  0  0  0  0  0  0  0  0  0  0  0
   38.8240   34.1610   41.4130 O   0  0  0  0  0  0  0  0  0  0  0  0
   38.0370   33.8280   41.9080 H   0  0  0  0  0  0  0  0  0  0  0  0
  1  6  1  0  0  0  0
  2  1  2  0  0  0  0
  2  3  1  0  0  0  0
  3  4  2  0  0  0  0
  4  5  1  0  0  0  0
  5  9  1  0  0  0  0
  6  5  2  0  0  0  0
  7  2  1  0  0  0  0
  8  3  1  0  0  0  0
  9 11  1  0  0  0  0
  9 12  1  1  0  0  0
 10  9  1  0  0  0  0
 10 11  1  0  0  0  0
 10 14  1  0  0  0  0
 11 15  1  1  0  0  0
 13 10  1  0  0  0  0
 16 17  1  0  0  0  0
 16 19  1  0  0  0  0
 16 11  1  0  0  0  0
 18 16  1  0  0  0  0
 20 21  1  0  0  0  0
 20  1  1  0  0  0  0
 22 20  1  0  0  0  0
 23 25  1  0  0  0  0
 23 20  1  0  0  0  0
 23 28  1  0  0  0  0
 24 23  1  0  0  0  0
 27 26  1  0  0  0  0
 27 32  1  0  0  0  0
 28 27  2  0  0  0  0
 29 28  1  0  0  0  0
 29 30  2  0  0  0  0
 30 31  1  0  0  0  0
 31 32  2  0  0  0  0
 31 35  1  0  0  0  0
 32 36  1  0  0  0  0
 33 29  1  0  0  0  0
 34 30  1  0  0  0  0
 36 37  1  0  0  0  0
M  END
>  <minimizedAffinity>
-5.62328196

$$$$

 OpenBabel03242519183D

 37 39  0  0  1  0  0  0  0  0999 V2000
   38.4180   28.9920   41.0700 C   0  0  0  0  0  0  0  0  0  0  0  0
   37.8550   29.4950   42.2150 C   0  0  0  0  0  0  0  0  0  0  0  0
   37.7380   28.7520   43.3960 C   0  0  0  0  0  0  0  0  0  0  0  0
   38.2220   27.4900   43.3290 N   0  0  0  0  0  0  0  0  0  0  0  0
   38.7710   27.0010   42.2090 C   0  0  0  0  0  0  0  0  0  0  0  0
   38.8660   27.7400   41.0970 N   0  0  0  0  0  0  0  0  0  0  0  0
   37.4910   30.5180   42.1850 H   0  0  0  0  0  0  0  0  0  0  0  0
   37.2960   29.1750   44.2670 H   0  0  0  0  0  0  0  0  0  0  0  0
   39.3330   25.6110   42.1390 C   0  0  2  0  0  0  0  0  0  0  0  0
   39.4110   24.9420   40.8030 C   0  0  0  0  0  0  0  0  0  0  0  0
   38.3610   24.5220   41.8380 C   0  0  2  0  0  0  0  0  0  0  0  0
   40.1120   25.4360   42.9070 H   0  0  0  0  0  0  0  0  0  0  0  0
   39.0090   25.4360   39.9070 H   0  0  0  0  0  0  0  0  0  0  0  0
   40.2660   24.2530   40.6200 H   0  0  0  0  0  0  0  0  0  0  0  0
   38.5600   23.5400   42.2840 H   0  0  0  0  0  0  0  0  0  0  0  0
   36.9240   24.8440   41.6050 C   0  0  0  0  0  0  0  0  0  0  0  0
   36.3720   25.1340   42.8550 F   0  0  0  0  0  0  0  0  0  0  0  0
   36.6880   25.9100   40.7780 F   0  0  0  0  0  0  0  0  0  0  0  0
   36.2620   23.7300   41.1200 F   0  0  0  0  0  0  0  0  0  0  0  0
   38.5430   29.7800   39.8580 C   0  0  0  0  0  0  0  0  0  0  0  0
   39.3800   30.5050   39.9270 H   0  0  0  0  0  0  0  0  0  0  0  0
   38.7620   29.1350   38.9580 H   0  0  0  0  0  0  0  0  0  0  0  0
   37.3030   30.5190   39.5720 C   0  0  0  0  0  0  0  0  0  0  0  0
   36.6000   30.5940   40.4290 H   0  0  0  0  0  0  0  0  0  0  0  0
   37.5360   31.5900   39.3100 H   0  0  0  0  0  0  0  0  0  0  0  0
   34.7440   29.1520   40.1910 Cl  0  0  0  0  0  0  0  0  0  0  0  0
   35.3290   29.3370   38.5680 C   0  0  0  0  0  0  0  0  0  0  0  0
   36.5360   29.9800   38.4120 C   0  0  0  0  0  0  0  0  0  0  0  0
   37.0220   30.1210   37.1170 C   0  0  0  0  0  0  0  0  0  0  0  0
   36.3160   29.6330   36.0380 C   0  0  0  0  0  0  0  0  0  0  0  0
   35.0880   28.9830   36.2320 C   0  0  0  0  0  0  0  0  0  0  0  0
   34.6210   28.8510   37.5120 C   0  0  0  0  0  0  0  0  0  0  0  0
   37.9460   30.6050   36.9080 H   0  0  0  0  0  0  0  0  0  0  0  0
   36.6930   29.7420   35.0250 H   0  0  0  0  0  0  0  0  0  0  0  0
   34.5380   28.6040   35.4040 H   0  0  0  0  0  0  0  0  0  0  0  0
   33.4050   28.2170   37.7970 O   0  0  0  0  0  0  0  0  0  0  0  0
   32.9310   28.3260   38.6570 H   0  0  0  0  0  0  0  0  0  0  0  0
  1  6  2  0  0  0  0
  1  2  1  0  0  0  0
  2  3  2  0  0  0  0
  3  8  1  0  0  0  0
  4  3  1  0  0  0  0
  5  4  2  0  0  0  0
  6  5  1  0  0  0  0
  7  2  1  0  0  0  0
  9  5  1  0  0  0  0
  9 12  1  1  0  0  0
 10 11  1  0  0  0  0
 10  9  1  0  0  0  0
 11  9  1  0  0  0  0
 11 15  1  1  0  0  0
 13 10  1  0  0  0  0
 14 10  1  0  0  0  0
 16 11  1  0  0  0  0
 16 17  1  0  0  0  0
 18 16  1  0  0  0  0
 19 16  1  0  0  0  0
 20 21  1  0  0  0  0
 20  1  1  0  0  0  0
 22 20  1  0  0  0  0
 23 20  1  0  0  0  0
 23 24  1  0  0  0  0
 25 23  1  0  0  0  0
 27 26  1  0  0  0  0
 28 27  1  0  0  0  0
 28 23  1  0  0  0  0
 29 28  2  0  0  0  0
 30 31  2  0  0  0  0
 30 29  1  0  0  0  0
 31 32  1  0  0  0  0
 32 36  1  0  0  0  0
 32 27  2  0  0  0  0
 33 29  1  0  0  0  0
 34 30  1  0  0  0  0
 35 31  1  0  0  0  0
 36 37  1  0  0  0  0
M  END
>  <minimizedAffinity>
-5.51114035

$$$$
