
 OpenBabel03252508233D

 43 45  0  0  0  0  0  0  0  0999 V2000
   45.0440   34.1350   40.7330 C   0  0  0  0  0  0  0  0  0  0  0  0
   46.0980   34.4360   41.5690 C   0  0  0  0  0  0  0  0  0  0  0  0
   46.0120   35.2660   42.6600 C   0  0  0  0  0  0  0  0  0  0  0  0
   44.7480   35.8190   42.9030 C   0  0  0  0  0  0  0  0  0  0  0  0
   43.6720   35.5520   42.1050 C   0  0  0  0  0  0  0  0  0  0  0  0
   43.8050   34.7220   41.0310 C   0  0  0  0  0  0  0  0  0  0  0  0
   47.0950   34.0420   41.4560 H   0  0  0  0  0  0  0  0  0  0  0  0
   46.8070   35.5200   43.3280 H   0  0  0  0  0  0  0  0  0  0  0  0
   44.6180   36.4920   43.7610 H   0  0  0  0  0  0  0  0  0  0  0  0
   42.7230   36.0250   42.3650 H   0  0  0  0  0  0  0  0  0  0  0  0
   42.6320   34.5020   40.2760 N   0  0  0  0  0  0  0  0  0  0  0  0
   42.1990   35.3360   39.1920 C   0  0  0  0  0  0  0  0  0  0  0  0
   41.2200   34.6060   38.2980 C   0  0  0  0  0  0  0  0  0  0  0  0
   41.5300   33.2330   38.0990 N   0  0  0  0  0  0  0  0  0  0  0  0
   41.6850   32.4770   39.2800 C   0  0  0  0  0  0  0  0  0  0  0  0
   41.6850   33.3960   40.4850 C   0  0  0  0  0  0  0  0  0  0  0  0
   42.9650   35.8910   38.6550 H   0  0  0  0  0  0  0  0  0  0  0  0
   41.5800   36.1460   39.6850 H   0  0  0  0  0  0  0  0  0  0  0  0
   41.2270   35.1130   37.3180 H   0  0  0  0  0  0  0  0  0  0  0  0
   40.1930   34.6480   38.7270 H   0  0  0  0  0  0  0  0  0  0  0  0
   41.0630   32.8330   37.2970 H   0  0  0  0  0  0  0  0  0  0  0  0
   40.8270   31.7800   39.4020 H   0  0  0  0  0  0  0  0  0  0  0  0
   42.5960   31.8550   39.2880 H   0  0  0  0  0  0  0  0  0  0  0  0
   40.6660   33.8140   40.6560 H   0  0  0  0  0  0  0  0  0  0  0  0
   42.0540   32.8000   41.3520 H   0  0  0  0  0  0  0  0  0  0  0  0
   45.1450   33.2550   39.5690 C   0  0  0  0  0  0  0  0  0  0  0  0
   44.9900   33.7370   38.6070 H   0  0  0  0  0  0  0  0  0  0  0  0
   44.2940   32.5180   39.6700 H   0  0  0  0  0  0  0  0  0  0  0  0
   46.4460   32.4800   39.5600 C   0  0  0  0  0  0  0  0  0  0  0  0
   46.2330   31.3690   39.5140 H   0  0  0  0  0  0  0  0  0  0  0  0
   47.1170   32.6780   40.3800 H   0  0  0  0  0  0  0  0  0  0  0  0
   48.9060   33.9310   37.0920 C   0  0  0  0  0  0  0  0  0  0  0  0
   48.2210   33.6760   38.3050 C   0  0  0  0  0  0  0  0  0  0  0  0
   47.1730   32.7650   38.3010 C   0  0  0  0  0  0  0  0  0  0  0  0
   46.8620   32.1620   37.1130 N   0  0  0  0  0  0  0  0  0  0  0  0
   47.5180   32.4170   35.9820 C   0  0  0  0  0  0  0  0  0  0  0  0
   48.5390   33.2980   35.9660 N   0  0  0  0  0  0  0  0  0  0  0  0
   49.7310   34.6540   37.1160 H   0  0  0  0  0  0  0  0  0  0  0  0
   48.5060   34.1770   39.2100 H   0  0  0  0  0  0  0  0  0  0  0  0
   47.0690   31.6830   34.7570 C   0  0  0  0  0  0  0  0  0  0  0  0
   46.0260   32.3500   34.1060 F   0  0  0  0  0  0  0  0  0  0  0  0
   46.5710   30.4280   35.0720 F   0  0  0  0  0  0  0  0  0  0  0  0
   48.0760   31.5550   33.8190 F   0  0  0  0  0  0  0  0  0  0  0  0
  1  6  2  0  0  0  0
  1  2  1  0  0  0  0
  2  3  2  0  0  0  0
  3  4  1  0  0  0  0
  3  8  1  0  0  0  0
  4  9  1  0  0  0  0
  5 10  1  0  0  0  0
  5  4  2  0  0  0  0
  6  5  1  0  0  0  0
  7  2  1  0  0  0  0
 11 16  1  0  0  0  0
 11  6  1  0  0  0  0
 12 18  1  0  0  0  0
 12 11  1  0  0  0  0
 13 20  1  0  0  0  0
 13 12  1  0  0  0  0
 14 13  1  0  0  0  0
 14 15  1  0  0  0  0
 15 23  1  0  0  0  0
 15 22  1  0  0  0  0
 15 16  1  0  0  0  0
 16 24  1  0  0  0  0
 16 25  1  0  0  0  0
 17 12  1  0  0  0  0
 19 13  1  0  0  0  0
 21 14  1  0  0  0  0
 26 28  1  0  0  0  0
 26  1  1  0  0  0  0
 27 26  1  0  0  0  0
 29 26  1  0  0  0  0
 29 31  1  0  0  0  0
 30 29  1  0  0  0  0
 32 38  1  0  0  0  0
 32 33  1  0  0  0  0
 33 39  1  0  0  0  0
 34 33  2  0  0  0  0
 34 29  1  0  0  0  0
 35 34  1  0  0  0  0
 36 35  2  0  0  0  0
 37 36  1  0  0  0  0
 37 32  2  0  0  0  0
 40 42  1  0  0  0  0
 40 36  1  0  0  0  0
 41 40  1  0  0  0  0
 43 40  1  0  0  0  0
M  END
>  <minimizedAffinity>
-5.04791403

>  <minimizedRMSD>
7.27852345

$$$$
