
 OpenBabel03252500043D

 34 36  0  0  0  0  0  0  0  0999 V2000
   36.8890   28.8800   38.5190 C   0  0  0  0  0  0  0  0  0  0  0  0
   37.9600   28.6360   37.6670 C   0  0  0  0  0  0  0  0  0  0  0  0
   37.8360   28.3760   36.3190 C   0  0  0  0  0  0  0  0  0  0  0  0
   36.6000   28.3450   35.7380 C   0  0  0  0  0  0  0  0  0  0  0  0
   35.5010   28.5790   36.5370 C   0  0  0  0  0  0  0  0  0  0  0  0
   34.2300   28.5640   36.0220 C   0  0  0  0  0  0  0  0  0  0  0  0
   33.1070   28.7900   36.7700 C   0  0  0  0  0  0  0  0  0  0  0  0
   33.3100   29.0460   38.1220 C   0  0  0  0  0  0  0  0  0  0  0  0
   34.6040   29.0550   38.6120 C   0  0  0  0  0  0  0  0  0  0  0  0
   35.6910   28.8300   37.8590 C   0  0  0  0  0  0  0  0  0  0  0  0
   38.9900   28.6360   38.0240 H   0  0  0  0  0  0  0  0  0  0  0  0
   38.6910   28.1910   35.6840 H   0  0  0  0  0  0  0  0  0  0  0  0
   36.4840   28.1420   34.6860 H   0  0  0  0  0  0  0  0  0  0  0  0
   34.0740   28.3620   34.9580 H   0  0  0  0  0  0  0  0  0  0  0  0
   32.1100   28.7730   36.3410 H   0  0  0  0  0  0  0  0  0  0  0  0
   32.4050   29.2230   38.6930 H   0  0  0  0  0  0  0  0  0  0  0  0
   37.8670   30.4220   41.7980 C   0  0  0  0  0  0  0  0  0  0  0  0
   37.6020   30.3550   40.4320 C   0  0  0  0  0  0  0  0  0  0  0  0
   37.2080   29.1300   39.8880 C   0  0  0  0  0  0  0  0  0  0  0  0
   37.1190   28.0860   40.7770 N   0  0  0  0  0  0  0  0  0  0  0  0
   37.3800   28.1890   42.0680 C   0  0  0  0  0  0  0  0  0  0  0  0
   37.7510   29.3560   42.5620 N   0  0  0  0  0  0  0  0  0  0  0  0
   38.1700   31.3810   42.1880 H   0  0  0  0  0  0  0  0  0  0  0  0
   37.2090   26.9040   42.8260 C   0  0  0  0  0  0  0  0  0  0  0  0
   38.3320   26.5840   43.5470 F   0  0  0  0  0  0  0  0  0  0  0  0
   36.8480   25.8880   41.9640 F   0  0  0  0  0  0  0  0  0  0  0  0
   36.0860   27.0380   43.6750 F   0  0  0  0  0  0  0  0  0  0  0  0
   37.7020   31.4880   39.4880 C   0  0  0  0  0  0  0  0  0  0  0  0
   37.9160   32.6390   40.2580 F   0  0  0  0  0  0  0  0  0  0  0  0
   36.5380   31.7100   38.7790 F   0  0  0  0  0  0  0  0  0  0  0  0
   38.8120   31.3930   38.6570 F   0  0  0  0  0  0  0  0  0  0  0  0
   34.6150   29.3360   40.0130 N   0  0  0  0  0  0  0  0  0  0  0  0
   34.5520   28.7540   40.8740 H   0  0  0  0  0  0  0  0  0  0  0  0
   34.6770   30.2080   40.5790 H   0  0  0  0  0  0  0  0  0  0  0  0
  1 19  1  0  0  0  0
  2 11  1  0  0  0  0
  2  1  2  0  0  0  0
  3  2  1  0  0  0  0
  4  3  2  0  0  0  0
  4  5  1  0  0  0  0
  5 10  1  0  0  0  0
  6  5  2  0  0  0  0
  6  7  1  0  0  0  0
  7  8  2  0  0  0  0
  8  9  1  0  0  0  0
  8 16  1  0  0  0  0
  9 32  1  0  0  0  0
 10  1  1  0  0  0  0
 10  9  2  0  0  0  0
 12  3  1  0  0  0  0
 13  4  1  0  0  0  0
 14  6  1  0  0  0  0
 15  7  1  0  0  0  0
 17 23  1  0  0  0  0
 17 22  1  0  0  0  0
 18 17  2  0  0  0  0
 19 18  1  0  0  0  0
 19 20  2  0  0  0  0
 20 21  1  0  0  0  0
 21 22  2  0  0  0  0
 21 24  1  0  0  0  0
 24 25  1  0  0  0  0
 24 27  1  0  0  0  0
 26 24  1  0  0  0  0
 28 29  1  0  0  0  0
 28 18  1  0  0  0  0
 30 28  1  0  0  0  0
 31 28  1  0  0  0  0
 32 34  1  0  0  0  0
 32 33  1  0  0  0  0
M  END
>  <minimizedAffinity>
-6.05404472

$$$$

 OpenBabel03252500043D

 34 36  0  0  0  0  0  0  0  0999 V2000
   37.7510   28.7350   40.8490 C   0  0  0  0  0  0  0  0  0  0  0  0
   36.5820   28.3050   41.4650 C   0  0  0  0  0  0  0  0  0  0  0  0
   36.5370   27.6600   42.6830 C   0  0  0  0  0  0  0  0  0  0  0  0
   37.6910   27.4040   43.3650 C   0  0  0  0  0  0  0  0  0  0  0  0
   38.8830   27.8080   42.8010 C   0  0  0  0  0  0  0  0  0  0  0  0
   40.0810   27.5850   43.4290 C   0  0  0  0  0  0  0  0  0  0  0  0
   41.2900   27.9650   42.9130 C   0  0  0  0  0  0  0  0  0  0  0  0
   41.2570   28.6100   41.6820 C   0  0  0  0  0  0  0  0  0  0  0  0
   40.0330   28.8210   41.0720 C   0  0  0  0  0  0  0  0  0  0  0  0
   38.8590   28.4390   41.5970 C   0  0  0  0  0  0  0  0  0  0  0  0
   35.6030   28.4570   41.0090 H   0  0  0  0  0  0  0  0  0  0  0  0
   35.6080   27.3400   43.1340 H   0  0  0  0  0  0  0  0  0  0  0  0
   37.6760   26.9010   44.3180 H   0  0  0  0  0  0  0  0  0  0  0  0
   40.1040   27.0770   44.3980 H   0  0  0  0  0  0  0  0  0  0  0  0
   42.2270   27.7770   43.4280 H   0  0  0  0  0  0  0  0  0  0  0  0
   42.2270   28.9020   41.2940 H   0  0  0  0  0  0  0  0  0  0  0  0
   37.2310   31.2100   38.0770 C   0  0  0  0  0  0  0  0  0  0  0  0
   37.3330   30.7410   39.3840 C   0  0  0  0  0  0  0  0  0  0  0  0
   37.6060   29.3850   39.5870 C   0  0  0  0  0  0  0  0  0  0  0  0
   37.7500   28.6310   38.4470 N   0  0  0  0  0  0  0  0  0  0  0  0
   37.6460   29.1140   37.2220 C   0  0  0  0  0  0  0  0  0  0  0  0
   37.3880   30.3980   37.0530 N   0  0  0  0  0  0  0  0  0  0  0  0
   37.0190   32.2610   37.9530 H   0  0  0  0  0  0  0  0  0  0  0  0
   37.8460   28.0870   36.1450 C   0  0  0  0  0  0  0  0  0  0  0  0
   37.4510   28.5520   34.9160 F   0  0  0  0  0  0  0  0  0  0  0  0
   37.1990   26.9150   36.4800 F   0  0  0  0  0  0  0  0  0  0  0  0
   39.2130   27.7220   36.1310 F   0  0  0  0  0  0  0  0  0  0  0  0
   37.1740   31.5640   40.6010 C   0  0  0  0  0  0  0  0  0  0  0  0
   36.9950   32.8870   40.1740 F   0  0  0  0  0  0  0  0  0  0  0  0
   38.2970   31.5690   41.4050 F   0  0  0  0  0  0  0  0  0  0  0  0
   36.0220   31.2510   41.3110 F   0  0  0  0  0  0  0  0  0  0  0  0
   40.1970   29.4960   39.8230 N   0  0  0  0  0  0  0  0  0  0  0  0
   40.3580   29.1860   38.8420 H   0  0  0  0  0  0  0  0  0  0  0  0
   40.2150   30.4970   39.5340 H   0  0  0  0  0  0  0  0  0  0  0  0
  1  2  2  0  0  0  0
  1 10  1  0  0  0  0
  2  3  1  0  0  0  0
  3 12  1  0  0  0  0
  3  4  2  0  0  0  0
  4 13  1  0  0  0  0
  5  4  1  0  0  0  0
  5  6  1  0  0  0  0
  6 14  1  0  0  0  0
  7 15  1  0  0  0  0
  7  6  2  0  0  0  0
  8  7  1  0  0  0  0
  9 10  1  0  0  0  0
  9  8  2  0  0  0  0
 10  5  2  0  0  0  0
 11  2  1  0  0  0  0
 16  8  1  0  0  0  0
 17 18  1  0  0  0  0
 18 19  2  0  0  0  0
 18 28  1  0  0  0  0
 19  1  1  0  0  0  0
 20 19  1  0  0  0  0
 21 20  2  0  0  0  0
 22 21  1  0  0  0  0
 22 17  2  0  0  0  0
 23 17  1  0  0  0  0
 24 26  1  0  0  0  0
 24 21  1  0  0  0  0
 25 24  1  0  0  0  0
 27 24  1  0  0  0  0
 28 31  1  0  0  0  0
 28 30  1  0  0  0  0
 29 28  1  0  0  0  0
 32  9  1  0  0  0  0
 33 32  1  0  0  0  0
 34 32  1  0  0  0  0
M  END
>  <minimizedAffinity>
-6.03994846

$$$$

 OpenBabel03252500043D

 34 36  0  0  0  0  0  0  0  0999 V2000
   37.7910   29.9950   39.6640 C   0  0  0  0  0  0  0  0  0  0  0  0
   36.5850   29.9640   38.9740 C   0  0  0  0  0  0  0  0  0  0  0  0
   35.4320   29.3750   39.4520 C   0  0  0  0  0  0  0  0  0  0  0  0
   35.4290   28.7700   40.6760 C   0  0  0  0  0  0  0  0  0  0  0  0
   36.6000   28.7710   41.4040 C   0  0  0  0  0  0  0  0  0  0  0  0
   36.6700   28.1830   42.6410 C   0  0  0  0  0  0  0  0  0  0  0  0
   37.8060   28.1560   43.4040 C   0  0  0  0  0  0  0  0  0  0  0  0
   38.9280   28.7700   42.8580 C   0  0  0  0  0  0  0  0  0  0  0  0
   38.8260   29.3540   41.6080 C   0  0  0  0  0  0  0  0  0  0  0  0
   37.7010   29.3690   40.8770 C   0  0  0  0  0  0  0  0  0  0  0  0
   36.4740   30.4150   37.9880 H   0  0  0  0  0  0  0  0  0  0  0  0
   34.5100   29.3690   38.8890 H   0  0  0  0  0  0  0  0  0  0  0  0
   34.5380   28.3050   41.0650 H   0  0  0  0  0  0  0  0  0  0  0  0
   35.7850   27.7010   43.0680 H   0  0  0  0  0  0  0  0  0  0  0  0
   37.8380   27.6840   44.3820 H   0  0  0  0  0  0  0  0  0  0  0  0
   39.8150   28.7360   43.4820 H   0  0  0  0  0  0  0  0  0  0  0  0
   40.2530   32.4910   38.3260 C   0  0  0  0  0  0  0  0  0  0  0  0
   39.1340   32.0230   39.0090 C   0  0  0  0  0  0  0  0  0  0  0  0
   38.8800   30.6490   39.0130 C   0  0  0  0  0  0  0  0  0  0  0  0
   39.7840   29.8760   38.3240 N   0  0  0  0  0  0  0  0  0  0  0  0
   40.8370   30.3580   37.6870 C   0  0  0  0  0  0  0  0  0  0  0  0
   41.0570   31.6600   37.6960 N   0  0  0  0  0  0  0  0  0  0  0  0
   40.4220   33.5570   38.3400 H   0  0  0  0  0  0  0  0  0  0  0  0
   41.6700   29.3090   37.0110 C   0  0  0  0  0  0  0  0  0  0  0  0
   42.6040   28.7730   37.8620 F   0  0  0  0  0  0  0  0  0  0  0  0
   42.2540   29.8250   35.8720 F   0  0  0  0  0  0  0  0  0  0  0  0
   40.8030   28.3050   36.5180 F   0  0  0  0  0  0  0  0  0  0  0  0
   38.1700   32.8680   39.7450 C   0  0  0  0  0  0  0  0  0  0  0  0
   38.7080   34.1610   39.7800 F   0  0  0  0  0  0  0  0  0  0  0  0
   38.0050   32.4840   41.0620 F   0  0  0  0  0  0  0  0  0  0  0  0
   36.9560   32.9950   39.0810 F   0  0  0  0  0  0  0  0  0  0  0  0
   40.0720   29.9330   41.2150 N   0  0  0  0  0  0  0  0  0  0  0  0
   40.9140   29.5810   40.7130 H   0  0  0  0  0  0  0  0  0  0  0  0
   40.5040   30.8740   41.3270 H   0  0  0  0  0  0  0  0  0  0  0  0
  1 10  1  0  0  0  0
  2  3  1  0  0  0  0
  2  1  2  0  0  0  0
  3  4  2  0  0  0  0
  4 13  1  0  0  0  0
  4  5  1  0  0  0  0
  5  6  1  0  0  0  0
  6 14  1  0  0  0  0
  6  7  2  0  0  0  0
  7 15  1  0  0  0  0
  8  7  1  0  0  0  0
  8 16  1  0  0  0  0
  9  8  2  0  0  0  0
 10  5  2  0  0  0  0
 10  9  1  0  0  0  0
 11  2  1  0  0  0  0
 12  3  1  0  0  0  0
 17 23  1  0  0  0  0
 17 18  1  0  0  0  0
 18 19  2  0  0  0  0
 18 28  1  0  0  0  0
 19  1  1  0  0  0  0
 20 19  1  0  0  0  0
 21 22  1  0  0  0  0
 21 20  2  0  0  0  0
 22 17  2  0  0  0  0
 24 21  1  0  0  0  0
 24 25  1  0  0  0  0
 26 24  1  0  0  0  0
 27 24  1  0  0  0  0
 28 29  1  0  0  0  0
 28 30  1  0  0  0  0
 31 28  1  0  0  0  0
 32 34  1  0  0  0  0
 32  9  1  0  0  0  0
 33 32  1  0  0  0  0
M  END
>  <minimizedAffinity>
-5.92191887

$$$$

 OpenBabel03252500043D

 34 36  0  0  0  0  0  0  0  0999 V2000
   38.2400   29.5120   40.0580 C   0  0  0  0  0  0  0  0  0  0  0  0
   37.7230   28.9200   38.9120 C   0  0  0  0  0  0  0  0  0  0  0  0
   36.8840   27.8250   38.9140 C   0  0  0  0  0  0  0  0  0  0  0  0
   36.5100   27.2520   40.0950 C   0  0  0  0  0  0  0  0  0  0  0  0
   36.9940   27.7980   41.2650 C   0  0  0  0  0  0  0  0  0  0  0  0
   36.6600   27.2750   42.4870 C   0  0  0  0  0  0  0  0  0  0  0  0
   37.1120   27.7780   43.6770 C   0  0  0  0  0  0  0  0  0  0  0  0
   37.9540   28.8820   43.5960 C   0  0  0  0  0  0  0  0  0  0  0  0
   38.2730   29.3880   42.3480 C   0  0  0  0  0  0  0  0  0  0  0  0
   37.8170   28.8770   41.1940 C   0  0  0  0  0  0  0  0  0  0  0  0
   37.9560   29.2950   37.9150 H   0  0  0  0  0  0  0  0  0  0  0  0
   36.4990   27.3900   38.0030 H   0  0  0  0  0  0  0  0  0  0  0  0
   35.8550   26.3960   40.1160 H   0  0  0  0  0  0  0  0  0  0  0  0
   35.9970   26.4060   42.5470 H   0  0  0  0  0  0  0  0  0  0  0  0
   36.8350   27.3470   44.6340 H   0  0  0  0  0  0  0  0  0  0  0  0
   38.2990   29.2630   44.5520 H   0  0  0  0  0  0  0  0  0  0  0  0
   39.6600   32.9440   39.5210 C   0  0  0  0  0  0  0  0  0  0  0  0
   38.6860   31.9640   39.6900 C   0  0  0  0  0  0  0  0  0  0  0  0
   39.0950   30.6390   39.8640 C   0  0  0  0  0  0  0  0  0  0  0  0
   40.4530   30.4290   39.8490 N   0  0  0  0  0  0  0  0  0  0  0  0
   41.3480   31.3870   39.6850 C   0  0  0  0  0  0  0  0  0  0  0  0
   40.9390   32.6330   39.5230 N   0  0  0  0  0  0  0  0  0  0  0  0
   39.3130   33.9570   39.3880 H   0  0  0  0  0  0  0  0  0  0  0  0
   42.7680   30.9010   39.7070 C   0  0  0  0  0  0  0  0  0  0  0  0
   43.5970   31.7140   38.9760 F   0  0  0  0  0  0  0  0  0  0  0  0
   42.8290   29.5910   39.2790 F   0  0  0  0  0  0  0  0  0  0  0  0
   43.1900   30.8330   41.0560 F   0  0  0  0  0  0  0  0  0  0  0  0
   37.2280   32.2050   39.7030 C   0  0  0  0  0  0  0  0  0  0  0  0
   37.0450   33.5890   39.5900 F   0  0  0  0  0  0  0  0  0  0  0  0
   36.6250   31.8320   40.8890 F   0  0  0  0  0  0  0  0  0  0  0  0
   36.5870   31.6610   38.5970 F   0  0  0  0  0  0  0  0  0  0  0  0
   39.1420   30.5160   42.4650 N   0  0  0  0  0  0  0  0  0  0  0  0
   40.1750   30.6400   42.5090 H   0  0  0  0  0  0  0  0  0  0  0  0
   38.9920   31.5440   42.5500 H   0  0  0  0  0  0  0  0  0  0  0  0
  1 10  1  0  0  0  0
  2  3  1  0  0  0  0
  2  1  2  0  0  0  0
  3  4  2  0  0  0  0
  4 13  1  0  0  0  0
  4  5  1  0  0  0  0
  5  6  1  0  0  0  0
  6 14  1  0  0  0  0
  6  7  2  0  0  0  0
  7 15  1  0  0  0  0
  8  7  1  0  0  0  0
  8 16  1  0  0  0  0
  9 32  1  0  0  0  0
  9  8  2  0  0  0  0
 10  5  2  0  0  0  0
 10  9  1  0  0  0  0
 11  2  1  0  0  0  0
 12  3  1  0  0  0  0
 17 22  2  0  0  0  0
 17 18  1  0  0  0  0
 18 28  1  0  0  0  0
 18 19  2  0  0  0  0
 19  1  1  0  0  0  0
 20 19  1  0  0  0  0
 21 24  1  0  0  0  0
 21 20  2  0  0  0  0
 22 21  1  0  0  0  0
 23 17  1  0  0  0  0
 24 27  1  0  0  0  0
 25 24  1  0  0  0  0
 26 24  1  0  0  0  0
 28 30  1  0  0  0  0
 29 28  1  0  0  0  0
 31 28  1  0  0  0  0
 32 33  1  0  0  0  0
 32 34  1  0  0  0  0
M  END
>  <minimizedAffinity>
-5.91219902

$$$$

 OpenBabel03252500043D

 34 36  0  0  0  0  0  0  0  0999 V2000
   37.8760   28.7980   41.2130 C   0  0  0  0  0  0  0  0  0  0  0  0
   37.3270   29.2530   42.4060 C   0  0  0  0  0  0  0  0  0  0  0  0
   37.4170   28.5840   43.6080 C   0  0  0  0  0  0  0  0  0  0  0  0
   38.0790   27.3920   43.6800 C   0  0  0  0  0  0  0  0  0  0  0  0
   38.6450   26.8920   42.5250 C   0  0  0  0  0  0  0  0  0  0  0  0
   39.3250   25.7020   42.5230 C   0  0  0  0  0  0  0  0  0  0  0  0
   39.9040   25.1610   41.4060 C   0  0  0  0  0  0  0  0  0  0  0  0
   39.7710   25.8930   40.2310 C   0  0  0  0  0  0  0  0  0  0  0  0
   39.0800   27.0910   40.2650 C   0  0  0  0  0  0  0  0  0  0  0  0
   38.5200   27.6010   41.3730 C   0  0  0  0  0  0  0  0  0  0  0  0
   36.7760   30.1930   42.4640 H   0  0  0  0  0  0  0  0  0  0  0  0
   36.9780   28.9670   44.5180 H   0  0  0  0  0  0  0  0  0  0  0  0
   38.1600   26.8540   44.6100 H   0  0  0  0  0  0  0  0  0  0  0  0
   39.4270   25.1280   43.4490 H   0  0  0  0  0  0  0  0  0  0  0  0
   40.4380   24.2170   41.4270 H   0  0  0  0  0  0  0  0  0  0  0  0
   40.2390   25.4450   39.3600 H   0  0  0  0  0  0  0  0  0  0  0  0
   36.5260   30.5250   38.1660 C   0  0  0  0  0  0  0  0  0  0  0  0
   36.5500   29.6450   39.2450 C   0  0  0  0  0  0  0  0  0  0  0  0
   37.6820   29.6250   40.0660 C   0  0  0  0  0  0  0  0  0  0  0  0
   38.6840   30.4970   39.7170 N   0  0  0  0  0  0  0  0  0  0  0  0
   38.6240   31.3190   38.6830 C   0  0  0  0  0  0  0  0  0  0  0  0
   37.5450   31.3210   37.9210 N   0  0  0  0  0  0  0  0  0  0  0  0
   35.6400   30.5170   37.5510 H   0  0  0  0  0  0  0  0  0  0  0  0
   39.8480   32.1720   38.5140 C   0  0  0  0  0  0  0  0  0  0  0  0
   40.1680   32.3490   37.1910 F   0  0  0  0  0  0  0  0  0  0  0  0
   40.9020   31.6380   39.2280 F   0  0  0  0  0  0  0  0  0  0  0  0
   39.6100   33.4150   39.1460 F   0  0  0  0  0  0  0  0  0  0  0  0
   35.4640   28.7110   39.6080 C   0  0  0  0  0  0  0  0  0  0  0  0
   34.5140   28.7760   38.5800 F   0  0  0  0  0  0  0  0  0  0  0  0
   34.8020   29.0690   40.7660 F   0  0  0  0  0  0  0  0  0  0  0  0
   35.8840   27.3870   39.6320 F   0  0  0  0  0  0  0  0  0  0  0  0
   39.0500   27.6980   38.9720 N   0  0  0  0  0  0  0  0  0  0  0  0
   38.4130   27.6340   38.1500 H   0  0  0  0  0  0  0  0  0  0  0  0
   39.6650   28.3730   38.4710 H   0  0  0  0  0  0  0  0  0  0  0  0
  1 10  2  0  0  0  0
  1  2  1  0  0  0  0
  2 11  1  0  0  0  0
  2  3  2  0  0  0  0
  3  4  1  0  0  0  0
  3 12  1  0  0  0  0
  4 13  1  0  0  0  0
  5  4  2  0  0  0  0
  6  5  1  0  0  0  0
  6 14  1  0  0  0  0
  7 15  1  0  0  0  0
  7  6  2  0  0  0  0
  8  9  2  0  0  0  0
  8  7  1  0  0  0  0
  9 10  1  0  0  0  0
 10  5  1  0  0  0  0
 16  8  1  0  0  0  0
 17 18  1  0  0  0  0
 18 28  1  0  0  0  0
 18 19  2  0  0  0  0
 19  1  1  0  0  0  0
 20 19  1  0  0  0  0
 21 20  2  0  0  0  0
 22 17  2  0  0  0  0
 22 21  1  0  0  0  0
 23 17  1  0  0  0  0
 24 21  1  0  0  0  0
 24 27  1  0  0  0  0
 24 26  1  0  0  0  0
 25 24  1  0  0  0  0
 28 31  1  0  0  0  0
 28 30  1  0  0  0  0
 29 28  1  0  0  0  0
 32  9  1  0  0  0  0
 33 32  1  0  0  0  0
 34 32  1  0  0  0  0
M  END
>  <minimizedAffinity>
-5.7956481

$$$$

 OpenBabel03252500043D

 34 36  0  0  0  0  0  0  0  0999 V2000
   38.2780   31.3130   40.0250 C   0  0  0  0  0  0  0  0  0  0  0  0
   37.1830   32.1260   39.7600 C   0  0  0  0  0  0  0  0  0  0  0  0
   37.2320   33.5040   39.7090 C   0  0  0  0  0  0  0  0  0  0  0  0
   38.4130   34.1540   39.9290 C   0  0  0  0  0  0  0  0  0  0  0  0
   39.5330   33.3960   40.1970 C   0  0  0  0  0  0  0  0  0  0  0  0
   40.7510   33.9820   40.4270 C   0  0  0  0  0  0  0  0  0  0  0  0
   41.8920   33.2770   40.6980 C   0  0  0  0  0  0  0  0  0  0  0  0
   41.7650   31.8920   40.7320 C   0  0  0  0  0  0  0  0  0  0  0  0
   40.5230   31.3310   40.4960 C   0  0  0  0  0  0  0  0  0  0  0  0
   39.4170   32.0430   40.2320 C   0  0  0  0  0  0  0  0  0  0  0  0
   36.1920   31.7130   39.5700 H   0  0  0  0  0  0  0  0  0  0  0  0
   36.3610   34.1070   39.5000 H   0  0  0  0  0  0  0  0  0  0  0  0
   38.4700   35.2300   39.8940 H   0  0  0  0  0  0  0  0  0  0  0  0
   40.8480   35.0720   40.4000 H   0  0  0  0  0  0  0  0  0  0  0  0
   42.8470   33.7620   40.8770 H   0  0  0  0  0  0  0  0  0  0  0  0
   42.6830   31.3550   40.9470 H   0  0  0  0  0  0  0  0  0  0  0  0
   37.7750   27.7050   39.1200 C   0  0  0  0  0  0  0  0  0  0  0  0
   38.0180   29.0620   38.9230 C   0  0  0  0  0  0  0  0  0  0  0  0
   38.0380   29.9060   40.0370 C   0  0  0  0  0  0  0  0  0  0  0  0
   37.8110   29.2960   41.2470 N   0  0  0  0  0  0  0  0  0  0  0  0
   37.5840   28.0020   41.3940 C   0  0  0  0  0  0  0  0  0  0  0  0
   37.5690   27.2240   40.3270 N   0  0  0  0  0  0  0  0  0  0  0  0
   37.7650   27.0800   38.2400 H   0  0  0  0  0  0  0  0  0  0  0  0
   37.3650   27.5820   42.8190 C   0  0  0  0  0  0  0  0  0  0  0  0
   36.0360   27.6090   43.1600 F   0  0  0  0  0  0  0  0  0  0  0  0
   38.1270   28.3610   43.6660 F   0  0  0  0  0  0  0  0  0  0  0  0
   37.9020   26.2830   42.9830 F   0  0  0  0  0  0  0  0  0  0  0  0
   38.2600   29.7040   37.6140 C   0  0  0  0  0  0  0  0  0  0  0  0
   38.3340   28.6750   36.6650 F   0  0  0  0  0  0  0  0  0  0  0  0
   39.4680   30.3720   37.5500 F   0  0  0  0  0  0  0  0  0  0  0  0
   37.1990   30.5010   37.2050 F   0  0  0  0  0  0  0  0  0  0  0  0
   40.5880   29.9050   40.5700 N   0  0  0  0  0  0  0  0  0  0  0  0
   40.4860   29.2090   41.3370 H   0  0  0  0  0  0  0  0  0  0  0  0
   40.7670   29.1480   39.8760 H   0  0  0  0  0  0  0  0  0  0  0  0
  1 19  1  0  0  0  0
  1 10  1  0  0  0  0
  2  1  2  0  0  0  0
  3  2  1  0  0  0  0
  3  4  2  0  0  0  0
  4  5  1  0  0  0  0
  5 10  2  0  0  0  0
  5  6  1  0  0  0  0
  6  7  2  0  0  0  0
  7  8  1  0  0  0  0
  7 15  1  0  0  0  0
  8 16  1  0  0  0  0
  9 32  1  0  0  0  0
  9  8  2  0  0  0  0
 10  9  1  0  0  0  0
 11  2  1  0  0  0  0
 12  3  1  0  0  0  0
 13  4  1  0  0  0  0
 14  6  1  0  0  0  0
 17 22  1  0  0  0  0
 18 17  2  0  0  0  0
 18 19  1  0  0  0  0
 19 20  2  0  0  0  0
 20 21  1  0  0  0  0
 21 24  1  0  0  0  0
 22 21  2  0  0  0  0
 23 17  1  0  0  0  0
 24 27  1  0  0  0  0
 24 25  1  0  0  0  0
 24 26  1  0  0  0  0
 28 18  1  0  0  0  0
 29 28  1  0  0  0  0
 30 28  1  0  0  0  0
 31 28  1  0  0  0  0
 32 33  1  0  0  0  0
 34 32  1  0  0  0  0
M  END
>  <minimizedAffinity>
-5.79509354

$$$$

 OpenBabel03252500043D

 34 36  0  0  0  0  0  0  0  0999 V2000
   36.6850   29.4580   39.8590 C   0  0  0  0  0  0  0  0  0  0  0  0
   35.3620   29.6160   40.2560 C   0  0  0  0  0  0  0  0  0  0  0  0
   34.2750   29.1750   39.5300 C   0  0  0  0  0  0  0  0  0  0  0  0
   34.4620   28.5370   38.3380 C   0  0  0  0  0  0  0  0  0  0  0  0
   35.7550   28.3530   37.8940 C   0  0  0  0  0  0  0  0  0  0  0  0
   36.0170   27.7200   36.7070 C   0  0  0  0  0  0  0  0  0  0  0  0
   37.2800   27.5120   36.2210 C   0  0  0  0  0  0  0  0  0  0  0  0
   38.3250   27.9840   37.0070 C   0  0  0  0  0  0  0  0  0  0  0  0
   38.0290   28.6180   38.2010 C   0  0  0  0  0  0  0  0  0  0  0  0
   36.7820   28.8110   38.6570 C   0  0  0  0  0  0  0  0  0  0  0  0
   35.0970   30.1120   41.1900 H   0  0  0  0  0  0  0  0  0  0  0  0
   33.2590   29.3140   39.8690 H   0  0  0  0  0  0  0  0  0  0  0  0
   33.6250   28.1860   37.7570 H   0  0  0  0  0  0  0  0  0  0  0  0
   35.1920   27.3500   36.0900 H   0  0  0  0  0  0  0  0  0  0  0  0
   37.4650   27.0090   35.2770 H   0  0  0  0  0  0  0  0  0  0  0  0
   39.3170   27.8070   36.6020 H   0  0  0  0  0  0  0  0  0  0  0  0
   39.1770   29.9960   42.6130 C   0  0  0  0  0  0  0  0  0  0  0  0
   38.1980   29.3420   41.8690 C   0  0  0  0  0  0  0  0  0  0  0  0
   37.6810   29.9800   40.7380 C   0  0  0  0  0  0  0  0  0  0  0  0
   38.2020   31.2210   40.4660 N   0  0  0  0  0  0  0  0  0  0  0  0
   39.1320   31.8110   41.1970 C   0  0  0  0  0  0  0  0  0  0  0  0
   39.6070   31.1900   42.2610 N   0  0  0  0  0  0  0  0  0  0  0  0
   39.5560   29.4790   43.4800 H   0  0  0  0  0  0  0  0  0  0  0  0
   39.5350   33.1650   40.6900 C   0  0  0  0  0  0  0  0  0  0  0  0
   38.7520   34.1610   41.2170 F   0  0  0  0  0  0  0  0  0  0  0  0
   39.5210   33.1800   39.3100 F   0  0  0  0  0  0  0  0  0  0  0  0
   40.8970   33.3700   41.0130 F   0  0  0  0  0  0  0  0  0  0  0  0
   37.6460   28.0060   42.1760 C   0  0  0  0  0  0  0  0  0  0  0  0
   38.3590   27.5160   43.2780 F   0  0  0  0  0  0  0  0  0  0  0  0
   37.8370   27.0910   41.1580 F   0  0  0  0  0  0  0  0  0  0  0  0
   36.3220   28.0580   42.5910 F   0  0  0  0  0  0  0  0  0  0  0  0
   39.2240   29.0300   38.8680 N   0  0  0  0  0  0  0  0  0  0  0  0
   39.8170   29.8860   38.8420 H   0  0  0  0  0  0  0  0  0  0  0  0
   39.8560   28.5860   39.5680 H   0  0  0  0  0  0  0  0  0  0  0  0
  1  2  1  0  0  0  0
  1 19  1  0  0  0  0
  2 11  1  0  0  0  0
  3 12  1  0  0  0  0
  3  2  2  0  0  0  0
  4  3  1  0  0  0  0
  5  4  2  0  0  0  0
  5 10  1  0  0  0  0
  6  5  1  0  0  0  0
  7  6  2  0  0  0  0
  7  8  1  0  0  0  0
  8  9  2  0  0  0  0
  9 10  1  0  0  0  0
  9 32  1  0  0  0  0
 10  1  2  0  0  0  0
 13  4  1  0  0  0  0
 14  6  1  0  0  0  0
 15  7  1  0  0  0  0
 16  8  1  0  0  0  0
 17 23  1  0  0  0  0
 18 28  1  0  0  0  0
 18 17  2  0  0  0  0
 19 18  1  0  0  0  0
 20 19  2  0  0  0  0
 20 21  1  0  0  0  0
 21 22  2  0  0  0  0
 22 17  1  0  0  0  0
 24 27  1  0  0  0  0
 24 21  1  0  0  0  0
 24 25  1  0  0  0  0
 26 24  1  0  0  0  0
 28 31  1  0  0  0  0
 28 29  1  0  0  0  0
 30 28  1  0  0  0  0
 32 34  1  0  0  0  0
 33 32  1  0  0  0  0
M  END
>  <minimizedAffinity>
-5.73799467

$$$$

 OpenBabel03252500043D

 34 36  0  0  0  0  0  0  0  0999 V2000
   38.2720   28.5960   41.4250 C   0  0  0  0  0  0  0  0  0  0  0  0
   37.9640   29.1540   42.6610 C   0  0  0  0  0  0  0  0  0  0  0  0
   37.3250   28.4800   43.6800 C   0  0  0  0  0  0  0  0  0  0  0  0
   36.9500   27.1780   43.5090 C   0  0  0  0  0  0  0  0  0  0  0  0
   37.2300   26.5730   42.3020 C   0  0  0  0  0  0  0  0  0  0  0  0
   36.8840   25.2690   42.0620 C   0  0  0  0  0  0  0  0  0  0  0  0
   37.1380   24.6220   40.8830 C   0  0  0  0  0  0  0  0  0  0  0  0
   37.7850   25.3650   39.9020 C   0  0  0  0  0  0  0  0  0  0  0  0
   38.1230   26.6790   40.1740 C   0  0  0  0  0  0  0  0  0  0  0  0
   37.8630   27.2930   41.3390 C   0  0  0  0  0  0  0  0  0  0  0  0
   38.2170   30.1860   42.9040 H   0  0  0  0  0  0  0  0  0  0  0  0
   37.1010   28.9440   44.6290 H   0  0  0  0  0  0  0  0  0  0  0  0
   36.4490   26.6350   44.2950 H   0  0  0  0  0  0  0  0  0  0  0  0
   36.3740   24.6870   42.8350 H   0  0  0  0  0  0  0  0  0  0  0  0
   36.8540   23.5880   40.7130 H   0  0  0  0  0  0  0  0  0  0  0  0
   37.9770   24.8310   38.9770 H   0  0  0  0  0  0  0  0  0  0  0  0
   40.7960   30.5050   39.4080 C   0  0  0  0  0  0  0  0  0  0  0  0
   40.3160   29.6420   40.3890 C   0  0  0  0  0  0  0  0  0  0  0  0
   38.9360   29.4450   40.4900 C   0  0  0  0  0  0  0  0  0  0  0  0
   38.1700   30.1410   39.5870 N   0  0  0  0  0  0  0  0  0  0  0  0
   38.6630   30.9530   38.6670 C   0  0  0  0  0  0  0  0  0  0  0  0
   39.9700   31.1240   38.5900 N   0  0  0  0  0  0  0  0  0  0  0  0
   41.8650   30.6360   39.3560 H   0  0  0  0  0  0  0  0  0  0  0  0
   37.6190   31.5950   37.8010 C   0  0  0  0  0  0  0  0  0  0  0  0
   37.0010   32.6420   38.4370 F   0  0  0  0  0  0  0  0  0  0  0  0
   36.7090   30.6490   37.3730 F   0  0  0  0  0  0  0  0  0  0  0  0
   38.2400   32.0270   36.6060 F   0  0  0  0  0  0  0  0  0  0  0  0
   41.1540   28.9000   41.3550 C   0  0  0  0  0  0  0  0  0  0  0  0
   42.4880   29.2030   41.0510 F   0  0  0  0  0  0  0  0  0  0  0  0
   41.0340   27.5290   41.2380 F   0  0  0  0  0  0  0  0  0  0  0  0
   40.9710   29.3320   42.6630 F   0  0  0  0  0  0  0  0  0  0  0  0
   38.7790   27.2780   39.0550 N   0  0  0  0  0  0  0  0  0  0  0  0
   38.4560   27.7920   38.2090 H   0  0  0  0  0  0  0  0  0  0  0  0
   39.7740   27.3630   38.7560 H   0  0  0  0  0  0  0  0  0  0  0  0
  1  2  1  0  0  0  0
  2 11  1  0  0  0  0
  2  3  2  0  0  0  0
  3 12  1  0  0  0  0
  4  3  1  0  0  0  0
  4 13  1  0  0  0  0
  5  4  2  0  0  0  0
  6  5  1  0  0  0  0
  6 14  1  0  0  0  0
  7  6  2  0  0  0  0
  8  9  2  0  0  0  0
  8  7  1  0  0  0  0
  9 10  1  0  0  0  0
 10  1  2  0  0  0  0
 10  5  1  0  0  0  0
 15  7  1  0  0  0  0
 16  8  1  0  0  0  0
 17 18  1  0  0  0  0
 18 19  2  0  0  0  0
 18 28  1  0  0  0  0
 19  1  1  0  0  0  0
 20 19  1  0  0  0  0
 21 20  2  0  0  0  0
 22 21  1  0  0  0  0
 22 17  2  0  0  0  0
 23 17  1  0  0  0  0
 24 25  1  0  0  0  0
 24 21  1  0  0  0  0
 26 24  1  0  0  0  0
 27 24  1  0  0  0  0
 28 31  1  0  0  0  0
 29 28  1  0  0  0  0
 30 28  1  0  0  0  0
 32  9  1  0  0  0  0
 33 32  1  0  0  0  0
 34 32  1  0  0  0  0
M  END
>  <minimizedAffinity>
-5.70158863

$$$$

 OpenBabel03252500043D

 34 36  0  0  0  0  0  0  0  0999 V2000
   38.8940   27.6840   41.4450 C   0  0  0  0  0  0  0  0  0  0  0  0
   39.6290   27.9380   42.5970 C   0  0  0  0  0  0  0  0  0  0  0  0
   39.8240   27.0250   43.6110 C   0  0  0  0  0  0  0  0  0  0  0  0
   39.2770   25.7770   43.5230 C   0  0  0  0  0  0  0  0  0  0  0  0
   38.5370   25.4690   42.4010 C   0  0  0  0  0  0  0  0  0  0  0  0
   37.9600   24.2360   42.2450 C   0  0  0  0  0  0  0  0  0  0  0  0
   37.2160   23.8790   41.1520 C   0  0  0  0  0  0  0  0  0  0  0  0
   37.0630   24.8520   40.1700 C   0  0  0  0  0  0  0  0  0  0  0  0
   37.6580   26.0870   40.3560 C   0  0  0  0  0  0  0  0  0  0  0  0
   38.3830   26.4140   41.4370 C   0  0  0  0  0  0  0  0  0  0  0  0
   40.1090   28.9010   42.7710 H   0  0  0  0  0  0  0  0  0  0  0  0
   40.4030   27.2560   44.4940 H   0  0  0  0  0  0  0  0  0  0  0  0
   39.4190   25.0500   44.3060 H   0  0  0  0  0  0  0  0  0  0  0  0
   38.0820   23.4730   43.0200 H   0  0  0  0  0  0  0  0  0  0  0  0
   36.7670   22.8960   41.0490 H   0  0  0  0  0  0  0  0  0  0  0  0
   36.4710   24.5460   39.3140 H   0  0  0  0  0  0  0  0  0  0  0  0
   37.9090   30.7450   39.5100 C   0  0  0  0  0  0  0  0  0  0  0  0
   37.8500   29.7760   40.5080 C   0  0  0  0  0  0  0  0  0  0  0  0
   38.7990   28.7500   40.5010 C   0  0  0  0  0  0  0  0  0  0  0  0
   39.7200   28.8000   39.4820 N   0  0  0  0  0  0  0  0  0  0  0  0
   39.7440   29.7380   38.5510 C   0  0  0  0  0  0  0  0  0  0  0  0
   38.8370   30.6980   38.5770 N   0  0  0  0  0  0  0  0  0  0  0  0
   37.1630   31.5230   39.5420 H   0  0  0  0  0  0  0  0  0  0  0  0
   40.8490   29.5700   37.5490 C   0  0  0  0  0  0  0  0  0  0  0  0
   41.2350   30.7710   37.0090 F   0  0  0  0  0  0  0  0  0  0  0  0
   40.4740   28.6680   36.5740 F   0  0  0  0  0  0  0  0  0  0  0  0
   41.9370   28.9350   38.1940 F   0  0  0  0  0  0  0  0  0  0  0  0
   36.8520   29.7350   41.5980 C   0  0  0  0  0  0  0  0  0  0  0  0
   36.0650   30.8880   41.4700 F   0  0  0  0  0  0  0  0  0  0  0  0
   37.4180   29.7930   42.8560 F   0  0  0  0  0  0  0  0  0  0  0  0
   35.9660   28.6730   41.4700 F   0  0  0  0  0  0  0  0  0  0  0  0
   37.3950   26.9500   39.2480 N   0  0  0  0  0  0  0  0  0  0  0  0
   36.6360   27.6230   39.0110 H   0  0  0  0  0  0  0  0  0  0  0  0
   37.8820   27.1470   38.3480 H   0  0  0  0  0  0  0  0  0  0  0  0
  1  2  1  0  0  0  0
  2 11  1  0  0  0  0
  2  3  2  0  0  0  0
  3 12  1  0  0  0  0
  4  3  1  0  0  0  0
  4 13  1  0  0  0  0
  5  4  2  0  0  0  0
  6  5  1  0  0  0  0
  6 14  1  0  0  0  0
  7  6  2  0  0  0  0
  8  9  2  0  0  0  0
  8  7  1  0  0  0  0
  9 10  1  0  0  0  0
 10  1  2  0  0  0  0
 10  5  1  0  0  0  0
 15  7  1  0  0  0  0
 16  8  1  0  0  0  0
 17 23  1  0  0  0  0
 17 18  1  0  0  0  0
 18 28  1  0  0  0  0
 19 18  2  0  0  0  0
 19  1  1  0  0  0  0
 20 19  1  0  0  0  0
 21 22  1  0  0  0  0
 21 20  2  0  0  0  0
 22 17  2  0  0  0  0
 24 27  1  0  0  0  0
 24 21  1  0  0  0  0
 25 24  1  0  0  0  0
 26 24  1  0  0  0  0
 28 30  1  0  0  0  0
 29 28  1  0  0  0  0
 31 28  1  0  0  0  0
 32  9  1  0  0  0  0
 33 32  1  0  0  0  0
 34 32  1  0  0  0  0
M  END
>  <minimizedAffinity>
-5.66927671

$$$$
