
 OpenBabel03252502433D

 26 27  0  0  1  0  0  0  0  0999 V2000
   46.5550   35.2750   42.4050 C   0  0  0  0  0  0  0  0  0  0  0  0
   46.0790   36.0550   41.7760 H   0  0  0  0  0  0  0  0  0  0  0  0
   46.8430   35.6780   43.3990 H   0  0  0  0  0  0  0  0  0  0  0  0
   47.7960   34.7350   41.7630 C   0  0  1  0  0  0  0  0  0  0  0  0
   48.9080   35.7010   41.5020 C   0  0  0  0  0  0  0  0  0  0  0  0
   49.0180   34.7000   42.5810 C   0  0  2  0  0  0  0  0  0  0  0  0
   47.5460   33.9550   40.9950 H   0  0  0  0  0  0  0  0  0  0  0  0
   49.4110   35.5310   40.5250 H   0  0  0  0  0  0  0  0  0  0  0  0
   48.7980   36.7910   41.6640 H   0  0  0  0  0  0  0  0  0  0  0  0
   49.1550   34.7910   43.6330 H   0  0  0  0  0  0  0  0  0  0  0  0
   49.9010   33.5000   42.1810 C   0  0  0  0  0  0  0  0  0  0  0  0
   49.4720   32.3910   42.9170 F   0  0  0  0  0  0  0  0  0  0  0  0
   49.7160   33.1430   40.8610 F   0  0  0  0  0  0  0  0  0  0  0  0
   51.2320   33.7430   42.3410 F   0  0  0  0  0  0  0  0  0  0  0  0
   45.5840   34.1220   42.4620 C   0  0  0  0  0  0  0  0  0  0  0  0
   46.0830   33.2700   41.8970 H   0  0  0  0  0  0  0  0  0  0  0  0
   44.5790   34.3510   42.1420 H   0  0  0  0  0  0  0  0  0  0  0  0
   45.6520   33.5640   46.1630 C   0  0  0  0  0  0  0  0  0  0  0  0
   45.4850   34.2020   44.9200 C   0  0  0  0  0  0  0  0  0  0  0  0
   45.6920   33.4570   43.7940 C   0  0  0  0  0  0  0  0  0  0  0  0
   46.0410   32.1440   43.9090 N   0  0  0  0  0  0  0  0  0  0  0  0
   46.1910   31.5590   45.0850 C   0  0  0  0  0  0  0  0  0  0  0  0
   46.0010   32.2540   46.2180 N   0  0  0  0  0  0  0  0  0  0  0  0
   45.5280   34.0120   47.1300 H   0  0  0  0  0  0  0  0  0  0  0  0
   45.1970   35.2220   45.0880 H   0  0  0  0  0  0  0  0  0  0  0  0
   46.4720   30.5080   45.0300 H   0  0  0  0  0  0  0  0  0  0  0  0
  1 15  1  0  0  0  0
  1  3  1  0  0  0  0
  2  1  1  0  0  0  0
  4  7  1  6  0  0  0
  4  1  1  0  0  0  0
  4  6  1  0  0  0  0
  5  9  1  0  0  0  0
  5  4  1  0  0  0  0
  5  6  1  0  0  0  0
  6 10  1  1  0  0  0
  8  5  1  0  0  0  0
 11 14  1  0  0  0  0
 11  6  1  0  0  0  0
 11 12  1  0  0  0  0
 13 11  1  0  0  0  0
 15 20  1  0  0  0  0
 16 15  1  0  0  0  0
 17 15  1  0  0  0  0
 18 23  1  0  0  0  0
 18 24  1  0  0  0  0
 19 25  1  0  0  0  0
 19 18  2  0  0  0  0
 20 21  2  0  0  0  0
 20 19  1  0  0  0  0
 21 22  1  0  0  0  0
 22 23  2  0  0  0  0
 26 22  1  0  0  0  0
M  END
>  <minimizedAffinity>
-4.30747557

>  <minimizedRMSD>
2.19832945

$$$$
