
 OpenBabel03242522273D

 33 35  0  0  0  0  0  0  0  0999 V2000
   45.0000   33.5140   41.2240 F   0  0  0  0  0  0  0  0  0  0  0  0
   46.2180   34.1500   41.0810 C   0  0  0  0  0  0  0  0  0  0  0  0
   46.7710   34.8080   42.1280 C   0  0  0  0  0  0  0  0  0  0  0  0
   48.0500   35.3020   41.9200 C   0  0  0  0  0  0  0  0  0  0  0  0
   48.7300   35.1350   40.7290 C   0  0  0  0  0  0  0  0  0  0  0  0
   48.0670   34.4490   39.7420 C   0  0  0  0  0  0  0  0  0  0  0  0
   46.8180   33.9500   39.8760 C   0  0  0  0  0  0  0  0  0  0  0  0
   48.3710   35.8190   42.8540 H   0  0  0  0  0  0  0  0  0  0  0  0
   49.6770   35.6150   40.8730 H   0  0  0  0  0  0  0  0  0  0  0  0
   48.8830   34.4760   39.0900 H   0  0  0  0  0  0  0  0  0  0  0  0
   46.2550   33.2940   38.7320 C   0  0  0  0  0  0  0  0  0  0  0  0
   45.0040   32.6880   38.8750 C   0  0  0  0  0  0  0  0  0  0  0  0
   44.5220   32.0050   37.7850 C   0  0  0  0  0  0  0  0  0  0  0  0
   45.2520   31.9220   36.5830 C   0  0  0  0  0  0  0  0  0  0  0  0
   46.4960   32.5550   36.5040 C   0  0  0  0  0  0  0  0  0  0  0  0
   47.0160   33.2530   37.5760 C   0  0  0  0  0  0  0  0  0  0  0  0
   44.3320   32.6290   39.6820 H   0  0  0  0  0  0  0  0  0  0  0  0
   43.5510   31.4880   37.7770 H   0  0  0  0  0  0  0  0  0  0  0  0
   44.8020   31.3530   35.7530 H   0  0  0  0  0  0  0  0  0  0  0  0
   46.9180   32.3930   35.5290 H   0  0  0  0  0  0  0  0  0  0  0  0
   48.3190   33.8070   37.2000 C   0  0  0  0  0  0  0  0  0  0  0  0
   48.5820   33.5500   35.7990 F   0  0  0  0  0  0  0  0  0  0  0  0
   49.4100   33.0290   37.6570 F   0  0  0  0  0  0  0  0  0  0  0  0
   48.4840   35.1430   37.2130 F   0  0  0  0  0  0  0  0  0  0  0  0
   44.4470   35.9540   44.8690 C   0  0  0  0  0  0  0  0  0  0  0  0
   45.1320   35.9160   43.6400 C   0  0  0  0  0  0  0  0  0  0  0  0
   46.0210   34.9090   43.3670 C   0  0  0  0  0  0  0  0  0  0  0  0
   46.1630   34.0050   44.3460 N   0  0  0  0  0  0  0  0  0  0  0  0
   45.5240   34.0260   45.5130 C   0  0  0  0  0  0  0  0  0  0  0  0
   44.6600   35.0110   45.7720 N   0  0  0  0  0  0  0  0  0  0  0  0
   43.7600   36.8000   44.9870 H   0  0  0  0  0  0  0  0  0  0  0  0
   44.9530   36.6880   42.9070 H   0  0  0  0  0  0  0  0  0  0  0  0
   45.6860   33.2660   46.2610 H   0  0  0  0  0  0  0  0  0  0  0  0
  2  1  1  0  0  0  0
  2  3  1  0  0  0  0
  3 27  1  0  0  0  0
  4  3  2  0  0  0  0
  4  8  1  0  0  0  0
  5  9  1  0  0  0  0
  5  4  1  0  0  0  0
  6  7  1  0  0  0  0
  6  5  2  0  0  0  0
  7  2  2  0  0  0  0
 10  6  1  0  0  0  0
 11 12  1  0  0  0  0
 11  7  1  0  0  0  0
 12 17  1  0  0  0  0
 13 12  2  0  0  0  0
 14 13  1  0  0  0  0
 15 14  2  0  0  0  0
 15 16  1  0  0  0  0
 16 11  2  0  0  0  0
 18 13  1  0  0  0  0
 19 14  1  0  0  0  0
 20 15  1  0  0  0  0
 21 24  1  0  0  0  0
 21 16  1  0  0  0  0
 21 23  1  0  0  0  0
 22 21  1  0  0  0  0
 25 31  1  0  0  0  0
 25 30  1  0  0  0  0
 26 25  2  0  0  0  0
 27 26  1  0  0  0  0
 27 28  2  0  0  0  0
 28 29  1  0  0  0  0
 29 30  2  0  0  0  0
 29 33  1  0  0  0  0
 32 26  1  0  0  0  0
M  END
>  <minimizedAffinity>
-6.61541224

>  <minimizedRMSD>
0.74530828

$$$$
