
 OpenBabel03252502433D

 26 27  0  0  1  0  0  0  0  0999 V2000
   47.3710   35.2590   41.7760 C   0  0  0  0  0  0  0  0  0  0  0  0
   46.9240   35.6130   40.8240 H   0  0  0  0  0  0  0  0  0  0  0  0
   47.4400   36.0800   42.5200 H   0  0  0  0  0  0  0  0  0  0  0  0
   48.7540   34.7250   41.5660 C   0  0  1  0  0  0  0  0  0  0  0  0
   49.8430   35.2850   42.4250 C   0  0  0  0  0  0  0  0  0  0  0  0
   49.3370   33.9160   42.6480 C   0  0  2  0  0  0  0  0  0  0  0  0
   48.9510   34.5310   40.4780 H   0  0  0  0  0  0  0  0  0  0  0  0
   50.7930   35.4490   41.8730 H   0  0  0  0  0  0  0  0  0  0  0  0
   49.6770   36.1370   43.1130 H   0  0  0  0  0  0  0  0  0  0  0  0
   48.8820   33.4480   43.4890 H   0  0  0  0  0  0  0  0  0  0  0  0
   50.2800   32.8410   42.0710 C   0  0  0  0  0  0  0  0  0  0  0  0
   49.9300   32.6420   40.7310 F   0  0  0  0  0  0  0  0  0  0  0  0
   51.5900   33.2730   42.0360 F   0  0  0  0  0  0  0  0  0  0  0  0
   50.2650   31.6830   42.7870 F   0  0  0  0  0  0  0  0  0  0  0  0
   46.5380   34.0840   42.2260 C   0  0  0  0  0  0  0  0  0  0  0  0
   47.2630   33.3680   42.7310 H   0  0  0  0  0  0  0  0  0  0  0  0
   45.9190   33.6390   41.4620 H   0  0  0  0  0  0  0  0  0  0  0  0
   44.4790   35.9320   44.7470 C   0  0  0  0  0  0  0  0  0  0  0  0
   45.0870   35.5890   43.5260 C   0  0  0  0  0  0  0  0  0  0  0  0
   45.8300   34.4430   43.4900 C   0  0  0  0  0  0  0  0  0  0  0  0
   45.9520   33.6830   44.6160 N   0  0  0  0  0  0  0  0  0  0  0  0
   45.3720   34.0200   45.7560 C   0  0  0  0  0  0  0  0  0  0  0  0
   44.6350   35.1390   45.8360 N   0  0  0  0  0  0  0  0  0  0  0  0
   43.8700   36.7970   44.9330 H   0  0  0  0  0  0  0  0  0  0  0  0
   44.8340   36.3270   42.7900 H   0  0  0  0  0  0  0  0  0  0  0  0
   45.5540   33.3240   46.5730 H   0  0  0  0  0  0  0  0  0  0  0  0
  1 15  1  0  0  0  0
  1  3  1  0  0  0  0
  2  1  1  0  0  0  0
  4  7  1  6  0  0  0
  4  1  1  0  0  0  0
  4  5  1  0  0  0  0
  4  6  1  0  0  0  0
  5  6  1  0  0  0  0
  5  9  1  0  0  0  0
  6 10  1  1  0  0  0
  8  5  1  0  0  0  0
 11  6  1  0  0  0  0
 11 14  1  0  0  0  0
 12 11  1  0  0  0  0
 13 11  1  0  0  0  0
 15 16  1  0  0  0  0
 15 20  1  0  0  0  0
 17 15  1  0  0  0  0
 18 24  1  0  0  0  0
 18 23  1  0  0  0  0
 19 18  2  0  0  0  0
 20 19  1  0  0  0  0
 20 21  2  0  0  0  0
 21 22  1  0  0  0  0
 22 23  2  0  0  0  0
 22 26  1  0  0  0  0
 25 19  1  0  0  0  0
M  END
>  <minimizedAffinity>
-4.66248512

>  <minimizedRMSD>
0.979005814

$$$$
