
 OpenBabel03252509183D

 36 38  0  0  1  0  0  0  0  0999 V2000
   48.0980   29.5440   47.5380 C   0  0  1  0  0  0  0  0  0  0  0  0
   48.6510   28.5070   46.6200 C   0  0  0  0  0  0  0  0  0  0  0  0
   50.0720   28.1210   46.8880 C   0  0  0  0  0  0  0  0  0  0  0  0
   50.3620   27.9460   48.3600 C   0  0  0  0  0  0  0  0  0  0  0  0
   49.7950   29.0580   49.2010 C   0  0  0  0  0  0  0  0  0  0  0  0
   49.2790   30.1870   48.2940 C   0  0  2  0  0  0  0  0  0  0  0  0
   47.5190   29.0400   48.3360 H   0  0  0  0  0  0  0  0  0  0  0  0
   48.6250   28.9480   45.5800 H   0  0  0  0  0  0  0  0  0  0  0  0
   47.9770   27.6180   46.5470 H   0  0  0  0  0  0  0  0  0  0  0  0
   50.7920   28.8240   46.4280 H   0  0  0  0  0  0  0  0  0  0  0  0
   50.2470   27.1190   46.4220 H   0  0  0  0  0  0  0  0  0  0  0  0
   49.9290   26.9790   48.7250 H   0  0  0  0  0  0  0  0  0  0  0  0
   51.4590   27.8430   48.4680 H   0  0  0  0  0  0  0  0  0  0  0  0
   50.6010   29.4610   49.8520 H   0  0  0  0  0  0  0  0  0  0  0  0
   48.9620   28.7290   49.8250 H   0  0  0  0  0  0  0  0  0  0  0  0
   50.0540   30.5570   47.6230 H   0  0  0  0  0  0  0  0  0  0  0  0
   46.1980   32.1730   45.0400 C   0  0  0  0  0  0  0  0  0  0  0  0
   45.5330   32.0340   46.2700 C   0  0  0  0  0  0  0  0  0  0  0  0
   46.0710   31.1950   47.1840 C   0  0  0  0  0  0  0  0  0  0  0  0
   47.2570   30.4960   46.8880 C   0  0  0  0  0  0  0  0  0  0  0  0
   47.6390   31.0660   45.2020 S   0  0  0  0  0  0  0  0  0  0  0  0
   44.6230   32.5660   46.5020 H   0  0  0  0  0  0  0  0  0  0  0  0
   45.7160   30.9550   48.1730 H   0  0  0  0  0  0  0  0  0  0  0  0
   44.3730   33.7600   42.2120 C   0  0  0  0  0  0  0  0  0  0  0  0
   45.1950   34.8970   42.0050 C   0  0  0  0  0  0  0  0  0  0  0  0
   46.3300   35.0690   42.8390 C   0  0  0  0  0  0  0  0  0  0  0  0
   46.5460   34.1120   43.7870 N   0  0  0  0  0  0  0  0  0  0  0  0
   45.7410   33.0450   43.9520 C   0  0  0  0  0  0  0  0  0  0  0  0
   44.6650   32.8820   43.1620 N   0  0  0  0  0  0  0  0  0  0  0  0
   43.4990   33.6010   41.5920 H   0  0  0  0  0  0  0  0  0  0  0  0
   44.9720   35.6140   41.2420 H   0  0  0  0  0  0  0  0  0  0  0  0
   46.9900   35.9190   42.7230 H   0  0  0  0  0  0  0  0  0  0  0  0
   48.7600   31.2640   49.2330 C   0  0  0  0  0  0  0  0  0  0  0  0
   48.5830   32.4630   48.5680 F   0  0  0  0  0  0  0  0  0  0  0  0
   47.5900   30.8350   49.8180 F   0  0  0  0  0  0  0  0  0  0  0  0
   49.6990   31.4420   50.2110 F   0  0  0  0  0  0  0  0  0  0  0  0
  1  6  1  0  0  0  0
  1  7  1  1  0  0  0
  2  3  1  0  0  0  0
  2  1  1  0  0  0  0
  3  4  1  0  0  0  0
  4 13  1  0  0  0  0
  4 12  1  0  0  0  0
  4  5  1  0  0  0  0
  5 15  1  0  0  0  0
  5 14  1  0  0  0  0
  6 16  1  6  0  0  0
  6  5  1  0  0  0  0
  6 33  1  0  0  0  0
  8  2  1  0  0  0  0
  9  2  1  0  0  0  0
 10  3  1  0  0  0  0
 11  3  1  0  0  0  0
 17 21  1  0  0  0  0
 17 18  2  0  0  0  0
 18 22  1  0  0  0  0
 18 19  1  0  0  0  0
 19 23  1  0  0  0  0
 20 19  2  0  0  0  0
 20  1  1  0  0  0  0
 21 20  1  0  0  0  0
 24 29  1  0  0  0  0
 25 24  2  0  0  0  0
 25 26  1  0  0  0  0
 26 27  2  0  0  0  0
 27 28  1  0  0  0  0
 28 17  1  0  0  0  0
 29 28  2  0  0  0  0
 30 24  1  0  0  0  0
 31 25  1  0  0  0  0
 32 26  1  0  0  0  0
 33 35  1  0  0  0  0
 33 36  1  0  0  0  0
 34 33  1  0  0  0  0
M  END
>  <minimizedAffinity>
-4.20306396

>  <minimizedRMSD>
1.83711326

$$$$
