
 OpenBabel03252502463D

 40 42  0  0  1  0  0  0  0  0999 V2000
   48.9830   34.7710   41.5150 C   0  0  1  0  0  0  0  0  0  0  0  0
   50.0850   34.7850   42.5350 C   0  0  0  0  0  0  0  0  0  0  0  0
   49.3520   33.5300   42.1890 C   0  0  2  0  0  0  0  0  0  0  0  0
   49.2990   34.9910   40.5010 H   0  0  0  0  0  0  0  0  0  0  0  0
   49.9120   35.2580   43.5390 H   0  0  0  0  0  0  0  0  0  0  0  0
   51.1270   34.9530   42.1930 H   0  0  0  0  0  0  0  0  0  0  0  0
   48.8300   33.0780   43.0210 H   0  0  0  0  0  0  0  0  0  0  0  0
   50.1310   32.6290   41.3600 N   0  0  0  0  0  0  0  0  0  0  0  0
   49.4640   32.1900   40.1900 C   0  0  0  0  0  0  0  0  0  0  0  0
   50.4330   31.2630   39.4810 C   0  0  0  0  0  0  0  0  0  0  0  0
   50.7430   30.1190   40.2610 N   0  0  0  0  0  0  0  0  0  0  0  0
   50.6400   30.3270   41.6950 C   0  0  0  0  0  0  0  0  0  0  0  0
   51.0150   31.7740   42.0290 C   0  0  0  0  0  0  0  0  0  0  0  0
   48.5800   31.5930   40.4500 H   0  0  0  0  0  0  0  0  0  0  0  0
   49.1840   33.0220   39.5400 H   0  0  0  0  0  0  0  0  0  0  0  0
   51.3320   31.8050   39.1230 H   0  0  0  0  0  0  0  0  0  0  0  0
   49.9030   30.9150   38.5570 H   0  0  0  0  0  0  0  0  0  0  0  0
   50.1730   29.2570   40.0110 H   0  0  0  0  0  0  0  0  0  0  0  0
   51.4000   29.6630   42.1650 H   0  0  0  0  0  0  0  0  0  0  0  0
   49.6060   30.1290   42.0290 H   0  0  0  0  0  0  0  0  0  0  0  0
   52.0530   31.9420   41.6540 H   0  0  0  0  0  0  0  0  0  0  0  0
   51.0090   31.9150   43.1120 H   0  0  0  0  0  0  0  0  0  0  0  0
   47.6880   35.4110   41.8960 C   0  0  0  0  0  0  0  0  0  0  0  0
   47.3450   36.1660   41.1460 H   0  0  0  0  0  0  0  0  0  0  0  0
   47.8030   35.9870   42.8370 H   0  0  0  0  0  0  0  0  0  0  0  0
   46.6980   34.2910   42.0940 C   0  0  0  0  0  0  0  0  0  0  0  0
   47.0490   33.2900   41.9140 H   0  0  0  0  0  0  0  0  0  0  0  0
   45.8810   34.4660   41.3420 H   0  0  0  0  0  0  0  0  0  0  0  0
   44.5390   35.7610   44.7870 C   0  0  0  0  0  0  0  0  0  0  0  0
   45.1770   35.5700   43.5340 C   0  0  0  0  0  0  0  0  0  0  0  0
   46.0120   34.5030   43.4080 C   0  0  0  0  0  0  0  0  0  0  0  0
   46.2010   33.6770   44.4630 N   0  0  0  0  0  0  0  0  0  0  0  0
   45.6110   33.8510   45.6220 C   0  0  0  0  0  0  0  0  0  0  0  0
   44.7800   34.8810   45.8050 N   0  0  0  0  0  0  0  0  0  0  0  0
   43.8670   36.6130   44.8990 H   0  0  0  0  0  0  0  0  0  0  0  0
   44.9950   36.2580   42.7200 H   0  0  0  0  0  0  0  0  0  0  0  0
   45.8520   32.9080   46.7590 C   0  0  0  0  0  0  0  0  0  0  0  0
   45.6550   31.5880   46.3400 F   0  0  0  0  0  0  0  0  0  0  0  0
   44.9660   33.1220   47.7840 F   0  0  0  0  0  0  0  0  0  0  0  0
   47.1570   32.9860   47.2020 F   0  0  0  0  0  0  0  0  0  0  0  0
  1  4  1  6  0  0  0
  1 23  1  0  0  0  0
  1  3  1  0  0  0  0
  1  2  1  0  0  0  0
  2  5  1  0  0  0  0
  3  2  1  0  0  0  0
  3  7  1  1  0  0  0
  6  2  1  0  0  0  0
  8 13  1  0  0  0  0
  8  3  1  0  0  0  0
  9 14  1  0  0  0  0
  9  8  1  0  0  0  0
 10  9  1  0  0  0  0
 10 11  1  0  0  0  0
 11 12  1  0  0  0  0
 12 13  1  0  0  0  0
 12 20  1  0  0  0  0
 12 19  1  0  0  0  0
 13 22  1  0  0  0  0
 15  9  1  0  0  0  0
 16 10  1  0  0  0  0
 17 10  1  0  0  0  0
 18 11  1  0  0  0  0
 21 13  1  0  0  0  0
 23 26  1  0  0  0  0
 23 25  1  0  0  0  0
 24 23  1  0  0  0  0
 26 31  1  0  0  0  0
 27 26  1  0  0  0  0
 28 26  1  0  0  0  0
 29 35  1  0  0  0  0
 29 34  1  0  0  0  0
 30 29  2  0  0  0  0
 31 30  1  0  0  0  0
 31 32  2  0  0  0  0
 32 33  1  0  0  0  0
 33 34  2  0  0  0  0
 33 37  1  0  0  0  0
 36 30  1  0  0  0  0
 37 40  1  0  0  0  0
 37 39  1  0  0  0  0
 38 37  1  0  0  0  0
M  END
>  <minimizedAffinity>
-5.51641512

>  <minimizedRMSD>
0.151781812

$$$$
