
     RDKit          3D

 27 28  0  0  0  0  0  0  0  0999 V2000
   44.6965   35.1772   44.1948 C   0  0  0  0  0  0  0  0  0  0  0  0
   44.7367   34.1025   43.2811 C   0  0  0  0  0  0  0  0  0  0  0  0
   45.2267   32.8845   43.7115 C   0  0  0  0  0  0  0  0  0  0  0  0
   45.6669   32.7142   44.9861 N   0  0  0  0  0  0  0  0  0  0  0  0
   45.6229   33.7685   45.8619 C   0  0  0  0  0  0  0  0  0  0  0  0
   45.1471   34.9686   45.4689 N   0  0  0  0  0  0  0  0  0  0  0  0
   44.2940   34.4076   41.9789 N   0  0  0  0  0  0  0  0  0  0  0  0
   44.5728   33.5009   40.9244 C   0  0  1  0  0  0  0  0  0  0  0  0
   43.8171   33.7289   39.6573 C   0  0  0  0  0  0  0  0  0  0  0  0
   42.5778   34.3754   39.7069 N   0  0  0  0  0  0  0  0  0  0  0  0
   42.3358   35.2423   40.7834 C   0  0  0  0  0  0  0  0  0  0  0  0
   43.5846   35.5693   41.5429 C   0  0  0  0  0  0  0  0  0  0  0  0
   44.3592   36.1830   44.0642 H   0  0  0  0  0  0  0  0  0  0  0  0
   45.2501   32.0604   43.0519 H   0  0  0  0  0  0  0  0  0  0  0  0
   45.9755   33.6339   46.8829 H   0  0  0  0  0  0  0  0  0  0  0  0
   44.3906   32.4590   41.2557 H   0  0  0  0  0  0  0  0  0  0  0  0
   44.4787   34.3415   38.9678 H   0  0  0  0  0  0  0  0  0  0  0  0
   43.6723   32.7361   39.1570 H   0  0  0  0  0  0  0  0  0  0  0  0
   42.3767   34.8598   38.8116 H   0  0  0  0  0  0  0  0  0  0  0  0
   41.6889   34.6773   41.5182 H   0  0  0  0  0  0  0  0  0  0  0  0
   41.7705   36.1540   40.5614 H   0  0  0  0  0  0  0  0  0  0  0  0
   43.4322   36.3649   42.2900 H   0  0  0  0  0  0  0  0  0  0  0  0
   44.2649   36.0662   40.7837 H   0  0  0  0  0  0  0  0  0  0  0  0
   46.0594   33.5773   40.5006 C   0  0  0  0  0  0  0  0  0  0  0  0
   46.9318   33.2907   41.4881 F   0  0  0  0  0  0  0  0  0  0  0  0
   46.3320   34.9019   40.1293 F   0  0  0  0  0  0  0  0  0  0  0  0
   46.2499   32.8444   39.3447 F   0  0  0  0  0  0  0  0  0  0  0  0
  1  6  2  0
  2  3  2  0
  2  1  1  0
  3  4  1  0
  4  5  2  0
  6  5  1  0
  7  2  1  0
  8  7  1  0
  9 10  1  0
  9  8  1  0
 10 11  1  0
 11 12  1  0
 12  7  1  0
  1 13  1  0
  3 14  1  0
  5 15  1  0
  8 16  1  1
  9 17  1  0
  9 18  1  0
 10 19  1  0
 11 20  1  0
 11 21  1  0
 12 22  1  0
 12 23  1  0
 24 25  1  0
 24 26  1  0
 24 27  1  0
  8 24  1  0
M  ISO  8  13  14  14  14  15  14  16  13  17  13  18  13  19   5  20  13
M  ISO  3  21  13  22  13  23  13
M  END
>  <DihAtoms>  (1) 
6,7,23,24

>  <DihDeg>  (1) 
59.66883901482479

$$$$
