
 OpenBabel03252509183D

 36 38  0  0  1  0  0  0  0  0999 V2000
   49.4200   28.4000   46.7480 C   0  0  1  0  0  0  0  0  0  0  0  0
   50.2250   28.7810   45.5520 C   0  0  0  0  0  0  0  0  0  0  0  0
   50.9900   27.6590   44.9230 C   0  0  0  0  0  0  0  0  0  0  0  0
   50.1820   26.3870   44.8180 C   0  0  0  0  0  0  0  0  0  0  0  0
   49.4330   26.0680   46.0850 C   0  0  0  0  0  0  0  0  0  0  0  0
   49.8920   27.0060   47.2120 C   0  0  2  0  0  0  0  0  0  0  0  0
   48.3730   28.2320   46.4330 H   0  0  0  0  0  0  0  0  0  0  0  0
   50.9870   29.5380   45.9020 H   0  0  0  0  0  0  0  0  0  0  0  0
   49.6140   29.3470   44.8060 H   0  0  0  0  0  0  0  0  0  0  0  0
   51.9530   27.4700   45.4340 H   0  0  0  0  0  0  0  0  0  0  0  0
   51.2290   27.9560   43.8710 H   0  0  0  0  0  0  0  0  0  0  0  0
   49.4360   26.4740   43.9870 H   0  0  0  0  0  0  0  0  0  0  0  0
   50.8780   25.5810   44.5150 H   0  0  0  0  0  0  0  0  0  0  0  0
   49.6570   25.0190   46.3780 H   0  0  0  0  0  0  0  0  0  0  0  0
   48.3540   26.1860   45.9750 H   0  0  0  0  0  0  0  0  0  0  0  0
   50.9690   26.9590   47.3690 H   0  0  0  0  0  0  0  0  0  0  0  0
   50.2880   31.1350   49.6690 C   0  0  0  0  0  0  0  0  0  0  0  0
   48.9070   31.0260   49.4370 C   0  0  0  0  0  0  0  0  0  0  0  0
   48.4950   30.1460   48.4970 C   0  0  0  0  0  0  0  0  0  0  0  0
   49.4390   29.3780   47.7860 C   0  0  0  0  0  0  0  0  0  0  0  0
   51.0170   29.9380   48.5000 S   0  0  0  0  0  0  0  0  0  0  0  0
   48.1790   31.6120   49.9770 H   0  0  0  0  0  0  0  0  0  0  0  0
   47.4910   29.9180   48.1770 H   0  0  0  0  0  0  0  0  0  0  0  0
   51.6980   32.7150   52.7280 C   0  0  0  0  0  0  0  0  0  0  0  0
   52.0270   33.9930   52.2080 C   0  0  0  0  0  0  0  0  0  0  0  0
   51.7530   34.2550   50.8400 C   0  0  0  0  0  0  0  0  0  0  0  0
   51.1850   33.2410   50.1240 N   0  0  0  0  0  0  0  0  0  0  0  0
   50.8880   32.0410   50.6550 C   0  0  0  0  0  0  0  0  0  0  0  0
   51.1480   31.7930   51.9510 N   0  0  0  0  0  0  0  0  0  0  0  0
   51.8950   32.4850   53.7690 H   0  0  0  0  0  0  0  0  0  0  0  0
   52.4710   34.7480   52.8230 H   0  0  0  0  0  0  0  0  0  0  0  0
   51.9840   35.2130   50.3940 H   0  0  0  0  0  0  0  0  0  0  0  0
   49.1050   26.5850   48.4430 C   0  0  0  0  0  0  0  0  0  0  0  0
   49.6260   27.1570   49.5880 F   0  0  0  0  0  0  0  0  0  0  0  0
   47.7800   26.9140   48.2740 F   0  0  0  0  0  0  0  0  0  0  0  0
   49.2090   25.2240   48.5480 F   0  0  0  0  0  0  0  0  0  0  0  0
  1  7  1  6  0  0  0
  1  6  1  0  0  0  0
  1 20  1  0  0  0  0
  2  8  1  0  0  0  0
  2  1  1  0  0  0  0
  3 10  1  0  0  0  0
  3  2  1  0  0  0  0
  4  3  1  0  0  0  0
  4  5  1  0  0  0  0
  5 14  1  0  0  0  0
  5  6  1  0  0  0  0
  6 16  1  1  0  0  0
  6 33  1  0  0  0  0
  9  2  1  0  0  0  0
 11  3  1  0  0  0  0
 12  4  1  0  0  0  0
 13  4  1  0  0  0  0
 15  5  1  0  0  0  0
 17 28  1  0  0  0  0
 18 17  2  0  0  0  0
 18 22  1  0  0  0  0
 19 18  1  0  0  0  0
 20 19  2  0  0  0  0
 20 21  1  0  0  0  0
 21 17  1  0  0  0  0
 23 19  1  0  0  0  0
 24 30  1  0  0  0  0
 25 24  1  0  0  0  0
 25 31  1  0  0  0  0
 26 25  2  0  0  0  0
 27 28  2  0  0  0  0
 27 26  1  0  0  0  0
 28 29  1  0  0  0  0
 29 24  2  0  0  0  0
 32 26  1  0  0  0  0
 33 36  1  0  0  0  0
 33 34  1  0  0  0  0
 35 33  1  0  0  0  0
M  END
>  <minimizedAffinity>
-3.59121323

>  <minimizedRMSD>
6.9832983

$$$$
