
 OpenBabel03252503243D

 42 46  0  0  1  0  0  0  0  0999 V2000
   46.7010   33.1810   43.1540 C   0  0  1  0  0  0  0  0  0  0  0  0
   46.7390   34.5610   42.6790 C   0  0  0  0  0  0  0  0  0  0  0  0
   48.0050   33.7870   42.6660 C   0  0  2  0  0  0  0  0  0  0  0  0
   46.2810   32.3760   42.5260 H   0  0  0  0  0  0  0  0  0  0  0  0
   46.7190   35.3420   43.4970 H   0  0  0  0  0  0  0  0  0  0  0  0
   46.1160   34.8050   41.8360 H   0  0  0  0  0  0  0  0  0  0  0  0
   48.7880   33.8750   43.4240 H   0  0  0  0  0  0  0  0  0  0  0  0
   48.4580   33.2580   41.3460 C   0  0  0  0  0  0  0  0  0  0  0  0
   49.3620   32.2270   41.1920 C   0  0  0  0  0  0  0  0  0  0  0  0
   49.7390   31.8020   39.9330 C   0  0  0  0  0  0  0  0  0  0  0  0
   49.2240   32.3960   38.8040 C   0  0  0  0  0  0  0  0  0  0  0  0
   49.5770   31.9980   37.5600 N   0  0  0  0  0  0  0  0  0  0  0  0
   49.0510   32.6060   36.4580 C   0  0  0  0  0  0  0  0  0  0  0  0
   48.1200   33.6700   36.5320 C   0  0  0  0  0  0  0  0  0  0  0  0
   47.7530   34.0820   37.7910 C   0  0  0  0  0  0  0  0  0  0  0  0
   48.3030   33.4460   38.9050 C   0  0  0  0  0  0  0  0  0  0  0  0
   47.9560   33.8380   40.1820 C   0  0  0  0  0  0  0  0  0  0  0  0
   49.7550   31.7750   42.0920 H   0  0  0  0  0  0  0  0  0  0  0  0
   50.4490   30.9910   39.8040 H   0  0  0  0  0  0  0  0  0  0  0  0
   49.3650   32.2520   35.4870 H   0  0  0  0  0  0  0  0  0  0  0  0
   47.7500   34.0980   35.6110 H   0  0  0  0  0  0  0  0  0  0  0  0
   47.0450   34.8910   37.8980 H   0  0  0  0  0  0  0  0  0  0  0  0
   47.2470   34.6570   40.1840 H   0  0  0  0  0  0  0  0  0  0  0  0
   45.5900   33.5330   45.3860 C   0  0  0  0  0  0  0  0  0  0  0  0
   46.6150   32.8880   44.6170 C   0  0  0  0  0  0  0  0  0  0  0  0
   47.4690   32.0340   45.2660 C   0  0  0  0  0  0  0  0  0  0  0  0
   47.2970   31.8470   46.5990 N   0  0  0  0  0  0  0  0  0  0  0  0
   46.3210   32.4650   47.3120 C   0  0  0  0  0  0  0  0  0  0  0  0
   45.4640   33.3110   46.7050 N   0  0  0  0  0  0  0  0  0  0  0  0
   44.9440   34.1970   44.8220 H   0  0  0  0  0  0  0  0  0  0  0  0
   48.2520   31.5320   44.7150 H   0  0  0  0  0  0  0  0  0  0  0  0
   46.2170   32.1600   48.7670 C   0  0  2  0  0  0  0  0  0  0  0  0
   47.0310   31.1310   49.3890 C   0  0  0  0  0  0  0  0  0  0  0  0
   45.5850   30.8020   49.1030 C   0  0  2  0  0  0  0  0  0  0  0  0
   45.6680   32.9770   49.3050 H   0  0  0  0  0  0  0  0  0  0  0  0
   47.3350   31.3270   50.4490 H   0  0  0  0  0  0  0  0  0  0  0  0
   47.8490   30.6980   48.8000 H   0  0  0  0  0  0  0  0  0  0  0  0
   44.9640   30.7260   50.0180 H   0  0  0  0  0  0  0  0  0  0  0  0
   45.3060   29.8140   48.0420 C   0  0  0  0  0  0  0  0  0  0  0  0
   44.6350   28.7120   48.5350 F   0  0  0  0  0  0  0  0  0  0  0  0
   46.5080   29.3800   47.5180 F   0  0  0  0  0  0  0  0  0  0  0  0
   44.5650   30.2810   46.9900 F   0  0  0  0  0  0  0  0  0  0  0  0
  1  4  1  6  0  0  0
  1 25  1  0  0  0  0
  2  1  1  0  0  0  0
  2  5  1  0  0  0  0
  3  2  1  0  0  0  0
  3  1  1  0  0  0  0
  3  7  1  1  0  0  0
  6  2  1  0  0  0  0
  8  3  1  0  0  0  0
  9  8  1  0  0  0  0
  9 18  1  0  0  0  0
 10  9  2  0  0  0  0
 11 16  1  0  0  0  0
 11 10  1  0  0  0  0
 12 11  2  0  0  0  0
 13 14  2  0  0  0  0
 13 12  1  0  0  0  0
 14 15  1  0  0  0  0
 15 22  1  0  0  0  0
 15 16  2  0  0  0  0
 16 17  1  0  0  0  0
 17 23  1  0  0  0  0
 17  8  2  0  0  0  0
 19 10  1  0  0  0  0
 20 13  1  0  0  0  0
 21 14  1  0  0  0  0
 24 29  1  0  0  0  0
 25 26  1  0  0  0  0
 25 24  2  0  0  0  0
 26 27  2  0  0  0  0
 27 28  1  0  0  0  0
 28 32  1  0  0  0  0
 29 28  2  0  0  0  0
 30 24  1  0  0  0  0
 31 26  1  0  0  0  0
 32 34  1  0  0  0  0
 32 35  1  1  0  0  0
 32 33  1  0  0  0  0
 33 36  1  0  0  0  0
 34 33  1  0  0  0  0
 34 38  1  1  0  0  0
 37 33  1  0  0  0  0
 39 40  1  0  0  0  0
 39 34  1  0  0  0  0
 41 39  1  0  0  0  0
 42 39  1  0  0  0  0
M  END
>  <minimizedAffinity>
-5.73175526

>  <minimizedRMSD>
0.690225363

$$$$
