
 OpenBabel03242521213D

 31 33  0  0  0  0  0  0  0  0999 V2000
   45.8330   33.6490   44.4290 C   0  0  0  0  0  0  0  0  0  0  0  0
   45.0140   34.7140   44.6530 C   0  0  0  0  0  0  0  0  0  0  0  0
   44.6410   35.6170   43.6760 C   0  0  0  0  0  0  0  0  0  0  0  0
   45.1500   35.3770   42.4440 N   0  0  0  0  0  0  0  0  0  0  0  0
   45.9570   34.3270   42.2240 C   0  0  0  0  0  0  0  0  0  0  0  0
   46.3230   33.4410   43.1840 N   0  0  0  0  0  0  0  0  0  0  0  0
   44.6120   34.8980   45.6400 H   0  0  0  0  0  0  0  0  0  0  0  0
   44.0000   36.4560   43.8380 H   0  0  0  0  0  0  0  0  0  0  0  0
   46.4970   34.0950   40.8600 C   0  0  0  0  0  0  0  0  0  0  0  0
   45.7540   33.3610   39.9550 C   0  0  0  0  0  0  0  0  0  0  0  0
   46.1570   33.0860   38.6680 C   0  0  0  0  0  0  0  0  0  0  0  0
   47.4050   33.5940   38.2750 C   0  0  0  0  0  0  0  0  0  0  0  0
   48.1340   34.3170   39.1720 C   0  0  0  0  0  0  0  0  0  0  0  0
   47.7150   34.5820   40.4540 C   0  0  0  0  0  0  0  0  0  0  0  0
   44.7940   32.9820   40.2840 H   0  0  0  0  0  0  0  0  0  0  0  0
   45.5260   32.5040   38.0050 H   0  0  0  0  0  0  0  0  0  0  0  0
   47.7410   33.3890   37.2680 H   0  0  0  0  0  0  0  0  0  0  0  0
   49.0910   34.6930   38.8330 H   0  0  0  0  0  0  0  0  0  0  0  0
   48.5280   35.3730   41.4130 C   0  0  0  0  0  0  0  0  0  0  0  0
   49.3050   36.2600   40.6570 F   0  0  0  0  0  0  0  0  0  0  0  0
   47.8000   36.1190   42.2870 F   0  0  0  0  0  0  0  0  0  0  0  0
   49.4340   34.5160   42.0300 F   0  0  0  0  0  0  0  0  0  0  0  0
   46.3120   30.5340   46.3020 C   0  0  0  0  0  0  0  0  0  0  0  0
   46.8770   30.9850   47.4890 C   0  0  0  0  0  0  0  0  0  0  0  0
   47.0940   32.3420   47.6520 C   0  0  0  0  0  0  0  0  0  0  0  0
   46.7420   33.1890   46.6310 N   0  0  0  0  0  0  0  0  0  0  0  0
   46.1970   32.7260   45.4940 C   0  0  0  0  0  0  0  0  0  0  0  0
   45.9860   31.4190   45.3320 N   0  0  0  0  0  0  0  0  0  0  0  0
   46.1630   29.4660   46.2210 H   0  0  0  0  0  0  0  0  0  0  0  0
   47.1800   30.4050   48.3270 H   0  0  0  0  0  0  0  0  0  0  0  0
   47.5150   32.8880   48.4850 H   0  0  0  0  0  0  0  0  0  0  0  0
  1  2  1  0  0  0  0
  1 27  1  0  0  0  0
  2  7  1  0  0  0  0
  3  8  1  0  0  0  0
  3  2  2  0  0  0  0
  4  3  1  0  0  0  0
  5  4  2  0  0  0  0
  5  6  1  0  0  0  0
  6  1  2  0  0  0  0
  9  5  1  0  0  0  0
 10 15  1  0  0  0  0
 10  9  2  0  0  0  0
 11 10  1  0  0  0  0
 12 11  2  0  0  0  0
 12 13  1  0  0  0  0
 13 14  2  0  0  0  0
 14  9  1  0  0  0  0
 14 19  1  0  0  0  0
 16 11  1  0  0  0  0
 17 12  1  0  0  0  0
 18 13  1  0  0  0  0
 19 22  1  0  0  0  0
 19 21  1  0  0  0  0
 20 19  1  0  0  0  0
 23 24  1  0  0  0  0
 24 25  2  0  0  0  0
 24 30  1  0  0  0  0
 25 31  1  0  0  0  0
 26 25  1  0  0  0  0
 27 26  2  0  0  0  0
 28 27  1  0  0  0  0
 28 23  2  0  0  0  0
 29 23  1  0  0  0  0
M  END
>  <minimizedAffinity>
-6.22068214

>  <minimizedRMSD>
1.5299561

$$$$
