
 OpenBabel03252505033D

 29 30  0  0  1  0  0  0  0  0999 V2000
   46.4330   32.9840   46.4100 C   0  0  2  0  0  0  0  0  0  0  0  0
   46.9770   31.7630   45.7460 C   0  0  0  0  0  0  0  0  0  0  0  0
   46.1000   30.5750   45.7730 C   0  0  0  0  0  0  0  0  0  0  0  0
   45.7980   30.3210   47.2420 C   0  0  0  0  0  0  0  0  0  0  0  0
   45.0080   31.3940   47.8350 C   0  0  0  0  0  0  0  0  0  0  0  0
   45.3620   32.7830   47.3740 C   0  0  0  0  0  0  0  0  0  0  0  0
   47.2750   33.5210   46.9200 H   0  0  0  0  0  0  0  0  0  0  0  0
   47.3190   31.9820   44.7030 H   0  0  0  0  0  0  0  0  0  0  0  0
   47.9170   31.4770   46.2750 H   0  0  0  0  0  0  0  0  0  0  0  0
   45.1900   30.7860   45.1890 H   0  0  0  0  0  0  0  0  0  0  0  0
   46.6320   29.7020   45.4020 H   0  0  0  0  0  0  0  0  0  0  0  0
   45.1410   29.4270   47.2430 H   0  0  0  0  0  0  0  0  0  0  0  0
   46.7280   30.0570   47.7470 H   0  0  0  0  0  0  0  0  0  0  0  0
   44.2130   31.3910   48.5360 H   0  0  0  0  0  0  0  0  0  0  0  0
   44.5960   35.5840   44.5240 C   0  0  0  0  0  0  0  0  0  0  0  0
   45.2930   35.5970   43.2870 C   0  0  0  0  0  0  0  0  0  0  0  0
   46.3810   34.7050   43.1310 C   0  0  0  0  0  0  0  0  0  0  0  0
   46.6960   33.8900   44.1710 N   0  0  0  0  0  0  0  0  0  0  0  0
   46.0180   33.9060   45.3210 C   0  0  0  0  0  0  0  0  0  0  0  0
   44.9570   34.7520   45.5150 N   0  0  0  0  0  0  0  0  0  0  0  0
   43.7620   36.2570   44.6640 H   0  0  0  0  0  0  0  0  0  0  0  0
   45.0170   36.2520   42.4930 H   0  0  0  0  0  0  0  0  0  0  0  0
   47.1500   34.6730   41.8580 C   0  0  0  0  0  0  0  0  0  0  0  0
   47.9730   35.7790   41.8470 F   0  0  0  0  0  0  0  0  0  0  0  0
   46.3310   34.6320   40.7470 F   0  0  0  0  0  0  0  0  0  0  0  0
   47.9840   33.5520   41.8200 F   0  0  0  0  0  0  0  0  0  0  0  0
   44.6630   33.9180   47.8680 N   0  0  0  0  0  0  0  0  0  0  0  0
   45.0310   34.5800   48.5830 H   0  0  0  0  0  0  0  0  0  0  0  0
   43.7100   34.0200   47.4260 H   0  0  0  0  0  0  0  0  0  0  0  0
  1  7  1  1  0  0  0
  1  6  1  0  0  0  0
  2  3  1  0  0  0  0
  2  9  1  0  0  0  0
  2  1  1  0  0  0  0
  3  4  1  0  0  0  0
  4 12  1  0  0  0  0
  4 13  1  0  0  0  0
  4  5  1  0  0  0  0
  5 14  1  0  0  0  0
  6  5  2  0  0  0  0
  6 27  1  0  0  0  0
  8  2  1  0  0  0  0
 10  3  1  0  0  0  0
 11  3  1  0  0  0  0
 15 21  1  0  0  0  0
 15 20  1  0  0  0  0
 16 15  2  0  0  0  0
 17 16  1  0  0  0  0
 17 18  2  0  0  0  0
 18 19  1  0  0  0  0
 19 20  2  0  0  0  0
 19  1  1  0  0  0  0
 22 16  1  0  0  0  0
 23 17  1  0  0  0  0
 24 23  1  0  0  0  0
 25 23  1  0  0  0  0
 26 23  1  0  0  0  0
 27 28  1  0  0  0  0
 29 27  1  0  0  0  0
M  END
>  <minimizedAffinity>
-5.97499943

>  <minimizedRMSD>
0.875121474

$$$$
