
 OpenBabel03242514113D

 41 43  0  0  1  0  0  0  0  0999 V2000
   37.7580   28.4550   42.0400 C   0  0  0  0  0  0  0  0  0  0  0  0
   37.1000   28.3050   43.2380 C   0  0  0  0  0  0  0  0  0  0  0  0
   36.5270   27.1160   43.6620 C   0  0  0  0  0  0  0  0  0  0  0  0
   36.6720   26.0530   42.7620 C   0  0  0  0  0  0  0  0  0  0  0  0
   37.3470   26.2070   41.5370 C   0  0  0  0  0  0  0  0  0  0  0  0
   37.8770   27.3940   41.1920 N   0  0  0  0  0  0  0  0  0  0  0  0
   37.0380   29.1900   43.8710 H   0  0  0  0  0  0  0  0  0  0  0  0
   36.0300   27.0600   44.5980 H   0  0  0  0  0  0  0  0  0  0  0  0
   36.2040   25.1600   43.1500 H   0  0  0  0  0  0  0  0  0  0  0  0
   37.4800   25.0490   40.6570 C   0  0  1  0  0  0  0  0  0  0  0  0
   38.0090   23.7980   41.4730 C   0  0  0  0  0  0  0  0  0  0  0  0
   38.5060   22.8670   40.3290 C   0  0  0  0  0  0  0  0  0  0  0  0
   37.2030   22.3270   39.7220 C   0  0  0  0  0  0  0  0  0  0  0  0
   36.4130   23.4180   39.1140 C   0  0  0  0  0  0  0  0  0  0  0  0
   36.3490   24.7040   39.8480 C   0  0  2  0  0  0  0  0  0  0  0  0
   38.3960   25.2530   40.0270 H   0  0  0  0  0  0  0  0  0  0  0  0
   37.1510   23.3670   41.9850 H   0  0  0  0  0  0  0  0  0  0  0  0
   38.8510   24.1150   42.0930 H   0  0  0  0  0  0  0  0  0  0  0  0
   39.0750   23.4590   39.6050 H   0  0  0  0  0  0  0  0  0  0  0  0
   39.0730   22.0130   40.7520 H   0  0  0  0  0  0  0  0  0  0  0  0
   37.5270   21.6010   38.9580 H   0  0  0  0  0  0  0  0  0  0  0  0
   36.6900   21.7610   40.5180 H   0  0  0  0  0  0  0  0  0  0  0  0
   36.8310   23.5570   38.0720 H   0  0  0  0  0  0  0  0  0  0  0  0
   35.3850   23.0450   38.9240 H   0  0  0  0  0  0  0  0  0  0  0  0
   35.4040   24.6780   40.4740 H   0  0  0  0  0  0  0  0  0  0  0  0
   36.2020   26.0040   38.5780 S   0  0  0  0  0  0  0  0  0  0  0  0
   37.0590   25.6980   37.5140 H   0  0  0  0  0  0  0  0  0  0  0  0
   40.0520   31.2320   41.4630 C   0  0  0  0  0  0  0  0  0  0  0  0
   39.2700   32.2240   40.9300 C   0  0  0  0  0  0  0  0  0  0  0  0
   37.9400   31.9270   40.7700 C   0  0  0  0  0  0  0  0  0  0  0  0
   37.4810   30.6820   41.1440 N   0  0  0  0  0  0  0  0  0  0  0  0
   38.3350   29.7340   41.6760 C   0  0  0  0  0  0  0  0  0  0  0  0
   39.5820   30.0120   41.8260 N   0  0  0  0  0  0  0  0  0  0  0  0
   36.9500   32.7800   40.2480 N   0  0  0  0  0  0  0  0  0  0  0  0
   41.1170   31.4660   41.5930 H   0  0  0  0  0  0  0  0  0  0  0  0
   36.0980   33.1170   40.7780 H   0  0  0  0  0  0  0  0  0  0  0  0
   37.0900   33.0880   39.2720 H   0  0  0  0  0  0  0  0  0  0  0  0
   39.7260   33.5600   40.5200 C   0  0  0  0  0  0  0  0  0  0  0  0
   39.0080   34.5360   41.1850 F   0  0  0  0  0  0  0  0  0  0  0  0
   39.6100   33.7880   39.1750 F   0  0  0  0  0  0  0  0  0  0  0  0
   41.0670   33.7700   40.8690 F   0  0  0  0  0  0  0  0  0  0  0  0
  1  2  1  0  0  0  0
  2  3  2  0  0  0  0
  2  7  1  0  0  0  0
  3  8  1  0  0  0  0
  4  9  1  0  0  0  0
  4  3  1  0  0  0  0
  5  4  2  0  0  0  0
  6  5  1  0  0  0  0
  6  1  2  0  0  0  0
 10 16  1  6  0  0  0
 10 11  1  0  0  0  0
 10  5  1  0  0  0  0
 11 17  1  0  0  0  0
 11 18  1  0  0  0  0
 12 20  1  0  0  0  0
 12 11  1  0  0  0  0
 13 12  1  0  0  0  0
 13 22  1  0  0  0  0
 14 13  1  0  0  0  0
 14 15  1  0  0  0  0
 15 25  1  1  0  0  0
 15 10  1  0  0  0  0
 19 12  1  0  0  0  0
 21 13  1  0  0  0  0
 23 14  1  0  0  0  0
 24 14  1  0  0  0  0
 26 15  1  0  0  0  0
 27 26  1  0  0  0  0
 28 35  1  0  0  0  0
 28 33  1  0  0  0  0
 29 28  2  0  0  0  0
 30 29  1  0  0  0  0
 30 31  2  0  0  0  0
 31 32  1  0  0  0  0
 32 33  2  0  0  0  0
 32  1  1  0  0  0  0
 34 30  1  0  0  0  0
 34 36  1  0  0  0  0
 37 34  1  0  0  0  0
 38 41  1  0  0  0  0
 38 29  1  0  0  0  0
 38 39  1  0  0  0  0
 40 38  1  0  0  0  0
M  END
>  <minimizedAffinity>
-6.24108315

$$$$

 OpenBabel03242514113D

 41 43  0  0  1  0  0  0  0  0999 V2000
   39.3230   32.1350   41.0510 C   0  0  0  0  0  0  0  0  0  0  0  0
   38.4520   33.1570   40.7540 C   0  0  0  0  0  0  0  0  0  0  0  0
   38.8480   34.3960   40.2760 C   0  0  0  0  0  0  0  0  0  0  0  0
   40.2320   34.5350   40.1130 C   0  0  0  0  0  0  0  0  0  0  0  0
   41.1220   33.4870   40.4160 C   0  0  0  0  0  0  0  0  0  0  0  0
   40.6630   32.3110   40.8770 N   0  0  0  0  0  0  0  0  0  0  0  0
   37.3930   32.9540   40.9150 H   0  0  0  0  0  0  0  0  0  0  0  0
   38.1300   35.1480   40.0650 H   0  0  0  0  0  0  0  0  0  0  0  0
   40.4750   35.5200   39.7410 H   0  0  0  0  0  0  0  0  0  0  0  0
   42.5520   33.6950   40.2000 C   0  0  1  0  0  0  0  0  0  0  0  0
   43.2930   33.8920   41.5870 C   0  0  0  0  0  0  0  0  0  0  0  0
   44.6360   34.5350   41.1340 C   0  0  0  0  0  0  0  0  0  0  0  0
   45.4050   33.3550   40.5240 C   0  0  0  0  0  0  0  0  0  0  0  0
   44.7150   32.8420   39.3210 C   0  0  0  0  0  0  0  0  0  0  0  0
   43.2360   32.7470   39.3720 C   0  0  2  0  0  0  0  0  0  0  0  0
   42.6450   34.7460   39.7960 H   0  0  0  0  0  0  0  0  0  0  0  0
   43.4540   32.9000   42.0040 H   0  0  0  0  0  0  0  0  0  0  0  0
   42.7210   34.5990   42.1920 H   0  0  0  0  0  0  0  0  0  0  0  0
   44.4290   35.3130   40.3910 H   0  0  0  0  0  0  0  0  0  0  0  0
   45.2000   34.9000   42.0160 H   0  0  0  0  0  0  0  0  0  0  0  0
   46.3950   33.7670   40.2650 H   0  0  0  0  0  0  0  0  0  0  0  0
   45.5550   32.6190   41.3310 H   0  0  0  0  0  0  0  0  0  0  0  0
   45.0590   33.4970   38.4660 H   0  0  0  0  0  0  0  0  0  0  0  0
   45.1440   31.8510   39.0650 H   0  0  0  0  0  0  0  0  0  0  0  0
   42.9870   31.6880   39.6880 H   0  0  0  0  0  0  0  0  0  0  0  0
   42.6540   33.0280   37.6680 S   0  0  0  0  0  0  0  0  0  0  0  0
   43.4000   34.0680   37.0980 H   0  0  0  0  0  0  0  0  0  0  0  0
   38.9890   28.8910   42.6870 C   0  0  0  0  0  0  0  0  0  0  0  0
   37.7150   28.4810   42.3910 C   0  0  0  0  0  0  0  0  0  0  0  0
   36.9680   29.3360   41.6190 C   0  0  0  0  0  0  0  0  0  0  0  0
   37.5270   30.5240   41.1990 N   0  0  0  0  0  0  0  0  0  0  0  0
   38.8220   30.8650   41.5410 C   0  0  0  0  0  0  0  0  0  0  0  0
   39.5230   30.0650   42.2650 N   0  0  0  0  0  0  0  0  0  0  0  0
   35.6440   29.1310   41.1880 N   0  0  0  0  0  0  0  0  0  0  0  0
   39.5900   28.2100   43.3050 H   0  0  0  0  0  0  0  0  0  0  0  0
   35.3380   29.0610   40.1770 H   0  0  0  0  0  0  0  0  0  0  0  0
   34.9360   29.0450   41.9350 H   0  0  0  0  0  0  0  0  0  0  0  0
   37.0870   27.2240   42.8220 C   0  0  0  0  0  0  0  0  0  0  0  0
   36.6390   26.5120   41.7250 F   0  0  0  0  0  0  0  0  0  0  0  0
   36.0290   27.4060   43.6730 F   0  0  0  0  0  0  0  0  0  0  0  0
   38.0090   26.3900   43.4670 F   0  0  0  0  0  0  0  0  0  0  0  0
  1 32  1  0  0  0  0
  2  7  1  0  0  0  0
  2  1  2  0  0  0  0
  3  2  1  0  0  0  0
  4  3  2  0  0  0  0
  4  5  1  0  0  0  0
  5  6  2  0  0  0  0
  6  1  1  0  0  0  0
  8  3  1  0  0  0  0
  9  4  1  0  0  0  0
 10 16  1  6  0  0  0
 10  5  1  0  0  0  0
 10 11  1  0  0  0  0
 11 17  1  0  0  0  0
 11 18  1  0  0  0  0
 12 11  1  0  0  0  0
 12 20  1  0  0  0  0
 13 12  1  0  0  0  0
 13 22  1  0  0  0  0
 14 15  1  0  0  0  0
 14 13  1  0  0  0  0
 15 25  1  1  0  0  0
 15 10  1  0  0  0  0
 19 12  1  0  0  0  0
 21 13  1  0  0  0  0
 23 14  1  0  0  0  0
 24 14  1  0  0  0  0
 26 15  1  0  0  0  0
 27 26  1  0  0  0  0
 28 35  1  0  0  0  0
 29 28  1  0  0  0  0
 29 38  1  0  0  0  0
 30 29  2  0  0  0  0
 31 32  2  0  0  0  0
 31 30  1  0  0  0  0
 32 33  1  0  0  0  0
 33 28  2  0  0  0  0
 34 30  1  0  0  0  0
 34 37  1  0  0  0  0
 36 34  1  0  0  0  0
 38 41  1  0  0  0  0
 38 40  1  0  0  0  0
 39 38  1  0  0  0  0
M  END
>  <minimizedAffinity>
-6.18014574

$$$$

 OpenBabel03242514113D

 41 43  0  0  1  0  0  0  0  0999 V2000
   37.9160   30.1600   40.2490 C   0  0  0  0  0  0  0  0  0  0  0  0
   36.6350   30.6510   40.1440 C   0  0  0  0  0  0  0  0  0  0  0  0
   35.5000   29.9190   40.4580 C   0  0  0  0  0  0  0  0  0  0  0  0
   35.7570   28.6160   40.9000 C   0  0  0  0  0  0  0  0  0  0  0  0
   37.0690   28.1160   41.0070 C   0  0  0  0  0  0  0  0  0  0  0  0
   38.1220   28.8850   40.6840 N   0  0  0  0  0  0  0  0  0  0  0  0
   36.5360   31.6760   39.7910 H   0  0  0  0  0  0  0  0  0  0  0  0
   34.5360   30.3510   40.3570 H   0  0  0  0  0  0  0  0  0  0  0  0
   34.8340   28.1010   41.1240 H   0  0  0  0  0  0  0  0  0  0  0  0
   37.2630   26.7540   41.4970 C   0  0  1  0  0  0  0  0  0  0  0  0
   36.8800   25.7070   40.3710 C   0  0  0  0  0  0  0  0  0  0  0  0
   36.7100   24.4020   41.2030 C   0  0  0  0  0  0  0  0  0  0  0  0
   38.1550   24.0030   41.5330 C   0  0  0  0  0  0  0  0  0  0  0  0
   38.7970   25.0170   42.3960 C   0  0  0  0  0  0  0  0  0  0  0  0
   38.5300   26.4420   42.0890 C   0  0  2  0  0  0  0  0  0  0  0  0
   36.4100   26.5670   42.2140 H   0  0  0  0  0  0  0  0  0  0  0  0
   37.7330   25.6360   39.6990 H   0  0  0  0  0  0  0  0  0  0  0  0
   35.9240   26.0000   39.9310 H   0  0  0  0  0  0  0  0  0  0  0  0
   36.1350   24.6250   42.1070 H   0  0  0  0  0  0  0  0  0  0  0  0
   36.2640   23.6050   40.5740 H   0  0  0  0  0  0  0  0  0  0  0  0
   38.0690   23.0370   42.0570 H   0  0  0  0  0  0  0  0  0  0  0  0
   38.6630   23.8140   40.5710 H   0  0  0  0  0  0  0  0  0  0  0  0
   38.4930   24.7570   43.4540 H   0  0  0  0  0  0  0  0  0  0  0  0
   39.8930   24.8350   42.3990 H   0  0  0  0  0  0  0  0  0  0  0  0
   39.3780   26.8000   41.4280 H   0  0  0  0  0  0  0  0  0  0  0  0
   38.5890   27.3220   43.6850 S   0  0  0  0  0  0  0  0  0  0  0  0
   37.9420   26.5470   44.6550 H   0  0  0  0  0  0  0  0  0  0  0  0
   40.9280   32.2140   40.3840 C   0  0  0  0  0  0  0  0  0  0  0  0
   41.1590   32.5800   39.0830 C   0  0  0  0  0  0  0  0  0  0  0  0
   40.2640   32.1100   38.1540 C   0  0  0  0  0  0  0  0  0  0  0  0
   39.2150   31.3200   38.5730 N   0  0  0  0  0  0  0  0  0  0  0  0
   39.0500   30.9950   39.9070 C   0  0  0  0  0  0  0  0  0  0  0  0
   39.8890   31.4350   40.7780 N   0  0  0  0  0  0  0  0  0  0  0  0
   40.2930   32.3530   36.7690 N   0  0  0  0  0  0  0  0  0  0  0  0
   41.6420   32.5880   41.1310 H   0  0  0  0  0  0  0  0  0  0  0  0
   39.5370   32.8530   36.2230 H   0  0  0  0  0  0  0  0  0  0  0  0
   41.1290   32.0070   36.2690 H   0  0  0  0  0  0  0  0  0  0  0  0
   42.2660   33.4190   38.6020 C   0  0  0  0  0  0  0  0  0  0  0  0
   43.0550   33.8230   39.6630 F   0  0  0  0  0  0  0  0  0  0  0  0
   41.8520   34.5360   37.9280 F   0  0  0  0  0  0  0  0  0  0  0  0
   43.1150   32.7010   37.7490 F   0  0  0  0  0  0  0  0  0  0  0  0
  1  6  1  0  0  0  0
  2  1  2  0  0  0  0
  2  3  1  0  0  0  0
  3  4  2  0  0  0  0
  4  5  1  0  0  0  0
  4  9  1  0  0  0  0
  5 10  1  0  0  0  0
  6  5  2  0  0  0  0
  7  2  1  0  0  0  0
  8  3  1  0  0  0  0
 10 15  1  0  0  0  0
 10 16  1  1  0  0  0
 11 12  1  0  0  0  0
 11 10  1  0  0  0  0
 12 13  1  0  0  0  0
 12 19  1  0  0  0  0
 13 21  1  0  0  0  0
 13 14  1  0  0  0  0
 14 24  1  0  0  0  0
 14 23  1  0  0  0  0
 15 25  1  6  0  0  0
 15 14  1  0  0  0  0
 15 26  1  0  0  0  0
 17 11  1  0  0  0  0
 18 11  1  0  0  0  0
 20 12  1  0  0  0  0
 22 13  1  0  0  0  0
 26 27  1  0  0  0  0
 28 33  1  0  0  0  0
 28 35  1  0  0  0  0
 29 28  2  0  0  0  0
 30 31  2  0  0  0  0
 30 29  1  0  0  0  0
 31 32  1  0  0  0  0
 32  1  1  0  0  0  0
 32 33  2  0  0  0  0
 34 30  1  0  0  0  0
 36 34  1  0  0  0  0
 37 34  1  0  0  0  0
 38 29  1  0  0  0  0
 38 39  1  0  0  0  0
 40 38  1  0  0  0  0
 41 38  1  0  0  0  0
M  END
>  <minimizedAffinity>
-6.17073584

$$$$

 OpenBabel03242514113D

 41 43  0  0  1  0  0  0  0  0999 V2000
   34.0780   28.2350   37.8260 C   0  0  0  0  0  0  0  0  0  0  0  0
   33.9540   27.0480   37.1430 C   0  0  0  0  0  0  0  0  0  0  0  0
   33.0400   26.8360   36.1220 C   0  0  0  0  0  0  0  0  0  0  0  0
   32.2350   27.9440   35.8300 C   0  0  0  0  0  0  0  0  0  0  0  0
   32.3640   29.1580   36.5290 C   0  0  0  0  0  0  0  0  0  0  0  0
   33.2750   29.2890   37.5100 N   0  0  0  0  0  0  0  0  0  0  0  0
   34.6240   26.2430   37.4420 H   0  0  0  0  0  0  0  0  0  0  0  0
   32.9890   25.8970   35.6300 H   0  0  0  0  0  0  0  0  0  0  0  0
   31.5450   27.7130   35.0300 H   0  0  0  0  0  0  0  0  0  0  0  0
   31.5060   30.2800   36.1560 C   0  0  1  0  0  0  0  0  0  0  0  0
   31.7290   30.6570   34.6330 C   0  0  0  0  0  0  0  0  0  0  0  0
   31.1160   32.0870   34.5730 C   0  0  0  0  0  0  0  0  0  0  0  0
   29.6040   31.8260   34.6210 C   0  0  0  0  0  0  0  0  0  0  0  0
   29.2160   31.2150   35.9110 C   0  0  0  0  0  0  0  0  0  0  0  0
   30.1130   30.1740   36.4690 C   0  0  2  0  0  0  0  0  0  0  0  0
   31.9740   31.1890   36.6360 H   0  0  0  0  0  0  0  0  0  0  0  0
   31.1430   29.9540   34.0430 H   0  0  0  0  0  0  0  0  0  0  0  0
   32.8030   30.6980   34.4360 H   0  0  0  0  0  0  0  0  0  0  0  0
   31.4570   32.6600   35.4420 H   0  0  0  0  0  0  0  0  0  0  0  0
   31.3560   32.5630   33.6010 H   0  0  0  0  0  0  0  0  0  0  0  0
   29.1420   32.8190   34.5010 H   0  0  0  0  0  0  0  0  0  0  0  0
   29.3530   31.2330   33.7250 H   0  0  0  0  0  0  0  0  0  0  0  0
   29.0820   32.0760   36.6310 H   0  0  0  0  0  0  0  0  0  0  0  0
   28.1880   30.8080   35.8120 H   0  0  0  0  0  0  0  0  0  0  0  0
   29.7030   29.1730   36.1320 H   0  0  0  0  0  0  0  0  0  0  0  0
   29.9750   30.3100   38.2820 S   0  0  0  0  0  0  0  0  0  0  0  0
   29.9540   31.6650   38.6360 H   0  0  0  0  0  0  0  0  0  0  0  0
   36.8790   27.6990   40.1010 C   0  0  0  0  0  0  0  0  0  0  0  0
   36.8720   28.7940   40.9270 C   0  0  0  0  0  0  0  0  0  0  0  0
   35.8890   29.7230   40.6910 C   0  0  0  0  0  0  0  0  0  0  0  0
   34.9920   29.5060   39.6670 N   0  0  0  0  0  0  0  0  0  0  0  0
   35.0660   28.3740   38.8780 C   0  0  0  0  0  0  0  0  0  0  0  0
   35.9880   27.5030   39.0970 N   0  0  0  0  0  0  0  0  0  0  0  0
   35.6810   30.9180   41.4040 N   0  0  0  0  0  0  0  0  0  0  0  0
   37.6650   26.9530   40.2860 H   0  0  0  0  0  0  0  0  0  0  0  0
   34.8080   31.1540   41.9530 H   0  0  0  0  0  0  0  0  0  0  0  0
   36.4560   31.6000   41.3750 H   0  0  0  0  0  0  0  0  0  0  0  0
   37.8120   29.0570   42.0260 C   0  0  0  0  0  0  0  0  0  0  0  0
   37.1440   29.0600   43.2360 F   0  0  0  0  0  0  0  0  0  0  0  0
   38.4770   30.2470   41.9020 F   0  0  0  0  0  0  0  0  0  0  0  0
   38.7750   28.0440   42.1260 F   0  0  0  0  0  0  0  0  0  0  0  0
  1 32  1  0  0  0  0
  2  7  1  0  0  0  0
  2  1  2  0  0  0  0
  3  2  1  0  0  0  0
  4  3  2  0  0  0  0
  4  5  1  0  0  0  0
  5  6  2  0  0  0  0
  6  1  1  0  0  0  0
  8  3  1  0  0  0  0
  9  4  1  0  0  0  0
 10 15  1  0  0  0  0
 10  5  1  0  0  0  0
 10 16  1  1  0  0  0
 11 10  1  0  0  0  0
 12 13  1  0  0  0  0
 12 11  1  0  0  0  0
 12 19  1  0  0  0  0
 13 14  1  0  0  0  0
 14 15  1  0  0  0  0
 14 23  1  0  0  0  0
 15 25  1  6  0  0  0
 15 26  1  0  0  0  0
 17 11  1  0  0  0  0
 18 11  1  0  0  0  0
 20 12  1  0  0  0  0
 21 13  1  0  0  0  0
 22 13  1  0  0  0  0
 24 14  1  0  0  0  0
 26 27  1  0  0  0  0
 28 35  1  0  0  0  0
 28 29  1  0  0  0  0
 29 38  1  0  0  0  0
 30 29  2  0  0  0  0
 30 34  1  0  0  0  0
 31 30  1  0  0  0  0
 32 33  1  0  0  0  0
 32 31  2  0  0  0  0
 33 28  2  0  0  0  0
 34 36  1  0  0  0  0
 37 34  1  0  0  0  0
 38 41  1  0  0  0  0
 38 39  1  0  0  0  0
 40 38  1  0  0  0  0
M  END
>  <minimizedAffinity>
-6.036654

$$$$

 OpenBabel03242514113D

 41 43  0  0  1  0  0  0  0  0999 V2000
   38.4830   28.9780   42.0400 C   0  0  0  0  0  0  0  0  0  0  0  0
   37.8070   29.2100   43.2150 C   0  0  0  0  0  0  0  0  0  0  0  0
   37.0420   28.2550   43.8670 C   0  0  0  0  0  0  0  0  0  0  0  0
   37.0070   27.0100   43.2280 C   0  0  0  0  0  0  0  0  0  0  0  0
   37.7000   26.7740   42.0260 C   0  0  0  0  0  0  0  0  0  0  0  0
   38.4230   27.7510   41.4510 N   0  0  0  0  0  0  0  0  0  0  0  0
   37.8950   30.2110   43.6360 H   0  0  0  0  0  0  0  0  0  0  0  0
   36.5420   28.4920   44.7730 H   0  0  0  0  0  0  0  0  0  0  0  0
   36.3940   26.3140   43.7840 H   0  0  0  0  0  0  0  0  0  0  0  0
   37.6370   25.4440   41.4270 C   0  0  1  0  0  0  0  0  0  0  0  0
   36.6730   25.4550   40.1680 C   0  0  0  0  0  0  0  0  0  0  0  0
   36.3880   23.9360   39.9810 C   0  0  0  0  0  0  0  0  0  0  0  0
   37.6960   23.4030   39.3790 C   0  0  0  0  0  0  0  0  0  0  0  0
   38.8130   23.5440   40.3370 C   0  0  0  0  0  0  0  0  0  0  0  0
   38.8790   24.7970   41.1270 C   0  0  2  0  0  0  0  0  0  0  0  0
   37.0040   24.8260   42.1310 H   0  0  0  0  0  0  0  0  0  0  0  0
   37.2470   25.8530   39.3330 H   0  0  0  0  0  0  0  0  0  0  0  0
   35.7540   25.9800   40.4360 H   0  0  0  0  0  0  0  0  0  0  0  0
   36.1780   23.4860   40.9570 H   0  0  0  0  0  0  0  0  0  0  0  0
   35.5780   23.7890   39.2370 H   0  0  0  0  0  0  0  0  0  0  0  0
   37.4950   22.3410   39.1620 H   0  0  0  0  0  0  0  0  0  0  0  0
   37.8370   23.9170   38.4130 H   0  0  0  0  0  0  0  0  0  0  0  0
   38.7610   22.6350   41.0070 H   0  0  0  0  0  0  0  0  0  0  0  0
   39.7680   23.3970   39.7900 H   0  0  0  0  0  0  0  0  0  0  0  0
   39.5700   25.5010   40.5680 H   0  0  0  0  0  0  0  0  0  0  0  0
   39.6300   24.3470   42.7260 S   0  0  0  0  0  0  0  0  0  0  0  0
   39.0940   23.1250   43.1510 H   0  0  0  0  0  0  0  0  0  0  0  0
   41.0270   30.8470   40.2100 C   0  0  0  0  0  0  0  0  0  0  0  0
   40.6450   32.1580   40.3240 C   0  0  0  0  0  0  0  0  0  0  0  0
   39.4980   32.3950   41.0390 C   0  0  0  0  0  0  0  0  0  0  0  0
   38.8160   31.3290   41.5860 N   0  0  0  0  0  0  0  0  0  0  0  0
   39.2680   30.0320   41.4270 C   0  0  0  0  0  0  0  0  0  0  0  0
   40.3430   29.8090   40.7560 N   0  0  0  0  0  0  0  0  0  0  0  0
   38.9140   33.6500   41.2910 N   0  0  0  0  0  0  0  0  0  0  0  0
   41.9450   30.6530   39.6380 H   0  0  0  0  0  0  0  0  0  0  0  0
   38.7730   34.0730   42.2500 H   0  0  0  0  0  0  0  0  0  0  0  0
   38.6100   34.1800   40.4580 H   0  0  0  0  0  0  0  0  0  0  0  0
   41.3470   33.3180   39.7540 C   0  0  0  0  0  0  0  0  0  0  0  0
   41.8140   34.1380   40.7630 F   0  0  0  0  0  0  0  0  0  0  0  0
   40.5660   34.0710   38.9180 F   0  0  0  0  0  0  0  0  0  0  0  0
   42.4790   32.9220   39.0300 F   0  0  0  0  0  0  0  0  0  0  0  0
  1  2  1  0  0  0  0
  2  7  1  0  0  0  0
  2  3  2  0  0  0  0
  3  8  1  0  0  0  0
  4  9  1  0  0  0  0
  4  3  1  0  0  0  0
  5  4  2  0  0  0  0
  6  5  1  0  0  0  0
  6  1  2  0  0  0  0
 10  5  1  0  0  0  0
 10 16  1  1  0  0  0
 11 18  1  0  0  0  0
 11 10  1  0  0  0  0
 12 11  1  0  0  0  0
 12 19  1  0  0  0  0
 13 12  1  0  0  0  0
 13 14  1  0  0  0  0
 14 23  1  0  0  0  0
 14 15  1  0  0  0  0
 15 25  1  6  0  0  0
 15 10  1  0  0  0  0
 15 26  1  0  0  0  0
 17 11  1  0  0  0  0
 20 12  1  0  0  0  0
 21 13  1  0  0  0  0
 22 13  1  0  0  0  0
 24 14  1  0  0  0  0
 26 27  1  0  0  0  0
 28 29  2  0  0  0  0
 28 33  1  0  0  0  0
 29 30  1  0  0  0  0
 30 34  1  0  0  0  0
 30 31  2  0  0  0  0
 32 31  1  0  0  0  0
 32  1  1  0  0  0  0
 33 32  2  0  0  0  0
 34 36  1  0  0  0  0
 35 28  1  0  0  0  0
 37 34  1  0  0  0  0
 38 29  1  0  0  0  0
 38 39  1  0  0  0  0
 40 38  1  0  0  0  0
 41 38  1  0  0  0  0
M  END
>  <minimizedAffinity>
-5.98196316

$$$$

 OpenBabel03242514113D

 41 43  0  0  1  0  0  0  0  0999 V2000
   37.3390   28.4390   41.8290 C   0  0  0  0  0  0  0  0  0  0  0  0
   36.8030   28.1940   43.0720 C   0  0  0  0  0  0  0  0  0  0  0  0
   36.5640   26.9240   43.5740 C   0  0  0  0  0  0  0  0  0  0  0  0
   36.9170   25.8840   42.7040 C   0  0  0  0  0  0  0  0  0  0  0  0
   37.4660   26.1370   41.4330 C   0  0  0  0  0  0  0  0  0  0  0  0
   37.6690   27.3980   41.0140 N   0  0  0  0  0  0  0  0  0  0  0  0
   36.5600   29.0670   43.6760 H   0  0  0  0  0  0  0  0  0  0  0  0
   36.1470   26.7960   44.5410 H   0  0  0  0  0  0  0  0  0  0  0  0
   36.7040   24.9240   43.1530 H   0  0  0  0  0  0  0  0  0  0  0  0
   37.8320   25.0030   40.5880 C   0  0  1  0  0  0  0  0  0  0  0  0
   36.5730   24.5070   39.7620 C   0  0  0  0  0  0  0  0  0  0  0  0
   37.0310   23.0860   39.3200 C   0  0  0  0  0  0  0  0  0  0  0  0
   38.0510   23.3730   38.2090 C   0  0  0  0  0  0  0  0  0  0  0  0
   39.2280   24.0880   38.7460 C   0  0  0  0  0  0  0  0  0  0  0  0
   38.9810   25.1540   39.7460 C   0  0  2  0  0  0  0  0  0  0  0  0
   37.9420   24.1260   41.2910 H   0  0  0  0  0  0  0  0  0  0  0  0
   36.4730   25.1710   38.9060 H   0  0  0  0  0  0  0  0  0  0  0  0
   35.7180   24.4340   40.4380 H   0  0  0  0  0  0  0  0  0  0  0  0
   37.4930   22.5760   40.1720 H   0  0  0  0  0  0  0  0  0  0  0  0
   36.1790   22.5330   38.8760 H   0  0  0  0  0  0  0  0  0  0  0  0
   38.3340   22.3810   37.8220 H   0  0  0  0  0  0  0  0  0  0  0  0
   37.5080   23.8990   37.4050 H   0  0  0  0  0  0  0  0  0  0  0  0
   39.9140   23.2870   39.1560 H   0  0  0  0  0  0  0  0  0  0  0  0
   39.8080   24.5010   37.8940 H   0  0  0  0  0  0  0  0  0  0  0  0
   38.9330   26.1330   39.1770 H   0  0  0  0  0  0  0  0  0  0  0  0
   40.4350   25.1600   40.8460 S   0  0  0  0  0  0  0  0  0  0  0  0
   40.8040   23.8370   41.1180 H   0  0  0  0  0  0  0  0  0  0  0  0
   36.9660   31.7510   40.3460 C   0  0  0  0  0  0  0  0  0  0  0  0
   38.1530   32.3850   40.6080 C   0  0  0  0  0  0  0  0  0  0  0  0
   39.0870   31.6590   41.3040 C   0  0  0  0  0  0  0  0  0  0  0  0
   38.7850   30.3700   41.6870 N   0  0  0  0  0  0  0  0  0  0  0  0
   37.5630   29.8000   41.3840 C   0  0  0  0  0  0  0  0  0  0  0  0
   36.6860   30.4800   40.7320 N   0  0  0  0  0  0  0  0  0  0  0  0
   40.3700   32.0940   41.6840 N   0  0  0  0  0  0  0  0  0  0  0  0
   36.2150   32.3290   39.7900 H   0  0  0  0  0  0  0  0  0  0  0  0
   41.2790   31.6550   41.3670 H   0  0  0  0  0  0  0  0  0  0  0  0
   40.3990   32.9070   42.3200 H   0  0  0  0  0  0  0  0  0  0  0  0
   38.5070   33.7570   40.2150 C   0  0  0  0  0  0  0  0  0  0  0  0
   37.4220   34.3820   39.6310 F   0  0  0  0  0  0  0  0  0  0  0  0
   39.5590   33.8200   39.3400 F   0  0  0  0  0  0  0  0  0  0  0  0
   38.8400   34.5360   41.3310 F   0  0  0  0  0  0  0  0  0  0  0  0
  1  2  1  0  0  0  0
  2  3  2  0  0  0  0
  2  7  1  0  0  0  0
  3  8  1  0  0  0  0
  4  9  1  0  0  0  0
  4  3  1  0  0  0  0
  5  4  2  0  0  0  0
  6  5  1  0  0  0  0
  6  1  2  0  0  0  0
 10 16  1  1  0  0  0
 10  5  1  0  0  0  0
 11 18  1  0  0  0  0
 11 10  1  0  0  0  0
 12 11  1  0  0  0  0
 12 19  1  0  0  0  0
 13 14  1  0  0  0  0
 13 12  1  0  0  0  0
 14 23  1  0  0  0  0
 14 15  1  0  0  0  0
 15 25  1  6  0  0  0
 15 10  1  0  0  0  0
 15 26  1  0  0  0  0
 17 11  1  0  0  0  0
 20 12  1  0  0  0  0
 21 13  1  0  0  0  0
 22 13  1  0  0  0  0
 24 14  1  0  0  0  0
 26 27  1  0  0  0  0
 28 29  2  0  0  0  0
 28 33  1  0  0  0  0
 29 30  1  0  0  0  0
 30 34  1  0  0  0  0
 30 31  2  0  0  0  0
 32 31  1  0  0  0  0
 32  1  1  0  0  0  0
 33 32  2  0  0  0  0
 34 37  1  0  0  0  0
 35 28  1  0  0  0  0
 36 34  1  0  0  0  0
 38 29  1  0  0  0  0
 38 41  1  0  0  0  0
 39 38  1  0  0  0  0
 40 38  1  0  0  0  0
M  END
>  <minimizedAffinity>
-5.86473846

$$$$

 OpenBabel03242514113D

 41 43  0  0  1  0  0  0  0  0999 V2000
   37.3830   27.1930   41.3530 C   0  0  0  0  0  0  0  0  0  0  0  0
   37.3630   27.1580   42.7280 C   0  0  0  0  0  0  0  0  0  0  0  0
   37.6000   28.2610   43.5340 C   0  0  0  0  0  0  0  0  0  0  0  0
   37.8670   29.4420   42.8300 C   0  0  0  0  0  0  0  0  0  0  0  0
   37.8860   29.4770   41.4230 C   0  0  0  0  0  0  0  0  0  0  0  0
   37.6470   28.3640   40.7070 N   0  0  0  0  0  0  0  0  0  0  0  0
   37.1460   26.1930   43.1850 H   0  0  0  0  0  0  0  0  0  0  0  0
   37.5710   28.1730   44.5910 H   0  0  0  0  0  0  0  0  0  0  0  0
   38.0450   30.2600   43.5130 H   0  0  0  0  0  0  0  0  0  0  0  0
   38.1500   30.7480   40.7550 C   0  0  1  0  0  0  0  0  0  0  0  0
   36.7990   31.5510   40.5500 C   0  0  0  0  0  0  0  0  0  0  0  0
   37.2130   32.5860   39.4630 C   0  0  0  0  0  0  0  0  0  0  0  0
   38.0700   33.5930   40.2430 C   0  0  0  0  0  0  0  0  0  0  0  0
   39.2990   32.9530   40.7570 C   0  0  0  0  0  0  0  0  0  0  0  0
   39.1740   31.5830   41.3090 C   0  0  2  0  0  0  0  0  0  0  0  0
   38.3670   30.4830   39.6780 H   0  0  0  0  0  0  0  0  0  0  0  0
   36.5760   32.0420   41.4950 H   0  0  0  0  0  0  0  0  0  0  0  0
   36.0440   30.8690   40.1520 H   0  0  0  0  0  0  0  0  0  0  0  0
   37.7920   32.0780   38.6850 H   0  0  0  0  0  0  0  0  0  0  0  0
   36.3170   33.1140   39.0800 H   0  0  0  0  0  0  0  0  0  0  0  0
   38.3120   34.3830   39.5120 H   0  0  0  0  0  0  0  0  0  0  0  0
   37.4160   34.0430   41.0100 H   0  0  0  0  0  0  0  0  0  0  0  0
   40.0440   32.9900   39.9070 H   0  0  0  0  0  0  0  0  0  0  0  0
   39.7530   33.6230   41.5180 H   0  0  0  0  0  0  0  0  0  0  0  0
   39.0360   31.6920   42.4290 H   0  0  0  0  0  0  0  0  0  0  0  0
   40.7620   30.7550   40.9690 S   0  0  0  0  0  0  0  0  0  0  0  0
   41.1830   31.0940   39.6770 H   0  0  0  0  0  0  0  0  0  0  0  0
   36.2010   24.8230   38.8450 C   0  0  0  0  0  0  0  0  0  0  0  0
   36.7060   23.6130   39.2440 C   0  0  0  0  0  0  0  0  0  0  0  0
   37.4610   23.6200   40.3900 C   0  0  0  0  0  0  0  0  0  0  0  0
   37.6620   24.8110   41.0540 N   0  0  0  0  0  0  0  0  0  0  0  0
   37.1170   25.9930   40.5860 C   0  0  0  0  0  0  0  0  0  0  0  0
   36.4090   25.9870   39.5110 N   0  0  0  0  0  0  0  0  0  0  0  0
   38.0770   22.5070   40.9910 N   0  0  0  0  0  0  0  0  0  0  0  0
   35.5960   24.8220   37.9270 H   0  0  0  0  0  0  0  0  0  0  0  0
   37.8630   22.1450   41.9620 H   0  0  0  0  0  0  0  0  0  0  0  0
   38.7890   22.0240   40.4200 H   0  0  0  0  0  0  0  0  0  0  0  0
   36.5130   22.3260   38.5600 C   0  0  0  0  0  0  0  0  0  0  0  0
   35.8770   22.5190   37.3480 F   0  0  0  0  0  0  0  0  0  0  0  0
   35.7810   21.4260   39.2880 F   0  0  0  0  0  0  0  0  0  0  0  0
   37.7390   21.7220   38.2540 F   0  0  0  0  0  0  0  0  0  0  0  0
  1  2  1  0  0  0  0
  2  7  1  0  0  0  0
  2  3  2  0  0  0  0
  3  8  1  0  0  0  0
  4  9  1  0  0  0  0
  4  3  1  0  0  0  0
  5  4  2  0  0  0  0
  6  1  2  0  0  0  0
  6  5  1  0  0  0  0
 10 16  1  6  0  0  0
 10 15  1  0  0  0  0
 10  5  1  0  0  0  0
 11 10  1  0  0  0  0
 11 17  1  0  0  0  0
 12 13  1  0  0  0  0
 12 11  1  0  0  0  0
 13 14  1  0  0  0  0
 13 22  1  0  0  0  0
 14 15  1  0  0  0  0
 14 24  1  0  0  0  0
 15 25  1  1  0  0  0
 18 11  1  0  0  0  0
 19 12  1  0  0  0  0
 20 12  1  0  0  0  0
 21 13  1  0  0  0  0
 23 14  1  0  0  0  0
 26 15  1  0  0  0  0
 27 26  1  0  0  0  0
 28 29  2  0  0  0  0
 28 33  1  0  0  0  0
 29 30  1  0  0  0  0
 30 34  1  0  0  0  0
 30 31  2  0  0  0  0
 32 31  1  0  0  0  0
 32  1  1  0  0  0  0
 33 32  2  0  0  0  0
 34 36  1  0  0  0  0
 35 28  1  0  0  0  0
 37 34  1  0  0  0  0
 38 29  1  0  0  0  0
 38 40  1  0  0  0  0
 39 38  1  0  0  0  0
 41 38  1  0  0  0  0
M  END
>  <minimizedAffinity>
-5.74248743

$$$$

 OpenBabel03242514113D

 41 43  0  0  1  0  0  0  0  0999 V2000
   37.3590   28.8270   38.3700 C   0  0  0  0  0  0  0  0  0  0  0  0
   36.8640   28.7910   37.0870 C   0  0  0  0  0  0  0  0  0  0  0  0
   36.8210   29.8920   36.2450 C   0  0  0  0  0  0  0  0  0  0  0  0
   37.3290   31.0690   36.8080 C   0  0  0  0  0  0  0  0  0  0  0  0
   37.8360   31.1030   38.1210 C   0  0  0  0  0  0  0  0  0  0  0  0
   37.8450   29.9930   38.8790 N   0  0  0  0  0  0  0  0  0  0  0  0
   36.4910   27.8290   36.7380 H   0  0  0  0  0  0  0  0  0  0  0  0
   36.4270   29.8040   35.2630 H   0  0  0  0  0  0  0  0  0  0  0  0
   37.2640   31.8860   36.1040 H   0  0  0  0  0  0  0  0  0  0  0  0
   38.3710   32.3610   38.6350 C   0  0  1  0  0  0  0  0  0  0  0  0
   37.4090   32.9510   39.7480 C   0  0  0  0  0  0  0  0  0  0  0  0
   37.8820   34.4330   39.8150 C   0  0  0  0  0  0  0  0  0  0  0  0
   39.2200   34.3430   40.5620 C   0  0  0  0  0  0  0  0  0  0  0  0
   40.2130   33.5800   39.7760 C   0  0  0  0  0  0  0  0  0  0  0  0
   39.7360   32.3670   39.0690 C   0  0  2  0  0  0  0  0  0  0  0  0
   38.1890   33.1210   37.8190 H   0  0  0  0  0  0  0  0  0  0  0  0
   37.6340   32.4250   40.6730 H   0  0  0  0  0  0  0  0  0  0  0  0
   36.3800   32.9010   39.3840 H   0  0  0  0  0  0  0  0  0  0  0  0
   38.0120   34.8150   38.7970 H   0  0  0  0  0  0  0  0  0  0  0  0
   37.1790   35.0300   40.4300 H   0  0  0  0  0  0  0  0  0  0  0  0
   39.5420   35.3890   40.6930 H   0  0  0  0  0  0  0  0  0  0  0  0
   39.0000   33.9360   41.5640 H   0  0  0  0  0  0  0  0  0  0  0  0
   40.6740   34.3230   39.0580 H   0  0  0  0  0  0  0  0  0  0  0  0
   41.0610   33.3150   40.4410 H   0  0  0  0  0  0  0  0  0  0  0  0
   39.9410   31.4870   39.7530 H   0  0  0  0  0  0  0  0  0  0  0  0
   40.7600   32.2220   37.5680 S   0  0  0  0  0  0  0  0  0  0  0  0
   40.9290   33.4950   37.0090 H   0  0  0  0  0  0  0  0  0  0  0  0
   37.2810   25.3630   39.5130 C   0  0  0  0  0  0  0  0  0  0  0  0
   37.4210   25.4430   40.8750 C   0  0  0  0  0  0  0  0  0  0  0  0
   37.5430   26.7060   41.3980 C   0  0  0  0  0  0  0  0  0  0  0  0
   37.5190   27.7900   40.5470 N   0  0  0  0  0  0  0  0  0  0  0  0
   37.3740   27.6260   39.1820 C   0  0  0  0  0  0  0  0  0  0  0  0
   37.2600   26.4420   38.6910 N   0  0  0  0  0  0  0  0  0  0  0  0
   37.6940   27.0350   42.7580 N   0  0  0  0  0  0  0  0  0  0  0  0
   37.1840   24.3540   39.0900 H   0  0  0  0  0  0  0  0  0  0  0  0
   37.0140   27.6180   43.3200 H   0  0  0  0  0  0  0  0  0  0  0  0
   38.5420   26.6660   43.2190 H   0  0  0  0  0  0  0  0  0  0  0  0
   37.4520   24.3090   41.8100 C   0  0  0  0  0  0  0  0  0  0  0  0
   36.3850   24.3820   42.6850 F   0  0  0  0  0  0  0  0  0  0  0  0
   38.6040   24.2400   42.5460 F   0  0  0  0  0  0  0  0  0  0  0  0
   37.3090   23.0890   41.1370 F   0  0  0  0  0  0  0  0  0  0  0  0
  1  6  1  0  0  0  0
  1 32  1  0  0  0  0
  2  1  2  0  0  0  0
  3  4  2  0  0  0  0
  3  2  1  0  0  0  0
  4  5  1  0  0  0  0
  5 10  1  0  0  0  0
  5  6  2  0  0  0  0
  7  2  1  0  0  0  0
  8  3  1  0  0  0  0
  9  4  1  0  0  0  0
 10 16  1  6  0  0  0
 10 15  1  0  0  0  0
 10 11  1  0  0  0  0
 11 12  1  0  0  0  0
 11 17  1  0  0  0  0
 12 20  1  0  0  0  0
 12 13  1  0  0  0  0
 13 21  1  0  0  0  0
 13 22  1  0  0  0  0
 14 24  1  0  0  0  0
 14 13  1  0  0  0  0
 15 25  1  1  0  0  0
 15 14  1  0  0  0  0
 18 11  1  0  0  0  0
 19 12  1  0  0  0  0
 23 14  1  0  0  0  0
 26 15  1  0  0  0  0
 27 26  1  0  0  0  0
 28 29  1  0  0  0  0
 29 30  2  0  0  0  0
 29 38  1  0  0  0  0
 30 34  1  0  0  0  0
 31 30  1  0  0  0  0
 32 31  2  0  0  0  0
 33 32  1  0  0  0  0
 33 28  2  0  0  0  0
 34 37  1  0  0  0  0
 34 36  1  0  0  0  0
 35 28  1  0  0  0  0
 38 40  1  0  0  0  0
 38 39  1  0  0  0  0
 41 38  1  0  0  0  0
M  END
>  <minimizedAffinity>
-5.67285299

$$$$

 OpenBabel03242514113D

 41 43  0  0  1  0  0  0  0  0999 V2000
   36.3070   25.8170   38.9940 C   0  0  0  0  0  0  0  0  0  0  0  0
   35.6460   24.6130   38.9290 C   0  0  0  0  0  0  0  0  0  0  0  0
   35.7290   23.6310   39.9050 C   0  0  0  0  0  0  0  0  0  0  0  0
   36.5530   23.9640   40.9870 C   0  0  0  0  0  0  0  0  0  0  0  0
   37.2280   25.1970   41.0530 C   0  0  0  0  0  0  0  0  0  0  0  0
   37.0990   26.1000   40.0660 N   0  0  0  0  0  0  0  0  0  0  0  0
   35.0290   24.4450   38.0470 H   0  0  0  0  0  0  0  0  0  0  0  0
   35.1950   22.7200   39.8000 H   0  0  0  0  0  0  0  0  0  0  0  0
   36.5760   23.1590   41.7090 H   0  0  0  0  0  0  0  0  0  0  0  0
   38.0530   25.4850   42.2230 C   0  0  1  0  0  0  0  0  0  0  0  0
   39.4670   24.7830   42.0830 C   0  0  0  0  0  0  0  0  0  0  0  0
   39.9780   24.8150   43.5530 C   0  0  0  0  0  0  0  0  0  0  0  0
   40.3690   26.2860   43.7590 C   0  0  0  0  0  0  0  0  0  0  0  0
   39.1830   27.1640   43.6670 C   0  0  0  0  0  0  0  0  0  0  0  0
   38.1880   26.8570   42.6110 C   0  0  2  0  0  0  0  0  0  0  0  0
   37.6220   24.8560   43.0570 H   0  0  0  0  0  0  0  0  0  0  0  0
   40.0750   25.4190   41.4420 H   0  0  0  0  0  0  0  0  0  0  0  0
   39.3150   23.7500   41.7600 H   0  0  0  0  0  0  0  0  0  0  0  0
   39.1660   24.5140   44.2230 H   0  0  0  0  0  0  0  0  0  0  0  0
   40.8920   24.1950   43.6520 H   0  0  0  0  0  0  0  0  0  0  0  0
   40.8090   26.3220   44.7690 H   0  0  0  0  0  0  0  0  0  0  0  0
   41.1750   26.5060   43.0380 H   0  0  0  0  0  0  0  0  0  0  0  0
   38.7120   27.1540   44.6950 H   0  0  0  0  0  0  0  0  0  0  0  0
   39.5290   28.2130   43.5600 H   0  0  0  0  0  0  0  0  0  0  0  0
   38.4500   27.5010   41.7160 H   0  0  0  0  0  0  0  0  0  0  0  0
   36.5710   27.3710   43.2780 S   0  0  0  0  0  0  0  0  0  0  0  0
   36.4950   26.9950   44.6250 H   0  0  0  0  0  0  0  0  0  0  0  0
   34.9560   28.0980   36.4880 C   0  0  0  0  0  0  0  0  0  0  0  0
   36.0580   28.6580   35.8970 C   0  0  0  0  0  0  0  0  0  0  0  0
   37.2770   28.2420   36.3710 C   0  0  0  0  0  0  0  0  0  0  0  0
   37.3200   27.3110   37.3860 N   0  0  0  0  0  0  0  0  0  0  0  0
   36.1600   26.7920   37.9310 C   0  0  0  0  0  0  0  0  0  0  0  0
   35.0170   27.1820   37.4880 N   0  0  0  0  0  0  0  0  0  0  0  0
   38.5390   28.6720   35.9220 N   0  0  0  0  0  0  0  0  0  0  0  0
   33.9780   28.4280   36.1120 H   0  0  0  0  0  0  0  0  0  0  0  0
   39.2740   28.0480   35.4860 H   0  0  0  0  0  0  0  0  0  0  0  0
   38.7390   29.6790   36.0360 H   0  0  0  0  0  0  0  0  0  0  0  0
   36.0490   29.6530   34.8140 C   0  0  0  0  0  0  0  0  0  0  0  0
   36.6690   29.1420   33.6900 F   0  0  0  0  0  0  0  0  0  0  0  0
   36.6690   30.8270   35.1470 F   0  0  0  0  0  0  0  0  0  0  0  0
   34.7410   29.9640   34.4200 F   0  0  0  0  0  0  0  0  0  0  0  0
  1  6  1  0  0  0  0
  2  1  2  0  0  0  0
  2  3  1  0  0  0  0
  3  4  2  0  0  0  0
  4  5  1  0  0  0  0
  4  9  1  0  0  0  0
  5 10  1  0  0  0  0
  6  5  2  0  0  0  0
  7  2  1  0  0  0  0
  8  3  1  0  0  0  0
 10 15  1  0  0  0  0
 10 16  1  1  0  0  0
 11 10  1  0  0  0  0
 11 12  1  0  0  0  0
 12 20  1  0  0  0  0
 12 13  1  0  0  0  0
 12 19  1  0  0  0  0
 13 21  1  0  0  0  0
 14 13  1  0  0  0  0
 14 23  1  0  0  0  0
 15 25  1  6  0  0  0
 15 26  1  0  0  0  0
 15 14  1  0  0  0  0
 17 11  1  0  0  0  0
 18 11  1  0  0  0  0
 22 13  1  0  0  0  0
 24 14  1  0  0  0  0
 26 27  1  0  0  0  0
 28 33  1  0  0  0  0
 29 30  1  0  0  0  0
 29 28  2  0  0  0  0
 30 31  2  0  0  0  0
 31 32  1  0  0  0  0
 32  1  1  0  0  0  0
 33 32  2  0  0  0  0
 34 37  1  0  0  0  0
 34 30  1  0  0  0  0
 35 28  1  0  0  0  0
 36 34  1  0  0  0  0
 38 40  1  0  0  0  0
 38 29  1  0  0  0  0
 39 38  1  0  0  0  0
 41 38  1  0  0  0  0
M  END
>  <minimizedAffinity>
-5.65336514

$$$$
