
 OpenBabel03252508173D

 42 45  0  0  1  0  0  0  0  0999 V2000
   46.1610   33.0660   46.1740 C   0  0  0  0  0  0  0  0  0  0  0  0
   46.9840   32.1580   45.8520 C   0  0  0  0  0  0  0  0  0  0  0  0
   44.5400   35.8600   44.4010 C   0  0  0  0  0  0  0  0  0  0  0  0
   45.1640   35.8480   43.1600 C   0  0  0  0  0  0  0  0  0  0  0  0
   46.1080   34.8940   42.9740 C   0  0  0  0  0  0  0  0  0  0  0  0
   46.4000   34.0140   43.9730 N   0  0  0  0  0  0  0  0  0  0  0  0
   45.7800   34.0520   45.1600 C   0  0  0  0  0  0  0  0  0  0  0  0
   44.8590   34.9800   45.3430 N   0  0  0  0  0  0  0  0  0  0  0  0
   43.7720   36.6140   44.5890 H   0  0  0  0  0  0  0  0  0  0  0  0
   44.9220   36.5480   42.3820 H   0  0  0  0  0  0  0  0  0  0  0  0
   46.8480   34.7550   41.7230 C   0  0  0  0  0  0  0  0  0  0  0  0
   48.0530   35.3470   41.4580 C   0  0  0  0  0  0  0  0  0  0  0  0
   48.7420   35.2070   40.2730 C   0  0  0  0  0  0  0  0  0  0  0  0
   48.2130   34.4240   39.2610 C   0  0  0  0  0  0  0  0  0  0  0  0
   47.0090   33.8060   39.4690 C   0  0  0  0  0  0  0  0  0  0  0  0
   46.3570   33.9810   40.6780 C   0  0  0  0  0  0  0  0  0  0  0  0
   48.4810   35.9690   42.2550 H   0  0  0  0  0  0  0  0  0  0  0  0
   49.6930   35.7350   40.1960 H   0  0  0  0  0  0  0  0  0  0  0  0
   48.8040   34.3540   38.3530 H   0  0  0  0  0  0  0  0  0  0  0  0
   46.5980   33.2020   38.6910 H   0  0  0  0  0  0  0  0  0  0  0  0
   45.4030   33.4740   40.8070 H   0  0  0  0  0  0  0  0  0  0  0  0
   47.2870   31.1370   46.9270 C   0  0  0  0  0  0  0  0  0  0  0  0
   48.3030   30.8360   46.7420 H   0  0  0  0  0  0  0  0  0  0  0  0
   46.5520   30.3090   46.7050 H   0  0  0  0  0  0  0  0  0  0  0  0
   46.9310   31.6660   48.2720 C   0  0  1  0  0  0  0  0  0  0  0  0
   46.3750   30.6630   49.2250 C   0  0  0  0  0  0  0  0  0  0  0  0
   47.6910   31.2440   49.4650 C   0  0  1  0  0  0  0  0  0  0  0  0
   46.2500   32.5660   48.2550 H   0  0  0  0  0  0  0  0  0  0  0  0
   45.5600   30.8980   49.9350 H   0  0  0  0  0  0  0  0  0  0  0  0
   46.3800   29.5660   48.9680 H   0  0  0  0  0  0  0  0  0  0  0  0
   47.7680   31.9950   50.2780 H   0  0  0  0  0  0  0  0  0  0  0  0
   48.9460   30.4580   49.2530 C   0  0  2  0  0  0  0  0  0  0  0  0
   49.6880   30.1290   50.5760 C   0  0  0  0  0  0  0  0  0  0  0  0
   50.2670   31.1070   49.6500 C   0  0  1  0  0  0  0  0  0  0  0  0
   48.9790   29.5900   48.5750 H   0  0  0  0  0  0  0  0  0  0  0  0
   50.1460   29.1510   50.7110 H   0  0  0  0  0  0  0  0  0  0  0  0
   49.2730   30.5410   51.5180 H   0  0  0  0  0  0  0  0  0  0  0  0
   50.2050   32.1990   49.9200 H   0  0  0  0  0  0  0  0  0  0  0  0
   51.4780   30.6620   48.8610 C   0  0  0  0  0  0  0  0  0  0  0  0
   52.1550   29.7260   49.6160 F   0  0  0  0  0  0  0  0  0  0  0  0
   51.0650   29.9820   47.7150 F   0  0  0  0  0  0  0  0  0  0  0  0
   52.3030   31.7080   48.5570 F   0  0  0  0  0  0  0  0  0  0  0  0
  2  1  2  0  0  0  0
  2 22  1  0  0  0  0
  3  9  1  0  0  0  0
  3  8  1  0  0  0  0
  4  3  2  0  0  0  0
  5  4  1  0  0  0  0
  5  6  2  0  0  0  0
  6  7  1  0  0  0  0
  7  8  2  0  0  0  0
  7  1  1  0  0  0  0
 10  4  1  0  0  0  0
 11  5  1  0  0  0  0
 12 11  1  0  0  0  0
 12 17  1  0  0  0  0
 13 12  2  0  0  0  0
 14 15  2  0  0  0  0
 14 13  1  0  0  0  0
 15 16  1  0  0  0  0
 16 21  1  0  0  0  0
 16 11  2  0  0  0  0
 18 13  1  0  0  0  0
 19 14  1  0  0  0  0
 20 15  1  0  0  0  0
 22 25  1  0  0  0  0
 23 22  1  0  0  0  0
 24 22  1  0  0  0  0
 25 28  1  1  0  0  0
 25 26  1  0  0  0  0
 25 27  1  0  0  0  0
 26 27  1  0  0  0  0
 26 29  1  0  0  0  0
 27 31  1  1  0  0  0
 30 26  1  0  0  0  0
 32 35  1  6  0  0  0
 32 27  1  0  0  0  0
 32 34  1  0  0  0  0
 32 33  1  0  0  0  0
 33 36  1  0  0  0  0
 33 37  1  0  0  0  0
 34 38  1  1  0  0  0
 34 33  1  0  0  0  0
 39 40  1  0  0  0  0
 39 34  1  0  0  0  0
 41 39  1  0  0  0  0
 42 39  1  0  0  0  0
M  END
>  <minimizedAffinity>
-6.2842679

>  <minimizedRMSD>
0.785427988

$$$$
