
 OpenBabel03252508233D

 43 45  0  0  0  0  0  0  0  0999 V2000
   46.4400   34.0800   40.3360 C   0  0  0  0  0  0  0  0  0  0  0  0
   47.5120   34.5200   41.0820 C   0  0  0  0  0  0  0  0  0  0  0  0
   47.4080   35.1140   42.3170 C   0  0  0  0  0  0  0  0  0  0  0  0
   46.1050   35.2590   42.8120 C   0  0  0  0  0  0  0  0  0  0  0  0
   45.0110   34.8380   42.1120 C   0  0  0  0  0  0  0  0  0  0  0  0
   45.1630   34.2550   40.8880 C   0  0  0  0  0  0  0  0  0  0  0  0
   48.5420   34.4340   40.7770 H   0  0  0  0  0  0  0  0  0  0  0  0
   48.2160   35.4670   42.9220 H   0  0  0  0  0  0  0  0  0  0  0  0
   45.9590   35.7270   43.7950 H   0  0  0  0  0  0  0  0  0  0  0  0
   44.0320   34.9900   42.5700 H   0  0  0  0  0  0  0  0  0  0  0  0
   43.9700   33.8460   40.2510 N   0  0  0  0  0  0  0  0  0  0  0  0
   43.0980   34.7240   39.5250 C   0  0  0  0  0  0  0  0  0  0  0  0
   42.2050   33.9500   38.5800 C   0  0  0  0  0  0  0  0  0  0  0  0
   42.8470   32.8520   37.9460 N   0  0  0  0  0  0  0  0  0  0  0  0
   43.4570   31.9280   38.8200 C   0  0  0  0  0  0  0  0  0  0  0  0
   43.4470   32.4710   40.2350 C   0  0  0  0  0  0  0  0  0  0  0  0
   43.5420   35.6170   39.0890 H   0  0  0  0  0  0  0  0  0  0  0  0
   42.3910   35.1350   40.3090 H   0  0  0  0  0  0  0  0  0  0  0  0
   41.8600   34.6530   37.8030 H   0  0  0  0  0  0  0  0  0  0  0  0
   41.3230   33.5400   39.1240 H   0  0  0  0  0  0  0  0  0  0  0  0
   42.3570   32.5260   37.1240 H   0  0  0  0  0  0  0  0  0  0  0  0
   42.8800   30.9770   38.8330 H   0  0  0  0  0  0  0  0  0  0  0  0
   44.4880   31.6640   38.5320 H   0  0  0  0  0  0  0  0  0  0  0  0
   42.4100   32.4700   40.6450 H   0  0  0  0  0  0  0  0  0  0  0  0
   44.1440   31.8410   40.8340 H   0  0  0  0  0  0  0  0  0  0  0  0
   46.5590   33.4540   39.0200 C   0  0  0  0  0  0  0  0  0  0  0  0
   45.6840   33.5480   38.3800 H   0  0  0  0  0  0  0  0  0  0  0  0
   46.6610   32.3460   39.2170 H   0  0  0  0  0  0  0  0  0  0  0  0
   47.7960   33.9220   38.2820 C   0  0  0  0  0  0  0  0  0  0  0  0
   48.6900   33.8960   38.9750 H   0  0  0  0  0  0  0  0  0  0  0  0
   47.7300   34.8960   37.8250 H   0  0  0  0  0  0  0  0  0  0  0  0
   47.5180   31.6960   35.2460 C   0  0  0  0  0  0  0  0  0  0  0  0
   47.1780   32.6280   36.2560 C   0  0  0  0  0  0  0  0  0  0  0  0
   48.1280   32.9450   37.2190 C   0  0  0  0  0  0  0  0  0  0  0  0
   49.3460   32.3300   37.1330 N   0  0  0  0  0  0  0  0  0  0  0  0
   49.6460   31.4540   36.1750 C   0  0  0  0  0  0  0  0  0  0  0  0
   48.7370   31.1340   35.2310 N   0  0  0  0  0  0  0  0  0  0  0  0
   46.7540   31.4590   34.4950 H   0  0  0  0  0  0  0  0  0  0  0  0
   46.2070   33.0830   36.2770 H   0  0  0  0  0  0  0  0  0  0  0  0
   51.0190   30.8590   36.2050 C   0  0  0  0  0  0  0  0  0  0  0  0
   51.0040   29.5470   36.6900 F   0  0  0  0  0  0  0  0  0  0  0  0
   51.8580   31.5620   37.0540 F   0  0  0  0  0  0  0  0  0  0  0  0
   51.5920   30.7880   34.9490 F   0  0  0  0  0  0  0  0  0  0  0  0
  1  6  2  0  0  0  0
  1  2  1  0  0  0  0
  2  3  2  0  0  0  0
  3  4  1  0  0  0  0
  3  8  1  0  0  0  0
  4  9  1  0  0  0  0
  5 10  1  0  0  0  0
  5  4  2  0  0  0  0
  6  5  1  0  0  0  0
  7  2  1  0  0  0  0
 11  6  1  0  0  0  0
 12 11  1  0  0  0  0
 12 18  1  0  0  0  0
 13 20  1  0  0  0  0
 13 12  1  0  0  0  0
 14 13  1  0  0  0  0
 14 15  1  0  0  0  0
 15 22  1  0  0  0  0
 15 16  1  0  0  0  0
 16 11  1  0  0  0  0
 16 24  1  0  0  0  0
 16 25  1  0  0  0  0
 17 12  1  0  0  0  0
 19 13  1  0  0  0  0
 21 14  1  0  0  0  0
 23 15  1  0  0  0  0
 26 28  1  0  0  0  0
 26  1  1  0  0  0  0
 27 26  1  0  0  0  0
 29 30  1  0  0  0  0
 29 26  1  0  0  0  0
 31 29  1  0  0  0  0
 32 33  1  0  0  0  0
 33 39  1  0  0  0  0
 33 34  2  0  0  0  0
 34 29  1  0  0  0  0
 35 34  1  0  0  0  0
 36 40  1  0  0  0  0
 36 35  2  0  0  0  0
 37 32  2  0  0  0  0
 37 36  1  0  0  0  0
 38 32  1  0  0  0  0
 40 41  1  0  0  0  0
 40 42  1  0  0  0  0
 43 40  1  0  0  0  0
M  END
>  <minimizedAffinity>
-4.54970741

>  <minimizedRMSD>
8.18813992

$$$$
