
 OpenBabel03242522243D

 23 24  0  0  0  0  0  0  0  0999 V2000
   39.3610   34.1610   40.3450 C   0  0  0  0  0  0  0  0  0  0  0  0
   38.7820   33.0980   41.0480 C   0  0  0  0  0  0  0  0  0  0  0  0
   39.0920   31.7700   40.7240 C   0  0  0  0  0  0  0  0  0  0  0  0
   39.9700   31.5800   39.7080 N   0  0  0  0  0  0  0  0  0  0  0  0
   40.5120   32.6240   39.0480 C   0  0  0  0  0  0  0  0  0  0  0  0
   40.2180   33.8870   39.3540 N   0  0  0  0  0  0  0  0  0  0  0  0
   39.1260   35.1730   40.5900 H   0  0  0  0  0  0  0  0  0  0  0  0
   38.0870   33.2890   41.8520 H   0  0  0  0  0  0  0  0  0  0  0  0
   36.5650   30.8650   39.5310 Cl  0  0  0  0  0  0  0  0  0  0  0  0
   37.3040   30.1480   40.9650 C   0  0  0  0  0  0  0  0  0  0  0  0
   38.4980   30.6520   41.4460 C   0  0  0  0  0  0  0  0  0  0  0  0
   39.0380   30.0560   42.5740 C   0  0  0  0  0  0  0  0  0  0  0  0
   38.3850   28.9920   43.1860 C   0  0  0  0  0  0  0  0  0  0  0  0
   37.1910   28.5320   42.6560 C   0  0  0  0  0  0  0  0  0  0  0  0
   36.3960   27.1920   43.4490 Cl  0  0  0  0  0  0  0  0  0  0  0  0
   36.6170   29.0950   41.5340 C   0  0  0  0  0  0  0  0  0  0  0  0
   39.9600   30.4750   42.9120 H   0  0  0  0  0  0  0  0  0  0  0  0
   38.8640   28.5680   44.0710 H   0  0  0  0  0  0  0  0  0  0  0  0
   35.6900   28.7050   41.1610 H   0  0  0  0  0  0  0  0  0  0  0  0
   41.4710   32.3100   37.9400 C   0  0  0  0  0  0  0  0  0  0  0  0
   42.7000   31.9180   38.4130 F   0  0  0  0  0  0  0  0  0  0  0  0
   40.9480   31.3910   37.0560 F   0  0  0  0  0  0  0  0  0  0  0  0
   41.6960   33.5020   37.2400 F   0  0  0  0  0  0  0  0  0  0  0  0
  1  7  1  0  0  0  0
  1  2  1  0  0  0  0
  2  8  1  0  0  0  0
  3  2  2  0  0  0  0
  3 11  1  0  0  0  0
  4  3  1  0  0  0  0
  5  6  1  0  0  0  0
  5  4  2  0  0  0  0
  6  1  2  0  0  0  0
  9 10  1  0  0  0  0
 10 11  2  0  0  0  0
 10 16  1  0  0  0  0
 11 12  1  0  0  0  0
 12 17  1  0  0  0  0
 12 13  2  0  0  0  0
 13 18  1  0  0  0  0
 14 13  1  0  0  0  0
 14 15  1  0  0  0  0
 16 14  2  0  0  0  0
 19 16  1  0  0  0  0
 20 21  1  0  0  0  0
 20  5  1  0  0  0  0
 22 20  1  0  0  0  0
 23 20  1  0  0  0  0
M  END
>  <minimizedAffinity>
-4.98576546

$$$$

 OpenBabel03242522243D

 23 24  0  0  0  0  0  0  0  0999 V2000
   37.1280   30.7390   41.4320 C   0  0  0  0  0  0  0  0  0  0  0  0
   36.3920   30.5910   40.2510 C   0  0  0  0  0  0  0  0  0  0  0  0
   35.8740   29.3430   39.8810 C   0  0  0  0  0  0  0  0  0  0  0  0
   36.1220   28.3060   40.7180 N   0  0  0  0  0  0  0  0  0  0  0  0
   36.8370   28.4780   41.8500 C   0  0  0  0  0  0  0  0  0  0  0  0
   37.3310   29.6650   42.2040 N   0  0  0  0  0  0  0  0  0  0  0  0
   37.5250   31.6890   41.7160 H   0  0  0  0  0  0  0  0  0  0  0  0
   36.2130   31.4410   39.6090 H   0  0  0  0  0  0  0  0  0  0  0  0
   37.5720   29.1890   37.4890 Cl  0  0  0  0  0  0  0  0  0  0  0  0
   35.8100   29.0870   37.4680 C   0  0  0  0  0  0  0  0  0  0  0  0
   35.1040   29.1720   38.6540 C   0  0  0  0  0  0  0  0  0  0  0  0
   33.7230   29.0870   38.5860 C   0  0  0  0  0  0  0  0  0  0  0  0
   33.0890   28.9240   37.3590 C   0  0  0  0  0  0  0  0  0  0  0  0
   33.8530   28.8460   36.2060 C   0  0  0  0  0  0  0  0  0  0  0  0
   33.0250   28.6400   34.6790 Cl  0  0  0  0  0  0  0  0  0  0  0  0
   35.2300   28.9250   36.2270 C   0  0  0  0  0  0  0  0  0  0  0  0
   33.2170   29.1570   39.5230 H   0  0  0  0  0  0  0  0  0  0  0  0
   32.0000   28.8650   37.3750 H   0  0  0  0  0  0  0  0  0  0  0  0
   35.7790   28.8610   35.3070 H   0  0  0  0  0  0  0  0  0  0  0  0
   37.0590   27.2710   42.7100 C   0  0  0  0  0  0  0  0  0  0  0  0
   38.3220   27.2440   43.2490 F   0  0  0  0  0  0  0  0  0  0  0  0
   36.0870   27.1480   43.6790 F   0  0  0  0  0  0  0  0  0  0  0  0
   36.9770   26.1500   41.8740 F   0  0  0  0  0  0  0  0  0  0  0  0
  1  7  1  0  0  0  0
  1  6  1  0  0  0  0
  2  1  2  0  0  0  0
  3  2  1  0  0  0  0
  3  4  2  0  0  0  0
  4  5  1  0  0  0  0
  5  6  2  0  0  0  0
  5 20  1  0  0  0  0
  8  2  1  0  0  0  0
 10  9  1  0  0  0  0
 10 11  1  0  0  0  0
 11  3  1  0  0  0  0
 12 11  2  0  0  0  0
 12 17  1  0  0  0  0
 13 18  1  0  0  0  0
 13 12  1  0  0  0  0
 14 16  1  0  0  0  0
 14 13  2  0  0  0  0
 15 14  1  0  0  0  0
 16 10  2  0  0  0  0
 19 16  1  0  0  0  0
 20 21  1  0  0  0  0
 20 22  1  0  0  0  0
 23 20  1  0  0  0  0
M  END
>  <minimizedAffinity>
-4.98078918

$$$$

 OpenBabel03242522243D

 23 24  0  0  0  0  0  0  0  0999 V2000
   35.1880   29.2960   40.1000 C   0  0  0  0  0  0  0  0  0  0  0  0
   36.1460   30.2490   39.7330 C   0  0  0  0  0  0  0  0  0  0  0  0
   37.3660   30.3390   40.4160 C   0  0  0  0  0  0  0  0  0  0  0  0
   37.5610   29.4660   41.4340 N   0  0  0  0  0  0  0  0  0  0  0  0
   36.6200   28.5580   41.7670 C   0  0  0  0  0  0  0  0  0  0  0  0
   35.4590   28.4710   41.1190 N   0  0  0  0  0  0  0  0  0  0  0  0
   34.2580   29.2250   39.5820 H   0  0  0  0  0  0  0  0  0  0  0  0
   35.9550   30.9270   38.9150 H   0  0  0  0  0  0  0  0  0  0  0  0
   39.0950   29.4240   38.2250 Cl  0  0  0  0  0  0  0  0  0  0  0  0
   39.2410   30.9930   39.0210 C   0  0  0  0  0  0  0  0  0  0  0  0
   38.3740   31.3260   40.0460 C   0  0  0  0  0  0  0  0  0  0  0  0
   38.5280   32.5680   40.6390 C   0  0  0  0  0  0  0  0  0  0  0  0
   39.5270   33.4330   40.2060 C   0  0  0  0  0  0  0  0  0  0  0  0
   40.3650   33.0410   39.1750 C   0  0  0  0  0  0  0  0  0  0  0  0
   41.6100   34.1530   38.6540 Cl  0  0  0  0  0  0  0  0  0  0  0  0
   40.2470   31.8140   38.5550 C   0  0  0  0  0  0  0  0  0  0  0  0
   37.8390   32.7850   41.4250 H   0  0  0  0  0  0  0  0  0  0  0  0
   39.5950   34.3950   40.7160 H   0  0  0  0  0  0  0  0  0  0  0  0
   40.9200   31.5550   37.7610 H   0  0  0  0  0  0  0  0  0  0  0  0
   36.9290   27.6370   42.9080 C   0  0  0  0  0  0  0  0  0  0  0  0
   37.9830   28.0870   43.6660 F   0  0  0  0  0  0  0  0  0  0  0  0
   35.8150   27.3870   43.6790 F   0  0  0  0  0  0  0  0  0  0  0  0
   37.3500   26.4220   42.3530 F   0  0  0  0  0  0  0  0  0  0  0  0
  1  6  1  0  0  0  0
  2  1  2  0  0  0  0
  2  3  1  0  0  0  0
  3  4  2  0  0  0  0
  4  5  1  0  0  0  0
  5 20  1  0  0  0  0
  6  5  2  0  0  0  0
  7  1  1  0  0  0  0
  8  2  1  0  0  0  0
  9 10  1  0  0  0  0
 10 11  1  0  0  0  0
 11  3  1  0  0  0  0
 11 12  2  0  0  0  0
 12 17  1  0  0  0  0
 13 12  1  0  0  0  0
 13 18  1  0  0  0  0
 14 13  2  0  0  0  0
 15 14  1  0  0  0  0
 16 10  2  0  0  0  0
 16 14  1  0  0  0  0
 19 16  1  0  0  0  0
 20 21  1  0  0  0  0
 20 22  1  0  0  0  0
 23 20  1  0  0  0  0
M  END
>  <minimizedAffinity>
-4.88177299

$$$$

 OpenBabel03242522243D

 23 24  0  0  0  0  0  0  0  0999 V2000
   35.8380   30.4790   40.6920 C   0  0  0  0  0  0  0  0  0  0  0  0
   35.9630   29.0900   40.5680 C   0  0  0  0  0  0  0  0  0  0  0  0
   37.1970   28.4610   40.7770 C   0  0  0  0  0  0  0  0  0  0  0  0
   38.2440   29.2600   41.1010 N   0  0  0  0  0  0  0  0  0  0  0  0
   38.0940   30.5960   41.2120 C   0  0  0  0  0  0  0  0  0  0  0  0
   36.9210   31.1970   41.0130 N   0  0  0  0  0  0  0  0  0  0  0  0
   34.8990   30.9620   40.5330 H   0  0  0  0  0  0  0  0  0  0  0  0
   35.1070   28.4860   40.3100 H   0  0  0  0  0  0  0  0  0  0  0  0
   36.6580   27.0460   43.2950 Cl  0  0  0  0  0  0  0  0  0  0  0  0
   37.1120   26.2540   41.7840 C   0  0  0  0  0  0  0  0  0  0  0  0
   37.3450   27.0150   40.6530 C   0  0  0  0  0  0  0  0  0  0  0  0
   37.6980   26.3470   39.4920 C   0  0  0  0  0  0  0  0  0  0  0  0
   37.8100   24.9620   39.4860 C   0  0  0  0  0  0  0  0  0  0  0  0
   37.5640   24.2550   40.6520 C   0  0  0  0  0  0  0  0  0  0  0  0
   37.7130   22.5130   40.6100 Cl  0  0  0  0  0  0  0  0  0  0  0  0
   37.2090   24.8780   41.8300 C   0  0  0  0  0  0  0  0  0  0  0  0
   37.8690   26.9710   38.6430 H   0  0  0  0  0  0  0  0  0  0  0  0
   38.0920   24.4980   38.5390 H   0  0  0  0  0  0  0  0  0  0  0  0
   37.0290   24.2890   42.7080 H   0  0  0  0  0  0  0  0  0  0  0  0
   39.3100   31.3940   41.5730 C   0  0  0  0  0  0  0  0  0  0  0  0
   40.4140   31.0110   40.8510 F   0  0  0  0  0  0  0  0  0  0  0  0
   39.0800   32.7490   41.4740 F   0  0  0  0  0  0  0  0  0  0  0  0
   39.6100   31.1050   42.9100 F   0  0  0  0  0  0  0  0  0  0  0  0
  1  6  1  0  0  0  0
  2  1  2  0  0  0  0
  2  3  1  0  0  0  0
  3  4  2  0  0  0  0
  4  5  1  0  0  0  0
  5 20  1  0  0  0  0
  6  5  2  0  0  0  0
  7  1  1  0  0  0  0
  8  2  1  0  0  0  0
 10 16  1  0  0  0  0
 10  9  1  0  0  0  0
 11  3  1  0  0  0  0
 11 10  2  0  0  0  0
 12 11  1  0  0  0  0
 13 12  2  0  0  0  0
 13 14  1  0  0  0  0
 14 16  2  0  0  0  0
 15 14  1  0  0  0  0
 16 19  1  0  0  0  0
 17 12  1  0  0  0  0
 18 13  1  0  0  0  0
 20 23  1  0  0  0  0
 21 20  1  0  0  0  0
 22 20  1  0  0  0  0
M  END
>  <minimizedAffinity>
-4.81416559

$$$$

 OpenBabel03242522243D

 23 24  0  0  0  0  0  0  0  0999 V2000
   39.3620   26.6450   43.5350 C   0  0  0  0  0  0  0  0  0  0  0  0
   39.0490   27.8890   42.9740 C   0  0  0  0  0  0  0  0  0  0  0  0
   38.2200   27.9790   41.8480 C   0  0  0  0  0  0  0  0  0  0  0  0
   37.7470   26.8140   41.3430 N   0  0  0  0  0  0  0  0  0  0  0  0
   38.0660   25.6290   41.9040 C   0  0  0  0  0  0  0  0  0  0  0  0
   38.8550   25.5400   42.9750 N   0  0  0  0  0  0  0  0  0  0  0  0
   39.9930   26.5730   44.3930 H   0  0  0  0  0  0  0  0  0  0  0  0
   39.4440   28.7970   43.4050 H   0  0  0  0  0  0  0  0  0  0  0  0
   40.2620   28.9210   39.9580 Cl  0  0  0  0  0  0  0  0  0  0  0  0
   38.7810   29.8010   40.3460 C   0  0  0  0  0  0  0  0  0  0  0  0
   37.8840   29.2670   41.2530 C   0  0  0  0  0  0  0  0  0  0  0  0
   36.7360   29.9950   41.5240 C   0  0  0  0  0  0  0  0  0  0  0  0
   36.5160   31.2160   40.8970 C   0  0  0  0  0  0  0  0  0  0  0  0
   37.4530   31.6970   39.9980 C   0  0  0  0  0  0  0  0  0  0  0  0
   37.1450   33.2360   39.2260 Cl  0  0  0  0  0  0  0  0  0  0  0  0
   38.6090   31.0060   39.6970 C   0  0  0  0  0  0  0  0  0  0  0  0
   36.0710   29.5480   42.2280 H   0  0  0  0  0  0  0  0  0  0  0  0
   35.5930   31.7380   41.1550 H   0  0  0  0  0  0  0  0  0  0  0  0
   39.3060   31.4200   38.9950 H   0  0  0  0  0  0  0  0  0  0  0  0
   37.4950   24.3960   41.2720 C   0  0  0  0  0  0  0  0  0  0  0  0
   38.3400   23.3180   41.3800 F   0  0  0  0  0  0  0  0  0  0  0  0
   36.2380   24.1090   41.7570 F   0  0  0  0  0  0  0  0  0  0  0  0
   37.3790   24.6530   39.9000 F   0  0  0  0  0  0  0  0  0  0  0  0
  1  7  1  0  0  0  0
  2  8  1  0  0  0  0
  2  1  2  0  0  0  0
  3  2  1  0  0  0  0
  4  3  2  0  0  0  0
  4  5  1  0  0  0  0
  5  6  2  0  0  0  0
  6  1  1  0  0  0  0
  9 10  1  0  0  0  0
 10 11  1  0  0  0  0
 11 12  2  0  0  0  0
 11  3  1  0  0  0  0
 12 17  1  0  0  0  0
 13 18  1  0  0  0  0
 13 12  1  0  0  0  0
 14 13  2  0  0  0  0
 15 14  1  0  0  0  0
 16 14  1  0  0  0  0
 16 10  2  0  0  0  0
 19 16  1  0  0  0  0
 20 21  1  0  0  0  0
 20 22  1  0  0  0  0
 20  5  1  0  0  0  0
 23 20  1  0  0  0  0
M  END
>  <minimizedAffinity>
-4.78676128

$$$$

 OpenBabel03242522243D

 23 24  0  0  0  0  0  0  0  0999 V2000
   39.8110   30.1350   42.5640 C   0  0  0  0  0  0  0  0  0  0  0  0
   39.6650   28.7630   42.3300 C   0  0  0  0  0  0  0  0  0  0  0  0
   38.6640   28.2840   41.4750 C   0  0  0  0  0  0  0  0  0  0  0  0
   37.8610   29.2100   40.8960 N   0  0  0  0  0  0  0  0  0  0  0  0
   38.0250   30.5270   41.1410 C   0  0  0  0  0  0  0  0  0  0  0  0
   38.9760   30.9850   41.9540 N   0  0  0  0  0  0  0  0  0  0  0  0
   40.5730   30.5030   43.2150 H   0  0  0  0  0  0  0  0  0  0  0  0
   40.3250   28.0540   42.8080 H   0  0  0  0  0  0  0  0  0  0  0  0
   36.5770   27.0690   43.1480 Cl  0  0  0  0  0  0  0  0  0  0  0  0
   37.5390   26.1890   41.9570 C   0  0  0  0  0  0  0  0  0  0  0  0
   38.4990   26.8570   41.2200 C   0  0  0  0  0  0  0  0  0  0  0  0
   39.2270   26.1230   40.2990 C   0  0  0  0  0  0  0  0  0  0  0  0
   38.9870   24.7630   40.1380 C   0  0  0  0  0  0  0  0  0  0  0  0
   38.0110   24.1500   40.9060 C   0  0  0  0  0  0  0  0  0  0  0  0
   37.7330   22.4390   40.6780 Cl  0  0  0  0  0  0  0  0  0  0  0  0
   37.2610   24.8430   41.8350 C   0  0  0  0  0  0  0  0  0  0  0  0
   39.9580   26.6770   39.7520 H   0  0  0  0  0  0  0  0  0  0  0  0
   39.5960   24.2440   39.3960 H   0  0  0  0  0  0  0  0  0  0  0  0
   36.5170   24.3240   42.4080 H   0  0  0  0  0  0  0  0  0  0  0  0
   37.0860   31.4720   40.4550 C   0  0  0  0  0  0  0  0  0  0  0  0
   37.4210   32.7860   40.6740 F   0  0  0  0  0  0  0  0  0  0  0  0
   36.9710   31.1930   39.1100 F   0  0  0  0  0  0  0  0  0  0  0  0
   35.8260   31.2980   41.0400 F   0  0  0  0  0  0  0  0  0  0  0  0
  1  7  1  0  0  0  0
  2  1  1  0  0  0  0
  2  8  1  0  0  0  0
  3  2  2  0  0  0  0
  4  5  2  0  0  0  0
  4  3  1  0  0  0  0
  5  6  1  0  0  0  0
  6  1  2  0  0  0  0
 10  9  1  0  0  0  0
 11  3  1  0  0  0  0
 11 10  2  0  0  0  0
 12 11  1  0  0  0  0
 13 12  2  0  0  0  0
 13 14  1  0  0  0  0
 14 16  2  0  0  0  0
 15 14  1  0  0  0  0
 16 10  1  0  0  0  0
 16 19  1  0  0  0  0
 17 12  1  0  0  0  0
 18 13  1  0  0  0  0
 20 21  1  0  0  0  0
 20 23  1  0  0  0  0
 20  5  1  0  0  0  0
 22 20  1  0  0  0  0
M  END
>  <minimizedAffinity>
-4.78192425

$$$$

 OpenBabel03242522243D

 23 24  0  0  0  0  0  0  0  0999 V2000
   37.1090   27.5720   43.6800 C   0  0  0  0  0  0  0  0  0  0  0  0
   37.6720   28.7760   43.2400 C   0  0  0  0  0  0  0  0  0  0  0  0
   38.0310   28.9520   41.8970 C   0  0  0  0  0  0  0  0  0  0  0  0
   37.8040   27.9070   41.0640 N   0  0  0  0  0  0  0  0  0  0  0  0
   37.2610   26.7580   41.5150 C   0  0  0  0  0  0  0  0  0  0  0  0
   36.9190   26.5890   42.7930 N   0  0  0  0  0  0  0  0  0  0  0  0
   36.8340   27.4360   44.7020 H   0  0  0  0  0  0  0  0  0  0  0  0
   37.8360   29.5870   43.9340 H   0  0  0  0  0  0  0  0  0  0  0  0
   36.0480   30.7470   40.6820 Cl  0  0  0  0  0  0  0  0  0  0  0  0
   37.7680   31.1170   40.8340 C   0  0  0  0  0  0  0  0  0  0  0  0
   38.6180   30.2000   41.4230 C   0  0  0  0  0  0  0  0  0  0  0  0
   39.9580   30.5360   41.5190 C   0  0  0  0  0  0  0  0  0  0  0  0
   40.4120   31.7570   41.0320 C   0  0  0  0  0  0  0  0  0  0  0  0
   39.5100   32.6340   40.4520 C   0  0  0  0  0  0  0  0  0  0  0  0
   40.1120   34.1610   39.8500 Cl  0  0  0  0  0  0  0  0  0  0  0  0
   38.1660   32.3410   40.3360 C   0  0  0  0  0  0  0  0  0  0  0  0
   40.5790   29.8010   41.9800 H   0  0  0  0  0  0  0  0  0  0  0  0
   41.4780   31.9600   41.1380 H   0  0  0  0  0  0  0  0  0  0  0  0
   37.5070   33.0510   39.8780 H   0  0  0  0  0  0  0  0  0  0  0  0
   37.0510   25.6600   40.5170 C   0  0  0  0  0  0  0  0  0  0  0  0
   36.2000   26.0360   39.5060 F   0  0  0  0  0  0  0  0  0  0  0  0
   38.2450   25.1800   40.0260 F   0  0  0  0  0  0  0  0  0  0  0  0
   36.4070   24.6120   41.1860 F   0  0  0  0  0  0  0  0  0  0  0  0
  1  7  1  0  0  0  0
  2  1  1  0  0  0  0
  2  8  1  0  0  0  0
  3  2  2  0  0  0  0
  4  5  2  0  0  0  0
  4  3  1  0  0  0  0
  5  6  1  0  0  0  0
  6  1  2  0  0  0  0
  9 10  1  0  0  0  0
 10 11  1  0  0  0  0
 11 12  2  0  0  0  0
 11  3  1  0  0  0  0
 12 17  1  0  0  0  0
 13 18  1  0  0  0  0
 13 12  1  0  0  0  0
 14 13  2  0  0  0  0
 15 14  1  0  0  0  0
 16 14  1  0  0  0  0
 16 10  2  0  0  0  0
 19 16  1  0  0  0  0
 20 23  1  0  0  0  0
 20  5  1  0  0  0  0
 21 20  1  0  0  0  0
 22 20  1  0  0  0  0
M  END
>  <minimizedAffinity>
-4.77061749

$$$$

 OpenBabel03242522243D

 23 24  0  0  0  0  0  0  0  0999 V2000
   37.3240   32.6650   40.1030 C   0  0  0  0  0  0  0  0  0  0  0  0
   37.0070   31.3580   40.4930 C   0  0  0  0  0  0  0  0  0  0  0  0
   38.0000   30.4910   40.9670 C   0  0  0  0  0  0  0  0  0  0  0  0
   39.2620   30.9820   41.0260 N   0  0  0  0  0  0  0  0  0  0  0  0
   39.5390   32.2460   40.6430 C   0  0  0  0  0  0  0  0  0  0  0  0
   38.5960   33.0730   40.1910 N   0  0  0  0  0  0  0  0  0  0  0  0
   36.5700   33.3280   39.7410 H   0  0  0  0  0  0  0  0  0  0  0  0
   35.9900   31.0020   40.4320 H   0  0  0  0  0  0  0  0  0  0  0  0
   38.2600   28.5580   38.7700 Cl  0  0  0  0  0  0  0  0  0  0  0  0
   37.7790   28.1380   40.4160 C   0  0  0  0  0  0  0  0  0  0  0  0
   37.6870   29.1270   41.3780 C   0  0  0  0  0  0  0  0  0  0  0  0
   37.3060   28.7470   42.6540 C   0  0  0  0  0  0  0  0  0  0  0  0
   37.0280   27.4140   42.9360 C   0  0  0  0  0  0  0  0  0  0  0  0
   37.1390   26.4700   41.9290 C   0  0  0  0  0  0  0  0  0  0  0  0
   36.7850   24.8020   42.3170 Cl  0  0  0  0  0  0  0  0  0  0  0  0
   37.5160   26.8030   40.6440 C   0  0  0  0  0  0  0  0  0  0  0  0
   37.2470   29.5410   43.3650 H   0  0  0  0  0  0  0  0  0  0  0  0
   36.7330   27.1830   43.9610 H   0  0  0  0  0  0  0  0  0  0  0  0
   37.5870   26.0360   39.8970 H   0  0  0  0  0  0  0  0  0  0  0  0
   40.9650   32.6960   40.7450 C   0  0  0  0  0  0  0  0  0  0  0  0
   41.7320   32.2260   39.7070 F   0  0  0  0  0  0  0  0  0  0  0  0
   41.0610   34.0640   40.8710 F   0  0  0  0  0  0  0  0  0  0  0  0
   41.4970   32.1180   41.9040 F   0  0  0  0  0  0  0  0  0  0  0  0
  1  6  2  0  0  0  0
  1  2  1  0  0  0  0
  2  3  2  0  0  0  0
  3  4  1  0  0  0  0
  3 11  1  0  0  0  0
  5 20  1  0  0  0  0
  5  4  2  0  0  0  0
  6  5  1  0  0  0  0
  7  1  1  0  0  0  0
  8  2  1  0  0  0  0
  9 10  1  0  0  0  0
 10 16  2  0  0  0  0
 10 11  1  0  0  0  0
 11 12  2  0  0  0  0
 12 13  1  0  0  0  0
 12 17  1  0  0  0  0
 13 18  1  0  0  0  0
 14 15  1  0  0  0  0
 14 13  2  0  0  0  0
 16 14  1  0  0  0  0
 19 16  1  0  0  0  0
 20 22  1  0  0  0  0
 20 23  1  0  0  0  0
 21 20  1  0  0  0  0
M  END
>  <minimizedAffinity>
-4.72282934

$$$$

 OpenBabel03242522243D

 23 24  0  0  0  0  0  0  0  0999 V2000
   39.0660   29.5620   42.8350 C   0  0  0  0  0  0  0  0  0  0  0  0
   38.9520   28.1870   42.5970 C   0  0  0  0  0  0  0  0  0  0  0  0
   38.1110   27.7020   41.5860 C   0  0  0  0  0  0  0  0  0  0  0  0
   37.4280   28.6250   40.8650 N   0  0  0  0  0  0  0  0  0  0  0  0
   37.5570   29.9440   41.1180 C   0  0  0  0  0  0  0  0  0  0  0  0
   38.3560   30.4080   42.0790 N   0  0  0  0  0  0  0  0  0  0  0  0
   39.7060   29.9350   43.6040 H   0  0  0  0  0  0  0  0  0  0  0  0
   39.5130   27.4820   43.1910 H   0  0  0  0  0  0  0  0  0  0  0  0
   40.0250   26.7400   39.5750 Cl  0  0  0  0  0  0  0  0  0  0  0  0
   38.8390   25.7190   40.3920 C   0  0  0  0  0  0  0  0  0  0  0  0
   37.9820   26.2730   41.3250 C   0  0  0  0  0  0  0  0  0  0  0  0
   37.0690   25.4310   41.9390 C   0  0  0  0  0  0  0  0  0  0  0  0
   37.0320   24.0800   41.6130 C   0  0  0  0  0  0  0  0  0  0  0  0
   37.9170   23.5840   40.6700 C   0  0  0  0  0  0  0  0  0  0  0  0
   37.8440   21.8810   40.2830 Cl  0  0  0  0  0  0  0  0  0  0  0  0
   38.8430   24.3860   40.0340 C   0  0  0  0  0  0  0  0  0  0  0  0
   36.4270   25.8990   42.6510 H   0  0  0  0  0  0  0  0  0  0  0  0
   36.2890   23.4720   42.1320 H   0  0  0  0  0  0  0  0  0  0  0  0
   39.5070   23.9570   39.3100 H   0  0  0  0  0  0  0  0  0  0  0  0
   36.7590   30.8850   40.2670 C   0  0  0  0  0  0  0  0  0  0  0  0
   36.8190   32.1780   40.7280 F   0  0  0  0  0  0  0  0  0  0  0  0
   37.1150   30.8000   38.9390 F   0  0  0  0  0  0  0  0  0  0  0  0
   35.4160   30.5030   40.3790 F   0  0  0  0  0  0  0  0  0  0  0  0
  1  7  1  0  0  0  0
  2  1  1  0  0  0  0
  2  8  1  0  0  0  0
  3  2  2  0  0  0  0
  4  5  2  0  0  0  0
  4  3  1  0  0  0  0
  5  6  1  0  0  0  0
  6  1  2  0  0  0  0
  9 10  1  0  0  0  0
 10 11  1  0  0  0  0
 11  3  1  0  0  0  0
 11 12  2  0  0  0  0
 12 17  1  0  0  0  0
 13 12  1  0  0  0  0
 13 18  1  0  0  0  0
 14 13  2  0  0  0  0
 15 14  1  0  0  0  0
 16 10  2  0  0  0  0
 16 14  1  0  0  0  0
 19 16  1  0  0  0  0
 20 23  1  0  0  0  0
 20 21  1  0  0  0  0
 20  5  1  0  0  0  0
 22 20  1  0  0  0  0
M  END
>  <minimizedAffinity>
-4.62474346

$$$$
