
 OpenBabel03252509183D

 36 38  0  0  1  0  0  0  0  0999 V2000
   46.7390   32.4300   43.4350 C   0  0  1  0  0  0  0  0  0  0  0  0
   46.3220   31.6810   44.6540 C   0  0  0  0  0  0  0  0  0  0  0  0
   46.8440   30.2810   44.7450 C   0  0  0  0  0  0  0  0  0  0  0  0
   48.2980   30.1730   44.3470 C   0  0  0  0  0  0  0  0  0  0  0  0
   48.6140   30.9330   43.0870 C   0  0  0  0  0  0  0  0  0  0  0  0
   47.3120   31.4130   42.4260 C   0  0  2  0  0  0  0  0  0  0  0  0
   47.6080   33.0660   43.6880 H   0  0  0  0  0  0  0  0  0  0  0  0
   45.1950   31.6050   44.6190 H   0  0  0  0  0  0  0  0  0  0  0  0
   46.5180   32.2670   45.5860 H   0  0  0  0  0  0  0  0  0  0  0  0
   46.2280   29.5650   44.1680 H   0  0  0  0  0  0  0  0  0  0  0  0
   46.7970   29.9670   45.8170 H   0  0  0  0  0  0  0  0  0  0  0  0
   48.9500   30.5730   45.1660 H   0  0  0  0  0  0  0  0  0  0  0  0
   48.5370   29.0950   44.2710 H   0  0  0  0  0  0  0  0  0  0  0  0
   49.1440   30.2540   42.3830 H   0  0  0  0  0  0  0  0  0  0  0  0
   49.2350   31.8120   43.2710 H   0  0  0  0  0  0  0  0  0  0  0  0
   46.6280   30.5880   42.2280 H   0  0  0  0  0  0  0  0  0  0  0  0
   43.3910   34.0740   41.7450 C   0  0  0  0  0  0  0  0  0  0  0  0
   44.3170   35.0510   42.1480 C   0  0  0  0  0  0  0  0  0  0  0  0
   45.4700   34.6280   42.7150 C   0  0  0  0  0  0  0  0  0  0  0  0
   45.7090   33.2510   42.8860 C   0  0  0  0  0  0  0  0  0  0  0  0
   44.2010   32.5020   42.1950 S   0  0  0  0  0  0  0  0  0  0  0  0
   44.1390   36.1080   42.0210 H   0  0  0  0  0  0  0  0  0  0  0  0
   46.2970   35.2140   43.0850 H   0  0  0  0  0  0  0  0  0  0  0  0
   39.8060   34.2400   40.7650 C   0  0  0  0  0  0  0  0  0  0  0  0
   39.8910   35.1770   39.7040 C   0  0  0  0  0  0  0  0  0  0  0  0
   41.1640   35.7080   39.3740 C   0  0  0  0  0  0  0  0  0  0  0  0
   42.2230   35.2660   40.1140 N   0  0  0  0  0  0  0  0  0  0  0  0
   42.1010   34.3750   41.1150 C   0  0  0  0  0  0  0  0  0  0  0  0
   40.8940   33.8720   41.4280 N   0  0  0  0  0  0  0  0  0  0  0  0
   38.8470   33.8170   41.0420 H   0  0  0  0  0  0  0  0  0  0  0  0
   39.0210   35.4840   39.1610 H   0  0  0  0  0  0  0  0  0  0  0  0
   41.2850   36.4260   38.5730 H   0  0  0  0  0  0  0  0  0  0  0  0
   47.7370   32.1350   41.1580 C   0  0  0  0  0  0  0  0  0  0  0  0
   48.7920   31.4880   40.5440 F   0  0  0  0  0  0  0  0  0  0  0  0
   46.6560   32.2500   40.3130 F   0  0  0  0  0  0  0  0  0  0  0  0
   48.1450   33.3910   41.5190 F   0  0  0  0  0  0  0  0  0  0  0  0
  1  7  1  1  0  0  0
  1  2  1  0  0  0  0
  2  3  1  0  0  0  0
  2  9  1  0  0  0  0
  3 11  1  0  0  0  0
  4  3  1  0  0  0  0
  4 12  1  0  0  0  0
  5 15  1  0  0  0  0
  5  4  1  0  0  0  0
  6 16  1  6  0  0  0
  6  5  1  0  0  0  0
  6  1  1  0  0  0  0
  8  2  1  0  0  0  0
 10  3  1  0  0  0  0
 13  4  1  0  0  0  0
 14  5  1  0  0  0  0
 17 18  2  0  0  0  0
 17 21  1  0  0  0  0
 18 19  1  0  0  0  0
 19 20  2  0  0  0  0
 19 23  1  0  0  0  0
 20  1  1  0  0  0  0
 21 20  1  0  0  0  0
 22 18  1  0  0  0  0
 24 30  1  0  0  0  0
 24 29  1  0  0  0  0
 25 24  2  0  0  0  0
 26 25  1  0  0  0  0
 26 27  2  0  0  0  0
 27 28  1  0  0  0  0
 28 29  2  0  0  0  0
 28 17  1  0  0  0  0
 31 25  1  0  0  0  0
 32 26  1  0  0  0  0
 33 36  1  0  0  0  0
 33  6  1  0  0  0  0
 34 33  1  0  0  0  0
 35 33  1  0  0  0  0
M  END
>  <minimizedAffinity>
-4.19826889

>  <minimizedRMSD>
6.69792891

$$$$
