
 OpenBabel03252501393D

 30 31  0  0  0  0  0  0  0  0999 V2000
   39.6060   32.2260   40.5100 C   0  0  0  0  0  0  0  0  0  0  0  0
   39.9380   33.4480   40.5910 O   0  0  0  0  0  0  0  0  0  0  0  0
   40.4100   31.4900   39.5770 N   0  0  0  0  0  0  0  0  0  0  0  0
   40.2650   30.4900   39.4200 H   0  0  0  0  0  0  0  0  0  0  0  0
   41.3700   32.4090   38.9790 C   0  0  0  0  0  0  0  0  0  0  0  0
   41.2710   32.9140   37.7010 C   0  0  0  0  0  0  0  0  0  0  0  0
   42.2890   33.7760   37.3120 C   0  0  0  0  0  0  0  0  0  0  0  0
   43.2700   34.0410   38.2000 N   0  0  0  0  0  0  0  0  0  0  0  0
   43.3270   33.5260   39.4360 C   0  0  0  0  0  0  0  0  0  0  0  0
   42.3550   32.6840   39.8510 N   0  0  0  0  0  0  0  0  0  0  0  0
   42.2280   34.1790   36.3190 H   0  0  0  0  0  0  0  0  0  0  0  0
   44.1560   33.8000   40.0760 H   0  0  0  0  0  0  0  0  0  0  0  0
   40.1750   32.5200   36.9250 N   0  0  0  0  0  0  0  0  0  0  0  0
   40.5800   31.9360   36.1470 H   0  0  0  0  0  0  0  0  0  0  0  0
   39.2410   32.8820   37.2800 H   0  0  0  0  0  0  0  0  0  0  0  0
   38.5740   31.5910   41.2250 O   0  0  0  0  0  0  0  0  0  0  0  0
   36.2390   29.7730   41.1560 Cl  0  0  0  0  0  0  0  0  0  0  0  0
   37.8130   29.4380   41.8270 C   0  0  0  0  0  0  0  0  0  0  0  0
   38.8510   30.3520   41.8150 C   0  0  0  0  0  0  0  0  0  0  0  0
   40.0660   30.0290   42.3590 C   0  0  0  0  0  0  0  0  0  0  0  0
   40.3290   28.7980   42.9420 C   0  0  0  0  0  0  0  0  0  0  0  0
   39.3060   27.8610   42.9670 C   0  0  0  0  0  0  0  0  0  0  0  0
   39.5250   26.2690   43.6800 Cl  0  0  0  0  0  0  0  0  0  0  0  0
   38.0960   28.2280   42.4090 C   0  0  0  0  0  0  0  0  0  0  0  0
   40.8590   30.7760   42.3300 H   0  0  0  0  0  0  0  0  0  0  0  0
   41.3030   28.5580   43.3700 H   0  0  0  0  0  0  0  0  0  0  0  0
   36.9770   27.2210   42.4300 C   0  0  0  0  0  0  0  0  0  0  0  0
   36.3340   27.1630   41.1880 F   0  0  0  0  0  0  0  0  0  0  0  0
   37.4920   25.9320   42.6000 F   0  0  0  0  0  0  0  0  0  0  0  0
   36.0950   27.4450   43.4500 F   0  0  0  0  0  0  0  0  0  0  0  0
  1  2  2  0  0  0  0
  1 16  1  0  0  0  0
  3  1  1  0  0  0  0
  4  3  1  0  0  0  0
  5  3  1  0  0  0  0
  5 10  1  0  0  0  0
  6  5  2  0  0  0  0
  7  6  1  0  0  0  0
  7  8  2  0  0  0  0
  8  9  1  0  0  0  0
  9 10  2  0  0  0  0
  9 12  1  0  0  0  0
 11  7  1  0  0  0  0
 13 15  1  0  0  0  0
 13  6  1  0  0  0  0
 14 13  1  0  0  0  0
 16 19  1  0  0  0  0
 17 18  1  0  0  0  0
 18 24  1  0  0  0  0
 19 18  2  0  0  0  0
 19 20  1  0  0  0  0
 20 21  2  0  0  0  0
 21 22  1  0  0  0  0
 21 26  1  0  0  0  0
 22 23  1  0  0  0  0
 24 27  1  0  0  0  0
 24 22  2  0  0  0  0
 25 20  1  0  0  0  0
 27 29  1  0  0  0  0
 27 30  1  0  0  0  0
 28 27  1  0  0  0  0
M  END
>  <minimizedAffinity>
-6.13950205

$$$$

 OpenBabel03252501393D

 30 31  0  0  0  0  0  0  0  0999 V2000
   39.0610   30.6820   41.8950 C   0  0  0  0  0  0  0  0  0  0  0  0
   38.7670   30.7130   40.6600 O   0  0  0  0  0  0  0  0  0  0  0  0
   40.0970   31.6110   42.2450 N   0  0  0  0  0  0  0  0  0  0  0  0
   40.4250   31.7060   43.2090 H   0  0  0  0  0  0  0  0  0  0  0  0
   40.5160   32.3050   41.0340 C   0  0  0  0  0  0  0  0  0  0  0  0
   39.9290   33.4560   40.5540 C   0  0  0  0  0  0  0  0  0  0  0  0
   40.4710   33.9660   39.3810 C   0  0  0  0  0  0  0  0  0  0  0  0
   41.5050   33.3060   38.8200 N   0  0  0  0  0  0  0  0  0  0  0  0
   42.0460   32.1860   39.3220 C   0  0  0  0  0  0  0  0  0  0  0  0
   41.5460   31.6600   40.4620 N   0  0  0  0  0  0  0  0  0  0  0  0
   40.0260   34.8630   38.9930 H   0  0  0  0  0  0  0  0  0  0  0  0
   42.8750   31.7290   38.7980 H   0  0  0  0  0  0  0  0  0  0  0  0
   38.8610   33.9960   41.2780 N   0  0  0  0  0  0  0  0  0  0  0  0
   38.0170   33.8810   40.6580 H   0  0  0  0  0  0  0  0  0  0  0  0
   39.1330   34.3770   42.2330 H   0  0  0  0  0  0  0  0  0  0  0  0
   38.4790   29.8540   42.8720 O   0  0  0  0  0  0  0  0  0  0  0  0
   36.3070   28.0520   41.9830 Cl  0  0  0  0  0  0  0  0  0  0  0  0
   37.9060   27.5930   42.5030 C   0  0  0  0  0  0  0  0  0  0  0  0
   38.8630   28.5080   42.9030 C   0  0  0  0  0  0  0  0  0  0  0  0
   40.1040   28.0850   43.3020 C   0  0  0  0  0  0  0  0  0  0  0  0
   40.4740   26.7480   43.3290 C   0  0  0  0  0  0  0  0  0  0  0  0
   39.5330   25.8080   42.9320 C   0  0  0  0  0  0  0  0  0  0  0  0
   39.8890   24.0870   42.9260 Cl  0  0  0  0  0  0  0  0  0  0  0  0
   38.2940   26.2770   42.5390 C   0  0  0  0  0  0  0  0  0  0  0  0
   40.8310   28.8360   43.6100 H   0  0  0  0  0  0  0  0  0  0  0  0
   41.4660   26.4300   43.6490 H   0  0  0  0  0  0  0  0  0  0  0  0
   37.2640   25.2670   42.1050 C   0  0  0  0  0  0  0  0  0  0  0  0
   36.8910   25.4750   40.7730 F   0  0  0  0  0  0  0  0  0  0  0  0
   37.8190   23.9840   42.1010 F   0  0  0  0  0  0  0  0  0  0  0  0
   36.1820   25.2400   42.9390 F   0  0  0  0  0  0  0  0  0  0  0  0
  1  3  1  0  0  0  0
  1 16  1  0  0  0  0
  2  1  2  0  0  0  0
  3  4  1  0  0  0  0
  5  3  1  0  0  0  0
  6  5  1  0  0  0  0
  6 13  1  0  0  0  0
  7  6  2  0  0  0  0
  8  9  2  0  0  0  0
  8  7  1  0  0  0  0
  9 10  1  0  0  0  0
 10  5  2  0  0  0  0
 11  7  1  0  0  0  0
 12  9  1  0  0  0  0
 13 15  1  0  0  0  0
 14 13  1  0  0  0  0
 16 19  1  0  0  0  0
 17 18  1  0  0  0  0
 18 24  2  0  0  0  0
 18 19  1  0  0  0  0
 19 20  2  0  0  0  0
 20 21  1  0  0  0  0
 20 25  1  0  0  0  0
 21 26  1  0  0  0  0
 22 21  2  0  0  0  0
 23 22  1  0  0  0  0
 24 22  1  0  0  0  0
 27 24  1  0  0  0  0
 27 30  1  0  0  0  0
 28 27  1  0  0  0  0
 29 27  1  0  0  0  0
M  END
>  <minimizedAffinity>
-6.05272532

$$$$

 OpenBabel03252501393D

 30 31  0  0  0  0  0  0  0  0999 V2000
   38.3340   30.7680   41.3360 C   0  0  0  0  0  0  0  0  0  0  0  0
   39.6000   30.8170   41.4260 O   0  0  0  0  0  0  0  0  0  0  0  0
   37.8080   31.6780   40.3610 N   0  0  0  0  0  0  0  0  0  0  0  0
   36.8050   31.7360   40.1700 H   0  0  0  0  0  0  0  0  0  0  0  0
   38.9220   32.4140   39.7770 C   0  0  0  0  0  0  0  0  0  0  0  0
   39.4240   33.5950   40.2800 C   0  0  0  0  0  0  0  0  0  0  0  0
   40.4900   34.1460   39.5800 C   0  0  0  0  0  0  0  0  0  0  0  0
   40.9360   33.4920   38.4870 N   0  0  0  0  0  0  0  0  0  0  0  0
   40.4170   32.3440   38.0310 C   0  0  0  0  0  0  0  0  0  0  0  0
   39.3790   31.7770   38.6860 N   0  0  0  0  0  0  0  0  0  0  0  0
   40.8930   35.0660   39.9580 H   0  0  0  0  0  0  0  0  0  0  0  0
   40.8450   31.8950   37.1440 H   0  0  0  0  0  0  0  0  0  0  0  0
   38.8250   34.1220   41.4290 N   0  0  0  0  0  0  0  0  0  0  0  0
   38.3580   35.0140   41.1170 H   0  0  0  0  0  0  0  0  0  0  0  0
   38.9740   33.5350   42.3030 H   0  0  0  0  0  0  0  0  0  0  0  0
   37.4760   29.9360   42.0790 O   0  0  0  0  0  0  0  0  0  0  0  0
   36.1990   28.0110   40.2290 Cl  0  0  0  0  0  0  0  0  0  0  0  0
   37.3370   27.6510   41.5010 C   0  0  0  0  0  0  0  0  0  0  0  0
   37.8860   28.6200   42.3210 C   0  0  0  0  0  0  0  0  0  0  0  0
   38.7750   28.2740   43.3040 C   0  0  0  0  0  0  0  0  0  0  0  0
   39.1740   26.9660   43.5350 C   0  0  0  0  0  0  0  0  0  0  0  0
   38.6400   25.9730   42.7260 C   0  0  0  0  0  0  0  0  0  0  0  0
   39.0720   24.2810   42.9280 Cl  0  0  0  0  0  0  0  0  0  0  0  0
   37.7460   26.3650   41.7480 C   0  0  0  0  0  0  0  0  0  0  0  0
   39.1870   29.0660   43.9300 H   0  0  0  0  0  0  0  0  0  0  0  0
   39.8840   26.7090   44.3220 H   0  0  0  0  0  0  0  0  0  0  0  0
   37.1580   25.2970   40.8630 C   0  0  0  0  0  0  0  0  0  0  0  0
   36.4360   24.3660   41.6180 F   0  0  0  0  0  0  0  0  0  0  0  0
   36.1990   25.8520   40.0100 F   0  0  0  0  0  0  0  0  0  0  0  0
   38.1020   24.6950   40.0790 F   0  0  0  0  0  0  0  0  0  0  0  0
  1  2  2  0  0  0  0
  1 16  1  0  0  0  0
  3  1  1  0  0  0  0
  4  3  1  0  0  0  0
  5  6  1  0  0  0  0
  5  3  1  0  0  0  0
  6 13  1  0  0  0  0
  7 11  1  0  0  0  0
  7  6  2  0  0  0  0
  8  7  1  0  0  0  0
  9  8  2  0  0  0  0
  9 10  1  0  0  0  0
 10  5  2  0  0  0  0
 12  9  1  0  0  0  0
 13 15  1  0  0  0  0
 14 13  1  0  0  0  0
 16 19  1  0  0  0  0
 17 18  1  0  0  0  0
 18 24  2  0  0  0  0
 18 19  1  0  0  0  0
 19 20  2  0  0  0  0
 20 21  1  0  0  0  0
 20 25  1  0  0  0  0
 21 26  1  0  0  0  0
 22 23  1  0  0  0  0
 22 21  2  0  0  0  0
 24 22  1  0  0  0  0
 27 28  1  0  0  0  0
 27 24  1  0  0  0  0
 29 27  1  0  0  0  0
 30 27  1  0  0  0  0
M  END
>  <minimizedAffinity>
-5.92677259

$$$$

 OpenBabel03252501393D

 30 31  0  0  0  0  0  0  0  0999 V2000
   39.3740   31.4740   40.1630 C   0  0  0  0  0  0  0  0  0  0  0  0
   40.4380   30.8290   39.9110 O   0  0  0  0  0  0  0  0  0  0  0  0
   39.4040   32.8180   39.6620 N   0  0  0  0  0  0  0  0  0  0  0  0
   38.6080   33.4500   39.7790 H   0  0  0  0  0  0  0  0  0  0  0  0
   40.6940   33.0370   39.0200 C   0  0  0  0  0  0  0  0  0  0  0  0
   40.9580   32.7710   37.6940 C   0  0  0  0  0  0  0  0  0  0  0  0
   42.2520   33.0460   37.2690 C   0  0  0  0  0  0  0  0  0  0  0  0
   43.1250   33.5380   38.1720 N   0  0  0  0  0  0  0  0  0  0  0  0
   42.8250   33.7810   39.4560 C   0  0  0  0  0  0  0  0  0  0  0  0
   41.5770   33.5270   39.9060 N   0  0  0  0  0  0  0  0  0  0  0  0
   42.4750   32.8460   36.2380 H   0  0  0  0  0  0  0  0  0  0  0  0
   43.5960   34.1770   40.1050 H   0  0  0  0  0  0  0  0  0  0  0  0
   39.9180   32.2610   36.9100 N   0  0  0  0  0  0  0  0  0  0  0  0
   40.2100   31.2780   36.6660 H   0  0  0  0  0  0  0  0  0  0  0  0
   39.1200   32.9440   36.7490 H   0  0  0  0  0  0  0  0  0  0  0  0
   38.2480   30.9910   40.8550 O   0  0  0  0  0  0  0  0  0  0  0  0
   38.1370   29.3150   43.2910 Cl  0  0  0  0  0  0  0  0  0  0  0  0
   37.7390   28.8320   41.6640 C   0  0  0  0  0  0  0  0  0  0  0  0
   37.8200   29.6870   40.5790 C   0  0  0  0  0  0  0  0  0  0  0  0
   37.4930   29.2480   39.3240 C   0  0  0  0  0  0  0  0  0  0  0  0
   37.0700   27.9530   39.0630 C   0  0  0  0  0  0  0  0  0  0  0  0
   36.9780   27.0740   40.1320 C   0  0  0  0  0  0  0  0  0  0  0  0
   36.4540   25.4090   39.9210 Cl  0  0  0  0  0  0  0  0  0  0  0  0
   37.3180   27.5570   41.3820 C   0  0  0  0  0  0  0  0  0  0  0  0
   37.5690   29.9510   38.4950 H   0  0  0  0  0  0  0  0  0  0  0  0
   36.8130   27.6210   38.0570 H   0  0  0  0  0  0  0  0  0  0  0  0
   37.2230   26.6130   42.5510 C   0  0  0  0  0  0  0  0  0  0  0  0
   36.2460   27.0380   43.4580 F   0  0  0  0  0  0  0  0  0  0  0  0
   36.7640   25.3630   42.1260 F   0  0  0  0  0  0  0  0  0  0  0  0
   38.4320   26.4170   43.1600 F   0  0  0  0  0  0  0  0  0  0  0  0
  1 16  1  0  0  0  0
  2  1  2  0  0  0  0
  3  4  1  0  0  0  0
  3  1  1  0  0  0  0
  5  3  1  0  0  0  0
  5 10  1  0  0  0  0
  6  5  2  0  0  0  0
  7  6  1  0  0  0  0
  7  8  2  0  0  0  0
  8  9  1  0  0  0  0
  9 10  2  0  0  0  0
  9 12  1  0  0  0  0
 11  7  1  0  0  0  0
 13  6  1  0  0  0  0
 14 13  1  0  0  0  0
 15 13  1  0  0  0  0
 18 17  1  0  0  0  0
 19 16  1  0  0  0  0
 19 18  2  0  0  0  0
 20 19  1  0  0  0  0
 21 20  2  0  0  0  0
 21 22  1  0  0  0  0
 22 24  2  0  0  0  0
 23 22  1  0  0  0  0
 24 18  1  0  0  0  0
 24 27  1  0  0  0  0
 25 20  1  0  0  0  0
 26 21  1  0  0  0  0
 27 30  1  0  0  0  0
 27 28  1  0  0  0  0
 29 27  1  0  0  0  0
M  END
>  <minimizedAffinity>
-5.8371253

$$$$

 OpenBabel03252501393D

 30 31  0  0  0  0  0  0  0  0999 V2000
   37.9720   31.0040   40.8660 C   0  0  0  0  0  0  0  0  0  0  0  0
   39.1830   30.9270   41.2380 O   0  0  0  0  0  0  0  0  0  0  0  0
   37.7630   31.9940   39.8490 N   0  0  0  0  0  0  0  0  0  0  0  0
   36.8380   32.1560   39.4440 H   0  0  0  0  0  0  0  0  0  0  0  0
   39.0400   32.6360   39.5680 C   0  0  0  0  0  0  0  0  0  0  0  0
   39.5670   33.6760   40.3030 C   0  0  0  0  0  0  0  0  0  0  0  0
   40.7990   34.1550   39.8750 C   0  0  0  0  0  0  0  0  0  0  0  0
   41.3660   33.5730   38.7980 N   0  0  0  0  0  0  0  0  0  0  0  0
   40.8170   32.5620   38.1100 C   0  0  0  0  0  0  0  0  0  0  0  0
   39.6190   32.0690   38.4960 N   0  0  0  0  0  0  0  0  0  0  0  0
   41.2240   34.9650   40.4370 H   0  0  0  0  0  0  0  0  0  0  0  0
   41.3500   32.1620   37.2580 H   0  0  0  0  0  0  0  0  0  0  0  0
   38.8270   34.1460   41.3930 N   0  0  0  0  0  0  0  0  0  0  0  0
   38.5270   35.1210   41.1270 H   0  0  0  0  0  0  0  0  0  0  0  0
   38.7440   33.4510   42.1930 H   0  0  0  0  0  0  0  0  0  0  0  0
   36.8970   30.2380   41.3530 O   0  0  0  0  0  0  0  0  0  0  0  0
   37.9420   28.2740   43.3060 Cl  0  0  0  0  0  0  0  0  0  0  0  0
   37.2360   27.9340   41.7480 C   0  0  0  0  0  0  0  0  0  0  0  0
   36.7720   28.9210   40.8960 C   0  0  0  0  0  0  0  0  0  0  0  0
   36.2270   28.5900   39.6840 C   0  0  0  0  0  0  0  0  0  0  0  0
   36.1070   27.2810   39.2410 C   0  0  0  0  0  0  0  0  0  0  0  0
   36.5640   26.2710   40.0750 C   0  0  0  0  0  0  0  0  0  0  0  0
   36.4650   24.5760   39.6190 Cl  0  0  0  0  0  0  0  0  0  0  0  0
   37.1080   26.6480   41.2890 C   0  0  0  0  0  0  0  0  0  0  0  0
   35.8710   29.3950   39.0410 H   0  0  0  0  0  0  0  0  0  0  0  0
   35.6700   27.0370   38.2730 H   0  0  0  0  0  0  0  0  0  0  0  0
   37.6080   25.5610   42.2040 C   0  0  0  0  0  0  0  0  0  0  0  0
   36.5590   24.7300   42.6120 F   0  0  0  0  0  0  0  0  0  0  0  0
   38.4650   24.7020   41.5090 F   0  0  0  0  0  0  0  0  0  0  0  0
   38.3070   26.0590   43.2680 F   0  0  0  0  0  0  0  0  0  0  0  0
  1  2  2  0  0  0  0
  1 16  1  0  0  0  0
  3  1  1  0  0  0  0
  4  3  1  0  0  0  0
  5  3  1  0  0  0  0
  5  6  1  0  0  0  0
  6 13  1  0  0  0  0
  7  6  2  0  0  0  0
  7 11  1  0  0  0  0
  8  7  1  0  0  0  0
  9 10  1  0  0  0  0
  9  8  2  0  0  0  0
 10  5  2  0  0  0  0
 12  9  1  0  0  0  0
 13 15  1  0  0  0  0
 14 13  1  0  0  0  0
 18 17  1  0  0  0  0
 19 16  1  0  0  0  0
 19 18  2  0  0  0  0
 20 19  1  0  0  0  0
 21 20  2  0  0  0  0
 21 22  1  0  0  0  0
 22 24  2  0  0  0  0
 23 22  1  0  0  0  0
 24 18  1  0  0  0  0
 24 27  1  0  0  0  0
 25 20  1  0  0  0  0
 26 21  1  0  0  0  0
 27 28  1  0  0  0  0
 27 30  1  0  0  0  0
 29 27  1  0  0  0  0
M  END
>  <minimizedAffinity>
-5.80278587

$$$$

 OpenBabel03252501393D

 30 31  0  0  0  0  0  0  0  0999 V2000
   39.3900   30.7700   42.2560 C   0  0  0  0  0  0  0  0  0  0  0  0
   40.5790   31.2080   42.1750 O   0  0  0  0  0  0  0  0  0  0  0  0
   38.5770   31.1530   41.1380 N   0  0  0  0  0  0  0  0  0  0  0  0
   37.6010   30.8580   41.0620 H   0  0  0  0  0  0  0  0  0  0  0  0
   39.3880   31.9690   40.2440 C   0  0  0  0  0  0  0  0  0  0  0  0
   39.5450   33.3330   40.3630 C   0  0  0  0  0  0  0  0  0  0  0  0
   40.3590   33.9330   39.4100 C   0  0  0  0  0  0  0  0  0  0  0  0
   40.9150   33.1460   38.4650 N   0  0  0  0  0  0  0  0  0  0  0  0
   40.7330   31.8210   38.3850 C   0  0  0  0  0  0  0  0  0  0  0  0
   39.9490   31.2010   39.2940 N   0  0  0  0  0  0  0  0  0  0  0  0
   40.4930   34.9950   39.4880 H   0  0  0  0  0  0  0  0  0  0  0  0
   41.2230   31.2750   37.5880 H   0  0  0  0  0  0  0  0  0  0  0  0
   38.8850   33.9770   41.4150 N   0  0  0  0  0  0  0  0  0  0  0  0
   38.1580   34.5870   40.9560 H   0  0  0  0  0  0  0  0  0  0  0  0
   39.2510   33.7190   42.3790 H   0  0  0  0  0  0  0  0  0  0  0  0
   38.8560   29.9890   43.2970 O   0  0  0  0  0  0  0  0  0  0  0  0
   40.9470   27.8960   43.2000 Cl  0  0  0  0  0  0  0  0  0  0  0  0
   39.2410   27.6920   42.9030 C   0  0  0  0  0  0  0  0  0  0  0  0
   38.3320   28.7320   42.9710 C   0  0  0  0  0  0  0  0  0  0  0  0
   37.0020   28.5090   42.7280 C   0  0  0  0  0  0  0  0  0  0  0  0
   36.4940   27.2590   42.4050 C   0  0  0  0  0  0  0  0  0  0  0  0
   37.3840   26.1970   42.3310 C   0  0  0  0  0  0  0  0  0  0  0  0
   36.8530   24.5690   41.9310 Cl  0  0  0  0  0  0  0  0  0  0  0  0
   38.7160   26.4660   42.5830 C   0  0  0  0  0  0  0  0  0  0  0  0
   36.3170   29.3530   42.7910 H   0  0  0  0  0  0  0  0  0  0  0  0
   35.4320   27.0990   42.2150 H   0  0  0  0  0  0  0  0  0  0  0  0
   39.6920   25.3220   42.5060 C   0  0  0  0  0  0  0  0  0  0  0  0
   40.4480   25.2310   43.6800 F   0  0  0  0  0  0  0  0  0  0  0  0
   39.0060   24.1050   42.4540 F   0  0  0  0  0  0  0  0  0  0  0  0
   40.4840   25.3910   41.3940 F   0  0  0  0  0  0  0  0  0  0  0  0
  1 16  1  0  0  0  0
  2  1  2  0  0  0  0
  3  1  1  0  0  0  0
  4  3  1  0  0  0  0
  5  6  1  0  0  0  0
  5  3  1  0  0  0  0
  6 13  1  0  0  0  0
  7 11  1  0  0  0  0
  7  6  2  0  0  0  0
  8  7  1  0  0  0  0
  9  8  2  0  0  0  0
  9 10  1  0  0  0  0
 10  5  2  0  0  0  0
 12  9  1  0  0  0  0
 13 15  1  0  0  0  0
 14 13  1  0  0  0  0
 18 19  1  0  0  0  0
 18 17  1  0  0  0  0
 19 16  1  0  0  0  0
 20 25  1  0  0  0  0
 20 19  2  0  0  0  0
 21 20  1  0  0  0  0
 22 21  2  0  0  0  0
 22 24  1  0  0  0  0
 23 22  1  0  0  0  0
 24 18  2  0  0  0  0
 26 21  1  0  0  0  0
 27 24  1  0  0  0  0
 27 28  1  0  0  0  0
 29 27  1  0  0  0  0
 30 27  1  0  0  0  0
M  END
>  <minimizedAffinity>
-5.74973106

$$$$

 OpenBabel03252501393D

 30 31  0  0  0  0  0  0  0  0999 V2000
   37.2370   30.1130   40.3650 C   0  0  0  0  0  0  0  0  0  0  0  0
   37.7140   30.5380   41.4620 O   0  0  0  0  0  0  0  0  0  0  0  0
   37.7580   30.8080   39.2230 N   0  0  0  0  0  0  0  0  0  0  0  0
   37.4740   30.5600   38.2720 H   0  0  0  0  0  0  0  0  0  0  0  0
   38.6810   31.8310   39.6950 C   0  0  0  0  0  0  0  0  0  0  0  0
   38.3070   33.1040   40.0700 C   0  0  0  0  0  0  0  0  0  0  0  0
   39.3370   33.9370   40.4900 C   0  0  0  0  0  0  0  0  0  0  0  0
   40.5920   33.4410   40.4960 N   0  0  0  0  0  0  0  0  0  0  0  0
   40.9120   32.1940   40.1220 C   0  0  0  0  0  0  0  0  0  0  0  0
   39.9380   31.3550   39.7070 N   0  0  0  0  0  0  0  0  0  0  0  0
   39.0630   34.9320   40.7860 H   0  0  0  0  0  0  0  0  0  0  0  0
   41.9490   31.8890   40.1620 H   0  0  0  0  0  0  0  0  0  0  0  0
   36.9500   33.4350   39.9940 N   0  0  0  0  0  0  0  0  0  0  0  0
   36.8820   34.1590   39.2310 H   0  0  0  0  0  0  0  0  0  0  0  0
   36.3370   32.9100   40.6860 H   0  0  0  0  0  0  0  0  0  0  0  0
   36.2980   29.0770   40.2080 O   0  0  0  0  0  0  0  0  0  0  0  0
   36.5440   27.5030   42.7020 Cl  0  0  0  0  0  0  0  0  0  0  0  0
   36.9280   26.9770   41.0850 C   0  0  0  0  0  0  0  0  0  0  0  0
   36.7810   27.7840   39.9720 C   0  0  0  0  0  0  0  0  0  0  0  0
   37.1000   27.3130   38.7250 C   0  0  0  0  0  0  0  0  0  0  0  0
   37.5780   26.0300   38.5030 C   0  0  0  0  0  0  0  0  0  0  0  0
   37.7340   25.1970   39.6020 C   0  0  0  0  0  0  0  0  0  0  0  0
   38.3320   23.5520   39.4410 Cl  0  0  0  0  0  0  0  0  0  0  0  0
   37.4020   25.7120   40.8410 C   0  0  0  0  0  0  0  0  0  0  0  0
   36.9710   27.9790   37.8730 H   0  0  0  0  0  0  0  0  0  0  0  0
   37.8260   25.6710   37.5040 H   0  0  0  0  0  0  0  0  0  0  0  0
   37.5670   24.8200   42.0420 C   0  0  0  0  0  0  0  0  0  0  0  0
   36.3620   24.6990   42.7440 F   0  0  0  0  0  0  0  0  0  0  0  0
   37.8500   23.5120   41.6360 F   0  0  0  0  0  0  0  0  0  0  0  0
   38.5900   25.2240   42.8530 F   0  0  0  0  0  0  0  0  0  0  0  0
  1  2  2  0  0  0  0
  3  5  1  0  0  0  0
  3  1  1  0  0  0  0
  4  3  1  0  0  0  0
  5 10  2  0  0  0  0
  5  6  1  0  0  0  0
  6  7  2  0  0  0  0
  7  8  1  0  0  0  0
  7 11  1  0  0  0  0
  9 12  1  0  0  0  0
  9  8  2  0  0  0  0
 10  9  1  0  0  0  0
 13  6  1  0  0  0  0
 13 15  1  0  0  0  0
 14 13  1  0  0  0  0
 16  1  1  0  0  0  0
 18 17  1  0  0  0  0
 19 16  1  0  0  0  0
 19 18  2  0  0  0  0
 20 19  1  0  0  0  0
 21 20  2  0  0  0  0
 21 22  1  0  0  0  0
 22 24  2  0  0  0  0
 23 22  1  0  0  0  0
 24 18  1  0  0  0  0
 24 27  1  0  0  0  0
 25 20  1  0  0  0  0
 26 21  1  0  0  0  0
 27 28  1  0  0  0  0
 27 30  1  0  0  0  0
 29 27  1  0  0  0  0
M  END
>  <minimizedAffinity>
-5.50310278

$$$$

 OpenBabel03252501393D

 30 31  0  0  0  0  0  0  0  0999 V2000
   38.5870   31.6180   39.7340 C   0  0  0  0  0  0  0  0  0  0  0  0
   39.6920   31.0050   39.8500 O   0  0  0  0  0  0  0  0  0  0  0  0
   38.7390   32.9510   39.2270 N   0  0  0  0  0  0  0  0  0  0  0  0
   37.9300   33.5570   39.0680 H   0  0  0  0  0  0  0  0  0  0  0  0
   40.1590   33.2010   39.0200 C   0  0  0  0  0  0  0  0  0  0  0  0
   40.8410   32.8990   37.8610 C   0  0  0  0  0  0  0  0  0  0  0  0
   42.1950   33.2130   37.8580 C   0  0  0  0  0  0  0  0  0  0  0  0
   42.7190   33.7750   38.9670 N   0  0  0  0  0  0  0  0  0  0  0  0
   42.0170   34.0500   40.0760 C   0  0  0  0  0  0  0  0  0  0  0  0
   40.6980   33.7600   40.1170 N   0  0  0  0  0  0  0  0  0  0  0  0
   42.7420   32.9850   36.9630 H   0  0  0  0  0  0  0  0  0  0  0  0
   42.5280   34.5030   40.9160 H   0  0  0  0  0  0  0  0  0  0  0  0
   40.1220   32.3170   36.8120 N   0  0  0  0  0  0  0  0  0  0  0  0
   40.5040   31.3390   36.7210 H   0  0  0  0  0  0  0  0  0  0  0  0
   39.3980   32.9590   36.3730 H   0  0  0  0  0  0  0  0  0  0  0  0
   37.3130   31.1100   40.0480 O   0  0  0  0  0  0  0  0  0  0  0  0
   36.8500   28.9360   38.0940 Cl  0  0  0  0  0  0  0  0  0  0  0  0
   37.0250   28.7770   39.8220 C   0  0  0  0  0  0  0  0  0  0  0  0
   37.2410   29.8550   40.6630 C   0  0  0  0  0  0  0  0  0  0  0  0
   37.3700   29.6660   42.0130 C   0  0  0  0  0  0  0  0  0  0  0  0
   37.2970   28.4160   42.6110 C   0  0  0  0  0  0  0  0  0  0  0  0
   37.0830   27.3170   41.7920 C   0  0  0  0  0  0  0  0  0  0  0  0
   36.9710   25.6860   42.4380 Cl  0  0  0  0  0  0  0  0  0  0  0  0
   36.9560   27.5520   40.4350 C   0  0  0  0  0  0  0  0  0  0  0  0
   37.5390   30.5390   42.6430 H   0  0  0  0  0  0  0  0  0  0  0  0
   37.4030   28.2840   43.6880 H   0  0  0  0  0  0  0  0  0  0  0  0
   36.7230   26.3680   39.5350 C   0  0  0  0  0  0  0  0  0  0  0  0
   36.3030   25.2550   40.2720 F   0  0  0  0  0  0  0  0  0  0  0  0
   35.6520   26.6220   38.6730 F   0  0  0  0  0  0  0  0  0  0  0  0
   37.8120   26.0830   38.7590 F   0  0  0  0  0  0  0  0  0  0  0  0
  1  2  2  0  0  0  0
  1 16  1  0  0  0  0
  3  1  1  0  0  0  0
  4  3  1  0  0  0  0
  5  3  1  0  0  0  0
  5 10  1  0  0  0  0
  6  5  2  0  0  0  0
  7  6  1  0  0  0  0
  7  8  2  0  0  0  0
  8  9  1  0  0  0  0
  9 10  2  0  0  0  0
  9 12  1  0  0  0  0
 11  7  1  0  0  0  0
 13  6  1  0  0  0  0
 14 13  1  0  0  0  0
 15 13  1  0  0  0  0
 16 19  1  0  0  0  0
 17 18  1  0  0  0  0
 18 24  2  0  0  0  0
 18 19  1  0  0  0  0
 19 20  2  0  0  0  0
 20 21  1  0  0  0  0
 20 25  1  0  0  0  0
 21 26  1  0  0  0  0
 22 23  1  0  0  0  0
 22 21  2  0  0  0  0
 24 22  1  0  0  0  0
 27 28  1  0  0  0  0
 27 24  1  0  0  0  0
 29 27  1  0  0  0  0
 30 27  1  0  0  0  0
M  END
>  <minimizedAffinity>
-5.41496468

$$$$

 OpenBabel03252501393D

 30 31  0  0  0  0  0  0  0  0999 V2000
   38.4140   30.7960   40.5430 C   0  0  0  0  0  0  0  0  0  0  0  0
   39.6720   30.6330   40.6050 O   0  0  0  0  0  0  0  0  0  0  0  0
   38.0320   31.8560   39.6560 N   0  0  0  0  0  0  0  0  0  0  0  0
   37.0490   32.0900   39.4960 H   0  0  0  0  0  0  0  0  0  0  0  0
   39.2440   32.4480   39.1040 C   0  0  0  0  0  0  0  0  0  0  0  0
   39.8990   31.9780   37.9860 C   0  0  0  0  0  0  0  0  0  0  0  0
   41.0410   32.6790   37.6170 C   0  0  0  0  0  0  0  0  0  0  0  0
   41.4060   33.7390   38.3690 N   0  0  0  0  0  0  0  0  0  0  0  0
   40.7370   34.1610   39.4510 C   0  0  0  0  0  0  0  0  0  0  0  0
   39.6220   33.5060   39.8410 N   0  0  0  0  0  0  0  0  0  0  0  0
   41.5640   32.3270   36.7490 H   0  0  0  0  0  0  0  0  0  0  0  0
   41.1090   35.0230   39.9890 H   0  0  0  0  0  0  0  0  0  0  0  0
   39.3660   30.8600   37.3370 N   0  0  0  0  0  0  0  0  0  0  0  0
   40.0700   30.0900   37.4830 H   0  0  0  0  0  0  0  0  0  0  0  0
   38.4260   31.0360   36.8720 H   0  0  0  0  0  0  0  0  0  0  0  0
   37.4410   30.0560   41.2390 O   0  0  0  0  0  0  0  0  0  0  0  0
   38.2690   27.9580   43.1560 Cl  0  0  0  0  0  0  0  0  0  0  0  0
   37.4930   27.7250   41.6110 C   0  0  0  0  0  0  0  0  0  0  0  0
   37.1390   28.7700   40.7770 C   0  0  0  0  0  0  0  0  0  0  0  0
   36.5310   28.5230   39.5740 C   0  0  0  0  0  0  0  0  0  0  0  0
   36.2380   27.2430   39.1260 C   0  0  0  0  0  0  0  0  0  0  0  0
   36.5800   26.1760   39.9440 C   0  0  0  0  0  0  0  0  0  0  0  0
   36.2580   24.5110   39.4790 Cl  0  0  0  0  0  0  0  0  0  0  0  0
   37.1930   26.4690   41.1470 C   0  0  0  0  0  0  0  0  0  0  0  0
   36.2680   29.3720   38.9450 H   0  0  0  0  0  0  0  0  0  0  0  0
   35.7530   27.0650   38.1660 H   0  0  0  0  0  0  0  0  0  0  0  0
   37.5710   25.3200   42.0440 C   0  0  0  0  0  0  0  0  0  0  0  0
   38.3650   24.3930   41.3590 F   0  0  0  0  0  0  0  0  0  0  0  0
   38.3960   25.7670   43.0800 F   0  0  0  0  0  0  0  0  0  0  0  0
   36.4800   24.7290   42.6180 F   0  0  0  0  0  0  0  0  0  0  0  0
  1  2  2  0  0  0  0
  1 16  1  0  0  0  0
  3  1  1  0  0  0  0
  4  3  1  0  0  0  0
  5  3  1  0  0  0  0
  5 10  1  0  0  0  0
  6  5  2  0  0  0  0
  7  6  1  0  0  0  0
  7  8  2  0  0  0  0
  8  9  1  0  0  0  0
  9 10  2  0  0  0  0
  9 12  1  0  0  0  0
 11  7  1  0  0  0  0
 13 14  1  0  0  0  0
 13  6  1  0  0  0  0
 15 13  1  0  0  0  0
 18 17  1  0  0  0  0
 19 16  1  0  0  0  0
 19 18  2  0  0  0  0
 20 19  1  0  0  0  0
 21 20  2  0  0  0  0
 21 22  1  0  0  0  0
 22 24  2  0  0  0  0
 23 22  1  0  0  0  0
 24 18  1  0  0  0  0
 24 27  1  0  0  0  0
 25 20  1  0  0  0  0
 26 21  1  0  0  0  0
 27 30  1  0  0  0  0
 27 29  1  0  0  0  0
 28 27  1  0  0  0  0
M  END
>  <minimizedAffinity>
-5.37613153

$$$$
