
 OpenBabel03252507523D

 26 27  0  0  1  0  0  0  0  0999 V2000
   46.9230   34.9560   42.1040 C   0  0  2  0  0  0  0  0  0  0  0  0
   46.2780   34.2300   40.9700 C   0  0  0  0  0  0  0  0  0  0  0  0
   47.4690   34.1100   40.0190 C   0  0  0  0  0  0  0  0  0  0  0  0
   48.6850   34.0060   40.9110 C   0  0  1  0  0  0  0  0  0  0  0  0
   48.1600   34.0820   42.3240 C   0  0  0  0  0  0  0  0  0  0  0  0
   47.2550   35.9570   41.8320 H   0  0  0  0  0  0  0  0  0  0  0  0
   45.5550   34.9230   40.5000 H   0  0  0  0  0  0  0  0  0  0  0  0
   45.8580   33.2720   41.2680 H   0  0  0  0  0  0  0  0  0  0  0  0
   47.2980   33.1620   39.4360 H   0  0  0  0  0  0  0  0  0  0  0  0
   47.5420   34.9380   39.3180 H   0  0  0  0  0  0  0  0  0  0  0  0
   49.3480   34.8460   40.6790 H   0  0  0  0  0  0  0  0  0  0  0  0
   47.8730   33.0910   42.7250 H   0  0  0  0  0  0  0  0  0  0  0  0
   48.9190   34.6150   42.9290 H   0  0  0  0  0  0  0  0  0  0  0  0
   44.4340   36.0360   44.7350 C   0  0  0  0  0  0  0  0  0  0  0  0
   45.1640   36.0730   43.5320 C   0  0  0  0  0  0  0  0  0  0  0  0
   46.0960   35.0370   43.3270 C   0  0  0  0  0  0  0  0  0  0  0  0
   46.2450   34.0600   44.2950 N   0  0  0  0  0  0  0  0  0  0  0  0
   45.5080   34.0950   45.4190 C   0  0  0  0  0  0  0  0  0  0  0  0
   44.6120   35.0660   45.6460 N   0  0  0  0  0  0  0  0  0  0  0  0
   43.7250   36.8410   44.8690 H   0  0  0  0  0  0  0  0  0  0  0  0
   45.0440   36.8400   42.7800 H   0  0  0  0  0  0  0  0  0  0  0  0
   45.6510   33.3150   46.1520 H   0  0  0  0  0  0  0  0  0  0  0  0
   49.3450   32.6700   40.6320 C   0  0  0  0  0  0  0  0  0  0  0  0
   48.5600   31.6790   41.2240 F   0  0  0  0  0  0  0  0  0  0  0  0
   50.6200   32.6130   41.1600 F   0  0  0  0  0  0  0  0  0  0  0  0
   49.3890   32.4880   39.2640 F   0  0  0  0  0  0  0  0  0  0  0  0
  1  6  1  6  0  0  0
  1  5  1  0  0  0  0
  1 16  1  0  0  0  0
  2  8  1  0  0  0  0
  2  1  1  0  0  0  0
  3  4  1  0  0  0  0
  3  2  1  0  0  0  0
  4 11  1  6  0  0  0
  4  5  1  0  0  0  0
  5 12  1  0  0  0  0
  5 13  1  0  0  0  0
  7  2  1  0  0  0  0
  9  3  1  0  0  0  0
 10  3  1  0  0  0  0
 14 20  1  0  0  0  0
 14 19  1  0  0  0  0
 15 14  2  0  0  0  0
 16 15  1  0  0  0  0
 16 17  2  0  0  0  0
 17 18  1  0  0  0  0
 18 19  2  0  0  0  0
 18 22  1  0  0  0  0
 21 15  1  0  0  0  0
 23  4  1  0  0  0  0
 23 25  1  0  0  0  0
 23 24  1  0  0  0  0
 26 23  1  0  0  0  0
M  END
>  <minimizedAffinity>
-4.62981939

>  <minimizedRMSD>
1.51569843

$$$$
