
 OpenBabel03252502443D

 26 27  0  0  1  0  0  0  0  0999 V2000
   47.1220   35.1480   41.6270 C   0  0  0  0  0  0  0  0  0  0  0  0
   46.6230   35.3660   40.6600 H   0  0  0  0  0  0  0  0  0  0  0  0
   47.1390   36.0440   42.2830 H   0  0  0  0  0  0  0  0  0  0  0  0
   48.5400   34.7100   41.4260 C   0  0  1  0  0  0  0  0  0  0  0  0
   49.6040   35.4880   42.1330 C   0  0  0  0  0  0  0  0  0  0  0  0
   49.2380   34.1320   42.5850 C   0  0  2  0  0  0  0  0  0  0  0  0
   48.7110   34.3680   40.3710 H   0  0  0  0  0  0  0  0  0  0  0  0
   50.5120   35.6470   41.5130 H   0  0  0  0  0  0  0  0  0  0  0  0
   49.3860   36.4190   42.6930 H   0  0  0  0  0  0  0  0  0  0  0  0
   48.8620   33.7620   43.5100 H   0  0  0  0  0  0  0  0  0  0  0  0
   50.2530   33.0660   42.1280 C   0  0  0  0  0  0  0  0  0  0  0  0
   50.0200   32.8110   40.7710 F   0  0  0  0  0  0  0  0  0  0  0  0
   51.5500   33.5340   42.1830 F   0  0  0  0  0  0  0  0  0  0  0  0
   50.2120   31.9330   42.8820 F   0  0  0  0  0  0  0  0  0  0  0  0
   46.4020   33.9620   42.2190 C   0  0  0  0  0  0  0  0  0  0  0  0
   47.2030   33.3420   42.7360 H   0  0  0  0  0  0  0  0  0  0  0  0
   45.7770   33.4140   41.5330 H   0  0  0  0  0  0  0  0  0  0  0  0
   44.4690   35.9430   44.7400 C   0  0  0  0  0  0  0  0  0  0  0  0
   45.0330   35.5470   43.5140 C   0  0  0  0  0  0  0  0  0  0  0  0
   45.7400   34.3780   43.4910 C   0  0  0  0  0  0  0  0  0  0  0  0
   45.8690   33.6460   44.6340 N   0  0  0  0  0  0  0  0  0  0  0  0
   45.3300   34.0320   45.7790 C   0  0  0  0  0  0  0  0  0  0  0  0
   44.6300   35.1760   45.8470 N   0  0  0  0  0  0  0  0  0  0  0  0
   43.8920   36.8310   44.9170 H   0  0  0  0  0  0  0  0  0  0  0  0
   44.7830   36.2720   42.7640 H   0  0  0  0  0  0  0  0  0  0  0  0
   45.5120   33.3540   46.6110 H   0  0  0  0  0  0  0  0  0  0  0  0
  1 15  1  0  0  0  0
  1  3  1  0  0  0  0
  2  1  1  0  0  0  0
  4  7  1  6  0  0  0
  4  1  1  0  0  0  0
  4  5  1  0  0  0  0
  4  6  1  0  0  0  0
  5  6  1  0  0  0  0
  5  9  1  0  0  0  0
  6 10  1  1  0  0  0
  8  5  1  0  0  0  0
 11 13  1  0  0  0  0
 11  6  1  0  0  0  0
 11 14  1  0  0  0  0
 12 11  1  0  0  0  0
 15 16  1  0  0  0  0
 15 20  1  0  0  0  0
 17 15  1  0  0  0  0
 18 24  1  0  0  0  0
 18 23  1  0  0  0  0
 19 18  2  0  0  0  0
 20 19  1  0  0  0  0
 20 21  2  0  0  0  0
 21 22  1  0  0  0  0
 22 23  2  0  0  0  0
 22 26  1  0  0  0  0
 25 19  1  0  0  0  0
M  END
>  <minimizedAffinity>
-4.62202835

>  <minimizedRMSD>
0.980276167

$$$$
