
 OpenBabel03252501263D

 30 32  0  0  0  0  0  0  0  0999 V2000
   38.7750   31.5650   39.8050 C   0  0  0  0  0  0  0  0  0  0  0  0
   37.4430   31.9660   39.9060 C   0  0  0  0  0  0  0  0  0  0  0  0
   36.7400   30.9980   40.5510 C   0  0  0  0  0  0  0  0  0  0  0  0
   37.6240   30.0200   40.8410 N   0  0  0  0  0  0  0  0  0  0  0  0
   38.8250   30.3750   40.3910 N   0  0  0  0  0  0  0  0  0  0  0  0
   36.9970   32.8870   39.5450 H   0  0  0  0  0  0  0  0  0  0  0  0
   35.6930   30.9420   40.8150 H   0  0  0  0  0  0  0  0  0  0  0  0
   37.4800   27.5150   39.5520 F   0  0  0  0  0  0  0  0  0  0  0  0
   37.3220   27.5800   40.8920 C   0  0  0  0  0  0  0  0  0  0  0  0
   37.3950   28.8070   41.5000 C   0  0  0  0  0  0  0  0  0  0  0  0
   37.2340   28.9000   42.8920 C   0  0  0  0  0  0  0  0  0  0  0  0
   37.0050   27.8110   43.6790 C   0  0  0  0  0  0  0  0  0  0  0  0
   36.9370   26.6040   43.0430 C   0  0  0  0  0  0  0  0  0  0  0  0
   37.0900   26.4750   41.6800 C   0  0  0  0  0  0  0  0  0  0  0  0
   37.2890   29.8740   43.4030 H   0  0  0  0  0  0  0  0  0  0  0  0
   36.8800   27.8760   44.7470 H   0  0  0  0  0  0  0  0  0  0  0  0
   36.7590   25.6780   43.5710 H   0  0  0  0  0  0  0  0  0  0  0  0
   37.0130   25.1580   41.0050 C   0  0  0  0  0  0  0  0  0  0  0  0
   36.6190   24.1360   41.8700 F   0  0  0  0  0  0  0  0  0  0  0  0
   38.2580   24.8100   40.4630 F   0  0  0  0  0  0  0  0  0  0  0  0
   36.1050   25.1620   39.9660 F   0  0  0  0  0  0  0  0  0  0  0  0
   41.3270   34.1290   39.2310 C   0  0  0  0  0  0  0  0  0  0  0  0
   41.8390   33.7650   37.9810 C   0  0  0  0  0  0  0  0  0  0  0  0
   41.3110   32.6470   37.3360 C   0  0  0  0  0  0  0  0  0  0  0  0
   40.3220   31.9900   37.9960 N   0  0  0  0  0  0  0  0  0  0  0  0
   39.8350   32.3320   39.1810 C   0  0  0  0  0  0  0  0  0  0  0  0
   40.3350   33.4150   39.8190 N   0  0  0  0  0  0  0  0  0  0  0  0
   41.7640   35.0030   39.6980 H   0  0  0  0  0  0  0  0  0  0  0  0
   42.6380   34.3360   37.5000 H   0  0  0  0  0  0  0  0  0  0  0  0
   41.6610   32.3090   36.3660 H   0  0  0  0  0  0  0  0  0  0  0  0
  1  2  1  0  0  0  0
  1  5  2  0  0  0  0
  2  3  2  0  0  0  0
  3  7  1  0  0  0  0
  3  4  1  0  0  0  0
  4 10  1  0  0  0  0
  5  4  1  0  0  0  0
  6  2  1  0  0  0  0
  8  9  1  0  0  0  0
  9 10  2  0  0  0  0
  9 14  1  0  0  0  0
 10 11  1  0  0  0  0
 11 15  1  0  0  0  0
 11 12  2  0  0  0  0
 12 16  1  0  0  0  0
 13 17  1  0  0  0  0
 13 12  1  0  0  0  0
 14 13  2  0  0  0  0
 18 14  1  0  0  0  0
 18 19  1  0  0  0  0
 20 18  1  0  0  0  0
 21 18  1  0  0  0  0
 22 28  1  0  0  0  0
 22 27  1  0  0  0  0
 23 22  2  0  0  0  0
 24 23  1  0  0  0  0
 24 25  2  0  0  0  0
 25 26  1  0  0  0  0
 26  1  1  0  0  0  0
 26 27  2  0  0  0  0
 29 23  1  0  0  0  0
 30 24  1  0  0  0  0
M  END
>  <minimizedAffinity>
-5.67048836

$$$$

 OpenBabel03252501263D

 30 32  0  0  0  0  0  0  0  0999 V2000
   37.7030   30.4340   40.9860 C   0  0  0  0  0  0  0  0  0  0  0  0
   36.3490   30.1920   41.2160 C   0  0  0  0  0  0  0  0  0  0  0  0
   36.1750   28.8690   41.4710 C   0  0  0  0  0  0  0  0  0  0  0  0
   37.4000   28.3070   41.3980 N   0  0  0  0  0  0  0  0  0  0  0  0
   38.2930   29.2510   41.1100 N   0  0  0  0  0  0  0  0  0  0  0  0
   35.5350   30.9110   41.2040 H   0  0  0  0  0  0  0  0  0  0  0  0
   35.2810   28.3040   41.6920 H   0  0  0  0  0  0  0  0  0  0  0  0
   36.3420   26.1660   39.8970 F   0  0  0  0  0  0  0  0  0  0  0  0
   37.2520   25.9110   40.8620 C   0  0  0  0  0  0  0  0  0  0  0  0
   37.7540   26.9660   41.5820 C   0  0  0  0  0  0  0  0  0  0  0  0
   38.7010   26.7270   42.5900 C   0  0  0  0  0  0  0  0  0  0  0  0
   39.1520   25.4760   42.8930 C   0  0  0  0  0  0  0  0  0  0  0  0
   38.6320   24.4470   42.1590 C   0  0  0  0  0  0  0  0  0  0  0  0
   37.7010   24.6460   41.1620 C   0  0  0  0  0  0  0  0  0  0  0  0
   39.1190   27.5570   43.1810 H   0  0  0  0  0  0  0  0  0  0  0  0
   39.8770   25.2860   43.6660 H   0  0  0  0  0  0  0  0  0  0  0  0
   38.9190   23.4180   42.3170 H   0  0  0  0  0  0  0  0  0  0  0  0
   37.1470   23.5190   40.3750 C   0  0  0  0  0  0  0  0  0  0  0  0
   37.4290   23.6310   39.0120 F   0  0  0  0  0  0  0  0  0  0  0  0
   35.7560   23.4520   40.5240 F   0  0  0  0  0  0  0  0  0  0  0  0
   37.6590   22.3040   40.7800 F   0  0  0  0  0  0  0  0  0  0  0  0
   38.0370   33.9270   39.9350 C   0  0  0  0  0  0  0  0  0  0  0  0
   39.4050   34.1610   40.1120 C   0  0  0  0  0  0  0  0  0  0  0  0
   40.2100   33.1270   40.5880 C   0  0  0  0  0  0  0  0  0  0  0  0
   39.5800   31.9520   40.8470 N   0  0  0  0  0  0  0  0  0  0  0  0
   38.2840   31.7270   40.6820 C   0  0  0  0  0  0  0  0  0  0  0  0
   37.4890   32.7190   40.2190 N   0  0  0  0  0  0  0  0  0  0  0  0
   37.4470   34.7560   39.5630 H   0  0  0  0  0  0  0  0  0  0  0  0
   39.8550   35.1320   39.8840 H   0  0  0  0  0  0  0  0  0  0  0  0
   41.2780   33.2400   40.7480 H   0  0  0  0  0  0  0  0  0  0  0  0
  1  5  2  0  0  0  0
  1  2  1  0  0  0  0
  2  3  2  0  0  0  0
  3  7  1  0  0  0  0
  4  3  1  0  0  0  0
  4 10  1  0  0  0  0
  5  4  1  0  0  0  0
  6  2  1  0  0  0  0
  8  9  1  0  0  0  0
  9 14  2  0  0  0  0
  9 10  1  0  0  0  0
 10 11  2  0  0  0  0
 11 12  1  0  0  0  0
 11 15  1  0  0  0  0
 12 16  1  0  0  0  0
 13 17  1  0  0  0  0
 13 12  2  0  0  0  0
 14 13  1  0  0  0  0
 18 20  1  0  0  0  0
 18 21  1  0  0  0  0
 18 14  1  0  0  0  0
 19 18  1  0  0  0  0
 22 23  2  0  0  0  0
 22 27  1  0  0  0  0
 23 24  1  0  0  0  0
 24 30  1  0  0  0  0
 24 25  2  0  0  0  0
 26 25  1  0  0  0  0
 26  1  1  0  0  0  0
 27 26  2  0  0  0  0
 28 22  1  0  0  0  0
 29 23  1  0  0  0  0
M  END
>  <minimizedAffinity>
-5.42268562

$$$$

 OpenBabel03252501263D

 30 32  0  0  0  0  0  0  0  0999 V2000
   41.3680   31.1120   37.8940 C   0  0  0  0  0  0  0  0  0  0  0  0
   40.3540   32.0450   37.6750 C   0  0  0  0  0  0  0  0  0  0  0  0
   39.3930   31.8820   38.6230 C   0  0  0  0  0  0  0  0  0  0  0  0
   39.8080   30.8670   39.4090 N   0  0  0  0  0  0  0  0  0  0  0  0
   40.9810   30.4230   38.9610 N   0  0  0  0  0  0  0  0  0  0  0  0
   40.3000   32.7960   36.8930 H   0  0  0  0  0  0  0  0  0  0  0  0
   38.4640   32.4090   38.7840 H   0  0  0  0  0  0  0  0  0  0  0  0
   37.5310   29.2070   39.2760 F   0  0  0  0  0  0  0  0  0  0  0  0
   38.0640   29.5050   40.4820 C   0  0  0  0  0  0  0  0  0  0  0  0
   39.1710   30.3140   40.5250 C   0  0  0  0  0  0  0  0  0  0  0  0
   39.7430   30.6380   41.7660 C   0  0  0  0  0  0  0  0  0  0  0  0
   39.2410   30.1790   42.9480 C   0  0  0  0  0  0  0  0  0  0  0  0
   38.1380   29.3760   42.8710 C   0  0  0  0  0  0  0  0  0  0  0  0
   37.5510   29.0380   41.6710 C   0  0  0  0  0  0  0  0  0  0  0  0
   40.6310   31.2840   41.8260 H   0  0  0  0  0  0  0  0  0  0  0  0
   39.6750   30.4240   43.9020 H   0  0  0  0  0  0  0  0  0  0  0  0
   37.6600   28.9590   43.7450 H   0  0  0  0  0  0  0  0  0  0  0  0
   36.3540   28.1660   41.6030 C   0  0  0  0  0  0  0  0  0  0  0  0
   35.2430   28.8250   41.0730 F   0  0  0  0  0  0  0  0  0  0  0  0
   36.0130   27.7000   42.8790 F   0  0  0  0  0  0  0  0  0  0  0  0
   36.5670   27.0590   40.8080 F   0  0  0  0  0  0  0  0  0  0  0  0
   44.7860   31.5590   36.6570 C   0  0  0  0  0  0  0  0  0  0  0  0
   44.8200   30.6940   35.5570 C   0  0  0  0  0  0  0  0  0  0  0  0
   43.6770   29.9630   35.2400 C   0  0  0  0  0  0  0  0  0  0  0  0
   42.6010   30.1560   36.0470 N   0  0  0  0  0  0  0  0  0  0  0  0
   42.5660   30.9730   37.0910 C   0  0  0  0  0  0  0  0  0  0  0  0
   43.6670   31.6920   37.4120 N   0  0  0  0  0  0  0  0  0  0  0  0
   45.6950   32.1090   36.8700 H   0  0  0  0  0  0  0  0  0  0  0  0
   45.7180   30.5820   34.9430 H   0  0  0  0  0  0  0  0  0  0  0  0
   43.6330   29.2750   34.4010 H   0  0  0  0  0  0  0  0  0  0  0  0
  1  5  2  0  0  0  0
  2  1  1  0  0  0  0
  2  3  2  0  0  0  0
  3  7  1  0  0  0  0
  3  4  1  0  0  0  0
  4 10  1  0  0  0  0
  5  4  1  0  0  0  0
  6  2  1  0  0  0  0
  8  9  1  0  0  0  0
  9 10  2  0  0  0  0
  9 14  1  0  0  0  0
 10 11  1  0  0  0  0
 11 15  1  0  0  0  0
 11 12  2  0  0  0  0
 12 16  1  0  0  0  0
 13 12  1  0  0  0  0
 13 17  1  0  0  0  0
 14 13  2  0  0  0  0
 18 14  1  0  0  0  0
 18 20  1  0  0  0  0
 19 18  1  0  0  0  0
 21 18  1  0  0  0  0
 22 28  1  0  0  0  0
 22 27  1  0  0  0  0
 23 22  2  0  0  0  0
 24 23  1  0  0  0  0
 24 25  2  0  0  0  0
 25 26  1  0  0  0  0
 26 27  2  0  0  0  0
 26  1  1  0  0  0  0
 29 23  1  0  0  0  0
 30 24  1  0  0  0  0
M  END
>  <minimizedAffinity>
-5.29915667

$$$$

 OpenBabel03252501263D

 30 32  0  0  0  0  0  0  0  0999 V2000
   37.6350   30.6610   40.5900 C   0  0  0  0  0  0  0  0  0  0  0  0
   36.2410   30.7210   40.5690 C   0  0  0  0  0  0  0  0  0  0  0  0
   35.7450   29.4630   40.7020 C   0  0  0  0  0  0  0  0  0  0  0  0
   36.8130   28.6450   40.8020 N   0  0  0  0  0  0  0  0  0  0  0  0
   37.9250   29.3740   40.7340 N   0  0  0  0  0  0  0  0  0  0  0  0
   35.6160   31.6030   40.4660 H   0  0  0  0  0  0  0  0  0  0  0  0
   34.7250   29.1050   40.7300 H   0  0  0  0  0  0  0  0  0  0  0  0
   36.2750   26.8130   38.7250 F   0  0  0  0  0  0  0  0  0  0  0  0
   36.5750   26.3470   39.9580 C   0  0  0  0  0  0  0  0  0  0  0  0
   36.8330   27.2540   40.9540 C   0  0  0  0  0  0  0  0  0  0  0  0
   37.1470   26.7940   42.2430 C   0  0  0  0  0  0  0  0  0  0  0  0
   37.2080   25.4690   42.5550 C   0  0  0  0  0  0  0  0  0  0  0  0
   36.9450   24.5910   41.5410 C   0  0  0  0  0  0  0  0  0  0  0  0
   36.6330   25.0070   40.2650 C   0  0  0  0  0  0  0  0  0  0  0  0
   37.3580   27.5020   43.0590 H   0  0  0  0  0  0  0  0  0  0  0  0
   37.4470   25.1100   43.5420 H   0  0  0  0  0  0  0  0  0  0  0  0
   36.9650   23.5200   41.6800 H   0  0  0  0  0  0  0  0  0  0  0  0
   36.3510   24.0430   39.1750 C   0  0  0  0  0  0  0  0  0  0  0  0
   35.1070   24.2600   38.5800 F   0  0  0  0  0  0  0  0  0  0  0  0
   36.3750   22.7300   39.6620 F   0  0  0  0  0  0  0  0  0  0  0  0
   37.2860   24.1200   38.1640 F   0  0  0  0  0  0  0  0  0  0  0  0
   40.6890   32.6640   40.3210 C   0  0  0  0  0  0  0  0  0  0  0  0
   40.1860   33.9680   40.2590 C   0  0  0  0  0  0  0  0  0  0  0  0
   38.8060   34.1610   40.3100 C   0  0  0  0  0  0  0  0  0  0  0  0
   38.0500   33.0370   40.4170 N   0  0  0  0  0  0  0  0  0  0  0  0
   38.5240   31.8000   40.4750 C   0  0  0  0  0  0  0  0  0  0  0  0
   39.8610   31.5960   40.4280 N   0  0  0  0  0  0  0  0  0  0  0  0
   41.7660   32.5590   40.2780 H   0  0  0  0  0  0  0  0  0  0  0  0
   40.8470   34.8360   40.1740 H   0  0  0  0  0  0  0  0  0  0  0  0
   38.3480   35.1440   40.2670 H   0  0  0  0  0  0  0  0  0  0  0  0
  1  5  2  0  0  0  0
  2  1  1  0  0  0  0
  2  3  2  0  0  0  0
  3  7  1  0  0  0  0
  3  4  1  0  0  0  0
  4 10  1  0  0  0  0
  5  4  1  0  0  0  0
  6  2  1  0  0  0  0
  8  9  1  0  0  0  0
  9 14  2  0  0  0  0
  9 10  1  0  0  0  0
 10 11  2  0  0  0  0
 11 12  1  0  0  0  0
 11 15  1  0  0  0  0
 12 16  1  0  0  0  0
 13 17  1  0  0  0  0
 13 12  2  0  0  0  0
 14 13  1  0  0  0  0
 18 20  1  0  0  0  0
 18 14  1  0  0  0  0
 19 18  1  0  0  0  0
 21 18  1  0  0  0  0
 22 27  1  0  0  0  0
 23 24  1  0  0  0  0
 23 22  2  0  0  0  0
 24 25  2  0  0  0  0
 25 26  1  0  0  0  0
 26  1  1  0  0  0  0
 27 26  2  0  0  0  0
 28 22  1  0  0  0  0
 29 23  1  0  0  0  0
 30 24  1  0  0  0  0
M  END
>  <minimizedAffinity>
-5.28152084

$$$$

 OpenBabel03252501263D

 30 32  0  0  0  0  0  0  0  0999 V2000
   35.6180   28.8920   38.4480 C   0  0  0  0  0  0  0  0  0  0  0  0
   34.6510   29.2760   39.3780 C   0  0  0  0  0  0  0  0  0  0  0  0
   35.0730   28.9270   40.6220 C   0  0  0  0  0  0  0  0  0  0  0  0
   36.2770   28.3390   40.4600 N   0  0  0  0  0  0  0  0  0  0  0  0
   36.5830   28.3270   39.1640 N   0  0  0  0  0  0  0  0  0  0  0  0
   33.7060   29.7740   39.1860 H   0  0  0  0  0  0  0  0  0  0  0  0
   34.6060   29.0540   41.5880 H   0  0  0  0  0  0  0  0  0  0  0  0
   37.1240   25.6490   40.5270 F   0  0  0  0  0  0  0  0  0  0  0  0
   37.5460   26.5000   41.4880 C   0  0  0  0  0  0  0  0  0  0  0  0
   37.1230   27.8040   41.4380 C   0  0  0  0  0  0  0  0  0  0  0  0
   37.5480   28.7070   42.4250 C   0  0  0  0  0  0  0  0  0  0  0  0
   38.3750   28.3440   43.4460 C   0  0  0  0  0  0  0  0  0  0  0  0
   38.7780   27.0380   43.4680 C   0  0  0  0  0  0  0  0  0  0  0  0
   38.3800   26.1250   42.5160 C   0  0  0  0  0  0  0  0  0  0  0  0
   37.2220   29.7580   42.4060 H   0  0  0  0  0  0  0  0  0  0  0  0
   38.7040   29.0320   44.2070 H   0  0  0  0  0  0  0  0  0  0  0  0
   39.4320   26.6450   44.2330 H   0  0  0  0  0  0  0  0  0  0  0  0
   38.8260   24.7120   42.5530 C   0  0  0  0  0  0  0  0  0  0  0  0
   39.6220   24.3740   41.4570 F   0  0  0  0  0  0  0  0  0  0  0  0
   37.7240   23.8480   42.5700 F   0  0  0  0  0  0  0  0  0  0  0  0
   39.5760   24.4360   43.6780 F   0  0  0  0  0  0  0  0  0  0  0  0
   36.5750   29.5030   34.9660 C   0  0  0  0  0  0  0  0  0  0  0  0
   35.3390   29.4780   34.3100 C   0  0  0  0  0  0  0  0  0  0  0  0
   34.1830   29.2540   35.0560 C   0  0  0  0  0  0  0  0  0  0  0  0
   34.3610   29.0730   36.3910 N   0  0  0  0  0  0  0  0  0  0  0  0
   35.5310   29.0950   37.0160 C   0  0  0  0  0  0  0  0  0  0  0  0
   36.6620   29.3130   36.3060 N   0  0  0  0  0  0  0  0  0  0  0  0
   37.4470   29.6800   34.3500 H   0  0  0  0  0  0  0  0  0  0  0  0
   35.2610   29.6310   33.2290 H   0  0  0  0  0  0  0  0  0  0  0  0
   33.1940   29.2220   34.6110 H   0  0  0  0  0  0  0  0  0  0  0  0
  1  5  2  0  0  0  0
  1  2  1  0  0  0  0
  2  3  2  0  0  0  0
  3  7  1  0  0  0  0
  4  3  1  0  0  0  0
  4 10  1  0  0  0  0
  5  4  1  0  0  0  0
  6  2  1  0  0  0  0
  8  9  1  0  0  0  0
  9 14  1  0  0  0  0
 10  9  2  0  0  0  0
 10 11  1  0  0  0  0
 11 12  2  0  0  0  0
 12 13  1  0  0  0  0
 12 16  1  0  0  0  0
 13 17  1  0  0  0  0
 14 18  1  0  0  0  0
 14 13  2  0  0  0  0
 15 11  1  0  0  0  0
 18 20  1  0  0  0  0
 18 21  1  0  0  0  0
 19 18  1  0  0  0  0
 22 27  1  0  0  0  0
 23 22  2  0  0  0  0
 23 24  1  0  0  0  0
 24 25  2  0  0  0  0
 25 26  1  0  0  0  0
 26  1  1  0  0  0  0
 27 26  2  0  0  0  0
 28 22  1  0  0  0  0
 29 23  1  0  0  0  0
 30 24  1  0  0  0  0
M  END
>  <minimizedAffinity>
-5.24863148

$$$$

 OpenBabel03252501263D

 30 32  0  0  0  0  0  0  0  0999 V2000
   37.6960   30.8230   40.1960 C   0  0  0  0  0  0  0  0  0  0  0  0
   36.3460   30.9580   40.5190 C   0  0  0  0  0  0  0  0  0  0  0  0
   35.7520   29.7380   40.4470 C   0  0  0  0  0  0  0  0  0  0  0  0
   36.7180   28.8690   40.0860 N   0  0  0  0  0  0  0  0  0  0  0  0
   37.8650   29.5310   39.9410 N   0  0  0  0  0  0  0  0  0  0  0  0
   35.8150   31.8660   40.7900 H   0  0  0  0  0  0  0  0  0  0  0  0
   34.7280   29.4390   40.6240 H   0  0  0  0  0  0  0  0  0  0  0  0
   37.6010   26.9150   41.9190 F   0  0  0  0  0  0  0  0  0  0  0  0
   37.0370   26.5240   40.7550 C   0  0  0  0  0  0  0  0  0  0  0  0
   36.6150   27.4890   39.8760 C   0  0  0  0  0  0  0  0  0  0  0  0
   36.0250   27.1080   38.6600 C   0  0  0  0  0  0  0  0  0  0  0  0
   35.8510   25.8030   38.3060 C   0  0  0  0  0  0  0  0  0  0  0  0
   36.2830   24.8660   39.2020 C   0  0  0  0  0  0  0  0  0  0  0  0
   36.8660   25.2040   40.4040 C   0  0  0  0  0  0  0  0  0  0  0  0
   35.6780   27.8640   37.9400 H   0  0  0  0  0  0  0  0  0  0  0  0
   35.4010   25.5040   37.3750 H   0  0  0  0  0  0  0  0  0  0  0  0
   36.1940   23.8050   39.0210 H   0  0  0  0  0  0  0  0  0  0  0  0
   37.3290   24.1760   41.3660 C   0  0  0  0  0  0  0  0  0  0  0  0
   38.6890   24.2920   41.6570 F   0  0  0  0  0  0  0  0  0  0  0  0
   37.1030   22.8900   40.8580 F   0  0  0  0  0  0  0  0  0  0  0  0
   36.6630   24.2600   42.5720 F   0  0  0  0  0  0  0  0  0  0  0  0
   39.1790   34.1610   40.4700 C   0  0  0  0  0  0  0  0  0  0  0  0
   40.5060   33.9290   40.0900 C   0  0  0  0  0  0  0  0  0  0  0  0
   40.8910   32.6350   39.7410 C   0  0  0  0  0  0  0  0  0  0  0  0
   39.9200   31.6870   39.8020 N   0  0  0  0  0  0  0  0  0  0  0  0
   38.6620   31.9030   40.1620 C   0  0  0  0  0  0  0  0  0  0  0  0
   38.2720   33.1530   40.5030 N   0  0  0  0  0  0  0  0  0  0  0  0
   38.9210   35.1790   40.7330 H   0  0  0  0  0  0  0  0  0  0  0  0
   41.2430   34.7360   40.0600 H   0  0  0  0  0  0  0  0  0  0  0  0
   41.9030   32.3850   39.4380 H   0  0  0  0  0  0  0  0  0  0  0  0
  1  2  1  0  0  0  0
  2  6  1  0  0  0  0
  3  2  2  0  0  0  0
  3  7  1  0  0  0  0
  4  3  1  0  0  0  0
  5  4  1  0  0  0  0
  5  1  2  0  0  0  0
  9  8  1  0  0  0  0
 10  4  1  0  0  0  0
 10  9  2  0  0  0  0
 11 10  1  0  0  0  0
 12 11  2  0  0  0  0
 12 13  1  0  0  0  0
 13 14  2  0  0  0  0
 14  9  1  0  0  0  0
 14 18  1  0  0  0  0
 15 11  1  0  0  0  0
 16 12  1  0  0  0  0
 17 13  1  0  0  0  0
 18 19  1  0  0  0  0
 18 21  1  0  0  0  0
 20 18  1  0  0  0  0
 22 27  1  0  0  0  0
 22 28  1  0  0  0  0
 23 22  2  0  0  0  0
 24 25  2  0  0  0  0
 24 23  1  0  0  0  0
 25 26  1  0  0  0  0
 26  1  1  0  0  0  0
 26 27  2  0  0  0  0
 29 23  1  0  0  0  0
 30 24  1  0  0  0  0
M  END
>  <minimizedAffinity>
-5.2478652

$$$$

 OpenBabel03252501263D

 30 32  0  0  0  0  0  0  0  0999 V2000
   39.0720   31.1510   38.5370 C   0  0  0  0  0  0  0  0  0  0  0  0
   37.7530   31.6080   38.5320 C   0  0  0  0  0  0  0  0  0  0  0  0
   36.9320   30.5860   38.8890 C   0  0  0  0  0  0  0  0  0  0  0  0
   37.7310   29.5210   39.1100 N   0  0  0  0  0  0  0  0  0  0  0  0
   38.9960   29.8750   38.8970 N   0  0  0  0  0  0  0  0  0  0  0  0
   37.3970   32.6040   38.2900 H   0  0  0  0  0  0  0  0  0  0  0  0
   35.8580   30.5480   38.9980 H   0  0  0  0  0  0  0  0  0  0  0  0
   37.8580   28.5670   41.7630 F   0  0  0  0  0  0  0  0  0  0  0  0
   37.4220   27.7440   40.7840 C   0  0  0  0  0  0  0  0  0  0  0  0
   37.3680   28.2270   39.5000 C   0  0  0  0  0  0  0  0  0  0  0  0
   36.9180   27.3910   38.4660 C   0  0  0  0  0  0  0  0  0  0  0  0
   36.5270   26.1030   38.6800 C   0  0  0  0  0  0  0  0  0  0  0  0
   36.5930   25.6520   39.9690 C   0  0  0  0  0  0  0  0  0  0  0  0
   37.0300   26.4450   41.0080 C   0  0  0  0  0  0  0  0  0  0  0  0
   36.8650   27.7550   37.4280 H   0  0  0  0  0  0  0  0  0  0  0  0
   36.1810   25.4560   37.8910 H   0  0  0  0  0  0  0  0  0  0  0  0
   36.3080   24.6480   40.2490 H   0  0  0  0  0  0  0  0  0  0  0  0
   37.0960   25.9420   42.4010 C   0  0  0  0  0  0  0  0  0  0  0  0
   36.3670   26.7330   43.2890 F   0  0  0  0  0  0  0  0  0  0  0  0
   38.4230   25.9020   42.8470 F   0  0  0  0  0  0  0  0  0  0  0  0
   36.5900   24.6630   42.5130 F   0  0  0  0  0  0  0  0  0  0  0  0
   41.4820   33.9080   38.4780 C   0  0  0  0  0  0  0  0  0  0  0  0
   42.4460   33.4410   37.5770 C   0  0  0  0  0  0  0  0  0  0  0  0
   42.2710   32.1880   36.9920 C   0  0  0  0  0  0  0  0  0  0  0  0
   41.1510   31.5110   37.3570 N   0  0  0  0  0  0  0  0  0  0  0  0
   40.2360   31.9500   38.2110 C   0  0  0  0  0  0  0  0  0  0  0  0
   40.3910   33.1650   38.7870 N   0  0  0  0  0  0  0  0  0  0  0  0
   41.6560   34.8860   38.9100 H   0  0  0  0  0  0  0  0  0  0  0  0
   43.3280   34.0360   37.3220 H   0  0  0  0  0  0  0  0  0  0  0  0
   42.9780   31.7660   36.2860 H   0  0  0  0  0  0  0  0  0  0  0  0
  1  5  2  0  0  0  0
  2  1  1  0  0  0  0
  2  3  2  0  0  0  0
  3  7  1  0  0  0  0
  3  4  1  0  0  0  0
  4 10  1  0  0  0  0
  5  4  1  0  0  0  0
  6  2  1  0  0  0  0
  9 14  1  0  0  0  0
  9  8  1  0  0  0  0
 10  9  2  0  0  0  0
 11 12  2  0  0  0  0
 11 10  1  0  0  0  0
 12 13  1  0  0  0  0
 13 17  1  0  0  0  0
 13 14  2  0  0  0  0
 14 18  1  0  0  0  0
 15 11  1  0  0  0  0
 16 12  1  0  0  0  0
 18 21  1  0  0  0  0
 18 20  1  0  0  0  0
 18 19  1  0  0  0  0
 22 27  1  0  0  0  0
 22 28  1  0  0  0  0
 23 22  2  0  0  0  0
 24 25  2  0  0  0  0
 24 23  1  0  0  0  0
 25 26  1  0  0  0  0
 26  1  1  0  0  0  0
 26 27  2  0  0  0  0
 29 23  1  0  0  0  0
 30 24  1  0  0  0  0
M  END
>  <minimizedAffinity>
-5.24740219

$$$$

 OpenBabel03252501263D

 30 32  0  0  0  0  0  0  0  0999 V2000
   39.6790   33.1010   39.3750 C   0  0  0  0  0  0  0  0  0  0  0  0
   38.7180   33.9460   39.9310 C   0  0  0  0  0  0  0  0  0  0  0  0
   37.5440   33.2680   40.0370 C   0  0  0  0  0  0  0  0  0  0  0  0
   37.7790   32.0300   39.5560 N   0  0  0  0  0  0  0  0  0  0  0  0
   39.0500   31.9490   39.1680 N   0  0  0  0  0  0  0  0  0  0  0  0
   38.8420   34.9790   40.2420 H   0  0  0  0  0  0  0  0  0  0  0  0
   36.5810   33.5800   40.4150 H   0  0  0  0  0  0  0  0  0  0  0  0
   37.0220   30.8360   37.1150 F   0  0  0  0  0  0  0  0  0  0  0  0
   36.5100   30.3600   38.2710 C   0  0  0  0  0  0  0  0  0  0  0  0
   36.8900   30.9550   39.4480 C   0  0  0  0  0  0  0  0  0  0  0  0
   36.3710   30.4790   40.6620 C   0  0  0  0  0  0  0  0  0  0  0  0
   35.4930   29.4380   40.7280 C   0  0  0  0  0  0  0  0  0  0  0  0
   35.1340   28.8680   39.5400 C   0  0  0  0  0  0  0  0  0  0  0  0
   35.6230   29.3090   38.3290 C   0  0  0  0  0  0  0  0  0  0  0  0
   36.6610   30.9390   41.6190 H   0  0  0  0  0  0  0  0  0  0  0  0
   35.0910   29.0690   41.6570 H   0  0  0  0  0  0  0  0  0  0  0  0
   34.4450   28.0380   39.4770 H   0  0  0  0  0  0  0  0  0  0  0  0
   35.2240   28.6810   37.0480 C   0  0  0  0  0  0  0  0  0  0  0  0
   36.3210   28.3630   36.2450 F   0  0  0  0  0  0  0  0  0  0  0  0
   34.3880   29.5360   36.3190 F   0  0  0  0  0  0  0  0  0  0  0  0
   34.5310   27.5040   37.2440 F   0  0  0  0  0  0  0  0  0  0  0  0
   43.1990   33.9770   39.8810 C   0  0  0  0  0  0  0  0  0  0  0  0
   43.6550   34.1440   38.5690 C   0  0  0  0  0  0  0  0  0  0  0  0
   42.7620   33.9580   37.5150 C   0  0  0  0  0  0  0  0  0  0  0  0
   41.4920   33.6210   37.8620 N   0  0  0  0  0  0  0  0  0  0  0  0
   41.0560   33.4610   39.1050 C   0  0  0  0  0  0  0  0  0  0  0  0
   41.9110   33.6390   40.1390 N   0  0  0  0  0  0  0  0  0  0  0  0
   43.9240   34.1300   40.6700 H   0  0  0  0  0  0  0  0  0  0  0  0
   44.6930   34.4170   38.3530 H   0  0  0  0  0  0  0  0  0  0  0  0
   43.0490   34.0710   36.4750 H   0  0  0  0  0  0  0  0  0  0  0  0
  1  2  1  0  0  0  0
  2  3  2  0  0  0  0
  2  6  1  0  0  0  0
  3  7  1  0  0  0  0
  4  3  1  0  0  0  0
  5  1  2  0  0  0  0
  5  4  1  0  0  0  0
  8  9  1  0  0  0  0
  9 14  2  0  0  0  0
  9 10  1  0  0  0  0
 10  4  1  0  0  0  0
 10 11  2  0  0  0  0
 11 12  1  0  0  0  0
 11 15  1  0  0  0  0
 12 16  1  0  0  0  0
 13 12  2  0  0  0  0
 14 13  1  0  0  0  0
 17 13  1  0  0  0  0
 18 21  1  0  0  0  0
 18 14  1  0  0  0  0
 19 18  1  0  0  0  0
 20 18  1  0  0  0  0
 22 27  1  0  0  0  0
 22 28  1  0  0  0  0
 23 22  2  0  0  0  0
 24 25  2  0  0  0  0
 24 23  1  0  0  0  0
 25 26  1  0  0  0  0
 26  1  1  0  0  0  0
 26 27  2  0  0  0  0
 29 23  1  0  0  0  0
 30 24  1  0  0  0  0
M  END
>  <minimizedAffinity>
-5.22447443

$$$$

 OpenBabel03252501263D

 30 32  0  0  0  0  0  0  0  0999 V2000
   39.9140   31.0570   39.4410 C   0  0  0  0  0  0  0  0  0  0  0  0
   38.6670   31.6760   39.3580 C   0  0  0  0  0  0  0  0  0  0  0  0
   37.7640   30.9420   40.0620 C   0  0  0  0  0  0  0  0  0  0  0  0
   38.4440   29.8920   40.5670 N   0  0  0  0  0  0  0  0  0  0  0  0
   39.7180   29.9770   40.1880 N   0  0  0  0  0  0  0  0  0  0  0  0
   38.4130   32.5910   38.8320 H   0  0  0  0  0  0  0  0  0  0  0  0
   36.7080   31.0950   40.2310 H   0  0  0  0  0  0  0  0  0  0  0  0
   38.0530   27.2520   39.6530 F   0  0  0  0  0  0  0  0  0  0  0  0
   37.7670   27.5560   40.9380 C   0  0  0  0  0  0  0  0  0  0  0  0
   37.9640   28.8460   41.3630 C   0  0  0  0  0  0  0  0  0  0  0  0
   37.6750   29.1870   42.6940 C   0  0  0  0  0  0  0  0  0  0  0  0
   37.2000   28.2830   43.5970 C   0  0  0  0  0  0  0  0  0  0  0  0
   37.0150   27.0080   43.1430 C   0  0  0  0  0  0  0  0  0  0  0  0
   37.2870   26.6380   41.8440 C   0  0  0  0  0  0  0  0  0  0  0  0
   37.8250   30.2150   43.0590 H   0  0  0  0  0  0  0  0  0  0  0  0
   36.9760   28.5390   44.6190 H   0  0  0  0  0  0  0  0  0  0  0  0
   36.6420   26.2150   43.7740 H   0  0  0  0  0  0  0  0  0  0  0  0
   37.0810   25.2510   41.3660 C   0  0  0  0  0  0  0  0  0  0  0  0
   38.2780   24.6230   41.0160 F   0  0  0  0  0  0  0  0  0  0  0  0
   36.2420   25.2360   40.2440 F   0  0  0  0  0  0  0  0  0  0  0  0
   36.4900   24.4560   42.3270 F   0  0  0  0  0  0  0  0  0  0  0  0
   42.1950   32.8950   37.2430 C   0  0  0  0  0  0  0  0  0  0  0  0
   43.4480   32.4360   37.6630 C   0  0  0  0  0  0  0  0  0  0  0  0
   43.5120   31.5000   38.6940 C   0  0  0  0  0  0  0  0  0  0  0  0
   42.3210   31.1050   39.2160 N   0  0  0  0  0  0  0  0  0  0  0  0
   41.1320   31.5400   38.8210 C   0  0  0  0  0  0  0  0  0  0  0  0
   41.0530   32.4470   37.8200 N   0  0  0  0  0  0  0  0  0  0  0  0
   42.1890   33.6220   36.4390 H   0  0  0  0  0  0  0  0  0  0  0  0
   44.3740   32.7920   37.2010 H   0  0  0  0  0  0  0  0  0  0  0  0
   44.4500   31.1020   39.0680 H   0  0  0  0  0  0  0  0  0  0  0  0
  1  5  2  0  0  0  0
  2  1  1  0  0  0  0
  2  3  2  0  0  0  0
  3  7  1  0  0  0  0
  3  4  1  0  0  0  0
  4 10  1  0  0  0  0
  5  4  1  0  0  0  0
  6  2  1  0  0  0  0
  8  9  1  0  0  0  0
  9 10  2  0  0  0  0
  9 14  1  0  0  0  0
 10 11  1  0  0  0  0
 11 15  1  0  0  0  0
 11 12  2  0  0  0  0
 12 16  1  0  0  0  0
 13 12  1  0  0  0  0
 13 17  1  0  0  0  0
 14 13  2  0  0  0  0
 18 14  1  0  0  0  0
 18 21  1  0  0  0  0
 19 18  1  0  0  0  0
 20 18  1  0  0  0  0
 22 23  2  0  0  0  0
 22 27  1  0  0  0  0
 23 24  1  0  0  0  0
 24 30  1  0  0  0  0
 24 25  2  0  0  0  0
 26 25  1  0  0  0  0
 26  1  1  0  0  0  0
 27 26  2  0  0  0  0
 28 22  1  0  0  0  0
 29 23  1  0  0  0  0
M  END
>  <minimizedAffinity>
-5.14243937

$$$$
