
 OpenBabel03242523193D

 32 34  0  0  0  0  0  0  0  0999 V2000
   47.3690   32.8090   44.0250 C   0  0  0  0  0  0  0  0  0  0  0  0
   48.2250   33.3070   43.1200 C   0  0  0  0  0  0  0  0  0  0  0  0
   49.0640   32.3780   42.5480 C   0  0  0  0  0  0  0  0  0  0  0  0
   48.9590   31.0340   42.9510 N   0  0  0  0  0  0  0  0  0  0  0  0
   48.0950   30.6210   43.8490 C   0  0  0  0  0  0  0  0  0  0  0  0
   47.2390   31.5200   44.4390 N   0  0  0  0  0  0  0  0  0  0  0  0
   49.8170   32.5700   41.8040 H   0  0  0  0  0  0  0  0  0  0  0  0
   48.1280   29.5550   44.0600 H   0  0  0  0  0  0  0  0  0  0  0  0
   48.4080   34.6810   42.8000 C   0  0  0  0  0  0  0  0  0  0  0  0
   49.4330   35.2620   42.1220 C   0  0  0  0  0  0  0  0  0  0  0  0
   48.1960   35.0910   41.2790 C   0  0  0  0  0  0  0  0  0  0  0  0
   47.9460   35.3710   43.5280 H   0  0  0  0  0  0  0  0  0  0  0  0
   49.7740   36.3220   42.1260 H   0  0  0  0  0  0  0  0  0  0  0  0
   50.3280   34.6320   41.8260 H   0  0  0  0  0  0  0  0  0  0  0  0
   48.1960   34.2290   40.6140 H   0  0  0  0  0  0  0  0  0  0  0  0
   47.4990   35.9300   41.1400 H   0  0  0  0  0  0  0  0  0  0  0  0
   46.3010   33.5450   44.7160 C   0  0  0  0  0  0  0  0  0  0  0  0
   45.7240   33.9270   45.7010 O   0  0  0  0  0  0  0  0  0  0  0  0
   44.5560   31.7780   42.8870 Cl  0  0  0  0  0  0  0  0  0  0  0  0
   44.5780   33.5320   42.7660 C   0  0  0  0  0  0  0  0  0  0  0  0
   45.4250   34.1880   43.6850 C   0  0  0  0  0  0  0  0  0  0  0  0
   45.3730   35.5630   43.5160 C   0  0  0  0  0  0  0  0  0  0  0  0
   44.6660   36.2920   42.6420 C   0  0  0  0  0  0  0  0  0  0  0  0
   43.8700   35.5830   41.7840 C   0  0  0  0  0  0  0  0  0  0  0  0
   43.8170   34.2360   41.8340 C   0  0  0  0  0  0  0  0  0  0  0  0
   45.9570   36.2320   44.1850 H   0  0  0  0  0  0  0  0  0  0  0  0
   44.6560   37.3600   42.5430 H   0  0  0  0  0  0  0  0  0  0  0  0
   43.2350   36.0040   41.0190 H   0  0  0  0  0  0  0  0  0  0  0  0
   42.9820   33.3380   40.9490 C   0  0  0  0  0  0  0  0  0  0  0  0
   42.2220   34.1070   40.1210 F   0  0  0  0  0  0  0  0  0  0  0  0
   42.0870   32.6380   41.7690 F   0  0  0  0  0  0  0  0  0  0  0  0
   43.7480   32.4030   40.3090 F   0  0  0  0  0  0  0  0  0  0  0  0
  1  6  1  0  0  0  0
  1 17  1  0  0  0  0
  2  1  2  0  0  0  0
  3  4  2  0  0  0  0
  3  2  1  0  0  0  0
  4  5  1  0  0  0  0
  5  8  1  0  0  0  0
  5  6  2  0  0  0  0
  7  3  1  0  0  0  0
  9  2  1  0  0  0  0
  9 12  1  0  0  0  0
 10 13  1  0  0  0  0
 10  9  1  0  0  0  0
 11 10  1  0  0  0  0
 11  9  1  0  0  0  0
 14 10  1  0  0  0  0
 15 11  1  0  0  0  0
 16 11  1  0  0  0  0
 17 18  2  0  0  0  0
 20 19  1  0  0  0  0
 20 21  1  0  0  0  0
 21 17  1  0  0  0  0
 22 21  2  0  0  0  0
 22 26  1  0  0  0  0
 23 22  1  0  0  0  0
 24 25  1  0  0  0  0
 24 23  2  0  0  0  0
 25 20  2  0  0  0  0
 27 23  1  0  0  0  0
 28 24  1  0  0  0  0
 29 31  1  0  0  0  0
 29 25  1  0  0  0  0
 30 29  1  0  0  0  0
 32 29  1  0  0  0  0
M  END
>  <minimizedAffinity>
-5.22439289

>  <minimizedRMSD>
0.511150122

$$$$
