
 OpenBabel03252505593D

 31 32  0  0  0  0  0  0  0  0999 V2000
   37.3260   28.7500   38.2700 O   0  0  0  0  0  0  0  0  0  0  0  0
   37.6430   25.5280   39.7510 C   0  0  0  0  0  0  0  0  0  0  0  0
   37.5200   25.7900   41.1140 C   0  0  0  0  0  0  0  0  0  0  0  0
   37.3240   27.1250   41.5180 C   0  0  0  0  0  0  0  0  0  0  0  0
   37.2660   28.0650   40.5520 N   0  0  0  0  0  0  0  0  0  0  0  0
   37.3870   27.7770   39.2550 C   0  0  0  0  0  0  0  0  0  0  0  0
   37.5740   26.5240   38.8500 N   0  0  0  0  0  0  0  0  0  0  0  0
   37.7970   24.4900   39.4380 H   0  0  0  0  0  0  0  0  0  0  0  0
   37.5820   24.6590   42.0890 C   0  0  0  0  0  0  0  0  0  0  0  0
   37.6770   23.5310   41.2890 F   0  0  0  0  0  0  0  0  0  0  0  0
   36.3440   24.6210   42.7380 F   0  0  0  0  0  0  0  0  0  0  0  0
   38.6200   24.8000   42.9210 F   0  0  0  0  0  0  0  0  0  0  0  0
   37.2090   27.5160   42.9430 C   0  0  0  0  0  0  0  0  0  0  0  0
   37.1300   28.9250   42.9700 F   0  0  0  0  0  0  0  0  0  0  0  0
   36.0850   27.0640   43.5690 F   0  0  0  0  0  0  0  0  0  0  0  0
   38.3830   27.2820   43.6620 F   0  0  0  0  0  0  0  0  0  0  0  0
   38.4150   29.0260   37.4330 C   0  0  0  0  0  0  0  0  0  0  0  0
   39.1610   28.2150   37.4790 H   0  0  0  0  0  0  0  0  0  0  0  0
   38.0860   29.2090   36.3920 H   0  0  0  0  0  0  0  0  0  0  0  0
   39.0520   30.2540   37.9230 C   0  0  0  0  0  0  0  0  0  0  0  0
   40.3560   30.6970   37.7710 C   0  0  0  0  0  0  0  0  0  0  0  0
   40.6940   31.8980   38.3370 C   0  0  0  0  0  0  0  0  0  0  0  0
   39.8210   32.6330   39.0140 N   0  0  0  0  0  0  0  0  0  0  0  0
   38.5620   32.1990   39.1590 C   0  0  0  0  0  0  0  0  0  0  0  0
   38.1640   31.0110   38.6180 N   0  0  0  0  0  0  0  0  0  0  0  0
   40.9660   30.0070   37.1980 H   0  0  0  0  0  0  0  0  0  0  0  0
   41.7260   32.1970   38.1870 H   0  0  0  0  0  0  0  0  0  0  0  0
   37.6690   33.0940   39.9330 C   0  0  0  0  0  0  0  0  0  0  0  0
   36.8810   33.8500   39.1020 F   0  0  0  0  0  0  0  0  0  0  0  0
   38.4200   33.9430   40.7460 F   0  0  0  0  0  0  0  0  0  0  0  0
   36.8320   32.3790   40.7690 F   0  0  0  0  0  0  0  0  0  0  0  0
  1  6  1  0  0  0  0
  2  3  1  0  0  0  0
  3  4  2  0  0  0  0
  3  9  1  0  0  0  0
  4 13  1  0  0  0  0
  5  4  1  0  0  0  0
  6  5  2  0  0  0  0
  7  6  1  0  0  0  0
  7  2  2  0  0  0  0
  8  2  1  0  0  0  0
  9 11  1  0  0  0  0
  9 12  1  0  0  0  0
 10  9  1  0  0  0  0
 13 14  1  0  0  0  0
 13 15  1  0  0  0  0
 13 16  1  0  0  0  0
 17 18  1  0  0  0  0
 17 20  1  0  0  0  0
 17  1  1  0  0  0  0
 19 17  1  0  0  0  0
 20 25  1  0  0  0  0
 21 20  2  0  0  0  0
 21 22  1  0  0  0  0
 22 23  2  0  0  0  0
 23 24  1  0  0  0  0
 24 28  1  0  0  0  0
 25 24  2  0  0  0  0
 26 21  1  0  0  0  0
 27 22  1  0  0  0  0
 28 30  1  0  0  0  0
 28 31  1  0  0  0  0
 29 28  1  0  0  0  0
M  END
>  <minimizedAffinity>
-5.77924252

$$$$

 OpenBabel03252505593D

 31 32  0  0  0  0  0  0  0  0999 V2000
   37.0310   28.8010   42.5020 O   0  0  0  0  0  0  0  0  0  0  0  0
   39.4630   31.2990   41.7780 C   0  0  0  0  0  0  0  0  0  0  0  0
   39.0740   31.7680   40.5250 C   0  0  0  0  0  0  0  0  0  0  0  0
   37.9360   31.1940   39.9240 C   0  0  0  0  0  0  0  0  0  0  0  0
   37.2960   30.2230   40.6070 N   0  0  0  0  0  0  0  0  0  0  0  0
   37.6970   29.7990   41.8070 C   0  0  0  0  0  0  0  0  0  0  0  0
   38.7670   30.3260   42.3930 N   0  0  0  0  0  0  0  0  0  0  0  0
   40.3480   31.7450   42.2440 H   0  0  0  0  0  0  0  0  0  0  0  0
   39.8550   32.8640   39.8750 C   0  0  0  0  0  0  0  0  0  0  0  0
   40.8650   33.1420   40.7840 F   0  0  0  0  0  0  0  0  0  0  0  0
   39.0120   33.9780   39.8170 F   0  0  0  0  0  0  0  0  0  0  0  0
   40.3180   32.4790   38.6810 F   0  0  0  0  0  0  0  0  0  0  0  0
   37.4550   31.6000   38.5820 C   0  0  0  0  0  0  0  0  0  0  0  0
   36.3320   30.7940   38.2950 F   0  0  0  0  0  0  0  0  0  0  0  0
   37.0230   32.8900   38.4990 F   0  0  0  0  0  0  0  0  0  0  0  0
   38.3360   31.2370   37.5610 F   0  0  0  0  0  0  0  0  0  0  0  0
   37.5480   28.2470   43.6790 C   0  0  0  0  0  0  0  0  0  0  0  0
   38.2510   28.9440   44.1650 H   0  0  0  0  0  0  0  0  0  0  0  0
   36.7390   27.9480   44.3730 H   0  0  0  0  0  0  0  0  0  0  0  0
   38.2930   27.0370   43.3120 C   0  0  0  0  0  0  0  0  0  0  0  0
   39.5670   26.6350   43.6790 C   0  0  0  0  0  0  0  0  0  0  0  0
   40.0280   25.4420   43.1880 C   0  0  0  0  0  0  0  0  0  0  0  0
   39.2990   24.6770   42.3850 N   0  0  0  0  0  0  0  0  0  0  0  0
   38.0680   25.0700   42.0340 C   0  0  0  0  0  0  0  0  0  0  0  0
   37.5520   26.2490   42.4900 N   0  0  0  0  0  0  0  0  0  0  0  0
   40.0550   27.3470   44.3350 H   0  0  0  0  0  0  0  0  0  0  0  0
   41.0310   25.1760   43.5060 H   0  0  0  0  0  0  0  0  0  0  0  0
   37.3390   24.1440   41.1350 C   0  0  0  0  0  0  0  0  0  0  0  0
   37.8890   22.8870   41.1630 F   0  0  0  0  0  0  0  0  0  0  0  0
   37.3630   24.6230   39.8240 F   0  0  0  0  0  0  0  0  0  0  0  0
   36.0090   24.0290   41.4920 F   0  0  0  0  0  0  0  0  0  0  0  0
  1 17  1  0  0  0  0
  2  8  1  0  0  0  0
  2  7  1  0  0  0  0
  3  2  2  0  0  0  0
  4  3  1  0  0  0  0
  4  5  2  0  0  0  0
  5  6  1  0  0  0  0
  6  7  2  0  0  0  0
  6  1  1  0  0  0  0
  9  3  1  0  0  0  0
  9 10  1  0  0  0  0
 11  9  1  0  0  0  0
 12  9  1  0  0  0  0
 13  4  1  0  0  0  0
 14 13  1  0  0  0  0
 15 13  1  0  0  0  0
 16 13  1  0  0  0  0
 17 18  1  0  0  0  0
 17 19  1  0  0  0  0
 20 17  1  0  0  0  0
 20 21  1  0  0  0  0
 21 26  1  0  0  0  0
 22 27  1  0  0  0  0
 22 21  2  0  0  0  0
 23 22  1  0  0  0  0
 24 23  2  0  0  0  0
 24 25  1  0  0  0  0
 25 20  2  0  0  0  0
 28 29  1  0  0  0  0
 28 31  1  0  0  0  0
 28 24  1  0  0  0  0
 30 28  1  0  0  0  0
M  END
>  <minimizedAffinity>
-5.77693415

$$$$

 OpenBabel03252505593D

 31 32  0  0  0  0  0  0  0  0999 V2000
   36.4830   28.2110   42.3040 O   0  0  0  0  0  0  0  0  0  0  0  0
   36.3710   30.3730   39.4780 C   0  0  0  0  0  0  0  0  0  0  0  0
   37.4120   31.2660   39.7180 C   0  0  0  0  0  0  0  0  0  0  0  0
   38.1670   31.1050   40.8970 C   0  0  0  0  0  0  0  0  0  0  0  0
   37.8280   30.0890   41.7180 N   0  0  0  0  0  0  0  0  0  0  0  0
   36.8230   29.2520   41.4550 C   0  0  0  0  0  0  0  0  0  0  0  0
   36.0970   29.3850   40.3490 N   0  0  0  0  0  0  0  0  0  0  0  0
   35.7840   30.5000   38.5620 H   0  0  0  0  0  0  0  0  0  0  0  0
   37.7050   32.3420   38.7220 C   0  0  0  0  0  0  0  0  0  0  0  0
   37.0850   33.4650   39.2490 F   0  0  0  0  0  0  0  0  0  0  0  0
   37.0330   31.9930   37.5470 F   0  0  0  0  0  0  0  0  0  0  0  0
   39.0230   32.4990   38.5600 F   0  0  0  0  0  0  0  0  0  0  0  0
   39.2770   32.0160   41.2620 C   0  0  0  0  0  0  0  0  0  0  0  0
   39.6440   31.6950   42.5860 F   0  0  0  0  0  0  0  0  0  0  0  0
   40.4060   31.8670   40.5130 F   0  0  0  0  0  0  0  0  0  0  0  0
   38.8640   33.3430   41.3930 F   0  0  0  0  0  0  0  0  0  0  0  0
   37.2580   27.8860   43.4240 C   0  0  0  0  0  0  0  0  0  0  0  0
   37.9490   28.7080   43.6760 H   0  0  0  0  0  0  0  0  0  0  0  0
   36.6220   27.6180   44.2900 H   0  0  0  0  0  0  0  0  0  0  0  0
   38.0640   26.7080   43.0800 C   0  0  0  0  0  0  0  0  0  0  0  0
   39.3390   26.3550   43.4930 C   0  0  0  0  0  0  0  0  0  0  0  0
   39.8650   25.1840   43.0140 C   0  0  0  0  0  0  0  0  0  0  0  0
   39.1980   24.3960   42.1810 N   0  0  0  0  0  0  0  0  0  0  0  0
   37.9660   24.7420   41.7850 C   0  0  0  0  0  0  0  0  0  0  0  0
   37.3870   25.8960   42.2270 N   0  0  0  0  0  0  0  0  0  0  0  0
   39.7730   27.0820   44.1700 H   0  0  0  0  0  0  0  0  0  0  0  0
   40.8650   24.9560   43.3690 H   0  0  0  0  0  0  0  0  0  0  0  0
   37.3090   23.7930   40.8550 C   0  0  0  0  0  0  0  0  0  0  0  0
   37.7520   22.5100   41.0590 F   0  0  0  0  0  0  0  0  0  0  0  0
   37.5630   24.1580   39.5320 F   0  0  0  0  0  0  0  0  0  0  0  0
   35.9370   23.7940   41.0120 F   0  0  0  0  0  0  0  0  0  0  0  0
  1 17  1  0  0  0  0
  2  3  2  0  0  0  0
  2  7  1  0  0  0  0
  3  4  1  0  0  0  0
  4 13  1  0  0  0  0
  4  5  2  0  0  0  0
  6  5  1  0  0  0  0
  6  1  1  0  0  0  0
  7  6  2  0  0  0  0
  8  2  1  0  0  0  0
  9 10  1  0  0  0  0
  9  3  1  0  0  0  0
 11  9  1  0  0  0  0
 12  9  1  0  0  0  0
 13 16  1  0  0  0  0
 13 14  1  0  0  0  0
 15 13  1  0  0  0  0
 17 18  1  0  0  0  0
 17 19  1  0  0  0  0
 20 17  1  0  0  0  0
 20 21  1  0  0  0  0
 21 26  1  0  0  0  0
 22 27  1  0  0  0  0
 22 21  2  0  0  0  0
 23 22  1  0  0  0  0
 24 23  2  0  0  0  0
 24 25  1  0  0  0  0
 25 20  2  0  0  0  0
 28 31  1  0  0  0  0
 28 29  1  0  0  0  0
 28 24  1  0  0  0  0
 30 28  1  0  0  0  0
M  END
>  <minimizedAffinity>
-5.70459795

$$$$

 OpenBabel03252505593D

 31 32  0  0  0  0  0  0  0  0999 V2000
   37.3990   29.4110   38.5220 O   0  0  0  0  0  0  0  0  0  0  0  0
   37.4960   26.0350   39.6500 C   0  0  0  0  0  0  0  0  0  0  0  0
   37.4540   26.1610   41.0360 C   0  0  0  0  0  0  0  0  0  0  0  0
   37.3920   27.4580   41.5840 C   0  0  0  0  0  0  0  0  0  0  0  0
   37.3760   28.4960   40.7230 N   0  0  0  0  0  0  0  0  0  0  0  0
   37.4160   28.3380   39.3990 C   0  0  0  0  0  0  0  0  0  0  0  0
   37.4760   27.1240   38.8600 N   0  0  0  0  0  0  0  0  0  0  0  0
   37.5450   25.0270   39.2240 H   0  0  0  0  0  0  0  0  0  0  0  0
   37.4580   24.9320   41.8870 C   0  0  0  0  0  0  0  0  0  0  0  0
   37.3940   23.8910   40.9740 F   0  0  0  0  0  0  0  0  0  0  0  0
   36.2620   24.9420   42.6110 F   0  0  0  0  0  0  0  0  0  0  0  0
   38.5510   24.8860   42.6570 F   0  0  0  0  0  0  0  0  0  0  0  0
   37.3720   27.7040   43.0460 C   0  0  0  0  0  0  0  0  0  0  0  0
   37.4430   29.1020   43.2210 F   0  0  0  0  0  0  0  0  0  0  0  0
   36.2310   27.3040   43.6750 F   0  0  0  0  0  0  0  0  0  0  0  0
   38.5410   27.2770   43.6790 F   0  0  0  0  0  0  0  0  0  0  0  0
   36.6160   30.5480   38.7600 C   0  0  0  0  0  0  0  0  0  0  0  0
   36.0910   30.8630   37.8420 H   0  0  0  0  0  0  0  0  0  0  0  0
   35.9030   30.3800   39.5910 H   0  0  0  0  0  0  0  0  0  0  0  0
   37.5190   31.6340   39.1590 C   0  0  0  0  0  0  0  0  0  0  0  0
   37.3220   32.6630   40.0660 C   0  0  0  0  0  0  0  0  0  0  0  0
   38.3440   33.5550   40.2540 C   0  0  0  0  0  0  0  0  0  0  0  0
   39.4950   33.4620   39.6010 N   0  0  0  0  0  0  0  0  0  0  0  0
   39.6800   32.4670   38.7240 C   0  0  0  0  0  0  0  0  0  0  0  0
   38.7000   31.5450   38.4940 N   0  0  0  0  0  0  0  0  0  0  0  0
   36.3420   32.6250   40.5310 H   0  0  0  0  0  0  0  0  0  0  0  0
   38.1360   34.3400   40.9750 H   0  0  0  0  0  0  0  0  0  0  0  0
   41.0000   32.4540   38.0490 C   0  0  0  0  0  0  0  0  0  0  0  0
   41.9490   31.8350   38.8240 F   0  0  0  0  0  0  0  0  0  0  0  0
   41.4150   33.7570   37.7740 F   0  0  0  0  0  0  0  0  0  0  0  0
   40.9460   31.7890   36.8390 F   0  0  0  0  0  0  0  0  0  0  0  0
  1 17  1  0  0  0  0
  1  6  1  0  0  0  0
  2  3  1  0  0  0  0
  3  4  2  0  0  0  0
  3  9  1  0  0  0  0
  4 13  1  0  0  0  0
  5  4  1  0  0  0  0
  6  5  2  0  0  0  0
  7  6  1  0  0  0  0
  7  2  2  0  0  0  0
  8  2  1  0  0  0  0
  9 11  1  0  0  0  0
  9 12  1  0  0  0  0
 10  9  1  0  0  0  0
 13 14  1  0  0  0  0
 13 15  1  0  0  0  0
 13 16  1  0  0  0  0
 17 20  1  0  0  0  0
 17 19  1  0  0  0  0
 18 17  1  0  0  0  0
 20 21  1  0  0  0  0
 21 22  2  0  0  0  0
 21 26  1  0  0  0  0
 22 27  1  0  0  0  0
 23 22  1  0  0  0  0
 24 23  2  0  0  0  0
 25 24  1  0  0  0  0
 25 20  2  0  0  0  0
 28 24  1  0  0  0  0
 28 29  1  0  0  0  0
 30 28  1  0  0  0  0
 31 28  1  0  0  0  0
M  END
>  <minimizedAffinity>
-5.64553738

$$$$

 OpenBabel03252505593D

 31 32  0  0  0  0  0  0  0  0999 V2000
   36.6170   29.0350   38.3550 O   0  0  0  0  0  0  0  0  0  0  0  0
   37.0510   25.7460   39.6460 C   0  0  0  0  0  0  0  0  0  0  0  0
   37.1150   25.9500   41.0230 C   0  0  0  0  0  0  0  0  0  0  0  0
   37.0040   27.2690   41.5050 C   0  0  0  0  0  0  0  0  0  0  0  0
   36.8420   28.2520   40.5940 N   0  0  0  0  0  0  0  0  0  0  0  0
   36.7850   28.0190   39.2820 C   0  0  0  0  0  0  0  0  0  0  0  0
   36.8870   26.7820   38.8050 N   0  0  0  0  0  0  0  0  0  0  0  0
   37.1390   24.7200   39.2720 H   0  0  0  0  0  0  0  0  0  0  0  0
   37.2780   24.7760   41.9340 C   0  0  0  0  0  0  0  0  0  0  0  0
   37.1310   23.6790   41.0980 F   0  0  0  0  0  0  0  0  0  0  0  0
   36.1900   24.7950   42.8110 F   0  0  0  0  0  0  0  0  0  0  0  0
   38.4650   24.8090   42.5500 F   0  0  0  0  0  0  0  0  0  0  0  0
   37.0870   27.5980   42.9470 C   0  0  0  0  0  0  0  0  0  0  0  0
   37.1560   29.0050   43.0370 F   0  0  0  0  0  0  0  0  0  0  0  0
   35.9980   27.2290   43.6790 F   0  0  0  0  0  0  0  0  0  0  0  0
   38.3030   27.2160   43.5180 F   0  0  0  0  0  0  0  0  0  0  0  0
   37.6990   29.7780   37.8670 C   0  0  0  0  0  0  0  0  0  0  0  0
   38.6270   29.1820   37.8880 H   0  0  0  0  0  0  0  0  0  0  0  0
   37.4960   30.1660   36.8500 H   0  0  0  0  0  0  0  0  0  0  0  0
   37.8830   30.9320   38.7570 C   0  0  0  0  0  0  0  0  0  0  0  0
   37.0500   32.0130   38.9900 C   0  0  0  0  0  0  0  0  0  0  0  0
   37.4690   32.9640   39.8830 C   0  0  0  0  0  0  0  0  0  0  0  0
   38.6310   32.8760   40.5170 N   0  0  0  0  0  0  0  0  0  0  0  0
   39.4330   31.8290   40.2880 C   0  0  0  0  0  0  0  0  0  0  0  0
   39.0720   30.8480   39.4100 N   0  0  0  0  0  0  0  0  0  0  0  0
   36.1340   31.9650   38.4100 H   0  0  0  0  0  0  0  0  0  0  0  0
   36.7780   33.7880   40.0270 H   0  0  0  0  0  0  0  0  0  0  0  0
   40.7070   31.8270   41.0470 C   0  0  0  0  0  0  0  0  0  0  0  0
   41.2780   33.0750   41.0610 F   0  0  0  0  0  0  0  0  0  0  0  0
   41.6050   30.9200   40.4840 F   0  0  0  0  0  0  0  0  0  0  0  0
   40.5170   31.4370   42.3590 F   0  0  0  0  0  0  0  0  0  0  0  0
  1  6  1  0  0  0  0
  2  3  1  0  0  0  0
  3  4  2  0  0  0  0
  3  9  1  0  0  0  0
  4 13  1  0  0  0  0
  5  4  1  0  0  0  0
  6  5  2  0  0  0  0
  7  6  1  0  0  0  0
  7  2  2  0  0  0  0
  8  2  1  0  0  0  0
  9 12  1  0  0  0  0
  9 11  1  0  0  0  0
 10  9  1  0  0  0  0
 13 14  1  0  0  0  0
 13 16  1  0  0  0  0
 13 15  1  0  0  0  0
 17 18  1  0  0  0  0
 17  1  1  0  0  0  0
 17 20  1  0  0  0  0
 19 17  1  0  0  0  0
 20 21  2  0  0  0  0
 20 25  1  0  0  0  0
 21 22  1  0  0  0  0
 22 27  1  0  0  0  0
 22 23  2  0  0  0  0
 24 23  1  0  0  0  0
 24 28  1  0  0  0  0
 25 24  2  0  0  0  0
 26 21  1  0  0  0  0
 28 29  1  0  0  0  0
 28 31  1  0  0  0  0
 30 28  1  0  0  0  0
M  END
>  <minimizedAffinity>
-5.56677961

$$$$

 OpenBabel03252505593D

 31 32  0  0  0  0  0  0  0  0999 V2000
   36.2560   28.1670   42.0320 O   0  0  0  0  0  0  0  0  0  0  0  0
   36.7140   31.4230   40.6650 C   0  0  0  0  0  0  0  0  0  0  0  0
   37.2970   31.1690   39.4260 C   0  0  0  0  0  0  0  0  0  0  0  0
   37.5350   29.8270   39.0660 C   0  0  0  0  0  0  0  0  0  0  0  0
   37.1770   28.8740   39.9510 N   0  0  0  0  0  0  0  0  0  0  0  0
   36.6200   29.1550   41.1300 C   0  0  0  0  0  0  0  0  0  0  0  0
   36.3860   30.4130   41.4910 N   0  0  0  0  0  0  0  0  0  0  0  0
   36.5300   32.4660   40.9450 H   0  0  0  0  0  0  0  0  0  0  0  0
   37.6310   32.3110   38.5220 C   0  0  0  0  0  0  0  0  0  0  0  0
   38.9870   32.5160   38.7270 F   0  0  0  0  0  0  0  0  0  0  0  0
   36.9490   33.4270   39.0160 F   0  0  0  0  0  0  0  0  0  0  0  0
   37.3320   32.0200   37.2510 F   0  0  0  0  0  0  0  0  0  0  0  0
   38.1760   29.4500   37.7840 C   0  0  0  0  0  0  0  0  0  0  0  0
   38.4670   28.0710   37.8700 F   0  0  0  0  0  0  0  0  0  0  0  0
   37.3830   29.5980   36.6850 F   0  0  0  0  0  0  0  0  0  0  0  0
   39.4490   30.0020   37.6360 F   0  0  0  0  0  0  0  0  0  0  0  0
   36.9870   27.9270   43.2020 C   0  0  0  0  0  0  0  0  0  0  0  0
   37.6190   28.7950   43.4560 H   0  0  0  0  0  0  0  0  0  0  0  0
   36.3220   27.6570   44.0450 H   0  0  0  0  0  0  0  0  0  0  0  0
   37.8720   26.7840   42.9460 C   0  0  0  0  0  0  0  0  0  0  0  0
   39.1370   26.5140   43.4430 C   0  0  0  0  0  0  0  0  0  0  0  0
   39.7500   25.3580   43.0360 C   0  0  0  0  0  0  0  0  0  0  0  0
   39.1750   24.5080   42.1960 N   0  0  0  0  0  0  0  0  0  0  0  0
   37.9520   24.7740   41.7190 C   0  0  0  0  0  0  0  0  0  0  0  0
   37.2890   25.9100   42.0860 N   0  0  0  0  0  0  0  0  0  0  0  0
   39.4920   27.2850   44.1170 H   0  0  0  0  0  0  0  0  0  0  0  0
   40.7380   25.1960   43.4550 H   0  0  0  0  0  0  0  0  0  0  0  0
   37.4010   23.7620   40.7870 C   0  0  0  0  0  0  0  0  0  0  0  0
   37.9070   22.5140   41.0520 F   0  0  0  0  0  0  0  0  0  0  0  0
   37.6990   24.1040   39.4680 F   0  0  0  0  0  0  0  0  0  0  0  0
   36.0240   23.6840   40.8770 F   0  0  0  0  0  0  0  0  0  0  0  0
  1 17  1  0  0  0  0
  2  8  1  0  0  0  0
  2  7  1  0  0  0  0
  3  2  2  0  0  0  0
  4  3  1  0  0  0  0
  4  5  2  0  0  0  0
  5  6  1  0  0  0  0
  6  7  2  0  0  0  0
  6  1  1  0  0  0  0
  9 10  1  0  0  0  0
  9 11  1  0  0  0  0
  9  3  1  0  0  0  0
 12  9  1  0  0  0  0
 13 14  1  0  0  0  0
 13  4  1  0  0  0  0
 15 13  1  0  0  0  0
 16 13  1  0  0  0  0
 17 18  1  0  0  0  0
 17 19  1  0  0  0  0
 20 17  1  0  0  0  0
 20 21  1  0  0  0  0
 21 26  1  0  0  0  0
 22 21  2  0  0  0  0
 22 27  1  0  0  0  0
 23 22  1  0  0  0  0
 24 25  1  0  0  0  0
 24 23  2  0  0  0  0
 25 20  2  0  0  0  0
 28 31  1  0  0  0  0
 28 29  1  0  0  0  0
 28 24  1  0  0  0  0
 30 28  1  0  0  0  0
M  END
>  <minimizedAffinity>
-5.49352646

$$$$

 OpenBabel03252505593D

 31 32  0  0  0  0  0  0  0  0999 V2000
   37.5020   30.3660   40.4380 O   0  0  0  0  0  0  0  0  0  0  0  0
   37.4440   29.7080   36.9390 C   0  0  0  0  0  0  0  0  0  0  0  0
   36.1250   29.3210   36.7100 C   0  0  0  0  0  0  0  0  0  0  0  0
   35.2410   29.2900   37.8070 C   0  0  0  0  0  0  0  0  0  0  0  0
   35.7350   29.6400   39.0130 N   0  0  0  0  0  0  0  0  0  0  0  0
   37.0050   30.0070   39.1950 C   0  0  0  0  0  0  0  0  0  0  0  0
   37.8560   30.0430   38.1750 N   0  0  0  0  0  0  0  0  0  0  0  0
   38.1300   29.7310   36.0860 H   0  0  0  0  0  0  0  0  0  0  0  0
   35.6910   28.9740   35.3220 C   0  0  0  0  0  0  0  0  0  0  0  0
   35.3110   27.6430   35.4130 F   0  0  0  0  0  0  0  0  0  0  0  0
   36.8310   29.0410   34.5170 F   0  0  0  0  0  0  0  0  0  0  0  0
   34.7000   29.7740   34.9160 F   0  0  0  0  0  0  0  0  0  0  0  0
   33.8270   28.8660   37.6770 C   0  0  0  0  0  0  0  0  0  0  0  0
   33.2300   29.0620   38.9410 F   0  0  0  0  0  0  0  0  0  0  0  0
   33.0910   29.6010   36.7960 F   0  0  0  0  0  0  0  0  0  0  0  0
   33.6920   27.4870   37.5080 F   0  0  0  0  0  0  0  0  0  0  0  0
   36.9050   29.9310   41.6280 C   0  0  0  0  0  0  0  0  0  0  0  0
   36.8780   30.7440   42.3740 H   0  0  0  0  0  0  0  0  0  0  0  0
   35.8920   29.5230   41.4440 H   0  0  0  0  0  0  0  0  0  0  0  0
   37.7320   28.8470   42.1710 C   0  0  0  0  0  0  0  0  0  0  0  0
   38.8870   28.9090   42.9330 C   0  0  0  0  0  0  0  0  0  0  0  0
   39.4670   27.7280   43.3140 C   0  0  0  0  0  0  0  0  0  0  0  0
   38.9610   26.5490   42.9770 N   0  0  0  0  0  0  0  0  0  0  0  0
   37.8440   26.4940   42.2400 C   0  0  0  0  0  0  0  0  0  0  0  0
   37.2190   27.6360   41.8300 N   0  0  0  0  0  0  0  0  0  0  0  0
   39.1950   29.9290   43.1380 H   0  0  0  0  0  0  0  0  0  0  0  0
   40.3690   27.8360   43.9080 H   0  0  0  0  0  0  0  0  0  0  0  0
   37.3630   25.1290   41.9190 C   0  0  0  0  0  0  0  0  0  0  0  0
   36.3100   24.7710   42.7240 F   0  0  0  0  0  0  0  0  0  0  0  0
   38.3940   24.2030   42.0780 F   0  0  0  0  0  0  0  0  0  0  0  0
   36.9400   25.0340   40.6080 F   0  0  0  0  0  0  0  0  0  0  0  0
  1 17  1  0  0  0  0
  2  7  1  0  0  0  0
  3  2  2  0  0  0  0
  3  4  1  0  0  0  0
  4  5  2  0  0  0  0
  5  6  1  0  0  0  0
  6  1  1  0  0  0  0
  7  6  2  0  0  0  0
  8  2  1  0  0  0  0
  9 10  1  0  0  0  0
  9  3  1  0  0  0  0
 11  9  1  0  0  0  0
 12  9  1  0  0  0  0
 13  4  1  0  0  0  0
 13 14  1  0  0  0  0
 15 13  1  0  0  0  0
 16 13  1  0  0  0  0
 17 20  1  0  0  0  0
 17 18  1  0  0  0  0
 19 17  1  0  0  0  0
 20 21  1  0  0  0  0
 21 26  1  0  0  0  0
 21 22  2  0  0  0  0
 22 27  1  0  0  0  0
 23 22  1  0  0  0  0
 24 23  2  0  0  0  0
 25 20  2  0  0  0  0
 25 24  1  0  0  0  0
 28 30  1  0  0  0  0
 28 24  1  0  0  0  0
 28 29  1  0  0  0  0
 31 28  1  0  0  0  0
M  END
>  <minimizedAffinity>
-5.36338043

$$$$

 OpenBabel03252505593D

 31 32  0  0  0  0  0  0  0  0999 V2000
   35.6880   27.4960   37.6620 O   0  0  0  0  0  0  0  0  0  0  0  0
   36.9850   24.7820   39.5670 C   0  0  0  0  0  0  0  0  0  0  0  0
   37.1660   25.3380   40.8310 C   0  0  0  0  0  0  0  0  0  0  0  0
   36.8270   26.6930   41.0160 C   0  0  0  0  0  0  0  0  0  0  0  0
   36.3450   27.3640   39.9490 N   0  0  0  0  0  0  0  0  0  0  0  0
   36.1840   26.7980   38.7520 C   0  0  0  0  0  0  0  0  0  0  0  0
   36.4980   25.5210   38.5540 N   0  0  0  0  0  0  0  0  0  0  0  0
   37.2510   23.7290   39.4230 H   0  0  0  0  0  0  0  0  0  0  0  0
   37.6910   24.4850   41.9410 C   0  0  0  0  0  0  0  0  0  0  0  0
   37.9170   23.2560   41.3420 F   0  0  0  0  0  0  0  0  0  0  0  0
   36.6450   24.3300   42.8560 F   0  0  0  0  0  0  0  0  0  0  0  0
   38.7950   25.0190   42.4740 F   0  0  0  0  0  0  0  0  0  0  0  0
   37.0070   27.3880   42.3130 C   0  0  0  0  0  0  0  0  0  0  0  0
   36.5520   28.7110   42.1270 F   0  0  0  0  0  0  0  0  0  0  0  0
   36.2690   26.8780   43.3390 F   0  0  0  0  0  0  0  0  0  0  0  0
   38.3500   27.5890   42.6330 F   0  0  0  0  0  0  0  0  0  0  0  0
   35.0470   28.7330   37.8050 C   0  0  0  0  0  0  0  0  0  0  0  0
   34.2500   28.8520   37.0520 H   0  0  0  0  0  0  0  0  0  0  0  0
   34.6510   28.8650   38.8310 H   0  0  0  0  0  0  0  0  0  0  0  0
   36.0480   29.7820   37.5730 C   0  0  0  0  0  0  0  0  0  0  0  0
   36.7740   30.0770   36.4310 C   0  0  0  0  0  0  0  0  0  0  0  0
   37.6550   31.1250   36.4860 C   0  0  0  0  0  0  0  0  0  0  0  0
   37.8270   31.8490   37.5850 N   0  0  0  0  0  0  0  0  0  0  0  0
   37.1230   31.5600   38.6860 C   0  0  0  0  0  0  0  0  0  0  0  0
   36.2290   30.5280   38.6940 N   0  0  0  0  0  0  0  0  0  0  0  0
   36.5410   29.4130   35.6070 H   0  0  0  0  0  0  0  0  0  0  0  0
   38.1970   31.3120   35.5650 H   0  0  0  0  0  0  0  0  0  0  0  0
   37.3900   32.4290   39.8570 C   0  0  0  0  0  0  0  0  0  0  0  0
   36.9400   33.7070   39.6400 F   0  0  0  0  0  0  0  0  0  0  0  0
   38.7580   32.4660   40.1290 F   0  0  0  0  0  0  0  0  0  0  0  0
   36.7700   31.9530   40.9960 F   0  0  0  0  0  0  0  0  0  0  0  0
  1 17  1  0  0  0  0
  1  6  1  0  0  0  0
  2  3  1  0  0  0  0
  3  4  2  0  0  0  0
  3  9  1  0  0  0  0
  4 13  1  0  0  0  0
  5  4  1  0  0  0  0
  6  5  2  0  0  0  0
  7  6  1  0  0  0  0
  7  2  2  0  0  0  0
  8  2  1  0  0  0  0
  9 12  1  0  0  0  0
  9 11  1  0  0  0  0
 10  9  1  0  0  0  0
 13 16  1  0  0  0  0
 13 15  1  0  0  0  0
 14 13  1  0  0  0  0
 17 19  1  0  0  0  0
 18 17  1  0  0  0  0
 20 17  1  0  0  0  0
 20 25  1  0  0  0  0
 21 22  1  0  0  0  0
 21 20  2  0  0  0  0
 22 23  2  0  0  0  0
 23 24  1  0  0  0  0
 24 25  2  0  0  0  0
 24 28  1  0  0  0  0
 26 21  1  0  0  0  0
 27 22  1  0  0  0  0
 28 30  1  0  0  0  0
 28 31  1  0  0  0  0
 29 28  1  0  0  0  0
M  END
>  <minimizedAffinity>
-5.35118246

$$$$

 OpenBabel03252505593D

 31 32  0  0  0  0  0  0  0  0999 V2000
   35.9670   29.7190   39.5520 O   0  0  0  0  0  0  0  0  0  0  0  0
   36.2310   26.2940   38.6160 C   0  0  0  0  0  0  0  0  0  0  0  0
   36.6100   25.6680   39.8010 C   0  0  0  0  0  0  0  0  0  0  0  0
   36.7760   26.4660   40.9500 C   0  0  0  0  0  0  0  0  0  0  0  0
   36.5550   27.7910   40.8240 N   0  0  0  0  0  0  0  0  0  0  0  0
   36.1920   28.3570   39.6720 C   0  0  0  0  0  0  0  0  0  0  0  0
   36.0290   27.6230   38.5740 N   0  0  0  0  0  0  0  0  0  0  0  0
   36.1030   25.6730   37.7220 H   0  0  0  0  0  0  0  0  0  0  0  0
   36.8070   24.1860   39.8200 C   0  0  0  0  0  0  0  0  0  0  0  0
   35.8000   23.7240   40.6530 F   0  0  0  0  0  0  0  0  0  0  0  0
   38.0300   23.9530   40.4550 F   0  0  0  0  0  0  0  0  0  0  0  0
   36.7380   23.6780   38.5840 F   0  0  0  0  0  0  0  0  0  0  0  0
   37.2040   25.9040   42.2530 C   0  0  0  0  0  0  0  0  0  0  0  0
   37.0910   26.9470   43.1980 F   0  0  0  0  0  0  0  0  0  0  0  0
   36.4240   24.8880   42.7190 F   0  0  0  0  0  0  0  0  0  0  0  0
   38.5720   25.6260   42.2970 F   0  0  0  0  0  0  0  0  0  0  0  0
   36.6430   30.5010   38.6080 C   0  0  0  0  0  0  0  0  0  0  0  0
   37.3780   29.8970   38.0510 H   0  0  0  0  0  0  0  0  0  0  0  0
   35.9350   31.0030   37.9200 H   0  0  0  0  0  0  0  0  0  0  0  0
   37.3740   31.5450   39.3360 C   0  0  0  0  0  0  0  0  0  0  0  0
   37.2340   32.9230   39.2890 C   0  0  0  0  0  0  0  0  0  0  0  0
   38.0560   33.6770   40.0840 C   0  0  0  0  0  0  0  0  0  0  0  0
   38.9640   33.1320   40.8830 N   0  0  0  0  0  0  0  0  0  0  0  0
   39.0960   31.8000   40.9240 C   0  0  0  0  0  0  0  0  0  0  0  0
   38.3060   30.9940   40.1560 N   0  0  0  0  0  0  0  0  0  0  0  0
   36.4580   33.2380   38.5990 H   0  0  0  0  0  0  0  0  0  0  0  0
   37.9040   34.7490   40.0080 H   0  0  0  0  0  0  0  0  0  0  0  0
   40.1400   31.2950   41.8480 C   0  0  0  0  0  0  0  0  0  0  0  0
   41.2680   32.0750   41.7970 F   0  0  0  0  0  0  0  0  0  0  0  0
   40.4780   29.9810   41.5220 F   0  0  0  0  0  0  0  0  0  0  0  0
   39.6980   31.2800   43.1570 F   0  0  0  0  0  0  0  0  0  0  0  0
  1  6  1  0  0  0  0
  2  3  1  0  0  0  0
  3  9  1  0  0  0  0
  3  4  2  0  0  0  0
  4 13  1  0  0  0  0
  5  4  1  0  0  0  0
  6  5  2  0  0  0  0
  7  2  2  0  0  0  0
  7  6  1  0  0  0  0
  8  2  1  0  0  0  0
  9 11  1  0  0  0  0
  9 10  1  0  0  0  0
 12  9  1  0  0  0  0
 13 16  1  0  0  0  0
 13 15  1  0  0  0  0
 13 14  1  0  0  0  0
 17 20  1  0  0  0  0
 17  1  1  0  0  0  0
 18 17  1  0  0  0  0
 19 17  1  0  0  0  0
 20 25  1  0  0  0  0
 21 20  2  0  0  0  0
 21 22  1  0  0  0  0
 22 23  2  0  0  0  0
 23 24  1  0  0  0  0
 24 28  1  0  0  0  0
 25 24  2  0  0  0  0
 26 21  1  0  0  0  0
 27 22  1  0  0  0  0
 28 31  1  0  0  0  0
 29 28  1  0  0  0  0
 30 28  1  0  0  0  0
M  END
>  <minimizedAffinity>
-5.30855989

$$$$
