
 OpenBabel03252509203D

 20 21  0  0  0  0  0  0  0  0999 V2000
   44.8530   35.2310   45.0130 C   0  0  0  0  0  0  0  0  0  0  0  0
   45.6250   34.8300   43.8740 C   0  0  0  0  0  0  0  0  0  0  0  0
   46.3530   33.6730   44.0750 C   0  0  0  0  0  0  0  0  0  0  0  0
   46.3240   32.9800   45.2720 N   0  0  0  0  0  0  0  0  0  0  0  0
   45.5690   33.4140   46.3110 C   0  0  0  0  0  0  0  0  0  0  0  0
   44.8450   34.5340   46.1680 N   0  0  0  0  0  0  0  0  0  0  0  0
   44.2500   36.1080   44.9840 H   0  0  0  0  0  0  0  0  0  0  0  0
   45.6970   32.7260   47.1330 H   0  0  0  0  0  0  0  0  0  0  0  0
   47.1110   33.1230   42.8980 C   0  0  0  0  0  0  0  0  0  0  0  0
   48.6180   33.3830   43.0480 C   0  0  0  0  0  0  0  0  0  0  0  0
   47.9500   31.9770   43.0980 C   0  0  0  0  0  0  0  0  0  0  0  0
   46.7620   33.5030   41.9300 H   0  0  0  0  0  0  0  0  0  0  0  0
   48.9440   33.8220   43.9930 H   0  0  0  0  0  0  0  0  0  0  0  0
   49.2280   33.5930   42.1680 H   0  0  0  0  0  0  0  0  0  0  0  0
   48.2470   31.2970   42.2450 H   0  0  0  0  0  0  0  0  0  0  0  0
   48.1090   31.4870   44.0980 H   0  0  0  0  0  0  0  0  0  0  0  0
   45.5660   35.6410   42.6630 C   0  0  0  0  0  0  0  0  0  0  0  0
   44.9820   36.8680   42.9130 F   0  0  0  0  0  0  0  0  0  0  0  0
   44.9460   34.9790   41.6260 F   0  0  0  0  0  0  0  0  0  0  0  0
   46.8510   35.9120   42.2340 F   0  0  0  0  0  0  0  0  0  0  0  0
  1  6  1  0  0  0  0
  2  3  1  0  0  0  0
  2  1  2  0  0  0  0
  3  4  2  0  0  0  0
  4  5  1  0  0  0  0
  5  8  1  0  0  0  0
  6  5  2  0  0  0  0
  7  1  1  0  0  0  0
  9 10  1  0  0  0  0
  9 11  1  0  0  0  0
  9  3  1  0  0  0  0
 10 11  1  0  0  0  0
 10 13  1  0  0  0  0
 11 16  1  0  0  0  0
 12  9  1  0  0  0  0
 14 10  1  0  0  0  0
 15 11  1  0  0  0  0
 17 18  1  0  0  0  0
 17  2  1  0  0  0  0
 19 17  1  0  0  0  0
 20 17  1  0  0  0  0
M  END
>  <minimizedAffinity>
-3.87417459

>  <minimizedRMSD>
1.68604004

$$$$
