
 OpenBabel03252501293D

 33 34  0  0  0  0  0  0  0  0999 V2000
   46.3860   31.0070   46.9090 C   0  0  0  0  0  0  0  0  0  0  0  0
   45.0610   30.6190   46.9190 C   0  0  0  0  0  0  0  0  0  0  0  0
   44.6370   29.3650   47.2280 C   0  0  0  0  0  0  0  0  0  0  0  0
   45.5810   28.4180   47.5500 C   0  0  0  0  0  0  0  0  0  0  0  0
   46.9040   28.7870   47.5450 C   0  0  0  0  0  0  0  0  0  0  0  0
   47.3190   30.0690   47.2290 C   0  0  0  0  0  0  0  0  0  0  0  0
   44.3630   31.4270   46.6500 H   0  0  0  0  0  0  0  0  0  0  0  0
   43.5710   29.2070   47.1940 H   0  0  0  0  0  0  0  0  0  0  0  0
   47.5030   27.9050   47.8250 H   0  0  0  0  0  0  0  0  0  0  0  0
   49.2510   30.3200   48.6580 C   0  0  0  0  0  0  0  0  0  0  0  0
   48.8350   30.6130   49.8390 O   0  0  0  0  0  0  0  0  0  0  0  0
   48.7400   30.0650   47.3560 N   0  0  0  0  0  0  0  0  0  0  0  0
   50.3250   30.3000   48.8990 H   0  0  0  0  0  0  0  0  0  0  0  0
   49.4670   29.9080   46.6650 H   0  0  0  0  0  0  0  0  0  0  0  0
   45.0180   27.0660   47.8750 C   0  0  0  0  0  0  0  0  0  0  0  0
   45.9560   26.0790   47.8050 F   0  0  0  0  0  0  0  0  0  0  0  0
   44.4380   27.1660   49.1410 F   0  0  0  0  0  0  0  0  0  0  0  0
   43.9610   26.8970   46.9800 F   0  0  0  0  0  0  0  0  0  0  0  0
   46.9640   32.3070   46.5910 C   0  0  0  0  0  0  0  0  0  0  0  0
   48.0130   32.4330   46.9760 H   0  0  0  0  0  0  0  0  0  0  0  0
   46.3920   33.0790   47.1500 H   0  0  0  0  0  0  0  0  0  0  0  0
   46.9840   32.5540   45.1050 C   0  0  0  0  0  0  0  0  0  0  0  0
   46.4880   31.6850   44.5900 H   0  0  0  0  0  0  0  0  0  0  0  0
   48.0150   32.6050   44.7010 H   0  0  0  0  0  0  0  0  0  0  0  0
   44.6120   35.3240   45.4450 C   0  0  0  0  0  0  0  0  0  0  0  0
   44.7130   35.9730   44.1920 C   0  0  0  0  0  0  0  0  0  0  0  0
   45.6150   35.4120   43.2730 C   0  0  0  0  0  0  0  0  0  0  0  0
   46.3200   34.3280   43.5970 N   0  0  0  0  0  0  0  0  0  0  0  0
   46.1780   33.7520   44.8140 C   0  0  0  0  0  0  0  0  0  0  0  0
   45.3590   34.2200   45.7170 N   0  0  0  0  0  0  0  0  0  0  0  0
   43.9140   35.7640   46.1500 H   0  0  0  0  0  0  0  0  0  0  0  0
   44.1570   36.8390   43.9220 H   0  0  0  0  0  0  0  0  0  0  0  0
   45.7470   35.8640   42.2770 H   0  0  0  0  0  0  0  0  0  0  0  0
  1  2  2  0  0  0  0
  1  6  1  0  0  0  0
  2  3  1  0  0  0  0
  3  4  2  0  0  0  0
  4 15  1  0  0  0  0
  5  4  1  0  0  0  0
  5  9  1  0  0  0  0
  6 12  1  0  0  0  0
  6  5  2  0  0  0  0
  7  2  1  0  0  0  0
  8  3  1  0  0  0  0
 10 13  1  0  0  0  0
 10 11  2  0  0  0  0
 12 10  1  0  0  0  0
 14 12  1  0  0  0  0
 15 17  1  0  0  0  0
 16 15  1  0  0  0  0
 18 15  1  0  0  0  0
 19  1  1  0  0  0  0
 19 20  1  0  0  0  0
 19 21  1  0  0  0  0
 22 19  1  0  0  0  0
 23 22  1  0  0  0  0
 24 22  1  0  0  0  0
 25 30  1  0  0  0  0
 25 31  1  0  0  0  0
 26 25  2  0  0  0  0
 27 28  2  0  0  0  0
 27 26  1  0  0  0  0
 28 29  1  0  0  0  0
 29 22  1  0  0  0  0
 29 30  2  0  0  0  0
 32 26  1  0  0  0  0
 33 27  1  0  0  0  0
M  END
>  <minimizedAffinity>
-4.78327417

>  <minimizedRMSD>
2.20224094

$$$$
