
 OpenBabel03252509183D

 36 38  0  0  1  0  0  0  0  0999 V2000
   46.7640   30.9610   47.0070 C   0  0  1  0  0  0  0  0  0  0  0  0
   46.9790   32.0630   47.9890 C   0  0  0  0  0  0  0  0  0  0  0  0
   45.8630   32.2660   48.9650 C   0  0  0  0  0  0  0  0  0  0  0  0
   45.3230   30.9660   49.5140 C   0  0  0  0  0  0  0  0  0  0  0  0
   45.1060   29.9290   48.4440 C   0  0  0  0  0  0  0  0  0  0  0  0
   45.2720   30.5680   47.0570 C   0  0  2  0  0  0  0  0  0  0  0  0
   47.2860   30.0560   47.3690 H   0  0  0  0  0  0  0  0  0  0  0  0
   47.0650   33.0180   47.3910 H   0  0  0  0  0  0  0  0  0  0  0  0
   47.9730   31.9770   48.4940 H   0  0  0  0  0  0  0  0  0  0  0  0
   45.0460   32.8830   48.5450 H   0  0  0  0  0  0  0  0  0  0  0  0
   46.2750   32.8210   49.8450 H   0  0  0  0  0  0  0  0  0  0  0  0
   46.0360   30.5430   50.2680 H   0  0  0  0  0  0  0  0  0  0  0  0
   44.3990   31.2060   50.0740 H   0  0  0  0  0  0  0  0  0  0  0  0
   44.0700   29.5340   48.5350 H   0  0  0  0  0  0  0  0  0  0  0  0
   45.8120   29.1000   48.5140 H   0  0  0  0  0  0  0  0  0  0  0  0
   44.6090   31.4210   46.9180 H   0  0  0  0  0  0  0  0  0  0  0  0
   47.7390   32.5680   43.3700 C   0  0  0  0  0  0  0  0  0  0  0  0
   48.2490   31.2690   43.5300 C   0  0  0  0  0  0  0  0  0  0  0  0
   47.9850   30.6300   44.6920 C   0  0  0  0  0  0  0  0  0  0  0  0
   47.2240   31.2660   45.6930 C   0  0  0  0  0  0  0  0  0  0  0  0
   46.8550   32.8810   44.9360 S   0  0  0  0  0  0  0  0  0  0  0  0
   48.8330   30.7760   42.7690 H   0  0  0  0  0  0  0  0  0  0  0  0
   48.2820   29.6400   45.0030 H   0  0  0  0  0  0  0  0  0  0  0  0
   47.8390   33.9350   39.9110 C   0  0  0  0  0  0  0  0  0  0  0  0
   48.4690   35.1800   40.1640 C   0  0  0  0  0  0  0  0  0  0  0  0
   48.8300   35.4940   41.5000 C   0  0  0  0  0  0  0  0  0  0  0  0
   48.5380   34.5590   42.4490 N   0  0  0  0  0  0  0  0  0  0  0  0
   47.9370   33.3870   42.1690 C   0  0  0  0  0  0  0  0  0  0  0  0
   47.5960   33.0900   40.9030 N   0  0  0  0  0  0  0  0  0  0  0  0
   47.5510   33.6660   38.9010 H   0  0  0  0  0  0  0  0  0  0  0  0
   48.6720   35.8730   39.3730 H   0  0  0  0  0  0  0  0  0  0  0  0
   49.3130   36.4300   41.7470 H   0  0  0  0  0  0  0  0  0  0  0  0
   45.0050   29.4540   46.0570 C   0  0  0  0  0  0  0  0  0  0  0  0
   46.0530   28.5550   46.0190 F   0  0  0  0  0  0  0  0  0  0  0  0
   43.8180   28.8330   46.3700 F   0  0  0  0  0  0  0  0  0  0  0  0
   44.8830   30.0350   44.8230 F   0  0  0  0  0  0  0  0  0  0  0  0
  1  6  1  0  0  0  0
  1  7  1  1  0  0  0
  1  2  1  0  0  0  0
  2  9  1  0  0  0  0
  2  3  1  0  0  0  0
  3  4  1  0  0  0  0
  3 11  1  0  0  0  0
  4 13  1  0  0  0  0
  4 12  1  0  0  0  0
  5 15  1  0  0  0  0
  5 14  1  0  0  0  0
  5  4  1  0  0  0  0
  6 16  1  6  0  0  0
  6  5  1  0  0  0  0
  8  2  1  0  0  0  0
 10  3  1  0  0  0  0
 17 18  2  0  0  0  0
 17 21  1  0  0  0  0
 18 19  1  0  0  0  0
 19 23  1  0  0  0  0
 19 20  2  0  0  0  0
 20  1  1  0  0  0  0
 21 20  1  0  0  0  0
 22 18  1  0  0  0  0
 24 25  2  0  0  0  0
 24 29  1  0  0  0  0
 25 26  1  0  0  0  0
 26 32  1  0  0  0  0
 26 27  2  0  0  0  0
 28 27  1  0  0  0  0
 28 17  1  0  0  0  0
 29 28  2  0  0  0  0
 30 24  1  0  0  0  0
 31 25  1  0  0  0  0
 33 35  1  0  0  0  0
 33  6  1  0  0  0  0
 34 33  1  0  0  0  0
 36 33  1  0  0  0  0
M  END
>  <minimizedAffinity>
-5.24524164

>  <minimizedRMSD>
5.00844145

$$$$
