
 OpenBabel03252508363D

 26 27  0  0  0  0  0  0  0  0999 V2000
   46.9030   33.8050   39.7550 C   0  0  0  0  0  0  0  0  0  0  0  0
   45.7260   33.4660   40.3890 C   0  0  0  0  0  0  0  0  0  0  0  0
   44.7390   32.9050   39.6160 C   0  0  0  0  0  0  0  0  0  0  0  0
   44.8850   32.6750   38.2580 C   0  0  0  0  0  0  0  0  0  0  0  0
   46.0750   33.0280   37.6670 C   0  0  0  0  0  0  0  0  0  0  0  0
   47.0950   33.5970   38.4110 C   0  0  0  0  0  0  0  0  0  0  0  0
   43.8240   32.6460   40.1320 H   0  0  0  0  0  0  0  0  0  0  0  0
   44.0690   32.2280   37.7000 H   0  0  0  0  0  0  0  0  0  0  0  0
   46.1760   32.8420   36.6020 H   0  0  0  0  0  0  0  0  0  0  0  0
   44.6580   34.9270   43.6920 C   0  0  0  0  0  0  0  0  0  0  0  0
   44.7360   34.6900   42.3180 C   0  0  0  0  0  0  0  0  0  0  0  0
   45.6270   33.7300   41.8180 C   0  0  0  0  0  0  0  0  0  0  0  0
   46.3760   33.0760   42.7290 N   0  0  0  0  0  0  0  0  0  0  0  0
   46.2900   33.3130   44.0450 C   0  0  0  0  0  0  0  0  0  0  0  0
   45.4360   34.2330   44.5190 N   0  0  0  0  0  0  0  0  0  0  0  0
   43.7530   35.8980   44.1600 N   0  0  0  0  0  0  0  0  0  0  0  0
   44.1220   35.2350   41.6390 H   0  0  0  0  0  0  0  0  0  0  0  0
   46.8800   32.8020   44.8020 H   0  0  0  0  0  0  0  0  0  0  0  0
   43.0130   36.3030   43.5430 H   0  0  0  0  0  0  0  0  0  0  0  0
   43.7920   36.2470   45.1470 H   0  0  0  0  0  0  0  0  0  0  0  0
   48.3820   33.9790   37.7740 C   0  0  0  0  0  0  0  0  0  0  0  0
   48.7380   35.2890   38.0150 F   0  0  0  0  0  0  0  0  0  0  0  0
   48.2530   33.8770   36.3910 F   0  0  0  0  0  0  0  0  0  0  0  0
   49.3720   33.1210   38.2510 F   0  0  0  0  0  0  0  0  0  0  0  0
   48.8760   34.8730   41.1090 N   0  0  0  0  0  0  0  0  0  0  0  0
   47.9820   34.3970   40.4990 C   0  0  0  0  0  0  0  0  0  0  0  0
  1  2  1  0  0  0  0
  1 26  1  0  0  0  0
  2 12  1  0  0  0  0
  3  7  1  0  0  0  0
  3  2  2  0  0  0  0
  4  3  1  0  0  0  0
  5  4  2  0  0  0  0
  5  6  1  0  0  0  0
  6  1  2  0  0  0  0
  8  4  1  0  0  0  0
  9  5  1  0  0  0  0
 10 16  1  0  0  0  0
 10 15  1  0  0  0  0
 11 10  2  0  0  0  0
 12 11  1  0  0  0  0
 12 13  2  0  0  0  0
 13 14  1  0  0  0  0
 14 15  2  0  0  0  0
 14 18  1  0  0  0  0
 16 20  1  0  0  0  0
 17 11  1  0  0  0  0
 19 16  1  0  0  0  0
 21 22  1  0  0  0  0
 21 24  1  0  0  0  0
 21  6  1  0  0  0  0
 23 21  1  0  0  0  0
 26 25  3  0  0  0  0
M  END
>  <minimizedAffinity>
-4.73781824

>  <minimizedRMSD>
1.47632241

$$$$
