
 OpenBabel03242520033D

 20 21  0  0  0  0  0  0  0  0999 V2000
   37.1190   30.3540   41.0240 C   0  0  0  0  0  0  0  0  0  0  0  0
   36.0300   29.7430   40.3950 C   0  0  0  0  0  0  0  0  0  0  0  0
   35.8350   28.5350   40.9920 C   0  0  0  0  0  0  0  0  0  0  0  0
   36.7660   28.4030   41.9500 N   0  0  0  0  0  0  0  0  0  0  0  0
   37.5410   29.5120   41.9640 N   0  0  0  0  0  0  0  0  0  0  0  0
   35.4460   30.1630   39.5760 H   0  0  0  0  0  0  0  0  0  0  0  0
   35.0540   27.8130   40.7250 H   0  0  0  0  0  0  0  0  0  0  0  0
   39.3750   33.2440   40.8550 C   0  0  0  0  0  0  0  0  0  0  0  0
   38.6640   34.1390   40.0380 C   0  0  0  0  0  0  0  0  0  0  0  0
   37.4020   33.7380   39.5480 C   0  0  0  0  0  0  0  0  0  0  0  0
   36.9480   32.5010   39.8980 N   0  0  0  0  0  0  0  0  0  0  0  0
   37.6590   31.6660   40.6840 C   0  0  0  0  0  0  0  0  0  0  0  0
   38.8700   32.0320   41.1640 N   0  0  0  0  0  0  0  0  0  0  0  0
   40.3360   33.5710   41.2180 H   0  0  0  0  0  0  0  0  0  0  0  0
   39.0360   35.1190   39.7680 H   0  0  0  0  0  0  0  0  0  0  0  0
   36.7890   34.3720   38.9120 H   0  0  0  0  0  0  0  0  0  0  0  0
   36.9050   27.2440   42.8280 C   0  0  0  0  0  0  0  0  0  0  0  0
   38.0400   27.3760   43.6390 F   0  0  0  0  0  0  0  0  0  0  0  0
   35.8180   27.1770   43.6800 F   0  0  0  0  0  0  0  0  0  0  0  0
   37.0970   26.0890   42.1240 F   0  0  0  0  0  0  0  0  0  0  0  0
  1  5  2  0  0  0  0
  2  3  2  0  0  0  0
  2  1  1  0  0  0  0
  3  4  1  0  0  0  0
  4  5  1  0  0  0  0
  4 17  1  0  0  0  0
  6  2  1  0  0  0  0
  7  3  1  0  0  0  0
  8 13  1  0  0  0  0
  8 14  1  0  0  0  0
  9  8  2  0  0  0  0
 10 11  2  0  0  0  0
 10  9  1  0  0  0  0
 11 12  1  0  0  0  0
 12  1  1  0  0  0  0
 12 13  2  0  0  0  0
 15  9  1  0  0  0  0
 16 10  1  0  0  0  0
 17 18  1  0  0  0  0
 17 19  1  0  0  0  0
 20 17  1  0  0  0  0
M  END
>  <minimizedAffinity>
-4.79815626

$$$$

 OpenBabel03242520033D

 20 21  0  0  0  0  0  0  0  0999 V2000
   38.2160   30.2550   41.7110 C   0  0  0  0  0  0  0  0  0  0  0  0
   39.1970   29.8720   42.6290 C   0  0  0  0  0  0  0  0  0  0  0  0
   38.9080   28.6030   43.0330 C   0  0  0  0  0  0  0  0  0  0  0  0
   37.7940   28.2190   42.3910 N   0  0  0  0  0  0  0  0  0  0  0  0
   37.3790   29.2270   41.5900 N   0  0  0  0  0  0  0  0  0  0  0  0
   40.0390   30.4810   42.9580 H   0  0  0  0  0  0  0  0  0  0  0  0
   39.4920   28.0180   43.7530 H   0  0  0  0  0  0  0  0  0  0  0  0
   37.0980   32.9830   39.5240 C   0  0  0  0  0  0  0  0  0  0  0  0
   38.0520   33.9840   39.7710 C   0  0  0  0  0  0  0  0  0  0  0  0
   39.0840   33.7090   40.6960 C   0  0  0  0  0  0  0  0  0  0  0  0
   39.0900   32.4850   41.2970 N   0  0  0  0  0  0  0  0  0  0  0  0
   38.1550   31.5470   41.0360 C   0  0  0  0  0  0  0  0  0  0  0  0
   37.1600   31.7910   40.1530 N   0  0  0  0  0  0  0  0  0  0  0  0
   36.3200   33.2140   38.8150 H   0  0  0  0  0  0  0  0  0  0  0  0
   38.0370   34.9520   39.2870 H   0  0  0  0  0  0  0  0  0  0  0  0
   39.8610   34.4280   40.9420 H   0  0  0  0  0  0  0  0  0  0  0  0
   37.1470   26.9190   42.5440 C   0  0  0  0  0  0  0  0  0  0  0  0
   38.0770   25.9530   42.9530 F   0  0  0  0  0  0  0  0  0  0  0  0
   36.1910   26.9920   43.5400 F   0  0  0  0  0  0  0  0  0  0  0  0
   36.6440   26.4550   41.3610 F   0  0  0  0  0  0  0  0  0  0  0  0
  1  2  1  0  0  0  0
  2  6  1  0  0  0  0
  2  3  2  0  0  0  0
  3  7  1  0  0  0  0
  4 17  1  0  0  0  0
  4  3  1  0  0  0  0
  5  1  2  0  0  0  0
  5  4  1  0  0  0  0
  8  9  2  0  0  0  0
  8 13  1  0  0  0  0
  9 10  1  0  0  0  0
 10 16  1  0  0  0  0
 10 11  2  0  0  0  0
 12 11  1  0  0  0  0
 12  1  1  0  0  0  0
 13 12  2  0  0  0  0
 14  8  1  0  0  0  0
 15  9  1  0  0  0  0
 17 18  1  0  0  0  0
 17 19  1  0  0  0  0
 20 17  1  0  0  0  0
M  END
>  <minimizedAffinity>
-4.54397774

$$$$

 OpenBabel03242520033D

 20 21  0  0  0  0  0  0  0  0999 V2000
   38.3070   30.2400   41.7690 C   0  0  0  0  0  0  0  0  0  0  0  0
   39.3230   29.8250   42.6350 C   0  0  0  0  0  0  0  0  0  0  0  0
   39.0200   28.5640   43.0510 C   0  0  0  0  0  0  0  0  0  0  0  0
   37.8630   28.2140   42.4670 N   0  0  0  0  0  0  0  0  0  0  0  0
   37.4370   29.2360   41.6900 N   0  0  0  0  0  0  0  0  0  0  0  0
   40.1980   30.4090   42.9220 H   0  0  0  0  0  0  0  0  0  0  0  0
   39.6230   27.9600   43.7390 H   0  0  0  0  0  0  0  0  0  0  0  0
   39.1880   33.6340   40.6870 C   0  0  0  0  0  0  0  0  0  0  0  0
   38.1220   33.9710   39.8370 C   0  0  0  0  0  0  0  0  0  0  0  0
   37.0980   33.0180   39.6410 C   0  0  0  0  0  0  0  0  0  0  0  0
   37.2070   31.8250   40.2910 N   0  0  0  0  0  0  0  0  0  0  0  0
   38.2480   31.5350   41.1010 C   0  0  0  0  0  0  0  0  0  0  0  0
   39.2380   32.4340   41.3020 N   0  0  0  0  0  0  0  0  0  0  0  0
   39.9580   34.3770   40.8230 H   0  0  0  0  0  0  0  0  0  0  0  0
   38.0470   34.9220   39.3260 H   0  0  0  0  0  0  0  0  0  0  0  0
   36.2390   33.2000   39.0000 H   0  0  0  0  0  0  0  0  0  0  0  0
   37.1880   26.9320   42.6500 C   0  0  0  0  0  0  0  0  0  0  0  0
   36.6110   26.5040   41.4460 F   0  0  0  0  0  0  0  0  0  0  0  0
   38.1140   25.9690   43.0080 F   0  0  0  0  0  0  0  0  0  0  0  0
   36.1500   27.0210   43.5340 F   0  0  0  0  0  0  0  0  0  0  0  0
  1  2  1  0  0  0  0
  2  6  1  0  0  0  0
  2  3  2  0  0  0  0
  3  7  1  0  0  0  0
  4 17  1  0  0  0  0
  4  3  1  0  0  0  0
  5  1  2  0  0  0  0
  5  4  1  0  0  0  0
  8 14  1  0  0  0  0
  8 13  1  0  0  0  0
  9  8  2  0  0  0  0
 10  9  1  0  0  0  0
 10 11  2  0  0  0  0
 11 12  1  0  0  0  0
 12 13  2  0  0  0  0
 12  1  1  0  0  0  0
 15  9  1  0  0  0  0
 16 10  1  0  0  0  0
 17 19  1  0  0  0  0
 17 20  1  0  0  0  0
 18 17  1  0  0  0  0
M  END
>  <minimizedAffinity>
-4.51259518

$$$$

 OpenBabel03242520033D

 20 21  0  0  0  0  0  0  0  0999 V2000
   38.4470   28.0840   42.1950 C   0  0  0  0  0  0  0  0  0  0  0  0
   39.2350   27.9740   43.3440 C   0  0  0  0  0  0  0  0  0  0  0  0
   39.4570   26.6480   43.5640 C   0  0  0  0  0  0  0  0  0  0  0  0
   38.8300   25.9670   42.5930 N   0  0  0  0  0  0  0  0  0  0  0  0
   38.2200   26.8450   41.7640 N   0  0  0  0  0  0  0  0  0  0  0  0
   39.6040   28.8020   43.9490 H   0  0  0  0  0  0  0  0  0  0  0  0
   40.0440   26.2320   44.3920 H   0  0  0  0  0  0  0  0  0  0  0  0
   38.4600   31.4210   40.6670 C   0  0  0  0  0  0  0  0  0  0  0  0
   37.0900   31.6930   40.5150 C   0  0  0  0  0  0  0  0  0  0  0  0
   36.1640   30.7170   40.9450 C   0  0  0  0  0  0  0  0  0  0  0  0
   36.6570   29.5650   41.4820 N   0  0  0  0  0  0  0  0  0  0  0  0
   37.9810   29.3370   41.6110 C   0  0  0  0  0  0  0  0  0  0  0  0
   38.8840   30.2600   41.2060 N   0  0  0  0  0  0  0  0  0  0  0  0
   39.1480   32.1800   40.3330 H   0  0  0  0  0  0  0  0  0  0  0  0
   36.7110   32.6130   40.0870 H   0  0  0  0  0  0  0  0  0  0  0  0
   35.0880   30.8510   40.8640 H   0  0  0  0  0  0  0  0  0  0  0  0
   38.8200   24.5120   42.4640 C   0  0  0  0  0  0  0  0  0  0  0  0
   39.3680   24.1240   41.2330 F   0  0  0  0  0  0  0  0  0  0  0  0
   39.6200   23.9560   43.4450 F   0  0  0  0  0  0  0  0  0  0  0  0
   37.5510   24.0070   42.4680 F   0  0  0  0  0  0  0  0  0  0  0  0
  1  2  1  0  0  0  0
  2  3  2  0  0  0  0
  2  6  1  0  0  0  0
  3  7  1  0  0  0  0
  4  3  1  0  0  0  0
  5  1  2  0  0  0  0
  5  4  1  0  0  0  0
  8 13  1  0  0  0  0
  9  8  2  0  0  0  0
  9 10  1  0  0  0  0
 10 11  2  0  0  0  0
 11 12  1  0  0  0  0
 12  1  1  0  0  0  0
 13 12  2  0  0  0  0
 14  8  1  0  0  0  0
 15  9  1  0  0  0  0
 16 10  1  0  0  0  0
 17 20  1  0  0  0  0
 17  4  1  0  0  0  0
 17 19  1  0  0  0  0
 18 17  1  0  0  0  0
M  END
>  <minimizedAffinity>
-4.33157396

$$$$

 OpenBabel03242520033D

 20 21  0  0  0  0  0  0  0  0999 V2000
   37.7370   30.0980   41.3370 C   0  0  0  0  0  0  0  0  0  0  0  0
   36.5140   30.3330   40.7020 C   0  0  0  0  0  0  0  0  0  0  0  0
   36.5500   31.5970   40.1950 C   0  0  0  0  0  0  0  0  0  0  0  0
   37.7460   32.1220   40.5050 N   0  0  0  0  0  0  0  0  0  0  0  0
   38.4610   31.2060   41.1970 N   0  0  0  0  0  0  0  0  0  0  0  0
   35.6850   29.6290   40.6290 H   0  0  0  0  0  0  0  0  0  0  0  0
   35.7380   32.0810   39.6390 H   0  0  0  0  0  0  0  0  0  0  0  0
   39.6600   27.6340   43.2600 C   0  0  0  0  0  0  0  0  0  0  0  0
   38.8000   26.5230   43.2810 C   0  0  0  0  0  0  0  0  0  0  0  0
   37.5530   26.6320   42.6260 C   0  0  0  0  0  0  0  0  0  0  0  0
   37.2580   27.8130   42.0110 N   0  0  0  0  0  0  0  0  0  0  0  0
   38.1100   28.8610   42.0130 C   0  0  0  0  0  0  0  0  0  0  0  0
   39.3080   28.7760   42.6340 N   0  0  0  0  0  0  0  0  0  0  0  0
   40.6060   27.5290   43.7670 H   0  0  0  0  0  0  0  0  0  0  0  0
   39.0450   25.5910   43.7720 H   0  0  0  0  0  0  0  0  0  0  0  0
   36.8320   25.8190   42.5940 H   0  0  0  0  0  0  0  0  0  0  0  0
   38.1870   33.4660   40.1440 C   0  0  0  0  0  0  0  0  0  0  0  0
   39.1980   33.4070   39.1740 F   0  0  0  0  0  0  0  0  0  0  0  0
   37.1360   34.1610   39.5750 F   0  0  0  0  0  0  0  0  0  0  0  0
   38.7450   34.1240   41.2040 F   0  0  0  0  0  0  0  0  0  0  0  0
  1 12  1  0  0  0  0
  2  1  1  0  0  0  0
  3  4  1  0  0  0  0
  3  2  2  0  0  0  0
  4  5  1  0  0  0  0
  5  1  2  0  0  0  0
  6  2  1  0  0  0  0
  7  3  1  0  0  0  0
  8  9  1  0  0  0  0
  8 14  1  0  0  0  0
  9 15  1  0  0  0  0
 10  9  2  0  0  0  0
 11 12  2  0  0  0  0
 11 10  1  0  0  0  0
 12 13  1  0  0  0  0
 13  8  2  0  0  0  0
 16 10  1  0  0  0  0
 17  4  1  0  0  0  0
 17 20  1  0  0  0  0
 18 17  1  0  0  0  0
 19 17  1  0  0  0  0
M  END
>  <minimizedAffinity>
-4.25395107

$$$$

 OpenBabel03242520033D

 20 21  0  0  0  0  0  0  0  0999 V2000
   37.0900   28.8370   40.2030 C   0  0  0  0  0  0  0  0  0  0  0  0
   36.9070   27.7350   39.3630 C   0  0  0  0  0  0  0  0  0  0  0  0
   36.8500   26.6240   40.1490 C   0  0  0  0  0  0  0  0  0  0  0  0
   36.9940   27.0230   41.4220 N   0  0  0  0  0  0  0  0  0  0  0  0
   37.1390   28.3670   41.4470 N   0  0  0  0  0  0  0  0  0  0  0  0
   36.8230   27.7660   38.2760 H   0  0  0  0  0  0  0  0  0  0  0  0
   36.7120   25.5980   39.7880 H   0  0  0  0  0  0  0  0  0  0  0  0
   37.3340   32.4980   40.2770 C   0  0  0  0  0  0  0  0  0  0  0  0
   37.4160   32.8270   38.9130 C   0  0  0  0  0  0  0  0  0  0  0  0
   37.3860   31.7760   37.9700 C   0  0  0  0  0  0  0  0  0  0  0  0
   37.2790   30.5010   38.4420 N   0  0  0  0  0  0  0  0  0  0  0  0
   37.2040   30.2220   39.7600 C   0  0  0  0  0  0  0  0  0  0  0  0
   37.2310   31.2150   40.6790 N   0  0  0  0  0  0  0  0  0  0  0  0
   37.3590   33.3160   40.9790 H   0  0  0  0  0  0  0  0  0  0  0  0
   37.5000   33.8440   38.5510 H   0  0  0  0  0  0  0  0  0  0  0  0
   37.4430   31.9460   36.8980 H   0  0  0  0  0  0  0  0  0  0  0  0
   36.9920   26.1350   42.5820 C   0  0  0  0  0  0  0  0  0  0  0  0
   38.2910   25.9840   43.0870 F   0  0  0  0  0  0  0  0  0  0  0  0
   36.2380   26.6990   43.5940 F   0  0  0  0  0  0  0  0  0  0  0  0
   36.5820   24.8720   42.2580 F   0  0  0  0  0  0  0  0  0  0  0  0
  1  5  2  0  0  0  0
  2  3  2  0  0  0  0
  2  1  1  0  0  0  0
  3  4  1  0  0  0  0
  4  5  1  0  0  0  0
  4 17  1  0  0  0  0
  6  2  1  0  0  0  0
  7  3  1  0  0  0  0
  8 13  1  0  0  0  0
  8 14  1  0  0  0  0
  9  8  2  0  0  0  0
 10 11  2  0  0  0  0
 10  9  1  0  0  0  0
 11 12  1  0  0  0  0
 12  1  1  0  0  0  0
 12 13  2  0  0  0  0
 15  9  1  0  0  0  0
 16 10  1  0  0  0  0
 17 18  1  0  0  0  0
 17 19  1  0  0  0  0
 20 17  1  0  0  0  0
M  END
>  <minimizedAffinity>
-4.14659023

$$$$

 OpenBabel03242520033D

 20 21  0  0  0  0  0  0  0  0999 V2000
   37.6320   29.4410   41.3250 C   0  0  0  0  0  0  0  0  0  0  0  0
   36.3140   29.8710   41.1480 C   0  0  0  0  0  0  0  0  0  0  0  0
   36.3580   31.1680   40.7340 C   0  0  0  0  0  0  0  0  0  0  0  0
   37.6500   31.5250   40.6590 N   0  0  0  0  0  0  0  0  0  0  0  0
   38.4180   30.4710   41.0190 N   0  0  0  0  0  0  0  0  0  0  0  0
   35.4180   29.2730   41.3120 H   0  0  0  0  0  0  0  0  0  0  0  0
   35.4850   31.7920   40.5080 H   0  0  0  0  0  0  0  0  0  0  0  0
   37.4570   25.9000   42.2750 C   0  0  0  0  0  0  0  0  0  0  0  0
   38.7920   25.6030   42.5950 C   0  0  0  0  0  0  0  0  0  0  0  0
   39.7510   26.6330   42.4800 C   0  0  0  0  0  0  0  0  0  0  0  0
   39.3220   27.8580   42.0640 N   0  0  0  0  0  0  0  0  0  0  0  0
   38.0300   28.1080   41.7640 C   0  0  0  0  0  0  0  0  0  0  0  0
   37.0960   27.1340   41.8680 N   0  0  0  0  0  0  0  0  0  0  0  0
   36.7420   25.0990   42.3700 H   0  0  0  0  0  0  0  0  0  0  0  0
   39.1210   24.6250   42.9240 H   0  0  0  0  0  0  0  0  0  0  0  0
   40.8040   26.4850   42.7090 H   0  0  0  0  0  0  0  0  0  0  0  0
   38.1320   32.8420   40.2520 C   0  0  0  0  0  0  0  0  0  0  0  0
   38.7210   33.5060   41.3370 F   0  0  0  0  0  0  0  0  0  0  0  0
   39.1180   32.6980   39.2940 F   0  0  0  0  0  0  0  0  0  0  0  0
   37.1130   33.6560   39.8430 F   0  0  0  0  0  0  0  0  0  0  0  0
  1 12  1  0  0  0  0
  2  6  1  0  0  0  0
  2  1  1  0  0  0  0
  3  2  2  0  0  0  0
  4  3  1  0  0  0  0
  4  5  1  0  0  0  0
  5  1  2  0  0  0  0
  7  3  1  0  0  0  0
  8 14  1  0  0  0  0
  8  9  1  0  0  0  0
  9 15  1  0  0  0  0
 10  9  2  0  0  0  0
 10 16  1  0  0  0  0
 11 10  1  0  0  0  0
 12 13  1  0  0  0  0
 12 11  2  0  0  0  0
 13  8  2  0  0  0  0
 17  4  1  0  0  0  0
 17 18  1  0  0  0  0
 19 17  1  0  0  0  0
 20 17  1  0  0  0  0
M  END
>  <minimizedAffinity>
-4.1071949

$$$$

 OpenBabel03242520033D

 20 21  0  0  0  0  0  0  0  0999 V2000
   38.2840   29.9980   41.4530 C   0  0  0  0  0  0  0  0  0  0  0  0
   39.3040   30.7140   42.0850 C   0  0  0  0  0  0  0  0  0  0  0  0
   39.4190   31.9140   41.4500 C   0  0  0  0  0  0  0  0  0  0  0  0
   38.5070   31.9370   40.4660 N   0  0  0  0  0  0  0  0  0  0  0  0
   37.8220   30.7710   40.4740 N   0  0  0  0  0  0  0  0  0  0  0  0
   39.8970   30.3700   42.9330 H   0  0  0  0  0  0  0  0  0  0  0  0
   40.1330   32.7040   41.7100 H   0  0  0  0  0  0  0  0  0  0  0  0
   37.7780   26.3630   41.3920 C   0  0  0  0  0  0  0  0  0  0  0  0
   36.9970   26.1430   42.5380 C   0  0  0  0  0  0  0  0  0  0  0  0
   36.6470   27.2590   43.3310 C   0  0  0  0  0  0  0  0  0  0  0  0
   37.0900   28.4850   42.9350 N   0  0  0  0  0  0  0  0  0  0  0  0
   37.8410   28.6590   41.8260 C   0  0  0  0  0  0  0  0  0  0  0  0
   38.1860   27.6040   41.0530 N   0  0  0  0  0  0  0  0  0  0  0  0
   38.0330   25.4980   40.8010 H   0  0  0  0  0  0  0  0  0  0  0  0
   36.6510   25.1640   42.8430 H   0  0  0  0  0  0  0  0  0  0  0  0
   36.0450   27.1740   44.2330 H   0  0  0  0  0  0  0  0  0  0  0  0
   38.3010   33.0510   39.5430 C   0  0  0  0  0  0  0  0  0  0  0  0
   38.0050   32.5760   38.2580 F   0  0  0  0  0  0  0  0  0  0  0  0
   37.2090   33.7930   39.9510 F   0  0  0  0  0  0  0  0  0  0  0  0
   39.4290   33.8080   39.3960 F   0  0  0  0  0  0  0  0  0  0  0  0
  1 12  1  0  0  0  0
  1  2  1  0  0  0  0
  2  6  1  0  0  0  0
  3  7  1  0  0  0  0
  3  2  2  0  0  0  0
  4  5  1  0  0  0  0
  4  3  1  0  0  0  0
  5  1  2  0  0  0  0
  8  9  1  0  0  0  0
  9 15  1  0  0  0  0
  9 10  2  0  0  0  0
 10 16  1  0  0  0  0
 11 10  1  0  0  0  0
 12 11  2  0  0  0  0
 13  8  2  0  0  0  0
 13 12  1  0  0  0  0
 14  8  1  0  0  0  0
 17 19  1  0  0  0  0
 17  4  1  0  0  0  0
 18 17  1  0  0  0  0
 20 17  1  0  0  0  0
M  END
>  <minimizedAffinity>
-4.02566004

$$$$

 OpenBabel03242520033D

 20 21  0  0  0  0  0  0  0  0999 V2000
   38.6530   28.3820   42.1340 C   0  0  0  0  0  0  0  0  0  0  0  0
   39.3550   29.5040   42.5830 C   0  0  0  0  0  0  0  0  0  0  0  0
   38.7520   30.6050   42.0530 C   0  0  0  0  0  0  0  0  0  0  0  0
   37.7210   30.1800   41.3060 N   0  0  0  0  0  0  0  0  0  0  0  0
   37.6670   28.8290   41.3600 N   0  0  0  0  0  0  0  0  0  0  0  0
   40.2250   29.4950   43.2390 H   0  0  0  0  0  0  0  0  0  0  0  0
   39.0670   31.6420   42.2170 H   0  0  0  0  0  0  0  0  0  0  0  0
   40.3170   25.4620   43.6090 C   0  0  0  0  0  0  0  0  0  0  0  0
   39.5670   24.3910   43.0950 C   0  0  0  0  0  0  0  0  0  0  0  0
   38.4840   24.6850   42.2370 C   0  0  0  0  0  0  0  0  0  0  0  0
   38.2310   25.9950   41.9580 N   0  0  0  0  0  0  0  0  0  0  0  0
   38.9740   26.9990   42.4710 C   0  0  0  0  0  0  0  0  0  0  0  0
   40.0150   26.7380   43.2940 N   0  0  0  0  0  0  0  0  0  0  0  0
   41.1390   25.2140   44.2610 H   0  0  0  0  0  0  0  0  0  0  0  0
   39.7780   23.3540   43.3240 H   0  0  0  0  0  0  0  0  0  0  0  0
   37.8560   23.9140   41.7980 H   0  0  0  0  0  0  0  0  0  0  0  0
   36.8130   31.0490   40.5620 C   0  0  0  0  0  0  0  0  0  0  0  0
   36.8800   30.7690   39.1900 F   0  0  0  0  0  0  0  0  0  0  0  0
   35.5110   30.8000   40.9520 F   0  0  0  0  0  0  0  0  0  0  0  0
   37.1560   32.3670   40.6770 F   0  0  0  0  0  0  0  0  0  0  0  0
  1 12  1  0  0  0  0
  1  2  1  0  0  0  0
  2  6  1  0  0  0  0
  3  7  1  0  0  0  0
  3  2  2  0  0  0  0
  4  5  1  0  0  0  0
  4  3  1  0  0  0  0
  5  1  2  0  0  0  0
  8 14  1  0  0  0  0
  9 15  1  0  0  0  0
  9  8  2  0  0  0  0
 10  9  1  0  0  0  0
 11 10  2  0  0  0  0
 11 12  1  0  0  0  0
 12 13  2  0  0  0  0
 13  8  1  0  0  0  0
 16 10  1  0  0  0  0
 17 20  1  0  0  0  0
 17 19  1  0  0  0  0
 17  4  1  0  0  0  0
 18 17  1  0  0  0  0
M  END
>  <minimizedAffinity>
-4.02073479

$$$$
