
 OpenBabel03242515143D

 29 30  0  0  0  0  0  0  0  0999 V2000
   46.6440   32.7950   46.4800 C   0  0  0  0  0  0  0  0  0  0  0  0
   47.4630   33.2740   47.0540 H   0  0  0  0  0  0  0  0  0  0  0  0
   47.0990   31.9790   45.8890 H   0  0  0  0  0  0  0  0  0  0  0  0
   44.5500   35.4850   44.9200 C   0  0  0  0  0  0  0  0  0  0  0  0
   45.1150   35.5110   43.6250 C   0  0  0  0  0  0  0  0  0  0  0  0
   46.1560   34.6260   43.3680 C   0  0  0  0  0  0  0  0  0  0  0  0
   46.5460   33.8120   44.3750 N   0  0  0  0  0  0  0  0  0  0  0  0
   45.9860   33.8120   45.5970 C   0  0  0  0  0  0  0  0  0  0  0  0
   44.9830   34.6560   45.8620 N   0  0  0  0  0  0  0  0  0  0  0  0
   43.7500   36.1550   45.1380 H   0  0  0  0  0  0  0  0  0  0  0  0
   44.7400   36.2020   42.8700 H   0  0  0  0  0  0  0  0  0  0  0  0
   46.7310   34.6650   42.0240 C   0  0  0  0  0  0  0  0  0  0  0  0
   47.4990   33.5290   41.8170 F   0  0  0  0  0  0  0  0  0  0  0  0
   47.6290   35.7230   42.0140 F   0  0  0  0  0  0  0  0  0  0  0  0
   45.7760   34.7560   41.0430 F   0  0  0  0  0  0  0  0  0  0  0  0
   45.6510   32.1420   47.4060 C   0  0  0  0  0  0  0  0  0  0  0  0
   44.6950   32.7050   47.2960 H   0  0  0  0  0  0  0  0  0  0  0  0
   46.0100   32.3100   48.4180 H   0  0  0  0  0  0  0  0  0  0  0  0
   45.4910   30.7080   47.0880 C   0  0  0  0  0  0  0  0  0  0  0  0
   45.6190   30.0540   45.8960 C   0  0  0  0  0  0  0  0  0  0  0  0
   45.3660   28.7260   46.1440 C   0  0  0  0  0  0  0  0  0  0  0  0
   45.0950   28.5880   47.4440 N   0  0  0  0  0  0  0  0  0  0  0  0
   45.1750   29.7940   47.9990 N   0  0  0  0  0  0  0  0  0  0  0  0
   45.8740   30.5280   44.9520 H   0  0  0  0  0  0  0  0  0  0  0  0
   45.3890   27.9310   45.3860 H   0  0  0  0  0  0  0  0  0  0  0  0
   44.7660   27.3500   48.1660 C   0  0  0  0  0  0  0  0  0  0  0  0
   44.3140   27.6610   49.4550 F   0  0  0  0  0  0  0  0  0  0  0  0
   45.8330   26.5050   48.1630 F   0  0  0  0  0  0  0  0  0  0  0  0
   43.7090   26.7390   47.5180 F   0  0  0  0  0  0  0  0  0  0  0  0
  1  2  1  0  0  0  0
  1 16  1  0  0  0  0
  3  1  1  0  0  0  0
  4 10  1  0  0  0  0
  4  9  1  0  0  0  0
  5  4  2  0  0  0  0
  6  5  1  0  0  0  0
  6  7  2  0  0  0  0
  7  8  1  0  0  0  0
  8  9  2  0  0  0  0
  8  1  1  0  0  0  0
 11  5  1  0  0  0  0
 12  6  1  0  0  0  0
 13 12  1  0  0  0  0
 14 12  1  0  0  0  0
 15 12  1  0  0  0  0
 16 18  1  0  0  0  0
 17 16  1  0  0  0  0
 19 16  1  0  0  0  0
 19 23  2  0  0  0  0
 20 21  2  0  0  0  0
 20 19  1  0  0  0  0
 21 22  1  0  0  0  0
 22 23  1  0  0  0  0
 22 26  1  0  0  0  0
 24 20  1  0  0  0  0
 25 21  1  0  0  0  0
 26 27  1  0  0  0  0
 28 26  1  0  0  0  0
 29 26  1  0  0  0  0
M  END
>  <minimizedAffinity>
-5.19072962

>  <minimizedRMSD>
1.58824384

$$$$
