
     RDKit          3D

 36 38  0  0  0  0  0  0  0  0999 V2000
   45.2837   35.2949   43.1144 Cl  0  0  0  0  0  0  0  0  0  0  0  0
   45.1643   34.5440   41.5517 C   0  0  0  0  0  0  0  0  0  0  0  0
   46.2767   34.1614   40.8797 C   0  0  0  0  0  0  0  0  0  0  0  0
   46.0700   33.5594   39.6460 C   0  0  0  0  0  0  0  0  0  0  0  0
   44.8169   33.3591   39.1255 C   0  0  0  0  0  0  0  0  0  0  0  0
   43.7199   33.7521   39.8198 C   0  0  0  0  0  0  0  0  0  0  0  0
   43.9074   34.3506   41.0466 C   0  0  0  0  0  0  0  0  0  0  0  0
   49.5506   35.7450   41.8860 C   0  0  0  0  0  0  0  0  0  0  0  0
   48.2902   35.5504   41.3087 C   0  0  0  0  0  0  0  0  0  0  0  0
   47.5758   34.3772   41.4647 C   0  0  0  0  0  0  0  0  0  0  0  0
   48.1890   33.4312   42.2186 N   0  0  0  0  0  0  0  0  0  0  0  0
   49.4020   33.6154   42.7756 C   0  0  0  0  0  0  0  0  0  0  0  0
   50.0693   34.7616   42.6070 N   0  0  0  0  0  0  0  0  0  0  0  0
   47.7876   31.8783   38.9955 C   0  0  0  0  0  0  0  0  0  0  0  0
   47.2292   33.1150   38.8791 C   0  0  0  0  0  0  0  0  0  0  0  0
   47.7607   34.0286   37.9876 C   0  0  0  0  0  0  0  0  0  0  0  0
   48.8506   33.6770   37.2261 C   0  0  0  0  0  0  0  0  0  0  0  0
   49.4467   32.4256   37.3173 C   0  0  0  0  0  0  0  0  0  0  0  0
   48.8882   31.5329   38.2221 C   0  0  0  0  0  0  0  0  0  0  0  0
   47.1913   30.7139   40.0382 S   0  0  0  0  0  0  0  0  0  0  0  0
   46.8330   29.4574   39.2425 O   0  0  0  0  0  0  0  0  0  0  0  0
   48.4001   30.2730   40.8990 O   0  0  0  0  0  0  0  0  0  0  0  0
   44.6823   32.8819   38.1480 H   0  0  0  0  0  0  0  0  0  0  0  0
   42.7172   33.6061   39.4329 H   0  0  0  0  0  0  0  0  0  0  0  0
   43.0217   34.6566   41.5849 H   0  0  0  0  0  0  0  0  0  0  0  0
   49.9765   36.7149   41.6701 H   0  0  0  0  0  0  0  0  0  0  0  0
   47.8117   36.3154   40.7083 H   0  0  0  0  0  0  0  0  0  0  0  0
   49.8762   32.8522   43.3730 H   0  0  0  0  0  0  0  0  0  0  0  0
   47.3203   35.0232   37.8867 H   0  0  0  0  0  0  0  0  0  0  0  0
   49.2216   34.4286   36.5492 H   0  0  0  0  0  0  0  0  0  0  0  0
   50.2942   32.1526   36.7247 H   0  0  0  0  0  0  0  0  0  0  0  0
   49.3604   30.5662   38.2829 H   0  0  0  0  0  0  0  0  0  0  0  0
   45.9136   30.6944   41.1018 C   0  0  0  0  0  0  0  0  0  0  0  0
   44.9189   31.6100   41.1645 F   0  0  0  0  0  0  0  0  0  0  0  0
   46.4501   30.9829   42.3713 F   0  0  0  0  0  0  0  0  0  0  0  0
   45.4144   29.4032   41.4433 F   0  0  0  0  0  0  0  0  0  0  0  0
  2  1  1  0
  3 10  1  0
  3  2  2  0
  4  3  1  0
  5  4  2  0
  5  6  1  0
  6  7  2  0
  7  2  1  0
  8 13  2  0
  9 10  2  0
  9  8  1  0
 10 11  1  0
 11 12  2  0
 13 12  1  0
 14 20  1  0
 15 14  2  0
 15  4  1  0
 16 15  1  0
 17 18  1  0
 17 16  2  0
 18 19  2  0
 19 14  1  0
 20 22  2  0
 21 20  2  0
  5 23  1  0
  6 24  1  0
  7 25  1  0
  8 26  1  0
  9 27  1  0
 12 28  1  0
 16 29  1  0
 17 30  1  0
 18 31  1  0
 19 32  1  0
 33 34  1  0
 33 35  1  0
 33 36  1  0
 20 33  1  0
M  ISO  8  23  14  24  14  25  14  26  14  27  14  28  14  29  14  30  14
M  ISO  2  31  14  32  14
M  END
>  <DihAtoms>  (1) 
13,19,32,33

>  <DihDeg>  (1) 
-62.58892184173746

$$$$
