
 OpenBabel03252508273D

 20 21  0  0  0  0  0  0  0  0999 V2000
   37.2560   30.4770   41.0680 C   0  0  0  0  0  0  0  0  0  0  0  0
   36.0920   30.0060   40.5260 C   0  0  0  0  0  0  0  0  0  0  0  0
   35.7750   28.7900   41.0870 C   0  0  0  0  0  0  0  0  0  0  0  0
   36.7580   28.5350   41.9700 N   0  0  0  0  0  0  0  0  0  0  0  0
   37.6370   29.5270   41.9660 N   0  0  0  0  0  0  0  0  0  0  0  0
   35.5040   30.5290   39.7550 H   0  0  0  0  0  0  0  0  0  0  0  0
   34.9190   28.1420   40.8840 H   0  0  0  0  0  0  0  0  0  0  0  0
   39.8280   33.2110   40.6980 C   0  0  0  0  0  0  0  0  0  0  0  0
   39.2820   31.9580   41.0570 C   0  0  0  0  0  0  0  0  0  0  0  0
   37.9380   31.7270   40.7520 C   0  0  0  0  0  0  0  0  0  0  0  0
   37.2190   32.7060   40.1280 N   0  0  0  0  0  0  0  0  0  0  0  0
   37.7900   33.8990   39.8020 C   0  0  0  0  0  0  0  0  0  0  0  0
   39.0770   34.1300   40.0910 N   0  0  0  0  0  0  0  0  0  0  0  0
   40.8700   33.3590   40.9480 H   0  0  0  0  0  0  0  0  0  0  0  0
   39.8150   31.1590   41.5500 H   0  0  0  0  0  0  0  0  0  0  0  0
   37.2240   34.6860   39.3050 H   0  0  0  0  0  0  0  0  0  0  0  0
   36.9230   27.3830   42.8420 C   0  0  0  0  0  0  0  0  0  0  0  0
   38.0820   27.5040   43.5450 F   0  0  0  0  0  0  0  0  0  0  0  0
   35.8270   27.3190   43.6800 F   0  0  0  0  0  0  0  0  0  0  0  0
   36.9710   26.1910   42.1350 F   0  0  0  0  0  0  0  0  0  0  0  0
  1  5  2  0  0  0  0
  2  1  1  0  0  0  0
  2  3  2  0  0  0  0
  3  4  1  0  0  0  0
  4 17  1  0  0  0  0
  5  4  1  0  0  0  0
  6  2  1  0  0  0  0
  7  3  1  0  0  0  0
  8 14  1  0  0  0  0
  8  9  1  0  0  0  0
  9 15  1  0  0  0  0
 10  9  2  0  0  0  0
 10  1  1  0  0  0  0
 11 10  1  0  0  0  0
 12 13  1  0  0  0  0
 12 11  2  0  0  0  0
 13  8  2  0  0  0  0
 16 12  1  0  0  0  0
 17 18  1  0  0  0  0
 17 19  1  0  0  0  0
 20 17  1  0  0  0  0
M  END
>  <minimizedAffinity>
-4.79500914

$$$$

 OpenBabel03252508273D

 20 21  0  0  0  0  0  0  0  0999 V2000
   37.3650   29.9480   40.7900 C   0  0  0  0  0  0  0  0  0  0  0  0
   36.8740   29.0360   39.8970 C   0  0  0  0  0  0  0  0  0  0  0  0
   36.6360   27.8400   40.5360 C   0  0  0  0  0  0  0  0  0  0  0  0
   36.9890   28.0420   41.8190 N   0  0  0  0  0  0  0  0  0  0  0  0
   37.4210   29.2850   41.9780 N   0  0  0  0  0  0  0  0  0  0  0  0
   36.6980   29.2370   38.8290 H   0  0  0  0  0  0  0  0  0  0  0  0
   36.2460   26.9060   40.1240 H   0  0  0  0  0  0  0  0  0  0  0  0
   37.4310   33.5260   39.5980 C   0  0  0  0  0  0  0  0  0  0  0  0
   36.9500   32.2100   39.7870 C   0  0  0  0  0  0  0  0  0  0  0  0
   37.7470   31.3310   40.5240 C   0  0  0  0  0  0  0  0  0  0  0  0
   38.9390   31.7710   41.0230 N   0  0  0  0  0  0  0  0  0  0  0  0
   39.3610   33.0490   40.8140 C   0  0  0  0  0  0  0  0  0  0  0  0
   38.6040   33.9000   40.1090 N   0  0  0  0  0  0  0  0  0  0  0  0
   36.7910   34.1820   39.0240 H   0  0  0  0  0  0  0  0  0  0  0  0
   36.0160   31.8240   39.4100 H   0  0  0  0  0  0  0  0  0  0  0  0
   40.3110   33.4090   41.2090 H   0  0  0  0  0  0  0  0  0  0  0  0
   36.9420   27.1100   42.9340 C   0  0  0  0  0  0  0  0  0  0  0  0
   38.0750   27.2310   43.6790 F   0  0  0  0  0  0  0  0  0  0  0  0
   35.8140   27.3890   43.6790 F   0  0  0  0  0  0  0  0  0  0  0  0
   36.8430   25.7910   42.5140 F   0  0  0  0  0  0  0  0  0  0  0  0
  1  5  2  0  0  0  0
  2  3  2  0  0  0  0
  2  1  1  0  0  0  0
  3  4  1  0  0  0  0
  4  5  1  0  0  0  0
  4 17  1  0  0  0  0
  6  2  1  0  0  0  0
  7  3  1  0  0  0  0
  8  9  2  0  0  0  0
  8 13  1  0  0  0  0
  9 10  1  0  0  0  0
 10  1  1  0  0  0  0
 10 11  2  0  0  0  0
 12 11  1  0  0  0  0
 12 16  1  0  0  0  0
 13 12  2  0  0  0  0
 14  8  1  0  0  0  0
 15  9  1  0  0  0  0
 17 18  1  0  0  0  0
 17 19  1  0  0  0  0
 20 17  1  0  0  0  0
M  END
>  <minimizedAffinity>
-4.64848852

$$$$

 OpenBabel03252508273D

 20 21  0  0  0  0  0  0  0  0999 V2000
   38.2680   30.3470   41.6900 C   0  0  0  0  0  0  0  0  0  0  0  0
   39.2600   29.9270   42.5320 C   0  0  0  0  0  0  0  0  0  0  0  0
   38.9840   28.6540   42.9790 C   0  0  0  0  0  0  0  0  0  0  0  0
   37.8190   28.3150   42.3980 N   0  0  0  0  0  0  0  0  0  0  0  0
   37.3880   29.3090   41.6340 N   0  0  0  0  0  0  0  0  0  0  0  0
   40.1440   30.5240   42.8070 H   0  0  0  0  0  0  0  0  0  0  0  0
   39.5630   28.0240   43.6590 H   0  0  0  0  0  0  0  0  0  0  0  0
   37.1840   33.2090   39.4850 C   0  0  0  0  0  0  0  0  0  0  0  0
   37.1640   31.9300   40.0850 C   0  0  0  0  0  0  0  0  0  0  0  0
   38.1750   31.6300   41.0020 C   0  0  0  0  0  0  0  0  0  0  0  0
   39.1260   32.5710   41.2760 N   0  0  0  0  0  0  0  0  0  0  0  0
   39.1040   33.7920   40.6710 C   0  0  0  0  0  0  0  0  0  0  0  0
   38.1390   34.0880   39.7910 N   0  0  0  0  0  0  0  0  0  0  0  0
   36.3880   33.4110   38.7810 H   0  0  0  0  0  0  0  0  0  0  0  0
   36.4320   31.1600   39.8970 H   0  0  0  0  0  0  0  0  0  0  0  0
   39.8590   34.5480   40.8830 H   0  0  0  0  0  0  0  0  0  0  0  0
   37.0660   27.0770   42.5210 C   0  0  0  0  0  0  0  0  0  0  0  0
   36.0980   27.2220   43.4660 F   0  0  0  0  0  0  0  0  0  0  0  0
   36.5260   26.7780   41.2860 F   0  0  0  0  0  0  0  0  0  0  0  0
   37.8690   26.0070   42.8890 F   0  0  0  0  0  0  0  0  0  0  0  0
  1  2  1  0  0  0  0
  2  6  1  0  0  0  0
  2  3  2  0  0  0  0
  3  7  1  0  0  0  0
  4 17  1  0  0  0  0
  4  3  1  0  0  0  0
  5  1  2  0  0  0  0
  5  4  1  0  0  0  0
  8 13  2  0  0  0  0
  8  9  1  0  0  0  0
  9 10  2  0  0  0  0
 10 11  1  0  0  0  0
 10  1  1  0  0  0  0
 12 16  1  0  0  0  0
 12 11  2  0  0  0  0
 13 12  1  0  0  0  0
 14  8  1  0  0  0  0
 15  9  1  0  0  0  0
 17 20  1  0  0  0  0
 17 18  1  0  0  0  0
 19 17  1  0  0  0  0
M  END
>  <minimizedAffinity>
-4.629251

$$$$

 OpenBabel03252508273D

 20 21  0  0  0  0  0  0  0  0999 V2000
   37.8300   29.1540   42.0300 C   0  0  0  0  0  0  0  0  0  0  0  0
   37.9830   28.8250   43.3490 C   0  0  0  0  0  0  0  0  0  0  0  0
   37.7960   27.4720   43.5170 C   0  0  0  0  0  0  0  0  0  0  0  0
   37.5290   26.9920   42.2890 N   0  0  0  0  0  0  0  0  0  0  0  0
   37.5470   27.9780   41.4040 N   0  0  0  0  0  0  0  0  0  0  0  0
   38.2210   29.5430   44.1500 H   0  0  0  0  0  0  0  0  0  0  0  0
   37.8460   26.8800   44.4340 H   0  0  0  0  0  0  0  0  0  0  0  0
   37.1640   32.3420   40.1270 C   0  0  0  0  0  0  0  0  0  0  0  0
   36.9320   31.0520   40.6550 C   0  0  0  0  0  0  0  0  0  0  0  0
   37.9450   30.4780   41.4280 C   0  0  0  0  0  0  0  0  0  0  0  0
   39.0990   31.1760   41.6380 N   0  0  0  0  0  0  0  0  0  0  0  0
   39.2780   32.4180   41.1060 C   0  0  0  0  0  0  0  0  0  0  0  0
   38.3130   32.9760   40.3640 N   0  0  0  0  0  0  0  0  0  0  0  0
   36.3620   32.7580   39.5340 H   0  0  0  0  0  0  0  0  0  0  0  0
   36.0360   30.4680   40.5130 H   0  0  0  0  0  0  0  0  0  0  0  0
   40.1960   32.9810   41.2680 H   0  0  0  0  0  0  0  0  0  0  0  0
   37.2510   25.6220   41.8870 C   0  0  0  0  0  0  0  0  0  0  0  0
   36.6750   25.6150   40.6540 F   0  0  0  0  0  0  0  0  0  0  0  0
   38.4420   24.9230   41.8930 F   0  0  0  0  0  0  0  0  0  0  0  0
   36.3920   24.9790   42.7660 F   0  0  0  0  0  0  0  0  0  0  0  0
  1  2  1  0  0  0  0
  2  3  2  0  0  0  0
  2  6  1  0  0  0  0
  3  7  1  0  0  0  0
  4  3  1  0  0  0  0
  5  1  2  0  0  0  0
  5  4  1  0  0  0  0
  8 13  2  0  0  0  0
  8  9  1  0  0  0  0
  9 10  2  0  0  0  0
 10 11  1  0  0  0  0
 10  1  1  0  0  0  0
 12 16  1  0  0  0  0
 12 11  2  0  0  0  0
 13 12  1  0  0  0  0
 14  8  1  0  0  0  0
 15  9  1  0  0  0  0
 17 19  1  0  0  0  0
 17  4  1  0  0  0  0
 17 20  1  0  0  0  0
 18 17  1  0  0  0  0
M  END
>  <minimizedAffinity>
-4.43698454

$$$$

 OpenBabel03252508273D

 20 21  0  0  0  0  0  0  0  0999 V2000
   38.7750   30.6960   41.5440 C   0  0  0  0  0  0  0  0  0  0  0  0
   39.2020   30.1800   42.7360 C   0  0  0  0  0  0  0  0  0  0  0  0
   38.4150   29.1080   43.0890 C   0  0  0  0  0  0  0  0  0  0  0  0
   37.5110   28.9850   42.0990 N   0  0  0  0  0  0  0  0  0  0  0  0
   37.7170   29.9200   41.1820 N   0  0  0  0  0  0  0  0  0  0  0  0
   40.0510   30.5700   43.3200 H   0  0  0  0  0  0  0  0  0  0  0  0
   38.4780   28.4690   43.9740 H   0  0  0  0  0  0  0  0  0  0  0  0
   40.8760   32.8980   39.3160 C   0  0  0  0  0  0  0  0  0  0  0  0
   40.4280   31.7220   39.9590 C   0  0  0  0  0  0  0  0  0  0  0  0
   39.3340   31.8330   40.8210 C   0  0  0  0  0  0  0  0  0  0  0  0
   38.7520   33.0540   41.0040 N   0  0  0  0  0  0  0  0  0  0  0  0
   39.2200   34.1610   40.3620 C   0  0  0  0  0  0  0  0  0  0  0  0
   40.2680   34.0650   39.5340 N   0  0  0  0  0  0  0  0  0  0  0  0
   41.7230   32.7790   38.6550 H   0  0  0  0  0  0  0  0  0  0  0  0
   40.8590   30.7400   39.8410 H   0  0  0  0  0  0  0  0  0  0  0  0
   38.7620   35.1400   40.5030 H   0  0  0  0  0  0  0  0  0  0  0  0
   36.4370   28.0150   41.9600 C   0  0  0  0  0  0  0  0  0  0  0  0
   36.0760   27.5540   43.1880 F   0  0  0  0  0  0  0  0  0  0  0  0
   35.3810   28.6320   41.3200 F   0  0  0  0  0  0  0  0  0  0  0  0
   36.8090   26.9260   41.1850 F   0  0  0  0  0  0  0  0  0  0  0  0
  1  2  1  0  0  0  0
  2  3  2  0  0  0  0
  2  6  1  0  0  0  0
  3  7  1  0  0  0  0
  4  3  1  0  0  0  0
  5  1  2  0  0  0  0
  5  4  1  0  0  0  0
  8 13  2  0  0  0  0
  8  9  1  0  0  0  0
  9 10  2  0  0  0  0
 10 11  1  0  0  0  0
 10  1  1  0  0  0  0
 12 16  1  0  0  0  0
 12 11  2  0  0  0  0
 13 12  1  0  0  0  0
 14  8  1  0  0  0  0
 15  9  1  0  0  0  0
 17  4  1  0  0  0  0
 17 18  1  0  0  0  0
 19 17  1  0  0  0  0
 20 17  1  0  0  0  0
M  END
>  <minimizedAffinity>
-4.41403484

$$$$

 OpenBabel03252508273D

 20 21  0  0  0  0  0  0  0  0999 V2000
   37.7580   29.5750   41.5640 C   0  0  0  0  0  0  0  0  0  0  0  0
   36.4540   29.8630   41.2690 C   0  0  0  0  0  0  0  0  0  0  0  0
   36.3620   31.1340   40.7480 C   0  0  0  0  0  0  0  0  0  0  0  0
   37.6230   31.6060   40.7340 N   0  0  0  0  0  0  0  0  0  0  0  0
   38.4540   30.6920   41.2150 N   0  0  0  0  0  0  0  0  0  0  0  0
   35.6090   29.1740   41.4270 H   0  0  0  0  0  0  0  0  0  0  0  0
   35.4770   31.6750   40.4090 H   0  0  0  0  0  0  0  0  0  0  0  0
   39.7210   27.0540   43.5680 C   0  0  0  0  0  0  0  0  0  0  0  0
   39.2950   28.3160   43.0970 C   0  0  0  0  0  0  0  0  0  0  0  0
   38.2850   28.3390   42.1320 C   0  0  0  0  0  0  0  0  0  0  0  0
   37.7590   27.1590   41.6900 N   0  0  0  0  0  0  0  0  0  0  0  0
   38.2030   25.9660   42.1750 C   0  0  0  0  0  0  0  0  0  0  0  0
   39.1700   25.9330   43.1000 N   0  0  0  0  0  0  0  0  0  0  0  0
   40.5030   27.0700   44.3140 H   0  0  0  0  0  0  0  0  0  0  0  0
   39.6840   29.2700   43.4190 H   0  0  0  0  0  0  0  0  0  0  0  0
   37.7890   25.0190   41.8280 H   0  0  0  0  0  0  0  0  0  0  0  0
   38.1050   32.9020   40.2830 C   0  0  0  0  0  0  0  0  0  0  0  0
   38.7160   33.5470   41.3140 F   0  0  0  0  0  0  0  0  0  0  0  0
   38.9730   32.6940   39.2300 F   0  0  0  0  0  0  0  0  0  0  0  0
   37.0790   33.7120   39.8170 F   0  0  0  0  0  0  0  0  0  0  0  0
  1 10  1  0  0  0  0
  2  6  1  0  0  0  0
  2  1  1  0  0  0  0
  3  2  2  0  0  0  0
  4  3  1  0  0  0  0
  4  5  1  0  0  0  0
  5  1  2  0  0  0  0
  7  3  1  0  0  0  0
  8 14  1  0  0  0  0
  9 15  1  0  0  0  0
  9  8  2  0  0  0  0
 10  9  1  0  0  0  0
 11 10  2  0  0  0  0
 11 12  1  0  0  0  0
 12 13  2  0  0  0  0
 13  8  1  0  0  0  0
 16 12  1  0  0  0  0
 17  4  1  0  0  0  0
 17 18  1  0  0  0  0
 19 17  1  0  0  0  0
 20 17  1  0  0  0  0
M  END
>  <minimizedAffinity>
-4.2969594

$$$$

 OpenBabel03252508273D

 20 21  0  0  0  0  0  0  0  0999 V2000
   37.0590   28.9360   40.1900 C   0  0  0  0  0  0  0  0  0  0  0  0
   36.8520   27.7960   39.4640 C   0  0  0  0  0  0  0  0  0  0  0  0
   36.7800   26.7110   40.3080 C   0  0  0  0  0  0  0  0  0  0  0  0
   36.9470   27.2100   41.5470 N   0  0  0  0  0  0  0  0  0  0  0  0
   37.1120   28.5230   41.4870 N   0  0  0  0  0  0  0  0  0  0  0  0
   36.7570   27.7600   38.3670 H   0  0  0  0  0  0  0  0  0  0  0  0
   36.6230   25.6580   40.0630 H   0  0  0  0  0  0  0  0  0  0  0  0
   37.3900   31.9560   37.9560 C   0  0  0  0  0  0  0  0  0  0  0  0
   37.2590   30.5970   38.3200 C   0  0  0  0  0  0  0  0  0  0  0  0
   37.1940   30.2970   39.6830 C   0  0  0  0  0  0  0  0  0  0  0  0
   37.2590   31.3130   40.5930 N   0  0  0  0  0  0  0  0  0  0  0  0
   37.3860   32.6090   40.1930 C   0  0  0  0  0  0  0  0  0  0  0  0
   37.4490   32.9070   38.8890 N   0  0  0  0  0  0  0  0  0  0  0  0
   37.4370   32.1550   36.8940 H   0  0  0  0  0  0  0  0  0  0  0  0
   37.2040   29.7660   37.6340 H   0  0  0  0  0  0  0  0  0  0  0  0
   37.4390   33.4260   40.9120 H   0  0  0  0  0  0  0  0  0  0  0  0
   36.9590   26.5050   42.8190 C   0  0  0  0  0  0  0  0  0  0  0  0
   36.0660   27.0790   43.6700 F   0  0  0  0  0  0  0  0  0  0  0  0
   36.6500   25.1810   42.5790 F   0  0  0  0  0  0  0  0  0  0  0  0
   38.2080   26.5330   43.4240 F   0  0  0  0  0  0  0  0  0  0  0  0
  1  5  2  0  0  0  0
  2  1  1  0  0  0  0
  2  3  2  0  0  0  0
  3  4  1  0  0  0  0
  4 17  1  0  0  0  0
  5  4  1  0  0  0  0
  6  2  1  0  0  0  0
  7  3  1  0  0  0  0
  8  9  2  0  0  0  0
  8 13  1  0  0  0  0
  9 10  1  0  0  0  0
 10  1  1  0  0  0  0
 10 11  2  0  0  0  0
 12 11  1  0  0  0  0
 12 16  1  0  0  0  0
 13 12  2  0  0  0  0
 14  8  1  0  0  0  0
 15  9  1  0  0  0  0
 17 20  1  0  0  0  0
 17 18  1  0  0  0  0
 19 17  1  0  0  0  0
M  END
>  <minimizedAffinity>
-4.26751328

$$$$

 OpenBabel03252508273D

 20 21  0  0  0  0  0  0  0  0999 V2000
   36.9660   28.1630   41.1960 C   0  0  0  0  0  0  0  0  0  0  0  0
   36.7880   28.0390   42.5460 C   0  0  0  0  0  0  0  0  0  0  0  0
   36.8740   26.7140   42.9080 C   0  0  0  0  0  0  0  0  0  0  0  0
   37.1050   26.0440   41.7640 N   0  0  0  0  0  0  0  0  0  0  0  0
   37.1610   26.8920   40.7470 N   0  0  0  0  0  0  0  0  0  0  0  0
   36.6030   28.8800   43.2330 H   0  0  0  0  0  0  0  0  0  0  0  0
   36.7810   26.2640   43.9000 H   0  0  0  0  0  0  0  0  0  0  0  0
   36.9320   31.7770   40.1170 C   0  0  0  0  0  0  0  0  0  0  0  0
   36.9500   30.6640   40.9870 C   0  0  0  0  0  0  0  0  0  0  0  0
   36.9490   29.3920   40.4090 C   0  0  0  0  0  0  0  0  0  0  0  0
   36.9310   29.2780   39.0490 N   0  0  0  0  0  0  0  0  0  0  0  0
   36.9140   30.3820   38.2500 C   0  0  0  0  0  0  0  0  0  0  0  0
   36.9150   31.6050   38.7940 N   0  0  0  0  0  0  0  0  0  0  0  0
   36.9340   32.7470   40.5940 H   0  0  0  0  0  0  0  0  0  0  0  0
   36.9640   30.7110   42.0650 H   0  0  0  0  0  0  0  0  0  0  0  0
   36.8990   30.3000   37.1640 H   0  0  0  0  0  0  0  0  0  0  0  0
   37.2820   24.6140   41.5650 C   0  0  0  0  0  0  0  0  0  0  0  0
   36.0670   24.0160   41.4360 F   0  0  0  0  0  0  0  0  0  0  0  0
   38.0590   24.4310   40.4380 F   0  0  0  0  0  0  0  0  0  0  0  0
   37.9460   24.0140   42.6250 F   0  0  0  0  0  0  0  0  0  0  0  0
  1  2  1  0  0  0  0
  2  3  2  0  0  0  0
  2  6  1  0  0  0  0
  3  7  1  0  0  0  0
  4  3  1  0  0  0  0
  5  1  2  0  0  0  0
  5  4  1  0  0  0  0
  8 14  1  0  0  0  0
  8  9  1  0  0  0  0
  9 15  1  0  0  0  0
 10  9  2  0  0  0  0
 10  1  1  0  0  0  0
 11 10  1  0  0  0  0
 12 13  1  0  0  0  0
 12 11  2  0  0  0  0
 13  8  2  0  0  0  0
 16 12  1  0  0  0  0
 17  4  1  0  0  0  0
 17 20  1  0  0  0  0
 18 17  1  0  0  0  0
 19 17  1  0  0  0  0
M  END
>  <minimizedAffinity>
-4.11315203

$$$$

 OpenBabel03252508273D

 20 21  0  0  0  0  0  0  0  0999 V2000
   38.9140   28.4860   42.1980 C   0  0  0  0  0  0  0  0  0  0  0  0
   39.7250   29.5380   42.5250 C   0  0  0  0  0  0  0  0  0  0  0  0
   39.1790   30.7110   42.0550 C   0  0  0  0  0  0  0  0  0  0  0  0
   38.0350   30.3540   41.4420 N   0  0  0  0  0  0  0  0  0  0  0  0
   37.8710   29.0410   41.5220 N   0  0  0  0  0  0  0  0  0  0  0  0
   40.6710   29.4500   43.0830 H   0  0  0  0  0  0  0  0  0  0  0  0
   39.5630   31.7300   42.1410 H   0  0  0  0  0  0  0  0  0  0  0  0
   40.2360   25.2360   43.5820 C   0  0  0  0  0  0  0  0  0  0  0  0
   40.1340   26.6280   43.3630 C   0  0  0  0  0  0  0  0  0  0  0  0
   39.1260   27.0760   42.5060 C   0  0  0  0  0  0  0  0  0  0  0  0
   38.2930   26.1640   41.9230 N   0  0  0  0  0  0  0  0  0  0  0  0
   38.4310   24.8300   42.1640 C   0  0  0  0  0  0  0  0  0  0  0  0
   39.3940   24.3910   42.9840 N   0  0  0  0  0  0  0  0  0  0  0  0
   41.0250   24.9210   44.2500 H   0  0  0  0  0  0  0  0  0  0  0  0
   40.7700   27.3800   43.8030 H   0  0  0  0  0  0  0  0  0  0  0  0
   37.7710   24.0960   41.7030 H   0  0  0  0  0  0  0  0  0  0  0  0
   37.0610   31.1980   40.7690 C   0  0  0  0  0  0  0  0  0  0  0  0
   35.8610   31.1080   41.4050 F   0  0  0  0  0  0  0  0  0  0  0  0
   37.5400   32.4920   40.7710 F   0  0  0  0  0  0  0  0  0  0  0  0
   36.8730   30.8300   39.4440 F   0  0  0  0  0  0  0  0  0  0  0  0
  1 10  1  0  0  0  0
  1  2  1  0  0  0  0
  2  6  1  0  0  0  0
  3  7  1  0  0  0  0
  3  2  2  0  0  0  0
  4  5  1  0  0  0  0
  4  3  1  0  0  0  0
  5  1  2  0  0  0  0
  8 14  1  0  0  0  0
  9  8  1  0  0  0  0
  9 15  1  0  0  0  0
 10  9  2  0  0  0  0
 11 12  2  0  0  0  0
 11 10  1  0  0  0  0
 12 13  1  0  0  0  0
 13  8  2  0  0  0  0
 16 12  1  0  0  0  0
 17 19  1  0  0  0  0
 17 18  1  0  0  0  0
 17  4  1  0  0  0  0
 20 17  1  0  0  0  0
M  END
>  <minimizedAffinity>
-4.06719303

$$$$
