
 OpenBabel03252509073D

 36 38  0  0  0  0  0  0  0  0999 V2000
   45.2960   35.2700   43.1250 Cl  0  0  0  0  0  0  0  0  0  0  0  0
   45.1730   34.5330   41.5560 C   0  0  0  0  0  0  0  0  0  0  0  0
   46.2850   34.1560   40.8780 C   0  0  0  0  0  0  0  0  0  0  0  0
   46.0750   33.5660   39.6390 C   0  0  0  0  0  0  0  0  0  0  0  0
   44.8210   33.3700   39.1200 C   0  0  0  0  0  0  0  0  0  0  0  0
   43.7260   33.7560   39.8200 C   0  0  0  0  0  0  0  0  0  0  0  0
   43.9150   34.3440   41.0520 C   0  0  0  0  0  0  0  0  0  0  0  0
   44.6850   32.9020   38.1380 H   0  0  0  0  0  0  0  0  0  0  0  0
   42.7220   33.6140   39.4330 H   0  0  0  0  0  0  0  0  0  0  0  0
   43.0310   34.6450   41.5940 H   0  0  0  0  0  0  0  0  0  0  0  0
   47.7260   31.8590   38.8890 C   0  0  0  0  0  0  0  0  0  0  0  0
   47.2330   33.1290   38.8660 C   0  0  0  0  0  0  0  0  0  0  0  0
   47.8350   34.0870   38.0710 C   0  0  0  0  0  0  0  0  0  0  0  0
   48.9290   33.7450   37.3090 C   0  0  0  0  0  0  0  0  0  0  0  0
   49.4590   32.4610   37.3060 C   0  0  0  0  0  0  0  0  0  0  0  0
   48.8300   31.5250   38.1160 C   0  0  0  0  0  0  0  0  0  0  0  0
   47.4470   35.1070   38.0450 H   0  0  0  0  0  0  0  0  0  0  0  0
   49.3560   34.5310   36.7090 H   0  0  0  0  0  0  0  0  0  0  0  0
   50.3090   32.1960   36.7140 H   0  0  0  0  0  0  0  0  0  0  0  0
   49.2520   30.5330   38.1050 H   0  0  0  0  0  0  0  0  0  0  0  0
   47.0420   30.6430   39.8120 S   0  0  0  0  0  0  0  0  0  0  0  0
   47.6340   29.2960   39.3930 O   0  0  0  0  0  0  0  0  0  0  0  0
   47.5890   30.8570   41.2450 O   0  0  0  0  0  0  0  0  0  0  0  0
   45.4730   30.1500   40.0520 C   0  0  0  0  0  0  0  0  0  0  0  0
   44.4210   30.4270   39.2450 F   0  0  0  0  0  0  0  0  0  0  0  0
   44.9940   30.8760   41.1590 F   0  0  0  0  0  0  0  0  0  0  0  0
   45.3140   28.8610   40.6400 F   0  0  0  0  0  0  0  0  0  0  0  0
   49.5600   35.7320   41.8920 C   0  0  0  0  0  0  0  0  0  0  0  0
   48.2980   35.5420   41.3160 C   0  0  0  0  0  0  0  0  0  0  0  0
   47.5850   34.3670   41.4630 C   0  0  0  0  0  0  0  0  0  0  0  0
   48.1990   33.4150   42.2070 N   0  0  0  0  0  0  0  0  0  0  0  0
   49.4130   33.5940   42.7630 C   0  0  0  0  0  0  0  0  0  0  0  0
   50.0800   34.7430   42.6030 N   0  0  0  0  0  0  0  0  0  0  0  0
   49.9860   36.7040   41.6840 H   0  0  0  0  0  0  0  0  0  0  0  0
   47.8190   36.3120   40.7230 H   0  0  0  0  0  0  0  0  0  0  0  0
   49.8890   32.8260   43.3520 H   0  0  0  0  0  0  0  0  0  0  0  0
  2  1  1  0  0  0  0
  3 30  1  0  0  0  0
  3  2  2  0  0  0  0
  4  3  1  0  0  0  0
  5  4  2  0  0  0  0
  5  6  1  0  0  0  0
  6  7  2  0  0  0  0
  7  2  1  0  0  0  0
  7 10  1  0  0  0  0
  8  5  1  0  0  0  0
  9  6  1  0  0  0  0
 11 21  1  0  0  0  0
 12 11  1  0  0  0  0
 12  4  1  0  0  0  0
 13 12  2  0  0  0  0
 14 13  1  0  0  0  0
 15 14  2  0  0  0  0
 15 16  1  0  0  0  0
 16 11  2  0  0  0  0
 17 13  1  0  0  0  0
 18 14  1  0  0  0  0
 19 15  1  0  0  0  0
 20 16  1  0  0  0  0
 21 24  1  0  0  0  0
 21 23  2  0  0  0  0
 22 21  2  0  0  0  0
 24 27  1  0  0  0  0
 24 26  1  0  0  0  0
 25 24  1  0  0  0  0
 28 33  1  0  0  0  0
 29 30  1  0  0  0  0
 29 28  2  0  0  0  0
 30 31  2  0  0  0  0
 31 32  1  0  0  0  0
 32 36  1  0  0  0  0
 33 32  2  0  0  0  0
 34 28  1  0  0  0  0
 35 29  1  0  0  0  0
M  END
>  <minimizedAffinity>
-4.47261715

>  <minimizedRMSD>
0.687231421

$$$$
