
 OpenBabel03252508273D

 20 21  0  0  0  0  0  0  0  0999 V2000
   45.8820   34.2060   41.7990 C   0  0  0  0  0  0  0  0  0  0  0  0
   45.1960   33.4400   40.8970 C   0  0  0  0  0  0  0  0  0  0  0  0
   45.9130   33.3400   39.7270 C   0  0  0  0  0  0  0  0  0  0  0  0
   47.0350   34.0540   39.9330 N   0  0  0  0  0  0  0  0  0  0  0  0
   47.0250   34.5690   41.1540 N   0  0  0  0  0  0  0  0  0  0  0  0
   44.2150   32.9740   41.0880 H   0  0  0  0  0  0  0  0  0  0  0  0
   45.6590   32.8070   38.8080 H   0  0  0  0  0  0  0  0  0  0  0  0
   44.4560   35.9640   44.8150 C   0  0  0  0  0  0  0  0  0  0  0  0
   44.7960   35.7390   43.4620 C   0  0  0  0  0  0  0  0  0  0  0  0
   45.4740   34.5570   43.1540 C   0  0  0  0  0  0  0  0  0  0  0  0
   45.7760   33.6810   44.1580 N   0  0  0  0  0  0  0  0  0  0  0  0
   45.4270   33.9420   45.4490 C   0  0  0  0  0  0  0  0  0  0  0  0
   44.7770   35.0730   45.7540 N   0  0  0  0  0  0  0  0  0  0  0  0
   43.9310   36.8870   45.0210 H   0  0  0  0  0  0  0  0  0  0  0  0
   44.5770   36.4040   42.6410 H   0  0  0  0  0  0  0  0  0  0  0  0
   45.6640   33.2500   46.2560 H   0  0  0  0  0  0  0  0  0  0  0  0
   48.1470   34.2860   39.0250 C   0  0  0  0  0  0  0  0  0  0  0  0
   48.7920   35.4320   39.3750 F   0  0  0  0  0  0  0  0  0  0  0  0
   48.9880   33.1930   39.0870 F   0  0  0  0  0  0  0  0  0  0  0  0
   47.7330   34.4130   37.7070 F   0  0  0  0  0  0  0  0  0  0  0  0
  1 10  1  0  0  0  0
  2  6  1  0  0  0  0
  2  1  1  0  0  0  0
  3  4  1  0  0  0  0
  3  2  2  0  0  0  0
  4  5  1  0  0  0  0
  5  1  2  0  0  0  0
  7  3  1  0  0  0  0
  8 14  1  0  0  0  0
  8 13  1  0  0  0  0
  9  8  2  0  0  0  0
 10  9  1  0  0  0  0
 10 11  2  0  0  0  0
 11 12  1  0  0  0  0
 12 13  2  0  0  0  0
 12 16  1  0  0  0  0
 15  9  1  0  0  0  0
 17 19  1  0  0  0  0
 17 18  1  0  0  0  0
 17  4  1  0  0  0  0
 20 17  1  0  0  0  0
M  END
>  <minimizedAffinity>
-4.50531149

>  <minimizedRMSD>
1.92545736

$$$$
