REMARK  Name = 
REMARK  3 active torsions:
REMARK  status: ('A' for Active; 'I' for Inactive)
REMARK    1  A    between atoms: C_2  and  C_14
REMARK    2  A    between atoms: C_3  and  S_16
REMARK    3  A    between atoms: S_16  and  C_24
REMARK                            x       y       z     vdW  Elec       q    Type
REMARK                         _______ _______ _______ _____ _____    ______ ____
ROOT
ATOM      1  C   UNL     1      47.462  31.673  44.830  0.00  0.00    +0.000 A 
ATOM      2  C   UNL     1      46.787  32.856  44.535  0.00  0.00    +0.000 A 
ATOM      3  C   UNL     1      45.907  33.457  45.421  0.00  0.00    +0.000 A 
ATOM      4  C   UNL     1      45.683  32.853  46.670  0.00  0.00    +0.000 A 
ATOM      5  N   UNL     1      44.925  33.138  47.758  0.00  0.00    +0.000 N 
ATOM      6  C   UNL     1      45.119  32.176  48.691  0.00  0.00    +0.000 A 
ATOM      7  N   UNL     1      45.993  31.314  48.163  0.00  0.00    +0.000 NA
ATOM      8  C   UNL     1      46.366  31.690  46.925  0.00  0.00    +0.000 A 
ATOM      9  C   UNL     1      47.242  31.076  46.064  0.00  0.00    +0.000 A 
ATOM     10  H   UNL     1      48.126  31.287  44.072  0.00  0.00    +0.000 HD
ATOM     11  H   UNL     1      44.306  33.979  47.818  0.00  0.00    +0.000 HD
ATOM     12  H   UNL     1      44.597  32.228  49.638  0.00  0.00    +0.000 HD
ATOM     13  H   UNL     1      47.771  30.175  46.260  0.00  0.00    +0.000 HD
ENDROOT
BRANCH   2  18
ATOM     14  C   UNL     1      46.383  33.822  41.016  0.00  0.00    +0.000 A 
ATOM     15  C   UNL     1      47.417  34.719  40.820  0.00  0.00    +0.000 A 
ATOM     16  C   UNL     1      48.261  34.993  41.904  0.00  0.00    +0.000 A 
ATOM     17  N   UNL     1      48.018  34.362  43.093  0.00  0.00    +0.000 NA
ATOM     18  C   UNL     1      47.002  33.494  43.250  0.00  0.00    +0.000 A 
ATOM     19  N   UNL     1      46.188  33.226  42.215  0.00  0.00    +0.000 NA
ATOM     20  H   UNL     1      45.701  33.570  40.222  0.00  0.00    +0.000 HD
ATOM     21  H   UNL     1      47.512  35.157  39.839  0.00  0.00    +0.000 HD
ATOM     22  H   UNL     1      49.051  35.682  41.747  0.00  0.00    +0.000 HD
ENDBRANCH   2  18
BRANCH   3  23
ATOM     23  S   UNL     1      45.040  34.966  45.063  0.00  0.00    +0.000 S 
BRANCH  23  24
ATOM     24  C   UNL     1      45.911  36.442  45.568  0.00  0.00    +0.000 C 
ATOM     25  F   UNL     1      46.012  36.608  46.929  0.00  0.00    +0.000 F 
ATOM     26  F   UNL     1      47.147  36.433  44.950  0.00  0.00    +0.000 F 
ATOM     27  F   UNL     1      45.221  37.558  45.083  0.00  0.00    +0.000 F 
ENDBRANCH  23  24
ENDBRANCH   3  23
TORSDOF 3
