
 OpenBabel03242515343D

 23 24  0  0  0  0  0  0  0  0999 V2000
   37.0340   32.4520   39.5640 C   0  0  0  0  0  0  0  0  0  0  0  0
   37.7620   33.6390   39.7290 C   0  0  0  0  0  0  0  0  0  0  0  0
   38.8610   33.6200   40.6130 C   0  0  0  0  0  0  0  0  0  0  0  0
   39.1700   32.4650   41.2660 N   0  0  0  0  0  0  0  0  0  0  0  0
   38.4370   31.3470   41.0740 C   0  0  0  0  0  0  0  0  0  0  0  0
   37.3850   31.3380   40.2360 N   0  0  0  0  0  0  0  0  0  0  0  0
   38.6920   30.1150   41.7110 N   0  0  0  0  0  0  0  0  0  0  0  0
   39.9140   29.9890   42.2440 C   0  0  0  0  0  0  0  0  0  0  0  0
   40.2690   28.8240   42.8920 C   0  0  0  0  0  0  0  0  0  0  0  0
   39.2790   27.8220   42.9410 C   0  0  0  0  0  0  0  0  0  0  0  0
   39.5690   26.7370   43.5270 O   0  0  0  0  0  0  0  0  0  0  0  0
   38.0660   27.9880   42.3940 N   0  0  0  0  0  0  0  0  0  0  0  0
   37.7760   29.1380   41.7790 C   0  0  0  0  0  0  0  0  0  0  0  0
   36.6530   29.3940   41.2270 O   0  0  0  0  0  0  0  0  0  0  0  0
   36.1980   32.4870   38.8840 H   0  0  0  0  0  0  0  0  0  0  0  0
   37.5590   34.5780   39.2370 H   0  0  0  0  0  0  0  0  0  0  0  0
   39.5010   34.4730   40.8250 H   0  0  0  0  0  0  0  0  0  0  0  0
   40.6620   30.7760   42.1940 H   0  0  0  0  0  0  0  0  0  0  0  0
   41.2450   28.6770   43.3370 H   0  0  0  0  0  0  0  0  0  0  0  0
   37.0550   26.9490   42.4520 C   0  0  0  0  0  0  0  0  0  0  0  0
   36.1350   27.3310   43.4300 F   0  0  0  0  0  0  0  0  0  0  0  0
   37.6020   25.7180   42.7460 F   0  0  0  0  0  0  0  0  0  0  0  0
   36.4510   26.8140   41.2160 F   0  0  0  0  0  0  0  0  0  0  0  0
  1  2  2  0  0  0  0
  1  6  1  0  0  0  0
  2  3  1  0  0  0  0
  3 17  1  0  0  0  0
  3  4  2  0  0  0  0
  5  4  1  0  0  0  0
  5  7  1  0  0  0  0
  6  5  2  0  0  0  0
  7 13  1  0  0  0  0
  7  8  1  0  0  0  0
  8  9  2  0  0  0  0
  9 10  1  0  0  0  0
  9 19  1  0  0  0  0
 10 11  2  0  0  0  0
 12 20  1  0  0  0  0
 12 10  1  0  0  0  0
 13 12  1  0  0  0  0
 14 13  2  0  0  0  0
 15  1  1  0  0  0  0
 16  2  1  0  0  0  0
 18  8  1  0  0  0  0
 20 22  1  0  0  0  0
 20 21  1  0  0  0  0
 23 20  1  0  0  0  0
M  END
>  <minimizedAffinity>
-5.42864132

$$$$

 OpenBabel03242515343D

 23 24  0  0  0  0  0  0  0  0999 V2000
   37.0830   32.1050   40.3190 C   0  0  0  0  0  0  0  0  0  0  0  0
   37.3540   32.6630   39.0620 C   0  0  0  0  0  0  0  0  0  0  0  0
   37.5050   31.7830   37.9700 C   0  0  0  0  0  0  0  0  0  0  0  0
   37.3860   30.4420   38.1740 N   0  0  0  0  0  0  0  0  0  0  0  0
   37.1250   29.9520   39.4050 C   0  0  0  0  0  0  0  0  0  0  0  0
   36.9750   30.7690   40.4630 N   0  0  0  0  0  0  0  0  0  0  0  0
   36.9870   28.5790   39.6980 N   0  0  0  0  0  0  0  0  0  0  0  0
   36.7630   27.7890   38.6400 C   0  0  0  0  0  0  0  0  0  0  0  0
   36.6130   26.4290   38.8140 C   0  0  0  0  0  0  0  0  0  0  0  0
   36.7100   25.9640   40.1400 C   0  0  0  0  0  0  0  0  0  0  0  0
   36.5770   24.7200   40.3390 O   0  0  0  0  0  0  0  0  0  0  0  0
   36.9340   26.7890   41.1730 N   0  0  0  0  0  0  0  0  0  0  0  0
   37.0730   28.0990   40.9470 C   0  0  0  0  0  0  0  0  0  0  0  0
   37.2880   28.9670   41.8590 O   0  0  0  0  0  0  0  0  0  0  0  0
   36.9700   32.7930   41.1410 H   0  0  0  0  0  0  0  0  0  0  0  0
   37.4580   33.7150   38.8480 H   0  0  0  0  0  0  0  0  0  0  0  0
   37.7160   32.0930   36.9490 H   0  0  0  0  0  0  0  0  0  0  0  0
   36.6920   28.1710   37.6260 H   0  0  0  0  0  0  0  0  0  0  0  0
   36.4310   25.7510   37.9890 H   0  0  0  0  0  0  0  0  0  0  0  0
   37.0330   26.2980   42.5350 C   0  0  0  0  0  0  0  0  0  0  0  0
   38.3750   26.3990   42.9070 F   0  0  0  0  0  0  0  0  0  0  0  0
   36.5900   24.9970   42.6440 F   0  0  0  0  0  0  0  0  0  0  0  0
   36.2220   27.0500   43.3630 F   0  0  0  0  0  0  0  0  0  0  0  0
  1  6  1  0  0  0  0
  1 15  1  0  0  0  0
  2  1  2  0  0  0  0
  3  4  2  0  0  0  0
  3  2  1  0  0  0  0
  4  5  1  0  0  0  0
  5  7  1  0  0  0  0
  5  6  2  0  0  0  0
  7 13  1  0  0  0  0
  8  9  2  0  0  0  0
  8  7  1  0  0  0  0
  9 10  1  0  0  0  0
 10 11  2  0  0  0  0
 10 12  1  0  0  0  0
 12 20  1  0  0  0  0
 13 12  1  0  0  0  0
 13 14  2  0  0  0  0
 16  2  1  0  0  0  0
 17  3  1  0  0  0  0
 18  8  1  0  0  0  0
 19  9  1  0  0  0  0
 20 22  1  0  0  0  0
 20 21  1  0  0  0  0
 20 23  1  0  0  0  0
M  END
>  <minimizedAffinity>
-5.08467484

$$$$

 OpenBabel03242515343D

 23 24  0  0  0  0  0  0  0  0999 V2000
   39.3450   33.4190   40.8230 C   0  0  0  0  0  0  0  0  0  0  0  0
   38.4990   34.1540   39.9800 C   0  0  0  0  0  0  0  0  0  0  0  0
   37.3190   33.5290   39.5250 C   0  0  0  0  0  0  0  0  0  0  0  0
   37.0490   32.2520   39.9130 N   0  0  0  0  0  0  0  0  0  0  0  0
   37.8960   31.5850   40.7270 C   0  0  0  0  0  0  0  0  0  0  0  0
   39.0270   32.1580   41.1760 N   0  0  0  0  0  0  0  0  0  0  0  0
   37.6880   30.2640   41.1740 N   0  0  0  0  0  0  0  0  0  0  0  0
   36.4330   29.8120   41.0560 C   0  0  0  0  0  0  0  0  0  0  0  0
   36.1200   28.5320   41.4640 C   0  0  0  0  0  0  0  0  0  0  0  0
   37.1850   27.7750   41.9900 C   0  0  0  0  0  0  0  0  0  0  0  0
   36.9350   26.5950   42.3750 O   0  0  0  0  0  0  0  0  0  0  0  0
   38.4290   28.2660   42.0910 N   0  0  0  0  0  0  0  0  0  0  0  0
   38.6770   29.5140   41.6810 C   0  0  0  0  0  0  0  0  0  0  0  0
   39.8240   30.0730   41.7340 O   0  0  0  0  0  0  0  0  0  0  0  0
   40.2410   33.9140   41.1610 H   0  0  0  0  0  0  0  0  0  0  0  0
   38.6670   35.1650   39.6430 H   0  0  0  0  0  0  0  0  0  0  0  0
   36.5860   33.9940   38.8690 H   0  0  0  0  0  0  0  0  0  0  0  0
   35.6270   30.4140   40.6470 H   0  0  0  0  0  0  0  0  0  0  0  0
   35.1190   28.1240   41.3880 H   0  0  0  0  0  0  0  0  0  0  0  0
   39.5180   27.4770   42.6350 C   0  0  0  0  0  0  0  0  0  0  0  0
   38.9880   26.7180   43.6800 F   0  0  0  0  0  0  0  0  0  0  0  0
   40.5530   28.2710   43.0820 F   0  0  0  0  0  0  0  0  0  0  0  0
   40.0520   26.6720   41.6470 F   0  0  0  0  0  0  0  0  0  0  0  0
  1 15  1  0  0  0  0
  1  6  1  0  0  0  0
  2  1  2  0  0  0  0
  3  4  2  0  0  0  0
  3  2  1  0  0  0  0
  4  5  1  0  0  0  0
  5  7  1  0  0  0  0
  5  6  2  0  0  0  0
  7 13  1  0  0  0  0
  8  7  1  0  0  0  0
  8  9  2  0  0  0  0
  9 10  1  0  0  0  0
 10 12  1  0  0  0  0
 10 11  2  0  0  0  0
 12 20  1  0  0  0  0
 13 14  2  0  0  0  0
 13 12  1  0  0  0  0
 16  2  1  0  0  0  0
 17  3  1  0  0  0  0
 18  8  1  0  0  0  0
 19  9  1  0  0  0  0
 20 22  1  0  0  0  0
 20 21  1  0  0  0  0
 23 20  1  0  0  0  0
M  END
>  <minimizedAffinity>
-5.06176996

$$$$

 OpenBabel03242515343D

 23 24  0  0  0  0  0  0  0  0999 V2000
   38.2800   24.2310   42.2060 C   0  0  0  0  0  0  0  0  0  0  0  0
   39.4690   24.1420   42.9420 C   0  0  0  0  0  0  0  0  0  0  0  0
   40.1000   25.3450   43.3210 C   0  0  0  0  0  0  0  0  0  0  0  0
   39.5390   26.5330   42.9630 N   0  0  0  0  0  0  0  0  0  0  0  0
   38.3910   26.5670   42.2520 C   0  0  0  0  0  0  0  0  0  0  0  0
   37.7690   25.4340   41.8780 N   0  0  0  0  0  0  0  0  0  0  0  0
   37.7470   27.7530   41.8430 N   0  0  0  0  0  0  0  0  0  0  0  0
   38.1220   28.8600   42.4960 C   0  0  0  0  0  0  0  0  0  0  0  0
   37.5560   30.0770   42.1750 C   0  0  0  0  0  0  0  0  0  0  0  0
   36.5920   30.0550   41.1470 C   0  0  0  0  0  0  0  0  0  0  0  0
   36.0500   31.1530   40.8250 O   0  0  0  0  0  0  0  0  0  0  0  0
   36.2450   28.9230   40.5180 N   0  0  0  0  0  0  0  0  0  0  0  0
   36.8260   27.7720   40.8690 C   0  0  0  0  0  0  0  0  0  0  0  0
   36.5660   26.6420   40.3330 O   0  0  0  0  0  0  0  0  0  0  0  0
   37.8130   23.3000   41.9250 H   0  0  0  0  0  0  0  0  0  0  0  0
   39.9550   23.2290   43.2500 H   0  0  0  0  0  0  0  0  0  0  0  0
   41.0240   25.4070   43.8920 H   0  0  0  0  0  0  0  0  0  0  0  0
   38.8670   28.8540   43.2860 H   0  0  0  0  0  0  0  0  0  0  0  0
   37.8270   30.9980   42.6760 H   0  0  0  0  0  0  0  0  0  0  0  0
   35.2510   28.9120   39.4600 C   0  0  0  0  0  0  0  0  0  0  0  0
   35.6140   29.9090   38.5530 F   0  0  0  0  0  0  0  0  0  0  0  0
   33.9810   29.1310   39.9480 F   0  0  0  0  0  0  0  0  0  0  0  0
   35.2220   27.6690   38.8580 F   0  0  0  0  0  0  0  0  0  0  0  0
  1  2  1  0  0  0  0
  2 16  1  0  0  0  0
  2  3  2  0  0  0  0
  3 17  1  0  0  0  0
  4  3  1  0  0  0  0
  5  4  2  0  0  0  0
  6  1  2  0  0  0  0
  6  5  1  0  0  0  0
  7  5  1  0  0  0  0
  7  8  1  0  0  0  0
  8 18  1  0  0  0  0
  9  8  2  0  0  0  0
  9 19  1  0  0  0  0
 10  9  1  0  0  0  0
 11 10  2  0  0  0  0
 12 13  1  0  0  0  0
 12 10  1  0  0  0  0
 13  7  1  0  0  0  0
 14 13  2  0  0  0  0
 15  1  1  0  0  0  0
 20 22  1  0  0  0  0
 20 12  1  0  0  0  0
 21 20  1  0  0  0  0
 23 20  1  0  0  0  0
M  END
>  <minimizedAffinity>
-5.02115679

$$$$

 OpenBabel03242515343D

 23 24  0  0  0  0  0  0  0  0999 V2000
   36.6560   30.3130   39.0490 C   0  0  0  0  0  0  0  0  0  0  0  0
   36.8900   31.6500   39.3970 C   0  0  0  0  0  0  0  0  0  0  0  0
   37.6430   31.9050   40.5630 C   0  0  0  0  0  0  0  0  0  0  0  0
   38.1080   30.8560   41.2980 N   0  0  0  0  0  0  0  0  0  0  0  0
   37.8550   29.5840   40.9210 C   0  0  0  0  0  0  0  0  0  0  0  0
   37.1400   29.3140   39.8140 N   0  0  0  0  0  0  0  0  0  0  0  0
   38.2990   28.4470   41.6260 N   0  0  0  0  0  0  0  0  0  0  0  0
   39.2960   28.6660   42.4930 C   0  0  0  0  0  0  0  0  0  0  0  0
   39.8070   27.6210   43.2360 C   0  0  0  0  0  0  0  0  0  0  0  0
   39.2170   26.3610   43.0130 C   0  0  0  0  0  0  0  0  0  0  0  0
   39.6600   25.3780   43.6770 O   0  0  0  0  0  0  0  0  0  0  0  0
   38.2190   26.1850   42.1340 N   0  0  0  0  0  0  0  0  0  0  0  0
   37.7620   27.2320   41.4410 C   0  0  0  0  0  0  0  0  0  0  0  0
   36.8190   27.1690   40.5830 O   0  0  0  0  0  0  0  0  0  0  0  0
   36.0780   30.1390   38.1550 H   0  0  0  0  0  0  0  0  0  0  0  0
   36.5450   32.5150   38.8510 H   0  0  0  0  0  0  0  0  0  0  0  0
   37.8910   32.8960   40.9360 H   0  0  0  0  0  0  0  0  0  0  0  0
   39.7360   29.6460   42.6480 H   0  0  0  0  0  0  0  0  0  0  0  0
   40.6130   27.7510   43.9480 H   0  0  0  0  0  0  0  0  0  0  0  0
   37.6190   24.8820   41.9140 C   0  0  0  0  0  0  0  0  0  0  0  0
   36.4350   24.8510   42.6540 F   0  0  0  0  0  0  0  0  0  0  0  0
   38.4610   23.8590   42.2930 F   0  0  0  0  0  0  0  0  0  0  0  0
   37.3760   24.7010   40.5660 F   0  0  0  0  0  0  0  0  0  0  0  0
  1  2  2  0  0  0  0
  1  6  1  0  0  0  0
  2  3  1  0  0  0  0
  3 17  1  0  0  0  0
  3  4  2  0  0  0  0
  5  4  1  0  0  0  0
  5  7  1  0  0  0  0
  6  5  2  0  0  0  0
  7  8  1  0  0  0  0
  8 18  1  0  0  0  0
  8  9  2  0  0  0  0
  9 19  1  0  0  0  0
 10  9  1  0  0  0  0
 10 11  2  0  0  0  0
 12 10  1  0  0  0  0
 13  7  1  0  0  0  0
 13 12  1  0  0  0  0
 14 13  2  0  0  0  0
 15  1  1  0  0  0  0
 16  2  1  0  0  0  0
 20 12  1  0  0  0  0
 20 22  1  0  0  0  0
 20 21  1  0  0  0  0
 23 20  1  0  0  0  0
M  END
>  <minimizedAffinity>
-4.9845438

$$$$

 OpenBabel03242515343D

 23 24  0  0  0  0  0  0  0  0999 V2000
   42.0500   31.2170   43.0250 C   0  0  0  0  0  0  0  0  0  0  0  0
   42.5580   32.2500   42.2250 C   0  0  0  0  0  0  0  0  0  0  0  0
   41.7620   32.7030   41.1520 C   0  0  0  0  0  0  0  0  0  0  0  0
   40.5470   32.1280   40.9340 N   0  0  0  0  0  0  0  0  0  0  0  0
   40.1010   31.1340   41.7330 C   0  0  0  0  0  0  0  0  0  0  0  0
   40.8400   30.6840   42.7640 N   0  0  0  0  0  0  0  0  0  0  0  0
   38.8580   30.4880   41.5740 N   0  0  0  0  0  0  0  0  0  0  0  0
   37.9680   31.1420   40.8170 C   0  0  0  0  0  0  0  0  0  0  0  0
   36.7190   30.5990   40.5960 C   0  0  0  0  0  0  0  0  0  0  0  0
   36.4720   29.3540   41.2080 C   0  0  0  0  0  0  0  0  0  0  0  0
   35.3350   28.8250   41.0280 O   0  0  0  0  0  0  0  0  0  0  0  0
   37.3920   28.7320   41.9600 N   0  0  0  0  0  0  0  0  0  0  0  0
   38.5870   29.3040   42.1400 C   0  0  0  0  0  0  0  0  0  0  0  0
   39.5290   28.7940   42.8360 O   0  0  0  0  0  0  0  0  0  0  0  0
   42.6720   30.8850   43.8400 H   0  0  0  0  0  0  0  0  0  0  0  0
   43.5110   32.7380   42.3540 H   0  0  0  0  0  0  0  0  0  0  0  0
   42.0450   33.4960   40.4620 H   0  0  0  0  0  0  0  0  0  0  0  0
   38.1800   32.1020   40.3550 H   0  0  0  0  0  0  0  0  0  0  0  0
   35.9660   31.0920   39.9920 H   0  0  0  0  0  0  0  0  0  0  0  0
   37.1260   27.4500   42.5840 C   0  0  0  0  0  0  0  0  0  0  0  0
   36.1020   27.6530   43.5100 F   0  0  0  0  0  0  0  0  0  0  0  0
   38.2490   26.9370   43.1990 F   0  0  0  0  0  0  0  0  0  0  0  0
   36.7610   26.5280   41.6220 F   0  0  0  0  0  0  0  0  0  0  0  0
  1 15  1  0  0  0  0
  2 16  1  0  0  0  0
  2  1  2  0  0  0  0
  3  2  1  0  0  0  0
  4  3  2  0  0  0  0
  4  5  1  0  0  0  0
  5  6  2  0  0  0  0
  6  1  1  0  0  0  0
  7  5  1  0  0  0  0
  7 13  1  0  0  0  0
  8  7  1  0  0  0  0
  9  8  2  0  0  0  0
  9 10  1  0  0  0  0
 10 12  1  0  0  0  0
 11 10  2  0  0  0  0
 12 13  1  0  0  0  0
 12 20  1  0  0  0  0
 13 14  2  0  0  0  0
 17  3  1  0  0  0  0
 18  8  1  0  0  0  0
 19  9  1  0  0  0  0
 20 22  1  0  0  0  0
 20 21  1  0  0  0  0
 23 20  1  0  0  0  0
M  END
>  <minimizedAffinity>
-4.94586134

$$$$

 OpenBabel03242515343D

 23 24  0  0  0  0  0  0  0  0999 V2000
   36.9690   25.0800   41.9400 C   0  0  0  0  0  0  0  0  0  0  0  0
   37.9790   24.1280   42.1330 C   0  0  0  0  0  0  0  0  0  0  0  0
   39.3080   24.5900   42.2340 C   0  0  0  0  0  0  0  0  0  0  0  0
   39.5580   25.9250   42.1400 N   0  0  0  0  0  0  0  0  0  0  0  0
   38.5500   26.8040   41.9530 C   0  0  0  0  0  0  0  0  0  0  0  0
   37.2740   26.3900   41.8540 N   0  0  0  0  0  0  0  0  0  0  0  0
   38.7250   28.1990   41.8460 N   0  0  0  0  0  0  0  0  0  0  0  0
   39.8960   28.6640   42.3000 C   0  0  0  0  0  0  0  0  0  0  0  0
   40.1720   30.0140   42.2420 C   0  0  0  0  0  0  0  0  0  0  0  0
   39.1610   30.8260   41.6900 C   0  0  0  0  0  0  0  0  0  0  0  0
   39.3790   32.0720   41.6210 O   0  0  0  0  0  0  0  0  0  0  0  0
   38.0010   30.3200   41.2460 N   0  0  0  0  0  0  0  0  0  0  0  0
   37.7870   29.0030   41.3260 C   0  0  0  0  0  0  0  0  0  0  0  0
   36.7190   28.4240   40.9330 O   0  0  0  0  0  0  0  0  0  0  0  0
   35.9600   24.7070   41.8650 H   0  0  0  0  0  0  0  0  0  0  0  0
   37.8350   23.0610   42.2140 H   0  0  0  0  0  0  0  0  0  0  0  0
   40.1760   23.9510   42.3840 H   0  0  0  0  0  0  0  0  0  0  0  0
   40.6610   28.0190   42.7220 H   0  0  0  0  0  0  0  0  0  0  0  0
   41.1050   30.4360   42.5980 H   0  0  0  0  0  0  0  0  0  0  0  0
   36.9680   31.1660   40.6790 C   0  0  0  0  0  0  0  0  0  0  0  0
   36.7430   30.7140   39.3770 F   0  0  0  0  0  0  0  0  0  0  0  0
   37.3350   32.4950   40.6800 F   0  0  0  0  0  0  0  0  0  0  0  0
   35.8220   31.0830   41.4460 F   0  0  0  0  0  0  0  0  0  0  0  0
  1  2  1  0  0  0  0
  2 16  1  0  0  0  0
  2  3  2  0  0  0  0
  3 17  1  0  0  0  0
  4  3  1  0  0  0  0
  5  4  2  0  0  0  0
  6  1  2  0  0  0  0
  6  5  1  0  0  0  0
  7  5  1  0  0  0  0
  7  8  1  0  0  0  0
  8 18  1  0  0  0  0
  9  8  2  0  0  0  0
  9 19  1  0  0  0  0
 10  9  1  0  0  0  0
 11 10  2  0  0  0  0
 12 13  1  0  0  0  0
 12 10  1  0  0  0  0
 13  7  1  0  0  0  0
 14 13  2  0  0  0  0
 15  1  1  0  0  0  0
 20 22  1  0  0  0  0
 20 12  1  0  0  0  0
 20 23  1  0  0  0  0
 21 20  1  0  0  0  0
M  END
>  <minimizedAffinity>
-4.86684513

$$$$

 OpenBabel03242515343D

 23 24  0  0  0  0  0  0  0  0999 V2000
   39.8550   27.6550   43.2760 C   0  0  0  0  0  0  0  0  0  0  0  0
   38.9440   26.6350   43.5840 C   0  0  0  0  0  0  0  0  0  0  0  0
   37.6340   26.7470   43.0730 C   0  0  0  0  0  0  0  0  0  0  0  0
   37.3060   27.8280   42.3110 N   0  0  0  0  0  0  0  0  0  0  0  0
   38.2200   28.7850   42.0430 C   0  0  0  0  0  0  0  0  0  0  0  0
   39.4770   28.7020   42.5170 N   0  0  0  0  0  0  0  0  0  0  0  0
   37.9610   29.9320   41.2640 N   0  0  0  0  0  0  0  0  0  0  0  0
   36.8690   29.8620   40.4910 C   0  0  0  0  0  0  0  0  0  0  0  0
   36.5220   30.9290   39.6890 C   0  0  0  0  0  0  0  0  0  0  0  0
   37.3760   32.0480   39.7490 C   0  0  0  0  0  0  0  0  0  0  0  0
   37.0890   33.0470   39.0250 O   0  0  0  0  0  0  0  0  0  0  0  0
   38.4610   32.0770   40.5370 N   0  0  0  0  0  0  0  0  0  0  0  0
   38.7500   31.0150   41.2950 C   0  0  0  0  0  0  0  0  0  0  0  0
   39.7570   30.9430   42.0770 O   0  0  0  0  0  0  0  0  0  0  0  0
   40.8520   27.5510   43.6750 H   0  0  0  0  0  0  0  0  0  0  0  0
   39.1520   25.7610   44.1810 H   0  0  0  0  0  0  0  0  0  0  0  0
   36.8390   26.0240   43.2410 H   0  0  0  0  0  0  0  0  0  0  0  0
   36.2250   28.9880   40.4610 H   0  0  0  0  0  0  0  0  0  0  0  0
   35.6490   30.9170   39.0470 H   0  0  0  0  0  0  0  0  0  0  0  0
   39.3330   33.2350   40.5910 C   0  0  0  0  0  0  0  0  0  0  0  0
   38.7260   34.1610   41.4420 F   0  0  0  0  0  0  0  0  0  0  0  0
   39.5400   33.7800   39.3420 F   0  0  0  0  0  0  0  0  0  0  0  0
   40.5780   32.8620   41.0580 F   0  0  0  0  0  0  0  0  0  0  0  0
  1  2  1  0  0  0  0
  1 15  1  0  0  0  0
  2 16  1  0  0  0  0
  3 17  1  0  0  0  0
  3  2  2  0  0  0  0
  4  3  1  0  0  0  0
  5  4  2  0  0  0  0
  5  6  1  0  0  0  0
  6  1  2  0  0  0  0
  7 13  1  0  0  0  0
  7  5  1  0  0  0  0
  8  7  1  0  0  0  0
  9 10  1  0  0  0  0
  9  8  2  0  0  0  0
 10 12  1  0  0  0  0
 11 10  2  0  0  0  0
 12 20  1  0  0  0  0
 12 13  1  0  0  0  0
 13 14  2  0  0  0  0
 18  8  1  0  0  0  0
 19  9  1  0  0  0  0
 20 23  1  0  0  0  0
 20 21  1  0  0  0  0
 22 20  1  0  0  0  0
M  END
>  <minimizedAffinity>
-4.86456823

$$$$

 OpenBabel03242515343D

 23 24  0  0  0  0  0  0  0  0999 V2000
   40.1520   31.9180   37.4850 C   0  0  0  0  0  0  0  0  0  0  0  0
   41.1290   32.8960   37.7170 C   0  0  0  0  0  0  0  0  0  0  0  0
   41.4790   33.1720   39.0560 C   0  0  0  0  0  0  0  0  0  0  0  0
   40.8630   32.4880   40.0600 N   0  0  0  0  0  0  0  0  0  0  0  0
   39.9270   31.5540   39.7850 C   0  0  0  0  0  0  0  0  0  0  0  0
   39.5750   31.2710   38.5170 N   0  0  0  0  0  0  0  0  0  0  0  0
   39.2440   30.8040   40.7650 N   0  0  0  0  0  0  0  0  0  0  0  0
   39.8170   30.7910   41.9750 C   0  0  0  0  0  0  0  0  0  0  0  0
   39.2330   30.0880   43.0080 C   0  0  0  0  0  0  0  0  0  0  0  0
   38.0360   29.4150   42.6950 C   0  0  0  0  0  0  0  0  0  0  0  0
   37.4700   28.7580   43.6180 O   0  0  0  0  0  0  0  0  0  0  0  0
   37.4940   29.4530   41.4680 N   0  0  0  0  0  0  0  0  0  0  0  0
   38.1030   30.1510   40.5040 C   0  0  0  0  0  0  0  0  0  0  0  0
   37.6700   30.2500   39.3070 O   0  0  0  0  0  0  0  0  0  0  0  0
   39.8990   31.7210   36.4560 H   0  0  0  0  0  0  0  0  0  0  0  0
   41.6460   33.4650   36.9600 H   0  0  0  0  0  0  0  0  0  0  0  0
   42.2200   33.9060   39.3640 H   0  0  0  0  0  0  0  0  0  0  0  0
   40.7420   31.3170   42.1940 H   0  0  0  0  0  0  0  0  0  0  0  0
   39.6600   30.0480   44.0030 H   0  0  0  0  0  0  0  0  0  0  0  0
   36.2600   28.7570   41.1570 C   0  0  0  0  0  0  0  0  0  0  0  0
   35.3060   29.7320   40.8640 F   0  0  0  0  0  0  0  0  0  0  0  0
   35.8430   27.9610   42.2030 F   0  0  0  0  0  0  0  0  0  0  0  0
   36.4590   27.9080   40.0850 F   0  0  0  0  0  0  0  0  0  0  0  0
  1  2  2  0  0  0  0
  1  6  1  0  0  0  0
  2  3  1  0  0  0  0
  3 17  1  0  0  0  0
  3  4  2  0  0  0  0
  5  4  1  0  0  0  0
  5  7  1  0  0  0  0
  6  5  2  0  0  0  0
  7  8  1  0  0  0  0
  8 18  1  0  0  0  0
  8  9  2  0  0  0  0
  9 19  1  0  0  0  0
 10  9  1  0  0  0  0
 10 11  2  0  0  0  0
 12 10  1  0  0  0  0
 13  7  1  0  0  0  0
 13 12  1  0  0  0  0
 14 13  2  0  0  0  0
 15  1  1  0  0  0  0
 16  2  1  0  0  0  0
 20 12  1  0  0  0  0
 20 22  1  0  0  0  0
 21 20  1  0  0  0  0
 23 20  1  0  0  0  0
M  END
>  <minimizedAffinity>
-4.75134325

$$$$
