
 OpenBabel03252509073D

 36 38  0  0  0  0  0  0  0  0999 V2000
   45.3840   35.3570   43.2060 Cl  0  0  0  0  0  0  0  0  0  0  0  0
   45.2050   34.5990   41.6530 C   0  0  0  0  0  0  0  0  0  0  0  0
   46.2910   34.1810   40.9570 C   0  0  0  0  0  0  0  0  0  0  0  0
   46.0380   33.5770   39.7330 C   0  0  0  0  0  0  0  0  0  0  0  0
   44.7670   33.4070   39.2450 C   0  0  0  0  0  0  0  0  0  0  0  0
   43.6990   33.8340   39.9630 C   0  0  0  0  0  0  0  0  0  0  0  0
   43.9320   34.4360   41.1800 C   0  0  0  0  0  0  0  0  0  0  0  0
   44.5960   32.9270   38.2740 H   0  0  0  0  0  0  0  0  0  0  0  0
   42.6830   33.7120   39.6010 H   0  0  0  0  0  0  0  0  0  0  0  0
   43.0690   34.7690   41.7380 H   0  0  0  0  0  0  0  0  0  0  0  0
   47.5900   31.8020   38.9320 C   0  0  0  0  0  0  0  0  0  0  0  0
   47.1650   33.0970   38.9410 C   0  0  0  0  0  0  0  0  0  0  0  0
   47.8130   34.0390   38.1630 C   0  0  0  0  0  0  0  0  0  0  0  0
   48.8810   33.6560   37.3850 C   0  0  0  0  0  0  0  0  0  0  0  0
   49.3420   32.3470   37.3490 C   0  0  0  0  0  0  0  0  0  0  0  0
   48.6690   31.4270   38.1440 C   0  0  0  0  0  0  0  0  0  0  0  0
   47.4800   35.0790   38.1630 H   0  0  0  0  0  0  0  0  0  0  0  0
   49.3460   34.4320   36.7990 H   0  0  0  0  0  0  0  0  0  0  0  0
   50.1720   32.0500   36.7450 H   0  0  0  0  0  0  0  0  0  0  0  0
   49.0370   30.4150   38.1070 H   0  0  0  0  0  0  0  0  0  0  0  0
   46.8480   30.6040   39.8330 S   0  0  0  0  0  0  0  0  0  0  0  0
   45.5860   30.1330   39.1070 O   0  0  0  0  0  0  0  0  0  0  0  0
   47.7960   29.3820   39.7540 O   0  0  0  0  0  0  0  0  0  0  0  0
   46.2610   30.5550   41.3870 C   0  0  0  0  0  0  0  0  0  0  0  0
   46.9970   30.6740   42.5170 F   0  0  0  0  0  0  0  0  0  0  0  0
   45.8610   29.2250   41.6190 F   0  0  0  0  0  0  0  0  0  0  0  0
   44.9720   31.1320   41.5780 F   0  0  0  0  0  0  0  0  0  0  0  0
   49.5920   35.7170   41.9510 C   0  0  0  0  0  0  0  0  0  0  0  0
   48.3110   35.5530   41.4080 C   0  0  0  0  0  0  0  0  0  0  0  0
   47.6090   34.3660   41.5080 C   0  0  0  0  0  0  0  0  0  0  0  0
   48.2540   33.3760   42.1730 N   0  0  0  0  0  0  0  0  0  0  0  0
   49.4850   33.5300   42.6970 C   0  0  0  0  0  0  0  0  0  0  0  0
   50.1400   34.6910   42.5840 N   0  0  0  0  0  0  0  0  0  0  0  0
   50.0050   36.7030   41.7870 H   0  0  0  0  0  0  0  0  0  0  0  0
   47.8080   36.3530   40.8780 H   0  0  0  0  0  0  0  0  0  0  0  0
   49.9840   32.7310   43.2230 H   0  0  0  0  0  0  0  0  0  0  0  0
  2  1  1  0  0  0  0
  3 30  1  0  0  0  0
  3  2  2  0  0  0  0
  4  3  1  0  0  0  0
  5  4  2  0  0  0  0
  5  6  1  0  0  0  0
  6  7  2  0  0  0  0
  7  2  1  0  0  0  0
  7 10  1  0  0  0  0
  8  5  1  0  0  0  0
  9  6  1  0  0  0  0
 11 12  1  0  0  0  0
 11 21  1  0  0  0  0
 12  4  1  0  0  0  0
 13 17  1  0  0  0  0
 13 12  2  0  0  0  0
 14 13  1  0  0  0  0
 15 14  2  0  0  0  0
 15 16  1  0  0  0  0
 16 11  2  0  0  0  0
 18 14  1  0  0  0  0
 19 15  1  0  0  0  0
 20 16  1  0  0  0  0
 21 24  1  0  0  0  0
 22 21  2  0  0  0  0
 23 21  2  0  0  0  0
 24 27  1  0  0  0  0
 24 26  1  0  0  0  0
 24 25  1  0  0  0  0
 28 33  1  0  0  0  0
 29 30  1  0  0  0  0
 29 28  2  0  0  0  0
 30 31  2  0  0  0  0
 31 32  1  0  0  0  0
 32 36  1  0  0  0  0
 33 32  2  0  0  0  0
 34 28  1  0  0  0  0
 35 29  1  0  0  0  0
M  END
>  <minimizedAffinity>
-4.49976015

>  <minimizedRMSD>
0.761516392

$$$$
