
 OpenBabel03252506353D

 28 29  0  0  1  0  0  0  0  0999 V2000
   37.9800   31.4450   38.5450 C   0  0  0  0  0  0  0  0  0  0  0  0
   39.1240   31.1370   37.7910 C   0  0  0  0  0  0  0  0  0  0  0  0
   39.7230   29.9290   37.9700 C   0  0  0  0  0  0  0  0  0  0  0  0
   39.1790   29.0810   38.8750 N   0  0  0  0  0  0  0  0  0  0  0  0
   38.0880   29.3920   39.5870 C   0  0  0  0  0  0  0  0  0  0  0  0
   37.4700   30.5680   39.4400 N   0  0  0  0  0  0  0  0  0  0  0  0
   37.6050   28.4270   40.5090 N   0  0  0  0  0  0  0  0  0  0  0  0
   36.2760   28.4640   41.1360 C   0  0  0  0  0  0  0  0  0  0  0  0
   36.5940   27.9720   42.5420 C   0  0  0  0  0  0  0  0  0  0  0  0
   38.0000   27.4200   42.5120 C   0  0  0  0  0  0  0  0  0  0  0  0
   38.2390   27.2470   41.0350 C   0  0  1  0  0  0  0  0  0  0  0  0
   37.4500   32.3900   38.4570 H   0  0  0  0  0  0  0  0  0  0  0  0
   40.5990   29.7240   37.3750 H   0  0  0  0  0  0  0  0  0  0  0  0
   35.6640   27.7030   40.6170 H   0  0  0  0  0  0  0  0  0  0  0  0
   35.8150   29.4540   41.1100 H   0  0  0  0  0  0  0  0  0  0  0  0
   35.9330   27.1290   42.8470 H   0  0  0  0  0  0  0  0  0  0  0  0
   36.5270   28.7860   43.2700 H   0  0  0  0  0  0  0  0  0  0  0  0
   38.1360   26.5170   43.1090 H   0  0  0  0  0  0  0  0  0  0  0  0
   38.7470   28.1950   42.8570 H   0  0  0  0  0  0  0  0  0  0  0  0
   39.3180   27.1870   40.7840 H   0  0  0  0  0  0  0  0  0  0  0  0
   39.5310   32.1770   36.8960 N   0  0  0  0  0  0  0  0  0  0  0  0
   39.0550   32.2250   35.9480 H   0  0  0  0  0  0  0  0  0  0  0  0
   40.2600   32.6560   37.4740 H   0  0  0  0  0  0  0  0  0  0  0  0
   37.4520   25.7300   40.4830 S   0  0  0  0  0  0  0  0  0  0  0  0
   37.4900   24.4150   41.6990 C   0  0  0  0  0  0  0  0  0  0  0  0
   37.2730   23.1980   41.0380 F   0  0  0  0  0  0  0  0  0  0  0  0
   36.4210   24.6100   42.5710 F   0  0  0  0  0  0  0  0  0  0  0  0
   38.6800   24.3080   42.3730 F   0  0  0  0  0  0  0  0  0  0  0  0
  1  6  1  0  0  0  0
  2  3  1  0  0  0  0
  2  1  2  0  0  0  0
  3  4  2  0  0  0  0
  4  5  1  0  0  0  0
  5  7  1  0  0  0  0
  6  5  2  0  0  0  0
  7 11  1  0  0  0  0
  7  8  1  0  0  0  0
  8  9  1  0  0  0  0
  9 16  1  0  0  0  0
  9 17  1  0  0  0  0
 10  9  1  0  0  0  0
 10 19  1  0  0  0  0
 10 18  1  0  0  0  0
 11 20  1  6  0  0  0
 11 10  1  0  0  0  0
 12  1  1  0  0  0  0
 13  3  1  0  0  0  0
 14  8  1  0  0  0  0
 15  8  1  0  0  0  0
 21 23  1  0  0  0  0
 21  2  1  0  0  0  0
 22 21  1  0  0  0  0
 24 11  1  0  0  0  0
 24 25  1  0  0  0  0
 25 28  1  0  0  0  0
 25 27  1  0  0  0  0
 26 25  1  0  0  0  0
M  END
>  <minimizedAffinity>
-4.89335632

$$$$

 OpenBabel03252506353D

 28 29  0  0  1  0  0  0  0  0999 V2000
   41.8700   33.3160   39.0700 C   0  0  0  0  0  0  0  0  0  0  0  0
   41.5740   33.1670   37.7060 C   0  0  0  0  0  0  0  0  0  0  0  0
   40.6050   32.2870   37.3360 C   0  0  0  0  0  0  0  0  0  0  0  0
   39.9720   31.5950   38.3130 N   0  0  0  0  0  0  0  0  0  0  0  0
   40.2680   31.7490   39.6100 C   0  0  0  0  0  0  0  0  0  0  0  0
   41.2130   32.6030   40.0140 N   0  0  0  0  0  0  0  0  0  0  0  0
   39.5410   30.9710   40.5500 N   0  0  0  0  0  0  0  0  0  0  0  0
   39.5110   31.2240   41.9970 C   0  0  0  0  0  0  0  0  0  0  0  0
   39.5200   29.8040   42.5500 C   0  0  0  0  0  0  0  0  0  0  0  0
   39.2550   28.8750   41.3890 C   0  0  0  0  0  0  0  0  0  0  0  0
   38.7060   29.8160   40.3500 C   0  0  1  0  0  0  0  0  0  0  0  0
   42.6320   33.9970   39.4390 H   0  0  0  0  0  0  0  0  0  0  0  0
   40.4020   32.1970   36.2800 H   0  0  0  0  0  0  0  0  0  0  0  0
   38.5320   31.6900   42.2130 H   0  0  0  0  0  0  0  0  0  0  0  0
   40.3470   31.8360   42.3450 H   0  0  0  0  0  0  0  0  0  0  0  0
   38.6940   29.6370   43.2790 H   0  0  0  0  0  0  0  0  0  0  0  0
   40.4830   29.5650   43.0090 H   0  0  0  0  0  0  0  0  0  0  0  0
   38.6080   28.0310   41.6330 H   0  0  0  0  0  0  0  0  0  0  0  0
   40.2220   28.4730   40.9630 H   0  0  0  0  0  0  0  0  0  0  0  0
   38.7780   29.4030   39.3220 H   0  0  0  0  0  0  0  0  0  0  0  0
   42.3650   33.9910   36.8420 N   0  0  0  0  0  0  0  0  0  0  0  0
   42.0440   34.9910   36.6890 H   0  0  0  0  0  0  0  0  0  0  0  0
   43.1180   33.3190   36.5700 H   0  0  0  0  0  0  0  0  0  0  0  0
   36.9760   30.1410   40.7010 S   0  0  0  0  0  0  0  0  0  0  0  0
   35.9850   28.6580   40.8740 C   0  0  0  0  0  0  0  0  0  0  0  0
   34.6450   28.9940   40.6360 F   0  0  0  0  0  0  0  0  0  0  0  0
   36.0780   28.2360   42.1980 F   0  0  0  0  0  0  0  0  0  0  0  0
   36.3180   27.6560   39.9980 F   0  0  0  0  0  0  0  0  0  0  0  0
  1 12  1  0  0  0  0
  1  6  1  0  0  0  0
  2  1  2  0  0  0  0
  3  2  1  0  0  0  0
  3  4  2  0  0  0  0
  4  5  1  0  0  0  0
  5  6  2  0  0  0  0
  5  7  1  0  0  0  0
  7  8  1  0  0  0  0
  8 14  1  0  0  0  0
  8 15  1  0  0  0  0
  8  9  1  0  0  0  0
  9 17  1  0  0  0  0
  9 16  1  0  0  0  0
 10 18  1  0  0  0  0
 10  9  1  0  0  0  0
 11 20  1  6  0  0  0
 11  7  1  0  0  0  0
 11 24  1  0  0  0  0
 11 10  1  0  0  0  0
 13  3  1  0  0  0  0
 19 10  1  0  0  0  0
 21  2  1  0  0  0  0
 22 21  1  0  0  0  0
 23 21  1  0  0  0  0
 24 25  1  0  0  0  0
 25 27  1  0  0  0  0
 26 25  1  0  0  0  0
 28 25  1  0  0  0  0
M  END
>  <minimizedAffinity>
-4.88643646

$$$$

 OpenBabel03252506353D

 28 29  0  0  1  0  0  0  0  0999 V2000
   39.4680   32.5230   39.4120 C   0  0  0  0  0  0  0  0  0  0  0  0
   39.9950   32.7100   40.7000 C   0  0  0  0  0  0  0  0  0  0  0  0
   39.5770   31.8930   41.7050 C   0  0  0  0  0  0  0  0  0  0  0  0
   38.6670   30.9370   41.4060 N   0  0  0  0  0  0  0  0  0  0  0  0
   38.1730   30.7740   40.1720 C   0  0  0  0  0  0  0  0  0  0  0  0
   38.5590   31.5550   39.1570 N   0  0  0  0  0  0  0  0  0  0  0  0
   37.2220   29.7390   39.9730 N   0  0  0  0  0  0  0  0  0  0  0  0
   36.8140   29.2220   38.6580 C   0  0  0  0  0  0  0  0  0  0  0  0
   35.3260   28.9850   38.8780 C   0  0  0  0  0  0  0  0  0  0  0  0
   35.0720   29.1010   40.3630 C   0  0  0  0  0  0  0  0  0  0  0  0
   36.4620   28.9800   40.9300 C   0  0  1  0  0  0  0  0  0  0  0  0
   39.7530   33.1370   38.5620 H   0  0  0  0  0  0  0  0  0  0  0  0
   40.0020   32.0640   42.6820 H   0  0  0  0  0  0  0  0  0  0  0  0
   37.3210   28.2470   38.5350 H   0  0  0  0  0  0  0  0  0  0  0  0
   37.0330   29.9100   37.8380 H   0  0  0  0  0  0  0  0  0  0  0  0
   35.0220   27.9530   38.5880 H   0  0  0  0  0  0  0  0  0  0  0  0
   34.7240   29.7220   38.3380 H   0  0  0  0  0  0  0  0  0  0  0  0
   34.3540   28.3760   40.7500 H   0  0  0  0  0  0  0  0  0  0  0  0
   34.7170   30.1390   40.6340 H   0  0  0  0  0  0  0  0  0  0  0  0
   36.5380   29.3850   41.9600 H   0  0  0  0  0  0  0  0  0  0  0  0
   40.9410   33.7800   40.7960 N   0  0  0  0  0  0  0  0  0  0  0  0
   41.9480   33.5710   40.5340 H   0  0  0  0  0  0  0  0  0  0  0  0
   40.3230   34.5550   41.1300 H   0  0  0  0  0  0  0  0  0  0  0  0
   36.9340   27.2480   40.9750 S   0  0  0  0  0  0  0  0  0  0  0  0
   37.0200   26.5680   42.6310 C   0  0  0  0  0  0  0  0  0  0  0  0
   36.5840   25.2370   42.5830 F   0  0  0  0  0  0  0  0  0  0  0  0
   36.1190   27.2710   43.4270 F   0  0  0  0  0  0  0  0  0  0  0  0
   38.2800   26.5670   43.1720 F   0  0  0  0  0  0  0  0  0  0  0  0
  1  2  1  0  0  0  0
  2 21  1  0  0  0  0
  2  3  2  0  0  0  0
  3 13  1  0  0  0  0
  4  3  1  0  0  0  0
  5  4  2  0  0  0  0
  6  1  2  0  0  0  0
  6  5  1  0  0  0  0
  7  5  1  0  0  0  0
  7 11  1  0  0  0  0
  8  9  1  0  0  0  0
  8  7  1  0  0  0  0
  9 10  1  0  0  0  0
 10 19  1  0  0  0  0
 10 18  1  0  0  0  0
 10 11  1  0  0  0  0
 11 24  1  0  0  0  0
 11 20  1  1  0  0  0
 12  1  1  0  0  0  0
 14  8  1  0  0  0  0
 15  8  1  0  0  0  0
 16  9  1  0  0  0  0
 17  9  1  0  0  0  0
 21 23  1  0  0  0  0
 22 21  1  0  0  0  0
 24 25  1  0  0  0  0
 25 28  1  0  0  0  0
 25 27  1  0  0  0  0
 26 25  1  0  0  0  0
M  END
>  <minimizedAffinity>
-4.88345718

$$$$

 OpenBabel03252506353D

 28 29  0  0  1  0  0  0  0  0999 V2000
   36.5760   31.5900   40.5010 C   0  0  0  0  0  0  0  0  0  0  0  0
   37.6940   32.4400   40.5100 C   0  0  0  0  0  0  0  0  0  0  0  0
   38.8860   31.9510   40.9460 C   0  0  0  0  0  0  0  0  0  0  0  0
   38.9310   30.6600   41.3520 N   0  0  0  0  0  0  0  0  0  0  0  0
   37.8540   29.8640   41.3380 C   0  0  0  0  0  0  0  0  0  0  0  0
   36.6650   30.3060   40.9170 N   0  0  0  0  0  0  0  0  0  0  0  0
   38.0160   28.5270   41.7880 N   0  0  0  0  0  0  0  0  0  0  0  0
   37.0460   27.4470   41.5590 C   0  0  0  0  0  0  0  0  0  0  0  0
   37.1230   26.6900   42.8790 C   0  0  0  0  0  0  0  0  0  0  0  0
   38.3270   27.2170   43.6230 C   0  0  0  0  0  0  0  0  0  0  0  0
   39.0880   27.9210   42.5310 C   0  0  1  0  0  0  0  0  0  0  0  0
   35.5920   31.9110   40.1690 H   0  0  0  0  0  0  0  0  0  0  0  0
   39.7250   32.6300   40.9390 H   0  0  0  0  0  0  0  0  0  0  0  0
   37.4660   26.8150   40.7550 H   0  0  0  0  0  0  0  0  0  0  0  0
   36.0440   27.8110   41.3190 H   0  0  0  0  0  0  0  0  0  0  0  0
   37.3020   25.6010   42.7240 H   0  0  0  0  0  0  0  0  0  0  0  0
   36.2180   26.8430   43.4750 H   0  0  0  0  0  0  0  0  0  0  0  0
   38.8920   26.4500   44.1550 H   0  0  0  0  0  0  0  0  0  0  0  0
   38.0290   28.0200   44.3600 H   0  0  0  0  0  0  0  0  0  0  0  0
   39.8120   28.6630   42.9290 H   0  0  0  0  0  0  0  0  0  0  0  0
   37.4240   33.7660   40.0430 N   0  0  0  0  0  0  0  0  0  0  0  0
   37.4450   33.9310   38.9950 H   0  0  0  0  0  0  0  0  0  0  0  0
   37.2630   34.2620   40.9500 H   0  0  0  0  0  0  0  0  0  0  0  0
   40.0020   26.7100   41.5710 S   0  0  0  0  0  0  0  0  0  0  0  0
   40.9580   25.5710   42.5700 C   0  0  0  0  0  0  0  0  0  0  0  0
   41.4540   26.2690   43.6790 F   0  0  0  0  0  0  0  0  0  0  0  0
   42.0530   25.1580   41.8150 F   0  0  0  0  0  0  0  0  0  0  0  0
   40.2400   24.5030   43.0460 F   0  0  0  0  0  0  0  0  0  0  0  0
  1  2  2  0  0  0  0
  1  6  1  0  0  0  0
  2  3  1  0  0  0  0
  3  4  2  0  0  0  0
  5  4  1  0  0  0  0
  5  7  1  0  0  0  0
  6  5  2  0  0  0  0
  7 11  1  0  0  0  0
  8  7  1  0  0  0  0
  8  9  1  0  0  0  0
  9 17  1  0  0  0  0
  9 10  1  0  0  0  0
 10 18  1  0  0  0  0
 10 19  1  0  0  0  0
 11 20  1  1  0  0  0
 11 10  1  0  0  0  0
 12  1  1  0  0  0  0
 13  3  1  0  0  0  0
 14  8  1  0  0  0  0
 15  8  1  0  0  0  0
 16  9  1  0  0  0  0
 21  2  1  0  0  0  0
 21 23  1  0  0  0  0
 22 21  1  0  0  0  0
 24 11  1  0  0  0  0
 24 25  1  0  0  0  0
 25 28  1  0  0  0  0
 25 26  1  0  0  0  0
 27 25  1  0  0  0  0
M  END
>  <minimizedAffinity>
-4.73659992

$$$$

 OpenBabel03252506353D

 28 29  0  0  1  0  0  0  0  0999 V2000
   37.5110   31.4910   38.6050 C   0  0  0  0  0  0  0  0  0  0  0  0
   36.9800   31.9560   39.8180 C   0  0  0  0  0  0  0  0  0  0  0  0
   36.5670   31.0500   40.7450 C   0  0  0  0  0  0  0  0  0  0  0  0
   36.6900   29.7360   40.4440 N   0  0  0  0  0  0  0  0  0  0  0  0
   37.1980   29.3090   39.2800 C   0  0  0  0  0  0  0  0  0  0  0  0
   37.6160   30.1670   38.3440 N   0  0  0  0  0  0  0  0  0  0  0  0
   37.2810   27.9070   39.0710 N   0  0  0  0  0  0  0  0  0  0  0  0
   38.0750   27.2670   38.0120 C   0  0  0  0  0  0  0  0  0  0  0  0
   37.1590   26.1210   37.6020 C   0  0  0  0  0  0  0  0  0  0  0  0
   36.0720   26.0250   38.6470 C   0  0  0  0  0  0  0  0  0  0  0  0
   36.6560   26.8240   39.7820 C   0  0  1  0  0  0  0  0  0  0  0  0
   37.8590   32.1540   37.8180 H   0  0  0  0  0  0  0  0  0  0  0  0
   36.1640   31.4410   41.6660 H   0  0  0  0  0  0  0  0  0  0  0  0
   38.9740   26.8530   38.5040 H   0  0  0  0  0  0  0  0  0  0  0  0
   38.3260   27.9440   37.1930 H   0  0  0  0  0  0  0  0  0  0  0  0
   37.6900   25.1410   37.6120 H   0  0  0  0  0  0  0  0  0  0  0  0
   36.7180   26.3010   36.6180 H   0  0  0  0  0  0  0  0  0  0  0  0
   35.7890   25.0030   38.9020 H   0  0  0  0  0  0  0  0  0  0  0  0
   35.1460   26.5840   38.3200 H   0  0  0  0  0  0  0  0  0  0  0  0
   35.8830   27.1680   40.5010 H   0  0  0  0  0  0  0  0  0  0  0  0
   36.9360   33.3830   39.9280 N   0  0  0  0  0  0  0  0  0  0  0  0
   37.8170   33.8780   40.2520 H   0  0  0  0  0  0  0  0  0  0  0  0
   35.9510   33.5700   39.6300 H   0  0  0  0  0  0  0  0  0  0  0  0
   37.8360   25.8070   40.6760 S   0  0  0  0  0  0  0  0  0  0  0  0
   37.1020   24.8470   41.9990 C   0  0  0  0  0  0  0  0  0  0  0  0
   36.0930   24.0430   41.4510 F   0  0  0  0  0  0  0  0  0  0  0  0
   36.4920   25.7350   42.8810 F   0  0  0  0  0  0  0  0  0  0  0  0
   37.9830   24.0170   42.6440 F   0  0  0  0  0  0  0  0  0  0  0  0
  1  2  1  0  0  0  0
  2 21  1  0  0  0  0
  2  3  2  0  0  0  0
  3 13  1  0  0  0  0
  4  3  1  0  0  0  0
  5  4  2  0  0  0  0
  6  1  2  0  0  0  0
  6  5  1  0  0  0  0
  7  5  1  0  0  0  0
  7 11  1  0  0  0  0
  8 14  1  0  0  0  0
  8  7  1  0  0  0  0
  9 16  1  0  0  0  0
  9  8  1  0  0  0  0
  9 10  1  0  0  0  0
 10 18  1  0  0  0  0
 10 11  1  0  0  0  0
 11 20  1  1  0  0  0
 11 24  1  0  0  0  0
 12  1  1  0  0  0  0
 15  8  1  0  0  0  0
 17  9  1  0  0  0  0
 19 10  1  0  0  0  0
 21 22  1  0  0  0  0
 23 21  1  0  0  0  0
 24 25  1  0  0  0  0
 25 28  1  0  0  0  0
 25 27  1  0  0  0  0
 26 25  1  0  0  0  0
M  END
>  <minimizedAffinity>
-4.73423433

$$$$

 OpenBabel03252506353D

 28 29  0  0  1  0  0  0  0  0999 V2000
   38.5050   32.7140   40.7300 C   0  0  0  0  0  0  0  0  0  0  0  0
   37.4420   32.6870   39.8130 C   0  0  0  0  0  0  0  0  0  0  0  0
   36.8760   31.4910   39.4990 C   0  0  0  0  0  0  0  0  0  0  0  0
   37.3720   30.3800   40.0930 N   0  0  0  0  0  0  0  0  0  0  0  0
   38.3880   30.4240   40.9650 C   0  0  0  0  0  0  0  0  0  0  0  0
   38.9710   31.5790   41.3000 N   0  0  0  0  0  0  0  0  0  0  0  0
   38.8280   29.1960   41.5270 N   0  0  0  0  0  0  0  0  0  0  0  0
   39.7000   29.0830   42.7050 C   0  0  0  0  0  0  0  0  0  0  0  0
   40.5800   27.9020   42.3150 C   0  0  0  0  0  0  0  0  0  0  0  0
   39.9500   27.2620   41.1000 C   0  0  0  0  0  0  0  0  0  0  0  0
   38.5610   27.8420   41.1230 C   0  0  1  0  0  0  0  0  0  0  0  0
   39.0070   33.6300   41.0280 H   0  0  0  0  0  0  0  0  0  0  0  0
   36.0620   31.5060   38.7910 H   0  0  0  0  0  0  0  0  0  0  0  0
   39.0490   28.7860   43.5480 H   0  0  0  0  0  0  0  0  0  0  0  0
   40.2600   29.9970   42.9160 H   0  0  0  0  0  0  0  0  0  0  0  0
   40.5990   27.1190   43.1070 H   0  0  0  0  0  0  0  0  0  0  0  0
   41.5980   28.2280   42.0820 H   0  0  0  0  0  0  0  0  0  0  0  0
   39.9940   26.1720   41.0980 H   0  0  0  0  0  0  0  0  0  0  0  0
   40.4280   27.6430   40.1480 H   0  0  0  0  0  0  0  0  0  0  0  0
   38.0570   27.7760   40.1360 H   0  0  0  0  0  0  0  0  0  0  0  0
   37.0780   33.9740   39.3020 N   0  0  0  0  0  0  0  0  0  0  0  0
   36.4150   34.5630   39.8840 H   0  0  0  0  0  0  0  0  0  0  0  0
   37.6170   33.9860   38.4060 H   0  0  0  0  0  0  0  0  0  0  0  0
   37.5660   26.9430   42.3180 S   0  0  0  0  0  0  0  0  0  0  0  0
   37.6020   25.1660   42.0950 C   0  0  0  0  0  0  0  0  0  0  0  0
   37.6460   24.8960   40.7200 F   0  0  0  0  0  0  0  0  0  0  0  0
   36.4020   24.6520   42.5800 F   0  0  0  0  0  0  0  0  0  0  0  0
   38.6850   24.5510   42.6680 F   0  0  0  0  0  0  0  0  0  0  0  0
  1 12  1  0  0  0  0
  1  6  1  0  0  0  0
  2  1  2  0  0  0  0
  3  2  1  0  0  0  0
  3  4  2  0  0  0  0
  4  5  1  0  0  0  0
  5  6  2  0  0  0  0
  5  7  1  0  0  0  0
  7  8  1  0  0  0  0
  8 15  1  0  0  0  0
  8 14  1  0  0  0  0
  9  8  1  0  0  0  0
  9 16  1  0  0  0  0
 10 11  1  0  0  0  0
 10  9  1  0  0  0  0
 11 20  1  6  0  0  0
 11  7  1  0  0  0  0
 11 24  1  0  0  0  0
 13  3  1  0  0  0  0
 17  9  1  0  0  0  0
 18 10  1  0  0  0  0
 19 10  1  0  0  0  0
 21  2  1  0  0  0  0
 21 22  1  0  0  0  0
 23 21  1  0  0  0  0
 25 24  1  0  0  0  0
 25 27  1  0  0  0  0
 25 28  1  0  0  0  0
 26 25  1  0  0  0  0
M  END
>  <minimizedAffinity>
-4.7295289

$$$$

 OpenBabel03252506353D

 28 29  0  0  1  0  0  0  0  0999 V2000
   39.4320   32.1710   38.5910 C   0  0  0  0  0  0  0  0  0  0  0  0
   38.5350   31.5410   37.7150 C   0  0  0  0  0  0  0  0  0  0  0  0
   38.0150   30.3330   38.0630 C   0  0  0  0  0  0  0  0  0  0  0  0
   38.3960   29.7980   39.2470 N   0  0  0  0  0  0  0  0  0  0  0  0
   39.2550   30.4130   40.0710 C   0  0  0  0  0  0  0  0  0  0  0  0
   39.7870   31.6000   39.7660 N   0  0  0  0  0  0  0  0  0  0  0  0
   39.5850   29.7590   41.2880 N   0  0  0  0  0  0  0  0  0  0  0  0
   40.2500   30.4050   42.4280 C   0  0  0  0  0  0  0  0  0  0  0  0
   41.1700   29.2910   42.9100 C   0  0  0  0  0  0  0  0  0  0  0  0
   40.7420   28.0260   42.2030 C   0  0  0  0  0  0  0  0  0  0  0  0
   39.3740   28.3960   41.6960 C   0  0  1  0  0  0  0  0  0  0  0  0
   39.8880   33.1340   38.3790 H   0  0  0  0  0  0  0  0  0  0  0  0
   37.3290   29.8760   37.3680 H   0  0  0  0  0  0  0  0  0  0  0  0
   39.4670   30.5810   43.1890 H   0  0  0  0  0  0  0  0  0  0  0  0
   40.7770   31.3230   42.1560 H   0  0  0  0  0  0  0  0  0  0  0  0
   41.0510   29.0950   44.0000 H   0  0  0  0  0  0  0  0  0  0  0  0
   42.2160   29.5140   42.6780 H   0  0  0  0  0  0  0  0  0  0  0  0
   40.7750   27.1330   42.8290 H   0  0  0  0  0  0  0  0  0  0  0  0
   41.3730   27.8420   41.2830 H   0  0  0  0  0  0  0  0  0  0  0  0
   39.0380   27.7430   40.8640 H   0  0  0  0  0  0  0  0  0  0  0  0
   38.2730   32.2780   36.5160 N   0  0  0  0  0  0  0  0  0  0  0  0
   37.5290   33.0340   36.5580 H   0  0  0  0  0  0  0  0  0  0  0  0
   38.9520   31.8290   35.8600 H   0  0  0  0  0  0  0  0  0  0  0  0
   38.1870   28.2480   43.0360 S   0  0  0  0  0  0  0  0  0  0  0  0
   36.6660   27.4280   42.5630 C   0  0  0  0  0  0  0  0  0  0  0  0
   36.0370   28.2020   41.5770 F   0  0  0  0  0  0  0  0  0  0  0  0
   35.8270   27.4130   43.6750 F   0  0  0  0  0  0  0  0  0  0  0  0
   36.8430   26.1710   42.0450 F   0  0  0  0  0  0  0  0  0  0  0  0
  1  6  1  0  0  0  0
  2  3  1  0  0  0  0
  2  1  2  0  0  0  0
  3  4  2  0  0  0  0
  4  5  1  0  0  0  0
  5  7  1  0  0  0  0
  6  5  2  0  0  0  0
  7 11  1  0  0  0  0
  7  8  1  0  0  0  0
  8  9  1  0  0  0  0
  8 14  1  0  0  0  0
  9 16  1  0  0  0  0
 10 18  1  0  0  0  0
 10  9  1  0  0  0  0
 11 20  1  6  0  0  0
 11 10  1  0  0  0  0
 11 24  1  0  0  0  0
 12  1  1  0  0  0  0
 13  3  1  0  0  0  0
 15  8  1  0  0  0  0
 17  9  1  0  0  0  0
 19 10  1  0  0  0  0
 21 22  1  0  0  0  0
 21  2  1  0  0  0  0
 23 21  1  0  0  0  0
 25 24  1  0  0  0  0
 25 27  1  0  0  0  0
 26 25  1  0  0  0  0
 28 25  1  0  0  0  0
M  END
>  <minimizedAffinity>
-4.70581865

$$$$

 OpenBabel03252506353D

 28 29  0  0  1  0  0  0  0  0999 V2000
   37.1990   29.4340   42.4110 C   0  0  0  0  0  0  0  0  0  0  0  0
   36.5270   29.7750   41.2260 C   0  0  0  0  0  0  0  0  0  0  0  0
   36.6200   28.9400   40.1550 C   0  0  0  0  0  0  0  0  0  0  0  0
   37.3630   27.8170   40.2910 N   0  0  0  0  0  0  0  0  0  0  0  0
   37.9990   27.5090   41.4290 C   0  0  0  0  0  0  0  0  0  0  0  0
   37.9320   28.3010   42.5030 N   0  0  0  0  0  0  0  0  0  0  0  0
   38.7520   26.3050   41.4590 N   0  0  0  0  0  0  0  0  0  0  0  0
   39.2490   25.6620   42.6840 C   0  0  0  0  0  0  0  0  0  0  0  0
   40.6120   25.1580   42.2260 C   0  0  0  0  0  0  0  0  0  0  0  0
   40.6520   25.2910   40.7220 C   0  0  0  0  0  0  0  0  0  0  0  0
   39.1950   25.4600   40.3820 C   0  0  1  0  0  0  0  0  0  0  0  0
   37.1720   30.0520   43.3050 H   0  0  0  0  0  0  0  0  0  0  0  0
   36.0910   29.2310   39.2610 H   0  0  0  0  0  0  0  0  0  0  0  0
   38.5880   24.7950   42.8720 H   0  0  0  0  0  0  0  0  0  0  0  0
   39.2950   26.3410   43.5380 H   0  0  0  0  0  0  0  0  0  0  0  0
   40.7510   24.0760   42.4490 H   0  0  0  0  0  0  0  0  0  0  0  0
   41.4200   25.7430   42.6750 H   0  0  0  0  0  0  0  0  0  0  0  0
   41.1490   24.4620   40.2150 H   0  0  0  0  0  0  0  0  0  0  0  0
   41.1550   26.2540   40.4130 H   0  0  0  0  0  0  0  0  0  0  0  0
   39.0420   25.9180   39.3830 H   0  0  0  0  0  0  0  0  0  0  0  0
   35.8030   31.0070   41.2980 N   0  0  0  0  0  0  0  0  0  0  0  0
   34.8260   30.9800   41.7130 H   0  0  0  0  0  0  0  0  0  0  0  0
   36.5000   31.6660   40.8810 H   0  0  0  0  0  0  0  0  0  0  0  0
   38.3960   23.8510   40.3860 S   0  0  0  0  0  0  0  0  0  0  0  0
   36.6080   23.9360   40.4600 C   0  0  0  0  0  0  0  0  0  0  0  0
   36.1870   25.0270   39.6870 F   0  0  0  0  0  0  0  0  0  0  0  0
   36.2480   24.1990   41.7800 F   0  0  0  0  0  0  0  0  0  0  0  0
   35.9730   22.8210   39.9740 F   0  0  0  0  0  0  0  0  0  0  0  0
  1  6  1  0  0  0  0
  1 12  1  0  0  0  0
  2 21  1  0  0  0  0
  2  1  2  0  0  0  0
  3  4  2  0  0  0  0
  3  2  1  0  0  0  0
  4  5  1  0  0  0  0
  5  7  1  0  0  0  0
  5  6  2  0  0  0  0
  7  8  1  0  0  0  0
  8 14  1  0  0  0  0
  8 15  1  0  0  0  0
  9 16  1  0  0  0  0
  9 17  1  0  0  0  0
  9  8  1  0  0  0  0
 10  9  1  0  0  0  0
 11 20  1  6  0  0  0
 11 24  1  0  0  0  0
 11 10  1  0  0  0  0
 11  7  1  0  0  0  0
 13  3  1  0  0  0  0
 18 10  1  0  0  0  0
 19 10  1  0  0  0  0
 21 22  1  0  0  0  0
 23 21  1  0  0  0  0
 24 25  1  0  0  0  0
 25 27  1  0  0  0  0
 26 25  1  0  0  0  0
 28 25  1  0  0  0  0
M  END
>  <minimizedAffinity>
-4.66040468

$$$$

 OpenBabel03252506353D

 28 29  0  0  1  0  0  0  0  0999 V2000
   39.2250   24.1170   41.2140 C   0  0  0  0  0  0  0  0  0  0  0  0
   37.9940   23.4680   41.0330 C   0  0  0  0  0  0  0  0  0  0  0  0
   36.8490   24.2010   41.1030 C   0  0  0  0  0  0  0  0  0  0  0  0
   36.9610   25.5270   41.3480 N   0  0  0  0  0  0  0  0  0  0  0  0
   38.1450   26.1300   41.5200 C   0  0  0  0  0  0  0  0  0  0  0  0
   39.2910   25.4460   41.4580 N   0  0  0  0  0  0  0  0  0  0  0  0
   38.1430   27.5270   41.7730 N   0  0  0  0  0  0  0  0  0  0  0  0
   39.3280   28.3930   41.6810 C   0  0  0  0  0  0  0  0  0  0  0  0
   39.1000   29.3390   42.8530 C   0  0  0  0  0  0  0  0  0  0  0  0
   37.6790   29.1280   43.3230 C   0  0  0  0  0  0  0  0  0  0  0  0
   37.0660   28.4000   42.1560 C   0  0  1  0  0  0  0  0  0  0  0  0
   40.1790   23.5980   41.1740 H   0  0  0  0  0  0  0  0  0  0  0  0
   35.9200   23.6710   40.9590 H   0  0  0  0  0  0  0  0  0  0  0  0
   39.2290   28.9580   40.7360 H   0  0  0  0  0  0  0  0  0  0  0  0
   40.2690   27.8420   41.7380 H   0  0  0  0  0  0  0  0  0  0  0  0
   39.1720   30.4070   42.5450 H   0  0  0  0  0  0  0  0  0  0  0  0
   39.7990   29.1330   43.6680 H   0  0  0  0  0  0  0  0  0  0  0  0
   37.1660   30.0450   43.6150 H   0  0  0  0  0  0  0  0  0  0  0  0
   37.6440   28.4050   44.1920 H   0  0  0  0  0  0  0  0  0  0  0  0
   36.1430   27.8510   42.4360 H   0  0  0  0  0  0  0  0  0  0  0  0
   38.1040   22.0620   40.7900 N   0  0  0  0  0  0  0  0  0  0  0  0
   38.2900   21.7490   39.7930 H   0  0  0  0  0  0  0  0  0  0  0  0
   37.9570   21.6860   41.7550 H   0  0  0  0  0  0  0  0  0  0  0  0
   36.6430   29.5860   40.8760 S   0  0  0  0  0  0  0  0  0  0  0  0
   35.4050   28.9920   39.7250 C   0  0  0  0  0  0  0  0  0  0  0  0
   34.1550   29.0500   40.3540 F   0  0  0  0  0  0  0  0  0  0  0  0
   35.6770   27.6510   39.4630 F   0  0  0  0  0  0  0  0  0  0  0  0
   35.3160   29.7260   38.5690 F   0  0  0  0  0  0  0  0  0  0  0  0
  1  6  1  0  0  0  0
  2  3  1  0  0  0  0
  2  1  2  0  0  0  0
  3  4  2  0  0  0  0
  4  5  1  0  0  0  0
  5  7  1  0  0  0  0
  6  5  2  0  0  0  0
  7 11  1  0  0  0  0
  8 15  1  0  0  0  0
  8  7  1  0  0  0  0
  8  9  1  0  0  0  0
  9 10  1  0  0  0  0
  9 17  1  0  0  0  0
 10 18  1  0  0  0  0
 10 19  1  0  0  0  0
 11 20  1  1  0  0  0
 11 10  1  0  0  0  0
 12  1  1  0  0  0  0
 13  3  1  0  0  0  0
 14  8  1  0  0  0  0
 16  9  1  0  0  0  0
 21  2  1  0  0  0  0
 21 23  1  0  0  0  0
 22 21  1  0  0  0  0
 24 11  1  0  0  0  0
 25 26  1  0  0  0  0
 25 24  1  0  0  0  0
 27 25  1  0  0  0  0
 28 25  1  0  0  0  0
M  END
>  <minimizedAffinity>
-4.62982607

$$$$
