
 OpenBabel03242515093D

 31 32  0  0  0  0  0  0  0  0999 V2000
   45.7300   34.1410   45.2250 C   0  0  0  0  0  0  0  0  0  0  0  0
   44.7200   35.0410   45.3660 C   0  0  0  0  0  0  0  0  0  0  0  0
   44.3860   36.0120   44.4400 C   0  0  0  0  0  0  0  0  0  0  0  0
   45.1190   36.0860   43.2870 C   0  0  0  0  0  0  0  0  0  0  0  0
   46.1450   35.1970   43.1060 C   0  0  0  0  0  0  0  0  0  0  0  0
   46.4520   34.2370   44.0550 C   0  0  0  0  0  0  0  0  0  0  0  0
   44.1320   34.9810   46.2930 H   0  0  0  0  0  0  0  0  0  0  0  0
   43.5520   36.6660   44.6850 H   0  0  0  0  0  0  0  0  0  0  0  0
   44.8330   36.8560   42.5810 H   0  0  0  0  0  0  0  0  0  0  0  0
   46.6900   35.3040   42.1720 H   0  0  0  0  0  0  0  0  0  0  0  0
   47.3730   31.3390   46.9100 C   0  0  0  0  0  0  0  0  0  0  0  0
   46.6650   31.2270   48.1060 C   0  0  0  0  0  0  0  0  0  0  0  0
   45.6250   32.1130   48.3330 C   0  0  0  0  0  0  0  0  0  0  0  0
   45.3160   33.0620   47.4010 N   0  0  0  0  0  0  0  0  0  0  0  0
   46.0270   33.1500   46.2360 C   0  0  0  0  0  0  0  0  0  0  0  0
   47.0370   32.2840   46.0220 N   0  0  0  0  0  0  0  0  0  0  0  0
   48.2080   30.7090   46.6110 H   0  0  0  0  0  0  0  0  0  0  0  0
   47.0180   30.4430   48.7330 H   0  0  0  0  0  0  0  0  0  0  0  0
   45.1060   31.9960   49.2610 H   0  0  0  0  0  0  0  0  0  0  0  0
   47.5350   33.4040   43.7130 N   0  0  0  0  0  0  0  0  0  0  0  0
   47.4300   32.4480   44.1480 H   0  0  0  0  0  0  0  0  0  0  0  0
   48.9360   33.6460   42.7590 S   0  0  0  0  0  0  0  0  0  0  0  0
   48.4800   33.9420   41.3290 O   0  0  0  0  0  0  0  0  0  0  0  0
   48.4290   34.8740   41.0040 H   0  0  0  0  0  0  0  0  0  0  0  0
   49.8080   34.7480   43.2080 O   0  0  0  0  0  0  0  0  0  0  0  0
   50.2590   35.3660   42.6130 H   0  0  0  0  0  0  0  0  0  0  0  0
   49.7140   32.1550   42.6680 O   0  0  0  0  0  0  0  0  0  0  0  0
   50.8380   32.2100   41.8650 C   0  0  0  0  0  0  0  0  0  0  0  0
   51.4380   33.4490   42.1140 F   0  0  0  0  0  0  0  0  0  0  0  0
   50.4650   32.2610   40.5160 F   0  0  0  0  0  0  0  0  0  0  0  0
   51.7690   31.2480   42.1130 F   0  0  0  0  0  0  0  0  0  0  0  0
  1  2  1  0  0  0  0
  1 15  1  0  0  0  0
  2  7  1  0  0  0  0
  3  8  1  0  0  0  0
  3  2  2  0  0  0  0
  4  3  1  0  0  0  0
  5  4  2  0  0  0  0
  5  6  1  0  0  0  0
  6  1  2  0  0  0  0
  9  4  1  0  0  0  0
 10  5  1  0  0  0  0
 11 12  1  0  0  0  0
 12 13  2  0  0  0  0
 12 18  1  0  0  0  0
 13 19  1  0  0  0  0
 14 13  1  0  0  0  0
 15 14  2  0  0  0  0
 16 15  1  0  0  0  0
 16 11  2  0  0  0  0
 17 11  1  0  0  0  0
 20  6  1  0  0  0  0
 20 21  1  0  0  0  0
 22 25  1  0  0  0  0
 22 20  1  0  0  0  0
 23 22  1  0  0  0  0
 24 23  1  0  0  0  0
 26 25  1  0  0  0  0
 27 22  1  0  0  0  0
 28 31  1  0  0  0  0
 28 29  1  0  0  0  0
 28 27  1  0  0  0  0
 30 28  1  0  0  0  0
M  END
>  <minimizedAffinity>
-5.81197548

>  <minimizedRMSD>
1.86075199

$$$$
