
 OpenBabel03252508063D

 39 41  0  0  0  0  0  0  0  0999 V2000
   45.3150   36.1420   42.7540 C   0  0  0  0  0  0  0  0  0  0  0  0
   45.5080   34.7700   42.7410 C   0  0  0  0  0  0  0  0  0  0  0  0
   45.2410   34.0300   43.8660 C   0  0  0  0  0  0  0  0  0  0  0  0
   44.7830   34.7180   44.9740 N   0  0  0  0  0  0  0  0  0  0  0  0
   44.6000   36.0340   44.9790 C   0  0  0  0  0  0  0  0  0  0  0  0
   44.8710   36.7370   43.8590 N   0  0  0  0  0  0  0  0  0  0  0  0
   45.5280   36.7410   41.8580 H   0  0  0  0  0  0  0  0  0  0  0  0
   44.2400   36.5550   45.8580 H   0  0  0  0  0  0  0  0  0  0  0  0
   45.3850   32.6300   44.0150 C   0  0  0  0  0  0  0  0  0  0  0  0
   44.8650   31.6900   43.1200 C   0  0  0  0  0  0  0  0  0  0  0  0
   44.9430   30.3340   43.2960 C   0  0  0  0  0  0  0  0  0  0  0  0
   45.5670   29.8270   44.4120 C   0  0  0  0  0  0  0  0  0  0  0  0
   46.1040   30.7660   45.3350 C   0  0  0  0  0  0  0  0  0  0  0  0
   46.7230   30.2750   46.4550 C   0  0  0  0  0  0  0  0  0  0  0  0
   47.2660   31.1280   47.3930 C   0  0  0  0  0  0  0  0  0  0  0  0
   47.1810   32.5180   47.1910 C   0  0  0  0  0  0  0  0  0  0  0  0
   46.5360   32.9730   46.0270 C   0  0  0  0  0  0  0  0  0  0  0  0
   46.0040   32.1010   45.1180 C   0  0  0  0  0  0  0  0  0  0  0  0
   44.3670   32.0350   42.2290 H   0  0  0  0  0  0  0  0  0  0  0  0
   44.5310   29.6370   42.5840 H   0  0  0  0  0  0  0  0  0  0  0  0
   45.6660   28.7840   44.6190 H   0  0  0  0  0  0  0  0  0  0  0  0
   46.7840   29.1960   46.6000 H   0  0  0  0  0  0  0  0  0  0  0  0
   47.7450   30.6820   48.2640 H   0  0  0  0  0  0  0  0  0  0  0  0
   47.6300   33.0830   47.9680 H   0  0  0  0  0  0  0  0  0  0  0  0
   46.5930   34.0410   46.0420 H   0  0  0  0  0  0  0  0  0  0  0  0
   45.9610   34.2140   41.5790 O   0  0  0  0  0  0  0  0  0  0  0  0
   47.8540   32.4900   41.0300 O   0  0  0  0  0  0  0  0  0  0  0  0
   47.5930   33.9440   41.2120 P   0  0  1  0  0  0  0  0  0  0  0  0
   48.0220   34.7110   39.7660 O   0  0  0  0  0  0  0  0  0  0  0  0
   47.8310   33.8850   38.6660 C   0  0  0  0  0  0  0  0  0  0  0  0
   47.9970   34.6700   37.5330 F   0  0  0  0  0  0  0  0  0  0  0  0
   48.7240   32.8390   38.6380 F   0  0  0  0  0  0  0  0  0  0  0  0
   46.5110   33.4720   38.6950 F   0  0  0  0  0  0  0  0  0  0  0  0
   48.5240   34.5760   42.4550 O   0  0  0  0  0  0  0  0  0  0  0  0
   49.7240   35.2570   42.3290 C   0  0  0  0  0  0  0  0  0  0  0  0
   49.4060   36.3830   41.9100 O   0  0  0  0  0  0  0  0  0  0  0  0
   50.8330   34.4190   42.7210 N   0  0  0  0  0  0  0  0  0  0  0  0
   50.9300   34.2190   43.7520 H   0  0  0  0  0  0  0  0  0  0  0  0
   51.5750   33.9670   42.1170 H   0  0  0  0  0  0  0  0  0  0  0  0
  1  6  1  0  0  0  0
  2  1  2  0  0  0  0
  2  3  1  0  0  0  0
  3  9  1  0  0  0  0
  3  4  2  0  0  0  0
  4  5  1  0  0  0  0
  5  8  1  0  0  0  0
  6  5  2  0  0  0  0
  7  1  1  0  0  0  0
  9 18  1  0  0  0  0
 10 11  1  0  0  0  0
 10  9  2  0  0  0  0
 11 12  2  0  0  0  0
 12 21  1  0  0  0  0
 12 13  1  0  0  0  0
 13 14  1  0  0  0  0
 14 22  1  0  0  0  0
 14 15  2  0  0  0  0
 15 23  1  0  0  0  0
 16 15  1  0  0  0  0
 16 24  1  0  0  0  0
 17 25  1  0  0  0  0
 17 16  2  0  0  0  0
 18 13  2  0  0  0  0
 18 17  1  0  0  0  0
 19 10  1  0  0  0  0
 20 11  1  0  0  0  0
 26  2  1  0  0  0  0
 28 27  2  6  0  0  0
 28 26  1  0  0  0  0
 28 34  1  0  0  0  0
 29 28  1  0  0  0  0
 30 33  1  0  0  0  0
 30 29  1  0  0  0  0
 31 30  1  0  0  0  0
 32 30  1  0  0  0  0
 35 34  1  0  0  0  0
 35 37  1  0  0  0  0
 36 35  2  0  0  0  0
 37 38  1  0  0  0  0
 39 37  1  0  0  0  0
M  END
>  <minimizedAffinity>
-5.91479397

>  <minimizedRMSD>
0.446931154

$$$$
