
 OpenBabel03252508063D

 39 41  0  0  0  0  0  0  0  0999 V2000
   45.3110   36.1500   42.7620 C   0  0  0  0  0  0  0  0  0  0  0  0
   45.5060   34.7790   42.7470 C   0  0  0  0  0  0  0  0  0  0  0  0
   45.2390   34.0360   43.8700 C   0  0  0  0  0  0  0  0  0  0  0  0
   44.7770   34.7210   44.9780 N   0  0  0  0  0  0  0  0  0  0  0  0
   44.5920   36.0370   44.9860 C   0  0  0  0  0  0  0  0  0  0  0  0
   44.8640   36.7430   43.8680 N   0  0  0  0  0  0  0  0  0  0  0  0
   45.5240   36.7520   41.8680 H   0  0  0  0  0  0  0  0  0  0  0  0
   44.2290   36.5560   45.8650 H   0  0  0  0  0  0  0  0  0  0  0  0
   45.3850   32.6360   44.0180 C   0  0  0  0  0  0  0  0  0  0  0  0
   44.8660   31.6970   43.1210 C   0  0  0  0  0  0  0  0  0  0  0  0
   44.9470   30.3410   43.2940 C   0  0  0  0  0  0  0  0  0  0  0  0
   45.5710   29.8330   44.4100 C   0  0  0  0  0  0  0  0  0  0  0  0
   46.1060   30.7710   45.3340 C   0  0  0  0  0  0  0  0  0  0  0  0
   46.7260   30.2800   46.4530 C   0  0  0  0  0  0  0  0  0  0  0  0
   47.2670   31.1310   47.3920 C   0  0  0  0  0  0  0  0  0  0  0  0
   47.1810   32.5220   47.1930 C   0  0  0  0  0  0  0  0  0  0  0  0
   46.5340   32.9780   46.0300 C   0  0  0  0  0  0  0  0  0  0  0  0
   46.0040   32.1070   45.1190 C   0  0  0  0  0  0  0  0  0  0  0  0
   44.3670   32.0430   42.2310 H   0  0  0  0  0  0  0  0  0  0  0  0
   44.5360   29.6440   42.5810 H   0  0  0  0  0  0  0  0  0  0  0  0
   45.6710   28.7890   44.6150 H   0  0  0  0  0  0  0  0  0  0  0  0
   46.7890   29.2000   46.5970 H   0  0  0  0  0  0  0  0  0  0  0  0
   47.7470   30.6850   48.2630 H   0  0  0  0  0  0  0  0  0  0  0  0
   47.6280   33.0860   47.9710 H   0  0  0  0  0  0  0  0  0  0  0  0
   46.5900   34.0460   46.0470 H   0  0  0  0  0  0  0  0  0  0  0  0
   45.9620   34.2250   41.5850 O   0  0  0  0  0  0  0  0  0  0  0  0
   47.8460   32.4770   41.0860 O   0  0  0  0  0  0  0  0  0  0  0  0
   47.5940   33.9360   41.2310 P   0  0  1  0  0  0  0  0  0  0  0  0
   48.0330   34.6650   39.7680 O   0  0  0  0  0  0  0  0  0  0  0  0
   47.7620   33.8440   38.6800 C   0  0  0  0  0  0  0  0  0  0  0  0
   46.4850   33.3290   38.8700 F   0  0  0  0  0  0  0  0  0  0  0  0
   47.8110   34.5250   37.4860 F   0  0  0  0  0  0  0  0  0  0  0  0
   48.6470   32.7850   38.7410 F   0  0  0  0  0  0  0  0  0  0  0  0
   48.5240   34.5930   42.4610 O   0  0  0  0  0  0  0  0  0  0  0  0
   49.7280   35.2650   42.3220 C   0  0  0  0  0  0  0  0  0  0  0  0
   49.4150   36.3880   41.8920 O   0  0  0  0  0  0  0  0  0  0  0  0
   50.8330   34.4240   42.7190 N   0  0  0  0  0  0  0  0  0  0  0  0
   50.9340   34.2360   43.7520 H   0  0  0  0  0  0  0  0  0  0  0  0
   51.5700   33.9620   42.1180 H   0  0  0  0  0  0  0  0  0  0  0  0
  1  6  1  0  0  0  0
  2  1  2  0  0  0  0
  2  3  1  0  0  0  0
  3  9  1  0  0  0  0
  3  4  2  0  0  0  0
  4  5  1  0  0  0  0
  5  8  1  0  0  0  0
  6  5  2  0  0  0  0
  7  1  1  0  0  0  0
  9 18  1  0  0  0  0
 10 11  1  0  0  0  0
 10  9  2  0  0  0  0
 11 12  2  0  0  0  0
 12 21  1  0  0  0  0
 12 13  1  0  0  0  0
 13 14  1  0  0  0  0
 14 22  1  0  0  0  0
 14 15  2  0  0  0  0
 15 23  1  0  0  0  0
 16 15  1  0  0  0  0
 16 24  1  0  0  0  0
 17 25  1  0  0  0  0
 17 16  2  0  0  0  0
 18 13  2  0  0  0  0
 18 17  1  0  0  0  0
 19 10  1  0  0  0  0
 20 11  1  0  0  0  0
 26  2  1  0  0  0  0
 28 27  2  6  0  0  0
 28 26  1  0  0  0  0
 28 34  1  0  0  0  0
 29 28  1  0  0  0  0
 30 33  1  0  0  0  0
 30 31  1  0  0  0  0
 30 29  1  0  0  0  0
 32 30  1  0  0  0  0
 35 34  1  0  0  0  0
 35 37  1  0  0  0  0
 36 35  2  0  0  0  0
 37 38  1  0  0  0  0
 39 37  1  0  0  0  0
M  END
>  <minimizedAffinity>
-5.87281322

>  <minimizedRMSD>
0.382924676

$$$$
