
 OpenBabel03252507493D

 40 41  0  0  0  0  0  0  0  0999 V2000
   48.0370   34.3750   39.2310 C   0  0  0  0  0  0  0  0  0  0  0  0
   48.7510   34.9660   38.6300 H   0  0  0  0  0  0  0  0  0  0  0  0
   47.0200   34.6420   38.8820 H   0  0  0  0  0  0  0  0  0  0  0  0
   48.3290   32.9470   39.0560 C   0  0  0  0  0  0  0  0  0  0  0  0
   47.5840   32.2620   38.0980 C   0  0  0  0  0  0  0  0  0  0  0  0
   47.7930   30.9140   37.8680 C   0  0  0  0  0  0  0  0  0  0  0  0
   48.7650   30.2980   38.6290 N   0  0  0  0  0  0  0  0  0  0  0  0
   49.4690   31.0020   39.5500 C   0  0  0  0  0  0  0  0  0  0  0  0
   49.2440   32.2940   39.7460 N   0  0  0  0  0  0  0  0  0  0  0  0
   47.2440   30.3550   37.1460 H   0  0  0  0  0  0  0  0  0  0  0  0
   50.2180   30.4550   40.1130 H   0  0  0  0  0  0  0  0  0  0  0  0
   46.3360   33.1380   37.1520 S   0  0  0  0  0  0  0  0  0  0  0  0
   45.4280   31.9740   36.1100 C   0  0  0  0  0  0  0  0  0  0  0  0
   45.5460   30.9300   36.4940 H   0  0  0  0  0  0  0  0  0  0  0  0
   44.3430   32.2140   36.2130 H   0  0  0  0  0  0  0  0  0  0  0  0
   45.9370   32.0850   34.7010 C   0  0  0  0  0  0  0  0  0  0  0  0
   45.9540   31.0760   34.2580 H   0  0  0  0  0  0  0  0  0  0  0  0
   46.9350   32.5270   34.6290 H   0  0  0  0  0  0  0  0  0  0  0  0
   45.0290   32.8870   33.9440 N   0  0  0  0  0  0  0  0  0  0  0  0
   45.0140   33.8940   34.1960 H   0  0  0  0  0  0  0  0  0  0  0  0
   44.1020   32.4660   33.8020 H   0  0  0  0  0  0  0  0  0  0  0  0
   48.1370   34.8380   40.6600 C   0  0  0  0  0  0  0  0  0  0  0  0
   49.0000   34.3010   41.1060 H   0  0  0  0  0  0  0  0  0  0  0  0
   48.4100   35.9190   40.6920 H   0  0  0  0  0  0  0  0  0  0  0  0
   46.9550   34.5180   41.4810 C   0  0  0  0  0  0  0  0  0  0  0  0
   46.9980   34.7180   42.8930 C   0  0  0  0  0  0  0  0  0  0  0  0
   45.3410   34.1930   43.4490 S   0  0  0  0  0  0  0  0  0  0  0  0
   44.8470   33.7790   41.6450 C   0  0  0  0  0  0  0  0  0  0  0  0
   45.8000   34.0500   41.0850 N   0  0  0  0  0  0  0  0  0  0  0  0
   47.8220   35.0920   43.4780 H   0  0  0  0  0  0  0  0  0  0  0  0
   43.5960   33.2810   41.2950 O   0  0  0  0  0  0  0  0  0  0  0  0
   41.0380   33.6890   40.7680 O   0  0  0  0  0  0  0  0  0  0  0  0
   42.3940   34.4050   40.9140 P   0  0  1  0  0  0  0  0  0  0  0  0
   42.2720   35.5280   42.1860 O   0  0  0  0  0  0  0  0  0  0  0  0
   42.7600   36.3670   42.0060 H   0  0  0  0  0  0  0  0  0  0  0  0
   42.8110   35.2390   39.5020 O   0  0  0  0  0  0  0  0  0  0  0  0
   41.6580   35.4780   38.7710 C   0  0  0  0  0  0  0  0  0  0  0  0
   41.9800   36.2860   37.6850 F   0  0  0  0  0  0  0  0  0  0  0  0
   40.7170   36.0960   39.5720 F   0  0  0  0  0  0  0  0  0  0  0  0
   41.1760   34.2880   38.2200 F   0  0  0  0  0  0  0  0  0  0  0  0
  1 22  1  0  0  0  0
  2  1  1  0  0  0  0
  3  1  1  0  0  0  0
  4  1  1  0  0  0  0
  4  9  1  0  0  0  0
  5  4  2  0  0  0  0
  6  5  1  0  0  0  0
  6  7  2  0  0  0  0
  7  8  1  0  0  0  0
  8  9  2  0  0  0  0
  8 11  1  0  0  0  0
 10  6  1  0  0  0  0
 12  5  1  0  0  0  0
 13 15  1  0  0  0  0
 13 14  1  0  0  0  0
 13 12  1  0  0  0  0
 16 13  1  0  0  0  0
 17 16  1  0  0  0  0
 18 16  1  0  0  0  0
 19 20  1  0  0  0  0
 19 16  1  0  0  0  0
 21 19  1  0  0  0  0
 22 24  1  0  0  0  0
 22 23  1  0  0  0  0
 22 25  1  0  0  0  0
 25 26  2  0  0  0  0
 26 27  1  0  0  0  0
 26 30  1  0  0  0  0
 28 27  1  0  0  0  0
 29 25  1  0  0  0  0
 29 28  2  0  0  0  0
 31 28  1  0  0  0  0
 33 32  2  6  0  0  0
 33 31  1  0  0  0  0
 33 34  1  0  0  0  0
 35 34  1  0  0  0  0
 36 33  1  0  0  0  0
 37 36  1  0  0  0  0
 37 39  1  0  0  0  0
 38 37  1  0  0  0  0
 40 37  1  0  0  0  0
M  END
>  <minimizedAffinity>
-5.40672016

>  <minimizedRMSD>
2.98101425

$$$$
