
 OpenBabel03252502553D

 32 33  0  0  0  0  0  0  0  0999 V2000
   45.7360   29.9200   44.8210 Br  0  0  0  0  0  0  0  0  0  0  0  0
   45.6870   30.5930   46.6160 C   0  0  0  0  0  0  0  0  0  0  0  0
   46.3250   31.7950   46.8240 C   0  0  0  0  0  0  0  0  0  0  0  0
   46.2750   32.2630   48.1400 C   0  0  0  0  0  0  0  0  0  0  0  0
   45.6450   31.5940   49.1620 C   0  0  0  0  0  0  0  0  0  0  0  0
   45.0290   30.3990   48.8840 C   0  0  0  0  0  0  0  0  0  0  0  0
   45.0400   29.8830   47.6150 C   0  0  0  0  0  0  0  0  0  0  0  0
   46.7540   33.1990   48.3760 H   0  0  0  0  0  0  0  0  0  0  0  0
   45.6430   32.0080   50.1530 H   0  0  0  0  0  0  0  0  0  0  0  0
   44.5350   29.8880   49.7140 H   0  0  0  0  0  0  0  0  0  0  0  0
   47.0250   32.6000   45.8320 C   0  0  0  0  0  0  0  0  0  0  0  0
   47.3010   31.9340   44.9810 H   0  0  0  0  0  0  0  0  0  0  0  0
   47.9740   33.0400   46.1820 H   0  0  0  0  0  0  0  0  0  0  0  0
   44.5180   35.3350   45.3790 C   0  0  0  0  0  0  0  0  0  0  0  0
   44.7440   35.7110   44.0600 C   0  0  0  0  0  0  0  0  0  0  0  0
   45.7300   35.0450   43.3460 C   0  0  0  0  0  0  0  0  0  0  0  0
   46.4160   34.0710   43.9620 N   0  0  0  0  0  0  0  0  0  0  0  0
   46.1990   33.6990   45.2530 C   0  0  0  0  0  0  0  0  0  0  0  0
   45.2330   34.3620   45.9280 N   0  0  0  0  0  0  0  0  0  0  0  0
   43.7550   35.8230   45.9930 H   0  0  0  0  0  0  0  0  0  0  0  0
   44.1610   36.5060   43.6070 H   0  0  0  0  0  0  0  0  0  0  0  0
   45.9490   35.2950   42.3180 H   0  0  0  0  0  0  0  0  0  0  0  0
   44.4160   28.6720   47.3280 O   0  0  0  0  0  0  0  0  0  0  0  0
   44.3620   26.0890   47.0490 O   0  0  0  0  0  0  0  0  0  0  0  0
   44.9910   27.1730   47.9070 P   0  0  2  0  0  0  0  0  0  0  0  0
   44.4830   27.0020   49.4990 O   0  0  0  0  0  0  0  0  0  0  0  0
   45.0240   27.5420   50.1120 H   0  0  0  0  0  0  0  0  0  0  0  0
   46.6580   27.0430   47.7620 O   0  0  0  0  0  0  0  0  0  0  0  0
   47.1260   25.7830   48.1090 C   0  0  0  0  0  0  0  0  0  0  0  0
   46.4170   25.3210   49.2030 F   0  0  0  0  0  0  0  0  0  0  0  0
   48.4440   25.9030   48.4970 F   0  0  0  0  0  0  0  0  0  0  0  0
   47.0640   24.8990   47.0510 F   0  0  0  0  0  0  0  0  0  0  0  0
  1  2  1  0  0  0  0
  2  3  2  0  0  0  0
  2  7  1  0  0  0  0
  3  4  1  0  0  0  0
  4  8  1  0  0  0  0
  4  5  2  0  0  0  0
  5  9  1  0  0  0  0
  6  5  1  0  0  0  0
  6 10  1  0  0  0  0
  7  6  2  0  0  0  0
 11 13  1  0  0  0  0
 11  3  1  0  0  0  0
 12 11  1  0  0  0  0
 14 19  1  0  0  0  0
 14 20  1  0  0  0  0
 15 14  2  0  0  0  0
 16 17  2  0  0  0  0
 16 15  1  0  0  0  0
 17 18  1  0  0  0  0
 18 11  1  0  0  0  0
 18 19  2  0  0  0  0
 21 15  1  0  0  0  0
 22 16  1  0  0  0  0
 23  7  1  0  0  0  0
 23 25  1  0  0  0  0
 25 24  2  6  0  0  0
 25 26  1  0  0  0  0
 26 27  1  0  0  0  0
 28 25  1  0  0  0  0
 28 29  1  0  0  0  0
 29 31  1  0  0  0  0
 29 30  1  0  0  0  0
 32 29  1  0  0  0  0
M  END
>  <minimizedAffinity>
-5.04532242

>  <minimizedRMSD>
0.810936809

$$$$
