
 OpenBabel03242517023D

 28 29  0  0  0  0  0  0  0  0999 V2000
   46.5050   34.7330   42.0100 C   0  0  0  0  0  0  0  0  0  0  0  0
   47.8410   35.0940   41.9630 C   0  0  0  0  0  0  0  0  0  0  0  0
   48.5430   34.8660   40.7980 C   0  0  0  0  0  0  0  0  0  0  0  0
   47.9290   34.2990   39.7290 C   0  0  0  0  0  0  0  0  0  0  0  0
   46.5960   33.9270   39.7440 C   0  0  0  0  0  0  0  0  0  0  0  0
   45.9020   34.1660   40.9330 C   0  0  0  0  0  0  0  0  0  0  0  0
   48.3590   35.5480   42.7980 H   0  0  0  0  0  0  0  0  0  0  0  0
   49.5830   35.1100   40.6600 H   0  0  0  0  0  0  0  0  0  0  0  0
   48.4020   34.0790   38.7650 H   0  0  0  0  0  0  0  0  0  0  0  0
   46.0020   33.4770   38.9750 H   0  0  0  0  0  0  0  0  0  0  0  0
   44.4660   36.2560   44.7990 C   0  0  0  0  0  0  0  0  0  0  0  0
   45.0860   36.1260   43.5330 C   0  0  0  0  0  0  0  0  0  0  0  0
   45.8130   34.9980   43.2730 C   0  0  0  0  0  0  0  0  0  0  0  0
   45.8980   34.0560   44.2610 N   0  0  0  0  0  0  0  0  0  0  0  0
   45.3090   34.1760   45.4660 C   0  0  0  0  0  0  0  0  0  0  0  0
   44.5820   35.2940   45.7390 N   0  0  0  0  0  0  0  0  0  0  0  0
   43.8990   37.1450   44.9920 H   0  0  0  0  0  0  0  0  0  0  0  0
   45.0050   36.8840   42.7670 H   0  0  0  0  0  0  0  0  0  0  0  0
   45.4080   33.4020   46.2110 H   0  0  0  0  0  0  0  0  0  0  0  0
   43.3140   34.3050   40.6080 C   0  0  0  0  0  0  0  0  0  0  0  0
   43.1710   35.2630   39.8630 O   0  0  0  0  0  0  0  0  0  0  0  0
   44.5410   33.8310   41.1000 N   0  0  0  0  0  0  0  0  0  0  0  0
   44.5730   33.0210   41.7750 H   0  0  0  0  0  0  0  0  0  0  0  0
   42.1590   33.6240   41.0020 O   0  0  0  0  0  0  0  0  0  0  0  0
   41.0440   34.3940   41.4120 C   0  0  0  0  0  0  0  0  0  0  0  0
   40.4820   34.9000   40.2420 F   0  0  0  0  0  0  0  0  0  0  0  0
   40.1040   33.6500   42.0980 F   0  0  0  0  0  0  0  0  0  0  0  0
   41.3990   35.5000   42.1630 F   0  0  0  0  0  0  0  0  0  0  0  0
  1 13  1  0  0  0  0
  2  1  1  0  0  0  0
  2  7  1  0  0  0  0
  3  2  2  0  0  0  0
  4  5  2  0  0  0  0
  4  3  1  0  0  0  0
  5  6  1  0  0  0  0
  6 22  1  0  0  0  0
  6  1  2  0  0  0  0
  8  3  1  0  0  0  0
  9  4  1  0  0  0  0
 10  5  1  0  0  0  0
 11 17  1  0  0  0  0
 11 16  1  0  0  0  0
 12 11  2  0  0  0  0
 13 12  1  0  0  0  0
 13 14  2  0  0  0  0
 14 15  1  0  0  0  0
 15 16  2  0  0  0  0
 15 19  1  0  0  0  0
 18 12  1  0  0  0  0
 20 24  1  0  0  0  0
 20 22  1  0  0  0  0
 21 20  2  0  0  0  0
 22 23  1  0  0  0  0
 24 25  1  0  0  0  0
 25 27  1  0  0  0  0
 25 28  1  0  0  0  0
 26 25  1  0  0  0  0
M  END
>  <minimizedAffinity>
-5.81512642

>  <minimizedRMSD>
0.685769737

$$$$
