
 OpenBabel03252504083D

 17 17  0  0  0  0  0  0  0  0999 V2000
   47.0950   34.3890   43.0930 C   0  0  0  0  0  0  0  0  0  0  0  0
   45.7780   34.6000   43.5020 C   0  0  0  0  0  0  0  0  0  0  0  0
   45.2570   33.7600   44.5020 C   0  0  0  0  0  0  0  0  0  0  0  0
   46.0540   32.7940   45.0170 N   0  0  0  0  0  0  0  0  0  0  0  0
   47.3280   32.6250   44.5900 C   0  0  0  0  0  0  0  0  0  0  0  0
   47.8500   33.4140   43.6350 N   0  0  0  0  0  0  0  0  0  0  0  0
   44.2270   33.9220   44.8260 H   0  0  0  0  0  0  0  0  0  0  0  0
   47.8950   31.8260   45.0580 H   0  0  0  0  0  0  0  0  0  0  0  0
   44.9810   35.6850   42.8730 C   0  0  0  0  0  0  0  0  0  0  0  0
   45.6180   36.9040   43.0650 F   0  0  0  0  0  0  0  0  0  0  0  0
   44.9530   35.4630   41.5090 F   0  0  0  0  0  0  0  0  0  0  0  0
   43.7170   35.8080   43.3460 F   0  0  0  0  0  0  0  0  0  0  0  0
   47.5840   35.2040   42.1320 O   0  0  0  0  0  0  0  0  0  0  0  0
   48.8750   35.1850   41.5750 C   0  0  0  0  0  0  0  0  0  0  0  0
   49.7660   35.4920   42.6100 F   0  0  0  0  0  0  0  0  0  0  0  0
   49.1230   33.9680   41.0070 F   0  0  0  0  0  0  0  0  0  0  0  0
   49.0100   36.2270   40.6730 F   0  0  0  0  0  0  0  0  0  0  0  0
  1  2  2  0  0  0  0
  1  6  1  0  0  0  0
  2  3  1  0  0  0  0
  3  7  1  0  0  0  0
  3  4  2  0  0  0  0
  5  4  1  0  0  0  0
  5  8  1  0  0  0  0
  6  5  2  0  0  0  0
  9 10  1  0  0  0  0
  9 12  1  0  0  0  0
  9  2  1  0  0  0  0
 11  9  1  0  0  0  0
 13  1  1  0  0  0  0
 14 13  1  0  0  0  0
 14 15  1  0  0  0  0
 16 14  1  0  0  0  0
 17 14  1  0  0  0  0
M  END
>  <minimizedAffinity>
-4.7549572

>  <minimizedRMSD>
4.70384598

$$$$
