
 OpenBabel03252504573D

 32 33  0  0  1  0  0  0  0  0999 V2000
   47.8950   34.0230   42.0210 N   0  0  0  0  0  0  0  0  0  0  0  0
   47.9100   34.9220   40.9320 C   0  0  0  0  0  0  0  0  0  0  0  0
   49.0530   35.8060   41.2560 C   0  0  0  0  0  0  0  0  0  0  0  0
   49.6860   35.3160   42.5520 C   0  0  0  0  0  0  0  0  0  0  0  0
   49.1550   33.8790   42.6250 C   0  0  2  0  0  0  0  0  0  0  0  0
   47.3860   35.1400   40.0170 H   0  0  0  0  0  0  0  0  0  0  0  0
   49.4580   36.6460   40.7260 H   0  0  0  0  0  0  0  0  0  0  0  0
   50.7660   35.3040   42.3930 H   0  0  0  0  0  0  0  0  0  0  0  0
   49.3420   35.9280   43.4010 H   0  0  0  0  0  0  0  0  0  0  0  0
   49.1220   33.4870   43.6380 H   0  0  0  0  0  0  0  0  0  0  0  0
   46.7140   33.4300   42.3980 C   0  0  0  0  0  0  0  0  0  0  0  0
   45.9700   33.3000   41.5800 H   0  0  0  0  0  0  0  0  0  0  0  0
   46.9410   32.3680   42.6700 H   0  0  0  0  0  0  0  0  0  0  0  0
   44.5860   35.7950   44.4520 C   0  0  0  0  0  0  0  0  0  0  0  0
   45.2610   35.2630   43.3110 C   0  0  0  0  0  0  0  0  0  0  0  0
   46.0010   34.0940   43.4720 C   0  0  0  0  0  0  0  0  0  0  0  0
   46.0320   33.5400   44.7030 N   0  0  0  0  0  0  0  0  0  0  0  0
   45.3760   34.0640   45.7950 C   0  0  0  0  0  0  0  0  0  0  0  0
   44.6600   35.1820   45.6660 N   0  0  0  0  0  0  0  0  0  0  0  0
   44.0120   36.6960   44.3420 H   0  0  0  0  0  0  0  0  0  0  0  0
   45.2130   35.7310   42.3570 H   0  0  0  0  0  0  0  0  0  0  0  0
   45.4770   33.5240   46.7400 H   0  0  0  0  0  0  0  0  0  0  0  0
   49.9380   33.1290   41.7340 O   0  0  0  0  0  0  0  0  0  0  0  0
   49.1390   31.0560   43.1920 O   0  0  0  0  0  0  0  0  0  0  0  0
   50.1280   31.5390   42.1610 P   0  0  2  0  0  0  0  0  0  0  0  0
   51.6780   31.3510   42.8330 O   0  0  0  0  0  0  0  0  0  0  0  0
   51.6070   31.4550   43.8330 H   0  0  0  0  0  0  0  0  0  0  0  0
   50.1040   30.5250   40.7840 O   0  0  0  0  0  0  0  0  0  0  0  0
   49.3530   31.0310   39.7550 C   0  0  0  0  0  0  0  0  0  0  0  0
   48.0820   31.2790   40.2920 F   0  0  0  0  0  0  0  0  0  0  0  0
   49.7930   32.2150   39.2380 F   0  0  0  0  0  0  0  0  0  0  0  0
   49.1350   30.0750   38.7670 F   0  0  0  0  0  0  0  0  0  0  0  0
  1 11  1  0  0  0  0
  1  5  1  0  0  0  0
  2  3  2  0  0  0  0
  2  1  1  0  0  0  0
  3  4  1  0  0  0  0
  4  5  1  0  0  0  0
  4  9  1  0  0  0  0
  5 10  1  1  0  0  0
  6  2  1  0  0  0  0
  7  3  1  0  0  0  0
  8  4  1  0  0  0  0
 11 13  1  0  0  0  0
 11 16  1  0  0  0  0
 12 11  1  0  0  0  0
 14 19  1  0  0  0  0
 15 16  1  0  0  0  0
 15 14  2  0  0  0  0
 16 17  2  0  0  0  0
 17 18  1  0  0  0  0
 18 22  1  0  0  0  0
 19 18  2  0  0  0  0
 20 14  1  0  0  0  0
 21 15  1  0  0  0  0
 23 25  1  0  0  0  0
 23  5  1  0  0  0  0
 25 26  1  0  0  0  0
 25 24  2  1  0  0  0
 26 27  1  0  0  0  0
 28 25  1  0  0  0  0
 29 30  1  0  0  0  0
 29 28  1  0  0  0  0
 31 29  1  0  0  0  0
 32 29  1  0  0  0  0
M  END
>  <minimizedAffinity>
-4.68452787

>  <minimizedRMSD>
0.6885674

$$$$
