
     RDKit          3D

 22 22  0  0  0  0  0  0  0  0999 V2000
   47.1618   33.9648   42.4785 C   0  0  0  0  0  0  0  0  0  0  0  0
   45.2924   34.2237   45.6982 C   0  0  0  0  0  0  0  0  0  0  0  0
   46.1622   33.7439   44.7012 C   0  0  0  0  0  0  0  0  0  0  0  0
   46.2578   34.4549   43.5268 C   0  0  0  0  0  0  0  0  0  0  0  0
   45.5087   35.6014   43.3629 N   0  0  0  0  0  0  0  0  0  0  0  0
   44.6749   36.0365   44.3533 C   0  0  0  0  0  0  0  0  0  0  0  0
   44.5804   35.3512   45.4899 N   0  0  0  0  0  0  0  0  0  0  0  0
   48.3232   33.4189   43.0224 O   0  0  0  0  0  0  0  0  0  0  0  0
   50.6648   33.1056   41.9053 O   0  0  0  0  0  0  0  0  0  0  0  0
   49.6231   34.1468   42.2199 P   0  0  2  0  0  0  0  0  0  0  0  0
   50.2044   35.3663   43.2455 O   0  0  0  0  0  0  0  0  0  0  0  0
   49.0674   34.8121   40.7830 O   0  0  0  0  0  0  0  0  0  0  0  0
   46.6015   33.1826   41.9210 H   0  0  0  0  0  0  0  0  0  0  0  0
   47.3419   34.7886   41.7696 H   0  0  0  0  0  0  0  0  0  0  0  0
   45.1619   33.7277   46.6397 H   0  0  0  0  0  0  0  0  0  0  0  0
   46.6953   32.8505   44.9258 H   0  0  0  0  0  0  0  0  0  0  0  0
   44.1491   36.9480   44.0893 H   0  0  0  0  0  0  0  0  0  0  0  0
   51.1801   35.2769   43.4231 H   0  0  0  0  0  0  0  0  0  0  0  0
   50.0684   34.7903   39.8017 C   0  0  0  0  0  0  0  0  0  0  0  0
   50.5614   36.0737   39.6530 F   0  0  0  0  0  0  0  0  0  0  0  0
   49.5113   34.3693   38.5888 F   0  0  0  0  0  0  0  0  0  0  0  0
   51.0587   33.9176   40.1491 F   0  0  0  0  0  0  0  0  0  0  0  0
  1  8  1  0
  1  4  1  0
  3  2  2  0
  4  3  1  0
  5  4  2  0
  5  6  1  0
  6  7  2  0
  7  2  1  0
  9 10  2  0
 10  8  1  1
 10 11  1  0
 12 10  1  0
  1 13  1  0
  1 14  1  0
  2 15  1  0
  3 16  1  0
  6 17  1  0
 11 18  1  0
 19 20  1  0
 19 21  1  0
 19 22  1  0
 12 19  1  0
M  ISO  6  13   8  14   8  15  14  16  14  17  14  18   3
M  END
>  <DihAtoms>  (1) 
9,11,18,19

>  <DihDeg>  (1) 
60.00048716207981

$$$$
