
 OpenBabel03252505483D

 17 17  0  0  0  0  0  0  0  0999 V2000
   44.7350   35.4390   45.0370 C   0  0  0  0  0  0  0  0  0  0  0  0
   45.5610   34.9250   44.0360 C   0  0  0  0  0  0  0  0  0  0  0  0
   46.2290   33.7390   44.2980 C   0  0  0  0  0  0  0  0  0  0  0  0
   46.0660   33.1260   45.4860 N   0  0  0  0  0  0  0  0  0  0  0  0
   45.2590   33.6500   46.4330 C   0  0  0  0  0  0  0  0  0  0  0  0
   44.5870   34.7980   46.2340 N   0  0  0  0  0  0  0  0  0  0  0  0
   44.1820   36.3580   44.9080 H   0  0  0  0  0  0  0  0  0  0  0  0
   46.8660   33.3540   43.5140 H   0  0  0  0  0  0  0  0  0  0  0  0
   45.6540   35.7020   42.7660 C   0  0  0  0  0  0  0  0  0  0  0  0
   45.2310   36.9840   43.0650 F   0  0  0  0  0  0  0  0  0  0  0  0
   44.7850   35.1190   41.8600 F   0  0  0  0  0  0  0  0  0  0  0  0
   46.9550   35.6430   42.3150 F   0  0  0  0  0  0  0  0  0  0  0  0
   45.0700   33.0400   47.6710 O   0  0  0  0  0  0  0  0  0  0  0  0
   46.0900   32.2490   48.2740 C   0  0  0  0  0  0  0  0  0  0  0  0
   46.1070   30.9670   47.7270 F   0  0  0  0  0  0  0  0  0  0  0  0
   47.3280   32.8400   48.1090 F   0  0  0  0  0  0  0  0  0  0  0  0
   45.7830   32.1530   49.6340 F   0  0  0  0  0  0  0  0  0  0  0  0
  1  6  1  0  0  0  0
  2  3  1  0  0  0  0
  2  1  2  0  0  0  0
  3  4  2  0  0  0  0
  4  5  1  0  0  0  0
  5 13  1  0  0  0  0
  6  5  2  0  0  0  0
  7  1  1  0  0  0  0
  8  3  1  0  0  0  0
  9 10  1  0  0  0  0
  9  2  1  0  0  0  0
 11  9  1  0  0  0  0
 12  9  1  0  0  0  0
 13 14  1  0  0  0  0
 14 17  1  0  0  0  0
 15 14  1  0  0  0  0
 16 14  1  0  0  0  0
M  END
>  <minimizedAffinity>
-4.77391243

>  <minimizedRMSD>
1.26145482

$$$$
