
 OpenBabel03252500263D

 32 33  0  0  1  0  0  0  0  0999 V2000
   36.0890   28.3660   41.7850 O   0  0  0  0  0  0  0  0  0  0  0  0
   37.6670   26.6760   42.3630 C   0  0  2  0  0  0  0  0  0  0  0  0
   37.4270   28.0600   41.9170 C   0  0  2  0  0  0  0  0  0  0  0  0
   38.1280   28.9030   42.9160 C   0  0  0  0  0  0  0  0  0  0  0  0
   39.2030   28.1740   43.3920 O   0  0  0  0  0  0  0  0  0  0  0  0
   39.1040   26.9050   42.9390 C   0  0  0  0  0  0  0  0  0  0  0  0
   37.2320   26.1940   43.1970 H   0  0  0  0  0  0  0  0  0  0  0  0
   37.8730   28.1680   40.9180 H   0  0  0  0  0  0  0  0  0  0  0  0
   38.6330   29.7420   42.3410 H   0  0  0  0  0  0  0  0  0  0  0  0
   37.5420   29.4500   43.6460 H   0  0  0  0  0  0  0  0  0  0  0  0
   39.7330   26.8230   42.0020 H   0  0  0  0  0  0  0  0  0  0  0  0
   39.4100   26.0920   43.5940 H   0  0  0  0  0  0  0  0  0  0  0  0
   37.6810   25.7230   41.4070 O   0  0  0  0  0  0  0  0  0  0  0  0
   37.1290   24.5430   41.3900 C   0  0  0  0  0  0  0  0  0  0  0  0
   36.3240   24.5040   42.5810 F   0  0  0  0  0  0  0  0  0  0  0  0
   37.8350   23.3810   41.5070 F   0  0  0  0  0  0  0  0  0  0  0  0
   36.1060   24.3920   40.4150 F   0  0  0  0  0  0  0  0  0  0  0  0
   34.6460   29.1840   39.8520 O   0  0  0  0  0  0  0  0  0  0  0  0
   35.8880   29.5340   40.6250 P   0  0  1  0  0  0  0  0  0  0  0  0
   35.6620   31.0440   41.3600 O   0  0  0  0  0  0  0  0  0  0  0  0
   36.4460   31.5880   41.1470 H   0  0  0  0  0  0  0  0  0  0  0  0
   37.1700   29.5900   39.5080 O   0  0  0  0  0  0  0  0  0  0  0  0
   39.3360   31.9840   38.0000 C   0  0  0  0  0  0  0  0  0  0  0  0
   39.7370   32.8250   39.0860 C   0  0  0  0  0  0  0  0  0  0  0  0
   39.2160   32.5110   40.3460 C   0  0  0  0  0  0  0  0  0  0  0  0
   38.3850   31.4540   40.4560 N   0  0  0  0  0  0  0  0  0  0  0  0
   38.0310   30.6850   39.4020 C   0  0  0  0  0  0  0  0  0  0  0  0
   38.5130   30.9610   38.1840 N   0  0  0  0  0  0  0  0  0  0  0  0
   40.4140   33.6650   38.9340 H   0  0  0  0  0  0  0  0  0  0  0  0
   39.4910   33.1180   41.2020 H   0  0  0  0  0  0  0  0  0  0  0  0
   39.8470   32.2960   36.7560 O   0  0  0  0  0  0  0  0  0  0  0  0
   39.9110   33.2970   36.5280 H   0  0  0  0  0  0  0  0  0  0  0  0
  1  3  1  0  0  0  0
  2  6  1  0  0  0  0
  2  7  1  1  0  0  0
  3  8  1  6  0  0  0
  3  2  1  0  0  0  0
  3  4  1  0  0  0  0
  4  5  1  0  0  0  0
  4 10  1  0  0  0  0
  6  5  1  0  0  0  0
  6 12  1  0  0  0  0
  9  4  1  0  0  0  0
 11  6  1  0  0  0  0
 13  2  1  0  0  0  0
 14 13  1  0  0  0  0
 14 16  1  0  0  0  0
 14 15  1  0  0  0  0
 17 14  1  0  0  0  0
 19 18  2  6  0  0  0
 19 20  1  0  0  0  0
 19  1  1  0  0  0  0
 21 20  1  0  0  0  0
 22 19  1  0  0  0  0
 23 28  2  0  0  0  0
 23 24  1  0  0  0  0
 24 25  2  0  0  0  0
 25 26  1  0  0  0  0
 25 30  1  0  0  0  0
 27 22  1  0  0  0  0
 27 26  2  0  0  0  0
 28 27  1  0  0  0  0
 29 24  1  0  0  0  0
 31 23  1  0  0  0  0
 32 31  1  0  0  0  0
M  END
>  <minimizedAffinity>
-5.88603401

$$$$

 OpenBabel03252500263D

 32 33  0  0  1  0  0  0  0  0999 V2000
   37.2190   29.0690   42.4360 O   0  0  0  0  0  0  0  0  0  0  0  0
   38.2340   26.9160   42.3410 C   0  0  2  0  0  0  0  0  0  0  0  0
   38.3600   28.3670   42.1120 C   0  0  2  0  0  0  0  0  0  0  0  0
   39.5450   28.7700   42.9070 C   0  0  0  0  0  0  0  0  0  0  0  0
   40.4010   27.6840   42.9560 O   0  0  0  0  0  0  0  0  0  0  0  0
   39.7640   26.6040   42.4510 C   0  0  0  0  0  0  0  0  0  0  0  0
   37.9070   26.4390   43.2250 H   0  0  0  0  0  0  0  0  0  0  0  0
   38.5270   28.5190   41.0370 H   0  0  0  0  0  0  0  0  0  0  0  0
   40.1260   29.5140   42.2760 H   0  0  0  0  0  0  0  0  0  0  0  0
   39.3980   29.3220   43.8290 H   0  0  0  0  0  0  0  0  0  0  0  0
   40.0490   26.5140   41.3590 H   0  0  0  0  0  0  0  0  0  0  0  0
   39.9450   25.6320   42.9040 H   0  0  0  0  0  0  0  0  0  0  0  0
   37.6680   26.1910   41.3520 O   0  0  0  0  0  0  0  0  0  0  0  0
   37.0340   25.0540   41.4000 C   0  0  0  0  0  0  0  0  0  0  0  0
   38.0730   24.0600   41.3630 F   0  0  0  0  0  0  0  0  0  0  0  0
   36.2060   24.6120   40.4100 F   0  0  0  0  0  0  0  0  0  0  0  0
   36.4730   24.7540   42.6710 F   0  0  0  0  0  0  0  0  0  0  0  0
   35.5410   28.6510   40.5660 O   0  0  0  0  0  0  0  0  0  0  0  0
   36.5210   29.6790   41.0610 P   0  0  1  0  0  0  0  0  0  0  0  0
   35.6770   31.1020   41.4240 O   0  0  0  0  0  0  0  0  0  0  0  0
   36.1480   31.8370   40.9830 H   0  0  0  0  0  0  0  0  0  0  0  0
   37.6410   29.9420   39.8070 O   0  0  0  0  0  0  0  0  0  0  0  0
   38.8910   33.1770   40.6240 C   0  0  0  0  0  0  0  0  0  0  0  0
   39.8630   33.4430   39.6080 C   0  0  0  0  0  0  0  0  0  0  0  0
   40.0500   32.4460   38.6450 C   0  0  0  0  0  0  0  0  0  0  0  0
   39.3150   31.3170   38.7320 N   0  0  0  0  0  0  0  0  0  0  0  0
   38.4050   31.1070   39.7100 C   0  0  0  0  0  0  0  0  0  0  0  0
   38.2050   32.0430   40.6460 N   0  0  0  0  0  0  0  0  0  0  0  0
   40.4260   34.3760   39.5910 H   0  0  0  0  0  0  0  0  0  0  0  0
   40.7760   32.5990   37.8540 H   0  0  0  0  0  0  0  0  0  0  0  0
   38.7080   34.1590   41.5770 O   0  0  0  0  0  0  0  0  0  0  0  0
   39.5570   34.6390   41.9050 H   0  0  0  0  0  0  0  0  0  0  0  0
  2  6  1  0  0  0  0
  2  7  1  1  0  0  0
  3  8  1  6  0  0  0
  3  2  1  0  0  0  0
  3  1  1  0  0  0  0
  3  4  1  0  0  0  0
  4  5  1  0  0  0  0
  4 10  1  0  0  0  0
  6 12  1  0  0  0  0
  6  5  1  0  0  0  0
  9  4  1  0  0  0  0
 11  6  1  0  0  0  0
 13 14  1  0  0  0  0
 13  2  1  0  0  0  0
 14 17  1  0  0  0  0
 15 14  1  0  0  0  0
 16 14  1  0  0  0  0
 19 18  2  6  0  0  0
 19 20  1  0  0  0  0
 19  1  1  0  0  0  0
 21 20  1  0  0  0  0
 22 19  1  0  0  0  0
 23 28  1  0  0  0  0
 23 31  1  0  0  0  0
 24 23  2  0  0  0  0
 25 26  2  0  0  0  0
 25 24  1  0  0  0  0
 26 27  1  0  0  0  0
 27 22  1  0  0  0  0
 27 28  2  0  0  0  0
 29 24  1  0  0  0  0
 30 25  1  0  0  0  0
 31 32  1  0  0  0  0
M  END
>  <minimizedAffinity>
-5.56353998

$$$$

 OpenBabel03252500263D

 32 33  0  0  1  0  0  0  0  0999 V2000
   38.1800   29.6670   42.7120 O   0  0  0  0  0  0  0  0  0  0  0  0
   39.0640   27.4860   43.0860 C   0  0  2  0  0  0  0  0  0  0  0  0
   39.1920   28.7840   42.3990 C   0  0  2  0  0  0  0  0  0  0  0  0
   40.5400   29.2760   42.7770 C   0  0  0  0  0  0  0  0  0  0  0  0
   41.3420   28.1690   42.9870 O   0  0  0  0  0  0  0  0  0  0  0  0
   40.5660   27.0620   42.9790 C   0  0  0  0  0  0  0  0  0  0  0  0
   38.9230   27.3270   44.1210 H   0  0  0  0  0  0  0  0  0  0  0  0
   39.1220   28.5960   41.3200 H   0  0  0  0  0  0  0  0  0  0  0  0
   40.9940   29.7370   41.8450 H   0  0  0  0  0  0  0  0  0  0  0  0
   40.6220   30.0870   43.4930 H   0  0  0  0  0  0  0  0  0  0  0  0
   40.5990   26.6260   41.9350 H   0  0  0  0  0  0  0  0  0  0  0  0
   40.8060   26.2520   43.6640 H   0  0  0  0  0  0  0  0  0  0  0  0
   38.2650   26.5670   42.5030 O   0  0  0  0  0  0  0  0  0  0  0  0
   36.9710   26.4210   42.5610 C   0  0  0  0  0  0  0  0  0  0  0  0
   36.5170   26.6980   41.2240 F   0  0  0  0  0  0  0  0  0  0  0  0
   36.1560   27.2330   43.2930 F   0  0  0  0  0  0  0  0  0  0  0  0
   36.5420   25.0720   42.6750 F   0  0  0  0  0  0  0  0  0  0  0  0
   37.8710   29.2940   40.2110 O   0  0  0  0  0  0  0  0  0  0  0  0
   37.4680   30.2240   41.3220 P   0  0  1  0  0  0  0  0  0  0  0  0
   35.7810   30.1790   41.4800 O   0  0  0  0  0  0  0  0  0  0  0  0
   35.4690   31.1060   41.4900 H   0  0  0  0  0  0  0  0  0  0  0  0
   37.9940   31.7810   40.8810 O   0  0  0  0  0  0  0  0  0  0  0  0
   40.0790   32.3020   38.0400 C   0  0  0  0  0  0  0  0  0  0  0  0
   41.3920   32.4420   38.5920 C   0  0  0  0  0  0  0  0  0  0  0  0
   41.4990   32.3470   39.9830 C   0  0  0  0  0  0  0  0  0  0  0  0
   40.3800   32.1310   40.7050 N   0  0  0  0  0  0  0  0  0  0  0  0
   39.1570   32.0040   40.1420 C   0  0  0  0  0  0  0  0  0  0  0  0
   39.0230   32.0910   38.8120 N   0  0  0  0  0  0  0  0  0  0  0  0
   42.2600   32.6150   37.9550 H   0  0  0  0  0  0  0  0  0  0  0  0
   42.4730   32.4470   40.4500 H   0  0  0  0  0  0  0  0  0  0  0  0
   39.9710   32.3990   36.6670 O   0  0  0  0  0  0  0  0  0  0  0  0
   40.5570   33.1130   36.2140 H   0  0  0  0  0  0  0  0  0  0  0  0
  2  7  1  1  0  0  0
  3  8  1  6  0  0  0
  3  1  1  0  0  0  0
  3  4  1  0  0  0  0
  3  2  1  0  0  0  0
  4  5  1  0  0  0  0
  4 10  1  0  0  0  0
  6  5  1  0  0  0  0
  6  2  1  0  0  0  0
  6 12  1  0  0  0  0
  9  4  1  0  0  0  0
 11  6  1  0  0  0  0
 13 14  1  0  0  0  0
 13  2  1  0  0  0  0
 14 17  1  0  0  0  0
 14 16  1  0  0  0  0
 15 14  1  0  0  0  0
 19 18  2  6  0  0  0
 19 20  1  0  0  0  0
 19  1  1  0  0  0  0
 20 21  1  0  0  0  0
 22 19  1  0  0  0  0
 23 24  2  0  0  0  0
 23 28  1  0  0  0  0
 24 25  1  0  0  0  0
 25 30  1  0  0  0  0
 25 26  2  0  0  0  0
 27 26  1  0  0  0  0
 27 22  1  0  0  0  0
 28 27  2  0  0  0  0
 29 24  1  0  0  0  0
 31 23  1  0  0  0  0
 32 31  1  0  0  0  0
M  END
>  <minimizedAffinity>
-5.38001204

$$$$

 OpenBabel03252500263D

 32 33  0  0  1  0  0  0  0  0999 V2000
   38.0400   28.9520   40.4040 O   0  0  0  0  0  0  0  0  0  0  0  0
   36.9500   29.7330   38.4340 C   0  0  2  0  0  0  0  0  0  0  0  0
   37.8480   30.0290   39.5650 C   0  0  2  0  0  0  0  0  0  0  0  0
   39.0990   30.5120   38.9320 C   0  0  0  0  0  0  0  0  0  0  0  0
   38.7530   31.1210   37.7390 O   0  0  0  0  0  0  0  0  0  0  0  0
   37.4490   30.8730   37.4870 C   0  0  0  0  0  0  0  0  0  0  0  0
   37.0220   28.9200   37.7630 H   0  0  0  0  0  0  0  0  0  0  0  0
   37.3730   30.8150   40.1680 H   0  0  0  0  0  0  0  0  0  0  0  0
   39.4680   31.3850   39.5580 H   0  0  0  0  0  0  0  0  0  0  0  0
   39.9680   29.8610   38.9190 H   0  0  0  0  0  0  0  0  0  0  0  0
   36.8500   31.7550   37.8690 H   0  0  0  0  0  0  0  0  0  0  0  0
   37.1390   30.7070   36.4580 H   0  0  0  0  0  0  0  0  0  0  0  0
   35.6240   29.8470   38.6650 O   0  0  0  0  0  0  0  0  0  0  0  0
   34.7030   28.9290   38.7450 C   0  0  0  0  0  0  0  0  0  0  0  0
   35.3650   27.8060   39.3520 F   0  0  0  0  0  0  0  0  0  0  0  0
   34.1290   28.3440   37.6550 F   0  0  0  0  0  0  0  0  0  0  0  0
   33.7170   29.1790   39.7370 F   0  0  0  0  0  0  0  0  0  0  0  0
   38.4320   30.0400   42.6740 O   0  0  0  0  0  0  0  0  0  0  0  0
   37.3940   29.2770   41.8970 P   0  0  1  0  0  0  0  0  0  0  0  0
   36.0170   30.2500   41.7300 O   0  0  0  0  0  0  0  0  0  0  0  0
   35.2480   29.7090   42.0020 H   0  0  0  0  0  0  0  0  0  0  0  0
   37.0390   27.8720   42.7890 O   0  0  0  0  0  0  0  0  0  0  0  0
   38.3770   24.5960   42.3740 C   0  0  0  0  0  0  0  0  0  0  0  0
   39.6270   24.6390   43.0700 C   0  0  0  0  0  0  0  0  0  0  0  0
   39.9640   25.8530   43.6760 C   0  0  0  0  0  0  0  0  0  0  0  0
   39.1050   26.8890   43.5710 N   0  0  0  0  0  0  0  0  0  0  0  0
   37.9320   26.8050   42.9030 C   0  0  0  0  0  0  0  0  0  0  0  0
   37.5830   25.6550   42.3120 N   0  0  0  0  0  0  0  0  0  0  0  0
   40.2790   23.7670   43.1210 H   0  0  0  0  0  0  0  0  0  0  0  0
   40.9010   25.9370   44.2160 H   0  0  0  0  0  0  0  0  0  0  0  0
   38.0450   23.3980   41.7720 O   0  0  0  0  0  0  0  0  0  0  0  0
   38.8140   22.8910   41.3140 H   0  0  0  0  0  0  0  0  0  0  0  0
  1 19  1  0  0  0  0
  2  7  1  6  0  0  0
  2 13  1  0  0  0  0
  2  3  1  0  0  0  0
  3  8  1  1  0  0  0
  3  1  1  0  0  0  0
  4  9  1  0  0  0  0
  4  3  1  0  0  0  0
  5  4  1  0  0  0  0
  6  5  1  0  0  0  0
  6 11  1  0  0  0  0
  6  2  1  0  0  0  0
 10  4  1  0  0  0  0
 12  6  1  0  0  0  0
 13 14  1  0  0  0  0
 14 15  1  0  0  0  0
 14 17  1  0  0  0  0
 16 14  1  0  0  0  0
 19 18  2  1  0  0  0
 19 22  1  0  0  0  0
 20 19  1  0  0  0  0
 20 21  1  0  0  0  0
 22 27  1  0  0  0  0
 23 24  1  0  0  0  0
 24 29  1  0  0  0  0
 24 25  2  0  0  0  0
 25 30  1  0  0  0  0
 26 25  1  0  0  0  0
 27 26  2  0  0  0  0
 28 23  2  0  0  0  0
 28 27  1  0  0  0  0
 31 23  1  0  0  0  0
 32 31  1  0  0  0  0
M  END
>  <minimizedAffinity>
-5.18384027

$$$$

 OpenBabel03252500263D

 32 33  0  0  1  0  0  0  0  0999 V2000
   38.9230   29.7700   40.7580 O   0  0  0  0  0  0  0  0  0  0  0  0
   37.2230   30.6750   39.3540 C   0  0  2  0  0  0  0  0  0  0  0  0
   38.3060   30.9240   40.3230 C   0  0  2  0  0  0  0  0  0  0  0  0
   39.2260   31.8550   39.6260 C   0  0  0  0  0  0  0  0  0  0  0  0
   38.4660   32.6140   38.7540 O   0  0  0  0  0  0  0  0  0  0  0  0
   37.2190   32.0970   38.7010 C   0  0  0  0  0  0  0  0  0  0  0  0
   37.2810   30.0920   38.4750 H   0  0  0  0  0  0  0  0  0  0  0  0
   37.8570   31.3920   41.2090 H   0  0  0  0  0  0  0  0  0  0  0  0
   39.5610   32.6210   40.3930 H   0  0  0  0  0  0  0  0  0  0  0  0
   40.1730   31.4790   39.2540 H   0  0  0  0  0  0  0  0  0  0  0  0
   36.5750   32.6730   39.4320 H   0  0  0  0  0  0  0  0  0  0  0  0
   36.6920   32.1010   37.7490 H   0  0  0  0  0  0  0  0  0  0  0  0
   36.0090   30.3780   39.8630 O   0  0  0  0  0  0  0  0  0  0  0  0
   35.2640   29.3220   39.6980 C   0  0  0  0  0  0  0  0  0  0  0  0
   36.2000   28.2390   39.5570 F   0  0  0  0  0  0  0  0  0  0  0  0
   34.4660   29.1290   38.6080 F   0  0  0  0  0  0  0  0  0  0  0  0
   34.5900   28.8940   40.8730 F   0  0  0  0  0  0  0  0  0  0  0  0
   39.4110   30.7050   43.0770 O   0  0  0  0  0  0  0  0  0  0  0  0
   38.6840   29.5820   42.3890 P   0  0  1  0  0  0  0  0  0  0  0  0
   37.0330   29.7050   42.7480 O   0  0  0  0  0  0  0  0  0  0  0  0
   36.7380   28.8220   43.0490 H   0  0  0  0  0  0  0  0  0  0  0  0
   39.3290   28.1280   42.9930 O   0  0  0  0  0  0  0  0  0  0  0  0
   39.0450   24.5810   42.8110 C   0  0  0  0  0  0  0  0  0  0  0  0
   37.8010   24.3650   42.1360 C   0  0  0  0  0  0  0  0  0  0  0  0
   37.0870   25.5080   41.7590 C   0  0  0  0  0  0  0  0  0  0  0  0
   37.6060   26.7190   42.0480 N   0  0  0  0  0  0  0  0  0  0  0  0
   38.7870   26.8780   42.6890 C   0  0  0  0  0  0  0  0  0  0  0  0
   39.4920   25.8030   43.0620 N   0  0  0  0  0  0  0  0  0  0  0  0
   37.4340   23.3600   41.9280 H   0  0  0  0  0  0  0  0  0  0  0  0
   36.1390   25.3970   41.2440 H   0  0  0  0  0  0  0  0  0  0  0  0
   39.7480   23.4540   43.1860 O   0  0  0  0  0  0  0  0  0  0  0  0
   39.1900   22.6690   43.5470 H   0  0  0  0  0  0  0  0  0  0  0  0
  1 19  1  0  0  0  0
  2  7  1  6  0  0  0
  2 13  1  0  0  0  0
  2  3  1  0  0  0  0
  3  1  1  0  0  0  0
  3  8  1  1  0  0  0
  4  3  1  0  0  0  0
  4  9  1  0  0  0  0
  5  4  1  0  0  0  0
  6  5  1  0  0  0  0
  6  2  1  0  0  0  0
  6 11  1  0  0  0  0
 10  4  1  0  0  0  0
 12  6  1  0  0  0  0
 14 13  1  0  0  0  0
 14 17  1  0  0  0  0
 15 14  1  0  0  0  0
 16 14  1  0  0  0  0
 19 20  1  0  0  0  0
 19 22  1  0  0  0  0
 19 18  2  1  0  0  0
 20 21  1  0  0  0  0
 23 28  1  0  0  0  0
 23 31  1  0  0  0  0
 24 23  2  0  0  0  0
 25 26  2  0  0  0  0
 25 24  1  0  0  0  0
 26 27  1  0  0  0  0
 27 22  1  0  0  0  0
 27 28  2  0  0  0  0
 29 24  1  0  0  0  0
 30 25  1  0  0  0  0
 31 32  1  0  0  0  0
M  END
>  <minimizedAffinity>
-5.1169939

$$$$

 OpenBabel03252500263D

 32 33  0  0  1  0  0  0  0  0999 V2000
   37.6170   28.4650   40.1650 O   0  0  0  0  0  0  0  0  0  0  0  0
   39.0110   30.0480   39.0560 C   0  0  2  0  0  0  0  0  0  0  0  0
   38.8040   29.1640   40.2180 C   0  0  2  0  0  0  0  0  0  0  0  0
   40.0020   28.2890   40.2400 C   0  0  0  0  0  0  0  0  0  0  0  0
   41.0530   29.0100   39.7020 O   0  0  0  0  0  0  0  0  0  0  0  0
   40.5680   30.1530   39.1680 C   0  0  0  0  0  0  0  0  0  0  0  0
   38.9380   29.7820   38.0360 H   0  0  0  0  0  0  0  0  0  0  0  0
   38.7550   29.7990   41.1120 H   0  0  0  0  0  0  0  0  0  0  0  0
   40.3080   28.1790   41.3280 H   0  0  0  0  0  0  0  0  0  0  0  0
   39.9040   27.2540   39.9280 H   0  0  0  0  0  0  0  0  0  0  0  0
   40.6790   30.9700   39.9430 H   0  0  0  0  0  0  0  0  0  0  0  0
   41.0140   30.5290   38.2500 H   0  0  0  0  0  0  0  0  0  0  0  0
   38.4430   31.2710   39.1150 O   0  0  0  0  0  0  0  0  0  0  0  0
   37.2310   31.6500   38.8240 C   0  0  0  0  0  0  0  0  0  0  0  0
   36.6770   32.0820   40.0790 F   0  0  0  0  0  0  0  0  0  0  0  0
   36.2620   30.7960   38.3840 F   0  0  0  0  0  0  0  0  0  0  0  0
   37.1600   32.8740   38.1070 F   0  0  0  0  0  0  0  0  0  0  0  0
   37.3790   29.9350   42.2320 O   0  0  0  0  0  0  0  0  0  0  0  0
   36.7010   28.8050   41.5050 P   0  0  1  0  0  0  0  0  0  0  0  0
   35.1550   29.3130   41.0340 O   0  0  0  0  0  0  0  0  0  0  0  0
   34.5250   28.6220   41.3200 H   0  0  0  0  0  0  0  0  0  0  0  0
   36.6040   27.5010   42.5940 O   0  0  0  0  0  0  0  0  0  0  0  0
   38.4440   24.4630   42.3080 C   0  0  0  0  0  0  0  0  0  0  0  0
   39.6400   24.7090   43.0550 C   0  0  0  0  0  0  0  0  0  0  0  0
   39.7600   25.9690   43.6490 C   0  0  0  0  0  0  0  0  0  0  0  0
   38.7590   26.8590   43.4840 N   0  0  0  0  0  0  0  0  0  0  0  0
   37.6440   26.5860   42.7690 C   0  0  0  0  0  0  0  0  0  0  0  0
   37.5010   25.3870   42.1890 N   0  0  0  0  0  0  0  0  0  0  0  0
   40.4150   23.9480   43.1530 H   0  0  0  0  0  0  0  0  0  0  0  0
   40.6480   26.2040   44.2250 H   0  0  0  0  0  0  0  0  0  0  0  0
   38.3270   23.2200   41.7190 O   0  0  0  0  0  0  0  0  0  0  0  0
   39.1840   22.8300   41.3050 H   0  0  0  0  0  0  0  0  0  0  0  0
  1  3  1  0  0  0  0
  1 19  1  0  0  0  0
  2  7  1  6  0  0  0
  2 13  1  0  0  0  0
  2  6  1  0  0  0  0
  2  3  1  0  0  0  0
  3  4  1  0  0  0  0
  3  8  1  1  0  0  0
  4  9  1  0  0  0  0
  5  4  1  0  0  0  0
  6  5  1  0  0  0  0
  6 11  1  0  0  0  0
 10  4  1  0  0  0  0
 12  6  1  0  0  0  0
 14 13  1  0  0  0  0
 14 15  1  0  0  0  0
 16 14  1  0  0  0  0
 17 14  1  0  0  0  0
 19 18  2  1  0  0  0
 19 22  1  0  0  0  0
 20 21  1  0  0  0  0
 20 19  1  0  0  0  0
 22 27  1  0  0  0  0
 23 24  1  0  0  0  0
 24 29  1  0  0  0  0
 24 25  2  0  0  0  0
 25 30  1  0  0  0  0
 26 25  1  0  0  0  0
 27 26  2  0  0  0  0
 28 23  2  0  0  0  0
 28 27  1  0  0  0  0
 31 23  1  0  0  0  0
 32 31  1  0  0  0  0
M  END
>  <minimizedAffinity>
-5.0505991

$$$$

 OpenBabel03252500263D

 32 33  0  0  1  0  0  0  0  0999 V2000
   37.3500   29.3990   42.6370 O   0  0  0  0  0  0  0  0  0  0  0  0
   38.2010   27.3060   43.3920 C   0  0  2  0  0  0  0  0  0  0  0  0
   38.3580   28.4690   42.5000 C   0  0  2  0  0  0  0  0  0  0  0  0
   39.7030   29.0070   42.8200 C   0  0  0  0  0  0  0  0  0  0  0  0
   40.4880   27.9450   43.2310 O   0  0  0  0  0  0  0  0  0  0  0  0
   39.7000   26.8580   43.3920 C   0  0  0  0  0  0  0  0  0  0  0  0
   38.0370   27.3240   44.4360 H   0  0  0  0  0  0  0  0  0  0  0  0
   38.3070   28.1020   41.4660 H   0  0  0  0  0  0  0  0  0  0  0  0
   40.1810   29.3010   41.8330 H   0  0  0  0  0  0  0  0  0  0  0  0
   39.7790   29.9260   43.3910 H   0  0  0  0  0  0  0  0  0  0  0  0
   39.7490   26.2530   42.4360 H   0  0  0  0  0  0  0  0  0  0  0  0
   39.9170   26.1730   44.2080 H   0  0  0  0  0  0  0  0  0  0  0  0
   37.4040   26.3080   42.9550 O   0  0  0  0  0  0  0  0  0  0  0  0
   37.6710   25.2990   42.1750 C   0  0  0  0  0  0  0  0  0  0  0  0
   36.4100   24.6250   42.0120 F   0  0  0  0  0  0  0  0  0  0  0  0
   38.4820   24.2640   42.5360 F   0  0  0  0  0  0  0  0  0  0  0  0
   37.9160   25.6580   40.8220 F   0  0  0  0  0  0  0  0  0  0  0  0
   35.9700   28.5290   40.6810 O   0  0  0  0  0  0  0  0  0  0  0  0
   36.7030   29.7540   41.1520 P   0  0  1  0  0  0  0  0  0  0  0  0
   35.5950   31.0280   41.2940 O   0  0  0  0  0  0  0  0  0  0  0  0
   35.9770   31.7960   40.8230 H   0  0  0  0  0  0  0  0  0  0  0  0
   37.8850   30.1080   39.9790 O   0  0  0  0  0  0  0  0  0  0  0  0
   37.8440   28.8790   36.6350 C   0  0  0  0  0  0  0  0  0  0  0  0
   38.6140   27.6730   36.6970 C   0  0  0  0  0  0  0  0  0  0  0  0
   39.1340   27.3270   37.9480 C   0  0  0  0  0  0  0  0  0  0  0  0
   38.8820   28.1350   38.9990 N   0  0  0  0  0  0  0  0  0  0  0  0
   38.1490   29.2670   38.8970 C   0  0  0  0  0  0  0  0  0  0  0  0
   37.6380   29.6240   37.7120 N   0  0  0  0  0  0  0  0  0  0  0  0
   38.7820   27.0610   35.8110 H   0  0  0  0  0  0  0  0  0  0  0  0
   39.7240   26.4220   38.0470 H   0  0  0  0  0  0  0  0  0  0  0  0
   37.3320   29.2230   35.4000 O   0  0  0  0  0  0  0  0  0  0  0  0
   37.9470   29.0590   34.5910 H   0  0  0  0  0  0  0  0  0  0  0  0
  2  7  1  1  0  0  0
  3  8  1  6  0  0  0
  3  1  1  0  0  0  0
  3  4  1  0  0  0  0
  3  2  1  0  0  0  0
  4  5  1  0  0  0  0
  4 10  1  0  0  0  0
  5  6  1  0  0  0  0
  6  2  1  0  0  0  0
  6 12  1  0  0  0  0
  9  4  1  0  0  0  0
 11  6  1  0  0  0  0
 13  2  1  0  0  0  0
 14 16  1  0  0  0  0
 14 13  1  0  0  0  0
 15 14  1  0  0  0  0
 17 14  1  0  0  0  0
 19 18  2  6  0  0  0
 19 20  1  0  0  0  0
 19  1  1  0  0  0  0
 21 20  1  0  0  0  0
 22 19  1  0  0  0  0
 23 24  2  0  0  0  0
 23 28  1  0  0  0  0
 24 25  1  0  0  0  0
 25 30  1  0  0  0  0
 25 26  2  0  0  0  0
 27 26  1  0  0  0  0
 27 22  1  0  0  0  0
 28 27  2  0  0  0  0
 29 24  1  0  0  0  0
 31 23  1  0  0  0  0
 32 31  1  0  0  0  0
M  END
>  <minimizedAffinity>
-4.986691

$$$$

 OpenBabel03252500263D

 32 33  0  0  1  0  0  0  0  0999 V2000
   36.9510   30.3840   41.3620 O   0  0  0  0  0  0  0  0  0  0  0  0
   37.5960   31.5320   39.3760 C   0  0  2  0  0  0  0  0  0  0  0  0
   37.2900   30.2480   40.0320 C   0  0  2  0  0  0  0  0  0  0  0  0
   36.2100   29.6550   39.2080 C   0  0  0  0  0  0  0  0  0  0  0  0
   36.3850   30.1020   37.9100 O   0  0  0  0  0  0  0  0  0  0  0  0
   37.3320   31.0660   37.9060 C   0  0  0  0  0  0  0  0  0  0  0  0
   37.0000   32.4050   39.3800 H   0  0  0  0  0  0  0  0  0  0  0  0
   38.2010   29.6360   40.0020 H   0  0  0  0  0  0  0  0  0  0  0  0
   36.4360   28.5450   39.1200 H   0  0  0  0  0  0  0  0  0  0  0  0
   35.1960   29.6480   39.5940 H   0  0  0  0  0  0  0  0  0  0  0  0
   38.3200   30.5780   37.6490 H   0  0  0  0  0  0  0  0  0  0  0  0
   37.2130   31.9110   37.2310 H   0  0  0  0  0  0  0  0  0  0  0  0
   38.8560   31.9980   39.5110 O   0  0  0  0  0  0  0  0  0  0  0  0
   39.3150   32.9840   40.2300 C   0  0  0  0  0  0  0  0  0  0  0  0
   40.5330   32.4750   40.8030 F   0  0  0  0  0  0  0  0  0  0  0  0
   38.6800   33.4660   41.3370 F   0  0  0  0  0  0  0  0  0  0  0  0
   39.8500   34.0590   39.4710 F   0  0  0  0  0  0  0  0  0  0  0  0
   39.0890   30.4370   42.7470 O   0  0  0  0  0  0  0  0  0  0  0  0
   37.9960   29.5040   42.3030 P   0  0  1  0  0  0  0  0  0  0  0  0
   37.1870   28.9240   43.6750 O   0  0  0  0  0  0  0  0  0  0  0  0
   37.1380   27.9510   43.5900 H   0  0  0  0  0  0  0  0  0  0  0  0
   38.7420   28.2300   41.4570 O   0  0  0  0  0  0  0  0  0  0  0  0
   38.6990   24.8170   42.4800 C   0  0  0  0  0  0  0  0  0  0  0  0
   37.5520   24.2700   41.8210 C   0  0  0  0  0  0  0  0  0  0  0  0
   36.8140   25.1470   41.0180 C   0  0  0  0  0  0  0  0  0  0  0  0
   37.2220   26.4290   40.9160 N   0  0  0  0  0  0  0  0  0  0  0  0
   38.3140   26.9050   41.5570 C   0  0  0  0  0  0  0  0  0  0  0  0
   39.0400   26.0900   42.3320 N   0  0  0  0  0  0  0  0  0  0  0  0
   37.2730   23.2230   41.9420 H   0  0  0  0  0  0  0  0  0  0  0  0
   35.9360   24.7800   40.4980 H   0  0  0  0  0  0  0  0  0  0  0  0
   39.4260   23.9540   43.2740 O   0  0  0  0  0  0  0  0  0  0  0  0
   38.8820   23.2850   43.8360 H   0  0  0  0  0  0  0  0  0  0  0  0
  1 19  1  0  0  0  0
  2  7  1  1  0  0  0
  2 13  1  0  0  0  0
  2  3  1  0  0  0  0
  3  8  1  6  0  0  0
  3  1  1  0  0  0  0
  4 10  1  0  0  0  0
  4  3  1  0  0  0  0
  5  4  1  0  0  0  0
  6  5  1  0  0  0  0
  6  2  1  0  0  0  0
  9  4  1  0  0  0  0
 11  6  1  0  0  0  0
 12  6  1  0  0  0  0
 13 14  1  0  0  0  0
 14 15  1  0  0  0  0
 14 16  1  0  0  0  0
 17 14  1  0  0  0  0
 19 18  2  1  0  0  0
 19 20  1  0  0  0  0
 21 20  1  0  0  0  0
 22 27  1  0  0  0  0
 22 19  1  0  0  0  0
 23 31  1  0  0  0  0
 24 29  1  0  0  0  0
 24 23  2  0  0  0  0
 25 24  1  0  0  0  0
 26 25  2  0  0  0  0
 26 27  1  0  0  0  0
 27 28  2  0  0  0  0
 28 23  1  0  0  0  0
 30 25  1  0  0  0  0
 31 32  1  0  0  0  0
M  END
>  <minimizedAffinity>
-4.96095896

$$$$

 OpenBabel03252500263D

 32 33  0  0  1  0  0  0  0  0999 V2000
   38.3320   28.6470   40.8370 O   0  0  0  0  0  0  0  0  0  0  0  0
   38.0460   26.4250   40.0240 C   0  0  2  0  0  0  0  0  0  0  0  0
   37.8470   27.8700   39.8070 C   0  0  2  0  0  0  0  0  0  0  0  0
   38.5010   28.1450   38.5040 C   0  0  0  0  0  0  0  0  0  0  0  0
   38.4090   26.9940   37.7420 O   0  0  0  0  0  0  0  0  0  0  0  0
   37.9550   25.9890   38.5240 C   0  0  0  0  0  0  0  0  0  0  0  0
   38.9490   25.9400   40.2800 H   0  0  0  0  0  0  0  0  0  0  0  0
   36.7650   28.0520   39.7600 H   0  0  0  0  0  0  0  0  0  0  0  0
   37.8250   28.8660   37.9440 H   0  0  0  0  0  0  0  0  0  0  0  0
   39.4500   28.6700   38.4920 H   0  0  0  0  0  0  0  0  0  0  0  0
   36.8350   25.9220   38.3810 H   0  0  0  0  0  0  0  0  0  0  0  0
   38.3520   24.9890   38.3700 H   0  0  0  0  0  0  0  0  0  0  0  0
   37.1130   25.7880   40.7650 O   0  0  0  0  0  0  0  0  0  0  0  0
   37.1150   25.4740   42.0290 C   0  0  0  0  0  0  0  0  0  0  0  0
   38.4990   25.5440   42.4160 F   0  0  0  0  0  0  0  0  0  0  0  0
   36.7690   24.2410   42.4980 F   0  0  0  0  0  0  0  0  0  0  0  0
   36.5870   26.4820   42.8800 F   0  0  0  0  0  0  0  0  0  0  0  0
   35.8220   29.0760   40.9170 O   0  0  0  0  0  0  0  0  0  0  0  0
   37.1280   29.6270   41.4200 P   0  0  1  0  0  0  0  0  0  0  0  0
   37.1190   29.5850   43.1140 O   0  0  0  0  0  0  0  0  0  0  0  0
   37.3900   30.4720   43.4250 H   0  0  0  0  0  0  0  0  0  0  0  0
   37.2420   31.2280   40.8550 O   0  0  0  0  0  0  0  0  0  0  0  0
   39.5050   32.2310   38.2920 C   0  0  0  0  0  0  0  0  0  0  0  0
   40.6410   32.7310   39.0060 C   0  0  0  0  0  0  0  0  0  0  0  0
   40.5680   32.6960   40.4020 C   0  0  0  0  0  0  0  0  0  0  0  0
   39.4520   32.2030   40.9790 N   0  0  0  0  0  0  0  0  0  0  0  0
   38.4000   31.7400   40.2660 C   0  0  0  0  0  0  0  0  0  0  0  0
   38.4410   31.7610   38.9280 N   0  0  0  0  0  0  0  0  0  0  0  0
   41.5160   33.1170   38.4820 H   0  0  0  0  0  0  0  0  0  0  0  0
   41.4030   33.0630   40.9880 H   0  0  0  0  0  0  0  0  0  0  0  0
   39.5750   32.2680   36.9140 O   0  0  0  0  0  0  0  0  0  0  0  0
   40.0120   33.1040   36.5030 H   0  0  0  0  0  0  0  0  0  0  0  0
  1 19  1  0  0  0  0
  2  7  1  1  0  0  0
  2 13  1  0  0  0  0
  3  8  1  6  0  0  0
  3  2  1  0  0  0  0
  3  1  1  0  0  0  0
  4  3  1  0  0  0  0
  5  4  1  0  0  0  0
  5  6  1  0  0  0  0
  6  2  1  0  0  0  0
  9  4  1  0  0  0  0
 10  4  1  0  0  0  0
 11  6  1  0  0  0  0
 12  6  1  0  0  0  0
 13 14  1  0  0  0  0
 14 15  1  0  0  0  0
 14 16  1  0  0  0  0
 14 17  1  0  0  0  0
 19 18  2  6  0  0  0
 19 20  1  0  0  0  0
 20 21  1  0  0  0  0
 22 19  1  0  0  0  0
 23 28  2  0  0  0  0
 23 24  1  0  0  0  0
 24 25  2  0  0  0  0
 25 26  1  0  0  0  0
 25 30  1  0  0  0  0
 27 22  1  0  0  0  0
 27 26  2  0  0  0  0
 28 27  1  0  0  0  0
 29 24  1  0  0  0  0
 31 23  1  0  0  0  0
 32 31  1  0  0  0  0
M  END
>  <minimizedAffinity>
-4.92269707

$$$$
