
 OpenBabel03252501583D

 28 29  0  0  0  0  0  0  0  0999 V2000
   44.6970   35.4680   45.3120 C   0  0  0  0  0  0  0  0  0  0  0  0
   45.4010   35.6130   44.0980 C   0  0  0  0  0  0  0  0  0  0  0  0
   46.2380   34.5940   43.7160 C   0  0  0  0  0  0  0  0  0  0  0  0
   46.3430   33.4920   44.5290 N   0  0  0  0  0  0  0  0  0  0  0  0
   45.6450   33.3920   45.6890 C   0  0  0  0  0  0  0  0  0  0  0  0
   44.8200   34.3830   46.0820 N   0  0  0  0  0  0  0  0  0  0  0  0
   44.0210   36.2130   45.6910 H   0  0  0  0  0  0  0  0  0  0  0  0
   45.7690   32.5000   46.2890 H   0  0  0  0  0  0  0  0  0  0  0  0
   46.9720   34.7160   42.4790 C   0  0  0  0  0  0  0  0  0  0  0  0
   48.1390   35.4050   42.2430 C   0  0  0  0  0  0  0  0  0  0  0  0
   48.6860   35.3970   40.9700 C   0  0  0  0  0  0  0  0  0  0  0  0
   48.0690   34.7040   39.9430 C   0  0  0  0  0  0  0  0  0  0  0  0
   46.9010   34.0120   40.1690 C   0  0  0  0  0  0  0  0  0  0  0  0
   46.3620   34.0260   41.4450 C   0  0  0  0  0  0  0  0  0  0  0  0
   48.5390   35.9080   43.1020 H   0  0  0  0  0  0  0  0  0  0  0  0
   49.6090   35.9660   40.8720 H   0  0  0  0  0  0  0  0  0  0  0  0
   48.5230   34.7230   38.9740 H   0  0  0  0  0  0  0  0  0  0  0  0
   46.4510   33.4830   39.3380 H   0  0  0  0  0  0  0  0  0  0  0  0
   45.4350   33.4460   41.5150 H   0  0  0  0  0  0  0  0  0  0  0  0
   45.1930   36.8500   43.3250 C   0  0  0  0  0  0  0  0  0  0  0  0
   44.3720   36.8300   42.6070 H   0  0  0  0  0  0  0  0  0  0  0  0
   46.1330   37.0370   42.7580 H   0  0  0  0  0  0  0  0  0  0  0  0
   45.0860   37.9170   44.2960 N   0  0  0  0  0  0  0  0  0  0  0  0
   44.1420   37.9910   44.7370 H   0  0  0  0  0  0  0  0  0  0  0  0
   45.3970   39.2040   43.7080 C   0  0  0  0  0  0  0  0  0  0  0  0
   46.7390   39.4130   43.5310 F   0  0  0  0  0  0  0  0  0  0  0  0
   44.9090   40.2510   44.4740 F   0  0  0  0  0  0  0  0  0  0  0  0
   44.8200   39.2780   42.4550 F   0  0  0  0  0  0  0  0  0  0  0  0
  1  7  1  0  0  0  0
  1  6  1  0  0  0  0
  2  1  2  0  0  0  0
  3  2  1  0  0  0  0
  3  4  2  0  0  0  0
  4  5  1  0  0  0  0
  5  6  2  0  0  0  0
  5  8  1  0  0  0  0
  9  3  1  0  0  0  0
 10  9  1  0  0  0  0
 10 15  1  0  0  0  0
 11 10  2  0  0  0  0
 12 13  2  0  0  0  0
 12 11  1  0  0  0  0
 13 14  1  0  0  0  0
 14 19  1  0  0  0  0
 14  9  2  0  0  0  0
 16 11  1  0  0  0  0
 17 12  1  0  0  0  0
 18 13  1  0  0  0  0
 20  2  1  0  0  0  0
 20 23  1  0  0  0  0
 21 20  1  0  0  0  0
 22 20  1  0  0  0  0
 23 24  1  0  0  0  0
 25 23  1  0  0  0  0
 25 27  1  0  0  0  0
 26 25  1  0  0  0  0
 28 25  1  0  0  0  0
M  END
>  <minimizedAffinity>
-5.17453909

>  <minimizedRMSD>
0.814876556

$$$$
