
     RDKit          3D

 39 41  0  0  0  0  0  0  0  0999 V2000
   47.0623   34.8132   41.9521 C   0  0  2  0  0  0  0  0  0  0  0  0
   46.2973   34.1775   40.7869 C   0  0  0  0  0  0  0  0  0  0  0  0
   47.4972   33.9928   39.8328 C   0  0  0  0  0  0  0  0  0  0  0  0
   48.6452   33.6317   40.7241 C   0  0  1  0  0  0  0  0  0  0  0  0
   48.1372   33.7754   42.1304 C   0  0  0  0  0  0  0  0  0  0  0  0
   44.5364   35.9822   44.4902 C   0  0  0  0  0  0  0  0  0  0  0  0
   45.2724   35.9622   43.3099 C   0  0  0  0  0  0  0  0  0  0  0  0
   46.1950   34.9322   43.1605 C   0  0  0  0  0  0  0  0  0  0  0  0
   46.3581   33.9700   44.1673 N   0  0  0  0  0  0  0  0  0  0  0  0
   45.6086   34.0458   45.2973 C   0  0  0  0  0  0  0  0  0  0  0  0
   44.7023   35.0495   45.4541 N   0  0  0  0  0  0  0  0  0  0  0  0
   49.1304   32.2069   40.5714 C   0  0  2  0  0  0  0  0  0  0  0  0
   49.7680   31.6164   41.7360 C   0  0  0  0  0  0  0  0  0  0  0  0
   50.5548   31.8856   40.4917 C   0  0  1  0  0  0  0  0  0  0  0  0
   50.9217   30.7636   39.7054 O   0  0  0  0  0  0  0  0  0  0  0  0
   52.0203   30.2152   37.4037 O   0  0  0  0  0  0  0  0  0  0  0  0
   51.8749   31.3085   38.4326 P   0  0  1  0  0  0  0  0  0  0  0  0
   51.1252   32.6445   37.6637 O   0  0  0  0  0  0  0  0  0  0  0  0
   53.3937   31.8068   38.8890 O   0  0  0  0  0  0  0  0  0  0  0  0
   47.4177   35.7864   41.6141 H   0  0  0  0  0  0  0  0  0  0  0  0
   45.5681   34.8797   40.3775 H   0  0  0  0  0  0  0  0  0  0  0  0
   45.8882   33.2060   41.0983 H   0  0  0  0  0  0  0  0  0  0  0  0
   47.7211   34.9979   39.4116 H   0  0  0  0  0  0  0  0  0  0  0  0
   47.2834   33.2590   39.0455 H   0  0  0  0  0  0  0  0  0  0  0  0
   49.5332   34.2846   40.5547 H   0  0  0  0  0  0  0  0  0  0  0  0
   47.7194   32.8729   42.5725 H   0  0  0  0  0  0  0  0  0  0  0  0
   48.9360   34.2421   42.7508 H   0  0  0  0  0  0  0  0  0  0  0  0
   43.8124   36.7762   44.6251 H   0  0  0  0  0  0  0  0  0  0  0  0
   45.1766   36.6828   42.5131 H   0  0  0  0  0  0  0  0  0  0  0  0
   45.7950   33.2736   46.0154 H   0  0  0  0  0  0  0  0  0  0  0  0
   48.4433   31.5749   39.9781 H   0  0  0  0  0  0  0  0  0  0  0  0
   49.9990   32.2794   42.5976 H   0  0  0  0  0  0  0  0  0  0  0  0
   49.5883   30.5662   42.0500 H   0  0  0  0  0  0  0  0  0  0  0  0
   51.2076   32.7731   40.3729 H   0  0  0  0  0  0  0  0  0  0  0  0
   50.4217   32.2968   37.0614 H   0  0  0  0  0  0  0  0  0  0  0  0
   54.1081   30.6534   39.2853 C   0  0  0  0  0  0  0  0  0  0  0  0
   53.1971   29.7522   39.7896 F   0  0  0  0  0  0  0  0  0  0  0  0
   54.8040   30.0995   38.2487 F   0  0  0  0  0  0  0  0  0  0  0  0
   55.0476   30.9618   40.2666 F   0  0  0  0  0  0  0  0  0  0  0  0
  1  5  1  0
  1  8  1  0
  2  1  1  0
  3  4  1  0
  3  2  1  0
  4  5  1  0
  6 11  2  0
  7  6  1  0
  8  7  2  0
  8  9  1  0
  9 10  2  0
 10 11  1  0
 12  4  1  0
 12 13  1  0
 14 12  1  0
 14 13  1  0
 15 14  1  0
 16 17  2  0
 17 19  1  1
 17 15  1  0
 18 17  1  0
  1 20  1  6
  2 21  1  0
  2 22  1  0
  3 23  1  0
  3 24  1  0
  4 25  1  1
  5 26  1  0
  5 27  1  0
  6 28  1  0
  7 29  1  0
 10 30  1  0
 12 31  1  6
 13 32  1  0
 13 33  1  0
 14 34  1  1
 18 35  1  0
 36 37  1  0
 36 38  1  0
 36 39  1  0
 19 36  1  0
M  ISO  8  20  13  21  13  22  13  23  13  24  13  25  13  26  13  27  13
M  ISO  8  28  14  29  14  30  14  31  13  32  13  33  13  34  13  35   3
M  END
>  <DihAtoms>  (1) 
16,18,35,36

>  <DihDeg>  (1) 
-179.99979598439558

$$$$
