
 OpenBabel03242521583D

 28 29  0  0  0  0  0  0  0  0999 V2000
   46.7870   34.8530   42.1430 C   0  0  0  0  0  0  0  0  0  0  0  0
   48.0440   35.3840   41.9850 C   0  0  0  0  0  0  0  0  0  0  0  0
   48.8110   35.2600   40.8300 C   0  0  0  0  0  0  0  0  0  0  0  0
   48.2860   34.5610   39.7640 C   0  0  0  0  0  0  0  0  0  0  0  0
   47.0470   34.0480   39.9360 C   0  0  0  0  0  0  0  0  0  0  0  0
   46.3310   34.1790   41.0510 N   0  0  0  0  0  0  0  0  0  0  0  0
   48.3940   35.9260   42.8750 H   0  0  0  0  0  0  0  0  0  0  0  0
   49.7790   35.7580   40.9200 H   0  0  0  0  0  0  0  0  0  0  0  0
   49.0240   34.5610   38.9830 H   0  0  0  0  0  0  0  0  0  0  0  0
   44.4390   35.9350   44.8770 C   0  0  0  0  0  0  0  0  0  0  0  0
   45.1000   35.9730   43.6440 C   0  0  0  0  0  0  0  0  0  0  0  0
   46.0060   34.9840   43.3610 C   0  0  0  0  0  0  0  0  0  0  0  0
   46.2120   34.0120   44.3120 N   0  0  0  0  0  0  0  0  0  0  0  0
   45.5650   33.9930   45.4930 C   0  0  0  0  0  0  0  0  0  0  0  0
   44.6790   34.9550   45.7740 N   0  0  0  0  0  0  0  0  0  0  0  0
   43.7400   36.7170   45.0670 H   0  0  0  0  0  0  0  0  0  0  0  0
   44.9590   36.7150   42.8900 H   0  0  0  0  0  0  0  0  0  0  0  0
   45.7840   33.1950   46.1820 H   0  0  0  0  0  0  0  0  0  0  0  0
   46.4950   33.3430   38.8810 O   0  0  0  0  0  0  0  0  0  0  0  0
   47.9300   34.5270   37.0100 O   0  0  0  0  0  0  0  0  0  0  0  0
   47.2310   33.2220   37.3500 P   0  0  1  0  0  0  0  0  0  0  0  0
   48.3590   31.9710   37.3760 O   0  0  0  0  0  0  0  0  0  0  0  0
   48.9280   32.0290   36.5710 H   0  0  0  0  0  0  0  0  0  0  0  0
   46.0080   32.9390   36.2090 O   0  0  0  0  0  0  0  0  0  0  0  0
   45.0500   32.1220   36.7930 C   0  0  0  0  0  0  0  0  0  0  0  0
   44.2720   31.5070   35.8090 F   0  0  0  0  0  0  0  0  0  0  0  0
   44.1660   32.8430   37.5630 F   0  0  0  0  0  0  0  0  0  0  0  0
   45.5940   31.1310   37.5760 F   0  0  0  0  0  0  0  0  0  0  0  0
  1 12  1  0  0  0  0
  2  1  1  0  0  0  0
  2  7  1  0  0  0  0
  3  8  1  0  0  0  0
  3  2  2  0  0  0  0
  4  5  2  0  0  0  0
  4  3  1  0  0  0  0
  5  6  1  0  0  0  0
  6  1  2  0  0  0  0
  9  4  1  0  0  0  0
 10 16  1  0  0  0  0
 10 15  1  0  0  0  0
 11 10  2  0  0  0  0
 12 11  1  0  0  0  0
 12 13  2  0  0  0  0
 13 14  1  0  0  0  0
 14 15  2  0  0  0  0
 14 18  1  0  0  0  0
 17 11  1  0  0  0  0
 19  5  1  0  0  0  0
 21 20  2  6  0  0  0
 21 22  1  0  0  0  0
 21 19  1  0  0  0  0
 23 22  1  0  0  0  0
 24 25  1  0  0  0  0
 24 21  1  0  0  0  0
 25 27  1  0  0  0  0
 25 28  1  0  0  0  0
 26 25  1  0  0  0  0
M  END
>  <minimizedAffinity>
-5.21505165

>  <minimizedRMSD>
0.772208869

$$$$
