
 OpenBabel03252509313D

 22 22  0  0  0  0  0  0  0  0999 V2000
   46.8610   34.8070   41.9980 C   0  0  0  0  0  0  0  0  0  0  0  0
   46.1810   34.3330   41.2570 H   0  0  0  0  0  0  0  0  0  0  0  0
   47.0370   35.8370   41.6510 H   0  0  0  0  0  0  0  0  0  0  0  0
   45.5900   33.9600   45.4040 C   0  0  0  0  0  0  0  0  0  0  0  0
   46.3120   33.8840   44.1970 C   0  0  0  0  0  0  0  0  0  0  0  0
   46.1150   34.8730   43.2610 C   0  0  0  0  0  0  0  0  0  0  0  0
   45.2280   35.8950   43.5280 N   0  0  0  0  0  0  0  0  0  0  0  0
   44.5460   35.9350   44.7110 C   0  0  0  0  0  0  0  0  0  0  0  0
   44.7340   34.9800   45.6180 N   0  0  0  0  0  0  0  0  0  0  0  0
   45.6890   33.2290   46.1830 H   0  0  0  0  0  0  0  0  0  0  0  0
   46.9710   33.0550   44.0890 H   0  0  0  0  0  0  0  0  0  0  0  0
   43.8850   36.7930   44.7860 H   0  0  0  0  0  0  0  0  0  0  0  0
   48.0200   34.0450   42.1320 O   0  0  0  0  0  0  0  0  0  0  0  0
   47.3900   32.2950   40.2960 O   0  0  0  0  0  0  0  0  0  0  0  0
   48.3600   33.4060   40.6020 P   0  0  2  0  0  0  0  0  0  0  0  0
   49.9700   32.8780   40.6440 O   0  0  0  0  0  0  0  0  0  0  0  0
   50.0630   31.9250   40.3690 H   0  0  0  0  0  0  0  0  0  0  0  0
   48.1760   34.6190   39.4570 O   0  0  0  0  0  0  0  0  0  0  0  0
   48.1380   34.0830   38.1630 C   0  0  0  0  0  0  0  0  0  0  0  0
   48.4800   35.0790   37.2670 F   0  0  0  0  0  0  0  0  0  0  0  0
   46.8390   33.6440   37.8860 F   0  0  0  0  0  0  0  0  0  0  0  0
   48.9850   33.0170   38.0620 F   0  0  0  0  0  0  0  0  0  0  0  0
  1 13  1  0  0  0  0
  1  6  1  0  0  0  0
  2  1  1  0  0  0  0
  3  1  1  0  0  0  0
  4  9  1  0  0  0  0
  4 10  1  0  0  0  0
  5  4  2  0  0  0  0
  6  7  2  0  0  0  0
  6  5  1  0  0  0  0
  7  8  1  0  0  0  0
  8 12  1  0  0  0  0
  8  9  2  0  0  0  0
 11  5  1  0  0  0  0
 15 14  2  6  0  0  0
 15 16  1  0  0  0  0
 15 13  1  0  0  0  0
 17 16  1  0  0  0  0
 18 15  1  0  0  0  0
 19 18  1  0  0  0  0
 20 19  1  0  0  0  0
 21 19  1  0  0  0  0
 22 19  1  0  0  0  0
M  END
>  <minimizedAffinity>
-4.33941889

>  <minimizedRMSD>
2.15494204

$$$$
