
 OpenBabel03252509313D

 22 22  0  0  0  0  0  0  0  0999 V2000
   46.5150   34.1900   42.3510 C   0  0  0  0  0  0  0  0  0  0  0  0
   46.1810   33.1640   42.0870 H   0  0  0  0  0  0  0  0  0  0  0  0
   46.1360   34.8580   41.5610 H   0  0  0  0  0  0  0  0  0  0  0  0
   45.3270   34.0480   45.8870 C   0  0  0  0  0  0  0  0  0  0  0  0
   45.9830   33.7030   44.6900 C   0  0  0  0  0  0  0  0  0  0  0  0
   45.8360   34.5380   43.6060 C   0  0  0  0  0  0  0  0  0  0  0  0
   45.0590   35.6720   43.7220 N   0  0  0  0  0  0  0  0  0  0  0  0
   44.4370   35.9730   44.8990 C   0  0  0  0  0  0  0  0  0  0  0  0
   44.5780   35.1680   45.9500 N   0  0  0  0  0  0  0  0  0  0  0  0
   45.3930   33.4510   46.7750 H   0  0  0  0  0  0  0  0  0  0  0  0
   46.5580   32.8070   44.7050 H   0  0  0  0  0  0  0  0  0  0  0  0
   43.8610   36.8920   44.8480 H   0  0  0  0  0  0  0  0  0  0  0  0
   47.9000   34.2140   42.5000 O   0  0  0  0  0  0  0  0  0  0  0  0
   49.6140   33.2320   40.7880 O   0  0  0  0  0  0  0  0  0  0  0  0
   48.5540   34.2900   40.9410 P   0  0  2  0  0  0  0  0  0  0  0  0
   49.1630   35.8600   40.7470 O   0  0  0  0  0  0  0  0  0  0  0  0
   50.1190   35.8630   40.4670 H   0  0  0  0  0  0  0  0  0  0  0  0
   47.3320   33.9990   39.8280 O   0  0  0  0  0  0  0  0  0  0  0  0
   47.8520   33.8880   38.5310 C   0  0  0  0  0  0  0  0  0  0  0  0
   48.6680   32.7720   38.4810 F   0  0  0  0  0  0  0  0  0  0  0  0
   48.6160   35.0270   38.2440 F   0  0  0  0  0  0  0  0  0  0  0  0
   46.8430   33.8040   37.6160 F   0  0  0  0  0  0  0  0  0  0  0  0
  1 13  1  0  0  0  0
  1  6  1  0  0  0  0
  2  1  1  0  0  0  0
  3  1  1  0  0  0  0
  4  9  1  0  0  0  0
  4 10  1  0  0  0  0
  5 11  1  0  0  0  0
  5  4  2  0  0  0  0
  6  7  2  0  0  0  0
  6  5  1  0  0  0  0
  7  8  1  0  0  0  0
  8  9  2  0  0  0  0
 12  8  1  0  0  0  0
 15 14  2  6  0  0  0
 15 13  1  0  0  0  0
 16 15  1  0  0  0  0
 17 16  1  0  0  0  0
 18 15  1  0  0  0  0
 19 18  1  0  0  0  0
 20 19  1  0  0  0  0
 21 19  1  0  0  0  0
 22 19  1  0  0  0  0
M  END
>  <minimizedAffinity>
-4.17040157

>  <minimizedRMSD>
1.84467697

$$$$
