
 OpenBabel03252509313D

 22 22  0  0  0  0  0  0  0  0999 V2000
   46.5160   34.1920   42.3600 C   0  0  0  0  0  0  0  0  0  0  0  0
   46.1900   33.1620   42.1010 H   0  0  0  0  0  0  0  0  0  0  0  0
   46.1310   34.8540   41.5680 H   0  0  0  0  0  0  0  0  0  0  0  0
   45.3240   34.0500   45.8940 C   0  0  0  0  0  0  0  0  0  0  0  0
   45.9810   33.7050   44.6980 C   0  0  0  0  0  0  0  0  0  0  0  0
   45.8350   34.5400   43.6150 C   0  0  0  0  0  0  0  0  0  0  0  0
   45.0590   35.6740   43.7290 N   0  0  0  0  0  0  0  0  0  0  0  0
   44.4360   35.9750   44.9060 C   0  0  0  0  0  0  0  0  0  0  0  0
   44.5750   35.1710   45.9570 N   0  0  0  0  0  0  0  0  0  0  0  0
   45.3880   33.4520   46.7830 H   0  0  0  0  0  0  0  0  0  0  0  0
   46.5560   32.8090   44.7140 H   0  0  0  0  0  0  0  0  0  0  0  0
   43.8600   36.8940   44.8540 H   0  0  0  0  0  0  0  0  0  0  0  0
   47.9010   34.2270   42.5070 O   0  0  0  0  0  0  0  0  0  0  0  0
   49.6050   33.2430   40.7870 O   0  0  0  0  0  0  0  0  0  0  0  0
   48.5520   34.3080   40.9470 P   0  0  2  0  0  0  0  0  0  0  0  0
   49.1730   35.8750   40.7610 O   0  0  0  0  0  0  0  0  0  0  0  0
   50.1280   35.8720   40.4800 H   0  0  0  0  0  0  0  0  0  0  0  0
   47.3260   34.0330   39.8350 O   0  0  0  0  0  0  0  0  0  0  0  0
   47.8480   33.8790   38.5440 C   0  0  0  0  0  0  0  0  0  0  0  0
   48.5830   35.0080   38.2330 F   0  0  0  0  0  0  0  0  0  0  0  0
   46.7910   33.7550   37.6350 F   0  0  0  0  0  0  0  0  0  0  0  0
   48.6170   32.7530   38.4700 F   0  0  0  0  0  0  0  0  0  0  0  0
  1 13  1  0  0  0  0
  1  6  1  0  0  0  0
  2  1  1  0  0  0  0
  3  1  1  0  0  0  0
  4  9  1  0  0  0  0
  4 10  1  0  0  0  0
  5 11  1  0  0  0  0
  5  4  2  0  0  0  0
  6  7  2  0  0  0  0
  6  5  1  0  0  0  0
  7  8  1  0  0  0  0
  8  9  2  0  0  0  0
 12  8  1  0  0  0  0
 15 14  2  6  0  0  0
 15 13  1  0  0  0  0
 16 15  1  0  0  0  0
 17 16  1  0  0  0  0
 18 15  1  0  0  0  0
 19 18  1  0  0  0  0
 20 19  1  0  0  0  0
 21 19  1  0  0  0  0
 22 19  1  0  0  0  0
M  END
>  <minimizedAffinity>
-4.16492653

>  <minimizedRMSD>
1.84864295

$$$$
