
 OpenBabel03252509313D

 22 22  0  0  0  0  0  0  0  0999 V2000
   46.4820   34.1180   42.2930 C   0  0  0  0  0  0  0  0  0  0  0  0
   46.1590   33.0800   42.0640 H   0  0  0  0  0  0  0  0  0  0  0  0
   46.0770   34.7590   41.4940 H   0  0  0  0  0  0  0  0  0  0  0  0
   45.3440   34.0390   45.8470 C   0  0  0  0  0  0  0  0  0  0  0  0
   45.9820   33.6720   44.6470 C   0  0  0  0  0  0  0  0  0  0  0  0
   45.8220   34.4890   43.5520 C   0  0  0  0  0  0  0  0  0  0  0  0
   45.0510   35.6270   43.6600 N   0  0  0  0  0  0  0  0  0  0  0  0
   44.4470   35.9510   44.8410 C   0  0  0  0  0  0  0  0  0  0  0  0
   44.6000   35.1630   45.9030 N   0  0  0  0  0  0  0  0  0  0  0  0
   45.4200   33.4560   46.7440 H   0  0  0  0  0  0  0  0  0  0  0  0
   46.5540   32.7740   44.6690 H   0  0  0  0  0  0  0  0  0  0  0  0
   43.8730   36.8700   44.7820 H   0  0  0  0  0  0  0  0  0  0  0  0
   47.8690   34.1680   42.4140 O   0  0  0  0  0  0  0  0  0  0  0  0
   49.5280   33.1720   40.6560 O   0  0  0  0  0  0  0  0  0  0  0  0
   48.4900   34.2480   40.8410 P   0  0  2  0  0  0  0  0  0  0  0  0
   49.1220   35.8090   40.6490 O   0  0  0  0  0  0  0  0  0  0  0  0
   50.0720   35.7970   40.3480 H   0  0  0  0  0  0  0  0  0  0  0  0
   47.2380   33.9900   39.7530 O   0  0  0  0  0  0  0  0  0  0  0  0
   47.7340   33.8200   38.4530 C   0  0  0  0  0  0  0  0  0  0  0  0
   48.5350   34.9050   38.1450 F   0  0  0  0  0  0  0  0  0  0  0  0
   46.6600   33.7740   37.5560 F   0  0  0  0  0  0  0  0  0  0  0  0
   48.4290   32.6490   38.3560 F   0  0  0  0  0  0  0  0  0  0  0  0
  1 13  1  0  0  0  0
  1  6  1  0  0  0  0
  2  1  1  0  0  0  0
  3  1  1  0  0  0  0
  4  9  1  0  0  0  0
  4 10  1  0  0  0  0
  5 11  1  0  0  0  0
  5  4  2  0  0  0  0
  6  7  2  0  0  0  0
  6  5  1  0  0  0  0
  7  8  1  0  0  0  0
  8  9  2  0  0  0  0
 12  8  1  0  0  0  0
 15 14  2  6  0  0  0
 15 13  1  0  0  0  0
 16 15  1  0  0  0  0
 17 16  1  0  0  0  0
 18 15  1  0  0  0  0
 19 18  1  0  0  0  0
 20 19  1  0  0  0  0
 21 19  1  0  0  0  0
 22 19  1  0  0  0  0
M  END
>  <minimizedAffinity>
-4.13845015

>  <minimizedRMSD>
1.96528304

$$$$
