
 OpenBabel03252500543D

 25 25  0  0  0  0  0  0  0  0999 V2000
   46.2220   34.2450   42.1540 C   0  0  0  0  0  0  0  0  0  0  0  0
   45.0360   34.8130   42.6120 C   0  0  0  0  0  0  0  0  0  0  0  0
   44.8020   34.7620   44.0000 C   0  0  0  0  0  0  0  0  0  0  0  0
   45.7250   34.1770   44.7830 N   0  0  0  0  0  0  0  0  0  0  0  0
   46.8580   33.6390   44.3150 C   0  0  0  0  0  0  0  0  0  0  0  0
   47.0920   33.6800   43.0010 N   0  0  0  0  0  0  0  0  0  0  0  0
   43.8770   35.2110   44.3170 H   0  0  0  0  0  0  0  0  0  0  0  0
   47.5030   33.2060   45.0470 H   0  0  0  0  0  0  0  0  0  0  0  0
   46.5480   34.2510   40.7380 C   0  0  0  0  0  0  0  0  0  0  0  0
   45.9340   35.0110   40.2000 H   0  0  0  0  0  0  0  0  0  0  0  0
   46.3110   33.2920   40.2290 H   0  0  0  0  0  0  0  0  0  0  0  0
   47.9880   34.6540   40.5470 C   0  0  0  0  0  0  0  0  0  0  0  0
   48.4930   34.7810   41.5450 H   0  0  0  0  0  0  0  0  0  0  0  0
   48.5370   33.7900   40.0770 H   0  0  0  0  0  0  0  0  0  0  0  0
   48.1110   35.5750   39.9680 H   0  0  0  0  0  0  0  0  0  0  0  0
   44.2130   35.3670   41.6550 O   0  0  0  0  0  0  0  0  0  0  0  0
   42.4460   33.4470   41.4080 O   0  0  0  0  0  0  0  0  0  0  0  0
   42.6090   34.9580   41.3600 P   0  0  1  0  0  0  0  0  0  0  0  0
   41.6500   35.6640   42.5680 O   0  0  0  0  0  0  0  0  0  0  0  0
   42.1320   36.4040   43.0310 H   0  0  0  0  0  0  0  0  0  0  0  0
   42.0380   35.5300   39.8540 O   0  0  0  0  0  0  0  0  0  0  0  0
   40.6520   35.5640   39.8050 C   0  0  0  0  0  0  0  0  0  0  0  0
   40.2220   35.4320   38.5010 F   0  0  0  0  0  0  0  0  0  0  0  0
   40.0850   34.5300   40.5230 F   0  0  0  0  0  0  0  0  0  0  0  0
   40.2480   36.7250   40.3930 F   0  0  0  0  0  0  0  0  0  0  0  0
  1  2  2  0  0  0  0
  1  6  1  0  0  0  0
  2  3  1  0  0  0  0
  3  7  1  0  0  0  0
  3  4  2  0  0  0  0
  5  4  1  0  0  0  0
  5  8  1  0  0  0  0
  6  5  2  0  0  0  0
  9  1  1  0  0  0  0
 10  9  1  0  0  0  0
 11  9  1  0  0  0  0
 12  9  1  0  0  0  0
 12 13  1  0  0  0  0
 14 12  1  0  0  0  0
 15 12  1  0  0  0  0
 16  2  1  0  0  0  0
 18 17  2  1  0  0  0
 18 16  1  0  0  0  0
 18 19  1  0  0  0  0
 19 20  1  0  0  0  0
 21 18  1  0  0  0  0
 22 21  1  0  0  0  0
 22 25  1  0  0  0  0
 22 24  1  0  0  0  0
 23 22  1  0  0  0  0
M  END
>  <minimizedAffinity>
-4.76042604

>  <minimizedRMSD>
2.23984957

$$$$
