
 OpenBabel03252501063D

 35 37  0  0  1  0  0  0  0  0999 V2000
   48.5160   32.4000   37.9880 O   0  0  0  0  0  0  0  0  0  0  0  0
   48.1030   33.8510   38.2340 P   0  0  2  0  0  0  0  0  0  0  0  0
   49.3530   34.7880   37.5750 O   0  0  0  0  0  0  0  0  0  0  0  0
   50.1910   34.2790   37.4400 H   0  0  0  0  0  0  0  0  0  0  0  0
   47.7810   34.1480   39.8090 O   0  0  0  0  0  0  0  0  0  0  0  0
   48.1040   35.4790   41.8030 C   0  0  1  0  0  0  0  0  0  0  0  0
   49.3420   34.6990   41.6850 C   0  0  0  0  0  0  0  0  0  0  0  0
   48.5030   35.0810   40.4540 C   0  0  1  0  0  0  0  0  0  0  0  0
   48.0550   36.5560   42.0360 H   0  0  0  0  0  0  0  0  0  0  0  0
   49.3410   33.6150   41.8520 H   0  0  0  0  0  0  0  0  0  0  0  0
   50.2740   35.2520   41.8820 H   0  0  0  0  0  0  0  0  0  0  0  0
   49.0560   35.7940   39.8160 H   0  0  0  0  0  0  0  0  0  0  0  0
   46.0760   32.9450   43.7590 C   0  0  0  0  0  0  0  0  0  0  0  0
   47.1690   33.6220   43.2320 C   0  0  0  0  0  0  0  0  0  0  0  0
   46.9420   34.7360   42.3990 C   0  0  0  0  0  0  0  0  0  0  0  0
   45.6630   35.1160   42.1300 N   0  0  0  0  0  0  0  0  0  0  0  0
   44.6130   34.4330   42.6600 C   0  0  0  0  0  0  0  0  0  0  0  0
   44.8180   33.3530   43.4700 N   0  0  0  0  0  0  0  0  0  0  0  0
   46.2540   32.1040   44.3890 H   0  0  0  0  0  0  0  0  0  0  0  0
   48.1500   33.2900   43.4690 H   0  0  0  0  0  0  0  0  0  0  0  0
   43.5980   34.7380   42.4440 H   0  0  0  0  0  0  0  0  0  0  0  0
   46.7410   34.0810   37.2780 O   0  0  0  0  0  0  0  0  0  0  0  0
   45.7840   33.1060   37.0410 C   0  0  0  0  0  0  0  0  0  0  0  0
   45.6470   32.3010   35.9230 C   0  0  0  0  0  0  0  0  0  0  0  0
   44.6440   31.3780   35.8360 C   0  0  0  0  0  0  0  0  0  0  0  0
   43.7410   31.2300   36.8680 C   0  0  0  0  0  0  0  0  0  0  0  0
   43.9140   32.0620   37.9780 C   0  0  0  0  0  0  0  0  0  0  0  0
   44.9180   32.9720   38.0420 N   0  0  0  0  0  0  0  0  0  0  0  0
   46.3950   32.4770   35.1570 H   0  0  0  0  0  0  0  0  0  0  0  0
   44.5650   30.7630   34.9440 H   0  0  0  0  0  0  0  0  0  0  0  0
   42.9360   30.5200   36.8460 H   0  0  0  0  0  0  0  0  0  0  0  0
   42.9420   31.9050   39.0920 C   0  0  0  0  0  0  0  0  0  0  0  0
   43.3730   30.8920   39.8950 F   0  0  0  0  0  0  0  0  0  0  0  0
   43.0050   33.0920   39.8290 F   0  0  0  0  0  0  0  0  0  0  0  0
   41.6500   31.7550   38.6300 F   0  0  0  0  0  0  0  0  0  0  0  0
  2  1  2  6  0  0  0
  2  5  1  0  0  0  0
  3  2  1  0  0  0  0
  4  3  1  0  0  0  0
  5  8  1  0  0  0  0
  6  9  1  1  0  0  0
  6 15  1  0  0  0  0
  7  6  1  0  0  0  0
  7 10  1  0  0  0  0
  7 11  1  0  0  0  0
  8 12  1  6  0  0  0
  8  7  1  0  0  0  0
  8  6  1  0  0  0  0
 13 19  1  0  0  0  0
 14 20  1  0  0  0  0
 14 13  2  0  0  0  0
 15 14  1  0  0  0  0
 16 15  2  0  0  0  0
 16 17  1  0  0  0  0
 17 18  2  0  0  0  0
 18 13  1  0  0  0  0
 21 17  1  0  0  0  0
 22  2  1  0  0  0  0
 23 22  1  0  0  0  0
 23 28  1  0  0  0  0
 24 23  2  0  0  0  0
 25 24  1  0  0  0  0
 25 26  2  0  0  0  0
 26 27  1  0  0  0  0
 27 28  2  0  0  0  0
 27 32  1  0  0  0  0
 29 24  1  0  0  0  0
 30 25  1  0  0  0  0
 31 26  1  0  0  0  0
 32 34  1  0  0  0  0
 32 33  1  0  0  0  0
 35 32  1  0  0  0  0
M  END
>  <minimizedAffinity>
-4.4532671

>  <minimizedRMSD>
0.0376022346

$$$$
