
 OpenBabel03252501063D

 35 37  0  0  1  0  0  0  0  0999 V2000
   48.9760   32.4230   38.0300 O   0  0  0  0  0  0  0  0  0  0  0  0
   48.1940   33.7110   38.2830 P   0  0  2  0  0  0  0  0  0  0  0  0
   49.1200   34.9420   37.5730 O   0  0  0  0  0  0  0  0  0  0  0  0
   50.0600   34.6770   37.4100 H   0  0  0  0  0  0  0  0  0  0  0  0
   47.8560   33.9350   39.8670 O   0  0  0  0  0  0  0  0  0  0  0  0
   47.8540   35.4040   41.7890 C   0  0  1  0  0  0  0  0  0  0  0  0
   49.1720   34.7580   41.8300 C   0  0  0  0  0  0  0  0  0  0  0  0
   48.4150   34.9760   40.5080 C   0  0  1  0  0  0  0  0  0  0  0  0
   47.6730   36.4810   41.9460 H   0  0  0  0  0  0  0  0  0  0  0  0
   49.2680   33.6910   42.0670 H   0  0  0  0  0  0  0  0  0  0  0  0
   50.0200   35.4190   42.0690 H   0  0  0  0  0  0  0  0  0  0  0  0
   48.9490   35.7080   39.8750 H   0  0  0  0  0  0  0  0  0  0  0  0
   45.8990   32.9010   43.8560 C   0  0  0  0  0  0  0  0  0  0  0  0
   46.9590   33.6670   43.3840 C   0  0  0  0  0  0  0  0  0  0  0  0
   46.7260   34.5740   42.3310 C   0  0  0  0  0  0  0  0  0  0  0  0
   45.4750   34.6740   41.8040 N   0  0  0  0  0  0  0  0  0  0  0  0
   44.4580   33.9120   42.2860 C   0  0  0  0  0  0  0  0  0  0  0  0
   44.6680   33.0290   43.3080 N   0  0  0  0  0  0  0  0  0  0  0  0
   46.0810   32.2180   44.6530 H   0  0  0  0  0  0  0  0  0  0  0  0
   47.9180   33.5550   43.8250 H   0  0  0  0  0  0  0  0  0  0  0  0
   43.4650   33.9940   41.8650 H   0  0  0  0  0  0  0  0  0  0  0  0
   46.7890   33.5500   37.3760 O   0  0  0  0  0  0  0  0  0  0  0  0
   45.6660   32.8540   37.8000 C   0  0  0  0  0  0  0  0  0  0  0  0
   45.4810   31.4830   37.8430 C   0  0  0  0  0  0  0  0  0  0  0  0
   44.3080   30.9440   38.2890 C   0  0  0  0  0  0  0  0  0  0  0  0
   43.2780   31.7610   38.7070 C   0  0  0  0  0  0  0  0  0  0  0  0
   43.5060   33.1380   38.6460 C   0  0  0  0  0  0  0  0  0  0  0  0
   44.6800   33.6520   38.2000 N   0  0  0  0  0  0  0  0  0  0  0  0
   46.3350   30.9100   37.4990 H   0  0  0  0  0  0  0  0  0  0  0  0
   44.1960   29.8630   38.3100 H   0  0  0  0  0  0  0  0  0  0  0  0
   42.3390   31.3840   39.0650 H   0  0  0  0  0  0  0  0  0  0  0  0
   42.3990   34.0220   39.0960 C   0  0  0  0  0  0  0  0  0  0  0  0
   41.4820   34.1050   38.0900 F   0  0  0  0  0  0  0  0  0  0  0  0
   41.7930   33.3670   40.1730 F   0  0  0  0  0  0  0  0  0  0  0  0
   42.8640   35.2420   39.5440 F   0  0  0  0  0  0  0  0  0  0  0  0
  2  1  2  6  0  0  0
  2  5  1  0  0  0  0
  3  2  1  0  0  0  0
  4  3  1  0  0  0  0
  5  8  1  0  0  0  0
  6  7  1  0  0  0  0
  6  9  1  1  0  0  0
  6 15  1  0  0  0  0
  7 10  1  0  0  0  0
  7 11  1  0  0  0  0
  8 12  1  6  0  0  0
  8  6  1  0  0  0  0
  8  7  1  0  0  0  0
 13 19  1  0  0  0  0
 14 20  1  0  0  0  0
 14 13  1  0  0  0  0
 15 14  2  0  0  0  0
 16 17  2  0  0  0  0
 16 15  1  0  0  0  0
 17 18  1  0  0  0  0
 18 13  2  0  0  0  0
 21 17  1  0  0  0  0
 22 23  1  0  0  0  0
 22  2  1  0  0  0  0
 23 24  2  0  0  0  0
 23 28  1  0  0  0  0
 24 25  1  0  0  0  0
 25 30  1  0  0  0  0
 25 26  2  0  0  0  0
 26 31  1  0  0  0  0
 27 26  1  0  0  0  0
 27 32  1  0  0  0  0
 28 27  2  0  0  0  0
 29 24  1  0  0  0  0
 32 35  1  0  0  0  0
 32 34  1  0  0  0  0
 33 32  1  0  0  0  0
M  END
>  <minimizedAffinity>
-4.66341019

>  <minimizedRMSD>
1.41955113

$$$$
