
 OpenBabel03252501063D

 35 37  0  0  1  0  0  0  0  0999 V2000
   48.7110   32.3240   38.0400 O   0  0  0  0  0  0  0  0  0  0  0  0
   48.1340   33.7290   38.2050 P   0  0  2  0  0  0  0  0  0  0  0  0
   49.3050   34.7710   37.5570 O   0  0  0  0  0  0  0  0  0  0  0  0
   50.1990   34.3510   37.4800 H   0  0  0  0  0  0  0  0  0  0  0  0
   47.7090   34.0510   39.7500 O   0  0  0  0  0  0  0  0  0  0  0  0
   47.9210   35.3860   41.7570 C   0  0  1  0  0  0  0  0  0  0  0  0
   49.1850   34.6410   41.6830 C   0  0  0  0  0  0  0  0  0  0  0  0
   48.3800   35.0020   40.4220 C   0  0  1  0  0  0  0  0  0  0  0  0
   47.8330   36.4600   41.9900 H   0  0  0  0  0  0  0  0  0  0  0  0
   49.2090   33.5570   41.8470 H   0  0  0  0  0  0  0  0  0  0  0  0
   50.0920   35.2200   41.9150 H   0  0  0  0  0  0  0  0  0  0  0  0
   48.9360   35.7330   39.8060 H   0  0  0  0  0  0  0  0  0  0  0  0
   45.8840   32.9070   43.7740 C   0  0  0  0  0  0  0  0  0  0  0  0
   46.9750   33.6210   43.2910 C   0  0  0  0  0  0  0  0  0  0  0  0
   46.7600   34.6080   42.3090 C   0  0  0  0  0  0  0  0  0  0  0  0
   45.4960   34.8340   41.8570 N   0  0  0  0  0  0  0  0  0  0  0  0
   44.4490   34.1190   42.3490 C   0  0  0  0  0  0  0  0  0  0  0  0
   44.6410   33.1610   43.3020 N   0  0  0  0  0  0  0  0  0  0  0  0
   46.0530   32.1630   44.5180 H   0  0  0  0  0  0  0  0  0  0  0  0
   47.9430   33.4110   43.6720 H   0  0  0  0  0  0  0  0  0  0  0  0
   43.4450   34.3020   41.9880 H   0  0  0  0  0  0  0  0  0  0  0  0
   46.8010   33.7720   37.1830 O   0  0  0  0  0  0  0  0  0  0  0  0
   45.6480   33.0260   37.3790 C   0  0  0  0  0  0  0  0  0  0  0  0
   45.4000   31.7220   36.9840 C   0  0  0  0  0  0  0  0  0  0  0  0
   44.2040   31.1200   37.2520 C   0  0  0  0  0  0  0  0  0  0  0  0
   43.2130   31.8040   37.9240 C   0  0  0  0  0  0  0  0  0  0  0  0
   43.5030   33.1170   38.3040 C   0  0  0  0  0  0  0  0  0  0  0  0
   44.6990   33.6960   38.0280 N   0  0  0  0  0  0  0  0  0  0  0  0
   46.2270   31.2540   36.4620 H   0  0  0  0  0  0  0  0  0  0  0  0
   44.0420   30.0960   36.9280 H   0  0  0  0  0  0  0  0  0  0  0  0
   42.2570   31.3740   38.1570 H   0  0  0  0  0  0  0  0  0  0  0  0
   42.4370   33.8580   39.0290 C   0  0  0  0  0  0  0  0  0  0  0  0
   41.3610   33.9780   38.2010 F   0  0  0  0  0  0  0  0  0  0  0  0
   42.0620   33.0440   40.1030 F   0  0  0  0  0  0  0  0  0  0  0  0
   42.8990   35.0540   39.5400 F   0  0  0  0  0  0  0  0  0  0  0  0
  2  1  2  6  0  0  0
  2  5  1  0  0  0  0
  3  2  1  0  0  0  0
  4  3  1  0  0  0  0
  5  8  1  0  0  0  0
  6  9  1  1  0  0  0
  6 15  1  0  0  0  0
  7  6  1  0  0  0  0
  7 10  1  0  0  0  0
  7 11  1  0  0  0  0
  8 12  1  6  0  0  0
  8  7  1  0  0  0  0
  8  6  1  0  0  0  0
 13 19  1  0  0  0  0
 14 20  1  0  0  0  0
 14 13  2  0  0  0  0
 15 14  1  0  0  0  0
 16 15  2  0  0  0  0
 16 17  1  0  0  0  0
 17 18  2  0  0  0  0
 18 13  1  0  0  0  0
 21 17  1  0  0  0  0
 22 23  1  0  0  0  0
 22  2  1  0  0  0  0
 23 28  1  0  0  0  0
 24 25  1  0  0  0  0
 24 23  2  0  0  0  0
 25 26  2  0  0  0  0
 26 31  1  0  0  0  0
 26 27  1  0  0  0  0
 27 32  1  0  0  0  0
 28 27  2  0  0  0  0
 29 24  1  0  0  0  0
 30 25  1  0  0  0  0
 32 35  1  0  0  0  0
 32 34  1  0  0  0  0
 33 32  1  0  0  0  0
M  END
>  <minimizedAffinity>
-4.67941093

>  <minimizedRMSD>
1.1389004

$$$$
