
 OpenBabel03252501053D

 35 37  0  0  1  0  0  0  0  0999 V2000
   48.5580   32.3630   38.1070 O   0  0  0  0  0  0  0  0  0  0  0  0
   48.0830   33.8080   38.2500 P   0  0  2  0  0  0  0  0  0  0  0  0
   49.3180   34.7520   37.5730 O   0  0  0  0  0  0  0  0  0  0  0  0
   50.1790   34.2690   37.4960 H   0  0  0  0  0  0  0  0  0  0  0  0
   47.6980   34.1880   39.7930 O   0  0  0  0  0  0  0  0  0  0  0  0
   48.0890   35.4580   41.8150 C   0  0  1  0  0  0  0  0  0  0  0  0
   49.3090   34.6560   41.6500 C   0  0  0  0  0  0  0  0  0  0  0  0
   48.4520   35.0880   40.4470 C   0  0  1  0  0  0  0  0  0  0  0  0
   48.0680   36.5290   42.0770 H   0  0  0  0  0  0  0  0  0  0  0  0
   49.2890   33.5680   41.7870 H   0  0  0  0  0  0  0  0  0  0  0  0
   50.2560   35.1850   41.8410 H   0  0  0  0  0  0  0  0  0  0  0  0
   49.0060   35.8080   39.8170 H   0  0  0  0  0  0  0  0  0  0  0  0
   46.0530   32.9280   43.7670 C   0  0  0  0  0  0  0  0  0  0  0  0
   47.1480   33.5980   43.2360 C   0  0  0  0  0  0  0  0  0  0  0  0
   46.9250   34.7210   42.4150 C   0  0  0  0  0  0  0  0  0  0  0  0
   45.6480   35.1180   42.1620 N   0  0  0  0  0  0  0  0  0  0  0  0
   44.5960   34.4420   42.6960 C   0  0  0  0  0  0  0  0  0  0  0  0
   44.7960   33.3520   43.4940 N   0  0  0  0  0  0  0  0  0  0  0  0
   46.2270   32.0800   44.3880 H   0  0  0  0  0  0  0  0  0  0  0  0
   48.1270   33.2530   43.4600 H   0  0  0  0  0  0  0  0  0  0  0  0
   43.5820   34.7610   42.4930 H   0  0  0  0  0  0  0  0  0  0  0  0
   46.7460   33.9270   37.2400 O   0  0  0  0  0  0  0  0  0  0  0  0
   45.7050   33.0100   37.2190 C   0  0  0  0  0  0  0  0  0  0  0  0
   45.6380   31.8130   36.5270 C   0  0  0  0  0  0  0  0  0  0  0  0
   44.5350   31.0120   36.6070 C   0  0  0  0  0  0  0  0  0  0  0  0
   43.4570   31.3850   37.3840 C   0  0  0  0  0  0  0  0  0  0  0  0
   43.5650   32.6000   38.0650 C   0  0  0  0  0  0  0  0  0  0  0  0
   44.6710   33.3800   37.9710 N   0  0  0  0  0  0  0  0  0  0  0  0
   46.5230   31.5910   35.9400 H   0  0  0  0  0  0  0  0  0  0  0  0
   44.5150   30.0790   36.0510 H   0  0  0  0  0  0  0  0  0  0  0  0
   42.5680   30.7900   37.4790 H   0  0  0  0  0  0  0  0  0  0  0  0
   42.4050   33.0050   38.9030 C   0  0  0  0  0  0  0  0  0  0  0  0
   41.5150   33.6660   38.1110 F   0  0  0  0  0  0  0  0  0  0  0  0
   41.8010   31.8170   39.3270 F   0  0  0  0  0  0  0  0  0  0  0  0
   42.8020   33.7060   40.0250 F   0  0  0  0  0  0  0  0  0  0  0  0
  2  1  2  6  0  0  0
  2  5  1  0  0  0  0
  3  2  1  0  0  0  0
  4  3  1  0  0  0  0
  5  8  1  0  0  0  0
  6  9  1  1  0  0  0
  6 15  1  0  0  0  0
  7 10  1  0  0  0  0
  7  6  1  0  0  0  0
  7 11  1  0  0  0  0
  8 12  1  6  0  0  0
  8  7  1  0  0  0  0
  8  6  1  0  0  0  0
 13 19  1  0  0  0  0
 14 20  1  0  0  0  0
 14 13  2  0  0  0  0
 15 14  1  0  0  0  0
 16 15  2  0  0  0  0
 16 17  1  0  0  0  0
 17 18  2  0  0  0  0
 18 13  1  0  0  0  0
 21 17  1  0  0  0  0
 22  2  1  0  0  0  0
 23 22  1  0  0  0  0
 23 28  1  0  0  0  0
 24 25  1  0  0  0  0
 24 23  2  0  0  0  0
 25 26  2  0  0  0  0
 26 31  1  0  0  0  0
 26 27  1  0  0  0  0
 27 32  1  0  0  0  0
 28 27  2  0  0  0  0
 29 24  1  0  0  0  0
 30 25  1  0  0  0  0
 32 34  1  0  0  0  0
 32 35  1  0  0  0  0
 33 32  1  0  0  0  0
M  END
>  <minimizedAffinity>
-4.67496824

>  <minimizedRMSD>
0.709644079

$$$$
