
 OpenBabel03252509143D

 40 43  0  0  1  0  0  0  0  0999 V2000
   47.8730   32.8640   42.6300 C   0  0  0  0  0  0  0  0  0  0  0  0
   46.9010   33.4940   41.8580 C   0  0  0  0  0  0  0  0  0  0  0  0
   45.7980   34.1220   42.3980 C   0  0  0  0  0  0  0  0  0  0  0  0
   45.6330   34.1340   43.7920 C   0  0  0  0  0  0  0  0  0  0  0  0
   44.7240   34.6270   44.6440 N   0  0  0  0  0  0  0  0  0  0  0  0
   45.0800   34.3350   45.9090 C   0  0  0  0  0  0  0  0  0  0  0  0
   46.2270   33.6530   45.8130 N   0  0  0  0  0  0  0  0  0  0  0  0
   46.6030   33.5070   44.5290 C   0  0  0  0  0  0  0  0  0  0  0  0
   47.7250   32.8660   44.0170 C   0  0  0  0  0  0  0  0  0  0  0  0
   48.7350   32.3750   42.1760 H   0  0  0  0  0  0  0  0  0  0  0  0
   43.8900   35.1460   44.3170 H   0  0  0  0  0  0  0  0  0  0  0  0
   44.5420   34.6000   46.8310 H   0  0  0  0  0  0  0  0  0  0  0  0
   48.4560   32.3890   44.6540 H   0  0  0  0  0  0  0  0  0  0  0  0
   46.4440   32.6370   38.3210 C   0  0  0  0  0  0  0  0  0  0  0  0
   47.3520   33.4850   37.6780 C   0  0  0  0  0  0  0  0  0  0  0  0
   48.1180   34.3460   38.4650 C   0  0  0  0  0  0  0  0  0  0  0  0
   47.9510   34.3290   39.8240 N   0  0  0  0  0  0  0  0  0  0  0  0
   47.0560   33.4900   40.4060 C   0  0  0  0  0  0  0  0  0  0  0  0
   46.2820   32.6260   39.6790 N   0  0  0  0  0  0  0  0  0  0  0  0
   45.8400   31.9620   37.7380 H   0  0  0  0  0  0  0  0  0  0  0  0
   47.4610   33.4760   36.6090 H   0  0  0  0  0  0  0  0  0  0  0  0
   48.8320   35.0220   38.0520 H   0  0  0  0  0  0  0  0  0  0  0  0
   44.5720   34.9170   41.3930 S   0  0  0  0  0  0  0  0  0  0  0  0
   41.9670   35.1420   41.6590 N   0  0  0  0  0  0  0  0  0  0  0  0
   42.9610   34.1150   41.4320 C   0  0  1  0  0  0  0  0  0  0  0  0
   42.7770   33.4710   40.0570 C   0  0  0  0  0  0  0  0  0  0  0  0
   41.4570   33.2040   39.7460 O   0  0  0  0  0  0  0  0  0  0  0  0
   40.5600   33.3400   40.7860 C   0  0  0  0  0  0  0  0  0  0  0  0
   40.6410   34.7430   41.3080 C   0  0  2  0  0  0  0  0  0  0  0  0
   41.9810   35.3480   42.6970 H   0  0  0  0  0  0  0  0  0  0  0  0
   42.9220   33.3210   42.2070 H   0  0  0  0  0  0  0  0  0  0  0  0
   43.1200   34.2350   39.3220 H   0  0  0  0  0  0  0  0  0  0  0  0
   43.2810   32.5150   39.9930 H   0  0  0  0  0  0  0  0  0  0  0  0
   40.8030   32.6590   41.6220 H   0  0  0  0  0  0  0  0  0  0  0  0
   39.5620   33.1590   40.3890 H   0  0  0  0  0  0  0  0  0  0  0  0
   39.9430   34.8090   42.1790 H   0  0  0  0  0  0  0  0  0  0  0  0
   40.0760   35.7470   40.3010 C   0  0  0  0  0  0  0  0  0  0  0  0
   38.9690   35.1930   39.6890 F   0  0  0  0  0  0  0  0  0  0  0  0
   39.7500   36.9260   40.9400 F   0  0  0  0  0  0  0  0  0  0  0  0
   40.9980   35.9790   39.2820 F   0  0  0  0  0  0  0  0  0  0  0  0
  1  9  1  0  0  0  0
  2  3  1  0  0  0  0
  2  1  2  0  0  0  0
  3  4  2  0  0  0  0
  4  8  1  0  0  0  0
  4  5  1  0  0  0  0
  5  6  1  0  0  0  0
  6 12  1  0  0  0  0
  7  6  2  0  0  0  0
  8  7  1  0  0  0  0
  9  8  2  0  0  0  0
  9 13  1  0  0  0  0
 10  1  1  0  0  0  0
 11  5  1  0  0  0  0
 14 19  1  0  0  0  0
 15 14  2  0  0  0  0
 15 16  1  0  0  0  0
 16 17  2  0  0  0  0
 17 18  1  0  0  0  0
 18  2  1  0  0  0  0
 19 18  2  0  0  0  0
 20 14  1  0  0  0  0
 21 15  1  0  0  0  0
 22 16  1  0  0  0  0
 23 25  1  0  0  0  0
 23  3  1  0  0  0  0
 24 30  1  0  0  0  0
 25 24  1  0  0  0  0
 25 31  1  1  0  0  0
 26 25  1  0  0  0  0
 27 26  1  0  0  0  0
 27 28  1  0  0  0  0
 28 29  1  0  0  0  0
 28 34  1  0  0  0  0
 29 24  1  0  0  0  0
 29 36  1  1  0  0  0
 32 26  1  0  0  0  0
 33 26  1  0  0  0  0
 35 28  1  0  0  0  0
 37 39  1  0  0  0  0
 37 29  1  0  0  0  0
 38 37  1  0  0  0  0
 40 37  1  0  0  0  0
M  END
>  <minimizedAffinity>
-6.55889225

>  <minimizedRMSD>
1.86105227

$$$$
