
 OpenBabel03252506313D

 27 28  0  0  1  0  0  0  0  0999 V2000
   44.5420   35.8040   44.9500 C   0  0  0  0  0  0  0  0  0  0  0  0
   44.7810   35.5420   43.5910 C   0  0  0  0  0  0  0  0  0  0  0  0
   45.3230   34.3340   43.2290 C   0  0  0  0  0  0  0  0  0  0  0  0
   45.5930   33.4690   44.2370 N   0  0  0  0  0  0  0  0  0  0  0  0
   45.3670   33.7180   45.5230 C   0  0  0  0  0  0  0  0  0  0  0  0
   44.8400   34.8870   45.8910 N   0  0  0  0  0  0  0  0  0  0  0  0
   45.7020   32.7080   46.4580 N   0  0  0  0  0  0  0  0  0  0  0  0
   45.2470   32.7060   47.8500 C   0  0  0  0  0  0  0  0  0  0  0  0
   46.4700   32.2230   48.5830 C   0  0  0  0  0  0  0  0  0  0  0  0
   47.4180   31.6550   47.5330 C   0  0  0  0  0  0  0  0  0  0  0  0
   46.4870   31.5260   46.3420 C   0  0  2  0  0  0  0  0  0  0  0  0
   44.1180   36.7320   45.3030 H   0  0  0  0  0  0  0  0  0  0  0  0
   45.4930   34.1660   42.1810 H   0  0  0  0  0  0  0  0  0  0  0  0
   44.8950   33.6890   48.1870 H   0  0  0  0  0  0  0  0  0  0  0  0
   44.4800   31.9000   47.9030 H   0  0  0  0  0  0  0  0  0  0  0  0
   47.0150   33.1200   48.9990 H   0  0  0  0  0  0  0  0  0  0  0  0
   46.2610   31.5270   49.3960 H   0  0  0  0  0  0  0  0  0  0  0  0
   48.2570   32.3090   47.2990 H   0  0  0  0  0  0  0  0  0  0  0  0
   47.6850   30.6140   47.8160 H   0  0  0  0  0  0  0  0  0  0  0  0
   45.8090   30.6460   46.4610 H   0  0  0  0  0  0  0  0  0  0  0  0
   47.3000   31.3390   45.1170 C   0  0  0  0  0  0  0  0  0  0  0  0
   46.3770   30.9690   44.1120 F   0  0  0  0  0  0  0  0  0  0  0  0
   47.7990   32.5520   44.6300 F   0  0  0  0  0  0  0  0  0  0  0  0
   48.2290   30.3480   45.1660 F   0  0  0  0  0  0  0  0  0  0  0  0
   44.4180   36.6000   42.6850 N   0  0  0  0  0  0  0  0  0  0  0  0
   44.0210   36.2140   41.7920 H   0  0  0  0  0  0  0  0  0  0  0  0
   44.5470   37.5940   42.9150 H   0  0  0  0  0  0  0  0  0  0  0  0
  1 12  1  0  0  0  0
  1  6  1  0  0  0  0
  2  1  2  0  0  0  0
  3  2  1  0  0  0  0
  3  4  2  0  0  0  0
  4  5  1  0  0  0  0
  5  6  2  0  0  0  0
  5  7  1  0  0  0  0
  7  8  1  0  0  0  0
  8 15  1  0  0  0  0
  8 14  1  0  0  0  0
  8  9  1  0  0  0  0
  9 16  1  0  0  0  0
  9 17  1  0  0  0  0
 10 19  1  0  0  0  0
 10  9  1  0  0  0  0
 11  7  1  0  0  0  0
 11 20  1  1  0  0  0
 11 10  1  0  0  0  0
 13  3  1  0  0  0  0
 18 10  1  0  0  0  0
 21 24  1  0  0  0  0
 21 11  1  0  0  0  0
 22 21  1  0  0  0  0
 23 21  1  0  0  0  0
 25 27  1  0  0  0  0
 25  2  1  0  0  0  0
 26 25  1  0  0  0  0
M  END
>  <minimizedAffinity>
-4.71423578

>  <minimizedRMSD>
0.880369961

$$$$
