REMARK  Name = 
REMARK  4 active torsions:
REMARK  status: ('A' for Active; 'I' for Inactive)
REMARK    1  A    between atoms: C_2  and  C_14
REMARK    2  A    between atoms: C_3  and  S_16
REMARK    3  A    between atoms: S_16  and  C_18
REMARK    4  A    between atoms: C_22  and  C_37
REMARK                            x       y       z     vdW  Elec       q    Type
REMARK                         _______ _______ _______ _____ _____    ______ ____
ROOT
ATOM      1  C   UNL     1      47.532  32.676  44.269  0.00  0.00    +0.000 A 
ATOM      2  C   UNL     1      46.833  33.648  43.559  0.00  0.00    +0.000 A 
ATOM      3  C   UNL     1      45.783  34.365  44.095  0.00  0.00    +0.000 A 
ATOM      4  C   UNL     1      45.389  34.114  45.419  0.00  0.00    +0.000 A 
ATOM      5  N   UNL     1      44.451  34.594  46.245  0.00  0.00    +0.000 N 
ATOM      6  C   UNL     1      44.530  33.970  47.436  0.00  0.00    +0.000 A 
ATOM      7  N   UNL     1      45.537  33.097  47.320  0.00  0.00    +0.000 NA
ATOM      8  C   UNL     1      46.093  33.153  46.095  0.00  0.00    +0.000 A 
ATOM      9  C   UNL     1      47.154  32.413  45.586  0.00  0.00    +0.000 A 
ATOM     10  H   UNL     1      48.358  32.124  43.820  0.00  0.00    +0.000 HD
ATOM     11  H   UNL     1      43.790  35.336  45.954  0.00  0.00    +0.000 HD
ATOM     12  H   UNL     1      43.899  34.140  48.321  0.00  0.00    +0.000 HD
ATOM     13  H   UNL     1      47.670  31.667  46.173  0.00  0.00    +0.000 HD
ENDROOT
BRANCH   2  18
ATOM     14  C   UNL     1      47.068  33.422  39.906  0.00  0.00    +0.000 A 
ATOM     15  C   UNL     1      47.977  34.438  39.592  0.00  0.00    +0.000 A 
ATOM     16  C   UNL     1      48.505  35.195  40.639  0.00  0.00    +0.000 A 
ATOM     17  N   UNL     1      48.115  34.917  41.922  0.00  0.00    +0.000 NA
ATOM     18  C   UNL     1      47.229  33.921  42.181  0.00  0.00    +0.000 A 
ATOM     19  N   UNL     1      46.683  33.150  41.190  0.00  0.00    +0.000 NA
ATOM     20  H   UNL     1      46.645  32.822  39.117  0.00  0.00    +0.000 HD
ATOM     21  H   UNL     1      48.264  34.633  38.575  0.00  0.00    +0.000 HD
ATOM     22  H   UNL     1      49.203  35.986  40.483  0.00  0.00    +0.000 HD
ENDBRANCH   2  18
BRANCH   3  23
ATOM     23  S   UNL     1      44.907  35.598  43.170  0.00  0.00    +0.000 S 
BRANCH  23  25
ATOM     24  N   UNL     1      42.322  35.608  42.691  0.00  0.00    +0.000 NA
ATOM     25  C   UNL     1      43.522  34.952  42.218  0.00  0.00    +0.000 C 
ATOM     26  C   UNL     1      43.805  35.316  40.760  0.00  0.00    +0.000 C 
ATOM     27  O   UNL     1      42.678  35.306  39.960  0.00  0.00    +0.000 OA
ATOM     28  C   UNL     1      41.547  34.759  40.531  0.00  0.00    +0.000 C 
ATOM     29  C   UNL     1      41.225  35.521  41.781  0.00  0.00    +0.000 C 
ATOM     30  H   UNL     1      42.044  35.116  43.586  0.00  0.00    +0.000 HD
ATOM     31  H   UNL     1      43.452  33.847  42.303  0.00  0.00    +0.000 HD
ATOM     32  H   UNL     1      44.161  36.372  40.781  0.00  0.00    +0.000 HD
ATOM     33  H   UNL     1      44.486  34.613  40.297  0.00  0.00    +0.000 HD
ATOM     34  H   UNL     1      41.708  33.703  40.817  0.00  0.00    +0.000 HD
ATOM     35  H   UNL     1      40.730  34.869  39.820  0.00  0.00    +0.000 HD
ATOM     36  H   UNL     1      40.337  35.025  42.247  0.00  0.00    +0.000 HD
BRANCH  29  37
ATOM     37  C   UNL     1      40.736  36.935  41.462  0.00  0.00    +0.000 C 
ATOM     38  F   UNL     1      39.921  36.887  40.349  0.00  0.00    +0.000 F 
ATOM     39  F   UNL     1      40.062  37.459  42.547  0.00  0.00    +0.000 F 
ATOM     40  F   UNL     1      41.812  37.749  41.112  0.00  0.00    +0.000 F 
ENDBRANCH  29  37
ENDBRANCH  23  25
ENDBRANCH   3  23
TORSDOF 4
