
 OpenBabel03252509143D

 40 43  0  0  1  0  0  0  0  0999 V2000
   47.8480   32.9040   42.6340 C   0  0  0  0  0  0  0  0  0  0  0  0
   46.8740   33.5170   41.8510 C   0  0  0  0  0  0  0  0  0  0  0  0
   45.7640   34.1430   42.3810 C   0  0  0  0  0  0  0  0  0  0  0  0
   45.5960   34.1730   43.7740 C   0  0  0  0  0  0  0  0  0  0  0  0
   44.6820   34.6690   44.6170 N   0  0  0  0  0  0  0  0  0  0  0  0
   45.0370   34.3970   45.8870 C   0  0  0  0  0  0  0  0  0  0  0  0
   46.1900   33.7230   45.8030 N   0  0  0  0  0  0  0  0  0  0  0  0
   46.5690   33.5630   44.5210 C   0  0  0  0  0  0  0  0  0  0  0  0
   47.6980   32.9240   44.0200 C   0  0  0  0  0  0  0  0  0  0  0  0
   48.7150   32.4160   42.1880 H   0  0  0  0  0  0  0  0  0  0  0  0
   43.8440   35.1780   44.2820 H   0  0  0  0  0  0  0  0  0  0  0  0
   44.4950   34.6700   46.8050 H   0  0  0  0  0  0  0  0  0  0  0  0
   48.4310   32.4610   44.6650 H   0  0  0  0  0  0  0  0  0  0  0  0
   46.4260   32.6150   38.3240 C   0  0  0  0  0  0  0  0  0  0  0  0
   47.3350   33.4560   37.6730 C   0  0  0  0  0  0  0  0  0  0  0  0
   48.0970   34.3290   38.4510 C   0  0  0  0  0  0  0  0  0  0  0  0
   47.9270   34.3280   39.8100 N   0  0  0  0  0  0  0  0  0  0  0  0
   47.0320   33.4940   40.4000 C   0  0  0  0  0  0  0  0  0  0  0  0
   46.2610   32.6200   39.6820 N   0  0  0  0  0  0  0  0  0  0  0  0
   45.8250   31.9310   37.7480 H   0  0  0  0  0  0  0  0  0  0  0  0
   47.4460   33.4340   36.6050 H   0  0  0  0  0  0  0  0  0  0  0  0
   48.8110   35.0000   38.0310 H   0  0  0  0  0  0  0  0  0  0  0  0
   44.5350   34.9160   41.3630 S   0  0  0  0  0  0  0  0  0  0  0  0
   41.9290   35.1200   41.6390 N   0  0  0  0  0  0  0  0  0  0  0  0
   42.9300   34.1010   41.4080 C   0  0  1  0  0  0  0  0  0  0  0  0
   42.7460   33.4550   40.0340 C   0  0  0  0  0  0  0  0  0  0  0  0
   41.4270   33.1780   39.7270 O   0  0  0  0  0  0  0  0  0  0  0  0
   40.5330   33.3070   40.7710 C   0  0  0  0  0  0  0  0  0  0  0  0
   40.6050   34.7110   41.2920 C   0  0  2  0  0  0  0  0  0  0  0  0
   41.9460   35.3270   42.6770 H   0  0  0  0  0  0  0  0  0  0  0  0
   42.9010   33.3060   42.1830 H   0  0  0  0  0  0  0  0  0  0  0  0
   43.0800   34.2220   39.2980 H   0  0  0  0  0  0  0  0  0  0  0  0
   43.2570   32.5030   39.9670 H   0  0  0  0  0  0  0  0  0  0  0  0
   40.7840   32.6280   41.6060 H   0  0  0  0  0  0  0  0  0  0  0  0
   39.5350   33.1190   40.3780 H   0  0  0  0  0  0  0  0  0  0  0  0
   39.9090   34.7710   42.1660 H   0  0  0  0  0  0  0  0  0  0  0  0
   40.0280   35.7100   40.2880 C   0  0  0  0  0  0  0  0  0  0  0  0
   40.9880   35.9990   39.3410 F   0  0  0  0  0  0  0  0  0  0  0  0
   38.8920   35.1870   39.7000 F   0  0  0  0  0  0  0  0  0  0  0  0
   39.7400   36.9180   40.9220 F   0  0  0  0  0  0  0  0  0  0  0  0
  1  9  1  0  0  0  0
  2  3  1  0  0  0  0
  2  1  2  0  0  0  0
  3  4  2  0  0  0  0
  4  8  1  0  0  0  0
  4  5  1  0  0  0  0
  5  6  1  0  0  0  0
  6 12  1  0  0  0  0
  7  6  2  0  0  0  0
  8  7  1  0  0  0  0
  9  8  2  0  0  0  0
  9 13  1  0  0  0  0
 10  1  1  0  0  0  0
 11  5  1  0  0  0  0
 14 19  1  0  0  0  0
 15 14  2  0  0  0  0
 15 16  1  0  0  0  0
 16 17  2  0  0  0  0
 17 18  1  0  0  0  0
 18  2  1  0  0  0  0
 19 18  2  0  0  0  0
 20 14  1  0  0  0  0
 21 15  1  0  0  0  0
 22 16  1  0  0  0  0
 23 25  1  0  0  0  0
 23  3  1  0  0  0  0
 24 30  1  0  0  0  0
 25 24  1  0  0  0  0
 25 31  1  1  0  0  0
 26 25  1  0  0  0  0
 27 26  1  0  0  0  0
 27 28  1  0  0  0  0
 28 29  1  0  0  0  0
 28 34  1  0  0  0  0
 29 24  1  0  0  0  0
 29 36  1  1  0  0  0
 32 26  1  0  0  0  0
 33 26  1  0  0  0  0
 35 28  1  0  0  0  0
 37 40  1  0  0  0  0
 37 29  1  0  0  0  0
 38 37  1  0  0  0  0
 39 37  1  0  0  0  0
M  END
>  <minimizedAffinity>
-6.59081078

>  <minimizedRMSD>
1.89990747

$$$$
