
 OpenBabel03242511153D

 39 42  0  0  1  0  0  0  0  0999 V2000
   35.5960   30.5130   40.9340 N   0  0  0  0  0  0  0  0  0  0  0  0
   34.8190   30.8520   41.5380 H   0  0  0  0  0  0  0  0  0  0  0  0
   36.8080   31.0810   40.5050 C   0  0  0  0  0  0  0  0  0  0  0  0
   36.8230   31.8860   39.3970 C   0  0  0  0  0  0  0  0  0  0  0  0
   37.9610   32.5320   38.9500 C   0  0  0  0  0  0  0  0  0  0  0  0
   39.1570   32.3880   39.6170 C   0  0  0  0  0  0  0  0  0  0  0  0
   39.1740   31.5860   40.7290 C   0  0  0  0  0  0  0  0  0  0  0  0
   40.3640   31.4280   41.4350 C   0  0  0  0  0  0  0  0  0  0  0  0
   40.4420   30.6580   42.5460 C   0  0  0  0  0  0  0  0  0  0  0  0
   39.2780   30.0230   42.9580 C   0  0  0  0  0  0  0  0  0  0  0  0
   38.1120   30.1860   42.2540 C   0  0  0  0  0  0  0  0  0  0  0  0
   38.0230   30.9620   41.1390 C   0  0  0  0  0  0  0  0  0  0  0  0
   35.8910   32.0260   38.8390 H   0  0  0  0  0  0  0  0  0  0  0  0
   37.8860   33.1500   38.0660 H   0  0  0  0  0  0  0  0  0  0  0  0
   40.0300   32.9140   39.2340 H   0  0  0  0  0  0  0  0  0  0  0  0
   41.2370   31.9480   41.0600 H   0  0  0  0  0  0  0  0  0  0  0  0
   41.3800   30.5340   43.1030 H   0  0  0  0  0  0  0  0  0  0  0  0
   39.3360   29.4050   43.8460 H   0  0  0  0  0  0  0  0  0  0  0  0
   36.9990   29.5220   42.7120 O   0  0  0  0  0  0  0  0  0  0  0  0
   37.0770   28.6610   43.2390 H   0  0  0  0  0  0  0  0  0  0  0  0
   35.8520   28.6270   39.3340 C   0  0  1  0  0  0  0  0  0  0  0  0
   34.4340   29.1190   39.1620 C   0  0  0  0  0  0  0  0  0  0  0  0
   35.1870   29.1990   40.5070 C   0  0  2  0  0  0  0  0  0  0  0  0
   36.6420   29.2330   38.8790 H   0  0  0  0  0  0  0  0  0  0  0  0
   34.2580   30.0770   38.6400 H   0  0  0  0  0  0  0  0  0  0  0  0
   33.6610   28.3460   39.1010 H   0  0  0  0  0  0  0  0  0  0  0  0
   34.7630   28.5800   41.3330 H   0  0  0  0  0  0  0  0  0  0  0  0
   36.0870   25.1610   38.0480 C   0  0  0  0  0  0  0  0  0  0  0  0
   36.5830   24.4620   39.2040 C   0  0  0  0  0  0  0  0  0  0  0  0
   36.8250   25.2120   40.3960 C   0  0  0  0  0  0  0  0  0  0  0  0
   36.5830   26.5150   40.3840 N   0  0  0  0  0  0  0  0  0  0  0  0
   36.1130   27.1440   39.2720 C   0  0  0  0  0  0  0  0  0  0  0  0
   35.8610   26.4800   38.0990 N   0  0  0  0  0  0  0  0  0  0  0  0
   35.9160   24.5560   37.1630 H   0  0  0  0  0  0  0  0  0  0  0  0
   36.7540   23.4060   39.1330 H   0  0  0  0  0  0  0  0  0  0  0  0
   37.3380   24.4790   41.5830 C   0  0  0  0  0  0  0  0  0  0  0  0
   36.4810   24.6200   42.6420 F   0  0  0  0  0  0  0  0  0  0  0  0
   38.5770   24.9890   41.9880 F   0  0  0  0  0  0  0  0  0  0  0  0
   37.5530   23.1370   41.2800 F   0  0  0  0  0  0  0  0  0  0  0  0
  1  2  1  0  0  0  0
  3  1  1  0  0  0  0
  3 12  1  0  0  0  0
  4  3  2  0  0  0  0
  5  4  1  0  0  0  0
  5  6  2  0  0  0  0
  6  7  1  0  0  0  0
  7 12  2  0  0  0  0
  7  8  1  0  0  0  0
  8  9  2  0  0  0  0
  9 10  1  0  0  0  0
  9 17  1  0  0  0  0
 10 18  1  0  0  0  0
 11 19  1  0  0  0  0
 11 10  2  0  0  0  0
 12 11  1  0  0  0  0
 13  4  1  0  0  0  0
 14  5  1  0  0  0  0
 15  6  1  0  0  0  0
 16  8  1  0  0  0  0
 19 20  1  0  0  0  0
 21 24  1  6  0  0  0
 21 23  1  0  0  0  0
 22 21  1  0  0  0  0
 22 23  1  0  0  0  0
 23  1  1  0  0  0  0
 23 27  1  1  0  0  0
 25 22  1  0  0  0  0
 26 22  1  0  0  0  0
 28 33  2  0  0  0  0
 28 29  1  0  0  0  0
 29 30  2  0  0  0  0
 30 36  1  0  0  0  0
 31 30  1  0  0  0  0
 32 21  1  0  0  0  0
 32 31  2  0  0  0  0
 33 32  1  0  0  0  0
 34 28  1  0  0  0  0
 35 29  1  0  0  0  0
 36 38  1  0  0  0  0
 36 37  1  0  0  0  0
 39 36  1  0  0  0  0
M  END
>  <minimizedAffinity>
-6.51724195

$$$$

 OpenBabel03242511153D

 39 42  0  0  1  0  0  0  0  0999 V2000
   36.7300   29.2300   39.6920 N   0  0  0  0  0  0  0  0  0  0  0  0
   35.9020   29.3090   39.0680 H   0  0  0  0  0  0  0  0  0  0  0  0
   36.9870   28.5190   40.8770 C   0  0  0  0  0  0  0  0  0  0  0  0
   37.2550   29.2040   42.0320 C   0  0  0  0  0  0  0  0  0  0  0  0
   37.4540   28.5800   43.2500 C   0  0  0  0  0  0  0  0  0  0  0  0
   37.3900   27.2090   43.3540 C   0  0  0  0  0  0  0  0  0  0  0  0
   37.1250   26.4950   42.2130 C   0  0  0  0  0  0  0  0  0  0  0  0
   37.0410   25.1060   42.2840 C   0  0  0  0  0  0  0  0  0  0  0  0
   36.7730   24.3470   41.1960 C   0  0  0  0  0  0  0  0  0  0  0  0
   36.5850   25.0130   39.9910 C   0  0  0  0  0  0  0  0  0  0  0  0
   36.6700   26.3810   39.9340 C   0  0  0  0  0  0  0  0  0  0  0  0
   36.9350   27.1530   41.0250 C   0  0  0  0  0  0  0  0  0  0  0  0
   37.3140   30.2970   41.9910 H   0  0  0  0  0  0  0  0  0  0  0  0
   37.6610   29.1950   44.1140 H   0  0  0  0  0  0  0  0  0  0  0  0
   37.5510   26.7550   44.3300 H   0  0  0  0  0  0  0  0  0  0  0  0
   37.2010   24.6480   43.2520 H   0  0  0  0  0  0  0  0  0  0  0  0
   36.7060   23.2530   41.2510 H   0  0  0  0  0  0  0  0  0  0  0  0
   36.3700   24.4100   39.1180 H   0  0  0  0  0  0  0  0  0  0  0  0
   36.4830   26.9750   38.7090 O   0  0  0  0  0  0  0  0  0  0  0  0
   36.6890   26.4850   37.8470 H   0  0  0  0  0  0  0  0  0  0  0  0
   37.4510   31.5430   39.1310 C   0  0  1  0  0  0  0  0  0  0  0  0
   37.3100   30.8270   37.8080 C   0  0  0  0  0  0  0  0  0  0  0  0
   37.7180   30.1030   39.1090 C   0  0  2  0  0  0  0  0  0  0  0  0
   36.5260   31.8590   39.6210 H   0  0  0  0  0  0  0  0  0  0  0  0
   36.2980   30.6100   37.4210 H   0  0  0  0  0  0  0  0  0  0  0  0
   38.1180   30.9870   37.0860 H   0  0  0  0  0  0  0  0  0  0  0  0
   38.7460   29.6700   39.1160 H   0  0  0  0  0  0  0  0  0  0  0  0
   39.5000   34.3490   40.4180 C   0  0  0  0  0  0  0  0  0  0  0  0
   40.6710   34.2490   39.5870 C   0  0  0  0  0  0  0  0  0  0  0  0
   40.7190   33.2120   38.6060 C   0  0  0  0  0  0  0  0  0  0  0  0
   39.6850   32.3880   38.5050 N   0  0  0  0  0  0  0  0  0  0  0  0
   38.5930   32.5110   39.3080 C   0  0  0  0  0  0  0  0  0  0  0  0
   38.4880   33.4850   40.2670 N   0  0  0  0  0  0  0  0  0  0  0  0
   39.5030   35.1500   41.1500 H   0  0  0  0  0  0  0  0  0  0  0  0
   41.4660   34.9550   39.7310 H   0  0  0  0  0  0  0  0  0  0  0  0
   41.9340   33.1190   37.7540 C   0  0  0  0  0  0  0  0  0  0  0  0
   43.0260   32.7860   38.5100 F   0  0  0  0  0  0  0  0  0  0  0  0
   42.2140   34.3480   37.1470 F   0  0  0  0  0  0  0  0  0  0  0  0
   41.7400   32.2110   36.7160 F   0  0  0  0  0  0  0  0  0  0  0  0
  1  3  1  0  0  0  0
  2  1  1  0  0  0  0
  3 12  2  0  0  0  0
  3  4  1  0  0  0  0
  4  5  2  0  0  0  0
  5  6  1  0  0  0  0
  5 14  1  0  0  0  0
  6 15  1  0  0  0  0
  7  8  1  0  0  0  0
  7  6  2  0  0  0  0
  8 16  1  0  0  0  0
  9 17  1  0  0  0  0
  9  8  2  0  0  0  0
 10  9  1  0  0  0  0
 11 10  2  0  0  0  0
 11 12  1  0  0  0  0
 12  7  1  0  0  0  0
 13  4  1  0  0  0  0
 18 10  1  0  0  0  0
 19 11  1  0  0  0  0
 20 19  1  0  0  0  0
 21 32  1  0  0  0  0
 21 24  1  1  0  0  0
 22 23  1  0  0  0  0
 22 21  1  0  0  0  0
 23 27  1  1  0  0  0
 23 21  1  0  0  0  0
 23  1  1  0  0  0  0
 25 22  1  0  0  0  0
 26 22  1  0  0  0  0
 28 34  1  0  0  0  0
 29 35  1  0  0  0  0
 29 28  2  0  0  0  0
 30 29  1  0  0  0  0
 31 30  2  0  0  0  0
 31 32  1  0  0  0  0
 32 33  2  0  0  0  0
 33 28  1  0  0  0  0
 36 37  1  0  0  0  0
 36 30  1  0  0  0  0
 38 36  1  0  0  0  0
 39 36  1  0  0  0  0
M  END
>  <minimizedAffinity>
-6.41612244

$$$$

 OpenBabel03242511153D

 39 42  0  0  1  0  0  0  0  0999 V2000
   36.3280   30.3430   41.4760 N   0  0  0  0  0  0  0  0  0  0  0  0
   35.5250   30.9980   41.5600 H   0  0  0  0  0  0  0  0  0  0  0  0
   37.7120   30.4730   41.6880 C   0  0  0  0  0  0  0  0  0  0  0  0
   38.3850   29.5010   42.3800 C   0  0  0  0  0  0  0  0  0  0  0  0
   39.7540   29.5230   42.5730 C   0  0  0  0  0  0  0  0  0  0  0  0
   40.5170   30.5500   42.0650 C   0  0  0  0  0  0  0  0  0  0  0  0
   39.8710   31.5390   41.3680 C   0  0  0  0  0  0  0  0  0  0  0  0
   40.6140   32.5870   40.8300 C   0  0  0  0  0  0  0  0  0  0  0  0
   40.0360   33.5880   40.1240 C   0  0  0  0  0  0  0  0  0  0  0  0
   38.6580   33.5300   39.9570 C   0  0  0  0  0  0  0  0  0  0  0  0
   37.9380   32.4930   40.4930 C   0  0  0  0  0  0  0  0  0  0  0  0
   38.5110   31.4800   41.2000 C   0  0  0  0  0  0  0  0  0  0  0  0
   37.8120   28.6660   42.8000 H   0  0  0  0  0  0  0  0  0  0  0  0
   40.2060   28.7160   43.1320 H   0  0  0  0  0  0  0  0  0  0  0  0
   41.5910   30.5310   42.2370 H   0  0  0  0  0  0  0  0  0  0  0  0
   41.6840   32.5750   40.9970 H   0  0  0  0  0  0  0  0  0  0  0  0
   40.6220   34.4130   39.6980 H   0  0  0  0  0  0  0  0  0  0  0  0
   38.1920   34.3290   39.3940 H   0  0  0  0  0  0  0  0  0  0  0  0
   36.5780   32.5030   40.2980 O   0  0  0  0  0  0  0  0  0  0  0  0
   36.0690   33.3680   40.1640 H   0  0  0  0  0  0  0  0  0  0  0  0
   36.1650   28.6100   39.7000 C   0  0  1  0  0  0  0  0  0  0  0  0
   34.7820   29.2070   39.8170 C   0  0  0  0  0  0  0  0  0  0  0  0
   35.7510   29.1050   41.0140 C   0  0  2  0  0  0  0  0  0  0  0  0
   36.9150   29.2050   39.1700 H   0  0  0  0  0  0  0  0  0  0  0  0
   34.6000   30.2210   39.4170 H   0  0  0  0  0  0  0  0  0  0  0  0
   33.9500   28.4950   39.8240 H   0  0  0  0  0  0  0  0  0  0  0  0
   35.4200   28.4380   41.8450 H   0  0  0  0  0  0  0  0  0  0  0  0
   36.0030   25.2940   38.0570 C   0  0  0  0  0  0  0  0  0  0  0  0
   36.5250   24.4390   39.0900 C   0  0  0  0  0  0  0  0  0  0  0  0
   36.9210   25.0360   40.3260 C   0  0  0  0  0  0  0  0  0  0  0  0
   36.7910   26.3480   40.4660 N   0  0  0  0  0  0  0  0  0  0  0  0
   36.2920   27.1260   39.4670 C   0  0  0  0  0  0  0  0  0  0  0  0
   35.8950   26.6140   38.2590 N   0  0  0  0  0  0  0  0  0  0  0  0
   35.7130   24.8020   37.1330 H   0  0  0  0  0  0  0  0  0  0  0  0
   36.5980   23.3870   38.8980 H   0  0  0  0  0  0  0  0  0  0  0  0
   37.4590   24.1430   41.3860 C   0  0  0  0  0  0  0  0  0  0  0  0
   36.7730   24.3200   42.5570 F   0  0  0  0  0  0  0  0  0  0  0  0
   38.8020   24.4330   41.6500 F   0  0  0  0  0  0  0  0  0  0  0  0
   37.4240   22.8130   40.9740 F   0  0  0  0  0  0  0  0  0  0  0  0
  1  2  1  0  0  0  0
  1  3  1  0  0  0  0
  3  4  1  0  0  0  0
  4  5  2  0  0  0  0
  4 13  1  0  0  0  0
  5 14  1  0  0  0  0
  6 15  1  0  0  0  0
  6  5  1  0  0  0  0
  7  6  2  0  0  0  0
  8 16  1  0  0  0  0
  8  7  1  0  0  0  0
  9  8  2  0  0  0  0
 10  9  1  0  0  0  0
 10 11  2  0  0  0  0
 11 12  1  0  0  0  0
 12  7  1  0  0  0  0
 12  3  2  0  0  0  0
 17  9  1  0  0  0  0
 18 10  1  0  0  0  0
 19 11  1  0  0  0  0
 20 19  1  0  0  0  0
 21 24  1  6  0  0  0
 21 22  1  0  0  0  0
 21 23  1  0  0  0  0
 22 26  1  0  0  0  0
 22 23  1  0  0  0  0
 23  1  1  0  0  0  0
 23 27  1  1  0  0  0
 25 22  1  0  0  0  0
 28 33  2  0  0  0  0
 28 29  1  0  0  0  0
 29 30  2  0  0  0  0
 30 31  1  0  0  0  0
 30 36  1  0  0  0  0
 32 21  1  0  0  0  0
 32 31  2  0  0  0  0
 33 32  1  0  0  0  0
 34 28  1  0  0  0  0
 35 29  1  0  0  0  0
 36 38  1  0  0  0  0
 36 37  1  0  0  0  0
 39 36  1  0  0  0  0
M  END
>  <minimizedAffinity>
-6.37955618

$$$$

 OpenBabel03242511153D

 39 42  0  0  1  0  0  0  0  0999 V2000
   40.5560   28.0100   42.9230 N   0  0  0  0  0  0  0  0  0  0  0  0
   41.4640   27.5300   43.0870 H   0  0  0  0  0  0  0  0  0  0  0  0
   39.2140   27.6010   43.0060 C   0  0  0  0  0  0  0  0  0  0  0  0
   38.2750   28.4600   43.5140 C   0  0  0  0  0  0  0  0  0  0  0  0
   36.9270   28.1570   43.5690 C   0  0  0  0  0  0  0  0  0  0  0  0
   36.4610   26.9480   43.1030 C   0  0  0  0  0  0  0  0  0  0  0  0
   37.3770   26.0660   42.5890 C   0  0  0  0  0  0  0  0  0  0  0  0
   36.9380   24.8390   42.0980 C   0  0  0  0  0  0  0  0  0  0  0  0
   37.7920   23.9310   41.5700 C   0  0  0  0  0  0  0  0  0  0  0  0
   39.1390   24.2730   41.5390 C   0  0  0  0  0  0  0  0  0  0  0  0
   39.5580   25.4840   42.0260 C   0  0  0  0  0  0  0  0  0  0  0  0
   38.7060   26.4050   42.5550 C   0  0  0  0  0  0  0  0  0  0  0  0
   38.6070   29.4320   43.8950 H   0  0  0  0  0  0  0  0  0  0  0  0
   36.2530   28.8910   43.9850 H   0  0  0  0  0  0  0  0  0  0  0  0
   35.3930   26.7480   43.1620 H   0  0  0  0  0  0  0  0  0  0  0  0
   35.8760   24.6320   42.1540 H   0  0  0  0  0  0  0  0  0  0  0  0
   37.4470   22.9640   41.1820 H   0  0  0  0  0  0  0  0  0  0  0  0
   39.8260   23.5490   41.1180 H   0  0  0  0  0  0  0  0  0  0  0  0
   40.9050   25.7540   41.9730 O   0  0  0  0  0  0  0  0  0  0  0  0
   41.5940   25.0120   41.9880 H   0  0  0  0  0  0  0  0  0  0  0  0
   40.8180   29.6570   41.0790 C   0  0  1  0  0  0  0  0  0  0  0  0
   42.1990   29.4770   41.6640 C   0  0  0  0  0  0  0  0  0  0  0  0
   40.9120   29.3430   42.5060 C   0  0  2  0  0  0  0  0  0  0  0  0
   40.4510   28.8580   40.4280 H   0  0  0  0  0  0  0  0  0  0  0  0
   42.7510   28.5420   41.4580 H   0  0  0  0  0  0  0  0  0  0  0  0
   42.7750   30.3940   41.8290 H   0  0  0  0  0  0  0  0  0  0  0  0
   40.7820   30.1050   43.3110 H   0  0  0  0  0  0  0  0  0  0  0  0
   40.9160   33.2900   40.3630 C   0  0  0  0  0  0  0  0  0  0  0  0
   39.5870   33.5170   39.8610 C   0  0  0  0  0  0  0  0  0  0  0  0
   38.6940   32.4040   39.7820 C   0  0  0  0  0  0  0  0  0  0  0  0
   39.1300   31.2150   40.1730 N   0  0  0  0  0  0  0  0  0  0  0  0
   40.3940   31.0370   40.6440 C   0  0  0  0  0  0  0  0  0  0  0  0
   41.2970   32.0640   40.7430 N   0  0  0  0  0  0  0  0  0  0  0  0
   41.5630   34.1610   40.4070 H   0  0  0  0  0  0  0  0  0  0  0  0
   39.3110   34.5100   39.5640 H   0  0  0  0  0  0  0  0  0  0  0  0
   37.3240   32.6510   39.2610 C   0  0  0  0  0  0  0  0  0  0  0  0
   36.4280   31.7950   39.8430 F   0  0  0  0  0  0  0  0  0  0  0  0
   37.2660   32.4280   37.8810 F   0  0  0  0  0  0  0  0  0  0  0  0
   36.9540   33.9800   39.4550 F   0  0  0  0  0  0  0  0  0  0  0  0
  1  3  1  0  0  0  0
  1  2  1  0  0  0  0
  3  4  1  0  0  0  0
  4  5  2  0  0  0  0
  4 13  1  0  0  0  0
  5 14  1  0  0  0  0
  6 15  1  0  0  0  0
  6  5  1  0  0  0  0
  7  6  2  0  0  0  0
  8 16  1  0  0  0  0
  8  7  1  0  0  0  0
  9  8  2  0  0  0  0
 10  9  1  0  0  0  0
 10 11  2  0  0  0  0
 11 12  1  0  0  0  0
 12  7  1  0  0  0  0
 12  3  2  0  0  0  0
 17  9  1  0  0  0  0
 18 10  1  0  0  0  0
 19 20  1  0  0  0  0
 19 11  1  0  0  0  0
 21 24  1  6  0  0  0
 21 22  1  0  0  0  0
 21 23  1  0  0  0  0
 22 26  1  0  0  0  0
 22 23  1  0  0  0  0
 23  1  1  0  0  0  0
 23 27  1  1  0  0  0
 25 22  1  0  0  0  0
 28 34  1  0  0  0  0
 28 33  1  0  0  0  0
 29 28  2  0  0  0  0
 30 29  1  0  0  0  0
 30 31  2  0  0  0  0
 31 32  1  0  0  0  0
 32 33  2  0  0  0  0
 32 21  1  0  0  0  0
 35 29  1  0  0  0  0
 36 39  1  0  0  0  0
 36 30  1  0  0  0  0
 36 37  1  0  0  0  0
 38 36  1  0  0  0  0
M  END
>  <minimizedAffinity>
-6.33107376

$$$$

 OpenBabel03242511153D

 39 42  0  0  1  0  0  0  0  0999 V2000
   36.9270   30.2700   42.2120 N   0  0  0  0  0  0  0  0  0  0  0  0
   36.9520   31.1810   42.7130 H   0  0  0  0  0  0  0  0  0  0  0  0
   37.4520   28.9960   42.4900 C   0  0  0  0  0  0  0  0  0  0  0  0
   36.6110   27.9170   42.5530 C   0  0  0  0  0  0  0  0  0  0  0  0
   37.0570   26.6230   42.7570 C   0  0  0  0  0  0  0  0  0  0  0  0
   38.4000   26.3610   42.9080 C   0  0  0  0  0  0  0  0  0  0  0  0
   39.2670   27.4220   42.8510 C   0  0  0  0  0  0  0  0  0  0  0  0
   40.6340   27.1910   42.9880 C   0  0  0  0  0  0  0  0  0  0  0  0
   41.5400   28.1950   42.9310 C   0  0  0  0  0  0  0  0  0  0  0  0
   41.0500   29.4790   42.7300 C   0  0  0  0  0  0  0  0  0  0  0  0
   39.7020   29.6940   42.5970 C   0  0  0  0  0  0  0  0  0  0  0  0
   38.7830   28.6890   42.6490 C   0  0  0  0  0  0  0  0  0  0  0  0
   35.5340   28.0850   42.4370 H   0  0  0  0  0  0  0  0  0  0  0  0
   36.3260   25.8290   42.7940 H   0  0  0  0  0  0  0  0  0  0  0  0
   38.7110   25.3300   43.0650 H   0  0  0  0  0  0  0  0  0  0  0  0
   40.9520   26.1670   43.1450 H   0  0  0  0  0  0  0  0  0  0  0  0
   42.6180   28.0130   43.0380 H   0  0  0  0  0  0  0  0  0  0  0  0
   41.7720   30.2850   42.6850 H   0  0  0  0  0  0  0  0  0  0  0  0
   39.2840   30.9900   42.4100 O   0  0  0  0  0  0  0  0  0  0  0  0
   39.8220   31.7740   42.7590 H   0  0  0  0  0  0  0  0  0  0  0  0
   36.8150   30.1270   39.7320 C   0  0  1  0  0  0  0  0  0  0  0  0
   36.8000   31.6020   40.0570 C   0  0  0  0  0  0  0  0  0  0  0  0
   36.1990   30.5350   40.9960 C   0  0  2  0  0  0  0  0  0  0  0  0
   37.7800   29.6170   39.8030 H   0  0  0  0  0  0  0  0  0  0  0  0
   37.7340   32.0860   40.3970 H   0  0  0  0  0  0  0  0  0  0  0  0
   36.0720   32.2080   39.5080 H   0  0  0  0  0  0  0  0  0  0  0  0
   35.0950   30.5950   41.1490 H   0  0  0  0  0  0  0  0  0  0  0  0
   33.9630   28.6280   37.9040 C   0  0  0  0  0  0  0  0  0  0  0  0
   34.4140   28.7280   36.5410 C   0  0  0  0  0  0  0  0  0  0  0  0
   35.6940   29.3150   36.2940 C   0  0  0  0  0  0  0  0  0  0  0  0
   36.4050   29.7400   37.3280 N   0  0  0  0  0  0  0  0  0  0  0  0
   35.9470   29.6290   38.6050 C   0  0  0  0  0  0  0  0  0  0  0  0
   34.7290   29.0760   38.9070 N   0  0  0  0  0  0  0  0  0  0  0  0
   32.9860   28.1760   38.0500 H   0  0  0  0  0  0  0  0  0  0  0  0
   33.7780   28.3610   35.7600 H   0  0  0  0  0  0  0  0  0  0  0  0
   36.1490   29.4130   34.8820 C   0  0  0  0  0  0  0  0  0  0  0  0
   35.2210   28.8650   34.0390 F   0  0  0  0  0  0  0  0  0  0  0  0
   37.3430   28.7090   34.6920 F   0  0  0  0  0  0  0  0  0  0  0  0
   36.4220   30.7360   34.5430 F   0  0  0  0  0  0  0  0  0  0  0  0
  1  3  1  0  0  0  0
  1  2  1  0  0  0  0
  3  4  2  0  0  0  0
  3 12  1  0  0  0  0
  4  5  1  0  0  0  0
  5 14  1  0  0  0  0
  5  6  2  0  0  0  0
  6 15  1  0  0  0  0
  7  6  1  0  0  0  0
  7  8  1  0  0  0  0
  8 16  1  0  0  0  0
  9  8  2  0  0  0  0
  9 17  1  0  0  0  0
 10  9  1  0  0  0  0
 11 12  1  0  0  0  0
 11 10  2  0  0  0  0
 12  7  2  0  0  0  0
 13  4  1  0  0  0  0
 18 10  1  0  0  0  0
 19 11  1  0  0  0  0
 19 20  1  0  0  0  0
 21 24  1  1  0  0  0
 21 22  1  0  0  0  0
 21 23  1  0  0  0  0
 22 25  1  0  0  0  0
 22 23  1  0  0  0  0
 23 27  1  1  0  0  0
 23  1  1  0  0  0  0
 26 22  1  0  0  0  0
 28 34  1  0  0  0  0
 28 33  1  0  0  0  0
 29 28  2  0  0  0  0
 30 29  1  0  0  0  0
 30 31  2  0  0  0  0
 31 32  1  0  0  0  0
 32 33  2  0  0  0  0
 32 21  1  0  0  0  0
 35 29  1  0  0  0  0
 36 30  1  0  0  0  0
 37 36  1  0  0  0  0
 38 36  1  0  0  0  0
 39 36  1  0  0  0  0
M  END
>  <minimizedAffinity>
-6.24555779

$$$$

 OpenBabel03242511153D

 39 42  0  0  1  0  0  0  0  0999 V2000
   36.9730   30.2110   42.1620 N   0  0  0  0  0  0  0  0  0  0  0  0
   36.9310   31.0960   42.7070 H   0  0  0  0  0  0  0  0  0  0  0  0
   37.4760   28.9270   42.4350 C   0  0  0  0  0  0  0  0  0  0  0  0
   36.6250   27.8540   42.4420 C   0  0  0  0  0  0  0  0  0  0  0  0
   37.0520   26.5530   42.6370 C   0  0  0  0  0  0  0  0  0  0  0  0
   38.3860   26.2770   42.8380 C   0  0  0  0  0  0  0  0  0  0  0  0
   39.2630   27.3310   42.8370 C   0  0  0  0  0  0  0  0  0  0  0  0
   40.6210   27.0850   43.0250 C   0  0  0  0  0  0  0  0  0  0  0  0
   41.5370   28.0820   43.0250 C   0  0  0  0  0  0  0  0  0  0  0  0
   41.0650   29.3740   42.8310 C   0  0  0  0  0  0  0  0  0  0  0  0
   39.7250   29.6030   42.6480 C   0  0  0  0  0  0  0  0  0  0  0  0
   38.7980   28.6060   42.6410 C   0  0  0  0  0  0  0  0  0  0  0  0
   35.5550   28.0340   42.2860 H   0  0  0  0  0  0  0  0  0  0  0  0
   36.3140   25.7650   42.6280 H   0  0  0  0  0  0  0  0  0  0  0  0
   38.6820   25.2400   42.9860 H   0  0  0  0  0  0  0  0  0  0  0  0
   40.9240   26.0550   43.1740 H   0  0  0  0  0  0  0  0  0  0  0  0
   42.6080   27.8880   43.1720 H   0  0  0  0  0  0  0  0  0  0  0  0
   41.7950   30.1750   42.8310 H   0  0  0  0  0  0  0  0  0  0  0  0
   39.3260   30.9060   42.4710 O   0  0  0  0  0  0  0  0  0  0  0  0
   39.8550   31.6780   42.8570 H   0  0  0  0  0  0  0  0  0  0  0  0
   37.2310   30.3960   39.6960 C   0  0  1  0  0  0  0  0  0  0  0  0
   36.9320   31.7950   40.1810 C   0  0  0  0  0  0  0  0  0  0  0  0
   36.3880   30.5340   40.8850 C   0  0  2  0  0  0  0  0  0  0  0  0
   38.2460   30.0250   39.8600 H   0  0  0  0  0  0  0  0  0  0  0  0
   37.7190   32.3560   40.7170 H   0  0  0  0  0  0  0  0  0  0  0  0
   36.1980   32.3610   39.5970 H   0  0  0  0  0  0  0  0  0  0  0  0
   35.2780   30.4140   40.8670 H   0  0  0  0  0  0  0  0  0  0  0  0
   36.8660   29.4860   36.1230 C   0  0  0  0  0  0  0  0  0  0  0  0
   35.4750   29.1200   36.0640 C   0  0  0  0  0  0  0  0  0  0  0  0
   34.7030   29.1970   37.2640 C   0  0  0  0  0  0  0  0  0  0  0  0
   35.3020   29.6000   38.3760 N   0  0  0  0  0  0  0  0  0  0  0  0
   36.6190   29.9380   38.3960 C   0  0  0  0  0  0  0  0  0  0  0  0
   37.4120   29.8860   37.2780 N   0  0  0  0  0  0  0  0  0  0  0  0
   37.4170   29.4140   35.1900 H   0  0  0  0  0  0  0  0  0  0  0  0
   35.0660   28.8040   35.1240 H   0  0  0  0  0  0  0  0  0  0  0  0
   33.2680   28.8170   37.1910 C   0  0  0  0  0  0  0  0  0  0  0  0
   33.1390   27.4710   36.9730 F   0  0  0  0  0  0  0  0  0  0  0  0
   32.6320   29.4670   36.1270 F   0  0  0  0  0  0  0  0  0  0  0  0
   32.5930   29.2110   38.3440 F   0  0  0  0  0  0  0  0  0  0  0  0
  1  3  1  0  0  0  0
  1  2  1  0  0  0  0
  3  4  2  0  0  0  0
  3 12  1  0  0  0  0
  4  5  1  0  0  0  0
  5  6  2  0  0  0  0
  6 15  1  0  0  0  0
  7  6  1  0  0  0  0
  7  8  1  0  0  0  0
  8 16  1  0  0  0  0
  9  8  2  0  0  0  0
  9 17  1  0  0  0  0
 10  9  1  0  0  0  0
 11 10  2  0  0  0  0
 12 11  1  0  0  0  0
 12  7  2  0  0  0  0
 13  4  1  0  0  0  0
 14  5  1  0  0  0  0
 18 10  1  0  0  0  0
 19 11  1  0  0  0  0
 19 20  1  0  0  0  0
 21 24  1  1  0  0  0
 21 22  1  0  0  0  0
 21 23  1  0  0  0  0
 22 25  1  0  0  0  0
 22 23  1  0  0  0  0
 23 27  1  6  0  0  0
 23  1  1  0  0  0  0
 26 22  1  0  0  0  0
 28 33  1  0  0  0  0
 29 28  2  0  0  0  0
 29 30  1  0  0  0  0
 30 31  2  0  0  0  0
 31 32  1  0  0  0  0
 32 21  1  0  0  0  0
 33 32  2  0  0  0  0
 34 28  1  0  0  0  0
 35 29  1  0  0  0  0
 36 30  1  0  0  0  0
 36 39  1  0  0  0  0
 37 36  1  0  0  0  0
 38 36  1  0  0  0  0
M  END
>  <minimizedAffinity>
-6.15947771

$$$$

 OpenBabel03242511153D

 39 42  0  0  1  0  0  0  0  0999 V2000
   36.7140   29.6480   40.1310 N   0  0  0  0  0  0  0  0  0  0  0  0
   35.8640   29.8040   39.5520 H   0  0  0  0  0  0  0  0  0  0  0  0
   37.0090   28.8010   41.2130 C   0  0  0  0  0  0  0  0  0  0  0  0
   37.3090   29.3430   42.4340 C   0  0  0  0  0  0  0  0  0  0  0  0
   37.5460   28.5780   43.5620 C   0  0  0  0  0  0  0  0  0  0  0  0
   37.4890   27.2040   43.5010 C   0  0  0  0  0  0  0  0  0  0  0  0
   37.1910   26.6310   42.2900 C   0  0  0  0  0  0  0  0  0  0  0  0
   37.1140   25.2440   42.1960 C   0  0  0  0  0  0  0  0  0  0  0  0
   36.8150   24.6200   41.0320 C   0  0  0  0  0  0  0  0  0  0  0  0
   36.5890   25.4250   39.9230 C   0  0  0  0  0  0  0  0  0  0  0  0
   36.6690   26.7900   40.0290 C   0  0  0  0  0  0  0  0  0  0  0  0
   36.9640   27.4260   41.1960 C   0  0  0  0  0  0  0  0  0  0  0  0
   37.3640   30.4340   42.5240 H   0  0  0  0  0  0  0  0  0  0  0  0
   37.7760   29.0860   44.4870 H   0  0  0  0  0  0  0  0  0  0  0  0
   37.6800   26.6370   44.4100 H   0  0  0  0  0  0  0  0  0  0  0  0
   37.3030   24.6720   43.0970 H   0  0  0  0  0  0  0  0  0  0  0  0
   36.7520   23.5260   40.9570 H   0  0  0  0  0  0  0  0  0  0  0  0
   36.3500   24.9300   38.9890 H   0  0  0  0  0  0  0  0  0  0  0  0
   36.4430   27.5260   38.8900 O   0  0  0  0  0  0  0  0  0  0  0  0
   36.6250   27.1460   37.9700 H   0  0  0  0  0  0  0  0  0  0  0  0
   37.7950   31.8830   40.2800 C   0  0  1  0  0  0  0  0  0  0  0  0
   37.1280   31.8400   38.9240 C   0  0  0  0  0  0  0  0  0  0  0  0
   37.6870   30.5810   39.6190 C   0  0  2  0  0  0  0  0  0  0  0  0
   37.1430   32.0460   41.1430 H   0  0  0  0  0  0  0  0  0  0  0  0
   36.0280   31.9220   38.8640 H   0  0  0  0  0  0  0  0  0  0  0  0
   37.7230   32.2160   38.0840 H   0  0  0  0  0  0  0  0  0  0  0  0
   38.5410   30.0840   39.1000 H   0  0  0  0  0  0  0  0  0  0  0  0
   40.5650   34.2960   39.8050 C   0  0  0  0  0  0  0  0  0  0  0  0
   41.5900   33.7180   40.6330 C   0  0  0  0  0  0  0  0  0  0  0  0
   41.2920   32.5090   41.3340 C   0  0  0  0  0  0  0  0  0  0  0  0
   40.0870   31.9760   41.1920 N   0  0  0  0  0  0  0  0  0  0  0  0
   39.1410   32.5500   40.4000 C   0  0  0  0  0  0  0  0  0  0  0  0
   39.3660   33.7090   39.7020 N   0  0  0  0  0  0  0  0  0  0  0  0
   40.8310   35.2140   39.2890 H   0  0  0  0  0  0  0  0  0  0  0  0
   42.5400   34.2120   40.6950 H   0  0  0  0  0  0  0  0  0  0  0  0
   42.3590   31.9220   42.1870 C   0  0  0  0  0  0  0  0  0  0  0  0
   43.0170   30.9270   41.5150 F   0  0  0  0  0  0  0  0  0  0  0  0
   41.8160   31.3470   43.3420 F   0  0  0  0  0  0  0  0  0  0  0  0
   43.2410   32.9080   42.6230 F   0  0  0  0  0  0  0  0  0  0  0  0
  1  3  1  0  0  0  0
  2  1  1  0  0  0  0
  3  4  1  0  0  0  0
  4 13  1  0  0  0  0
  4  5  2  0  0  0  0
  5 14  1  0  0  0  0
  6  5  1  0  0  0  0
  6 15  1  0  0  0  0
  7  6  2  0  0  0  0
  8  7  1  0  0  0  0
  8 16  1  0  0  0  0
  9  8  2  0  0  0  0
 10 11  2  0  0  0  0
 10  9  1  0  0  0  0
 11 12  1  0  0  0  0
 12  3  2  0  0  0  0
 12  7  1  0  0  0  0
 17  9  1  0  0  0  0
 18 10  1  0  0  0  0
 19 11  1  0  0  0  0
 20 19  1  0  0  0  0
 21 32  1  0  0  0  0
 21 24  1  1  0  0  0
 22 23  1  0  0  0  0
 22 21  1  0  0  0  0
 23 27  1  6  0  0  0
 23  1  1  0  0  0  0
 23 21  1  0  0  0  0
 25 22  1  0  0  0  0
 26 22  1  0  0  0  0
 28 29  1  0  0  0  0
 29 35  1  0  0  0  0
 29 30  2  0  0  0  0
 30 36  1  0  0  0  0
 31 30  1  0  0  0  0
 32 31  2  0  0  0  0
 33 28  2  0  0  0  0
 33 32  1  0  0  0  0
 34 28  1  0  0  0  0
 36 39  1  0  0  0  0
 36 38  1  0  0  0  0
 37 36  1  0  0  0  0
M  END
>  <minimizedAffinity>
-6.1078887

$$$$

 OpenBabel03242511153D

 39 42  0  0  1  0  0  0  0  0999 V2000
   36.5440   30.7330   40.0270 N   0  0  0  0  0  0  0  0  0  0  0  0
   35.9210   31.3420   40.5950 H   0  0  0  0  0  0  0  0  0  0  0  0
   36.5400   29.3610   39.7180 C   0  0  0  0  0  0  0  0  0  0  0  0
   36.4460   28.9620   38.4110 C   0  0  0  0  0  0  0  0  0  0  0  0
   36.5020   27.6360   38.0210 C   0  0  0  0  0  0  0  0  0  0  0  0
   36.6560   26.6370   38.9560 C   0  0  0  0  0  0  0  0  0  0  0  0
   36.7510   27.0060   40.2730 C   0  0  0  0  0  0  0  0  0  0  0  0
   36.9210   26.0210   41.2440 C   0  0  0  0  0  0  0  0  0  0  0  0
   37.0310   26.3220   42.5590 C   0  0  0  0  0  0  0  0  0  0  0  0
   36.9650   27.6650   42.9080 C   0  0  0  0  0  0  0  0  0  0  0  0
   36.7980   28.6250   41.9430 C   0  0  0  0  0  0  0  0  0  0  0  0
   36.6910   28.3320   40.6180 C   0  0  0  0  0  0  0  0  0  0  0  0
   36.3230   29.7280   37.6380 H   0  0  0  0  0  0  0  0  0  0  0  0
   36.4200   27.4080   36.9680 H   0  0  0  0  0  0  0  0  0  0  0  0
   36.6970   25.6060   38.6090 H   0  0  0  0  0  0  0  0  0  0  0  0
   36.9620   24.9920   40.9070 H   0  0  0  0  0  0  0  0  0  0  0  0
   37.1660   25.5460   43.3240 H   0  0  0  0  0  0  0  0  0  0  0  0
   37.0530   27.9100   43.9600 H   0  0  0  0  0  0  0  0  0  0  0  0
   36.7320   29.9330   42.3590 O   0  0  0  0  0  0  0  0  0  0  0  0
   36.4020   30.1780   43.2840 H   0  0  0  0  0  0  0  0  0  0  0  0
   38.1370   32.5830   40.4950 C   0  0  1  0  0  0  0  0  0  0  0  0
   37.2170   33.1000   39.4130 C   0  0  0  0  0  0  0  0  0  0  0  0
   37.5870   31.6080   39.5520 C   0  0  2  0  0  0  0  0  0  0  0  0
   37.7350   32.5580   41.5120 H   0  0  0  0  0  0  0  0  0  0  0  0
   36.1810   33.3770   39.6770 H   0  0  0  0  0  0  0  0  0  0  0  0
   37.7000   33.6280   38.5840 H   0  0  0  0  0  0  0  0  0  0  0  0
   38.1710   31.1760   38.7050 H   0  0  0  0  0  0  0  0  0  0  0  0
   41.3210   34.1260   39.3970 C   0  0  0  0  0  0  0  0  0  0  0  0
   42.2520   33.5540   40.3340 C   0  0  0  0  0  0  0  0  0  0  0  0
   41.7500   32.6520   41.3210 C   0  0  0  0  0  0  0  0  0  0  0  0
   40.4520   32.3830   41.3300 N   0  0  0  0  0  0  0  0  0  0  0  0
   39.6000   32.9420   40.4290 C   0  0  0  0  0  0  0  0  0  0  0  0
   40.0200   33.8150   39.4580 N   0  0  0  0  0  0  0  0  0  0  0  0
   41.7420   34.8070   38.6630 H   0  0  0  0  0  0  0  0  0  0  0  0
   43.2880   33.8240   40.2590 H   0  0  0  0  0  0  0  0  0  0  0  0
   42.7210   32.0680   42.2830 C   0  0  0  0  0  0  0  0  0  0  0  0
   42.0700   31.5730   43.3810 F   0  0  0  0  0  0  0  0  0  0  0  0
   43.6170   33.0400   42.7410 F   0  0  0  0  0  0  0  0  0  0  0  0
   43.4950   31.0870   41.6680 F   0  0  0  0  0  0  0  0  0  0  0  0
  1  2  1  0  0  0  0
  3  1  1  0  0  0  0
  3 12  1  0  0  0  0
  4  3  2  0  0  0  0
  5  4  1  0  0  0  0
  5  6  2  0  0  0  0
  6  7  1  0  0  0  0
  7 12  2  0  0  0  0
  7  8  1  0  0  0  0
  8  9  2  0  0  0  0
  9 10  1  0  0  0  0
  9 17  1  0  0  0  0
 10 18  1  0  0  0  0
 11 19  1  0  0  0  0
 11 10  2  0  0  0  0
 12 11  1  0  0  0  0
 13  4  1  0  0  0  0
 14  5  1  0  0  0  0
 15  6  1  0  0  0  0
 16  8  1  0  0  0  0
 19 20  1  0  0  0  0
 21 24  1  1  0  0  0
 22 23  1  0  0  0  0
 22 25  1  0  0  0  0
 22 21  1  0  0  0  0
 23 27  1  6  0  0  0
 23  1  1  0  0  0  0
 23 21  1  0  0  0  0
 26 22  1  0  0  0  0
 28 33  2  0  0  0  0
 28 29  1  0  0  0  0
 29 30  2  0  0  0  0
 30 31  1  0  0  0  0
 30 36  1  0  0  0  0
 32 21  1  0  0  0  0
 32 31  2  0  0  0  0
 33 32  1  0  0  0  0
 34 28  1  0  0  0  0
 35 29  1  0  0  0  0
 36 38  1  0  0  0  0
 36 37  1  0  0  0  0
 39 36  1  0  0  0  0
M  END
>  <minimizedAffinity>
-5.94117403

$$$$

 OpenBabel03242511153D

 39 42  0  0  1  0  0  0  0  0999 V2000
   36.6840   30.6760   39.0780 N   0  0  0  0  0  0  0  0  0  0  0  0
   35.8200   31.2400   38.9510 H   0  0  0  0  0  0  0  0  0  0  0  0
   38.0470   30.9210   38.8350 C   0  0  0  0  0  0  0  0  0  0  0  0
   38.7650   30.0440   38.0660 C   0  0  0  0  0  0  0  0  0  0  0  0
   40.0910   30.2480   37.7280 C   0  0  0  0  0  0  0  0  0  0  0  0
   40.7600   31.3690   38.1630 C   0  0  0  0  0  0  0  0  0  0  0  0
   40.0680   32.2650   38.9370 C   0  0  0  0  0  0  0  0  0  0  0  0
   40.7120   33.4160   39.3840 C   0  0  0  0  0  0  0  0  0  0  0  0
   40.0790   34.3430   40.1430 C   0  0  0  0  0  0  0  0  0  0  0  0
   38.7500   34.0970   40.4640 C   0  0  0  0  0  0  0  0  0  0  0  0
   38.1280   32.9590   40.0170 C   0  0  0  0  0  0  0  0  0  0  0  0
   38.7540   32.0250   39.2500 C   0  0  0  0  0  0  0  0  0  0  0  0
   38.2670   29.1390   37.7000 H   0  0  0  0  0  0  0  0  0  0  0  0
   40.5840   29.5060   37.1160 H   0  0  0  0  0  0  0  0  0  0  0  0
   41.8020   31.4940   37.8750 H   0  0  0  0  0  0  0  0  0  0  0  0
   41.7490   33.5480   39.1020 H   0  0  0  0  0  0  0  0  0  0  0  0
   40.5850   35.2510   40.4950 H   0  0  0  0  0  0  0  0  0  0  0  0
   38.2400   34.8360   41.0710 H   0  0  0  0  0  0  0  0  0  0  0  0
   36.8150   32.7740   40.3790 O   0  0  0  0  0  0  0  0  0  0  0  0
   36.4390   33.1760   41.2290 H   0  0  0  0  0  0  0  0  0  0  0  0
   35.8310   28.3880   38.6060 C   0  0  1  0  0  0  0  0  0  0  0  0
   34.7310   29.0840   39.3730 C   0  0  0  0  0  0  0  0  0  0  0  0
   36.2260   29.4050   39.5820 C   0  0  2  0  0  0  0  0  0  0  0  0
   35.9420   28.6570   37.5510 H   0  0  0  0  0  0  0  0  0  0  0  0
   34.1290   29.8580   38.8640 H   0  0  0  0  0  0  0  0  0  0  0  0
   34.2590   28.5020   40.1720 H   0  0  0  0  0  0  0  0  0  0  0  0
   36.6340   29.1610   40.5920 H   0  0  0  0  0  0  0  0  0  0  0  0
   36.0640   24.7160   38.1760 C   0  0  0  0  0  0  0  0  0  0  0  0
   36.5870   24.3130   39.4550 C   0  0  0  0  0  0  0  0  0  0  0  0
   36.8460   25.3250   40.4300 C   0  0  0  0  0  0  0  0  0  0  0  0
   36.5940   26.5880   40.1130 N   0  0  0  0  0  0  0  0  0  0  0  0
   36.1000   26.9330   38.8930 C   0  0  0  0  0  0  0  0  0  0  0  0
   35.8310   26.0090   37.9160 N   0  0  0  0  0  0  0  0  0  0  0  0
   35.8810   23.9170   37.4640 H   0  0  0  0  0  0  0  0  0  0  0  0
   36.7630   23.2700   39.6330 H   0  0  0  0  0  0  0  0  0  0  0  0
   37.3850   24.8970   41.7470 C   0  0  0  0  0  0  0  0  0  0  0  0
   36.3810   24.8150   42.6730 F   0  0  0  0  0  0  0  0  0  0  0  0
   38.3160   25.8230   42.2310 F   0  0  0  0  0  0  0  0  0  0  0  0
   38.0670   23.6880   41.6310 F   0  0  0  0  0  0  0  0  0  0  0  0
  1 23  1  0  0  0  0
  2  1  1  0  0  0  0
  3  1  1  0  0  0  0
  3 12  1  0  0  0  0
  4  3  2  0  0  0  0
  5  4  1  0  0  0  0
  5  6  2  0  0  0  0
  6  7  1  0  0  0  0
  7 12  2  0  0  0  0
  7  8  1  0  0  0  0
  8  9  2  0  0  0  0
  9 10  1  0  0  0  0
  9 17  1  0  0  0  0
 10 18  1  0  0  0  0
 11 19  1  0  0  0  0
 11 10  2  0  0  0  0
 12 11  1  0  0  0  0
 13  4  1  0  0  0  0
 14  5  1  0  0  0  0
 15  6  1  0  0  0  0
 16  8  1  0  0  0  0
 19 20  1  0  0  0  0
 21 24  1  6  0  0  0
 21 32  1  0  0  0  0
 21 22  1  0  0  0  0
 21 23  1  0  0  0  0
 22 23  1  0  0  0  0
 22 26  1  0  0  0  0
 23 27  1  1  0  0  0
 25 22  1  0  0  0  0
 28 29  1  0  0  0  0
 29 35  1  0  0  0  0
 29 30  2  0  0  0  0
 30 36  1  0  0  0  0
 31 30  1  0  0  0  0
 32 31  2  0  0  0  0
 33 28  2  0  0  0  0
 33 32  1  0  0  0  0
 34 28  1  0  0  0  0
 36 38  1  0  0  0  0
 36 37  1  0  0  0  0
 39 36  1  0  0  0  0
M  END
>  <minimizedAffinity>
-5.91159678

$$$$
