
 OpenBabel03252509143D

 40 43  0  0  1  0  0  0  0  0999 V2000
   47.8500   32.9040   42.6330 C   0  0  0  0  0  0  0  0  0  0  0  0
   46.8760   33.5160   41.8510 C   0  0  0  0  0  0  0  0  0  0  0  0
   45.7660   34.1420   42.3810 C   0  0  0  0  0  0  0  0  0  0  0  0
   45.5980   34.1720   43.7740 C   0  0  0  0  0  0  0  0  0  0  0  0
   44.6830   34.6680   44.6170 N   0  0  0  0  0  0  0  0  0  0  0  0
   45.0390   34.3950   45.8870 C   0  0  0  0  0  0  0  0  0  0  0  0
   46.1910   33.7210   45.8030 N   0  0  0  0  0  0  0  0  0  0  0  0
   46.5710   33.5620   44.5210 C   0  0  0  0  0  0  0  0  0  0  0  0
   47.6990   32.9230   44.0200 C   0  0  0  0  0  0  0  0  0  0  0  0
   48.7170   32.4160   42.1870 H   0  0  0  0  0  0  0  0  0  0  0  0
   43.8460   35.1760   44.2820 H   0  0  0  0  0  0  0  0  0  0  0  0
   44.4970   34.6680   46.8050 H   0  0  0  0  0  0  0  0  0  0  0  0
   48.4330   32.4600   44.6650 H   0  0  0  0  0  0  0  0  0  0  0  0
   46.4290   32.6140   38.3240 C   0  0  0  0  0  0  0  0  0  0  0  0
   47.3370   33.4560   37.6730 C   0  0  0  0  0  0  0  0  0  0  0  0
   48.0980   34.3300   38.4510 C   0  0  0  0  0  0  0  0  0  0  0  0
   47.9280   34.3290   39.8100 N   0  0  0  0  0  0  0  0  0  0  0  0
   47.0340   33.4940   40.4000 C   0  0  0  0  0  0  0  0  0  0  0  0
   46.2640   32.6190   39.6820 N   0  0  0  0  0  0  0  0  0  0  0  0
   45.8290   31.9300   37.7480 H   0  0  0  0  0  0  0  0  0  0  0  0
   47.4480   33.4340   36.6040 H   0  0  0  0  0  0  0  0  0  0  0  0
   48.8110   35.0030   38.0310 H   0  0  0  0  0  0  0  0  0  0  0  0
   44.5370   34.9150   41.3630 S   0  0  0  0  0  0  0  0  0  0  0  0
   41.9300   35.1190   41.6400 N   0  0  0  0  0  0  0  0  0  0  0  0
   42.9320   34.1000   41.4080 C   0  0  1  0  0  0  0  0  0  0  0  0
   42.7460   33.4560   40.0340 C   0  0  0  0  0  0  0  0  0  0  0  0
   41.4270   33.1780   39.7270 O   0  0  0  0  0  0  0  0  0  0  0  0
   40.5340   33.3070   40.7710 C   0  0  0  0  0  0  0  0  0  0  0  0
   40.6070   34.7100   41.2940 C   0  0  2  0  0  0  0  0  0  0  0  0
   41.9480   35.3250   42.6780 H   0  0  0  0  0  0  0  0  0  0  0  0
   42.9030   33.3050   42.1820 H   0  0  0  0  0  0  0  0  0  0  0  0
   43.0810   34.2230   39.2980 H   0  0  0  0  0  0  0  0  0  0  0  0
   43.2580   32.5040   39.9660 H   0  0  0  0  0  0  0  0  0  0  0  0
   40.7860   32.6270   41.6060 H   0  0  0  0  0  0  0  0  0  0  0  0
   39.5360   33.1190   40.3790 H   0  0  0  0  0  0  0  0  0  0  0  0
   39.9110   34.7700   42.1680 H   0  0  0  0  0  0  0  0  0  0  0  0
   40.0290   35.7100   40.2910 C   0  0  0  0  0  0  0  0  0  0  0  0
   40.9870   35.9970   39.3420 F   0  0  0  0  0  0  0  0  0  0  0  0
   38.8910   35.1890   39.7050 F   0  0  0  0  0  0  0  0  0  0  0  0
   39.7450   36.9180   40.9250 F   0  0  0  0  0  0  0  0  0  0  0  0
  1  9  1  0  0  0  0
  2  3  1  0  0  0  0
  2  1  2  0  0  0  0
  3  4  2  0  0  0  0
  4  8  1  0  0  0  0
  4  5  1  0  0  0  0
  5  6  1  0  0  0  0
  6 12  1  0  0  0  0
  7  6  2  0  0  0  0
  8  7  1  0  0  0  0
  9  8  2  0  0  0  0
  9 13  1  0  0  0  0
 10  1  1  0  0  0  0
 11  5  1  0  0  0  0
 14 19  1  0  0  0  0
 15 14  2  0  0  0  0
 15 16  1  0  0  0  0
 16 17  2  0  0  0  0
 17 18  1  0  0  0  0
 18  2  1  0  0  0  0
 19 18  2  0  0  0  0
 20 14  1  0  0  0  0
 21 15  1  0  0  0  0
 22 16  1  0  0  0  0
 23 25  1  0  0  0  0
 23  3  1  0  0  0  0
 24 30  1  0  0  0  0
 25 24  1  0  0  0  0
 25 31  1  1  0  0  0
 26 25  1  0  0  0  0
 27 26  1  0  0  0  0
 27 28  1  0  0  0  0
 28 29  1  0  0  0  0
 28 34  1  0  0  0  0
 29 24  1  0  0  0  0
 29 36  1  1  0  0  0
 32 26  1  0  0  0  0
 33 26  1  0  0  0  0
 35 28  1  0  0  0  0
 37 40  1  0  0  0  0
 37 29  1  0  0  0  0
 38 37  1  0  0  0  0
 39 37  1  0  0  0  0
M  END
>  <minimizedAffinity>
-6.59440804

>  <minimizedRMSD>
1.88445723

$$$$
