
 OpenBabel03252501153D

 23 24  0  0  1  0  0  0  0  0999 V2000
   38.0950   31.0770   39.9290 C   0  0  0  0  0  0  0  0  0  0  0  0
   38.1120   29.6910   40.0820 C   0  0  0  0  0  0  0  0  0  0  0  0
   38.8330   29.1970   41.1540 C   0  0  0  0  0  0  0  0  0  0  0  0
   39.4770   30.0570   41.9920 N   0  0  0  0  0  0  0  0  0  0  0  0
   39.4290   31.4040   41.7990 C   0  0  0  0  0  0  0  0  0  0  0  0
   38.7290   31.9010   40.7570 N   0  0  0  0  0  0  0  0  0  0  0  0
   37.5970   29.0230   39.4080 H   0  0  0  0  0  0  0  0  0  0  0  0
   39.9190   32.1150   42.4320 H   0  0  0  0  0  0  0  0  0  0  0  0
   38.9290   27.7220   41.4090 C   0  0  1  0  0  0  0  0  0  0  0  0
   39.3810   27.3810   42.7950 C   0  0  0  0  0  0  0  0  0  0  0  0
   37.9370   27.0980   42.2990 C   0  0  1  0  0  0  0  0  0  0  0  0
   39.3220   27.1760   40.5290 H   0  0  0  0  0  0  0  0  0  0  0  0
   40.0080   26.4590   42.9470 H   0  0  0  0  0  0  0  0  0  0  0  0
   39.4030   28.1270   43.5860 H   0  0  0  0  0  0  0  0  0  0  0  0
   37.6970   26.0330   42.0970 H   0  0  0  0  0  0  0  0  0  0  0  0
   36.8020   27.8800   42.8580 C   0  0  0  0  0  0  0  0  0  0  0  0
   37.2020   28.9190   43.6800 F   0  0  0  0  0  0  0  0  0  0  0  0
   35.9050   28.2990   41.8990 F   0  0  0  0  0  0  0  0  0  0  0  0
   36.1010   26.9850   43.6790 F   0  0  0  0  0  0  0  0  0  0  0  0
   37.3140   31.6390   38.7870 C   0  0  0  0  0  0  0  0  0  0  0  0
   36.7830   32.8520   39.2080 F   0  0  0  0  0  0  0  0  0  0  0  0
   36.2740   30.7880   38.5250 F   0  0  0  0  0  0  0  0  0  0  0  0
   38.1160   31.8840   37.7000 F   0  0  0  0  0  0  0  0  0  0  0  0
  1  2  2  0  0  0  0
  1  6  1  0  0  0  0
  2  3  1  0  0  0  0
  3  9  1  0  0  0  0
  3  4  2  0  0  0  0
  5  4  1  0  0  0  0
  5  8  1  0  0  0  0
  6  5  2  0  0  0  0
  7  2  1  0  0  0  0
  9 12  1  6  0  0  0
  9 11  1  0  0  0  0
  9 10  1  0  0  0  0
 10 13  1  0  0  0  0
 10 14  1  0  0  0  0
 11 15  1  6  0  0  0
 11 10  1  0  0  0  0
 11 16  1  0  0  0  0
 16 19  1  0  0  0  0
 16 17  1  0  0  0  0
 18 16  1  0  0  0  0
 20 21  1  0  0  0  0
 20  1  1  0  0  0  0
 22 20  1  0  0  0  0
 23 20  1  0  0  0  0
M  END
>  <minimizedAffinity>
-4.74474192

$$$$

 OpenBabel03252501153D

 23 24  0  0  1  0  0  0  0  0999 V2000
   37.7040   28.3720   42.4040 C   0  0  0  0  0  0  0  0  0  0  0  0
   36.9040   29.1690   41.5870 C   0  0  0  0  0  0  0  0  0  0  0  0
   37.3930   30.4260   41.2800 C   0  0  0  0  0  0  0  0  0  0  0  0
   38.6000   30.8220   41.7720 N   0  0  0  0  0  0  0  0  0  0  0  0
   39.3440   30.0050   42.5680 C   0  0  0  0  0  0  0  0  0  0  0  0
   38.8800   28.7750   42.8760 N   0  0  0  0  0  0  0  0  0  0  0  0
   35.9490   28.8410   41.2050 H   0  0  0  0  0  0  0  0  0  0  0  0
   40.2970   30.2750   42.9760 H   0  0  0  0  0  0  0  0  0  0  0  0
   36.6110   31.3720   40.4180 C   0  0  1  0  0  0  0  0  0  0  0  0
   37.4100   32.5440   39.9360 C   0  0  0  0  0  0  0  0  0  0  0  0
   36.9170   31.4250   38.9790 C   0  0  1  0  0  0  0  0  0  0  0  0
   35.5730   31.4990   40.7810 H   0  0  0  0  0  0  0  0  0  0  0  0
   36.8900   33.5320   39.8000 H   0  0  0  0  0  0  0  0  0  0  0  0
   38.4940   32.5650   40.0160 H   0  0  0  0  0  0  0  0  0  0  0  0
   36.0750   31.7010   38.3080 H   0  0  0  0  0  0  0  0  0  0  0  0
   37.9030   30.4960   38.3650 C   0  0  0  0  0  0  0  0  0  0  0  0
   39.2020   30.7140   38.7890 F   0  0  0  0  0  0  0  0  0  0  0  0
   37.5430   29.1700   38.4730 F   0  0  0  0  0  0  0  0  0  0  0  0
   37.8880   30.7910   36.9940 F   0  0  0  0  0  0  0  0  0  0  0  0
   37.2070   27.0040   42.7410 C   0  0  0  0  0  0  0  0  0  0  0  0
   36.1770   27.1560   43.6610 F   0  0  0  0  0  0  0  0  0  0  0  0
   38.2250   26.3230   43.3520 F   0  0  0  0  0  0  0  0  0  0  0  0
   36.6970   26.3670   41.6380 F   0  0  0  0  0  0  0  0  0  0  0  0
  1 20  1  0  0  0  0
  1  6  1  0  0  0  0
  2  1  2  0  0  0  0
  3  2  1  0  0  0  0
  3  4  2  0  0  0  0
  4  5  1  0  0  0  0
  5  6  2  0  0  0  0
  5  8  1  0  0  0  0
  7  2  1  0  0  0  0
  9 12  1  1  0  0  0
  9  3  1  0  0  0  0
 10 14  1  0  0  0  0
 10  9  1  0  0  0  0
 11 15  1  6  0  0  0
 11 10  1  0  0  0  0
 11  9  1  0  0  0  0
 13 10  1  0  0  0  0
 16 18  1  0  0  0  0
 16 17  1  0  0  0  0
 16 11  1  0  0  0  0
 19 16  1  0  0  0  0
 20 22  1  0  0  0  0
 20 21  1  0  0  0  0
 23 20  1  0  0  0  0
M  END
>  <minimizedAffinity>
-4.72727728

$$$$

 OpenBabel03252501153D

 23 24  0  0  1  0  0  0  0  0999 V2000
   36.1370   29.3760   39.9660 C   0  0  0  0  0  0  0  0  0  0  0  0
   36.1920   28.8060   41.2370 C   0  0  0  0  0  0  0  0  0  0  0  0
   37.2290   29.2200   42.0550 C   0  0  0  0  0  0  0  0  0  0  0  0
   38.1250   30.1390   41.6000 N   0  0  0  0  0  0  0  0  0  0  0  0
   38.0270   30.6660   40.3480 C   0  0  0  0  0  0  0  0  0  0  0  0
   37.0200   30.2720   39.5390 N   0  0  0  0  0  0  0  0  0  0  0  0
   35.4740   28.0770   41.5830 H   0  0  0  0  0  0  0  0  0  0  0  0
   38.7080   31.3910   39.9510 H   0  0  0  0  0  0  0  0  0  0  0  0
   37.3920   28.6650   43.4390 C   0  0  1  0  0  0  0  0  0  0  0  0
   36.6040   27.4140   43.6800 C   0  0  0  0  0  0  0  0  0  0  0  0
   38.1560   27.4190   43.6100 C   0  0  1  0  0  0  0  0  0  0  0  0
   37.4390   29.4660   44.2020 H   0  0  0  0  0  0  0  0  0  0  0  0
   36.1880   27.2280   44.7090 H   0  0  0  0  0  0  0  0  0  0  0  0
   36.1600   26.8550   42.8600 H   0  0  0  0  0  0  0  0  0  0  0  0
   38.6820   27.2950   44.5800 H   0  0  0  0  0  0  0  0  0  0  0  0
   38.8410   26.7700   42.4600 C   0  0  0  0  0  0  0  0  0  0  0  0
   37.9670   26.2610   41.5150 F   0  0  0  0  0  0  0  0  0  0  0  0
   39.8120   27.5620   41.8870 F   0  0  0  0  0  0  0  0  0  0  0  0
   39.5120   25.6640   43.0020 F   0  0  0  0  0  0  0  0  0  0  0  0
   35.0210   28.9570   39.0660 C   0  0  0  0  0  0  0  0  0  0  0  0
   35.0980   29.7400   37.9220 F   0  0  0  0  0  0  0  0  0  0  0  0
   33.8390   29.2410   39.6970 F   0  0  0  0  0  0  0  0  0  0  0  0
   35.1450   27.6440   38.6880 F   0  0  0  0  0  0  0  0  0  0  0  0
  1  2  1  0  0  0  0
  2  7  1  0  0  0  0
  2  3  2  0  0  0  0
  3  9  1  0  0  0  0
  4  3  1  0  0  0  0
  5  4  2  0  0  0  0
  6  1  2  0  0  0  0
  6  5  1  0  0  0  0
  8  5  1  0  0  0  0
  9 11  1  0  0  0  0
  9 10  1  0  0  0  0
  9 12  1  1  0  0  0
 10 13  1  0  0  0  0
 11 10  1  0  0  0  0
 11 15  1  1  0  0  0
 14 10  1  0  0  0  0
 16 19  1  0  0  0  0
 16 11  1  0  0  0  0
 17 16  1  0  0  0  0
 18 16  1  0  0  0  0
 20 22  1  0  0  0  0
 20  1  1  0  0  0  0
 21 20  1  0  0  0  0
 23 20  1  0  0  0  0
M  END
>  <minimizedAffinity>
-4.72531986

$$$$

 OpenBabel03252501153D

 23 24  0  0  1  0  0  0  0  0999 V2000
   37.7820   30.8740   40.8460 C   0  0  0  0  0  0  0  0  0  0  0  0
   37.2550   29.8800   41.6700 C   0  0  0  0  0  0  0  0  0  0  0  0
   38.0430   29.4790   42.7340 C   0  0  0  0  0  0  0  0  0  0  0  0
   39.2630   30.0530   42.9290 N   0  0  0  0  0  0  0  0  0  0  0  0
   39.7330   31.0210   42.0940 C   0  0  0  0  0  0  0  0  0  0  0  0
   38.9750   31.4230   41.0510 N   0  0  0  0  0  0  0  0  0  0  0  0
   36.2870   29.4350   41.5020 H   0  0  0  0  0  0  0  0  0  0  0  0
   40.6840   31.4990   42.2090 H   0  0  0  0  0  0  0  0  0  0  0  0
   37.5810   28.4100   43.6800 C   0  0  1  0  0  0  0  0  0  0  0  0
   36.5800   27.4720   43.0800 C   0  0  0  0  0  0  0  0  0  0  0  0
   38.0220   27.0260   43.4430 C   0  0  1  0  0  0  0  0  0  0  0  0
   37.4580   28.7960   44.7100 H   0  0  0  0  0  0  0  0  0  0  0  0
   35.7810   27.0390   43.7440 H   0  0  0  0  0  0  0  0  0  0  0  0
   36.4000   27.4400   42.0080 H   0  0  0  0  0  0  0  0  0  0  0  0
   38.1160   26.3800   44.3420 H   0  0  0  0  0  0  0  0  0  0  0  0
   38.9850   26.6980   42.3570 C   0  0  0  0  0  0  0  0  0  0  0  0
   38.5040   26.9840   41.0920 F   0  0  0  0  0  0  0  0  0  0  0  0
   40.2390   27.2300   42.5630 F   0  0  0  0  0  0  0  0  0  0  0  0
   39.1410   25.3050   42.4070 F   0  0  0  0  0  0  0  0  0  0  0  0
   36.9480   31.3360   39.6960 C   0  0  0  0  0  0  0  0  0  0  0  0
   36.8260   32.7150   39.8030 F   0  0  0  0  0  0  0  0  0  0  0  0
   35.7010   30.7880   39.8320 F   0  0  0  0  0  0  0  0  0  0  0  0
   37.5480   31.0560   38.4940 F   0  0  0  0  0  0  0  0  0  0  0  0
  1  6  2  0  0  0  0
  1  2  1  0  0  0  0
  2  3  2  0  0  0  0
  3  4  1  0  0  0  0
  3  9  1  0  0  0  0
  5  8  1  0  0  0  0
  5  4  2  0  0  0  0
  6  5  1  0  0  0  0
  7  2  1  0  0  0  0
  9 12  1  1  0  0  0
 10 11  1  0  0  0  0
 10  9  1  0  0  0  0
 10 13  1  0  0  0  0
 11  9  1  0  0  0  0
 11 15  1  1  0  0  0
 14 10  1  0  0  0  0
 16 19  1  0  0  0  0
 16 18  1  0  0  0  0
 16 11  1  0  0  0  0
 17 16  1  0  0  0  0
 20 21  1  0  0  0  0
 20 22  1  0  0  0  0
 20  1  1  0  0  0  0
 23 20  1  0  0  0  0
M  END
>  <minimizedAffinity>
-4.67505789

$$$$

 OpenBabel03252501153D

 23 24  0  0  1  0  0  0  0  0999 V2000
   36.9280   28.8570   41.8840 C   0  0  0  0  0  0  0  0  0  0  0  0
   37.3550   30.1590   41.6310 C   0  0  0  0  0  0  0  0  0  0  0  0
   36.6600   30.8600   40.6620 C   0  0  0  0  0  0  0  0  0  0  0  0
   35.6180   30.2680   40.0140 N   0  0  0  0  0  0  0  0  0  0  0  0
   35.2400   28.9910   40.2970 C   0  0  0  0  0  0  0  0  0  0  0  0
   35.9090   28.2950   41.2410 N   0  0  0  0  0  0  0  0  0  0  0  0
   38.1840   30.6140   42.1530 H   0  0  0  0  0  0  0  0  0  0  0  0
   34.4280   28.4870   39.8130 H   0  0  0  0  0  0  0  0  0  0  0  0
   37.0390   32.2650   40.3010 C   0  0  1  0  0  0  0  0  0  0  0  0
   38.4810   32.5820   40.5570 C   0  0  0  0  0  0  0  0  0  0  0  0
   37.8950   32.4810   39.1220 C   0  0  1  0  0  0  0  0  0  0  0  0
   36.2410   32.9880   40.5600 H   0  0  0  0  0  0  0  0  0  0  0  0
   38.7560   33.6260   40.8720 H   0  0  0  0  0  0  0  0  0  0  0  0
   39.2080   31.7990   40.7570 H   0  0  0  0  0  0  0  0  0  0  0  0
   37.7600   33.4450   38.5880 H   0  0  0  0  0  0  0  0  0  0  0  0
   38.2950   31.3500   38.2430 C   0  0  0  0  0  0  0  0  0  0  0  0
   38.9870   30.3540   38.9090 F   0  0  0  0  0  0  0  0  0  0  0  0
   37.2520   30.8420   37.5000 F   0  0  0  0  0  0  0  0  0  0  0  0
   39.1980   31.8980   37.3200 F   0  0  0  0  0  0  0  0  0  0  0  0
   37.6520   28.0800   42.9340 C   0  0  0  0  0  0  0  0  0  0  0  0
   38.4420   27.1420   42.2830 F   0  0  0  0  0  0  0  0  0  0  0  0
   36.7210   27.4070   43.6800 F   0  0  0  0  0  0  0  0  0  0  0  0
   38.4790   28.8860   43.6770 F   0  0  0  0  0  0  0  0  0  0  0  0
  1 20  1  0  0  0  0
  2  1  1  0  0  0  0
  2  7  1  0  0  0  0
  3  2  2  0  0  0  0
  4  5  2  0  0  0  0
  4  3  1  0  0  0  0
  5  6  1  0  0  0  0
  6  1  2  0  0  0  0
  8  5  1  0  0  0  0
  9 10  1  0  0  0  0
  9 12  1  1  0  0  0
  9  3  1  0  0  0  0
 10 14  1  0  0  0  0
 10 13  1  0  0  0  0
 11 15  1  6  0  0  0
 11  9  1  0  0  0  0
 11 10  1  0  0  0  0
 16 17  1  0  0  0  0
 16 11  1  0  0  0  0
 18 16  1  0  0  0  0
 19 16  1  0  0  0  0
 20 23  1  0  0  0  0
 20 22  1  0  0  0  0
 21 20  1  0  0  0  0
M  END
>  <minimizedAffinity>
-4.65605879

$$$$

 OpenBabel03252501153D

 23 24  0  0  1  0  0  0  0  0999 V2000
   37.0110   30.7670   40.1850 C   0  0  0  0  0  0  0  0  0  0  0  0
   37.5090   30.3200   41.4080 C   0  0  0  0  0  0  0  0  0  0  0  0
   36.8790   29.2220   41.9670 C   0  0  0  0  0  0  0  0  0  0  0  0
   35.8320   28.6390   41.3200 N   0  0  0  0  0  0  0  0  0  0  0  0
   35.3820   29.1150   40.1260 C   0  0  0  0  0  0  0  0  0  0  0  0
   35.9870   30.1860   39.5680 N   0  0  0  0  0  0  0  0  0  0  0  0
   38.3400   30.7940   41.9090 H   0  0  0  0  0  0  0  0  0  0  0  0
   34.5640   28.6880   39.5830 H   0  0  0  0  0  0  0  0  0  0  0  0
   37.3240   28.6620   43.2850 C   0  0  1  0  0  0  0  0  0  0  0  0
   36.6030   27.4110   43.6800 C   0  0  0  0  0  0  0  0  0  0  0  0
   38.1060   27.4150   43.2900 C   0  0  1  0  0  0  0  0  0  0  0  0
   37.5290   29.4610   44.0250 H   0  0  0  0  0  0  0  0  0  0  0  0
   36.4080   27.2210   44.7720 H   0  0  0  0  0  0  0  0  0  0  0  0
   35.9980   26.8540   42.9680 H   0  0  0  0  0  0  0  0  0  0  0  0
   38.8220   27.2880   44.1300 H   0  0  0  0  0  0  0  0  0  0  0  0
   38.5370   26.7700   42.0210 C   0  0  0  0  0  0  0  0  0  0  0  0
   37.5010   26.1660   41.3320 F   0  0  0  0  0  0  0  0  0  0  0  0
   39.2760   27.6050   41.2100 F   0  0  0  0  0  0  0  0  0  0  0  0
   39.4040   25.7360   42.4040 F   0  0  0  0  0  0  0  0  0  0  0  0
   37.6790   31.9440   39.5520 C   0  0  0  0  0  0  0  0  0  0  0  0
   37.3630   33.0580   40.3180 F   0  0  0  0  0  0  0  0  0  0  0  0
   37.1380   32.1170   38.3060 F   0  0  0  0  0  0  0  0  0  0  0  0
   39.0440   31.8060   39.5490 F   0  0  0  0  0  0  0  0  0  0  0  0
  1  2  1  0  0  0  0
  2  7  1  0  0  0  0
  2  3  2  0  0  0  0
  3  9  1  0  0  0  0
  4  3  1  0  0  0  0
  5  4  2  0  0  0  0
  6  5  1  0  0  0  0
  6  1  2  0  0  0  0
  8  5  1  0  0  0  0
  9 11  1  0  0  0  0
  9 10  1  0  0  0  0
  9 12  1  1  0  0  0
 10 13  1  0  0  0  0
 11 10  1  0  0  0  0
 11 15  1  1  0  0  0
 14 10  1  0  0  0  0
 16 19  1  0  0  0  0
 16 11  1  0  0  0  0
 17 16  1  0  0  0  0
 18 16  1  0  0  0  0
 20  1  1  0  0  0  0
 20 21  1  0  0  0  0
 22 20  1  0  0  0  0
 23 20  1  0  0  0  0
M  END
>  <minimizedAffinity>
-4.64582253

$$$$

 OpenBabel03252501153D

 23 24  0  0  1  0  0  0  0  0999 V2000
   37.1180   30.1110   39.1180 C   0  0  0  0  0  0  0  0  0  0  0  0
   38.0020   29.1980   39.6900 C   0  0  0  0  0  0  0  0  0  0  0  0
   38.0430   29.1620   41.0720 C   0  0  0  0  0  0  0  0  0  0  0  0
   37.2440   29.9930   41.7960 N   0  0  0  0  0  0  0  0  0  0  0  0
   36.3960   30.8690   41.1890 C   0  0  0  0  0  0  0  0  0  0  0  0
   36.3450   30.9150   39.8400 N   0  0  0  0  0  0  0  0  0  0  0  0
   38.6300   28.5460   39.1020 H   0  0  0  0  0  0  0  0  0  0  0  0
   35.7500   31.5400   41.7180 H   0  0  0  0  0  0  0  0  0  0  0  0
   38.9650   28.2250   41.7950 C   0  0  1  0  0  0  0  0  0  0  0  0
   38.7770   28.2260   43.2810 C   0  0  0  0  0  0  0  0  0  0  0  0
   38.3980   27.0070   42.3960 C   0  0  1  0  0  0  0  0  0  0  0  0
   39.9780   28.2160   41.3470 H   0  0  0  0  0  0  0  0  0  0  0  0
   39.6750   28.0590   43.9390 H   0  0  0  0  0  0  0  0  0  0  0  0
   37.9050   28.6820   43.7440 H   0  0  0  0  0  0  0  0  0  0  0  0
   39.0780   26.1310   42.4650 H   0  0  0  0  0  0  0  0  0  0  0  0
   36.9660   26.6510   42.2120 C   0  0  0  0  0  0  0  0  0  0  0  0
   36.1070   27.4010   42.9960 F   0  0  0  0  0  0  0  0  0  0  0  0
   36.5740   26.6370   40.8900 F   0  0  0  0  0  0  0  0  0  0  0  0
   36.8500   25.3280   42.6640 F   0  0  0  0  0  0  0  0  0  0  0  0
   37.0430   30.1630   37.6270 C   0  0  0  0  0  0  0  0  0  0  0  0
   37.2780   31.4790   37.2480 F   0  0  0  0  0  0  0  0  0  0  0  0
   35.7660   29.8370   37.2560 F   0  0  0  0  0  0  0  0  0  0  0  0
   38.0060   29.3780   37.0460 F   0  0  0  0  0  0  0  0  0  0  0  0
  1  2  2  0  0  0  0
  1  6  1  0  0  0  0
  2  3  1  0  0  0  0
  3  9  1  0  0  0  0
  3  4  2  0  0  0  0
  5  8  1  0  0  0  0
  5  4  1  0  0  0  0
  6  5  2  0  0  0  0
  7  2  1  0  0  0  0
  9 12  1  6  0  0  0
  9 11  1  0  0  0  0
  9 10  1  0  0  0  0
 10 14  1  0  0  0  0
 10 13  1  0  0  0  0
 11 15  1  1  0  0  0
 11 10  1  0  0  0  0
 16 11  1  0  0  0  0
 16 19  1  0  0  0  0
 16 17  1  0  0  0  0
 18 16  1  0  0  0  0
 20  1  1  0  0  0  0
 21 20  1  0  0  0  0
 22 20  1  0  0  0  0
 23 20  1  0  0  0  0
M  END
>  <minimizedAffinity>
-4.62002087

$$$$

 OpenBabel03252501153D

 23 24  0  0  1  0  0  0  0  0999 V2000
   36.6400   28.8450   41.5960 C   0  0  0  0  0  0  0  0  0  0  0  0
   36.5120   27.4640   41.4500 C   0  0  0  0  0  0  0  0  0  0  0  0
   37.2230   26.6810   42.3420 C   0  0  0  0  0  0  0  0  0  0  0  0
   37.9940   27.2710   43.2970 N   0  0  0  0  0  0  0  0  0  0  0  0
   38.0870   28.6260   43.3970 C   0  0  0  0  0  0  0  0  0  0  0  0
   37.3990   29.4030   42.5340 N   0  0  0  0  0  0  0  0  0  0  0  0
   35.8970   27.0120   40.6870 H   0  0  0  0  0  0  0  0  0  0  0  0
   38.6800   29.1310   44.1310 H   0  0  0  0  0  0  0  0  0  0  0  0
   37.1670   25.1840   42.2720 C   0  0  1  0  0  0  0  0  0  0  0  0
   36.7610   24.6610   40.9280 C   0  0  0  0  0  0  0  0  0  0  0  0
   38.1970   24.4790   41.4910 C   0  0  1  0  0  0  0  0  0  0  0  0
   36.7630   24.7410   43.2030 H   0  0  0  0  0  0  0  0  0  0  0  0
   36.1590   23.7110   40.8780 H   0  0  0  0  0  0  0  0  0  0  0  0
   36.7440   25.3020   40.0500 H   0  0  0  0  0  0  0  0  0  0  0  0
   38.4550   23.4540   41.8310 H   0  0  0  0  0  0  0  0  0  0  0  0
   39.3290   25.2140   40.8660 C   0  0  0  0  0  0  0  0  0  0  0  0
   38.9280   26.1390   39.9180 F   0  0  0  0  0  0  0  0  0  0  0  0
   40.1950   25.7640   41.7870 F   0  0  0  0  0  0  0  0  0  0  0  0
   40.0660   24.2430   40.1730 F   0  0  0  0  0  0  0  0  0  0  0  0
   35.8750   29.7160   40.6540 C   0  0  0  0  0  0  0  0  0  0  0  0
   36.5570   29.7150   39.4440 F   0  0  0  0  0  0  0  0  0  0  0  0
   35.8920   30.9920   41.1500 F   0  0  0  0  0  0  0  0  0  0  0  0
   34.6130   29.2260   40.4280 F   0  0  0  0  0  0  0  0  0  0  0  0
  1  6  1  0  0  0  0
  2  1  2  0  0  0  0
  2  3  1  0  0  0  0
  3  4  2  0  0  0  0
  4  5  1  0  0  0  0
  5  8  1  0  0  0  0
  6  5  2  0  0  0  0
  7  2  1  0  0  0  0
  9  3  1  0  0  0  0
  9 12  1  1  0  0  0
 10 11  1  0  0  0  0
 10  9  1  0  0  0  0
 11 15  1  1  0  0  0
 11  9  1  0  0  0  0
 13 10  1  0  0  0  0
 14 10  1  0  0  0  0
 16 11  1  0  0  0  0
 16 18  1  0  0  0  0
 17 16  1  0  0  0  0
 19 16  1  0  0  0  0
 20 22  1  0  0  0  0
 20  1  1  0  0  0  0
 21 20  1  0  0  0  0
 23 20  1  0  0  0  0
M  END
>  <minimizedAffinity>
-4.61553431

$$$$

 OpenBabel03252501153D

 23 24  0  0  1  0  0  0  0  0999 V2000
   37.8700   28.6880   41.7760 C   0  0  0  0  0  0  0  0  0  0  0  0
   38.0260   29.2510   40.5100 C   0  0  0  0  0  0  0  0  0  0  0  0
   38.8700   30.3440   40.4200 C   0  0  0  0  0  0  0  0  0  0  0  0
   39.4950   30.8110   41.5370 N   0  0  0  0  0  0  0  0  0  0  0  0
   39.3080   30.2250   42.7520 C   0  0  0  0  0  0  0  0  0  0  0  0
   38.4880   29.1580   42.8550 N   0  0  0  0  0  0  0  0  0  0  0  0
   37.5230   28.8690   39.6350 H   0  0  0  0  0  0  0  0  0  0  0  0
   39.7790   30.5580   43.6540 H   0  0  0  0  0  0  0  0  0  0  0  0
   39.1050   31.0350   39.1100 C   0  0  1  0  0  0  0  0  0  0  0  0
   37.9460   30.9380   38.1660 C   0  0  0  0  0  0  0  0  0  0  0  0
   38.3660   32.2770   38.8300 C   0  0  1  0  0  0  0  0  0  0  0  0
   40.1450   30.9030   38.7540 H   0  0  0  0  0  0  0  0  0  0  0  0
   38.1540   30.8840   37.0610 H   0  0  0  0  0  0  0  0  0  0  0  0
   36.9660   30.6060   38.4990 H   0  0  0  0  0  0  0  0  0  0  0  0
   38.8710   33.0080   38.1640 H   0  0  0  0  0  0  0  0  0  0  0  0
   37.4830   32.8970   39.8540 C   0  0  0  0  0  0  0  0  0  0  0  0
   36.7680   33.9820   39.3790 F   0  0  0  0  0  0  0  0  0  0  0  0
   36.6710   31.9880   40.4960 F   0  0  0  0  0  0  0  0  0  0  0  0
   38.3490   33.4030   40.8350 F   0  0  0  0  0  0  0  0  0  0  0  0
   36.9740   27.4990   41.9010 C   0  0  0  0  0  0  0  0  0  0  0  0
   36.0680   27.7710   42.9180 F   0  0  0  0  0  0  0  0  0  0  0  0
   37.7390   26.4320   42.2870 F   0  0  0  0  0  0  0  0  0  0  0  0
   36.2610   27.2820   40.7480 F   0  0  0  0  0  0  0  0  0  0  0  0
  1 20  1  0  0  0  0
  1  6  1  0  0  0  0
  2  1  2  0  0  0  0
  3  2  1  0  0  0  0
  3  4  2  0  0  0  0
  4  5  1  0  0  0  0
  5  6  2  0  0  0  0
  5  8  1  0  0  0  0
  7  2  1  0  0  0  0
  9 12  1  6  0  0  0
  9  3  1  0  0  0  0
 10 14  1  0  0  0  0
 10 11  1  0  0  0  0
 10  9  1  0  0  0  0
 11 15  1  6  0  0  0
 11  9  1  0  0  0  0
 11 16  1  0  0  0  0
 13 10  1  0  0  0  0
 16 18  1  0  0  0  0
 16 19  1  0  0  0  0
 17 16  1  0  0  0  0
 20 22  1  0  0  0  0
 20 21  1  0  0  0  0
 23 20  1  0  0  0  0
M  END
>  <minimizedAffinity>
-4.61053562

$$$$
