
 OpenBabel03252501153D

 23 24  0  0  1  0  0  0  0  0999 V2000
   43.9510   34.8470   42.2190 C   0  0  0  0  0  0  0  0  0  0  0  0
   42.6900   35.3410   41.8910 C   0  0  0  0  0  0  0  0  0  0  0  0
   41.8210   34.4570   41.2760 C   0  0  0  0  0  0  0  0  0  0  0  0
   42.2190   33.1790   41.0250 N   0  0  0  0  0  0  0  0  0  0  0  0
   43.4650   32.7440   41.3650 C   0  0  0  0  0  0  0  0  0  0  0  0
   44.3240   33.5960   41.9660 N   0  0  0  0  0  0  0  0  0  0  0  0
   42.3890   36.3570   42.0960 H   0  0  0  0  0  0  0  0  0  0  0  0
   43.8190   31.7500   41.1870 H   0  0  0  0  0  0  0  0  0  0  0  0
   40.4410   34.8830   40.8700 C   0  0  1  0  0  0  0  0  0  0  0  0
   40.3140   36.3570   40.6380 C   0  0  0  0  0  0  0  0  0  0  0  0
   40.2230   35.3240   39.4830 C   0  0  1  0  0  0  0  0  0  0  0  0
   39.6580   34.3210   41.4150 H   0  0  0  0  0  0  0  0  0  0  0  0
   39.3390   36.8610   40.8870 H   0  0  0  0  0  0  0  0  0  0  0  0
   41.1890   36.9970   40.5470 H   0  0  0  0  0  0  0  0  0  0  0  0
   39.2070   35.1530   39.0680 H   0  0  0  0  0  0  0  0  0  0  0  0
   41.3120   35.2550   38.4710 C   0  0  0  0  0  0  0  0  0  0  0  0
   41.0120   35.9190   37.2950 F   0  0  0  0  0  0  0  0  0  0  0  0
   42.5420   35.6240   38.9700 F   0  0  0  0  0  0  0  0  0  0  0  0
   41.4220   33.8980   38.1340 F   0  0  0  0  0  0  0  0  0  0  0  0
   44.9060   35.7750   42.8950 C   0  0  0  0  0  0  0  0  0  0  0  0
   46.1840   35.4320   42.4720 F   0  0  0  0  0  0  0  0  0  0  0  0
   44.8300   35.5520   44.2430 F   0  0  0  0  0  0  0  0  0  0  0  0
   44.6790   37.0800   42.5360 F   0  0  0  0  0  0  0  0  0  0  0  0
  1 20  1  0  0  0  0
  2  7  1  0  0  0  0
  2  1  2  0  0  0  0
  3  2  1  0  0  0  0
  4  3  2  0  0  0  0
  4  5  1  0  0  0  0
  5  6  2  0  0  0  0
  6  1  1  0  0  0  0
  8  5  1  0  0  0  0
  9  3  1  0  0  0  0
  9 12  1  1  0  0  0
 10  9  1  0  0  0  0
 10 13  1  0  0  0  0
 11 15  1  6  0  0  0
 11 10  1  0  0  0  0
 11  9  1  0  0  0  0
 14 10  1  0  0  0  0
 16 18  1  0  0  0  0
 16 11  1  0  0  0  0
 17 16  1  0  0  0  0
 19 16  1  0  0  0  0
 20 22  1  0  0  0  0
 21 20  1  0  0  0  0
 23 20  1  0  0  0  0
M  END
>  <minimizedAffinity>
-5.13743496

>  <minimizedRMSD>
7.10119152

$$$$
