
 OpenBabel03252509153D

 40 43  0  0  1  0  0  0  0  0999 V2000
   37.3080   32.9940   39.6860 C   0  0  0  0  0  0  0  0  0  0  0  0
   37.6810   31.6590   39.5650 C   0  0  0  0  0  0  0  0  0  0  0  0
   38.9840   31.2240   39.7000 C   0  0  0  0  0  0  0  0  0  0  0  0
   39.9930   32.1620   39.9730 C   0  0  0  0  0  0  0  0  0  0  0  0
   41.3170   32.1140   40.1630 N   0  0  0  0  0  0  0  0  0  0  0  0
   41.7890   33.3530   40.3980 C   0  0  0  0  0  0  0  0  0  0  0  0
   40.7240   34.1610   40.3460 N   0  0  0  0  0  0  0  0  0  0  0  0
   39.5980   33.4690   40.0880 C   0  0  0  0  0  0  0  0  0  0  0  0
   38.2970   33.9400   39.9570 C   0  0  0  0  0  0  0  0  0  0  0  0
   36.2700   33.3100   39.5730 H   0  0  0  0  0  0  0  0  0  0  0  0
   41.8460   31.2250   40.1240 H   0  0  0  0  0  0  0  0  0  0  0  0
   42.8320   33.6440   40.5910 H   0  0  0  0  0  0  0  0  0  0  0  0
   38.0510   34.9870   40.0600 H   0  0  0  0  0  0  0  0  0  0  0  0
   34.9290   29.2810   40.0370 C   0  0  0  0  0  0  0  0  0  0  0  0
   34.6990   28.8140   38.7380 C   0  0  0  0  0  0  0  0  0  0  0  0
   35.4930   29.3180   37.7070 C   0  0  0  0  0  0  0  0  0  0  0  0
   36.4570   30.2450   38.0040 N   0  0  0  0  0  0  0  0  0  0  0  0
   36.6450   30.6710   39.2790 C   0  0  0  0  0  0  0  0  0  0  0  0
   35.8940   30.2070   40.3260 N   0  0  0  0  0  0  0  0  0  0  0  0
   34.3310   28.9080   40.8520 H   0  0  0  0  0  0  0  0  0  0  0  0
   33.9350   28.0860   38.5360 H   0  0  0  0  0  0  0  0  0  0  0  0
   35.3810   29.0130   36.6920 H   0  0  0  0  0  0  0  0  0  0  0  0
   39.4350   29.5170   39.5400 S   0  0  0  0  0  0  0  0  0  0  0  0
   38.3660   28.7130   41.8030 N   0  0  0  0  0  0  0  0  0  0  0  0
   39.6370   28.6630   41.1120 C   0  0  1  0  0  0  0  0  0  0  0  0
   40.0150   27.2230   40.7660 C   0  0  0  0  0  0  0  0  0  0  0  0
   39.7760   26.3280   41.7910 O   0  0  0  0  0  0  0  0  0  0  0  0
   39.4630   26.8900   43.0120 C   0  0  0  0  0  0  0  0  0  0  0  0
   38.2440   27.7460   42.8470 C   0  0  2  0  0  0  0  0  0  0  0  0
   38.2990   29.6750   42.2390 H   0  0  0  0  0  0  0  0  0  0  0  0
   40.4550   29.1120   41.7150 H   0  0  0  0  0  0  0  0  0  0  0  0
   39.3340   26.9290   39.9330 H   0  0  0  0  0  0  0  0  0  0  0  0
   41.0710   27.1280   40.5480 H   0  0  0  0  0  0  0  0  0  0  0  0
   40.2790   27.5400   43.3790 H   0  0  0  0  0  0  0  0  0  0  0  0
   39.2450   26.0790   43.7050 H   0  0  0  0  0  0  0  0  0  0  0  0
   38.0450   28.2260   43.8370 H   0  0  0  0  0  0  0  0  0  0  0  0
   36.9970   26.8970   42.5890 C   0  0  0  0  0  0  0  0  0  0  0  0
   36.6620   26.9880   41.2540 F   0  0  0  0  0  0  0  0  0  0  0  0
   37.2340   25.5860   42.9520 F   0  0  0  0  0  0  0  0  0  0  0  0
   35.9100   27.4120   43.2920 F   0  0  0  0  0  0  0  0  0  0  0  0
  1  9  1  0  0  0  0
  2  1  2  0  0  0  0
  2  3  1  0  0  0  0
  3  4  2  0  0  0  0
  4  8  1  0  0  0  0
  4  5  1  0  0  0  0
  5  6  1  0  0  0  0
  6 12  1  0  0  0  0
  7  6  2  0  0  0  0
  8  7  1  0  0  0  0
  9 13  1  0  0  0  0
  9  8  2  0  0  0  0
 10  1  1  0  0  0  0
 11  5  1  0  0  0  0
 14 19  1  0  0  0  0
 14 20  1  0  0  0  0
 15 14  2  0  0  0  0
 16 17  2  0  0  0  0
 16 15  1  0  0  0  0
 17 18  1  0  0  0  0
 18  2  1  0  0  0  0
 18 19  2  0  0  0  0
 21 15  1  0  0  0  0
 22 16  1  0  0  0  0
 23  3  1  0  0  0  0
 23 25  1  0  0  0  0
 24 30  1  0  0  0  0
 24 29  1  0  0  0  0
 25 31  1  1  0  0  0
 25 24  1  0  0  0  0
 26 25  1  0  0  0  0
 26 27  1  0  0  0  0
 27 28  1  0  0  0  0
 28 34  1  0  0  0  0
 28 35  1  0  0  0  0
 29 28  1  0  0  0  0
 29 36  1  1  0  0  0
 32 26  1  0  0  0  0
 33 26  1  0  0  0  0
 37 29  1  0  0  0  0
 37 39  1  0  0  0  0
 37 40  1  0  0  0  0
 38 37  1  0  0  0  0
M  END
>  <minimizedAffinity>
-6.15360785

$$$$

 OpenBabel03252509153D

 40 43  0  0  1  0  0  0  0  0999 V2000
   37.6470   30.8050   37.2380 C   0  0  0  0  0  0  0  0  0  0  0  0
   36.9160   30.2420   38.2800 C   0  0  0  0  0  0  0  0  0  0  0  0
   36.9380   30.7340   39.5690 C   0  0  0  0  0  0  0  0  0  0  0  0
   37.7300   31.8560   39.8590 C   0  0  0  0  0  0  0  0  0  0  0  0
   37.9920   32.5860   40.9500 N   0  0  0  0  0  0  0  0  0  0  0  0
   38.8500   33.5770   40.6410 C   0  0  0  0  0  0  0  0  0  0  0  0
   39.1080   33.4370   39.3350 N   0  0  0  0  0  0  0  0  0  0  0  0
   38.4390   32.3910   38.8150 C   0  0  0  0  0  0  0  0  0  0  0  0
   38.4400   31.9200   37.5070 C   0  0  0  0  0  0  0  0  0  0  0  0
   37.6110   30.3940   36.2280 H   0  0  0  0  0  0  0  0  0  0  0  0
   37.5680   32.3710   41.8700 H   0  0  0  0  0  0  0  0  0  0  0  0
   39.2570   34.3430   41.3180 H   0  0  0  0  0  0  0  0  0  0  0  0
   39.0230   32.3890   36.7270 H   0  0  0  0  0  0  0  0  0  0  0  0
   35.8580   26.7540   37.8720 C   0  0  0  0  0  0  0  0  0  0  0  0
   34.5260   26.8820   37.4620 C   0  0  0  0  0  0  0  0  0  0  0  0
   34.0000   28.1670   37.3270 C   0  0  0  0  0  0  0  0  0  0  0  0
   34.8000   29.2450   37.6000 N   0  0  0  0  0  0  0  0  0  0  0  0
   36.0880   29.0740   37.9960 C   0  0  0  0  0  0  0  0  0  0  0  0
   36.6510   27.8350   38.1440 N   0  0  0  0  0  0  0  0  0  0  0  0
   36.2900   25.7730   37.9850 H   0  0  0  0  0  0  0  0  0  0  0  0
   33.9230   26.0170   37.2550 H   0  0  0  0  0  0  0  0  0  0  0  0
   32.9960   28.3490   37.0180 H   0  0  0  0  0  0  0  0  0  0  0  0
   35.9990   29.9990   40.8810 S   0  0  0  0  0  0  0  0  0  0  0  0
   36.3670   27.9070   42.4310 N   0  0  0  0  0  0  0  0  0  0  0  0
   37.0040   29.1700   42.1240 C   0  0  1  0  0  0  0  0  0  0  0  0
   38.3740   28.9500   41.4820 C   0  0  0  0  0  0  0  0  0  0  0  0
   39.1170   27.9580   42.0940 O   0  0  0  0  0  0  0  0  0  0  0  0
   38.6190   27.4960   43.2950 C   0  0  0  0  0  0  0  0  0  0  0  0
   37.2340   26.9690   43.0690 C   0  0  2  0  0  0  0  0  0  0  0  0
   35.5740   28.1250   43.0960 H   0  0  0  0  0  0  0  0  0  0  0  0
   37.1310   29.8010   43.0290 H   0  0  0  0  0  0  0  0  0  0  0  0
   38.1640   28.5870   40.4500 H   0  0  0  0  0  0  0  0  0  0  0  0
   38.9900   29.8390   41.5380 H   0  0  0  0  0  0  0  0  0  0  0  0
   38.5480   28.3070   44.0430 H   0  0  0  0  0  0  0  0  0  0  0  0
   39.2630   26.6850   43.6320 H   0  0  0  0  0  0  0  0  0  0  0  0
   36.8380   26.6490   44.0650 H   0  0  0  0  0  0  0  0  0  0  0  0
   37.2550   25.6790   42.2470 C   0  0  0  0  0  0  0  0  0  0  0  0
   36.9390   25.9770   40.9370 F   0  0  0  0  0  0  0  0  0  0  0  0
   38.4980   25.0830   42.3330 F   0  0  0  0  0  0  0  0  0  0  0  0
   36.2620   24.8080   42.6910 F   0  0  0  0  0  0  0  0  0  0  0  0
  1  9  2  0  0  0  0
  1  2  1  0  0  0  0
  2  3  2  0  0  0  0
  3  4  1  0  0  0  0
  3 23  1  0  0  0  0
  4  5  1  0  0  0  0
  5 11  1  0  0  0  0
  6  5  1  0  0  0  0
  6 12  1  0  0  0  0
  7  6  2  0  0  0  0
  8  7  1  0  0  0  0
  8  4  2  0  0  0  0
  9  8  1  0  0  0  0
 10  1  1  0  0  0  0
 13  9  1  0  0  0  0
 14 20  1  0  0  0  0
 14 19  1  0  0  0  0
 15 14  2  0  0  0  0
 16 15  1  0  0  0  0
 16 17  2  0  0  0  0
 17 18  1  0  0  0  0
 18 19  2  0  0  0  0
 18  2  1  0  0  0  0
 21 15  1  0  0  0  0
 22 16  1  0  0  0  0
 23 25  1  0  0  0  0
 24 29  1  0  0  0  0
 24 30  1  0  0  0  0
 25 24  1  0  0  0  0
 25 31  1  1  0  0  0
 26 33  1  0  0  0  0
 26 27  1  0  0  0  0
 26 25  1  0  0  0  0
 27 28  1  0  0  0  0
 28 35  1  0  0  0  0
 28 34  1  0  0  0  0
 29 28  1  0  0  0  0
 29 36  1  1  0  0  0
 32 26  1  0  0  0  0
 37 39  1  0  0  0  0
 37 40  1  0  0  0  0
 37 29  1  0  0  0  0
 38 37  1  0  0  0  0
M  END
>  <minimizedAffinity>
-5.92889309

$$$$

 OpenBabel03252509153D

 40 43  0  0  1  0  0  0  0  0999 V2000
   34.9760   28.6050   39.3650 C   0  0  0  0  0  0  0  0  0  0  0  0
   36.3440   28.5820   39.6200 C   0  0  0  0  0  0  0  0  0  0  0  0
   37.2960   28.8480   38.6570 C   0  0  0  0  0  0  0  0  0  0  0  0
   36.8810   29.1580   37.3530 C   0  0  0  0  0  0  0  0  0  0  0  0
   37.4920   29.4610   36.2010 N   0  0  0  0  0  0  0  0  0  0  0  0
   36.5740   29.6720   35.2390 C   0  0  0  0  0  0  0  0  0  0  0  0
   35.3860   29.4910   35.8270 N   0  0  0  0  0  0  0  0  0  0  0  0
   35.5300   29.1730   37.1280 C   0  0  0  0  0  0  0  0  0  0  0  0
   34.5450   28.9100   38.0740 C   0  0  0  0  0  0  0  0  0  0  0  0
   34.2460   28.3900   40.1450 H   0  0  0  0  0  0  0  0  0  0  0  0
   38.5240   29.5100   36.1230 H   0  0  0  0  0  0  0  0  0  0  0  0
   36.7580   29.9370   34.1870 H   0  0  0  0  0  0  0  0  0  0  0  0
   33.4920   28.9390   37.8320 H   0  0  0  0  0  0  0  0  0  0  0  0
   37.3700   26.6620   42.5710 C   0  0  0  0  0  0  0  0  0  0  0  0
   37.6380   27.6620   43.5130 C   0  0  0  0  0  0  0  0  0  0  0  0
   37.4630   28.9920   43.1270 C   0  0  0  0  0  0  0  0  0  0  0  0
   37.0410   29.2640   41.8530 N   0  0  0  0  0  0  0  0  0  0  0  0
   36.7930   28.2610   40.9710 C   0  0  0  0  0  0  0  0  0  0  0  0
   36.9490   26.9410   41.3000 N   0  0  0  0  0  0  0  0  0  0  0  0
   37.4970   25.6260   42.8430 H   0  0  0  0  0  0  0  0  0  0  0  0
   37.9680   27.4180   44.5050 H   0  0  0  0  0  0  0  0  0  0  0  0
   37.6450   29.8110   43.7850 H   0  0  0  0  0  0  0  0  0  0  0  0
   39.0340   28.8120   39.0070 S   0  0  0  0  0  0  0  0  0  0  0  0
   38.7910   31.4170   38.7440 N   0  0  0  0  0  0  0  0  0  0  0  0
   39.7900   30.4420   39.1260 C   0  0  1  0  0  0  0  0  0  0  0  0
   40.1910   30.6160   40.5920 C   0  0  0  0  0  0  0  0  0  0  0  0
   40.3680   31.9350   40.9620 O   0  0  0  0  0  0  0  0  0  0  0  0
   40.3850   32.8480   39.9270 C   0  0  0  0  0  0  0  0  0  0  0  0
   39.0910   32.7440   39.1770 C   0  0  2  0  0  0  0  0  0  0  0  0
   38.7610   31.4170   37.6860 H   0  0  0  0  0  0  0  0  0  0  0  0
   40.7010   30.5130   38.4960 H   0  0  0  0  0  0  0  0  0  0  0  0
   39.3230   30.2410   41.1830 H   0  0  0  0  0  0  0  0  0  0  0  0
   41.1350   30.1320   40.8080 H   0  0  0  0  0  0  0  0  0  0  0  0
   41.2020   32.6360   39.2130 H   0  0  0  0  0  0  0  0  0  0  0  0
   40.4710   33.8420   40.3630 H   0  0  0  0  0  0  0  0  0  0  0  0
   39.1540   33.4570   38.3170 H   0  0  0  0  0  0  0  0  0  0  0  0
   37.9200   33.2680   40.0090 C   0  0  0  0  0  0  0  0  0  0  0  0
   37.2780   32.2010   40.6020 F   0  0  0  0  0  0  0  0  0  0  0  0
   38.3760   34.1610   40.9590 F   0  0  0  0  0  0  0  0  0  0  0  0
   36.9740   33.8730   39.1830 F   0  0  0  0  0  0  0  0  0  0  0  0
  1  2  1  0  0  0  0
  1 10  1  0  0  0  0
  2 18  1  0  0  0  0
  3 23  1  0  0  0  0
  3  2  2  0  0  0  0
  4  3  1  0  0  0  0
  5  4  1  0  0  0  0
  6  7  2  0  0  0  0
  6  5  1  0  0  0  0
  7  8  1  0  0  0  0
  8  4  2  0  0  0  0
  8  9  1  0  0  0  0
  9  1  2  0  0  0  0
 11  5  1  0  0  0  0
 12  6  1  0  0  0  0
 13  9  1  0  0  0  0
 14 20  1  0  0  0  0
 14 15  1  0  0  0  0
 15 21  1  0  0  0  0
 16 15  2  0  0  0  0
 16 22  1  0  0  0  0
 17 16  1  0  0  0  0
 18 19  1  0  0  0  0
 18 17  2  0  0  0  0
 19 14  2  0  0  0  0
 23 25  1  0  0  0  0
 24 25  1  0  0  0  0
 24 29  1  0  0  0  0
 25 31  1  6  0  0  0
 25 26  1  0  0  0  0
 26 33  1  0  0  0  0
 26 27  1  0  0  0  0
 26 32  1  0  0  0  0
 28 35  1  0  0  0  0
 28 27  1  0  0  0  0
 29 36  1  6  0  0  0
 29 28  1  0  0  0  0
 29 37  1  0  0  0  0
 30 24  1  0  0  0  0
 34 28  1  0  0  0  0
 37 38  1  0  0  0  0
 37 39  1  0  0  0  0
 40 37  1  0  0  0  0
M  END
>  <minimizedAffinity>
-5.92284107

$$$$

 OpenBabel03252509153D

 40 43  0  0  1  0  0  0  0  0999 V2000
   38.1530   30.9260   37.5490 C   0  0  0  0  0  0  0  0  0  0  0  0
   38.5720   31.2410   38.8380 C   0  0  0  0  0  0  0  0  0  0  0  0
   37.8350   30.9440   39.9660 C   0  0  0  0  0  0  0  0  0  0  0  0
   36.5990   30.2920   39.8230 C   0  0  0  0  0  0  0  0  0  0  0  0
   35.6440   29.8600   40.6550 N   0  0  0  0  0  0  0  0  0  0  0  0
   34.6490   29.2900   39.9490 C   0  0  0  0  0  0  0  0  0  0  0  0
   35.0160   29.3840   38.6660 N   0  0  0  0  0  0  0  0  0  0  0  0
   36.2100   29.9940   38.5440 C   0  0  0  0  0  0  0  0  0  0  0  0
   36.9270   30.2780   37.3880 C   0  0  0  0  0  0  0  0  0  0  0  0
   38.7560   31.1730   36.6750 H   0  0  0  0  0  0  0  0  0  0  0  0
   35.7160   29.9750   41.6810 H   0  0  0  0  0  0  0  0  0  0  0  0
   33.7250   28.8400   40.3430 H   0  0  0  0  0  0  0  0  0  0  0  0
   36.5640   30.0150   36.4050 H   0  0  0  0  0  0  0  0  0  0  0  0
   42.1810   31.8120   39.1620 C   0  0  0  0  0  0  0  0  0  0  0  0
   42.2610   33.2000   39.3200 C   0  0  0  0  0  0  0  0  0  0  0  0
   41.0720   33.9320   39.3150 C   0  0  0  0  0  0  0  0  0  0  0  0
   39.8850   33.2690   39.1550 N   0  0  0  0  0  0  0  0  0  0  0  0
   39.8540   31.9200   39.0050 C   0  0  0  0  0  0  0  0  0  0  0  0
   40.9910   31.1560   39.0030 N   0  0  0  0  0  0  0  0  0  0  0  0
   43.0830   31.2220   39.1620 H   0  0  0  0  0  0  0  0  0  0  0  0
   43.2080   33.6920   39.4420 H   0  0  0  0  0  0  0  0  0  0  0  0
   41.0480   34.9920   39.4290 H   0  0  0  0  0  0  0  0  0  0  0  0
   38.3900   31.3570   41.5980 S   0  0  0  0  0  0  0  0  0  0  0  0
   37.8340   29.3130   43.1560 N   0  0  0  0  0  0  0  0  0  0  0  0
   38.9840   29.9470   42.5470 C   0  0  1  0  0  0  0  0  0  0  0  0
   39.6540   29.0110   41.5400 C   0  0  0  0  0  0  0  0  0  0  0  0
   39.7670   27.7080   41.9880 O   0  0  0  0  0  0  0  0  0  0  0  0
   39.4800   27.5100   43.3230 C   0  0  0  0  0  0  0  0  0  0  0  0
   38.0780   27.9740   43.5850 C   0  0  2  0  0  0  0  0  0  0  0  0
   37.5900   29.8910   44.0090 H   0  0  0  0  0  0  0  0  0  0  0  0
   39.7370   30.2550   43.3030 H   0  0  0  0  0  0  0  0  0  0  0  0
   38.9670   28.9790   40.6620 H   0  0  0  0  0  0  0  0  0  0  0  0
   40.6670   29.3220   41.3170 H   0  0  0  0  0  0  0  0  0  0  0  0
   40.1520   28.0990   43.9740 H   0  0  0  0  0  0  0  0  0  0  0  0
   39.5510   26.4420   43.5230 H   0  0  0  0  0  0  0  0  0  0  0  0
   37.8920   27.8480   44.6810 H   0  0  0  0  0  0  0  0  0  0  0  0
   37.0530   27.0500   42.9260 C   0  0  0  0  0  0  0  0  0  0  0  0
   35.8970   27.0550   43.6780 F   0  0  0  0  0  0  0  0  0  0  0  0
   36.8040   27.4660   41.6330 F   0  0  0  0  0  0  0  0  0  0  0  0
   37.5120   25.7340   42.9380 F   0  0  0  0  0  0  0  0  0  0  0  0
  1  2  1  0  0  0  0
  2 18  1  0  0  0  0
  2  3  2  0  0  0  0
  3 23  1  0  0  0  0
  4  3  1  0  0  0  0
  4  5  1  0  0  0  0
  5 11  1  0  0  0  0
  6 12  1  0  0  0  0
  6  5  1  0  0  0  0
  7  6  2  0  0  0  0
  8  7  1  0  0  0  0
  8  4  2  0  0  0  0
  9  1  2  0  0  0  0
  9  8  1  0  0  0  0
 10  1  1  0  0  0  0
 13  9  1  0  0  0  0
 14 15  1  0  0  0  0
 15 21  1  0  0  0  0
 16 15  2  0  0  0  0
 16 22  1  0  0  0  0
 17 16  1  0  0  0  0
 18 17  2  0  0  0  0
 19 18  1  0  0  0  0
 19 14  2  0  0  0  0
 20 14  1  0  0  0  0
 23 25  1  0  0  0  0
 24 29  1  0  0  0  0
 24 30  1  0  0  0  0
 25 24  1  0  0  0  0
 25 31  1  1  0  0  0
 26 27  1  0  0  0  0
 26 25  1  0  0  0  0
 27 28  1  0  0  0  0
 28 35  1  0  0  0  0
 28 29  1  0  0  0  0
 28 34  1  0  0  0  0
 29 36  1  1  0  0  0
 32 26  1  0  0  0  0
 33 26  1  0  0  0  0
 37 40  1  0  0  0  0
 37 29  1  0  0  0  0
 37 38  1  0  0  0  0
 39 37  1  0  0  0  0
M  END
>  <minimizedAffinity>
-5.86282921

$$$$

 OpenBabel03252509153D

 40 43  0  0  1  0  0  0  0  0999 V2000
   37.6010   29.6570   36.9730 C   0  0  0  0  0  0  0  0  0  0  0  0
   38.1710   30.2710   38.0850 C   0  0  0  0  0  0  0  0  0  0  0  0
   37.5140   30.4110   39.2900 C   0  0  0  0  0  0  0  0  0  0  0  0
   36.2060   29.9160   39.4170 C   0  0  0  0  0  0  0  0  0  0  0  0
   35.2910   29.8730   40.3930 N   0  0  0  0  0  0  0  0  0  0  0  0
   34.1770   29.2620   39.9460 C   0  0  0  0  0  0  0  0  0  0  0  0
   34.4310   28.9330   38.6740 N   0  0  0  0  0  0  0  0  0  0  0  0
   35.6680   29.3180   38.3080 C   0  0  0  0  0  0  0  0  0  0  0  0
   36.3020   29.1600   37.0810 C   0  0  0  0  0  0  0  0  0  0  0  0
   38.1440   29.5600   36.0330 H   0  0  0  0  0  0  0  0  0  0  0  0
   35.4700   30.2670   41.3330 H   0  0  0  0  0  0  0  0  0  0  0  0
   33.2490   29.0720   40.5070 H   0  0  0  0  0  0  0  0  0  0  0  0
   35.8210   28.6760   36.2430 H   0  0  0  0  0  0  0  0  0  0  0  0
   40.9690   32.5960   37.6180 C   0  0  0  0  0  0  0  0  0  0  0  0
   42.0860   31.7650   37.7550 C   0  0  0  0  0  0  0  0  0  0  0  0
   41.8710   30.4090   38.0060 C   0  0  0  0  0  0  0  0  0  0  0  0
   40.5860   29.9490   38.1100 N   0  0  0  0  0  0  0  0  0  0  0  0
   39.5300   30.7910   37.9700 C   0  0  0  0  0  0  0  0  0  0  0  0
   39.6880   32.1290   37.7230 N   0  0  0  0  0  0  0  0  0  0  0  0
   41.1060   33.6470   37.4240 H   0  0  0  0  0  0  0  0  0  0  0  0
   43.0840   32.1560   37.6690 H   0  0  0  0  0  0  0  0  0  0  0  0
   42.6690   29.7110   38.1230 H   0  0  0  0  0  0  0  0  0  0  0  0
   38.2620   31.1970   40.6920 S   0  0  0  0  0  0  0  0  0  0  0  0
   37.6380   29.5440   42.6390 N   0  0  0  0  0  0  0  0  0  0  0  0
   38.8140   30.0510   41.9660 C   0  0  1  0  0  0  0  0  0  0  0  0
   39.5500   28.9280   41.2330 C   0  0  0  0  0  0  0  0  0  0  0  0
   39.6510   27.7630   41.9690 O   0  0  0  0  0  0  0  0  0  0  0  0
   39.2890   27.8630   43.2970 C   0  0  0  0  0  0  0  0  0  0  0  0
   37.8710   28.3410   43.3720 C   0  0  2  0  0  0  0  0  0  0  0  0
   37.3390   30.2930   43.3250 H   0  0  0  0  0  0  0  0  0  0  0  0
   39.5190   30.5390   42.6720 H   0  0  0  0  0  0  0  0  0  0  0  0
   38.9160   28.6840   40.3500 H   0  0  0  0  0  0  0  0  0  0  0  0
   40.5710   29.2050   41.0010 H   0  0  0  0  0  0  0  0  0  0  0  0
   39.9170   28.5990   43.8330 H   0  0  0  0  0  0  0  0  0  0  0  0
   39.3600   26.8700   43.7360 H   0  0  0  0  0  0  0  0  0  0  0  0
   37.6230   28.4610   44.4560 H   0  0  0  0  0  0  0  0  0  0  0  0
   36.8940   27.2700   42.8840 C   0  0  0  0  0  0  0  0  0  0  0  0
   35.7670   27.2940   43.6790 F   0  0  0  0  0  0  0  0  0  0  0  0
   36.5710   27.4920   41.5600 F   0  0  0  0  0  0  0  0  0  0  0  0
   37.4500   26.0020   43.0470 F   0  0  0  0  0  0  0  0  0  0  0  0
  1  9  2  0  0  0  0
  1  2  1  0  0  0  0
  2  3  2  0  0  0  0
  3  4  1  0  0  0  0
  3 23  1  0  0  0  0
  4  5  1  0  0  0  0
  5 11  1  0  0  0  0
  6  5  1  0  0  0  0
  6 12  1  0  0  0  0
  7  6  2  0  0  0  0
  8  7  1  0  0  0  0
  8  4  2  0  0  0  0
  9  8  1  0  0  0  0
 10  1  1  0  0  0  0
 13  9  1  0  0  0  0
 14 19  2  0  0  0  0
 14 15  1  0  0  0  0
 15 16  2  0  0  0  0
 16 17  1  0  0  0  0
 16 22  1  0  0  0  0
 18  2  1  0  0  0  0
 18 17  2  0  0  0  0
 19 18  1  0  0  0  0
 20 14  1  0  0  0  0
 21 15  1  0  0  0  0
 23 25  1  0  0  0  0
 24 30  1  0  0  0  0
 24 29  1  0  0  0  0
 25 24  1  0  0  0  0
 25 31  1  1  0  0  0
 26 25  1  0  0  0  0
 26 27  1  0  0  0  0
 27 28  1  0  0  0  0
 28 29  1  0  0  0  0
 28 35  1  0  0  0  0
 28 34  1  0  0  0  0
 29 36  1  1  0  0  0
 32 26  1  0  0  0  0
 33 26  1  0  0  0  0
 37 40  1  0  0  0  0
 37 29  1  0  0  0  0
 37 38  1  0  0  0  0
 39 37  1  0  0  0  0
M  END
>  <minimizedAffinity>
-5.82530689

$$$$

 OpenBabel03252509153D

 40 43  0  0  1  0  0  0  0  0999 V2000
   37.0050   32.1080   39.5590 C   0  0  0  0  0  0  0  0  0  0  0  0
   37.2590   30.8060   39.1350 C   0  0  0  0  0  0  0  0  0  0  0  0
   38.5080   30.2230   39.1980 C   0  0  0  0  0  0  0  0  0  0  0  0
   39.5840   30.9640   39.7120 C   0  0  0  0  0  0  0  0  0  0  0  0
   40.8870   30.7400   39.9210 N   0  0  0  0  0  0  0  0  0  0  0  0
   41.4590   31.8370   40.4540 C   0  0  0  0  0  0  0  0  0  0  0  0
   40.4770   32.7380   40.5660 N   0  0  0  0  0  0  0  0  0  0  0  0
   39.3060   32.2420   40.1220 C   0  0  0  0  0  0  0  0  0  0  0  0
   38.0620   32.8600   40.0720 C   0  0  0  0  0  0  0  0  0  0  0  0
   36.0080   32.5440   39.4970 H   0  0  0  0  0  0  0  0  0  0  0  0
   41.3340   29.8360   39.6860 H   0  0  0  0  0  0  0  0  0  0  0  0
   42.5140   31.9680   40.7370 H   0  0  0  0  0  0  0  0  0  0  0  0
   37.9080   33.8730   40.4120 H   0  0  0  0  0  0  0  0  0  0  0  0
   34.1550   28.8630   38.9410 C   0  0  0  0  0  0  0  0  0  0  0  0
   34.0740   28.5470   37.5810 C   0  0  0  0  0  0  0  0  0  0  0  0
   35.0880   29.0030   36.7380 C   0  0  0  0  0  0  0  0  0  0  0  0
   36.1140   29.7380   37.2700 N   0  0  0  0  0  0  0  0  0  0  0  0
   36.1520   30.0220   38.5970 C   0  0  0  0  0  0  0  0  0  0  0  0
   35.1830   29.5970   39.4660 N   0  0  0  0  0  0  0  0  0  0  0  0
   33.3860   28.5230   39.6150 H   0  0  0  0  0  0  0  0  0  0  0  0
   33.2560   27.9680   37.1920 H   0  0  0  0  0  0  0  0  0  0  0  0
   35.0990   28.8040   35.6900 H   0  0  0  0  0  0  0  0  0  0  0  0
   38.8080   28.5630   38.6520 S   0  0  0  0  0  0  0  0  0  0  0  0
   38.6230   28.0340   41.2200 N   0  0  0  0  0  0  0  0  0  0  0  0
   38.6880   27.3300   39.9580 C   0  0  1  0  0  0  0  0  0  0  0  0
   37.3930   26.5600   39.6940 C   0  0  0  0  0  0  0  0  0  0  0  0
   36.9100   25.8960   40.8060 O   0  0  0  0  0  0  0  0  0  0  0  0
   37.7680   25.8400   41.8860 C   0  0  0  0  0  0  0  0  0  0  0  0
   38.1160   27.2400   42.2930 C   0  0  2  0  0  0  0  0  0  0  0  0
   39.6160   28.3120   41.4600 H   0  0  0  0  0  0  0  0  0  0  0  0
   39.5400   26.6180   39.9230 H   0  0  0  0  0  0  0  0  0  0  0  0
   36.6330   27.3350   39.4410 H   0  0  0  0  0  0  0  0  0  0  0  0
   37.5300   25.7910   38.9440 H   0  0  0  0  0  0  0  0  0  0  0  0
   38.7110   25.3240   41.6280 H   0  0  0  0  0  0  0  0  0  0  0  0
   37.2420   25.3470   42.7020 H   0  0  0  0  0  0  0  0  0  0  0  0
   38.8490   27.1630   43.1350 H   0  0  0  0  0  0  0  0  0  0  0  0
   36.9150   27.9570   42.9120 C   0  0  0  0  0  0  0  0  0  0  0  0
   36.1970   27.0560   43.6710 F   0  0  0  0  0  0  0  0  0  0  0  0
   37.3430   29.0220   43.6800 F   0  0  0  0  0  0  0  0  0  0  0  0
   36.0460   28.3910   41.9120 F   0  0  0  0  0  0  0  0  0  0  0  0
  1  9  1  0  0  0  0
  2  3  1  0  0  0  0
  2  1  2  0  0  0  0
  3  4  2  0  0  0  0
  4  5  1  0  0  0  0
  4  8  1  0  0  0  0
  5  6  1  0  0  0  0
  6  7  2  0  0  0  0
  6 12  1  0  0  0  0
  8  7  1  0  0  0  0
  9  8  2  0  0  0  0
  9 13  1  0  0  0  0
 10  1  1  0  0  0  0
 11  5  1  0  0  0  0
 14 19  1  0  0  0  0
 14 20  1  0  0  0  0
 15 14  2  0  0  0  0
 16 17  2  0  0  0  0
 16 15  1  0  0  0  0
 17 18  1  0  0  0  0
 18  2  1  0  0  0  0
 18 19  2  0  0  0  0
 21 15  1  0  0  0  0
 22 16  1  0  0  0  0
 23  3  1  0  0  0  0
 23 25  1  0  0  0  0
 24 30  1  0  0  0  0
 24 29  1  0  0  0  0
 25 31  1  6  0  0  0
 25 24  1  0  0  0  0
 26 25  1  0  0  0  0
 26 27  1  0  0  0  0
 27 28  1  0  0  0  0
 28 29  1  0  0  0  0
 28 35  1  0  0  0  0
 29 37  1  0  0  0  0
 29 36  1  1  0  0  0
 32 26  1  0  0  0  0
 33 26  1  0  0  0  0
 34 28  1  0  0  0  0
 37 38  1  0  0  0  0
 37 39  1  0  0  0  0
 40 37  1  0  0  0  0
M  END
>  <minimizedAffinity>
-5.76230192

$$$$

 OpenBabel03252509153D

 40 43  0  0  1  0  0  0  0  0999 V2000
   36.6810   26.5280   39.3240 C   0  0  0  0  0  0  0  0  0  0  0  0
   36.4680   27.8990   39.2150 C   0  0  0  0  0  0  0  0  0  0  0  0
   36.5080   28.7570   40.2950 C   0  0  0  0  0  0  0  0  0  0  0  0
   36.7760   28.2370   41.5710 C   0  0  0  0  0  0  0  0  0  0  0  0
   36.8900   28.7440   42.8050 N   0  0  0  0  0  0  0  0  0  0  0  0
   37.1650   27.7570   43.6790 C   0  0  0  0  0  0  0  0  0  0  0  0
   37.2160   26.6350   42.9530 N   0  0  0  0  0  0  0  0  0  0  0  0
   36.9820   26.8860   41.6500 C   0  0  0  0  0  0  0  0  0  0  0  0
   36.9490   25.9940   40.5840 C   0  0  0  0  0  0  0  0  0  0  0  0
   36.6430   25.8730   38.4530 H   0  0  0  0  0  0  0  0  0  0  0  0
   36.7730   29.7550   42.9980 H   0  0  0  0  0  0  0  0  0  0  0  0
   37.3160   27.8500   44.7650 H   0  0  0  0  0  0  0  0  0  0  0  0
   37.1210   24.9350   40.7140 H   0  0  0  0  0  0  0  0  0  0  0  0
   36.9370   29.5410   35.9690 C   0  0  0  0  0  0  0  0  0  0  0  0
   35.6530   29.5020   35.4150 C   0  0  0  0  0  0  0  0  0  0  0  0
   34.6330   28.9110   36.1610 C   0  0  0  0  0  0  0  0  0  0  0  0
   34.9250   28.3960   37.3960 N   0  0  0  0  0  0  0  0  0  0  0  0
   36.1870   28.4560   37.8950 C   0  0  0  0  0  0  0  0  0  0  0  0
   37.2220   29.0250   37.2030 N   0  0  0  0  0  0  0  0  0  0  0  0
   37.7440   29.9920   35.4150 H   0  0  0  0  0  0  0  0  0  0  0  0
   35.4540   29.9140   34.4430 H   0  0  0  0  0  0  0  0  0  0  0  0
   33.6280   28.8420   35.8100 H   0  0  0  0  0  0  0  0  0  0  0  0
   36.2310   30.5010   40.1310 S   0  0  0  0  0  0  0  0  0  0  0  0
   38.7610   30.9110   39.5440 N   0  0  0  0  0  0  0  0  0  0  0  0
   37.7130   31.5000   40.3500 C   0  0  1  0  0  0  0  0  0  0  0  0
   37.3570   32.8990   39.8460 C   0  0  0  0  0  0  0  0  0  0  0  0
   38.4600   33.6650   39.5190 O   0  0  0  0  0  0  0  0  0  0  0  0
   39.6800   33.1500   39.9080 C   0  0  0  0  0  0  0  0  0  0  0  0
   39.8490   31.7980   39.2820 C   0  0  2  0  0  0  0  0  0  0  0  0
   39.1350   30.0880   40.0930 H   0  0  0  0  0  0  0  0  0  0  0  0
   38.0020   31.5690   41.4200 H   0  0  0  0  0  0  0  0  0  0  0  0
   36.7980   32.7390   38.8940 H   0  0  0  0  0  0  0  0  0  0  0  0
   36.8270   33.4720   40.5960 H   0  0  0  0  0  0  0  0  0  0  0  0
   39.7330   33.0180   41.0050 H   0  0  0  0  0  0  0  0  0  0  0  0
   40.4560   33.8180   39.5390 H   0  0  0  0  0  0  0  0  0  0  0  0
   40.8200   31.3850   39.6550 H   0  0  0  0  0  0  0  0  0  0  0  0
   40.0460   31.9040   37.7690 C   0  0  0  0  0  0  0  0  0  0  0  0
   40.8090   30.8380   37.3410 F   0  0  0  0  0  0  0  0  0  0  0  0
   38.8210   31.9240   37.1330 F   0  0  0  0  0  0  0  0  0  0  0  0
   40.7780   33.0490   37.4580 F   0  0  0  0  0  0  0  0  0  0  0  0
  1  9  1  0  0  0  0
  2  1  2  0  0  0  0
  2  3  1  0  0  0  0
  3  4  2  0  0  0  0
  4  8  1  0  0  0  0
  4  5  1  0  0  0  0
  5 11  1  0  0  0  0
  5  6  1  0  0  0  0
  6 12  1  0  0  0  0
  7  6  2  0  0  0  0
  8  7  1  0  0  0  0
  9 13  1  0  0  0  0
  9  8  2  0  0  0  0
 10  1  1  0  0  0  0
 14 19  1  0  0  0  0
 15 14  2  0  0  0  0
 15 16  1  0  0  0  0
 16 17  2  0  0  0  0
 17 18  1  0  0  0  0
 18  2  1  0  0  0  0
 19 18  2  0  0  0  0
 20 14  1  0  0  0  0
 21 15  1  0  0  0  0
 22 16  1  0  0  0  0
 23  3  1  0  0  0  0
 23 25  1  0  0  0  0
 24 30  1  0  0  0  0
 24 25  1  0  0  0  0
 25 31  1  1  0  0  0
 26 25  1  0  0  0  0
 26 33  1  0  0  0  0
 27 26  1  0  0  0  0
 27 28  1  0  0  0  0
 28 34  1  0  0  0  0
 29 24  1  0  0  0  0
 29 36  1  1  0  0  0
 29 28  1  0  0  0  0
 32 26  1  0  0  0  0
 35 28  1  0  0  0  0
 37 29  1  0  0  0  0
 38 37  1  0  0  0  0
 39 37  1  0  0  0  0
 40 37  1  0  0  0  0
M  END
>  <minimizedAffinity>
-5.5335865

$$$$

 OpenBabel03252509153D

 40 43  0  0  1  0  0  0  0  0999 V2000
   39.4490   30.5130   42.0900 C   0  0  0  0  0  0  0  0  0  0  0  0
   38.2420   29.9960   41.6300 C   0  0  0  0  0  0  0  0  0  0  0  0
   37.3380   30.7320   40.8910 C   0  0  0  0  0  0  0  0  0  0  0  0
   37.6370   32.0690   40.5810 C   0  0  0  0  0  0  0  0  0  0  0  0
   37.0270   33.0540   39.9110 N   0  0  0  0  0  0  0  0  0  0  0  0
   37.7940   34.1610   39.9300 C   0  0  0  0  0  0  0  0  0  0  0  0
   38.8870   33.8310   40.6270 N   0  0  0  0  0  0  0  0  0  0  0  0
   38.8310   32.5530   41.0460 C   0  0  0  0  0  0  0  0  0  0  0  0
   39.7620   31.8400   41.7920 C   0  0  0  0  0  0  0  0  0  0  0  0
   40.1450   29.9080   42.6720 H   0  0  0  0  0  0  0  0  0  0  0  0
   36.1010   32.9240   39.4650 H   0  0  0  0  0  0  0  0  0  0  0  0
   37.5700   35.1350   39.4700 H   0  0  0  0  0  0  0  0  0  0  0  0
   40.6890   32.2810   42.1290 H   0  0  0  0  0  0  0  0  0  0  0  0
   38.1330   26.3340   41.4650 C   0  0  0  0  0  0  0  0  0  0  0  0
   37.2990   26.0020   42.5380 C   0  0  0  0  0  0  0  0  0  0  0  0
   36.7780   27.0400   43.3120 C   0  0  0  0  0  0  0  0  0  0  0  0
   37.1010   28.3320   42.9950 N   0  0  0  0  0  0  0  0  0  0  0  0
   37.9160   28.6090   41.9440 C   0  0  0  0  0  0  0  0  0  0  0  0
   38.4520   27.6270   41.1540 N   0  0  0  0  0  0  0  0  0  0  0  0
   38.5490   25.5520   40.8510 H   0  0  0  0  0  0  0  0  0  0  0  0
   37.0630   24.9780   42.7630 H   0  0  0  0  0  0  0  0  0  0  0  0
   36.1350   26.8700   44.1460 H   0  0  0  0  0  0  0  0  0  0  0  0
   35.8060   30.0510   40.3160 S   0  0  0  0  0  0  0  0  0  0  0  0
   36.8290   28.3300   38.6130 N   0  0  0  0  0  0  0  0  0  0  0  0
   35.8730   29.4160   38.6330 C   0  0  1  0  0  0  0  0  0  0  0  0
   34.4650   28.9110   38.3150 C   0  0  0  0  0  0  0  0  0  0  0  0
   34.4260   28.0050   37.2720 O   0  0  0  0  0  0  0  0  0  0  0  0
   35.5950   27.8790   36.5490 C   0  0  0  0  0  0  0  0  0  0  0  0
   36.6940   27.4680   37.4820 C   0  0  2  0  0  0  0  0  0  0  0  0
   37.7880   28.7750   38.5720 H   0  0  0  0  0  0  0  0  0  0  0  0
   36.1380   30.2150   37.9080 H   0  0  0  0  0  0  0  0  0  0  0  0
   34.1380   28.3520   39.2230 H   0  0  0  0  0  0  0  0  0  0  0  0
   33.8090   29.7170   38.0130 H   0  0  0  0  0  0  0  0  0  0  0  0
   35.8910   28.8390   36.0870 H   0  0  0  0  0  0  0  0  0  0  0  0
   35.4420   27.0990   35.8050 H   0  0  0  0  0  0  0  0  0  0  0  0
   37.6350   27.4240   36.8790 H   0  0  0  0  0  0  0  0  0  0  0  0
   36.5000   26.0340   37.9760 C   0  0  0  0  0  0  0  0  0  0  0  0
   37.7350   25.4340   38.1070 F   0  0  0  0  0  0  0  0  0  0  0  0
   35.8190   26.0340   39.1770 F   0  0  0  0  0  0  0  0  0  0  0  0
   35.8110   25.2850   37.0220 F   0  0  0  0  0  0  0  0  0  0  0  0
  1 10  1  0  0  0  0
  2 18  1  0  0  0  0
  2  1  2  0  0  0  0
  3  2  1  0  0  0  0
  4  3  2  0  0  0  0
  4  8  1  0  0  0  0
  5  6  1  0  0  0  0
  5  4  1  0  0  0  0
  6  7  2  0  0  0  0
  7  8  1  0  0  0  0
  8  9  2  0  0  0  0
  9  1  1  0  0  0  0
  9 13  1  0  0  0  0
 11  5  1  0  0  0  0
 12  6  1  0  0  0  0
 14 15  1  0  0  0  0
 15 21  1  0  0  0  0
 15 16  2  0  0  0  0
 16 22  1  0  0  0  0
 17 16  1  0  0  0  0
 18 17  2  0  0  0  0
 19 14  2  0  0  0  0
 19 18  1  0  0  0  0
 20 14  1  0  0  0  0
 23  3  1  0  0  0  0
 24 25  1  0  0  0  0
 25 31  1  6  0  0  0
 25 23  1  0  0  0  0
 26 25  1  0  0  0  0
 26 32  1  0  0  0  0
 27 26  1  0  0  0  0
 28 27  1  0  0  0  0
 28 29  1  0  0  0  0
 29 36  1  6  0  0  0
 29 37  1  0  0  0  0
 29 24  1  0  0  0  0
 30 24  1  0  0  0  0
 33 26  1  0  0  0  0
 34 28  1  0  0  0  0
 35 28  1  0  0  0  0
 37 38  1  0  0  0  0
 37 39  1  0  0  0  0
 40 37  1  0  0  0  0
M  END
>  <minimizedAffinity>
-5.52301455

$$$$

 OpenBabel03252509153D

 40 43  0  0  1  0  0  0  0  0999 V2000
   38.3470   30.2920   37.5040 C   0  0  0  0  0  0  0  0  0  0  0  0
   37.8470   30.5900   38.7680 C   0  0  0  0  0  0  0  0  0  0  0  0
   36.9680   29.7700   39.4450 C   0  0  0  0  0  0  0  0  0  0  0  0
   36.5480   28.5730   38.8430 C   0  0  0  0  0  0  0  0  0  0  0  0
   35.7350   27.5650   39.1830 N   0  0  0  0  0  0  0  0  0  0  0  0
   35.7030   26.6520   38.1940 C   0  0  0  0  0  0  0  0  0  0  0  0
   36.5140   27.1240   37.2400 N   0  0  0  0  0  0  0  0  0  0  0  0
   37.0550   28.3030   37.5990 C   0  0  0  0  0  0  0  0  0  0  0  0
   37.9400   29.1070   36.8900 C   0  0  0  0  0  0  0  0  0  0  0  0
   39.0400   30.9590   36.9920 H   0  0  0  0  0  0  0  0  0  0  0  0
   35.2320   27.5460   40.0880 H   0  0  0  0  0  0  0  0  0  0  0  0
   35.1300   25.7130   38.1720 H   0  0  0  0  0  0  0  0  0  0  0  0
   38.3040   28.8360   35.9090 H   0  0  0  0  0  0  0  0  0  0  0  0
   37.8600   34.0690   39.9300 C   0  0  0  0  0  0  0  0  0  0  0  0
   39.0770   34.1610   40.6130 C   0  0  0  0  0  0  0  0  0  0  0  0
   39.8880   33.0260   40.6700 C   0  0  0  0  0  0  0  0  0  0  0  0
   39.4630   31.8760   40.0610 N   0  0  0  0  0  0  0  0  0  0  0  0
   38.2730   31.8310   39.4080 C   0  0  0  0  0  0  0  0  0  0  0  0
   37.4420   32.9160   39.3240 N   0  0  0  0  0  0  0  0  0  0  0  0
   37.2150   34.9300   39.8710 H   0  0  0  0  0  0  0  0  0  0  0  0
   39.3840   35.0780   41.0820 H   0  0  0  0  0  0  0  0  0  0  0  0
   40.8290   33.0150   41.1700 H   0  0  0  0  0  0  0  0  0  0  0  0
   36.3450   30.1720   41.0550 S   0  0  0  0  0  0  0  0  0  0  0  0
   36.5100   27.8410   42.2600 N   0  0  0  0  0  0  0  0  0  0  0  0
   37.0490   29.1780   42.3820 C   0  0  1  0  0  0  0  0  0  0  0  0
   38.5610   29.1810   42.1550 C   0  0  0  0  0  0  0  0  0  0  0  0
   39.2150   28.1370   42.7820 O   0  0  0  0  0  0  0  0  0  0  0  0
   38.4570   27.4120   43.6790 C   0  0  0  0  0  0  0  0  0  0  0  0
   37.2670   26.8520   42.9580 C   0  0  2  0  0  0  0  0  0  0  0  0
   35.5400   27.8680   42.6830 H   0  0  0  0  0  0  0  0  0  0  0  0
   36.8360   29.6220   43.3770 H   0  0  0  0  0  0  0  0  0  0  0  0
   38.6970   29.0190   41.0610 H   0  0  0  0  0  0  0  0  0  0  0  0
   39.0230   30.0780   42.5460 H   0  0  0  0  0  0  0  0  0  0  0  0
   38.0790   28.0510   44.4990 H   0  0  0  0  0  0  0  0  0  0  0  0
   39.0730   26.5940   44.0490 H   0  0  0  0  0  0  0  0  0  0  0  0
   36.6470   26.3140   43.7190 H   0  0  0  0  0  0  0  0  0  0  0  0
   37.6770   25.7570   41.9720 C   0  0  0  0  0  0  0  0  0  0  0  0
   38.0440   26.3440   40.7780 F   0  0  0  0  0  0  0  0  0  0  0  0
   38.7150   25.0110   42.4960 F   0  0  0  0  0  0  0  0  0  0  0  0
   36.5870   24.9410   41.6770 F   0  0  0  0  0  0  0  0  0  0  0  0
  1  2  1  0  0  0  0
  2 18  1  0  0  0  0
  2  3  2  0  0  0  0
  3 23  1  0  0  0  0
  4  5  1  0  0  0  0
  4  3  1  0  0  0  0
  5 11  1  0  0  0  0
  6  5  1  0  0  0  0
  7  8  1  0  0  0  0
  7  6  2  0  0  0  0
  8  4  2  0  0  0  0
  9  1  2  0  0  0  0
  9  8  1  0  0  0  0
 10  1  1  0  0  0  0
 12  6  1  0  0  0  0
 13  9  1  0  0  0  0
 14 15  1  0  0  0  0
 15 16  2  0  0  0  0
 15 21  1  0  0  0  0
 16 22  1  0  0  0  0
 17 16  1  0  0  0  0
 18 17  2  0  0  0  0
 19 18  1  0  0  0  0
 19 14  2  0  0  0  0
 20 14  1  0  0  0  0
 23 25  1  0  0  0  0
 24 25  1  0  0  0  0
 24 30  1  0  0  0  0
 24 29  1  0  0  0  0
 25 31  1  1  0  0  0
 26 25  1  0  0  0  0
 26 33  1  0  0  0  0
 26 27  1  0  0  0  0
 27 28  1  0  0  0  0
 28 35  1  0  0  0  0
 28 34  1  0  0  0  0
 29 28  1  0  0  0  0
 29 36  1  1  0  0  0
 32 26  1  0  0  0  0
 37 39  1  0  0  0  0
 37 29  1  0  0  0  0
 38 37  1  0  0  0  0
 40 37  1  0  0  0  0
M  END
>  <minimizedAffinity>
-5.45187426

$$$$
