REMARK  Name = 
REMARK  3 active torsions:
REMARK  status: ('A' for Active; 'I' for Inactive)
REMARK    1  A    between atoms: C_1  and  C_10
REMARK    2  A    between atoms: C_6  and  C_18
REMARK    3  A    between atoms: C_7  and  C_16
REMARK                            x       y       z     vdW  Elec       q    Type
REMARK                         _______ _______ _______ _____ _____    ______ ____
ROOT
ATOM      1  C   UNL     1      47.592  29.992  48.238  0.00  0.00    +0.000 C 
ATOM      2  C   UNL     1      47.444  28.787  47.393  0.00  0.00    +0.000 C 
ATOM      3  C   UNL     1      48.716  28.010  47.187  0.00  0.00    +0.000 C 
ATOM      4  C   UNL     1      49.511  27.841  48.453  0.00  0.00    +0.000 C 
ATOM      5  C   UNL     1      49.619  29.118  49.242  0.00  0.00    +0.000 C 
ATOM      6  C   UNL     1      49.096  30.295  48.418  0.00  0.00    +0.000 C 
ATOM      7  H   UNL     1      47.251  29.743  49.256  0.00  0.00    +0.000 HD
ATOM      8  H   UNL     1      47.123  29.115  46.363  0.00  0.00    +0.000 HD
ATOM      9  H   UNL     1      46.672  28.106  47.784  0.00  0.00    +0.000 HD
ATOM     10  H   UNL     1      48.414  27.001  46.849  0.00  0.00    +0.000 HD
ATOM     11  H   UNL     1      49.347  28.430  46.386  0.00  0.00    +0.000 HD
ATOM     12  H   UNL     1      50.468  27.372  48.238  0.00  0.00    +0.000 HD
ATOM     13  H   UNL     1      48.938  27.110  49.095  0.00  0.00    +0.000 HD
ATOM     14  H   UNL     1      49.019  29.088  50.176  0.00  0.00    +0.000 HD
ATOM     15  H   UNL     1      50.689  29.300  49.457  0.00  0.00    +0.000 HD
ATOM     16  H   UNL     1      49.584  30.322  47.422  0.00  0.00    +0.000 HD
ENDROOT
BRANCH   1  20
ATOM     17  C   UNL     1      45.907  33.134  46.241  0.00  0.00    +0.000 A 
ATOM     18  C   UNL     1      45.361  32.962  47.510  0.00  0.00    +0.000 A 
ATOM     19  C   UNL     1      45.829  31.962  48.263  0.00  0.00    +0.000 A 
ATOM     20  C   UNL     1      46.848  31.115  47.770  0.00  0.00    +0.000 A 
ATOM     21  S   UNL     1      47.164  31.788  46.106  0.00  0.00    +0.000 S 
ATOM     22  H   UNL     1      44.583  33.618  47.874  0.00  0.00    +0.000 HD
ATOM     23  H   UNL     1      45.529  31.681  49.259  0.00  0.00    +0.000 HD
BRANCH  17  28
ATOM     24  C   UNL     1      44.447  36.106  44.550  0.00  0.00    +0.000 A 
ATOM     25  C   UNL     1      45.059  36.025  43.298  0.00  0.00    +0.000 A 
ATOM     26  C   UNL     1      45.940  34.956  43.085  0.00  0.00    +0.000 A 
ATOM     27  N   UNL     1      46.150  34.060  44.105  0.00  0.00    +0.000 NA
ATOM     28  C   UNL     1      45.526  34.200  45.285  0.00  0.00    +0.000 A 
ATOM     29  N   UNL     1      44.668  35.227  45.517  0.00  0.00    +0.000 NA
ATOM     30  H   UNL     1      43.754  36.929  44.748  0.00  0.00    +0.000 HD
ATOM     31  H   UNL     1      44.884  36.738  42.504  0.00  0.00    +0.000 HD
ATOM     32  H   UNL     1      46.462  34.806  42.150  0.00  0.00    +0.000 HD
ENDBRANCH  17  28
ENDBRANCH   1  20
BRANCH   6  33
ATOM     33  C   UNL     1      49.267  31.530  49.187  0.00  0.00    +0.000 C 
ATOM     34  O   UNL     1      49.815  31.557  50.306  0.00  0.00    +0.000 OA
ATOM     35  H   UNL     1      48.408  34.763  48.089  0.00  0.00    +0.000 HD
ATOM     36  C   UNL     1      48.600  33.696  47.949  0.00  0.00    +0.000 C 
ATOM     37  O   UNL     1      48.534  33.065  46.878  0.00  0.00    +0.000 OA
ATOM     38  N   UNL     1      48.961  32.878  49.025  0.00  0.00    +0.000 N 
ATOM     39  H   UNL     1      49.021  33.380  49.913  0.00  0.00    +0.000 HD
ENDBRANCH   6  33
TORSDOF 3
