
 OpenBabel03252509313D

 23 23  0  0  0  0  0  0  0  0999 V2000
   47.1140   33.3110   43.0000 C   0  0  0  0  0  0  0  0  0  0  0  0
   46.5800   32.3810   42.6770 H   0  0  0  0  0  0  0  0  0  0  0  0
   47.1840   33.9350   42.1030 H   0  0  0  0  0  0  0  0  0  0  0  0
   45.2370   34.1430   46.1050 C   0  0  0  0  0  0  0  0  0  0  0  0
   46.0890   33.4760   45.2200 C   0  0  0  0  0  0  0  0  0  0  0  0
   46.2240   33.9910   43.9500 C   0  0  0  0  0  0  0  0  0  0  0  0
   45.5300   35.1180   43.6080 N   0  0  0  0  0  0  0  0  0  0  0  0
   44.7050   35.7420   44.5010 C   0  0  0  0  0  0  0  0  0  0  0  0
   44.5650   35.2560   45.7340 N   0  0  0  0  0  0  0  0  0  0  0  0
   45.1150   33.7560   47.1130 H   0  0  0  0  0  0  0  0  0  0  0  0
   46.5960   32.5860   45.5960 H   0  0  0  0  0  0  0  0  0  0  0  0
   44.1880   36.6350   44.1460 H   0  0  0  0  0  0  0  0  0  0  0  0
   48.3250   32.9750   43.5790 O   0  0  0  0  0  0  0  0  0  0  0  0
   50.6810   32.4810   42.5680 O   0  0  0  0  0  0  0  0  0  0  0  0
   49.5440   33.4580   42.5170 P   0  0  2  0  0  0  0  0  0  0  0  0
   50.0100   35.0170   42.9900 O   0  0  0  0  0  0  0  0  0  0  0  0
   49.1900   35.5040   43.2590 H   0  0  0  0  0  0  0  0  0  0  0  0
   48.9130   33.4810   40.9620 O   0  0  0  0  0  0  0  0  0  0  0  0
   48.5940   34.6170   40.2480 C   0  0  0  0  0  0  0  0  0  0  0  0
   47.7740   34.3590   39.3030 O   0  0  0  0  0  0  0  0  0  0  0  0
   49.0610   35.9430   40.4610 N   0  0  0  0  0  0  0  0  0  0  0  0
   48.4160   36.2680   41.2400 H   0  0  0  0  0  0  0  0  0  0  0  0
   49.8520   36.0580   39.7630 H   0  0  0  0  0  0  0  0  0  0  0  0
  1 13  1  0  0  0  0
  1  6  1  0  0  0  0
  2  1  1  0  0  0  0
  3  1  1  0  0  0  0
  4 10  1  0  0  0  0
  5 11  1  0  0  0  0
  5  4  2  0  0  0  0
  6  5  1  0  0  0  0
  7  6  2  0  0  0  0
  7  8  1  0  0  0  0
  8  9  2  0  0  0  0
  9  4  1  0  0  0  0
 12  8  1  0  0  0  0
 15 14  2  1  0  0  0
 15 16  1  0  0  0  0
 15 13  1  0  0  0  0
 16 17  1  0  0  0  0
 18 15  1  0  0  0  0
 19 21  1  0  0  0  0
 19 18  1  0  0  0  0
 20 19  2  0  0  0  0
 21 22  1  0  0  0  0
 23 21  1  0  0  0  0
M  END
>  <minimizedAffinity>
-4.32489634

>  <minimizedRMSD>
1.0459348

$$$$
