
 OpenBabel03242521573D

 44 47  0  0  0  0  0  0  0  0999 V2000
   36.5650   26.9340   39.8570 C   0  0  0  0  0  0  0  0  0  0  0  0
   36.5900   25.5430   39.8180 C   0  0  0  0  0  0  0  0  0  0  0  0
   36.8670   24.7520   40.9400 C   0  0  0  0  0  0  0  0  0  0  0  0
   37.1310   25.3310   42.1500 C   0  0  0  0  0  0  0  0  0  0  0  0
   37.1190   26.7420   42.2190 C   0  0  0  0  0  0  0  0  0  0  0  0
   37.4370   27.2760   43.4250 C   0  0  0  0  0  0  0  0  0  0  0  0
   37.5050   28.6670   43.5080 C   0  0  0  0  0  0  0  0  0  0  0  0
   37.2460   29.4440   42.3210 C   0  0  0  0  0  0  0  0  0  0  0  0
   36.9380   28.7450   41.1770 C   0  0  0  0  0  0  0  0  0  0  0  0
   36.8370   27.4340   41.0390 C   0  0  0  0  0  0  0  0  0  0  0  0
   36.3790   25.0630   38.8480 H   0  0  0  0  0  0  0  0  0  0  0  0
   36.8640   23.6700   40.8020 H   0  0  0  0  0  0  0  0  0  0  0  0
   37.3350   24.6990   43.0000 H   0  0  0  0  0  0  0  0  0  0  0  0
   37.6280   26.6480   44.2830 H   0  0  0  0  0  0  0  0  0  0  0  0
   37.7570   29.0260   44.4970 H   0  0  0  0  0  0  0  0  0  0  0  0
   37.3690   30.4530   42.6820 H   0  0  0  0  0  0  0  0  0  0  0  0
   38.5740   29.8630   39.9430 C   0  0  0  0  0  0  0  0  0  0  0  0
   37.1790   29.9000   40.3350 C   0  0  0  0  0  0  0  0  0  0  0  0
   36.6100   31.0310   39.9240 C   0  0  0  0  0  0  0  0  0  0  0  0
   37.2340   32.0460   39.2270 C   0  0  0  0  0  0  0  0  0  0  0  0
   38.5470   31.9910   38.8720 C   0  0  0  0  0  0  0  0  0  0  0  0
   39.2300   30.8580   39.2470 C   0  0  0  0  0  0  0  0  0  0  0  0
   35.5600   30.9670   40.2610 H   0  0  0  0  0  0  0  0  0  0  0  0
   36.5630   32.8710   39.0030 H   0  0  0  0  0  0  0  0  0  0  0  0
   38.9840   32.8170   38.3270 H   0  0  0  0  0  0  0  0  0  0  0  0
   39.4960   28.8090   40.2000 O   0  0  0  0  0  0  0  0  0  0  0  0
   39.3060   27.9780   39.6170 H   0  0  0  0  0  0  0  0  0  0  0  0
   40.5560   30.8630   38.8650 O   0  0  0  0  0  0  0  0  0  0  0  0
   40.9490   30.3870   37.6160 C   0  0  0  0  0  0  0  0  0  0  0  0
   40.6510   29.2050   37.2370 O   0  0  0  0  0  0  0  0  0  0  0  0
   41.6970   31.1770   36.6910 N   0  0  0  0  0  0  0  0  0  0  0  0
   40.9740   31.6720   36.1210 H   0  0  0  0  0  0  0  0  0  0  0  0
   42.7520   31.1180   36.7530 H   0  0  0  0  0  0  0  0  0  0  0  0
   34.6310   29.0010   37.4240 C   0  0  0  0  0  0  0  0  0  0  0  0
   35.6300   29.2200   36.4460 C   0  0  0  0  0  0  0  0  0  0  0  0
   36.8510   28.6290   36.6810 C   0  0  0  0  0  0  0  0  0  0  0  0
   36.9370   27.9280   37.8080 N   0  0  0  0  0  0  0  0  0  0  0  0
   36.0270   27.7040   38.7480 C   0  0  0  0  0  0  0  0  0  0  0  0
   34.8750   28.2630   38.5120 N   0  0  0  0  0  0  0  0  0  0  0  0
   33.6550   29.4590   37.2560 H   0  0  0  0  0  0  0  0  0  0  0  0
   35.4610   29.8080   35.5650 H   0  0  0  0  0  0  0  0  0  0  0  0
   37.9230   28.7100   35.7530 N   0  0  0  0  0  0  0  0  0  0  0  0
   38.0520   27.7150   35.4070 H   0  0  0  0  0  0  0  0  0  0  0  0
   38.2130   29.7260   35.7350 H   0  0  0  0  0  0  0  0  0  0  0  0
  1 10  1  0  0  0  0
  2  1  2  0  0  0  0
  2  3  1  0  0  0  0
  3  4  2  0  0  0  0
  4  5  1  0  0  0  0
  4 13  1  0  0  0  0
  5  6  1  0  0  0  0
  6  7  2  0  0  0  0
  6 14  1  0  0  0  0
  7 15  1  0  0  0  0
  8 16  1  0  0  0  0
  8  7  1  0  0  0  0
  9  8  2  0  0  0  0
 10  9  1  0  0  0  0
 10  5  2  0  0  0  0
 11  2  1  0  0  0  0
 12  3  1  0  0  0  0
 17 26  1  0  0  0  0
 17 18  1  0  0  0  0
 18  9  1  0  0  0  0
 19 23  1  0  0  0  0
 19 18  2  0  0  0  0
 20 19  1  0  0  0  0
 21 20  2  0  0  0  0
 21 22  1  0  0  0  0
 22 17  2  0  0  0  0
 24 20  1  0  0  0  0
 25 21  1  0  0  0  0
 27 26  1  0  0  0  0
 28 22  1  0  0  0  0
 29 28  1  0  0  0  0
 30 29  2  0  0  0  0
 31 33  1  0  0  0  0
 31 29  1  0  0  0  0
 32 31  1  0  0  0  0
 34 39  1  0  0  0  0
 35 36  1  0  0  0  0
 35 34  2  0  0  0  0
 36 37  2  0  0  0  0
 37 38  1  0  0  0  0
 38  1  1  0  0  0  0
 39 38  2  0  0  0  0
 40 34  1  0  0  0  0
 41 35  1  0  0  0  0
 42 36  1  0  0  0  0
 43 42  1  0  0  0  0
 44 42  1  0  0  0  0
M  END
>  <minimizedAffinity>
-6.87404633

$$$$

 OpenBabel03242521573D

 44 47  0  0  0  0  0  0  0  0999 V2000
   36.8150   27.0220   39.7780 C   0  0  0  0  0  0  0  0  0  0  0  0
   36.9020   25.6370   39.6760 C   0  0  0  0  0  0  0  0  0  0  0  0
   37.0850   24.8000   40.7840 C   0  0  0  0  0  0  0  0  0  0  0  0
   37.1870   25.3250   42.0420 C   0  0  0  0  0  0  0  0  0  0  0  0
   37.1090   26.7300   42.1760 C   0  0  0  0  0  0  0  0  0  0  0  0
   37.2680   27.2120   43.4330 C   0  0  0  0  0  0  0  0  0  0  0  0
   37.2680   28.5990   43.5890 C   0  0  0  0  0  0  0  0  0  0  0  0
   37.1120   29.4250   42.4170 C   0  0  0  0  0  0  0  0  0  0  0  0
   36.9630   28.7760   41.2140 C   0  0  0  0  0  0  0  0  0  0  0  0
   36.9330   27.4710   41.0040 C   0  0  0  0  0  0  0  0  0  0  0  0
   36.8220   25.2000   38.6670 H   0  0  0  0  0  0  0  0  0  0  0  0
   37.1420   23.7270   40.5960 H   0  0  0  0  0  0  0  0  0  0  0  0
   37.3210   24.6580   42.8790 H   0  0  0  0  0  0  0  0  0  0  0  0
   37.3880   26.5490   44.2770 H   0  0  0  0  0  0  0  0  0  0  0  0
   37.3930   28.9160   44.6150 H   0  0  0  0  0  0  0  0  0  0  0  0
   37.1510   30.4190   42.8360 H   0  0  0  0  0  0  0  0  0  0  0  0
   38.6890   30.1350   40.4240 C   0  0  0  0  0  0  0  0  0  0  0  0
   37.2480   29.9800   40.4600 C   0  0  0  0  0  0  0  0  0  0  0  0
   36.6520   31.0430   39.9230 C   0  0  0  0  0  0  0  0  0  0  0  0
   37.2890   32.1520   39.4040 C   0  0  0  0  0  0  0  0  0  0  0  0
   38.6440   32.2770   39.3840 C   0  0  0  0  0  0  0  0  0  0  0  0
   39.3580   31.2280   39.9140 C   0  0  0  0  0  0  0  0  0  0  0  0
   35.5700   30.8340   39.9900 H   0  0  0  0  0  0  0  0  0  0  0  0
   36.5900   32.8920   39.0220 H   0  0  0  0  0  0  0  0  0  0  0  0
   39.0890   33.1700   38.9650 H   0  0  0  0  0  0  0  0  0  0  0  0
   39.6510   29.1980   40.8990 O   0  0  0  0  0  0  0  0  0  0  0  0
   39.7200   28.3710   40.2870 H   0  0  0  0  0  0  0  0  0  0  0  0
   40.7250   31.4140   39.8720 O   0  0  0  0  0  0  0  0  0  0  0  0
   41.3910   32.1020   40.8850 C   0  0  0  0  0  0  0  0  0  0  0  0
   42.1860   33.0640   40.6160 O   0  0  0  0  0  0  0  0  0  0  0  0
   41.2300   31.7830   42.2670 N   0  0  0  0  0  0  0  0  0  0  0  0
   40.4280   32.3740   42.5840 H   0  0  0  0  0  0  0  0  0  0  0  0
   41.8950   31.0670   42.6760 H   0  0  0  0  0  0  0  0  0  0  0  0
   36.3290   28.9960   36.6480 C   0  0  0  0  0  0  0  0  0  0  0  0
   34.9260   29.1850   36.6960 C   0  0  0  0  0  0  0  0  0  0  0  0
   34.2790   28.6560   37.7900 C   0  0  0  0  0  0  0  0  0  0  0  0
   35.0600   28.0260   38.6640 N   0  0  0  0  0  0  0  0  0  0  0  0
   36.3730   27.8280   38.6510 C   0  0  0  0  0  0  0  0  0  0  0  0
   36.9730   28.3360   37.6140 N   0  0  0  0  0  0  0  0  0  0  0  0
   36.8610   29.4090   35.7890 H   0  0  0  0  0  0  0  0  0  0  0  0
   34.3840   29.7080   35.9330 H   0  0  0  0  0  0  0  0  0  0  0  0
   32.8860   28.8260   38.0020 N   0  0  0  0  0  0  0  0  0  0  0  0
   32.8200   29.4390   38.8650 H   0  0  0  0  0  0  0  0  0  0  0  0
   32.4090   28.2860   37.2300 H   0  0  0  0  0  0  0  0  0  0  0  0
  1 10  1  0  0  0  0
  2  1  2  0  0  0  0
  2  3  1  0  0  0  0
  3  4  2  0  0  0  0
  4  5  1  0  0  0  0
  4 13  1  0  0  0  0
  5  6  1  0  0  0  0
  6  7  2  0  0  0  0
  6 14  1  0  0  0  0
  7 15  1  0  0  0  0
  8 16  1  0  0  0  0
  8  7  1  0  0  0  0
  9  8  2  0  0  0  0
 10  9  1  0  0  0  0
 10  5  2  0  0  0  0
 11  2  1  0  0  0  0
 12  3  1  0  0  0  0
 17 18  1  0  0  0  0
 17 26  1  0  0  0  0
 18  9  1  0  0  0  0
 19 23  1  0  0  0  0
 19 18  2  0  0  0  0
 20 19  1  0  0  0  0
 21 20  2  0  0  0  0
 21 22  1  0  0  0  0
 22 17  2  0  0  0  0
 24 20  1  0  0  0  0
 25 21  1  0  0  0  0
 27 26  1  0  0  0  0
 28 22  1  0  0  0  0
 28 29  1  0  0  0  0
 29 31  1  0  0  0  0
 30 29  2  0  0  0  0
 31 32  1  0  0  0  0
 31 33  1  0  0  0  0
 34 35  2  0  0  0  0
 34 39  1  0  0  0  0
 35 36  1  0  0  0  0
 36 42  1  0  0  0  0
 36 37  2  0  0  0  0
 38 37  1  0  0  0  0
 38  1  1  0  0  0  0
 39 38  2  0  0  0  0
 40 34  1  0  0  0  0
 41 35  1  0  0  0  0
 42 43  1  0  0  0  0
 44 42  1  0  0  0  0
M  END
>  <minimizedAffinity>
-6.65859842

$$$$

 OpenBabel03242521573D

 44 47  0  0  0  0  0  0  0  0999 V2000
   37.3320   26.5400   41.3640 C   0  0  0  0  0  0  0  0  0  0  0  0
   37.2050   25.3700   42.1090 C   0  0  0  0  0  0  0  0  0  0  0  0
   36.6670   24.1870   41.5860 C   0  0  0  0  0  0  0  0  0  0  0  0
   36.2360   24.1330   40.2890 C   0  0  0  0  0  0  0  0  0  0  0  0
   36.3470   25.3080   39.5110 C   0  0  0  0  0  0  0  0  0  0  0  0
   35.8600   25.2260   38.2480 C   0  0  0  0  0  0  0  0  0  0  0  0
   35.8890   26.3890   37.4780 C   0  0  0  0  0  0  0  0  0  0  0  0
   36.4180   27.5950   38.0660 C   0  0  0  0  0  0  0  0  0  0  0  0
   36.8710   27.5070   39.3610 C   0  0  0  0  0  0  0  0  0  0  0  0
   36.8910   26.4340   40.1340 C   0  0  0  0  0  0  0  0  0  0  0  0
   37.5480   25.4000   43.1560 H   0  0  0  0  0  0  0  0  0  0  0  0
   36.6100   23.3270   42.2530 H   0  0  0  0  0  0  0  0  0  0  0  0
   35.8330   23.2080   39.9090 H   0  0  0  0  0  0  0  0  0  0  0  0
   35.4680   24.2990   37.8570 H   0  0  0  0  0  0  0  0  0  0  0  0
   35.4920   26.2540   36.4810 H   0  0  0  0  0  0  0  0  0  0  0  0
   36.3130   28.3030   37.2590 H   0  0  0  0  0  0  0  0  0  0  0  0
   38.2090   29.4120   39.1790 C   0  0  0  0  0  0  0  0  0  0  0  0
   36.8780   28.9470   39.5210 C   0  0  0  0  0  0  0  0  0  0  0  0
   36.1430   29.9500   39.9970 C   0  0  0  0  0  0  0  0  0  0  0  0
   36.5620   31.2550   40.1610 C   0  0  0  0  0  0  0  0  0  0  0  0
   37.8170   31.6680   39.8360 C   0  0  0  0  0  0  0  0  0  0  0  0
   38.6610   30.7060   39.3300 C   0  0  0  0  0  0  0  0  0  0  0  0
   35.1580   29.5060   40.2220 H   0  0  0  0  0  0  0  0  0  0  0  0
   35.7830   31.8940   40.5690 H   0  0  0  0  0  0  0  0  0  0  0  0
   38.0910   32.7040   39.9870 H   0  0  0  0  0  0  0  0  0  0  0  0
   39.2630   28.6260   38.6350 O   0  0  0  0  0  0  0  0  0  0  0  0
   39.0920   28.3790   37.6480 H   0  0  0  0  0  0  0  0  0  0  0  0
   39.9200   31.1820   39.0260 O   0  0  0  0  0  0  0  0  0  0  0  0
   40.0920   32.2760   38.1800 C   0  0  0  0  0  0  0  0  0  0  0  0
   40.6430   33.3510   38.5960 O   0  0  0  0  0  0  0  0  0  0  0  0
   39.6750   32.2680   36.8150 N   0  0  0  0  0  0  0  0  0  0  0  0
   40.5010   31.9060   36.2880 H   0  0  0  0  0  0  0  0  0  0  0  0
   38.6910   32.6000   36.6120 H   0  0  0  0  0  0  0  0  0  0  0  0
   38.7730   29.5860   42.9690 C   0  0  0  0  0  0  0  0  0  0  0  0
   40.1400   29.4080   42.6420 C   0  0  0  0  0  0  0  0  0  0  0  0
   40.4450   28.2960   41.8900 C   0  0  0  0  0  0  0  0  0  0  0  0
   39.4100   27.5240   41.5690 N   0  0  0  0  0  0  0  0  0  0  0  0
   38.1210   27.6570   41.8580 C   0  0  0  0  0  0  0  0  0  0  0  0
   37.8450   28.7140   42.5650 N   0  0  0  0  0  0  0  0  0  0  0  0
   38.5100   30.4620   43.5640 H   0  0  0  0  0  0  0  0  0  0  0  0
   40.9050   30.0910   42.9540 H   0  0  0  0  0  0  0  0  0  0  0  0
   41.7620   28.0280   41.4340 N   0  0  0  0  0  0  0  0  0  0  0  0
   41.7070   28.1300   40.3800 H   0  0  0  0  0  0  0  0  0  0  0  0
   42.3300   27.8220   42.3010 H   0  0  0  0  0  0  0  0  0  0  0  0
  1 38  1  0  0  0  0
  1  2  1  0  0  0  0
  2 11  1  0  0  0  0
  3  2  2  0  0  0  0
  3 12  1  0  0  0  0
  4  3  1  0  0  0  0
  5 10  1  0  0  0  0
  5  4  2  0  0  0  0
  6  5  1  0  0  0  0
  7  8  1  0  0  0  0
  7  6  2  0  0  0  0
  8  9  2  0  0  0  0
  9 18  1  0  0  0  0
  9 10  1  0  0  0  0
 10  1  2  0  0  0  0
 13  4  1  0  0  0  0
 14  6  1  0  0  0  0
 15  7  1  0  0  0  0
 16  8  1  0  0  0  0
 17 22  2  0  0  0  0
 17 18  1  0  0  0  0
 18 19  2  0  0  0  0
 19 20  1  0  0  0  0
 19 23  1  0  0  0  0
 20 24  1  0  0  0  0
 21 25  1  0  0  0  0
 21 20  2  0  0  0  0
 22 21  1  0  0  0  0
 26 17  1  0  0  0  0
 27 26  1  0  0  0  0
 28 22  1  0  0  0  0
 29 30  2  0  0  0  0
 29 28  1  0  0  0  0
 31 29  1  0  0  0  0
 32 31  1  0  0  0  0
 33 31  1  0  0  0  0
 34 40  1  0  0  0  0
 35 41  1  0  0  0  0
 35 34  1  0  0  0  0
 36 35  2  0  0  0  0
 37 38  2  0  0  0  0
 37 36  1  0  0  0  0
 38 39  1  0  0  0  0
 39 34  2  0  0  0  0
 42 36  1  0  0  0  0
 42 44  1  0  0  0  0
 43 42  1  0  0  0  0
M  END
>  <minimizedAffinity>
-6.63089895

$$$$

 OpenBabel03242521573D

 44 47  0  0  0  0  0  0  0  0999 V2000
   37.9860   31.4640   40.5550 C   0  0  0  0  0  0  0  0  0  0  0  0
   37.8760   32.7330   39.9910 C   0  0  0  0  0  0  0  0  0  0  0  0
   38.9150   33.6710   40.0150 C   0  0  0  0  0  0  0  0  0  0  0  0
   40.1100   33.3710   40.6090 C   0  0  0  0  0  0  0  0  0  0  0  0
   40.2480   32.0930   41.1970 C   0  0  0  0  0  0  0  0  0  0  0  0
   41.4280   31.8550   41.8200 C   0  0  0  0  0  0  0  0  0  0  0  0
   41.5690   30.6300   42.4730 C   0  0  0  0  0  0  0  0  0  0  0  0
   40.4630   29.7060   42.4530 C   0  0  0  0  0  0  0  0  0  0  0  0
   39.3340   30.1030   41.7750 C   0  0  0  0  0  0  0  0  0  0  0  0
   39.1460   31.2370   41.1220 C   0  0  0  0  0  0  0  0  0  0  0  0
   36.9180   32.9880   39.5090 H   0  0  0  0  0  0  0  0  0  0  0  0
   38.7270   34.6370   39.5450 H   0  0  0  0  0  0  0  0  0  0  0  0
   40.8960   34.1090   40.6080 H   0  0  0  0  0  0  0  0  0  0  0  0
   42.2240   32.5850   41.8100 H   0  0  0  0  0  0  0  0  0  0  0  0
   42.5340   30.5030   42.9430 H   0  0  0  0  0  0  0  0  0  0  0  0
   40.8530   28.8760   43.0210 H   0  0  0  0  0  0  0  0  0  0  0  0
   38.5730   27.9090   41.5380 C   0  0  0  0  0  0  0  0  0  0  0  0
   38.5250   29.0740   42.3980 C   0  0  0  0  0  0  0  0  0  0  0  0
   37.6590   28.8840   43.3920 C   0  0  0  0  0  0  0  0  0  0  0  0
   36.8970   27.7510   43.5970 C   0  0  0  0  0  0  0  0  0  0  0  0
   36.9560   26.6690   42.7740 C   0  0  0  0  0  0  0  0  0  0  0  0
   37.8260   26.7620   41.7120 C   0  0  0  0  0  0  0  0  0  0  0  0
   37.6940   29.8120   43.9890 H   0  0  0  0  0  0  0  0  0  0  0  0
   36.2630   27.8310   44.4760 H   0  0  0  0  0  0  0  0  0  0  0  0
   36.3340   25.8090   42.9820 H   0  0  0  0  0  0  0  0  0  0  0  0
   39.3880   27.7450   40.3830 O   0  0  0  0  0  0  0  0  0  0  0  0
   40.3820   27.6110   40.6260 H   0  0  0  0  0  0  0  0  0  0  0  0
   37.8380   25.6380   40.9100 O   0  0  0  0  0  0  0  0  0  0  0  0
   38.6730   24.5600   41.1920 C   0  0  0  0  0  0  0  0  0  0  0  0
   39.9430   24.6970   41.2110 O   0  0  0  0  0  0  0  0  0  0  0  0
   38.1750   23.2520   41.4750 N   0  0  0  0  0  0  0  0  0  0  0  0
   38.0400   23.2390   42.5110 H   0  0  0  0  0  0  0  0  0  0  0  0
   38.0460   22.5990   40.6520 H   0  0  0  0  0  0  0  0  0  0  0  0
   35.0700   29.1420   40.3800 C   0  0  0  0  0  0  0  0  0  0  0  0
   35.3920   28.4380   39.1940 C   0  0  0  0  0  0  0  0  0  0  0  0
   36.5730   28.7900   38.5810 C   0  0  0  0  0  0  0  0  0  0  0  0
   37.2610   29.7570   39.1820 N   0  0  0  0  0  0  0  0  0  0  0  0
   36.9900   30.4390   40.2880 C   0  0  0  0  0  0  0  0  0  0  0  0
   35.8740   30.0940   40.8610 N   0  0  0  0  0  0  0  0  0  0  0  0
   34.1380   28.8770   40.8830 H   0  0  0  0  0  0  0  0  0  0  0  0
   34.7640   27.6710   38.7850 H   0  0  0  0  0  0  0  0  0  0  0  0
   37.0530   28.1240   37.4230 N   0  0  0  0  0  0  0  0  0  0  0  0
   37.9320   27.6250   37.7470 H   0  0  0  0  0  0  0  0  0  0  0  0
   36.3700   28.3580   36.6510 H   0  0  0  0  0  0  0  0  0  0  0  0
  1 10  1  0  0  0  0
  2  3  1  0  0  0  0
  2  1  2  0  0  0  0
  3  4  2  0  0  0  0
  4  5  1  0  0  0  0
  5  6  1  0  0  0  0
  6  7  2  0  0  0  0
  7 15  1  0  0  0  0
  8  7  1  0  0  0  0
  8 16  1  0  0  0  0
  9 18  1  0  0  0  0
  9  8  2  0  0  0  0
 10  5  2  0  0  0  0
 10  9  1  0  0  0  0
 11  2  1  0  0  0  0
 12  3  1  0  0  0  0
 13  4  1  0  0  0  0
 14  6  1  0  0  0  0
 17 22  2  0  0  0  0
 17 18  1  0  0  0  0
 18 19  2  0  0  0  0
 19 20  1  0  0  0  0
 19 23  1  0  0  0  0
 20 24  1  0  0  0  0
 21 25  1  0  0  0  0
 21 20  2  0  0  0  0
 22 21  1  0  0  0  0
 26 27  1  0  0  0  0
 26 17  1  0  0  0  0
 28 29  1  0  0  0  0
 28 22  1  0  0  0  0
 29 30  2  0  0  0  0
 29 31  1  0  0  0  0
 31 32  1  0  0  0  0
 33 31  1  0  0  0  0
 34 39  1  0  0  0  0
 34 40  1  0  0  0  0
 35 34  2  0  0  0  0
 36 37  2  0  0  0  0
 36 35  1  0  0  0  0
 37 38  1  0  0  0  0
 38  1  1  0  0  0  0
 38 39  2  0  0  0  0
 41 35  1  0  0  0  0
 42 43  1  0  0  0  0
 42 36  1  0  0  0  0
 44 42  1  0  0  0  0
M  END
>  <minimizedAffinity>
-6.62070608

$$$$

 OpenBabel03242521573D

 44 47  0  0  0  0  0  0  0  0999 V2000
   39.4480   30.4020   41.6240 C   0  0  0  0  0  0  0  0  0  0  0  0
   40.7990   30.4970   41.9470 C   0  0  0  0  0  0  0  0  0  0  0  0
   41.5640   31.6440   41.6970 C   0  0  0  0  0  0  0  0  0  0  0  0
   40.9990   32.7430   41.1130 C   0  0  0  0  0  0  0  0  0  0  0  0
   39.6310   32.6730   40.7670 C   0  0  0  0  0  0  0  0  0  0  0  0
   39.1240   33.7640   40.1430 C   0  0  0  0  0  0  0  0  0  0  0  0
   37.7940   33.6990   39.7240 C   0  0  0  0  0  0  0  0  0  0  0  0
   37.0520   32.4880   39.9690 C   0  0  0  0  0  0  0  0  0  0  0  0
   37.7160   31.4710   40.6150 C   0  0  0  0  0  0  0  0  0  0  0  0
   38.9630   31.4790   41.0540 C   0  0  0  0  0  0  0  0  0  0  0  0
   41.2670   29.6180   42.4190 H   0  0  0  0  0  0  0  0  0  0  0  0
   42.6150   31.6150   41.9880 H   0  0  0  0  0  0  0  0  0  0  0  0
   41.6090   33.6150   40.9380 H   0  0  0  0  0  0  0  0  0  0  0  0
   39.7260   34.6460   39.9780 H   0  0  0  0  0  0  0  0  0  0  0  0
   37.4520   34.6030   39.2390 H   0  0  0  0  0  0  0  0  0  0  0  0
   36.0870   32.7260   39.5470 H   0  0  0  0  0  0  0  0  0  0  0  0
   37.0600   30.0190   38.9090 C   0  0  0  0  0  0  0  0  0  0  0  0
   36.7160   30.4940   40.2350 C   0  0  0  0  0  0  0  0  0  0  0  0
   35.5410   29.9990   40.6160 C   0  0  0  0  0  0  0  0  0  0  0  0
   34.7380   29.1550   39.8740 C   0  0  0  0  0  0  0  0  0  0  0  0
   35.0800   28.7250   38.6290 C   0  0  0  0  0  0  0  0  0  0  0  0
   36.2830   29.1780   38.1400 C   0  0  0  0  0  0  0  0  0  0  0  0
   35.3680   30.4070   41.6270 H   0  0  0  0  0  0  0  0  0  0  0  0
   33.8240   28.8850   40.3970 H   0  0  0  0  0  0  0  0  0  0  0  0
   34.4100   28.0660   38.0930 H   0  0  0  0  0  0  0  0  0  0  0  0
   38.2430   30.3310   38.1810 O   0  0  0  0  0  0  0  0  0  0  0  0
   39.0730   29.8570   38.5700 H   0  0  0  0  0  0  0  0  0  0  0  0
   36.5720   28.7140   36.8730 O   0  0  0  0  0  0  0  0  0  0  0  0
   36.2080   29.4380   35.7390 C   0  0  0  0  0  0  0  0  0  0  0  0
   35.1670   29.1290   35.0660 O   0  0  0  0  0  0  0  0  0  0  0  0
   36.9590   30.5540   35.2630 N   0  0  0  0  0  0  0  0  0  0  0  0
   36.5460   31.3790   35.7530 H   0  0  0  0  0  0  0  0  0  0  0  0
   37.7290   30.3520   34.5650 H   0  0  0  0  0  0  0  0  0  0  0  0
   37.1260   28.0590   43.3680 C   0  0  0  0  0  0  0  0  0  0  0  0
   37.1940   26.9510   42.4890 C   0  0  0  0  0  0  0  0  0  0  0  0
   38.0350   27.0850   41.4070 C   0  0  0  0  0  0  0  0  0  0  0  0
   38.6760   28.2480   41.3250 N   0  0  0  0  0  0  0  0  0  0  0  0
   38.6360   29.3060   42.1260 C   0  0  0  0  0  0  0  0  0  0  0  0
   37.8400   29.1650   43.1470 N   0  0  0  0  0  0  0  0  0  0  0  0
   36.4650   27.9720   44.2330 H   0  0  0  0  0  0  0  0  0  0  0  0
   36.6300   26.0520   42.6420 H   0  0  0  0  0  0  0  0  0  0  0  0
   38.2510   26.0310   40.4810 N   0  0  0  0  0  0  0  0  0  0  0  0
   39.2660   25.7550   40.6220 H   0  0  0  0  0  0  0  0  0  0  0  0
   37.3310   25.8950   39.9790 H   0  0  0  0  0  0  0  0  0  0  0  0
  1  2  1  0  0  0  0
  1 38  1  0  0  0  0
  2 11  1  0  0  0  0
  3  2  2  0  0  0  0
  3 12  1  0  0  0  0
  4  3  1  0  0  0  0
  5 10  1  0  0  0  0
  5  4  2  0  0  0  0
  6  5  1  0  0  0  0
  7  8  1  0  0  0  0
  7  6  2  0  0  0  0
  8  9  2  0  0  0  0
  9 10  1  0  0  0  0
 10  1  2  0  0  0  0
 13  4  1  0  0  0  0
 14  6  1  0  0  0  0
 15  7  1  0  0  0  0
 16  8  1  0  0  0  0
 17 18  1  0  0  0  0
 18  9  1  0  0  0  0
 18 19  2  0  0  0  0
 19 23  1  0  0  0  0
 20 24  1  0  0  0  0
 20 19  1  0  0  0  0
 21 20  2  0  0  0  0
 22 21  1  0  0  0  0
 22 17  2  0  0  0  0
 25 21  1  0  0  0  0
 26 27  1  0  0  0  0
 26 17  1  0  0  0  0
 28 22  1  0  0  0  0
 29 28  1  0  0  0  0
 30 29  2  0  0  0  0
 31 29  1  0  0  0  0
 31 32  1  0  0  0  0
 33 31  1  0  0  0  0
 34 40  1  0  0  0  0
 35 41  1  0  0  0  0
 35 34  2  0  0  0  0
 36 35  1  0  0  0  0
 37 36  2  0  0  0  0
 37 38  1  0  0  0  0
 38 39  2  0  0  0  0
 39 34  1  0  0  0  0
 42 43  1  0  0  0  0
 42 36  1  0  0  0  0
 44 42  1  0  0  0  0
M  END
>  <minimizedAffinity>
-6.54833651

$$$$

 OpenBabel03242521573D

 44 47  0  0  0  0  0  0  0  0999 V2000
   37.2030   27.1770   39.1970 C   0  0  0  0  0  0  0  0  0  0  0  0
   36.5950   26.8590   37.9850 C   0  0  0  0  0  0  0  0  0  0  0  0
   35.9490   25.6380   37.7520 C   0  0  0  0  0  0  0  0  0  0  0  0
   35.8880   24.6860   38.7310 C   0  0  0  0  0  0  0  0  0  0  0  0
   36.5030   24.9780   39.9690 C   0  0  0  0  0  0  0  0  0  0  0  0
   36.4650   23.9870   40.8940 C   0  0  0  0  0  0  0  0  0  0  0  0
   37.1250   24.2160   42.1020 C   0  0  0  0  0  0  0  0  0  0  0  0
   37.8070   25.4720   42.2880 C   0  0  0  0  0  0  0  0  0  0  0  0
   37.7500   26.3710   41.2490 C   0  0  0  0  0  0  0  0  0  0  0  0
   37.1250   26.2230   40.0930 C   0  0  0  0  0  0  0  0  0  0  0  0
   36.6370   27.6180   37.1870 H   0  0  0  0  0  0  0  0  0  0  0  0
   35.5060   25.4880   36.7670 H   0  0  0  0  0  0  0  0  0  0  0  0
   35.3790   23.7570   38.5280 H   0  0  0  0  0  0  0  0  0  0  0  0
   35.9440   23.0600   40.7020 H   0  0  0  0  0  0  0  0  0  0  0  0
   37.0510   23.3890   42.7950 H   0  0  0  0  0  0  0  0  0  0  0  0
   38.2110   25.3630   43.2830 H   0  0  0  0  0  0  0  0  0  0  0  0
   40.0760   26.5200   41.3800 C   0  0  0  0  0  0  0  0  0  0  0  0
   38.8400   27.1580   41.7890 C   0  0  0  0  0  0  0  0  0  0  0  0
   39.0900   28.1600   42.6290 C   0  0  0  0  0  0  0  0  0  0  0  0
   40.3360   28.5560   43.0710 C   0  0  0  0  0  0  0  0  0  0  0  0
   41.4830   27.9390   42.6760 C   0  0  0  0  0  0  0  0  0  0  0  0
   41.3370   26.8880   41.8010 C   0  0  0  0  0  0  0  0  0  0  0  0
   38.1010   28.5830   42.8790 H   0  0  0  0  0  0  0  0  0  0  0  0
   40.2870   29.3990   43.7550 H   0  0  0  0  0  0  0  0  0  0  0  0
   42.4330   28.2910   43.0560 H   0  0  0  0  0  0  0  0  0  0  0  0
   40.2020   25.4220   40.4830 O   0  0  0  0  0  0  0  0  0  0  0  0
   40.0160   25.6960   39.5060 H   0  0  0  0  0  0  0  0  0  0  0  0
   42.5320   26.3000   41.4420 O   0  0  0  0  0  0  0  0  0  0  0  0
   43.3790   25.7450   42.3990 C   0  0  0  0  0  0  0  0  0  0  0  0
   44.6080   26.0870   42.4700 O   0  0  0  0  0  0  0  0  0  0  0  0
   42.9380   24.7740   43.3480 N   0  0  0  0  0  0  0  0  0  0  0  0
   42.6090   25.3350   44.1660 H   0  0  0  0  0  0  0  0  0  0  0  0
   43.0200   23.7570   43.0680 H   0  0  0  0  0  0  0  0  0  0  0  0
   38.8340   30.5200   39.4990 C   0  0  0  0  0  0  0  0  0  0  0  0
   37.8250   31.2180   40.2060 C   0  0  0  0  0  0  0  0  0  0  0  0
   36.7040   30.4930   40.5390 C   0  0  0  0  0  0  0  0  0  0  0  0
   36.7100   29.2220   40.1470 N   0  0  0  0  0  0  0  0  0  0  0  0
   37.6330   28.5360   39.4830 C   0  0  0  0  0  0  0  0  0  0  0  0
   38.6900   29.2310   39.1780 N   0  0  0  0  0  0  0  0  0  0  0  0
   39.7330   31.0760   39.2270 H   0  0  0  0  0  0  0  0  0  0  0  0
   37.9150   32.2520   40.4750 H   0  0  0  0  0  0  0  0  0  0  0  0
   35.6430   31.0460   41.3040 N   0  0  0  0  0  0  0  0  0  0  0  0
   35.6690   30.5130   42.2210 H   0  0  0  0  0  0  0  0  0  0  0  0
   35.2050   31.7890   40.6940 H   0  0  0  0  0  0  0  0  0  0  0  0
  1 38  1  0  0  0  0
  1 10  1  0  0  0  0
  2  1  2  0  0  0  0
  3  2  1  0  0  0  0
  3  4  2  0  0  0  0
  4  5  1  0  0  0  0
  5 10  2  0  0  0  0
  5  6  1  0  0  0  0
  6  7  2  0  0  0  0
  7  8  1  0  0  0  0
  7 15  1  0  0  0  0
  8 16  1  0  0  0  0
  9 18  1  0  0  0  0
  9  8  2  0  0  0  0
 10  9  1  0  0  0  0
 11  2  1  0  0  0  0
 12  3  1  0  0  0  0
 13  4  1  0  0  0  0
 14  6  1  0  0  0  0
 17 18  2  0  0  0  0
 17 22  1  0  0  0  0
 18 19  1  0  0  0  0
 19 23  1  0  0  0  0
 19 20  2  0  0  0  0
 20 24  1  0  0  0  0
 21 25  1  0  0  0  0
 21 20  1  0  0  0  0
 22 21  2  0  0  0  0
 26 17  1  0  0  0  0
 27 26  1  0  0  0  0
 28 22  1  0  0  0  0
 28 29  1  0  0  0  0
 29 30  2  0  0  0  0
 29 31  1  0  0  0  0
 31 32  1  0  0  0  0
 33 31  1  0  0  0  0
 34 35  1  0  0  0  0
 35 41  1  0  0  0  0
 35 36  2  0  0  0  0
 36 42  1  0  0  0  0
 37 36  1  0  0  0  0
 38 37  2  0  0  0  0
 39 38  1  0  0  0  0
 39 34  2  0  0  0  0
 40 34  1  0  0  0  0
 42 43  1  0  0  0  0
 44 42  1  0  0  0  0
M  END
>  <minimizedAffinity>
-6.52900171

$$$$

 OpenBabel03242521573D

 44 47  0  0  0  0  0  0  0  0999 V2000
   37.6540   29.2870   37.8780 C   0  0  0  0  0  0  0  0  0  0  0  0
   37.7720   29.0870   36.5050 C   0  0  0  0  0  0  0  0  0  0  0  0
   36.6710   28.8680   35.6680 C   0  0  0  0  0  0  0  0  0  0  0  0
   35.4030   28.8430   36.1790 C   0  0  0  0  0  0  0  0  0  0  0  0
   35.2530   29.0370   37.5710 C   0  0  0  0  0  0  0  0  0  0  0  0
   33.9850   28.9520   38.0440 C   0  0  0  0  0  0  0  0  0  0  0  0
   33.8100   29.0670   39.4240 C   0  0  0  0  0  0  0  0  0  0  0  0
   34.9730   29.2560   40.2540 C   0  0  0  0  0  0  0  0  0  0  0  0
   36.1890   29.3190   39.6140 C   0  0  0  0  0  0  0  0  0  0  0  0
   36.4180   29.2390   38.3140 C   0  0  0  0  0  0  0  0  0  0  0  0
   38.7890   29.1050   36.0800 H   0  0  0  0  0  0  0  0  0  0  0  0
   36.8730   28.7210   34.6060 H   0  0  0  0  0  0  0  0  0  0  0  0
   34.5720   28.6800   35.5120 H   0  0  0  0  0  0  0  0  0  0  0  0
   33.1470   28.8030   37.3780 H   0  0  0  0  0  0  0  0  0  0  0  0
   32.7760   28.9960   39.7330 H   0  0  0  0  0  0  0  0  0  0  0  0
   34.5390   29.3080   41.2400 H   0  0  0  0  0  0  0  0  0  0  0  0
   36.9920   27.6790   41.0680 C   0  0  0  0  0  0  0  0  0  0  0  0
   36.9180   29.1100   40.8490 C   0  0  0  0  0  0  0  0  0  0  0  0
   37.4070   29.7680   41.8980 C   0  0  0  0  0  0  0  0  0  0  0  0
   37.9140   29.1960   43.0480 C   0  0  0  0  0  0  0  0  0  0  0  0
   37.9710   27.8500   43.2340 C   0  0  0  0  0  0  0  0  0  0  0  0
   37.4920   27.0740   42.2030 C   0  0  0  0  0  0  0  0  0  0  0  0
   37.3140   30.8370   41.6400 H   0  0  0  0  0  0  0  0  0  0  0  0
   38.2540   29.9390   43.7660 H   0  0  0  0  0  0  0  0  0  0  0  0
   38.3780   27.4570   44.1560 H   0  0  0  0  0  0  0  0  0  0  0  0
   36.5720   26.6640   40.1640 O   0  0  0  0  0  0  0  0  0  0  0  0
   37.2100   26.5770   39.3560 H   0  0  0  0  0  0  0  0  0  0  0  0
   37.5690   25.7190   42.4510 O   0  0  0  0  0  0  0  0  0  0  0  0
   38.7130   24.9910   42.1280 C   0  0  0  0  0  0  0  0  0  0  0  0
   39.3120   25.1670   41.0140 O   0  0  0  0  0  0  0  0  0  0  0  0
   39.2800   24.0180   43.0050 N   0  0  0  0  0  0  0  0  0  0  0  0
   39.9580   24.5550   43.5920 H   0  0  0  0  0  0  0  0  0  0  0  0
   38.9370   23.0220   42.9040 H   0  0  0  0  0  0  0  0  0  0  0  0
   40.7370   29.8320   39.9100 C   0  0  0  0  0  0  0  0  0  0  0  0
   40.7940   31.2470   39.8880 C   0  0  0  0  0  0  0  0  0  0  0  0
   39.7760   31.8860   39.2170 C   0  0  0  0  0  0  0  0  0  0  0  0
   38.8660   31.0860   38.6670 N   0  0  0  0  0  0  0  0  0  0  0  0
   38.7810   29.7610   38.6640 C   0  0  0  0  0  0  0  0  0  0  0  0
   39.7470   29.1690   39.3060 N   0  0  0  0  0  0  0  0  0  0  0  0
   41.5340   29.3060   40.4380 H   0  0  0  0  0  0  0  0  0  0  0  0
   41.5770   31.8030   40.3630 H   0  0  0  0  0  0  0  0  0  0  0  0
   39.6700   33.3000   39.1700 N   0  0  0  0  0  0  0  0  0  0  0  0
   38.7930   33.5220   39.7240 H   0  0  0  0  0  0  0  0  0  0  0  0
   40.4980   33.6330   38.6040 H   0  0  0  0  0  0  0  0  0  0  0  0
  1 10  1  0  0  0  0
  1 38  1  0  0  0  0
  2  1  2  0  0  0  0
  3  4  2  0  0  0  0
  3  2  1  0  0  0  0
  4  5  1  0  0  0  0
  5  6  2  0  0  0  0
  5 10  1  0  0  0  0
  6  7  1  0  0  0  0
  7 15  1  0  0  0  0
  7  8  2  0  0  0  0
  8 16  1  0  0  0  0
  9  8  1  0  0  0  0
  9 18  1  0  0  0  0
 10  9  2  0  0  0  0
 11  2  1  0  0  0  0
 12  3  1  0  0  0  0
 13  4  1  0  0  0  0
 14  6  1  0  0  0  0
 17 22  1  0  0  0  0
 18 17  2  0  0  0  0
 18 19  1  0  0  0  0
 19 20  2  0  0  0  0
 20 21  1  0  0  0  0
 20 24  1  0  0  0  0
 21 25  1  0  0  0  0
 22 28  1  0  0  0  0
 22 21  2  0  0  0  0
 23 19  1  0  0  0  0
 26 17  1  0  0  0  0
 27 26  1  0  0  0  0
 29 28  1  0  0  0  0
 29 31  1  0  0  0  0
 30 29  2  0  0  0  0
 31 32  1  0  0  0  0
 33 31  1  0  0  0  0
 34 40  1  0  0  0  0
 35 34  1  0  0  0  0
 35 41  1  0  0  0  0
 36 35  2  0  0  0  0
 37 36  1  0  0  0  0
 38 37  2  0  0  0  0
 38 39  1  0  0  0  0
 39 34  2  0  0  0  0
 42 36  1  0  0  0  0
 42 43  1  0  0  0  0
 44 42  1  0  0  0  0
M  END
>  <minimizedAffinity>
-6.48309469

$$$$

 OpenBabel03242521573D

 44 47  0  0  0  0  0  0  0  0999 V2000
   36.9960   25.1400   39.4130 C   0  0  0  0  0  0  0  0  0  0  0  0
   37.5070   23.8970   39.7760 C   0  0  0  0  0  0  0  0  0  0  0  0
   37.8390   23.5640   41.0950 C   0  0  0  0  0  0  0  0  0  0  0  0
   37.6690   24.4700   42.1050 C   0  0  0  0  0  0  0  0  0  0  0  0
   37.1580   25.7430   41.7650 C   0  0  0  0  0  0  0  0  0  0  0  0
   37.0550   26.6280   42.7870 C   0  0  0  0  0  0  0  0  0  0  0  0
   36.6220   27.9170   42.4730 C   0  0  0  0  0  0  0  0  0  0  0  0
   36.3240   28.2290   41.0970 C   0  0  0  0  0  0  0  0  0  0  0  0
   36.4830   27.2150   40.1820 C   0  0  0  0  0  0  0  0  0  0  0  0
   36.8670   25.9730   40.4180 C   0  0  0  0  0  0  0  0  0  0  0  0
   37.6490   23.1570   38.9720 H   0  0  0  0  0  0  0  0  0  0  0  0
   38.2340   22.5630   41.2740 H   0  0  0  0  0  0  0  0  0  0  0  0
   37.9260   24.1860   43.1130 H   0  0  0  0  0  0  0  0  0  0  0  0
   37.2970   26.3450   43.8010 H   0  0  0  0  0  0  0  0  0  0  0  0
   36.5560   28.5700   43.3330 H   0  0  0  0  0  0  0  0  0  0  0  0
   36.0250   29.2640   41.1610 H   0  0  0  0  0  0  0  0  0  0  0  0
   37.7960   28.6600   38.9030 C   0  0  0  0  0  0  0  0  0  0  0  0
   36.4540   28.1380   39.0640 C   0  0  0  0  0  0  0  0  0  0  0  0
   35.6090   28.7620   38.2460 C   0  0  0  0  0  0  0  0  0  0  0  0
   35.9350   29.7710   37.3620 C   0  0  0  0  0  0  0  0  0  0  0  0
   37.2020   30.2490   37.2290 C   0  0  0  0  0  0  0  0  0  0  0  0
   38.1570   29.6670   38.0310 C   0  0  0  0  0  0  0  0  0  0  0  0
   34.6250   28.2990   38.4350 H   0  0  0  0  0  0  0  0  0  0  0  0
   35.0750   30.1250   36.8000 H   0  0  0  0  0  0  0  0  0  0  0  0
   37.3990   31.0430   36.5210 H   0  0  0  0  0  0  0  0  0  0  0  0
   38.9590   28.2310   39.6020 O   0  0  0  0  0  0  0  0  0  0  0  0
   39.2790   27.3010   39.2870 H   0  0  0  0  0  0  0  0  0  0  0  0
   39.4190   30.1960   37.8570 O   0  0  0  0  0  0  0  0  0  0  0  0
   39.6480   31.5670   37.9600 C   0  0  0  0  0  0  0  0  0  0  0  0
   39.4960   32.1780   39.0720 O   0  0  0  0  0  0  0  0  0  0  0  0
   40.0610   32.3650   36.8520 N   0  0  0  0  0  0  0  0  0  0  0  0
   41.1050   32.3300   36.8750 H   0  0  0  0  0  0  0  0  0  0  0  0
   39.2970   32.8030   36.2650 H   0  0  0  0  0  0  0  0  0  0  0  0
   36.2060   25.7340   35.8140 C   0  0  0  0  0  0  0  0  0  0  0  0
   34.8100   25.4950   35.8310 C   0  0  0  0  0  0  0  0  0  0  0  0
   34.2610   25.1850   37.0540 C   0  0  0  0  0  0  0  0  0  0  0  0
   35.1190   25.1440   38.0690 N   0  0  0  0  0  0  0  0  0  0  0  0
   36.4290   25.3580   38.0920 C   0  0  0  0  0  0  0  0  0  0  0  0
   36.9360   25.6550   36.9310 N   0  0  0  0  0  0  0  0  0  0  0  0
   36.6610   25.9830   34.8540 H   0  0  0  0  0  0  0  0  0  0  0  0
   34.2020   25.5500   34.9500 H   0  0  0  0  0  0  0  0  0  0  0  0
   32.8670   24.9870   37.2300 N   0  0  0  0  0  0  0  0  0  0  0  0
   32.5550   25.7990   37.8380 H   0  0  0  0  0  0  0  0  0  0  0  0
   32.6310   24.1050   36.6970 H   0  0  0  0  0  0  0  0  0  0  0  0
  1  2  2  0  0  0  0
  1 10  1  0  0  0  0
  2  3  1  0  0  0  0
  3 12  1  0  0  0  0
  3  4  2  0  0  0  0
  4 13  1  0  0  0  0
  5  4  1  0  0  0  0
  5  6  1  0  0  0  0
  6 14  1  0  0  0  0
  7  6  2  0  0  0  0
  7 15  1  0  0  0  0
  8 16  1  0  0  0  0
  8  7  1  0  0  0  0
  9 10  1  0  0  0  0
  9  8  2  0  0  0  0
 10  5  2  0  0  0  0
 11  2  1  0  0  0  0
 17 18  1  0  0  0  0
 17 26  1  0  0  0  0
 18  9  1  0  0  0  0
 19 23  1  0  0  0  0
 19 18  2  0  0  0  0
 20 19  1  0  0  0  0
 21 20  2  0  0  0  0
 21 22  1  0  0  0  0
 22 17  2  0  0  0  0
 24 20  1  0  0  0  0
 25 21  1  0  0  0  0
 27 26  1  0  0  0  0
 28 29  1  0  0  0  0
 28 22  1  0  0  0  0
 29 30  2  0  0  0  0
 31 32  1  0  0  0  0
 31 29  1  0  0  0  0
 33 31  1  0  0  0  0
 34 35  2  0  0  0  0
 34 39  1  0  0  0  0
 35 36  1  0  0  0  0
 36 42  1  0  0  0  0
 36 37  2  0  0  0  0
 37 38  1  0  0  0  0
 38  1  1  0  0  0  0
 39 38  2  0  0  0  0
 40 34  1  0  0  0  0
 41 35  1  0  0  0  0
 42 43  1  0  0  0  0
 44 42  1  0  0  0  0
M  END
>  <minimizedAffinity>
-6.46836948

$$$$

 OpenBabel03242521573D

 44 47  0  0  0  0  0  0  0  0999 V2000
   38.1930   25.4080   40.8630 C   0  0  0  0  0  0  0  0  0  0  0  0
   39.0980   24.4800   41.3700 C   0  0  0  0  0  0  0  0  0  0  0  0
   39.7340   24.6310   42.6090 C   0  0  0  0  0  0  0  0  0  0  0  0
   39.4830   25.7250   43.3900 C   0  0  0  0  0  0  0  0  0  0  0  0
   38.5730   26.6880   42.8980 C   0  0  0  0  0  0  0  0  0  0  0  0
   38.3920   27.7810   43.6800 C   0  0  0  0  0  0  0  0  0  0  0  0
   37.5550   28.7840   43.1890 C   0  0  0  0  0  0  0  0  0  0  0  0
   36.9480   28.6050   41.8940 C   0  0  0  0  0  0  0  0  0  0  0  0
   37.2360   27.4360   41.2290 C   0  0  0  0  0  0  0  0  0  0  0  0
   38.0010   26.4420   41.6470 C   0  0  0  0  0  0  0  0  0  0  0  0
   39.3100   23.5930   40.7500 H   0  0  0  0  0  0  0  0  0  0  0  0
   40.4280   23.8460   42.9130 H   0  0  0  0  0  0  0  0  0  0  0  0
   39.9800   25.8130   44.3430 H   0  0  0  0  0  0  0  0  0  0  0  0
   38.8770   27.8690   44.6410 H   0  0  0  0  0  0  0  0  0  0  0  0
   37.4510   29.6240   43.8630 H   0  0  0  0  0  0  0  0  0  0  0  0
   36.3760   29.5140   41.7860 H   0  0  0  0  0  0  0  0  0  0  0  0
   37.8630   28.6220   39.3190 C   0  0  0  0  0  0  0  0  0  0  0  0
   36.7490   27.9610   39.9690 C   0  0  0  0  0  0  0  0  0  0  0  0
   35.6240   28.1630   39.2860 C   0  0  0  0  0  0  0  0  0  0  0  0
   35.5030   28.8980   38.1240 C   0  0  0  0  0  0  0  0  0  0  0  0
   36.5620   29.5130   37.5320 C   0  0  0  0  0  0  0  0  0  0  0  0
   37.7780   29.3640   38.1590 C   0  0  0  0  0  0  0  0  0  0  0  0
   34.8420   27.6240   39.8490 H   0  0  0  0  0  0  0  0  0  0  0  0
   34.4820   28.9200   37.7510 H   0  0  0  0  0  0  0  0  0  0  0  0
   36.4080   30.0780   36.6220 H   0  0  0  0  0  0  0  0  0  0  0  0
   39.2180   28.6190   39.7550 O   0  0  0  0  0  0  0  0  0  0  0  0
   39.6700   27.7040   39.6060 H   0  0  0  0  0  0  0  0  0  0  0  0
   38.8120   30.0150   37.5170 O   0  0  0  0  0  0  0  0  0  0  0  0
   39.0620   31.3670   37.7400 C   0  0  0  0  0  0  0  0  0  0  0  0
   39.2110   31.8230   38.9240 O   0  0  0  0  0  0  0  0  0  0  0  0
   39.1690   32.3170   36.6800 N   0  0  0  0  0  0  0  0  0  0  0  0
   40.1820   32.3140   36.4230 H   0  0  0  0  0  0  0  0  0  0  0  0
   38.2770   32.8020   36.3780 H   0  0  0  0  0  0  0  0  0  0  0  0
   35.5720   24.5050   38.3640 C   0  0  0  0  0  0  0  0  0  0  0  0
   36.2560   24.8330   37.1680 C   0  0  0  0  0  0  0  0  0  0  0  0
   37.5430   25.3010   37.3120 C   0  0  0  0  0  0  0  0  0  0  0  0
   37.9790   25.3890   38.5650 N   0  0  0  0  0  0  0  0  0  0  0  0
   37.3690   25.0940   39.7070 C   0  0  0  0  0  0  0  0  0  0  0  0
   36.1550   24.6500   39.5570 N   0  0  0  0  0  0  0  0  0  0  0  0
   34.5510   24.1320   38.2720 H   0  0  0  0  0  0  0  0  0  0  0  0
   35.8110   24.7290   36.1980 H   0  0  0  0  0  0  0  0  0  0  0  0
   38.3670   25.6050   36.1970 N   0  0  0  0  0  0  0  0  0  0  0  0
   39.1420   24.8810   36.2310 H   0  0  0  0  0  0  0  0  0  0  0  0
   37.9220   26.4410   35.7290 H   0  0  0  0  0  0  0  0  0  0  0  0
  1  2  2  0  0  0  0
  1 10  1  0  0  0  0
  2  3  1  0  0  0  0
  3 12  1  0  0  0  0
  3  4  2  0  0  0  0
  4 13  1  0  0  0  0
  5  4  1  0  0  0  0
  5  6  1  0  0  0  0
  6 14  1  0  0  0  0
  7  6  2  0  0  0  0
  7 15  1  0  0  0  0
  8  7  1  0  0  0  0
  9 10  1  0  0  0  0
  9  8  2  0  0  0  0
 10  5  2  0  0  0  0
 11  2  1  0  0  0  0
 16  8  1  0  0  0  0
 17 26  1  0  0  0  0
 17 18  1  0  0  0  0
 18  9  1  0  0  0  0
 19 23  1  0  0  0  0
 19 18  2  0  0  0  0
 20 19  1  0  0  0  0
 21 20  2  0  0  0  0
 21 22  1  0  0  0  0
 22 17  2  0  0  0  0
 24 20  1  0  0  0  0
 25 21  1  0  0  0  0
 27 26  1  0  0  0  0
 28 29  1  0  0  0  0
 28 22  1  0  0  0  0
 29 30  2  0  0  0  0
 31 29  1  0  0  0  0
 32 31  1  0  0  0  0
 33 31  1  0  0  0  0
 34 39  1  0  0  0  0
 35 36  1  0  0  0  0
 35 34  2  0  0  0  0
 36 37  2  0  0  0  0
 37 38  1  0  0  0  0
 38  1  1  0  0  0  0
 39 38  2  0  0  0  0
 40 34  1  0  0  0  0
 41 35  1  0  0  0  0
 42 43  1  0  0  0  0
 42 36  1  0  0  0  0
 44 42  1  0  0  0  0
M  END
>  <minimizedAffinity>
-6.2823925

$$$$
