
 OpenBabel03242523163D

 23 24  0  0  0  0  0  0  0  0999 V2000
   46.3860   34.2620   43.4520 C   0  0  0  0  0  0  0  0  0  0  0  0
   47.5830   33.7980   43.0280 C   0  0  0  0  0  0  0  0  0  0  0  0
   48.0560   32.6840   43.7170 C   0  0  0  0  0  0  0  0  0  0  0  0
   47.2870   32.1670   44.7440 N   0  0  0  0  0  0  0  0  0  0  0  0
   46.1110   32.6820   45.1100 C   0  0  0  0  0  0  0  0  0  0  0  0
   45.6150   33.7760   44.4530 N   0  0  0  0  0  0  0  0  0  0  0  0
   48.9960   32.2050   43.4880 H   0  0  0  0  0  0  0  0  0  0  0  0
   45.6550   32.1450   45.9310 H   0  0  0  0  0  0  0  0  0  0  0  0
   48.3960   34.3810   42.0280 C   0  0  0  0  0  0  0  0  0  0  0  0
   48.6660   35.6810   41.7440 C   0  0  0  0  0  0  0  0  0  0  0  0
   49.8210   34.9540   42.4370 C   0  0  0  0  0  0  0  0  0  0  0  0
   48.7930   33.5030   41.3440 H   0  0  0  0  0  0  0  0  0  0  0  0
   48.9160   36.0720   40.7130 H   0  0  0  0  0  0  0  0  0  0  0  0
   48.3310   36.5440   42.3760 H   0  0  0  0  0  0  0  0  0  0  0  0
   49.9330   35.0190   43.5190 H   0  0  0  0  0  0  0  0  0  0  0  0
   50.6820   34.7220   41.8360 H   0  0  0  0  0  0  0  0  0  0  0  0
   45.6060   35.3390   42.8230 C   0  0  0  0  0  0  0  0  0  0  0  0
   45.2030   36.4910   42.8540 O   0  0  0  0  0  0  0  0  0  0  0  0
   43.3850   34.6840   40.0550 H   0  0  0  0  0  0  0  0  0  0  0  0
   43.8480   35.0700   40.9480 C   0  0  0  0  0  0  0  0  0  0  0  0
   43.1670   35.9700   41.4890 O   0  0  0  0  0  0  0  0  0  0  0  0
   45.0820   34.7370   41.6060 N   0  0  0  0  0  0  0  0  0  0  0  0
   45.4700   33.9700   40.9750 H   0  0  0  0  0  0  0  0  0  0  0  0
  1  6  1  0  0  0  0
  2  1  2  0  0  0  0
  2  3  1  0  0  0  0
  3  4  2  0  0  0  0
  4  5  1  0  0  0  0
  5  8  1  0  0  0  0
  6  5  2  0  0  0  0
  7  3  1  0  0  0  0
  9 11  1  0  0  0  0
  9  2  1  0  0  0  0
 10  9  1  0  0  0  0
 10 14  1  0  0  0  0
 10 11  1  0  0  0  0
 11 15  1  0  0  0  0
 12  9  1  0  0  0  0
 13 10  1  0  0  0  0
 16 11  1  0  0  0  0
 17 18  2  0  0  0  0
 17  1  1  0  0  0  0
 19 20  1  0  0  0  0
 20 21  2  0  0  0  0
 20 22  1  0  0  0  0
 22 17  1  0  0  0  0
 23 22  1  0  0  0  0
M  END
>  <minimizedAffinity>
-4.2842226

>  <minimizedRMSD>
0.367420524

$$$$
