
 OpenBabel03252509313D

 23 23  0  0  0  0  0  0  0  0999 V2000
   47.2890   33.0940   43.0040 C   0  0  0  0  0  0  0  0  0  0  0  0
   46.8140   32.0880   43.1200 H   0  0  0  0  0  0  0  0  0  0  0  0
   47.3200   33.2820   41.9260 H   0  0  0  0  0  0  0  0  0  0  0  0
   45.0010   34.7690   45.4160 C   0  0  0  0  0  0  0  0  0  0  0  0
   45.8840   33.8330   44.8720 C   0  0  0  0  0  0  0  0  0  0  0  0
   46.3580   34.0620   43.6000 C   0  0  0  0  0  0  0  0  0  0  0  0
   45.9530   35.1820   42.9270 N   0  0  0  0  0  0  0  0  0  0  0  0
   45.0870   36.0750   43.4920 C   0  0  0  0  0  0  0  0  0  0  0  0
   44.6200   35.8660   44.7230 N   0  0  0  0  0  0  0  0  0  0  0  0
   44.6130   34.6090   46.4180 H   0  0  0  0  0  0  0  0  0  0  0  0
   46.1420   32.9750   45.4950 H   0  0  0  0  0  0  0  0  0  0  0  0
   44.8150   36.9410   42.8860 H   0  0  0  0  0  0  0  0  0  0  0  0
   48.5180   33.1070   43.6380 O   0  0  0  0  0  0  0  0  0  0  0  0
   50.8870   32.8000   42.5810 O   0  0  0  0  0  0  0  0  0  0  0  0
   49.6570   33.6580   42.5220 P   0  0  2  0  0  0  0  0  0  0  0  0
   49.9790   35.2750   42.9170 O   0  0  0  0  0  0  0  0  0  0  0  0
   49.1210   35.6900   43.1880 H   0  0  0  0  0  0  0  0  0  0  0  0
   48.9900   33.5500   40.9860 O   0  0  0  0  0  0  0  0  0  0  0  0
   48.2130   34.5180   40.3850 C   0  0  0  0  0  0  0  0  0  0  0  0
   48.7640   35.6690   40.4600 O   0  0  0  0  0  0  0  0  0  0  0  0
   46.9560   34.3570   39.7430 N   0  0  0  0  0  0  0  0  0  0  0  0
   47.2560   34.0220   38.7800 H   0  0  0  0  0  0  0  0  0  0  0  0
   46.2450   34.6340   40.4820 H   0  0  0  0  0  0  0  0  0  0  0  0
  1  2  1  0  0  0  0
  1  6  1  0  0  0  0
  1 13  1  0  0  0  0
  3  1  1  0  0  0  0
  4 10  1  0  0  0  0
  5  4  1  0  0  0  0
  5 11  1  0  0  0  0
  6  5  2  0  0  0  0
  7  8  2  0  0  0  0
  7  6  1  0  0  0  0
  8  9  1  0  0  0  0
  9  4  2  0  0  0  0
 12  8  1  0  0  0  0
 15 14  2  1  0  0  0
 15 16  1  0  0  0  0
 15 13  1  0  0  0  0
 16 17  1  0  0  0  0
 18 15  1  0  0  0  0
 19 20  2  0  0  0  0
 19 18  1  0  0  0  0
 21 19  1  0  0  0  0
 21 23  1  0  0  0  0
 22 21  1  0  0  0  0
M  END
>  <minimizedAffinity>
-4.39075947

>  <minimizedRMSD>
1.17833674

$$$$
