
 OpenBabel03242523553D

 41 43  0  0  1  0  0  0  0  0999 V2000
   42.8150   34.5150   38.7520 C   0  0  1  0  0  0  0  0  0  0  0  0
   42.9500   35.1780   40.1140 C   0  0  1  0  0  0  0  0  0  0  0  0
   41.6570   35.4020   40.6250 O   0  0  0  0  0  0  0  0  0  0  0  0
   40.7340   35.7430   39.6270 C   0  0  0  0  0  0  0  0  0  0  0  0
   40.4350   34.5710   38.7170 C   0  0  2  0  0  0  0  0  0  0  0  0
   41.6460   33.5930   38.8580 C   0  0  1  0  0  0  0  0  0  0  0  0
   43.7560   33.9760   38.5150 H   0  0  0  0  0  0  0  0  0  0  0  0
   43.5240   36.1190   40.0800 H   0  0  0  0  0  0  0  0  0  0  0  0
   41.0420   36.6440   39.0720 H   0  0  0  0  0  0  0  0  0  0  0  0
   39.8090   35.9860   40.1570 H   0  0  0  0  0  0  0  0  0  0  0  0
   39.5050   34.0420   38.9890 H   0  0  0  0  0  0  0  0  0  0  0  0
   41.4280   33.3110   39.9420 H   0  0  0  0  0  0  0  0  0  0  0  0
   42.6040   35.4750   37.7470 O   0  0  0  0  0  0  0  0  0  0  0  0
   43.1680   36.2770   37.9650 H   0  0  0  0  0  0  0  0  0  0  0  0
   40.4570   34.9810   37.3940 O   0  0  0  0  0  0  0  0  0  0  0  0
   40.5170   34.2430   36.7550 H   0  0  0  0  0  0  0  0  0  0  0  0
   43.4830   34.1920   40.9570 O   0  0  0  0  0  0  0  0  0  0  0  0
   44.5880   34.3300   41.6970 C   0  0  0  0  0  0  0  0  0  0  0  0
   45.8470   34.4370   41.1010 C   0  0  0  0  0  0  0  0  0  0  0  0
   46.9650   34.5820   41.9000 C   0  0  0  0  0  0  0  0  0  0  0  0
   46.8040   34.6150   43.2760 N   0  0  0  0  0  0  0  0  0  0  0  0
   45.5720   34.5080   43.8210 C   0  0  0  0  0  0  0  0  0  0  0  0
   44.4730   34.3670   43.0350 N   0  0  0  0  0  0  0  0  0  0  0  0
   45.9400   34.4080   40.0360 H   0  0  0  0  0  0  0  0  0  0  0  0
   45.4500   34.5340   44.8870 H   0  0  0  0  0  0  0  0  0  0  0  0
   48.3450   34.6820   41.3290 C   0  0  0  0  0  0  0  0  0  0  0  0
   49.0660   36.0160   41.5080 C   0  0  0  0  0  0  0  0  0  0  0  0
   49.4950   34.6930   42.1760 C   0  0  0  0  0  0  0  0  0  0  0  0
   48.3940   34.2460   40.2970 H   0  0  0  0  0  0  0  0  0  0  0  0
   49.7070   36.3040   40.6710 H   0  0  0  0  0  0  0  0  0  0  0  0
   48.5180   36.7580   42.1040 H   0  0  0  0  0  0  0  0  0  0  0  0
   50.4700   34.2800   41.9020 H   0  0  0  0  0  0  0  0  0  0  0  0
   49.3500   34.7270   43.2830 H   0  0  0  0  0  0  0  0  0  0  0  0
   41.5200   32.6440   37.9080 O   0  0  0  0  0  0  0  0  0  0  0  0
   40.8700   31.4830   37.8880 C   0  0  0  0  0  0  0  0  0  0  0  0
   39.6020   31.3820   37.5020 O   0  0  0  0  0  0  0  0  0  0  0  0
   42.2080   28.6360   39.4780 H   0  0  0  0  0  0  0  0  0  0  0  0
   41.9910   29.6870   39.3530 C   0  0  0  0  0  0  0  0  0  0  0  0
   42.3640   30.5610   40.1720 O   0  0  0  0  0  0  0  0  0  0  0  0
   41.2560   30.1110   38.2240 N   0  0  0  0  0  0  0  0  0  0  0  0
   40.9670   29.3630   37.5760 H   0  0  0  0  0  0  0  0  0  0  0  0
  1  7  1  6  0  0  0
  1  6  1  0  0  0  0
  1  2  1  0  0  0  0
  2  8  1  6  0  0  0
  2  3  1  0  0  0  0
  2 17  1  0  0  0  0
  4 10  1  0  0  0  0
  4  3  1  0  0  0  0
  5  6  1  0  0  0  0
  5 11  1  1  0  0  0
  5  4  1  0  0  0  0
  6 12  1  1  0  0  0
  9  4  1  0  0  0  0
 13 14  1  0  0  0  0
 13  1  1  0  0  0  0
 15  5  1  0  0  0  0
 16 15  1  0  0  0  0
 17 18  1  0  0  0  0
 18 23  1  0  0  0  0
 19 18  2  0  0  0  0
 19 20  1  0  0  0  0
 20 21  2  0  0  0  0
 21 22  1  0  0  0  0
 22 25  1  0  0  0  0
 23 22  2  0  0  0  0
 24 19  1  0  0  0  0
 26 27  1  0  0  0  0
 26 20  1  0  0  0  0
 26 28  1  0  0  0  0
 27 31  1  0  0  0  0
 27 28  1  0  0  0  0
 28 33  1  0  0  0  0
 29 26  1  0  0  0  0
 30 27  1  0  0  0  0
 32 28  1  0  0  0  0
 34  6  1  0  0  0  0
 35 34  1  0  0  0  0
 35 40  1  0  0  0  0
 36 35  2  0  0  0  0
 38 37  1  0  0  0  0
 38 39  2  0  0  0  0
 40 38  1  0  0  0  0
 41 40  1  0  0  0  0
M  END
>  <minimizedAffinity>
-5.80455351

>  <minimizedRMSD>
0.0923226103

$$$$
