
     RDKit          3D

 39 41  0  0  0  0  0  0  0  0999 V2000
   47.5916   29.9917   48.2384 C   0  0  1  0  0  0  0  0  0  0  0  0
   47.4442   28.7866   47.3927 C   0  0  0  0  0  0  0  0  0  0  0  0
   48.7163   28.0100   47.1869 C   0  0  0  0  0  0  0  0  0  0  0  0
   49.5105   27.8414   48.4529 C   0  0  0  0  0  0  0  0  0  0  0  0
   49.6193   29.1178   49.2420 C   0  0  0  0  0  0  0  0  0  0  0  0
   49.0958   30.2953   48.4177 C   0  0  2  0  0  0  0  0  0  0  0  0
   45.9071   33.1339   46.2412 C   0  0  0  0  0  0  0  0  0  0  0  0
   45.3611   32.9624   47.5101 C   0  0  0  0  0  0  0  0  0  0  0  0
   45.8292   31.9619   48.2633 C   0  0  0  0  0  0  0  0  0  0  0  0
   46.8476   31.1150   47.7705 C   0  0  0  0  0  0  0  0  0  0  0  0
   47.1643   31.7885   46.1061 S   0  0  0  0  0  0  0  0  0  0  0  0
   44.4469   36.1064   44.5501 C   0  0  0  0  0  0  0  0  0  0  0  0
   45.0595   36.0246   43.2977 C   0  0  0  0  0  0  0  0  0  0  0  0
   45.9396   34.9562   43.0852 C   0  0  0  0  0  0  0  0  0  0  0  0
   46.1496   34.0600   44.1050 N   0  0  0  0  0  0  0  0  0  0  0  0
   45.5258   34.2004   45.2854 C   0  0  0  0  0  0  0  0  0  0  0  0
   44.6680   35.2267   45.5170 N   0  0  0  0  0  0  0  0  0  0  0  0
   49.2674   31.5299   49.1866 C   0  0  0  0  0  0  0  0  0  0  0  0
   49.8151   31.5574   50.3061 O   0  0  0  0  0  0  0  0  0  0  0  0
   47.2509   29.7430   49.2563 H   0  0  0  0  0  0  0  0  0  0  0  0
   47.1226   29.1154   46.3634 H   0  0  0  0  0  0  0  0  0  0  0  0
   46.6721   28.1056   47.7840 H   0  0  0  0  0  0  0  0  0  0  0  0
   48.4137   27.0012   46.8493 H   0  0  0  0  0  0  0  0  0  0  0  0
   49.3472   28.4302   46.3862 H   0  0  0  0  0  0  0  0  0  0  0  0
   50.4676   27.3718   48.2377 H   0  0  0  0  0  0  0  0  0  0  0  0
   48.9382   27.1101   49.0949 H   0  0  0  0  0  0  0  0  0  0  0  0
   49.0191   29.0880   50.1756 H   0  0  0  0  0  0  0  0  0  0  0  0
   50.6892   29.3001   49.4566 H   0  0  0  0  0  0  0  0  0  0  0  0
   49.5840   30.3223   47.4217 H   0  0  0  0  0  0  0  0  0  0  0  0
   44.5830   33.6181   47.8739 H   0  0  0  0  0  0  0  0  0  0  0  0
   45.5294   31.6807   49.2586 H   0  0  0  0  0  0  0  0  0  0  0  0
   43.7540   36.9292   44.7482 H   0  0  0  0  0  0  0  0  0  0  0  0
   44.8843   36.7383   42.5039 H   0  0  0  0  0  0  0  0  0  0  0  0
   46.4623   34.8062   42.1501 H   0  0  0  0  0  0  0  0  0  0  0  0
   47.9516   34.6946   48.3792 H   0  0  0  0  0  0  0  0  0  0  0  0
   47.9715   33.6011   48.3506 C   0  0  0  0  0  0  0  0  0  0  0  0
   47.1706   32.8602   47.7531 O   0  0  0  0  0  0  0  0  0  0  0  0
   48.9614   32.8784   49.0249 N   0  0  0  0  0  0  0  0  0  0  0  0
   49.6293   33.4717   49.5220 H   0  0  0  0  0  0  0  0  0  0  0  0
  1  6  1  0
  2  1  1  0
  3  2  1  0
  3  4  1  0
  4  5  1  0
  6 18  1  0
  6  5  1  0
  7  8  2  0
  8  9  1  0
 10  1  1  0
 10  9  2  0
 11  7  1  0
 11 10  1  0
 12 17  2  0
 13 12  1  0
 14 13  2  0
 14 15  1  0
 15 16  2  0
 16 17  1  0
 16  7  1  0
 18 19  2  0
  1 20  1  1
  2 21  1  0
  2 22  1  0
  3 23  1  0
  3 24  1  0
  4 25  1  0
  4 26  1  0
  5 27  1  0
  5 28  1  0
  6 29  1  6
  8 30  1  0
  9 31  1  0
 12 32  1  0
 13 33  1  0
 14 34  1  0
 35 36  1  0
 36 37  2  0
 36 38  1  0
 38 39  1  0
 18 38  1  0
M  ISO  8  20  13  21  13  22  13  23  13  24  13  25  13  26  13  27  13
M  ISO  8  28  13  29  13  30  14  31  14  32  14  33  14  34  14  35   1
M  END
>  <DihAtoms>  (1) 
5,17,37,35

>  <DihDeg>  (1) 
178.96889373632703

$$$$
