
 OpenBabel03252509313D

 23 23  0  0  0  0  0  0  0  0999 V2000
   47.0450   33.3450   43.1000 C   0  0  0  0  0  0  0  0  0  0  0  0
   46.8560   32.2570   43.2830 H   0  0  0  0  0  0  0  0  0  0  0  0
   46.7160   33.5310   42.0720 H   0  0  0  0  0  0  0  0  0  0  0  0
   45.0680   34.3110   46.1030 C   0  0  0  0  0  0  0  0  0  0  0  0
   45.9290   33.5930   45.2680 C   0  0  0  0  0  0  0  0  0  0  0  0
   46.1430   34.0800   43.9990 C   0  0  0  0  0  0  0  0  0  0  0  0
   45.5150   35.2290   43.6070 N   0  0  0  0  0  0  0  0  0  0  0  0
   44.6790   35.9030   44.4520 C   0  0  0  0  0  0  0  0  0  0  0  0
   44.4620   35.4450   45.6840 N   0  0  0  0  0  0  0  0  0  0  0  0
   44.8840   33.9470   47.1100 H   0  0  0  0  0  0  0  0  0  0  0  0
   46.3790   32.6890   45.6810 H   0  0  0  0  0  0  0  0  0  0  0  0
   44.2170   36.8110   44.0600 H   0  0  0  0  0  0  0  0  0  0  0  0
   48.3730   33.6380   43.3540 O   0  0  0  0  0  0  0  0  0  0  0  0
   49.4560   31.5120   42.2930 O   0  0  0  0  0  0  0  0  0  0  0  0
   49.2840   32.9880   42.0910 P   0  0  2  0  0  0  0  0  0  0  0  0
   50.7640   33.8160   42.0850 O   0  0  0  0  0  0  0  0  0  0  0  0
   50.5730   34.7660   42.2910 H   0  0  0  0  0  0  0  0  0  0  0  0
   48.4600   33.2500   40.6540 O   0  0  0  0  0  0  0  0  0  0  0  0
   48.4600   34.4300   39.9380 C   0  0  0  0  0  0  0  0  0  0  0  0
   47.9070   34.2810   38.7970 O   0  0  0  0  0  0  0  0  0  0  0  0
   48.9820   35.6920   40.3320 N   0  0  0  0  0  0  0  0  0  0  0  0
   48.1850   36.0690   40.9260 H   0  0  0  0  0  0  0  0  0  0  0  0
   49.9410   35.7340   39.8780 H   0  0  0  0  0  0  0  0  0  0  0  0
  1  2  1  0  0  0  0
  1 13  1  0  0  0  0
  1  6  1  0  0  0  0
  3  1  1  0  0  0  0
  4 10  1  0  0  0  0
  5 11  1  0  0  0  0
  5  4  2  0  0  0  0
  6  5  1  0  0  0  0
  7  6  2  0  0  0  0
  7  8  1  0  0  0  0
  8  9  2  0  0  0  0
  9  4  1  0  0  0  0
 12  8  1  0  0  0  0
 15 14  2  1  0  0  0
 15 13  1  0  0  0  0
 16 15  1  0  0  0  0
 16 17  1  0  0  0  0
 18 15  1  0  0  0  0
 19 21  1  0  0  0  0
 19 18  1  0  0  0  0
 20 19  2  0  0  0  0
 21 22  1  0  0  0  0
 23 21  1  0  0  0  0
M  END
>  <minimizedAffinity>
-4.0525322

>  <minimizedRMSD>
1.45850539

$$$$
