
 OpenBabel03252508053D

 36 38  0  0  0  0  0  0  0  0999 V2000
   45.1390   36.0190   42.9180 C   0  0  0  0  0  0  0  0  0  0  0  0
   45.3730   34.6430   42.9070 C   0  0  0  0  0  0  0  0  0  0  0  0
   45.2110   33.9230   44.0770 C   0  0  0  0  0  0  0  0  0  0  0  0
   44.8120   34.6020   45.2010 N   0  0  0  0  0  0  0  0  0  0  0  0
   44.5910   35.9220   45.1880 C   0  0  0  0  0  0  0  0  0  0  0  0
   44.7590   36.6170   44.0450 N   0  0  0  0  0  0  0  0  0  0  0  0
   45.2590   36.6230   42.0200 H   0  0  0  0  0  0  0  0  0  0  0  0
   44.2760   36.4180   46.1090 H   0  0  0  0  0  0  0  0  0  0  0  0
   45.4190   32.5210   44.2010 C   0  0  0  0  0  0  0  0  0  0  0  0
   44.9510   31.5560   43.3210 C   0  0  0  0  0  0  0  0  0  0  0  0
   45.0950   30.2050   43.5150 C   0  0  0  0  0  0  0  0  0  0  0  0
   45.7320   29.7350   44.6440 C   0  0  0  0  0  0  0  0  0  0  0  0
   46.2180   30.7070   45.5560 C   0  0  0  0  0  0  0  0  0  0  0  0
   46.8500   30.2480   46.6780 C   0  0  0  0  0  0  0  0  0  0  0  0
   47.3570   31.1400   47.6120 C   0  0  0  0  0  0  0  0  0  0  0  0
   47.2170   32.5130   47.3930 C   0  0  0  0  0  0  0  0  0  0  0  0
   46.5600   32.9490   46.2290 C   0  0  0  0  0  0  0  0  0  0  0  0
   46.0610   32.0370   45.3240 C   0  0  0  0  0  0  0  0  0  0  0  0
   44.4490   31.8230   42.4410 H   0  0  0  0  0  0  0  0  0  0  0  0
   44.7300   29.4610   42.8240 H   0  0  0  0  0  0  0  0  0  0  0  0
   45.8590   28.6770   44.8300 H   0  0  0  0  0  0  0  0  0  0  0  0
   46.9440   29.1700   46.8180 H   0  0  0  0  0  0  0  0  0  0  0  0
   47.8380   30.6570   48.4700 H   0  0  0  0  0  0  0  0  0  0  0  0
   47.6660   33.0410   48.2060 H   0  0  0  0  0  0  0  0  0  0  0  0
   46.6360   33.9850   46.3040 H   0  0  0  0  0  0  0  0  0  0  0  0
   45.7440   34.0900   41.7200 O   0  0  0  0  0  0  0  0  0  0  0  0
   47.6860   32.4340   41.0890 O   0  0  0  0  0  0  0  0  0  0  0  0
   47.3670   33.8830   41.2440 P   0  0  1  0  0  0  0  0  0  0  0  0
   47.6490   34.6130   39.7420 O   0  0  0  0  0  0  0  0  0  0  0  0
   47.4800   34.0120   38.9810 H   0  0  0  0  0  0  0  0  0  0  0  0
   48.3580   34.5940   42.3840 O   0  0  0  0  0  0  0  0  0  0  0  0
   49.5330   35.2910   42.1440 C   0  0  0  0  0  0  0  0  0  0  0  0
   49.2000   36.2110   41.3720 O   0  0  0  0  0  0  0  0  0  0  0  0
   50.6390   34.6970   42.8580 N   0  0  0  0  0  0  0  0  0  0  0  0
   51.3090   34.0790   42.3400 H   0  0  0  0  0  0  0  0  0  0  0  0
   50.7060   34.9280   43.8940 H   0  0  0  0  0  0  0  0  0  0  0  0
  1  6  1  0  0  0  0
  2  1  2  0  0  0  0
  2  3  1  0  0  0  0
  3  9  1  0  0  0  0
  3  4  2  0  0  0  0
  5  4  1  0  0  0  0
  5  8  1  0  0  0  0
  6  5  2  0  0  0  0
  7  1  1  0  0  0  0
  9 18  1  0  0  0  0
 10 11  1  0  0  0  0
 10  9  2  0  0  0  0
 11 12  2  0  0  0  0
 12 21  1  0  0  0  0
 12 13  1  0  0  0  0
 13 14  1  0  0  0  0
 14 22  1  0  0  0  0
 14 15  2  0  0  0  0
 15 23  1  0  0  0  0
 16 15  1  0  0  0  0
 16 24  1  0  0  0  0
 17 25  1  0  0  0  0
 17 16  2  0  0  0  0
 18 13  2  0  0  0  0
 18 17  1  0  0  0  0
 19 10  1  0  0  0  0
 20 11  1  0  0  0  0
 26  2  1  0  0  0  0
 28 27  2  6  0  0  0
 28 26  1  0  0  0  0
 28 31  1  0  0  0  0
 29 28  1  0  0  0  0
 30 29  1  0  0  0  0
 32 31  1  0  0  0  0
 32 34  1  0  0  0  0
 33 32  2  0  0  0  0
 34 36  1  0  0  0  0
 35 34  1  0  0  0  0
M  END
>  <minimizedAffinity>
-5.82524776

>  <minimizedRMSD>
1.92883861

$$$$
