
 OpenBabel03252509193D

 39 41  0  0  1  0  0  0  0  0999 V2000
   47.8640   29.1830   47.9310 C   0  0  1  0  0  0  0  0  0  0  0  0
   47.6880   28.1650   46.8720 C   0  0  0  0  0  0  0  0  0  0  0  0
   48.9260   27.3690   46.5610 C   0  0  0  0  0  0  0  0  0  0  0  0
   49.6620   26.9240   47.7960 C   0  0  0  0  0  0  0  0  0  0  0  0
   49.8040   28.0250   48.8120 C   0  0  0  0  0  0  0  0  0  0  0  0
   49.3740   29.3620   48.2070 C   0  0  2  0  0  0  0  0  0  0  0  0
   47.4720   28.7700   48.8740 H   0  0  0  0  0  0  0  0  0  0  0  0
   47.4250   28.6960   45.9120 H   0  0  0  0  0  0  0  0  0  0  0  0
   46.8680   27.4690   47.1070 H   0  0  0  0  0  0  0  0  0  0  0  0
   48.5870   26.4580   46.0320 H   0  0  0  0  0  0  0  0  0  0  0  0
   49.6080   27.8930   45.8710 H   0  0  0  0  0  0  0  0  0  0  0  0
   50.6020   26.4490   47.5240 H   0  0  0  0  0  0  0  0  0  0  0  0
   49.0280   26.1210   48.2730 H   0  0  0  0  0  0  0  0  0  0  0  0
   49.1670   27.8570   49.7060 H   0  0  0  0  0  0  0  0  0  0  0  0
   50.8730   28.1030   49.0870 H   0  0  0  0  0  0  0  0  0  0  0  0
   49.9010   29.5440   47.2480 H   0  0  0  0  0  0  0  0  0  0  0  0
   46.1960   32.5870   46.4040 C   0  0  0  0  0  0  0  0  0  0  0  0
   45.9800   32.4630   47.7730 C   0  0  0  0  0  0  0  0  0  0  0  0
   46.4770   31.3860   48.3910 C   0  0  0  0  0  0  0  0  0  0  0  0
   47.1970   30.4140   47.6590 C   0  0  0  0  0  0  0  0  0  0  0  0
   47.1640   31.0770   45.9620 S   0  0  0  0  0  0  0  0  0  0  0  0
   45.4290   33.2150   48.3200 H   0  0  0  0  0  0  0  0  0  0  0  0
   46.4090   31.1260   49.4340 H   0  0  0  0  0  0  0  0  0  0  0  0
   44.5510   35.6340   45.0490 C   0  0  0  0  0  0  0  0  0  0  0  0
   45.1340   35.7080   43.7820 C   0  0  0  0  0  0  0  0  0  0  0  0
   46.0600   34.7110   43.4450 C   0  0  0  0  0  0  0  0  0  0  0  0
   46.3390   33.7310   44.3660 N   0  0  0  0  0  0  0  0  0  0  0  0
   45.7400   33.7220   45.5670 C   0  0  0  0  0  0  0  0  0  0  0  0
   44.8390   34.6760   45.9180 N   0  0  0  0  0  0  0  0  0  0  0  0
   43.8250   36.3970   45.3420 H   0  0  0  0  0  0  0  0  0  0  0  0
   44.9050   36.4860   43.0670 H   0  0  0  0  0  0  0  0  0  0  0  0
   46.5650   34.6810   42.4900 H   0  0  0  0  0  0  0  0  0  0  0  0
   49.5770   30.4220   49.1970 C   0  0  0  0  0  0  0  0  0  0  0  0
   49.2660   30.2920   50.3970 O   0  0  0  0  0  0  0  0  0  0  0  0
   51.0360   33.5460   49.9070 H   0  0  0  0  0  0  0  0  0  0  0  0
   50.7250   32.5270   50.1550 C   0  0  0  0  0  0  0  0  0  0  0  0
   50.8730   31.9510   51.2470 O   0  0  0  0  0  0  0  0  0  0  0  0
   50.0870   31.7160   49.2090 N   0  0  0  0  0  0  0  0  0  0  0  0
   49.9570   32.1740   48.3050 H   0  0  0  0  0  0  0  0  0  0  0  0
  1  6  1  0  0  0  0
  1  7  1  1  0  0  0
  2  9  1  0  0  0  0
  2  1  1  0  0  0  0
  3  2  1  0  0  0  0
  3  4  1  0  0  0  0
  4 13  1  0  0  0  0
  4  5  1  0  0  0  0
  5 15  1  0  0  0  0
  5 14  1  0  0  0  0
  6 16  1  6  0  0  0
  6  5  1  0  0  0  0
  6 33  1  0  0  0  0
  8  2  1  0  0  0  0
 10  3  1  0  0  0  0
 11  3  1  0  0  0  0
 12  4  1  0  0  0  0
 17 18  2  0  0  0  0
 18 22  1  0  0  0  0
 18 19  1  0  0  0  0
 19 23  1  0  0  0  0
 20  1  1  0  0  0  0
 20 19  2  0  0  0  0
 21 17  1  0  0  0  0
 21 20  1  0  0  0  0
 24 30  1  0  0  0  0
 24 29  1  0  0  0  0
 25 24  2  0  0  0  0
 26 25  1  0  0  0  0
 26 27  2  0  0  0  0
 27 28  1  0  0  0  0
 28 29  2  0  0  0  0
 28 17  1  0  0  0  0
 31 25  1  0  0  0  0
 32 26  1  0  0  0  0
 33 38  1  0  0  0  0
 33 34  2  0  0  0  0
 35 36  1  0  0  0  0
 36 37  2  0  0  0  0
 38 36  1  0  0  0  0
 39 38  1  0  0  0  0
M  END
>  <minimizedAffinity>
-5.25053692

>  <minimizedRMSD>
1.09912908

$$$$
