
 OpenBabel03242523553D

 41 43  0  0  1  0  0  0  0  0999 V2000
   42.8120   34.5220   38.7600 C   0  0  1  0  0  0  0  0  0  0  0  0
   42.9400   35.1850   40.1230 C   0  0  1  0  0  0  0  0  0  0  0  0
   41.6440   35.3990   40.6320 O   0  0  0  0  0  0  0  0  0  0  0  0
   40.7200   35.7340   39.6330 C   0  0  0  0  0  0  0  0  0  0  0  0
   40.4320   34.5590   38.7220 C   0  0  2  0  0  0  0  0  0  0  0  0
   41.6500   33.5900   38.8650 C   0  0  1  0  0  0  0  0  0  0  0  0
   43.7570   33.9900   38.5240 H   0  0  0  0  0  0  0  0  0  0  0  0
   43.5060   36.1310   40.0900 H   0  0  0  0  0  0  0  0  0  0  0  0
   41.0220   36.6370   39.0780 H   0  0  0  0  0  0  0  0  0  0  0  0
   39.7930   35.9690   40.1610 H   0  0  0  0  0  0  0  0  0  0  0  0
   39.5050   34.0230   38.9920 H   0  0  0  0  0  0  0  0  0  0  0  0
   41.4320   33.3070   39.9470 H   0  0  0  0  0  0  0  0  0  0  0  0
   42.5950   35.4800   37.7550 O   0  0  0  0  0  0  0  0  0  0  0  0
   43.1530   36.2870   37.9740 H   0  0  0  0  0  0  0  0  0  0  0  0
   40.4520   34.9700   37.3990 O   0  0  0  0  0  0  0  0  0  0  0  0
   40.5180   34.2330   36.7600 H   0  0  0  0  0  0  0  0  0  0  0  0
   43.4790   34.2030   40.9660 O   0  0  0  0  0  0  0  0  0  0  0  0
   44.5850   34.3470   41.7020 C   0  0  0  0  0  0  0  0  0  0  0  0
   45.8440   34.4450   41.1030 C   0  0  0  0  0  0  0  0  0  0  0  0
   46.9640   34.5950   41.8980 C   0  0  0  0  0  0  0  0  0  0  0  0
   46.8050   34.6450   43.2740 N   0  0  0  0  0  0  0  0  0  0  0  0
   45.5730   34.5460   43.8230 C   0  0  0  0  0  0  0  0  0  0  0  0
   44.4730   34.3990   43.0410 N   0  0  0  0  0  0  0  0  0  0  0  0
   45.9350   34.4030   40.0380 H   0  0  0  0  0  0  0  0  0  0  0  0
   45.4540   34.5840   44.8880 H   0  0  0  0  0  0  0  0  0  0  0  0
   48.3420   34.6860   41.3230 C   0  0  0  0  0  0  0  0  0  0  0  0
   49.0760   36.0120   41.5070 C   0  0  0  0  0  0  0  0  0  0  0  0
   49.4950   34.6830   42.1670 C   0  0  0  0  0  0  0  0  0  0  0  0
   48.3840   34.2550   40.2890 H   0  0  0  0  0  0  0  0  0  0  0  0
   49.7170   36.2990   40.6690 H   0  0  0  0  0  0  0  0  0  0  0  0
   48.5360   36.7560   42.1090 H   0  0  0  0  0  0  0  0  0  0  0  0
   50.4660   34.2620   41.8880 H   0  0  0  0  0  0  0  0  0  0  0  0
   49.3540   34.7120   43.2750 H   0  0  0  0  0  0  0  0  0  0  0  0
   41.5320   32.6410   37.9130 O   0  0  0  0  0  0  0  0  0  0  0  0
   40.9400   31.4490   37.9120 C   0  0  0  0  0  0  0  0  0  0  0  0
   39.6870   31.2760   37.5040 O   0  0  0  0  0  0  0  0  0  0  0  0
   42.8540   28.7060   39.0220 H   0  0  0  0  0  0  0  0  0  0  0  0
   42.6590   29.7400   38.7780 C   0  0  0  0  0  0  0  0  0  0  0  0
   43.5220   30.6440   38.9060 O   0  0  0  0  0  0  0  0  0  0  0  0
   41.3850   30.1080   38.2930 N   0  0  0  0  0  0  0  0  0  0  0  0
   40.7060   29.3350   38.2030 H   0  0  0  0  0  0  0  0  0  0  0  0
  1  7  1  6  0  0  0
  1  6  1  0  0  0  0
  1  2  1  0  0  0  0
  2  8  1  6  0  0  0
  2  3  1  0  0  0  0
  2 17  1  0  0  0  0
  4 10  1  0  0  0  0
  4  3  1  0  0  0  0
  5  6  1  0  0  0  0
  5 11  1  1  0  0  0
  5  4  1  0  0  0  0
  6 12  1  1  0  0  0
  9  4  1  0  0  0  0
 13 14  1  0  0  0  0
 13  1  1  0  0  0  0
 15  5  1  0  0  0  0
 16 15  1  0  0  0  0
 17 18  1  0  0  0  0
 18 23  1  0  0  0  0
 19 18  2  0  0  0  0
 19 20  1  0  0  0  0
 20 21  2  0  0  0  0
 21 22  1  0  0  0  0
 22 25  1  0  0  0  0
 23 22  2  0  0  0  0
 24 19  1  0  0  0  0
 26 27  1  0  0  0  0
 26 20  1  0  0  0  0
 26 28  1  0  0  0  0
 27 31  1  0  0  0  0
 27 28  1  0  0  0  0
 28 33  1  0  0  0  0
 29 26  1  0  0  0  0
 30 27  1  0  0  0  0
 32 28  1  0  0  0  0
 34  6  1  0  0  0  0
 35 34  1  0  0  0  0
 35 40  1  0  0  0  0
 36 35  2  0  0  0  0
 38 39  2  0  0  0  0
 38 37  1  0  0  0  0
 40 38  1  0  0  0  0
 41 40  1  0  0  0  0
M  END
>  <minimizedAffinity>
-5.77828217

>  <minimizedRMSD>
0.0785985887

$$$$
