
 OpenBabel03252506473D

 38 40  0  0  1  0  0  0  0  0999 V2000
   40.0910   31.8990   40.0440 N   0  0  1  0  0  0  0  0  0  0  0  0
   41.2540   32.6970   39.7790 C   0  0  0  0  0  0  0  0  0  0  0  0
   41.2540   33.3880   38.4440 C   0  0  0  0  0  0  0  0  0  0  0  0
   41.2780   32.3630   37.3410 C   0  0  0  0  0  0  0  0  0  0  0  0
   40.5150   31.1260   37.7190 C   0  0  0  0  0  0  0  0  0  0  0  0
   39.5110   31.4830   38.7980 C   0  0  2  0  0  0  0  0  0  0  0  0
   42.2100   32.1720   39.8920 H   0  0  0  0  0  0  0  0  0  0  0  0
   41.2650   33.5150   40.5530 H   0  0  0  0  0  0  0  0  0  0  0  0
   40.5670   34.2140   38.3250 H   0  0  0  0  0  0  0  0  0  0  0  0
   42.2870   33.8670   38.3910 H   0  0  0  0  0  0  0  0  0  0  0  0
   40.8700   32.8450   36.4140 H   0  0  0  0  0  0  0  0  0  0  0  0
   42.3140   32.0520   37.0550 H   0  0  0  0  0  0  0  0  0  0  0  0
   39.9340   30.7070   36.8880 H   0  0  0  0  0  0  0  0  0  0  0  0
   41.1860   30.3190   38.1100 H   0  0  0  0  0  0  0  0  0  0  0  0
   38.9840   30.5320   39.0180 H   0  0  0  0  0  0  0  0  0  0  0  0
   39.8730   30.5680   42.2390 C   0  0  1  0  0  0  0  0  0  0  0  0
   41.2260   31.1630   42.1240 C   0  0  0  0  0  0  0  0  0  0  0  0
   40.4690   30.8310   40.9020 C   0  0  2  0  0  0  0  0  0  0  0  0
   39.0480   31.2330   42.5790 H   0  0  0  0  0  0  0  0  0  0  0  0
   42.0540   30.5280   42.4970 H   0  0  0  0  0  0  0  0  0  0  0  0
   41.3090   32.2270   42.4230 H   0  0  0  0  0  0  0  0  0  0  0  0
   40.8190   29.9090   40.3740 H   0  0  0  0  0  0  0  0  0  0  0  0
   40.8570   28.3670   42.9750 C   0  0  0  0  0  0  0  0  0  0  0  0
   39.7490   29.1900   42.7320 C   0  0  0  0  0  0  0  0  0  0  0  0
   38.4770   28.6320   42.9930 C   0  0  0  0  0  0  0  0  0  0  0  0
   38.3980   27.3580   43.4560 N   0  0  0  0  0  0  0  0  0  0  0  0
   39.5020   26.6000   43.6770 C   0  0  0  0  0  0  0  0  0  0  0  0
   40.7390   27.1000   43.4370 N   0  0  0  0  0  0  0  0  0  0  0  0
   41.8480   28.7540   42.7890 H   0  0  0  0  0  0  0  0  0  0  0  0
   37.5800   29.1900   42.8350 H   0  0  0  0  0  0  0  0  0  0  0  0
   39.3500   25.5940   44.0460 H   0  0  0  0  0  0  0  0  0  0  0  0
   38.5460   32.4160   38.2820 N   0  0  0  0  0  0  0  0  0  0  0  0
   38.3140   32.9520   37.4420 H   0  0  0  0  0  0  0  0  0  0  0  0
   37.5020   32.7900   39.1730 C   0  0  0  0  0  0  0  0  0  0  0  0
   36.7870   32.0550   39.9420 O   0  0  0  0  0  0  0  0  0  0  0  0
   36.9270   34.0800   39.4880 N   0  0  0  0  0  0  0  0  0  0  0  0
   36.0590   34.4440   39.0380 H   0  0  0  0  0  0  0  0  0  0  0  0
   37.5250   34.5600   40.2230 H   0  0  0  0  0  0  0  0  0  0  0  0
  1  2  1  6  0  0  0
  1 18  1  0  0  0  0
  2  7  1  0  0  0  0
  2  8  1  0  0  0  0
  3  2  1  0  0  0  0
  4  5  1  0  0  0  0
  4  3  1  0  0  0  0
  5 14  1  0  0  0  0
  5  6  1  0  0  0  0
  6 15  1  1  0  0  0
  6  1  1  0  0  0  0
  9  3  1  0  0  0  0
 10  3  1  0  0  0  0
 11  4  1  0  0  0  0
 12  4  1  0  0  0  0
 13  5  1  0  0  0  0
 16 19  1  1  0  0  0
 16 24  1  0  0  0  0
 17 16  1  0  0  0  0
 17 21  1  0  0  0  0
 17 20  1  0  0  0  0
 18 22  1  6  0  0  0
 18 17  1  0  0  0  0
 18 16  1  0  0  0  0
 23 28  1  0  0  0  0
 24 23  2  0  0  0  0
 24 25  1  0  0  0  0
 25 26  2  0  0  0  0
 26 27  1  0  0  0  0
 27 31  1  0  0  0  0
 28 27  2  0  0  0  0
 29 23  1  0  0  0  0
 30 25  1  0  0  0  0
 32  6  1  0  0  0  0
 32 34  1  0  0  0  0
 33 32  1  0  0  0  0
 34 36  1  0  0  0  0
 34 35  2  0  0  0  0
 36 38  1  0  0  0  0
 37 36  1  0  0  0  0
M  END
>  <minimizedAffinity>
-4.95270491

$$$$

 OpenBabel03252506473D

 38 40  0  0  1  0  0  0  0  0999 V2000
   38.3080   26.3890   42.3270 N   0  0  1  0  0  0  0  0  0  0  0  0
   37.2030   25.4880   42.1750 C   0  0  0  0  0  0  0  0  0  0  0  0
   37.5820   24.0380   42.0610 C   0  0  0  0  0  0  0  0  0  0  0  0
   38.3820   23.8190   40.8040 C   0  0  0  0  0  0  0  0  0  0  0  0
   39.2430   25.0060   40.4830 C   0  0  0  0  0  0  0  0  0  0  0  0
   39.4840   25.7930   41.7580 C   0  0  2  0  0  0  0  0  0  0  0  0
   36.5200   25.7280   41.3520 H   0  0  0  0  0  0  0  0  0  0  0  0
   36.5860   25.5750   43.1130 H   0  0  0  0  0  0  0  0  0  0  0  0
   37.9460   23.5580   42.9590 H   0  0  0  0  0  0  0  0  0  0  0  0
   36.5910   23.5180   41.8430 H   0  0  0  0  0  0  0  0  0  0  0  0
   38.9860   22.8830   40.9380 H   0  0  0  0  0  0  0  0  0  0  0  0
   37.7440   23.6080   39.9100 H   0  0  0  0  0  0  0  0  0  0  0  0
   40.2350   24.7310   40.1030 H   0  0  0  0  0  0  0  0  0  0  0  0
   38.7640   25.6850   39.7320 H   0  0  0  0  0  0  0  0  0  0  0  0
   40.1280   26.6420   41.4480 H   0  0  0  0  0  0  0  0  0  0  0  0
   37.7690   28.9010   42.5210 C   0  0  1  0  0  0  0  0  0  0  0  0
   36.5900   28.1530   42.0210 C   0  0  0  0  0  0  0  0  0  0  0  0
   37.9470   27.6390   41.7540 C   0  0  2  0  0  0  0  0  0  0  0  0
   37.9660   28.8750   43.6150 H   0  0  0  0  0  0  0  0  0  0  0  0
   35.9940   28.6750   41.2480 H   0  0  0  0  0  0  0  0  0  0  0  0
   35.9770   27.6520   42.7970 H   0  0  0  0  0  0  0  0  0  0  0  0
   38.3050   27.7930   40.7060 H   0  0  0  0  0  0  0  0  0  0  0  0
   37.1930   30.9050   41.1050 C   0  0  0  0  0  0  0  0  0  0  0  0
   38.0990   30.1910   41.9010 C   0  0  0  0  0  0  0  0  0  0  0  0
   39.3700   30.7780   42.0960 C   0  0  0  0  0  0  0  0  0  0  0  0
   39.6390   31.9760   41.5160 N   0  0  0  0  0  0  0  0  0  0  0  0
   38.7270   32.6300   40.7520 C   0  0  0  0  0  0  0  0  0  0  0  0
   37.4970   32.0980   40.5420 N   0  0  0  0  0  0  0  0  0  0  0  0
   36.2110   30.4920   40.9300 H   0  0  0  0  0  0  0  0  0  0  0  0
   40.1190   30.3020   42.6880 H   0  0  0  0  0  0  0  0  0  0  0  0
   39.0230   33.5790   40.3260 H   0  0  0  0  0  0  0  0  0  0  0  0
   40.2260   24.9930   42.6950 N   0  0  0  0  0  0  0  0  0  0  0  0
   40.1000   24.3150   43.4510 H   0  0  0  0  0  0  0  0  0  0  0  0
   41.6420   25.1130   42.6330 C   0  0  0  0  0  0  0  0  0  0  0  0
   42.4130   25.1200   41.6100 O   0  0  0  0  0  0  0  0  0  0  0  0
   42.6380   25.2590   43.6720 N   0  0  0  0  0  0  0  0  0  0  0  0
   43.1750   24.4570   44.0660 H   0  0  0  0  0  0  0  0  0  0  0  0
   42.7120   26.2840   43.9440 H   0  0  0  0  0  0  0  0  0  0  0  0
  1  2  1  6  0  0  0
  2  8  1  0  0  0  0
  3  2  1  0  0  0  0
  3  9  1  0  0  0  0
  4 11  1  0  0  0  0
  4  3  1  0  0  0  0
  5  4  1  0  0  0  0
  5  6  1  0  0  0  0
  6 15  1  6  0  0  0
  6  1  1  0  0  0  0
  6 32  1  0  0  0  0
  7  2  1  0  0  0  0
 10  3  1  0  0  0  0
 12  4  1  0  0  0  0
 13  5  1  0  0  0  0
 14  5  1  0  0  0  0
 16 19  1  1  0  0  0
 17 16  1  0  0  0  0
 17 21  1  0  0  0  0
 18 22  1  6  0  0  0
 18 17  1  0  0  0  0
 18  1  1  0  0  0  0
 18 16  1  0  0  0  0
 20 17  1  0  0  0  0
 23 24  1  0  0  0  0
 24 25  2  0  0  0  0
 24 16  1  0  0  0  0
 25 30  1  0  0  0  0
 26 25  1  0  0  0  0
 27 26  2  0  0  0  0
 28 27  1  0  0  0  0
 28 23  2  0  0  0  0
 29 23  1  0  0  0  0
 31 27  1  0  0  0  0
 32 33  1  0  0  0  0
 34 32  1  0  0  0  0
 34 36  1  0  0  0  0
 35 34  2  0  0  0  0
 36 38  1  0  0  0  0
 36 37  1  0  0  0  0
M  END
>  <minimizedAffinity>
-4.91351175

$$$$

 OpenBabel03252506473D

 38 40  0  0  1  0  0  0  0  0999 V2000
   36.9350   29.7810   40.5720 N   0  0  1  0  0  0  0  0  0  0  0  0
   37.1280   31.1570   40.9300 C   0  0  0  0  0  0  0  0  0  0  0  0
   36.9320   32.1350   39.8060 C   0  0  0  0  0  0  0  0  0  0  0  0
   37.9740   31.9040   38.7430 C   0  0  0  0  0  0  0  0  0  0  0  0
   38.3300   30.4500   38.6250 C   0  0  0  0  0  0  0  0  0  0  0  0
   37.1810   29.6210   39.1670 C   0  0  2  0  0  0  0  0  0  0  0  0
   38.0870   31.3780   41.4130 H   0  0  0  0  0  0  0  0  0  0  0  0
   36.3410   31.4020   41.6970 H   0  0  0  0  0  0  0  0  0  0  0  0
   35.9170   32.2870   39.4670 H   0  0  0  0  0  0  0  0  0  0  0  0
   37.2320   33.1340   40.2650 H   0  0  0  0  0  0  0  0  0  0  0  0
   37.5810   32.3230   37.7790 H   0  0  0  0  0  0  0  0  0  0  0  0
   38.9190   32.4740   38.9260 H   0  0  0  0  0  0  0  0  0  0  0  0
   38.4780   30.1240   37.5880 H   0  0  0  0  0  0  0  0  0  0  0  0
   39.2550   30.1940   39.2010 H   0  0  0  0  0  0  0  0  0  0  0  0
   37.5090   28.5680   39.0400 H   0  0  0  0  0  0  0  0  0  0  0  0
   37.2640   27.9230   42.3270 C   0  0  1  0  0  0  0  0  0  0  0  0
   37.7160   29.2300   42.8620 C   0  0  0  0  0  0  0  0  0  0  0  0
   37.7620   28.9820   41.4080 C   0  0  2  0  0  0  0  0  0  0  0  0
   36.1710   27.7160   42.3360 H   0  0  0  0  0  0  0  0  0  0  0  0
   38.6240   29.1910   43.4960 H   0  0  0  0  0  0  0  0  0  0  0  0
   36.9180   29.8860   43.2630 H   0  0  0  0  0  0  0  0  0  0  0  0
   38.7840   28.7840   41.0010 H   0  0  0  0  0  0  0  0  0  0  0  0
   39.2040   26.7530   43.4320 C   0  0  0  0  0  0  0  0  0  0  0  0
   38.0830   26.7330   42.5910 C   0  0  0  0  0  0  0  0  0  0  0  0
   37.7590   25.4920   41.9970 C   0  0  0  0  0  0  0  0  0  0  0  0
   38.5330   24.4090   42.2680 N   0  0  0  0  0  0  0  0  0  0  0  0
   39.6090   24.4780   43.0910 C   0  0  0  0  0  0  0  0  0  0  0  0
   39.9520   25.6510   43.6790 N   0  0  0  0  0  0  0  0  0  0  0  0
   39.4870   27.6800   43.9060 H   0  0  0  0  0  0  0  0  0  0  0  0
   36.9220   25.3880   41.3420 H   0  0  0  0  0  0  0  0  0  0  0  0
   40.1720   23.5690   43.2530 H   0  0  0  0  0  0  0  0  0  0  0  0
   36.0080   29.8200   38.3590 N   0  0  0  0  0  0  0  0  0  0  0  0
   35.5870   30.4800   37.7000 H   0  0  0  0  0  0  0  0  0  0  0  0
   35.0230   28.7950   38.4260 C   0  0  0  0  0  0  0  0  0  0  0  0
   35.1700   27.5230   38.3850 O   0  0  0  0  0  0  0  0  0  0  0  0
   33.5840   28.8560   38.5560 N   0  0  0  0  0  0  0  0  0  0  0  0
   32.9340   28.8020   37.7420 H   0  0  0  0  0  0  0  0  0  0  0  0
   33.3290   28.9620   39.5820 H   0  0  0  0  0  0  0  0  0  0  0  0
  1  2  1  1  0  0  0
  1 18  1  0  0  0  0
  2  7  1  0  0  0  0
  2  8  1  0  0  0  0
  3 10  1  0  0  0  0
  3  2  1  0  0  0  0
  4 12  1  0  0  0  0
  4  3  1  0  0  0  0
  5  4  1  0  0  0  0
  5  6  1  0  0  0  0
  5 14  1  0  0  0  0
  6 15  1  6  0  0  0
  6  1  1  0  0  0  0
  9  3  1  0  0  0  0
 11  4  1  0  0  0  0
 13  5  1  0  0  0  0
 16 19  1  6  0  0  0
 16 24  1  0  0  0  0
 16 17  1  0  0  0  0
 17 21  1  0  0  0  0
 17 20  1  0  0  0  0
 18 22  1  6  0  0  0
 18 16  1  0  0  0  0
 18 17  1  0  0  0  0
 23 28  1  0  0  0  0
 23 29  1  0  0  0  0
 24 23  2  0  0  0  0
 25 26  2  0  0  0  0
 25 24  1  0  0  0  0
 26 27  1  0  0  0  0
 27 31  1  0  0  0  0
 27 28  2  0  0  0  0
 30 25  1  0  0  0  0
 32 34  1  0  0  0  0
 32  6  1  0  0  0  0
 33 32  1  0  0  0  0
 34 36  1  0  0  0  0
 35 34  2  0  0  0  0
 36 38  1  0  0  0  0
 37 36  1  0  0  0  0
M  END
>  <minimizedAffinity>
-4.90874624

$$$$

 OpenBabel03252506473D

 38 40  0  0  1  0  0  0  0  0999 V2000
   37.8740   31.3870   39.6080 N   0  0  1  0  0  0  0  0  0  0  0  0
   36.9590   32.4580   39.8780 C   0  0  0  0  0  0  0  0  0  0  0  0
   37.4700   33.8280   39.5310 C   0  0  0  0  0  0  0  0  0  0  0  0
   38.6580   34.1610   40.3950 C   0  0  0  0  0  0  0  0  0  0  0  0
   39.4770   32.9410   40.7020 C   0  0  0  0  0  0  0  0  0  0  0  0
   39.2160   31.8960   39.6330 C   0  0  2  0  0  0  0  0  0  0  0  0
   36.5720   32.4870   40.9040 H   0  0  0  0  0  0  0  0  0  0  0  0
   36.0600   32.2860   39.2220 H   0  0  0  0  0  0  0  0  0  0  0  0
   37.5520   34.0640   38.4790 H   0  0  0  0  0  0  0  0  0  0  0  0
   36.6530   34.5240   39.9160 H   0  0  0  0  0  0  0  0  0  0  0  0
   39.2560   34.9510   39.8690 H   0  0  0  0  0  0  0  0  0  0  0  0
   38.3730   34.6350   41.3670 H   0  0  0  0  0  0  0  0  0  0  0  0
   40.5580   33.1300   40.6850 H   0  0  0  0  0  0  0  0  0  0  0  0
   39.2220   32.5000   41.7000 H   0  0  0  0  0  0  0  0  0  0  0  0
   39.8560   31.0350   39.9190 H   0  0  0  0  0  0  0  0  0  0  0  0
   36.5670   29.3070   40.3830 C   0  0  1  0  0  0  0  0  0  0  0  0
   36.3940   30.4180   41.3480 C   0  0  0  0  0  0  0  0  0  0  0  0
   37.6240   30.3410   40.5370 C   0  0  2  0  0  0  0  0  0  0  0  0
   35.9480   29.3310   39.4580 H   0  0  0  0  0  0  0  0  0  0  0  0
   36.3700   30.1180   42.4140 H   0  0  0  0  0  0  0  0  0  0  0  0
   35.6290   31.1730   41.0780 H   0  0  0  0  0  0  0  0  0  0  0  0
   38.5270   29.9850   41.0930 H   0  0  0  0  0  0  0  0  0  0  0  0
   36.7210   27.6400   42.2670 C   0  0  0  0  0  0  0  0  0  0  0  0
   36.7820   27.9500   40.9020 C   0  0  0  0  0  0  0  0  0  0  0  0
   37.0570   26.8790   40.0220 C   0  0  0  0  0  0  0  0  0  0  0  0
   37.2440   25.6350   40.5340 N   0  0  0  0  0  0  0  0  0  0  0  0
   37.1740   25.3850   41.8670 C   0  0  0  0  0  0  0  0  0  0  0  0
   36.9130   26.3870   42.7420 N   0  0  0  0  0  0  0  0  0  0  0  0
   36.5130   28.4290   42.9750 H   0  0  0  0  0  0  0  0  0  0  0  0
   37.1220   27.0260   38.9660 H   0  0  0  0  0  0  0  0  0  0  0  0
   37.3360   24.3660   42.1910 H   0  0  0  0  0  0  0  0  0  0  0  0
   39.6660   32.3780   38.3560 N   0  0  0  0  0  0  0  0  0  0  0  0
   39.3710   32.9550   37.5640 H   0  0  0  0  0  0  0  0  0  0  0  0
   40.9670   31.9650   37.9560 C   0  0  0  0  0  0  0  0  0  0  0  0
   42.0540   31.9340   38.6340 O   0  0  0  0  0  0  0  0  0  0  0  0
   41.4690   31.4640   36.6950 N   0  0  0  0  0  0  0  0  0  0  0  0
   41.9350   32.0680   35.9850 H   0  0  0  0  0  0  0  0  0  0  0  0
   41.2810   30.4190   36.6340 H   0  0  0  0  0  0  0  0  0  0  0  0
  1  6  1  0  0  0  0
  1  2  1  1  0  0  0
  1 18  1  0  0  0  0
  2  7  1  0  0  0  0
  3  2  1  0  0  0  0
  3 10  1  0  0  0  0
  3  4  1  0  0  0  0
  4  5  1  0  0  0  0
  4 12  1  0  0  0  0
  5 14  1  0  0  0  0
  6 15  1  1  0  0  0
  6  5  1  0  0  0  0
  8  2  1  0  0  0  0
  9  3  1  0  0  0  0
 11  4  1  0  0  0  0
 13  5  1  0  0  0  0
 16 19  1  6  0  0  0
 16 18  1  0  0  0  0
 16 24  1  0  0  0  0
 16 17  1  0  0  0  0
 17 20  1  0  0  0  0
 18 22  1  1  0  0  0
 18 17  1  0  0  0  0
 21 17  1  0  0  0  0
 23 28  1  0  0  0  0
 23 29  1  0  0  0  0
 24 23  2  0  0  0  0
 25 26  2  0  0  0  0
 25 24  1  0  0  0  0
 26 27  1  0  0  0  0
 27 31  1  0  0  0  0
 27 28  2  0  0  0  0
 30 25  1  0  0  0  0
 32  6  1  0  0  0  0
 33 32  1  0  0  0  0
 34 32  1  0  0  0  0
 34 35  2  0  0  0  0
 36 34  1  0  0  0  0
 37 36  1  0  0  0  0
 38 36  1  0  0  0  0
M  END
>  <minimizedAffinity>
-4.83547688

$$$$

 OpenBabel03252506473D

 38 40  0  0  1  0  0  0  0  0999 V2000
   37.2660   28.1030   40.7100 N   0  0  1  0  0  0  0  0  0  0  0  0
   37.6550   29.2920   41.4110 C   0  0  0  0  0  0  0  0  0  0  0  0
   38.3930   29.0530   42.6990 C   0  0  0  0  0  0  0  0  0  0  0  0
   37.4910   28.3510   43.6800 C   0  0  0  0  0  0  0  0  0  0  0  0
   36.5500   27.4080   42.9880 C   0  0  0  0  0  0  0  0  0  0  0  0
   37.1450   27.0210   41.6470 C   0  0  2  0  0  0  0  0  0  0  0  0
   36.8400   29.9980   41.6110 H   0  0  0  0  0  0  0  0  0  0  0  0
   38.3720   29.8420   40.7390 H   0  0  0  0  0  0  0  0  0  0  0  0
   39.4050   28.6800   42.6160 H   0  0  0  0  0  0  0  0  0  0  0  0
   38.5100   30.0980   43.1390 H   0  0  0  0  0  0  0  0  0  0  0  0
   38.1400   27.8280   44.4300 H   0  0  0  0  0  0  0  0  0  0  0  0
   36.8780   29.0580   44.2920 H   0  0  0  0  0  0  0  0  0  0  0  0
   36.3990   26.4690   43.5350 H   0  0  0  0  0  0  0  0  0  0  0  0
   35.5450   27.8670   42.8110 H   0  0  0  0  0  0  0  0  0  0  0  0
   36.4060   26.3230   41.2010 H   0  0  0  0  0  0  0  0  0  0  0  0
   35.9850   29.3580   38.8600 C   0  0  1  0  0  0  0  0  0  0  0  0
   35.4300   29.6910   40.1950 C   0  0  0  0  0  0  0  0  0  0  0  0
   36.0790   28.3830   39.9800 C   0  0  2  0  0  0  0  0  0  0  0  0
   36.9160   29.8810   38.5480 H   0  0  0  0  0  0  0  0  0  0  0  0
   34.3300   29.8050   40.2330 H   0  0  0  0  0  0  0  0  0  0  0  0
   35.9810   30.4680   40.7620 H   0  0  0  0  0  0  0  0  0  0  0  0
   35.3720   27.5220   39.8900 H   0  0  0  0  0  0  0  0  0  0  0  0
   33.6720   28.9790   37.9350 C   0  0  0  0  0  0  0  0  0  0  0  0
   35.0540   29.1180   37.7510 C   0  0  0  0  0  0  0  0  0  0  0  0
   35.5280   29.0230   36.4230 C   0  0  0  0  0  0  0  0  0  0  0  0
   34.6390   28.8080   35.4190 N   0  0  0  0  0  0  0  0  0  0  0  0
   33.3070   28.6800   35.6480 C   0  0  0  0  0  0  0  0  0  0  0  0
   32.8150   28.7650   36.9090 N   0  0  0  0  0  0  0  0  0  0  0  0
   33.2670   29.0450   38.9340 H   0  0  0  0  0  0  0  0  0  0  0  0
   36.5660   29.1170   36.1930 H   0  0  0  0  0  0  0  0  0  0  0  0
   32.6680   28.5100   34.7920 H   0  0  0  0  0  0  0  0  0  0  0  0
   38.3740   26.3010   41.8440 N   0  0  0  0  0  0  0  0  0  0  0  0
   39.3600   26.4400   42.0770 H   0  0  0  0  0  0  0  0  0  0  0  0
   38.3010   24.8890   41.6820 C   0  0  0  0  0  0  0  0  0  0  0  0
   37.4260   24.0640   42.1250 O   0  0  0  0  0  0  0  0  0  0  0  0
   39.1650   23.9580   40.9880 N   0  0  0  0  0  0  0  0  0  0  0  0
   39.9140   23.4110   41.4640 H   0  0  0  0  0  0  0  0  0  0  0  0
   38.9050   23.9400   39.9580 H   0  0  0  0  0  0  0  0  0  0  0  0
  1  2  1  1  0  0  0
  1  6  1  0  0  0  0
  2  7  1  0  0  0  0
  2  3  1  0  0  0  0
  3 10  1  0  0  0  0
  3  4  1  0  0  0  0
  4 12  1  0  0  0  0
  4 11  1  0  0  0  0
  5 13  1  0  0  0  0
  5  4  1  0  0  0  0
  6 15  1  6  0  0  0
  6 32  1  0  0  0  0
  6  5  1  0  0  0  0
  8  2  1  0  0  0  0
  9  3  1  0  0  0  0
 14  5  1  0  0  0  0
 16 19  1  6  0  0  0
 16 18  1  0  0  0  0
 16 17  1  0  0  0  0
 17 20  1  0  0  0  0
 17 21  1  0  0  0  0
 18 22  1  6  0  0  0
 18 17  1  0  0  0  0
 18  1  1  0  0  0  0
 23 29  1  0  0  0  0
 24 23  1  0  0  0  0
 24 16  1  0  0  0  0
 25 24  2  0  0  0  0
 26 27  2  0  0  0  0
 26 25  1  0  0  0  0
 27 28  1  0  0  0  0
 28 23  2  0  0  0  0
 30 25  1  0  0  0  0
 31 27  1  0  0  0  0
 32 33  1  0  0  0  0
 34 32  1  0  0  0  0
 34 35  2  0  0  0  0
 36 37  1  0  0  0  0
 36 34  1  0  0  0  0
 38 36  1  0  0  0  0
M  END
>  <minimizedAffinity>
-4.77197218

$$$$

 OpenBabel03252506473D

 38 40  0  0  1  0  0  0  0  0999 V2000
   38.5820   28.3610   41.4700 N   0  0  1  0  0  0  0  0  0  0  0  0
   38.0590   27.0280   41.4030 C   0  0  0  0  0  0  0  0  0  0  0  0
   36.6160   26.8940   41.8040 C   0  0  0  0  0  0  0  0  0  0  0  0
   36.4570   27.2560   43.2570 C   0  0  0  0  0  0  0  0  0  0  0  0
   37.4120   28.3400   43.6640 C   0  0  0  0  0  0  0  0  0  0  0  0
   37.8250   29.1170   42.4280 C   0  0  2  0  0  0  0  0  0  0  0  0
   38.6370   26.2760   41.9530 H   0  0  0  0  0  0  0  0  0  0  0  0
   38.1110   26.7160   40.3220 H   0  0  0  0  0  0  0  0  0  0  0  0
   35.8820   27.2970   41.1190 H   0  0  0  0  0  0  0  0  0  0  0  0
   36.4360   25.7690   41.7850 H   0  0  0  0  0  0  0  0  0  0  0  0
   35.3870   27.5500   43.4240 H   0  0  0  0  0  0  0  0  0  0  0  0
   36.6130   26.3870   43.9440 H   0  0  0  0  0  0  0  0  0  0  0  0
   36.9680   29.0730   44.3500 H   0  0  0  0  0  0  0  0  0  0  0  0
   38.3340   27.9310   44.1500 H   0  0  0  0  0  0  0  0  0  0  0  0
   38.5170   29.8990   42.8040 H   0  0  0  0  0  0  0  0  0  0  0  0
   40.5520   28.0840   43.1060 C   0  0  1  0  0  0  0  0  0  0  0  0
   40.5990   29.4160   42.4560 C   0  0  0  0  0  0  0  0  0  0  0  0
   39.9730   28.2820   41.7500 C   0  0  2  0  0  0  0  0  0  0  0  0
   39.8480   27.9540   43.9570 H   0  0  0  0  0  0  0  0  0  0  0  0
   41.6130   29.7820   42.2030 H   0  0  0  0  0  0  0  0  0  0  0  0
   39.9420   30.1900   42.9020 H   0  0  0  0  0  0  0  0  0  0  0  0
   40.5910   27.8480   40.9260 H   0  0  0  0  0  0  0  0  0  0  0  0
   41.8520   25.9370   43.3340 C   0  0  0  0  0  0  0  0  0  0  0  0
   41.8050   27.3360   43.2690 C   0  0  0  0  0  0  0  0  0  0  0  0
   43.0410   28.0150   43.3620 C   0  0  0  0  0  0  0  0  0  0  0  0
   44.1820   27.2930   43.5050 N   0  0  0  0  0  0  0  0  0  0  0  0
   44.1760   25.9370   43.5620 C   0  0  0  0  0  0  0  0  0  0  0  0
   43.0100   25.2500   43.4760 N   0  0  0  0  0  0  0  0  0  0  0  0
   40.9310   25.3780   43.2660 H   0  0  0  0  0  0  0  0  0  0  0  0
   43.0960   29.0810   43.3220 H   0  0  0  0  0  0  0  0  0  0  0  0
   45.1290   25.4390   43.6770 H   0  0  0  0  0  0  0  0  0  0  0  0
   36.6810   29.7750   41.8570 N   0  0  0  0  0  0  0  0  0  0  0  0
   35.6590   29.7880   41.8940 H   0  0  0  0  0  0  0  0  0  0  0  0
   36.9580   30.7800   40.8890 C   0  0  0  0  0  0  0  0  0  0  0  0
   37.8270   31.7220   40.9220 O   0  0  0  0  0  0  0  0  0  0  0  0
   36.3670   31.0570   39.5980 N   0  0  0  0  0  0  0  0  0  0  0  0
   35.6140   31.7640   39.4540 H   0  0  0  0  0  0  0  0  0  0  0  0
   36.8210   30.4360   38.8650 H   0  0  0  0  0  0  0  0  0  0  0  0
  1  2  1  1  0  0  0
  1 18  1  0  0  0  0
  1  6  1  0  0  0  0
  2  3  1  0  0  0  0
  2  7  1  0  0  0  0
  3  4  1  0  0  0  0
  4 11  1  0  0  0  0
  4  5  1  0  0  0  0
  4 12  1  0  0  0  0
  5 14  1  0  0  0  0
  5 13  1  0  0  0  0
  6 15  1  1  0  0  0
  6  5  1  0  0  0  0
  8  2  1  0  0  0  0
  9  3  1  0  0  0  0
 10  3  1  0  0  0  0
 16 24  1  0  0  0  0
 16 19  1  1  0  0  0
 17 21  1  0  0  0  0
 17 16  1  0  0  0  0
 18 22  1  6  0  0  0
 18 17  1  0  0  0  0
 18 16  1  0  0  0  0
 20 17  1  0  0  0  0
 23 28  1  0  0  0  0
 24 23  2  0  0  0  0
 24 25  1  0  0  0  0
 25 26  2  0  0  0  0
 26 27  1  0  0  0  0
 27 31  1  0  0  0  0
 28 27  2  0  0  0  0
 29 23  1  0  0  0  0
 30 25  1  0  0  0  0
 32 33  1  0  0  0  0
 32  6  1  0  0  0  0
 34 35  2  0  0  0  0
 34 32  1  0  0  0  0
 36 34  1  0  0  0  0
 37 36  1  0  0  0  0
 38 36  1  0  0  0  0
M  END
>  <minimizedAffinity>
-4.73570108

$$$$

 OpenBabel03252506473D

 38 40  0  0  1  0  0  0  0  0999 V2000
   38.9520   30.3340   41.4200 N   0  0  1  0  0  0  0  0  0  0  0  0
   40.0130   30.7860   42.2730 C   0  0  0  0  0  0  0  0  0  0  0  0
   40.9270   31.8080   41.6560 C   0  0  0  0  0  0  0  0  0  0  0  0
   41.6570   31.1980   40.4880 C   0  0  0  0  0  0  0  0  0  0  0  0
   40.8050   30.1940   39.7670 C   0  0  0  0  0  0  0  0  0  0  0  0
   39.3460   30.5000   40.0490 C   0  0  2  0  0  0  0  0  0  0  0  0
   40.6320   29.9900   42.7030 H   0  0  0  0  0  0  0  0  0  0  0  0
   39.5250   31.2950   43.1500 H   0  0  0  0  0  0  0  0  0  0  0  0
   40.5200   32.7990   41.5110 H   0  0  0  0  0  0  0  0  0  0  0  0
   41.7420   31.9470   42.4410 H   0  0  0  0  0  0  0  0  0  0  0  0
   41.9890   32.0320   39.8160 H   0  0  0  0  0  0  0  0  0  0  0  0
   42.6080   30.6890   40.7850 H   0  0  0  0  0  0  0  0  0  0  0  0
   40.9190   30.2340   38.6770 H   0  0  0  0  0  0  0  0  0  0  0  0
   41.0180   29.1450   40.0960 H   0  0  0  0  0  0  0  0  0  0  0  0
   38.7820   29.7310   39.4820 H   0  0  0  0  0  0  0  0  0  0  0  0
   37.2530   28.4310   41.7780 C   0  0  1  0  0  0  0  0  0  0  0  0
   37.9180   28.7810   43.0560 C   0  0  0  0  0  0  0  0  0  0  0  0
   38.6280   28.9980   41.7800 C   0  0  2  0  0  0  0  0  0  0  0  0
   36.4220   29.0870   41.4370 H   0  0  0  0  0  0  0  0  0  0  0  0
   38.1460   27.9240   43.7200 H   0  0  0  0  0  0  0  0  0  0  0  0
   37.5030   29.6610   43.5880 H   0  0  0  0  0  0  0  0  0  0  0  0
   39.4270   28.2480   41.5590 H   0  0  0  0  0  0  0  0  0  0  0  0
   36.7560   26.5590   40.1650 C   0  0  0  0  0  0  0  0  0  0  0  0
   37.0420   27.0130   41.4600 C   0  0  0  0  0  0  0  0  0  0  0  0
   37.1260   26.0290   42.4710 C   0  0  0  0  0  0  0  0  0  0  0  0
   36.9330   24.7260   42.1410 N   0  0  0  0  0  0  0  0  0  0  0  0
   36.6600   24.3350   40.8700 C   0  0  0  0  0  0  0  0  0  0  0  0
   36.5690   25.2500   39.8730 N   0  0  0  0  0  0  0  0  0  0  0  0
   36.6820   27.2780   39.3620 H   0  0  0  0  0  0  0  0  0  0  0  0
   37.3390   26.2870   43.4840 H   0  0  0  0  0  0  0  0  0  0  0  0
   36.5190   23.2780   40.6930 H   0  0  0  0  0  0  0  0  0  0  0  0
   39.0020   31.7890   39.5110 N   0  0  0  0  0  0  0  0  0  0  0  0
   39.4120   32.6030   39.0470 H   0  0  0  0  0  0  0  0  0  0  0  0
   37.6310   32.1590   39.6080 C   0  0  0  0  0  0  0  0  0  0  0  0
   36.5830   31.4670   39.3530 O   0  0  0  0  0  0  0  0  0  0  0  0
   36.9980   33.3960   40.0100 N   0  0  0  0  0  0  0  0  0  0  0  0
   36.6790   34.1210   39.3330 H   0  0  0  0  0  0  0  0  0  0  0  0
   36.9260   33.4240   41.0700 H   0  0  0  0  0  0  0  0  0  0  0  0
  1 18  1  0  0  0  0
  1  2  1  1  0  0  0
  2  7  1  0  0  0  0
  2  8  1  0  0  0  0
  3  2  1  0  0  0  0
  3 10  1  0  0  0  0
  4 12  1  0  0  0  0
  4  3  1  0  0  0  0
  5  6  1  0  0  0  0
  5 14  1  0  0  0  0
  5  4  1  0  0  0  0
  6 15  1  6  0  0  0
  6  1  1  0  0  0  0
  9  3  1  0  0  0  0
 11  4  1  0  0  0  0
 13  5  1  0  0  0  0
 16 19  1  6  0  0  0
 16 18  1  0  0  0  0
 16 17  1  0  0  0  0
 17 21  1  0  0  0  0
 17 20  1  0  0  0  0
 18 22  1  6  0  0  0
 18 17  1  0  0  0  0
 23 24  1  0  0  0  0
 24 16  1  0  0  0  0
 24 25  2  0  0  0  0
 25 30  1  0  0  0  0
 26 25  1  0  0  0  0
 27 26  2  0  0  0  0
 28 23  2  0  0  0  0
 28 27  1  0  0  0  0
 29 23  1  0  0  0  0
 31 27  1  0  0  0  0
 32 34  1  0  0  0  0
 32  6  1  0  0  0  0
 33 32  1  0  0  0  0
 34 36  1  0  0  0  0
 35 34  2  0  0  0  0
 36 38  1  0  0  0  0
 37 36  1  0  0  0  0
M  END
>  <minimizedAffinity>
-4.73189497

$$$$

 OpenBabel03252506473D

 38 40  0  0  1  0  0  0  0  0999 V2000
   37.4890   30.0460   41.0790 N   0  0  1  0  0  0  0  0  0  0  0  0
   37.3250   29.2610   42.2680 C   0  0  0  0  0  0  0  0  0  0  0  0
   38.4600   29.3570   43.2490 C   0  0  0  0  0  0  0  0  0  0  0  0
   39.7130   28.7940   42.6330 C   0  0  0  0  0  0  0  0  0  0  0  0
   39.7700   29.0590   41.1560 C   0  0  0  0  0  0  0  0  0  0  0  0
   38.8900   30.2530   40.8400 C   0  0  2  0  0  0  0  0  0  0  0  0
   37.1110   28.2000   42.0950 H   0  0  0  0  0  0  0  0  0  0  0  0
   36.4190   29.6680   42.7990 H   0  0  0  0  0  0  0  0  0  0  0  0
   38.5590   30.2890   43.7880 H   0  0  0  0  0  0  0  0  0  0  0  0
   38.1860   28.5930   44.0500 H   0  0  0  0  0  0  0  0  0  0  0  0
   40.5910   29.2340   43.1760 H   0  0  0  0  0  0  0  0  0  0  0  0
   39.8200   27.6910   42.7870 H   0  0  0  0  0  0  0  0  0  0  0  0
   40.7750   29.3190   40.8020 H   0  0  0  0  0  0  0  0  0  0  0  0
   39.4110   28.1840   40.5560 H   0  0  0  0  0  0  0  0  0  0  0  0
   38.9870   30.3930   39.7440 H   0  0  0  0  0  0  0  0  0  0  0  0
   35.9040   30.0810   39.0480 C   0  0  1  0  0  0  0  0  0  0  0  0
   35.3390   29.2450   40.1350 C   0  0  0  0  0  0  0  0  0  0  0  0
   36.8020   29.3980   40.0170 C   0  0  2  0  0  0  0  0  0  0  0  0
   35.7880   31.1840   39.1380 H   0  0  0  0  0  0  0  0  0  0  0  0
   34.8120   28.3300   39.8000 H   0  0  0  0  0  0  0  0  0  0  0  0
   34.8120   29.7970   40.9390 H   0  0  0  0  0  0  0  0  0  0  0  0
   37.3300   28.5080   39.5940 H   0  0  0  0  0  0  0  0  0  0  0  0
   34.7370   28.8200   37.2050 C   0  0  0  0  0  0  0  0  0  0  0  0
   35.8080   29.5970   37.6650 C   0  0  0  0  0  0  0  0  0  0  0  0
   36.8130   29.9110   36.7230 C   0  0  0  0  0  0  0  0  0  0  0  0
   36.6900   29.4540   35.4500 N   0  0  0  0  0  0  0  0  0  0  0  0
   35.6320   28.7040   35.0510 C   0  0  0  0  0  0  0  0  0  0  0  0
   34.6480   28.3810   35.9270 N   0  0  0  0  0  0  0  0  0  0  0  0
   33.9470   28.5570   37.8920 H   0  0  0  0  0  0  0  0  0  0  0  0
   37.6640   30.4980   36.9890 H   0  0  0  0  0  0  0  0  0  0  0  0
   35.6110   28.3800   34.0190 H   0  0  0  0  0  0  0  0  0  0  0  0
   39.4080   31.4290   41.4850 N   0  0  0  0  0  0  0  0  0  0  0  0
   39.9220   31.7310   42.3170 H   0  0  0  0  0  0  0  0  0  0  0  0
   39.1820   32.6610   40.8110 C   0  0  0  0  0  0  0  0  0  0  0  0
   39.3220   32.9460   39.5700 O   0  0  0  0  0  0  0  0  0  0  0  0
   38.7350   33.9500   41.2930 N   0  0  0  0  0  0  0  0  0  0  0  0
   39.3880   34.7250   41.5400 H   0  0  0  0  0  0  0  0  0  0  0  0
   37.6740   33.9560   41.3470 H   0  0  0  0  0  0  0  0  0  0  0  0
  1  2  1  1  0  0  0
  2  8  1  0  0  0  0
  2  3  1  0  0  0  0
  3  9  1  0  0  0  0
  3 10  1  0  0  0  0
  4 12  1  0  0  0  0
  4 11  1  0  0  0  0
  4  3  1  0  0  0  0
  5  4  1  0  0  0  0
  6 15  1  6  0  0  0
  6  1  1  0  0  0  0
  6  5  1  0  0  0  0
  6 32  1  0  0  0  0
  7  2  1  0  0  0  0
 13  5  1  0  0  0  0
 14  5  1  0  0  0  0
 16 19  1  1  0  0  0
 16 18  1  0  0  0  0
 16 17  1  0  0  0  0
 17 21  1  0  0  0  0
 18 22  1  6  0  0  0
 18 17  1  0  0  0  0
 18  1  1  0  0  0  0
 20 17  1  0  0  0  0
 23 24  1  0  0  0  0
 23 29  1  0  0  0  0
 24 16  1  0  0  0  0
 25 30  1  0  0  0  0
 25 24  2  0  0  0  0
 26 25  1  0  0  0  0
 27 26  2  0  0  0  0
 27 28  1  0  0  0  0
 28 23  2  0  0  0  0
 31 27  1  0  0  0  0
 32 33  1  0  0  0  0
 34 36  1  0  0  0  0
 34 32  1  0  0  0  0
 35 34  2  0  0  0  0
 36 38  1  0  0  0  0
 36 37  1  0  0  0  0
M  END
>  <minimizedAffinity>
-4.72474813

$$$$

 OpenBabel03252506473D

 38 40  0  0  1  0  0  0  0  0999 V2000
   38.5510   28.2860   40.6140 N   0  0  1  0  0  0  0  0  0  0  0  0
   38.2490   26.9450   41.0230 C   0  0  0  0  0  0  0  0  0  0  0  0
   37.7210   26.8170   42.4240 C   0  0  0  0  0  0  0  0  0  0  0  0
   38.7770   27.2490   43.4070 C   0  0  0  0  0  0  0  0  0  0  0  0
   39.6210   28.3620   42.8570 C   0  0  0  0  0  0  0  0  0  0  0  0
   38.8360   29.0800   41.7750 C   0  0  2  0  0  0  0  0  0  0  0  0
   39.0690   26.2280   40.9000 H   0  0  0  0  0  0  0  0  0  0  0  0
   37.4260   26.5800   40.3460 H   0  0  0  0  0  0  0  0  0  0  0  0
   36.7160   27.1770   42.6000 H   0  0  0  0  0  0  0  0  0  0  0  0
   37.6500   25.6900   42.5820 H   0  0  0  0  0  0  0  0  0  0  0  0
   38.2610   27.5390   44.3610 H   0  0  0  0  0  0  0  0  0  0  0  0
   39.4610   26.4170   43.7080 H   0  0  0  0  0  0  0  0  0  0  0  0
   39.8730   29.1230   43.6060 H   0  0  0  0  0  0  0  0  0  0  0  0
   40.5780   27.9870   42.4130 H   0  0  0  0  0  0  0  0  0  0  0  0
   39.5140   29.8870   41.4250 H   0  0  0  0  0  0  0  0  0  0  0  0
   39.4830   28.6500   38.2400 C   0  0  1  0  0  0  0  0  0  0  0  0
   39.5300   27.2130   38.6010 C   0  0  0  0  0  0  0  0  0  0  0  0
   39.6060   28.2360   39.6630 C   0  0  2  0  0  0  0  0  0  0  0  0
   38.5060   29.0620   37.9020 H   0  0  0  0  0  0  0  0  0  0  0  0
   40.4230   26.6650   38.2440 H   0  0  0  0  0  0  0  0  0  0  0  0
   38.5810   26.6550   38.4710 H   0  0  0  0  0  0  0  0  0  0  0  0
   40.6280   28.3860   40.0910 H   0  0  0  0  0  0  0  0  0  0  0  0
   41.5160   28.4810   36.7590 C   0  0  0  0  0  0  0  0  0  0  0  0
   40.6340   29.2380   37.5410 C   0  0  0  0  0  0  0  0  0  0  0  0
   40.8970   30.6240   37.6300 C   0  0  0  0  0  0  0  0  0  0  0  0
   41.9650   31.1360   36.9650 N   0  0  0  0  0  0  0  0  0  0  0  0
   42.7910   30.3610   36.2180 C   0  0  0  0  0  0  0  0  0  0  0  0
   42.5720   29.0270   36.1110 N   0  0  0  0  0  0  0  0  0  0  0  0
   41.3520   27.4180   36.6650 H   0  0  0  0  0  0  0  0  0  0  0  0
   40.2750   31.2740   38.2040 H   0  0  0  0  0  0  0  0  0  0  0  0
   43.6190   30.8490   35.7220 H   0  0  0  0  0  0  0  0  0  0  0  0
   37.6680   29.6970   42.3430 N   0  0  0  0  0  0  0  0  0  0  0  0
   37.0990   29.7130   43.1930 H   0  0  0  0  0  0  0  0  0  0  0  0
   36.9900   30.6320   41.5120 C   0  0  0  0  0  0  0  0  0  0  0  0
   37.4710   31.5730   40.7870 O   0  0  0  0  0  0  0  0  0  0  0  0
   35.5840   30.8170   41.2260 N   0  0  0  0  0  0  0  0  0  0  0  0
   34.9870   31.5120   41.7240 H   0  0  0  0  0  0  0  0  0  0  0  0
   35.2920   30.1460   40.4560 H   0  0  0  0  0  0  0  0  0  0  0  0
  1  2  1  1  0  0  0
  1  6  1  0  0  0  0
  2  3  1  0  0  0  0
  3 10  1  0  0  0  0
  3  9  1  0  0  0  0
  3  4  1  0  0  0  0
  4 12  1  0  0  0  0
  4 11  1  0  0  0  0
  5  4  1  0  0  0  0
  5 13  1  0  0  0  0
  6 15  1  6  0  0  0
  6 32  1  0  0  0  0
  6  5  1  0  0  0  0
  7  2  1  0  0  0  0
  8  2  1  0  0  0  0
 14  5  1  0  0  0  0
 16 19  1  6  0  0  0
 16 17  1  0  0  0  0
 16 18  1  0  0  0  0
 17 18  1  0  0  0  0
 18 22  1  1  0  0  0
 18  1  1  0  0  0  0
 20 17  1  0  0  0  0
 21 17  1  0  0  0  0
 23 24  1  0  0  0  0
 24 25  2  0  0  0  0
 24 16  1  0  0  0  0
 25 30  1  0  0  0  0
 26 25  1  0  0  0  0
 27 26  2  0  0  0  0
 28 27  1  0  0  0  0
 28 23  2  0  0  0  0
 29 23  1  0  0  0  0
 31 27  1  0  0  0  0
 32 33  1  0  0  0  0
 34 32  1  0  0  0  0
 35 34  2  0  0  0  0
 36 34  1  0  0  0  0
 36 37  1  0  0  0  0
 38 36  1  0  0  0  0
M  END
>  <minimizedAffinity>
-4.68735933

$$$$
