
 OpenBabel03252500233D

 21 21  0  0  0  0  0  0  0  0999 V2000
   39.3510   28.1000   42.4210 O   0  0  0  0  0  0  0  0  0  0  0  0
   39.0190   24.5540   42.6920 C   0  0  0  0  0  0  0  0  0  0  0  0
   37.7800   24.2720   42.0770 C   0  0  0  0  0  0  0  0  0  0  0  0
   37.0700   25.3740   41.5670 C   0  0  0  0  0  0  0  0  0  0  0  0
   37.5950   26.6090   41.6880 N   0  0  0  0  0  0  0  0  0  0  0  0
   38.7900   26.8280   42.2870 C   0  0  0  0  0  0  0  0  0  0  0  0
   39.4880   25.7930   42.7820 N   0  0  0  0  0  0  0  0  0  0  0  0
   37.4340   23.2660   42.0230 H   0  0  0  0  0  0  0  0  0  0  0  0
   36.1110   25.1960   41.0880 H   0  0  0  0  0  0  0  0  0  0  0  0
   39.7110   23.4730   43.1900 O   0  0  0  0  0  0  0  0  0  0  0  0
   40.4590   23.6480   43.8470 H   0  0  0  0  0  0  0  0  0  0  0  0
   39.3300   30.5920   43.0820 O   0  0  0  0  0  0  0  0  0  0  0  0
   38.3980   29.5190   42.5260 P   0  0  2  0  0  0  0  0  0  0  0  0
   37.1060   29.3520   43.5840 O   0  0  0  0  0  0  0  0  0  0  0  0
   37.3570   29.6640   44.4950 H   0  0  0  0  0  0  0  0  0  0  0  0
   37.8850   30.0340   41.0230 O   0  0  0  0  0  0  0  0  0  0  0  0
   36.9500   31.0320   40.8210 C   0  0  0  0  0  0  0  0  0  0  0  0
   37.2560   32.0510   40.1420 O   0  0  0  0  0  0  0  0  0  0  0  0
   35.6580   30.8940   41.3830 N   0  0  0  0  0  0  0  0  0  0  0  0
   35.1730   30.5500   40.5090 H   0  0  0  0  0  0  0  0  0  0  0  0
   34.9380   30.9370   42.1370 H   0  0  0  0  0  0  0  0  0  0  0  0
  1 13  1  0  0  0  0
  2  7  1  0  0  0  0
  2 10  1  0  0  0  0
  3  2  2  0  0  0  0
  4  5  2  0  0  0  0
  4  3  1  0  0  0  0
  5  6  1  0  0  0  0
  6  1  1  0  0  0  0
  6  7  2  0  0  0  0
  8  3  1  0  0  0  0
  9  4  1  0  0  0  0
 10 11  1  0  0  0  0
 13 12  2  1  0  0  0
 13 14  1  0  0  0  0
 14 15  1  0  0  0  0
 16 13  1  0  0  0  0
 17 16  1  0  0  0  0
 17 19  1  0  0  0  0
 18 17  2  0  0  0  0
 19 21  1  0  0  0  0
 20 19  1  0  0  0  0
M  END
>  <minimizedAffinity>
-4.89650965

$$$$

 OpenBabel03252500233D

 21 21  0  0  0  0  0  0  0  0999 V2000
   37.1400   29.4820   39.4750 O   0  0  0  0  0  0  0  0  0  0  0  0
   39.3510   31.9000   38.0520 C   0  0  0  0  0  0  0  0  0  0  0  0
   39.9300   32.5410   39.1680 C   0  0  0  0  0  0  0  0  0  0  0  0
   39.5120   32.0920   40.4340 C   0  0  0  0  0  0  0  0  0  0  0  0
   38.6060   31.0980   40.5140 N   0  0  0  0  0  0  0  0  0  0  0  0
   38.0800   30.5130   39.4130 C   0  0  0  0  0  0  0  0  0  0  0  0
   38.4610   30.9240   38.1920 N   0  0  0  0  0  0  0  0  0  0  0  0
   40.6400   33.3220   39.0190 H   0  0  0  0  0  0  0  0  0  0  0  0
   39.9360   32.5640   41.3170 H   0  0  0  0  0  0  0  0  0  0  0  0
   39.7610   32.3420   36.8150 O   0  0  0  0  0  0  0  0  0  0  0  0
   39.2000   32.0960   36.0110 H   0  0  0  0  0  0  0  0  0  0  0  0
   34.5890   29.2180   39.7370 O   0  0  0  0  0  0  0  0  0  0  0  0
   35.8310   29.4970   40.5790 P   0  0  2  0  0  0  0  0  0  0  0  0
   35.6310   30.9880   41.3230 O   0  0  0  0  0  0  0  0  0  0  0  0
   34.9830   31.5480   40.8180 H   0  0  0  0  0  0  0  0  0  0  0  0
   35.9550   28.2710   41.7060 O   0  0  0  0  0  0  0  0  0  0  0  0
   36.9450   28.1970   42.6670 C   0  0  0  0  0  0  0  0  0  0  0  0
   37.3670   27.0700   43.0470 O   0  0  0  0  0  0  0  0  0  0  0  0
   37.4710   29.3920   43.2130 N   0  0  0  0  0  0  0  0  0  0  0  0
   38.3430   29.4330   42.6160 H   0  0  0  0  0  0  0  0  0  0  0  0
   37.4900   30.2230   43.8430 H   0  0  0  0  0  0  0  0  0  0  0  0
  1 13  1  0  0  0  0
  2  7  2  0  0  0  0
  2  3  1  0  0  0  0
  3  4  2  0  0  0  0
  4  5  1  0  0  0  0
  4  9  1  0  0  0  0
  6  1  1  0  0  0  0
  6  5  2  0  0  0  0
  7  6  1  0  0  0  0
  8  3  1  0  0  0  0
 10  2  1  0  0  0  0
 11 10  1  0  0  0  0
 13 12  2  6  0  0  0
 13 14  1  0  0  0  0
 13 16  1  0  0  0  0
 15 14  1  0  0  0  0
 16 17  1  0  0  0  0
 17 18  2  0  0  0  0
 17 19  1  0  0  0  0
 19 21  1  0  0  0  0
 20 19  1  0  0  0  0
M  END
>  <minimizedAffinity>
-4.89093351

$$$$

 OpenBabel03252500233D

 21 21  0  0  0  0  0  0  0  0999 V2000
   39.9730   30.9000   39.1830 O   0  0  0  0  0  0  0  0  0  0  0  0
   36.5980   30.7070   40.3340 C   0  0  0  0  0  0  0  0  0  0  0  0
   35.9250   29.9900   39.3220 C   0  0  0  0  0  0  0  0  0  0  0  0
   36.7020   29.5810   38.2230 C   0  0  0  0  0  0  0  0  0  0  0  0
   38.0150   29.8850   38.1950 N   0  0  0  0  0  0  0  0  0  0  0  0
   38.6150   30.5760   39.1940 C   0  0  0  0  0  0  0  0  0  0  0  0
   37.8950   30.9780   40.2530 N   0  0  0  0  0  0  0  0  0  0  0  0
   34.8820   29.7910   39.4190 H   0  0  0  0  0  0  0  0  0  0  0  0
   36.2180   29.0270   37.4230 H   0  0  0  0  0  0  0  0  0  0  0  0
   35.8340   31.1070   41.4070 O   0  0  0  0  0  0  0  0  0  0  0  0
   36.2050   31.8230   42.0160 H   0  0  0  0  0  0  0  0  0  0  0  0
   40.2390   33.4630   39.1010 O   0  0  0  0  0  0  0  0  0  0  0  0
   40.5960   32.2210   38.2880 P   0  0  2  0  0  0  0  0  0  0  0  0
   39.8860   32.3680   36.7750 O   0  0  0  0  0  0  0  0  0  0  0  0
   39.1070   32.9860   36.8110 H   0  0  0  0  0  0  0  0  0  0  0  0
   42.2600   32.1620   38.1720 O   0  0  0  0  0  0  0  0  0  0  0  0
   43.0270   33.1100   37.5210 C   0  0  0  0  0  0  0  0  0  0  0  0
   44.2870   33.0440   37.5770 O   0  0  0  0  0  0  0  0  0  0  0  0
   42.3860   34.1440   36.7980 N   0  0  0  0  0  0  0  0  0  0  0  0
   42.4810   33.7090   35.8390 H   0  0  0  0  0  0  0  0  0  0  0  0
   41.8910   35.0540   36.6760 H   0  0  0  0  0  0  0  0  0  0  0  0
  1  6  1  0  0  0  0
  2 10  1  0  0  0  0
  3  8  1  0  0  0  0
  3  2  2  0  0  0  0
  4  3  1  0  0  0  0
  5  4  2  0  0  0  0
  5  6  1  0  0  0  0
  6  7  2  0  0  0  0
  7  2  1  0  0  0  0
  9  4  1  0  0  0  0
 10 11  1  0  0  0  0
 13 12  2  1  0  0  0
 13  1  1  0  0  0  0
 14 15  1  0  0  0  0
 14 13  1  0  0  0  0
 16 13  1  0  0  0  0
 17 18  2  0  0  0  0
 17 16  1  0  0  0  0
 19 17  1  0  0  0  0
 20 19  1  0  0  0  0
 21 19  1  0  0  0  0
M  END
>  <minimizedAffinity>
-4.74690247

$$$$

 OpenBabel03252500233D

 21 21  0  0  0  0  0  0  0  0999 V2000
   37.2730   29.8230   39.5300 O   0  0  0  0  0  0  0  0  0  0  0  0
   39.6610   31.5850   41.5160 C   0  0  0  0  0  0  0  0  0  0  0  0
   40.3140   32.4380   40.6010 C   0  0  0  0  0  0  0  0  0  0  0  0
   39.8840   32.3670   39.2630 C   0  0  0  0  0  0  0  0  0  0  0  0
   38.8950   31.5120   38.9340 N   0  0  0  0  0  0  0  0  0  0  0  0
   38.2980   30.7150   39.8510 C   0  0  0  0  0  0  0  0  0  0  0  0
   38.6920   30.7630   41.1350 N   0  0  0  0  0  0  0  0  0  0  0  0
   41.0900   33.0850   40.9410 H   0  0  0  0  0  0  0  0  0  0  0  0
   40.3650   33.0080   38.5290 H   0  0  0  0  0  0  0  0  0  0  0  0
   40.0860   31.6570   42.8240 O   0  0  0  0  0  0  0  0  0  0  0  0
   39.8320   30.9050   43.4490 H   0  0  0  0  0  0  0  0  0  0  0  0
   34.7320   29.3890   39.5720 O   0  0  0  0  0  0  0  0  0  0  0  0
   35.9000   29.6010   40.5300 P   0  0  2  0  0  0  0  0  0  0  0  0
   35.5630   30.9490   41.4710 O   0  0  0  0  0  0  0  0  0  0  0  0
   34.9130   31.5450   41.0110 H   0  0  0  0  0  0  0  0  0  0  0  0
   36.0310   28.2270   41.4690 O   0  0  0  0  0  0  0  0  0  0  0  0
   36.8910   28.0990   42.5430 C   0  0  0  0  0  0  0  0  0  0  0  0
   37.4180   26.9800   42.7950 O   0  0  0  0  0  0  0  0  0  0  0  0
   37.1670   29.2300   43.3480 N   0  0  0  0  0  0  0  0  0  0  0  0
   38.0920   29.4820   42.9040 H   0  0  0  0  0  0  0  0  0  0  0  0
   36.9850   29.9310   44.1000 H   0  0  0  0  0  0  0  0  0  0  0  0
  1  6  1  0  0  0  0
  1 13  1  0  0  0  0
  2 10  1  0  0  0  0
  3  8  1  0  0  0  0
  3  2  2  0  0  0  0
  4  3  1  0  0  0  0
  5  4  2  0  0  0  0
  5  6  1  0  0  0  0
  6  7  2  0  0  0  0
  7  2  1  0  0  0  0
  9  4  1  0  0  0  0
 10 11  1  0  0  0  0
 13 12  2  6  0  0  0
 13 16  1  0  0  0  0
 13 14  1  0  0  0  0
 15 14  1  0  0  0  0
 16 17  1  0  0  0  0
 17 18  2  0  0  0  0
 17 19  1  0  0  0  0
 19 21  1  0  0  0  0
 20 19  1  0  0  0  0
M  END
>  <minimizedAffinity>
-4.59486294

$$$$

 OpenBabel03252500233D

 21 21  0  0  0  0  0  0  0  0999 V2000
   39.2810   31.9470   41.4600 O   0  0  0  0  0  0  0  0  0  0  0  0
   37.1530   29.1130   41.9000 C   0  0  0  0  0  0  0  0  0  0  0  0
   37.9980   28.1240   42.4450 C   0  0  0  0  0  0  0  0  0  0  0  0
   39.3410   28.4910   42.6490 C   0  0  0  0  0  0  0  0  0  0  0  0
   39.7390   29.7370   42.3240 N   0  0  0  0  0  0  0  0  0  0  0  0
   38.8880   30.6520   41.8040 C   0  0  0  0  0  0  0  0  0  0  0  0
   37.6010   30.3260   41.5990 N   0  0  0  0  0  0  0  0  0  0  0  0
   37.6050   27.1600   42.6750 H   0  0  0  0  0  0  0  0  0  0  0  0
   40.0220   27.7540   43.0670 H   0  0  0  0  0  0  0  0  0  0  0  0
   35.8400   28.7500   41.7020 O   0  0  0  0  0  0  0  0  0  0  0  0
   35.2730   29.3250   41.0940 H   0  0  0  0  0  0  0  0  0  0  0  0
   39.2860   34.1590   40.1350 O   0  0  0  0  0  0  0  0  0  0  0  0
   38.5740   32.8090   40.1600 P   0  0  2  0  0  0  0  0  0  0  0  0
   36.9350   33.0890   40.3870 O   0  0  0  0  0  0  0  0  0  0  0  0
   36.7870   33.9710   40.8230 H   0  0  0  0  0  0  0  0  0  0  0  0
   38.8630   32.0660   38.6930 O   0  0  0  0  0  0  0  0  0  0  0  0
   37.8720   31.6700   37.8150 C   0  0  0  0  0  0  0  0  0  0  0  0
   36.8730   31.0290   38.2440 O   0  0  0  0  0  0  0  0  0  0  0  0
   37.9940   31.9910   36.4410 N   0  0  0  0  0  0  0  0  0  0  0  0
   37.3600   32.8370   36.4500 H   0  0  0  0  0  0  0  0  0  0  0  0
   38.3390   31.8750   35.4640 H   0  0  0  0  0  0  0  0  0  0  0  0
  1  6  1  0  0  0  0
  2  3  1  0  0  0  0
  3  4  2  0  0  0  0
  3  8  1  0  0  0  0
  4  9  1  0  0  0  0
  5  4  1  0  0  0  0
  6  5  2  0  0  0  0
  7  6  1  0  0  0  0
  7  2  2  0  0  0  0
 10  2  1  0  0  0  0
 11 10  1  0  0  0  0
 13 12  2  6  0  0  0
 13 14  1  0  0  0  0
 13  1  1  0  0  0  0
 14 15  1  0  0  0  0
 16 13  1  0  0  0  0
 17 18  2  0  0  0  0
 17 16  1  0  0  0  0
 19 20  1  0  0  0  0
 19 17  1  0  0  0  0
 21 19  1  0  0  0  0
M  END
>  <minimizedAffinity>
-4.47751093

$$$$

 OpenBabel03252500233D

 21 21  0  0  0  0  0  0  0  0999 V2000
   39.1790   30.3930   38.8870 O   0  0  0  0  0  0  0  0  0  0  0  0
   37.1030   29.2850   41.5740 C   0  0  0  0  0  0  0  0  0  0  0  0
   36.2830   28.2940   40.9940 C   0  0  0  0  0  0  0  0  0  0  0  0
   36.4880   28.0330   39.6270 C   0  0  0  0  0  0  0  0  0  0  0  0
   37.4320   28.7240   38.9590 N   0  0  0  0  0  0  0  0  0  0  0  0
   38.1960   29.6660   39.5620 C   0  0  0  0  0  0  0  0  0  0  0  0
   38.0200   29.9340   40.8660 N   0  0  0  0  0  0  0  0  0  0  0  0
   35.5570   27.7920   41.5920 H   0  0  0  0  0  0  0  0  0  0  0  0
   35.8730   27.2760   39.1460 H   0  0  0  0  0  0  0  0  0  0  0  0
   36.9000   29.5380   42.9110 O   0  0  0  0  0  0  0  0  0  0  0  0
   37.2750   30.3930   43.2980 H   0  0  0  0  0  0  0  0  0  0  0  0
   37.3680   31.8690   37.7990 O   0  0  0  0  0  0  0  0  0  0  0  0
   38.8570   31.8950   38.1300 P   0  0  2  0  0  0  0  0  0  0  0  0
   39.7060   32.0900   36.6960 O   0  0  0  0  0  0  0  0  0  0  0  0
   39.1630   31.7820   35.9220 H   0  0  0  0  0  0  0  0  0  0  0  0
   39.1150   33.1790   39.1650 O   0  0  0  0  0  0  0  0  0  0  0  0
   38.3550   33.4350   40.2900 C   0  0  0  0  0  0  0  0  0  0  0  0
   38.8400   34.1220   41.2320 O   0  0  0  0  0  0  0  0  0  0  0  0
   37.0390   32.9200   40.3690 N   0  0  0  0  0  0  0  0  0  0  0  0
   36.5370   33.8050   40.0830 H   0  0  0  0  0  0  0  0  0  0  0  0
   36.3090   32.1950   40.5410 H   0  0  0  0  0  0  0  0  0  0  0  0
  1  6  1  0  0  0  0
  2 10  1  0  0  0  0
  3  2  1  0  0  0  0
  3  8  1  0  0  0  0
  4  3  2  0  0  0  0
  5  6  2  0  0  0  0
  5  4  1  0  0  0  0
  6  7  1  0  0  0  0
  7  2  2  0  0  0  0
  9  4  1  0  0  0  0
 10 11  1  0  0  0  0
 13 12  2  6  0  0  0
 13  1  1  0  0  0  0
 13 16  1  0  0  0  0
 14 13  1  0  0  0  0
 15 14  1  0  0  0  0
 16 17  1  0  0  0  0
 17 19  1  0  0  0  0
 17 18  2  0  0  0  0
 19 21  1  0  0  0  0
 20 19  1  0  0  0  0
M  END
>  <minimizedAffinity>
-4.43465805

$$$$

 OpenBabel03252500233D

 21 21  0  0  0  0  0  0  0  0999 V2000
   38.6390   30.9710   41.4890 O   0  0  0  0  0  0  0  0  0  0  0  0
   37.3520   28.1310   43.2300 C   0  0  0  0  0  0  0  0  0  0  0  0
   38.4910   27.3410   43.4970 C   0  0  0  0  0  0  0  0  0  0  0  0
   39.7230   27.8440   43.0400 C   0  0  0  0  0  0  0  0  0  0  0  0
   39.7510   29.0240   42.3900 N   0  0  0  0  0  0  0  0  0  0  0  0
   38.6300   29.7470   42.1600 C   0  0  0  0  0  0  0  0  0  0  0  0
   37.4410   29.2880   42.5850 N   0  0  0  0  0  0  0  0  0  0  0  0
   38.3830   26.4170   44.0170 H   0  0  0  0  0  0  0  0  0  0  0  0
   40.6210   27.2620   43.2270 H   0  0  0  0  0  0  0  0  0  0  0  0
   36.1490   27.6350   43.6780 O   0  0  0  0  0  0  0  0  0  0  0  0
   35.3000   28.0290   43.2970 H   0  0  0  0  0  0  0  0  0  0  0  0
   37.7390   32.8570   39.9790 O   0  0  0  0  0  0  0  0  0  0  0  0
   37.4200   31.4180   40.3720 P   0  0  2  0  0  0  0  0  0  0  0  0
   35.8850   31.3920   41.0490 O   0  0  0  0  0  0  0  0  0  0  0  0
   35.6430   32.2880   41.4040 H   0  0  0  0  0  0  0  0  0  0  0  0
   37.4830   30.4950   38.9820 O   0  0  0  0  0  0  0  0  0  0  0  0
   36.4730   29.6500   38.5640 C   0  0  0  0  0  0  0  0  0  0  0  0
   35.8410   28.9610   39.4110 O   0  0  0  0  0  0  0  0  0  0  0  0
   36.1620   29.5710   37.1850 N   0  0  0  0  0  0  0  0  0  0  0  0
   35.3280   30.2200   37.2030 H   0  0  0  0  0  0  0  0  0  0  0  0
   36.2810   29.2500   36.1990 H   0  0  0  0  0  0  0  0  0  0  0  0
  1  6  1  0  0  0  0
  2  3  1  0  0  0  0
  2 10  1  0  0  0  0
  3  8  1  0  0  0  0
  4  9  1  0  0  0  0
  4  3  2  0  0  0  0
  5  4  1  0  0  0  0
  6  5  2  0  0  0  0
  6  7  1  0  0  0  0
  7  2  2  0  0  0  0
 11 10  1  0  0  0  0
 13 12  2  6  0  0  0
 13 14  1  0  0  0  0
 13  1  1  0  0  0  0
 14 15  1  0  0  0  0
 16 13  1  0  0  0  0
 17 16  1  0  0  0  0
 17 18  2  0  0  0  0
 19 20  1  0  0  0  0
 19 17  1  0  0  0  0
 21 19  1  0  0  0  0
M  END
>  <minimizedAffinity>
-4.31834126

$$$$

 OpenBabel03252500233D

 21 21  0  0  0  0  0  0  0  0999 V2000
   39.5570   30.8940   38.5000 O   0  0  0  0  0  0  0  0  0  0  0  0
   41.8790   33.4730   37.6550 C   0  0  0  0  0  0  0  0  0  0  0  0
   42.0960   34.1580   38.8690 C   0  0  0  0  0  0  0  0  0  0  0  0
   41.3950   33.6790   39.9910 C   0  0  0  0  0  0  0  0  0  0  0  0
   40.5760   32.6190   39.8530 N   0  0  0  0  0  0  0  0  0  0  0  0
   40.4020   31.9940   38.6640 C   0  0  0  0  0  0  0  0  0  0  0  0
   41.0590   32.4320   37.5770 N   0  0  0  0  0  0  0  0  0  0  0  0
   42.7610   34.9900   38.8950 H   0  0  0  0  0  0  0  0  0  0  0  0
   41.5370   34.1830   40.9440 H   0  0  0  0  0  0  0  0  0  0  0  0
   42.5660   33.9440   36.5590 O   0  0  0  0  0  0  0  0  0  0  0  0
   42.2550   33.6550   35.6410 H   0  0  0  0  0  0  0  0  0  0  0  0
   37.1510   30.1050   38.0180 O   0  0  0  0  0  0  0  0  0  0  0  0
   37.9410   30.8820   39.0670 P   0  0  2  0  0  0  0  0  0  0  0  0
   37.2850   32.4230   39.1770 O   0  0  0  0  0  0  0  0  0  0  0  0
   36.8050   32.6610   38.3390 H   0  0  0  0  0  0  0  0  0  0  0  0
   37.7960   30.0590   40.5120 O   0  0  0  0  0  0  0  0  0  0  0  0
   36.5910   29.7720   41.1250 C   0  0  0  0  0  0  0  0  0  0  0  0
   36.3370   28.5890   41.4860 O   0  0  0  0  0  0  0  0  0  0  0  0
   35.6580   30.8140   41.3400 N   0  0  0  0  0  0  0  0  0  0  0  0
   35.8940   30.9920   42.3550 H   0  0  0  0  0  0  0  0  0  0  0  0
   34.8990   31.4810   41.0790 H   0  0  0  0  0  0  0  0  0  0  0  0
  1  6  1  0  0  0  0
  1 13  1  0  0  0  0
  2  3  1  0  0  0  0
  3  8  1  0  0  0  0
  3  4  2  0  0  0  0
  4  9  1  0  0  0  0
  5  4  1  0  0  0  0
  6  5  2  0  0  0  0
  7  2  2  0  0  0  0
  7  6  1  0  0  0  0
 10  2  1  0  0  0  0
 11 10  1  0  0  0  0
 13 12  2  6  0  0  0
 13 14  1  0  0  0  0
 13 16  1  0  0  0  0
 15 14  1  0  0  0  0
 16 17  1  0  0  0  0
 17 19  1  0  0  0  0
 17 18  2  0  0  0  0
 19 20  1  0  0  0  0
 21 19  1  0  0  0  0
M  END
>  <minimizedAffinity>
-4.30461454

$$$$

 OpenBabel03252500233D

 21 21  0  0  0  0  0  0  0  0999 V2000
   39.1700   30.2770   38.8860 O   0  0  0  0  0  0  0  0  0  0  0  0
   37.4050   29.1770   41.7890 C   0  0  0  0  0  0  0  0  0  0  0  0
   38.2570   29.5130   42.8620 C   0  0  0  0  0  0  0  0  0  0  0  0
   39.4710   30.1380   42.5250 C   0  0  0  0  0  0  0  0  0  0  0  0
   39.7510   30.3780   41.2290 N   0  0  0  0  0  0  0  0  0  0  0  0
   38.8990   30.0360   40.2340 C   0  0  0  0  0  0  0  0  0  0  0  0
   37.7330   29.4380   40.5290 N   0  0  0  0  0  0  0  0  0  0  0  0
   37.9620   29.2880   43.8620 H   0  0  0  0  0  0  0  0  0  0  0  0
   40.1540   30.4110   43.3260 H   0  0  0  0  0  0  0  0  0  0  0  0
   36.2180   28.5650   42.1220 O   0  0  0  0  0  0  0  0  0  0  0  0
   35.7060   28.0880   41.3930 H   0  0  0  0  0  0  0  0  0  0  0  0
   37.3850   31.2920   37.3270 O   0  0  0  0  0  0  0  0  0  0  0  0
   38.6490   31.6960   38.0810 P   0  0  2  0  0  0  0  0  0  0  0  0
   39.7680   32.2510   36.9610 O   0  0  0  0  0  0  0  0  0  0  0  0
   39.5750   31.8790   36.0590 H   0  0  0  0  0  0  0  0  0  0  0  0
   38.2240   32.8990   39.1580 O   0  0  0  0  0  0  0  0  0  0  0  0
   39.1240   33.5870   39.9490 C   0  0  0  0  0  0  0  0  0  0  0  0
   40.1320   34.1350   39.4220 O   0  0  0  0  0  0  0  0  0  0  0  0
   38.9020   33.6640   41.3450 N   0  0  0  0  0  0  0  0  0  0  0  0
   38.4740   34.6310   41.3540 H   0  0  0  0  0  0  0  0  0  0  0  0
   38.9180   33.3260   42.3320 H   0  0  0  0  0  0  0  0  0  0  0  0
  1  6  1  0  0  0  0
  2 10  1  0  0  0  0
  2  3  1  0  0  0  0
  3  8  1  0  0  0  0
  4  3  2  0  0  0  0
  4  9  1  0  0  0  0
  5  4  1  0  0  0  0
  6  7  1  0  0  0  0
  6  5  2  0  0  0  0
  7  2  2  0  0  0  0
 11 10  1  0  0  0  0
 13 12  2  6  0  0  0
 13  1  1  0  0  0  0
 13 16  1  0  0  0  0
 14 13  1  0  0  0  0
 15 14  1  0  0  0  0
 16 17  1  0  0  0  0
 17 19  1  0  0  0  0
 18 17  2  0  0  0  0
 19 20  1  0  0  0  0
 19 21  1  0  0  0  0
M  END
>  <minimizedAffinity>
-4.27417231

$$$$
