
 OpenBabel03252507093D

 32 33  0  0  1  0  0  0  0  0999 V2000
   44.5120   35.7300   44.8690 C   0  0  0  0  0  0  0  0  0  0  0  0
   45.0360   35.9460   43.5760 C   0  0  0  0  0  0  0  0  0  0  0  0
   46.0400   35.0810   43.1560 C   0  0  0  0  0  0  0  0  0  0  0  0
   46.4620   34.1010   43.9740 N   0  0  0  0  0  0  0  0  0  0  0  0
   45.9530   33.9130   45.1950 C   0  0  0  0  0  0  0  0  0  0  0  0
   44.9700   34.7360   45.6440 N   0  0  0  0  0  0  0  0  0  0  0  0
   43.7250   36.3820   45.2390 H   0  0  0  0  0  0  0  0  0  0  0  0
   44.6150   36.7690   43.0110 H   0  0  0  0  0  0  0  0  0  0  0  0
   45.3880   32.5240   47.2090 C   0  0  1  0  0  0  0  0  0  0  0  0
   46.3810   32.8650   46.1380 C   0  0  1  0  0  0  0  0  0  0  0  0
   46.4350   31.5060   45.4180 C   0  0  0  0  0  0  0  0  0  0  0  0
   46.1620   30.5470   46.3410 O   0  0  0  0  0  0  0  0  0  0  0  0
   45.9320   31.1440   47.5820 C   0  0  0  0  0  0  0  0  0  0  0  0
   44.3720   32.3400   46.7720 H   0  0  0  0  0  0  0  0  0  0  0  0
   47.3550   33.1070   46.5760 H   0  0  0  0  0  0  0  0  0  0  0  0
   45.8650   31.5000   44.4920 H   0  0  0  0  0  0  0  0  0  0  0  0
   47.5140   31.3880   45.1240 H   0  0  0  0  0  0  0  0  0  0  0  0
   46.8600   31.3070   48.1530 H   0  0  0  0  0  0  0  0  0  0  0  0
   45.1680   30.5400   48.1150 H   0  0  0  0  0  0  0  0  0  0  0  0
   45.3390   33.4100   48.2450 O   0  0  0  0  0  0  0  0  0  0  0  0
   44.4180   33.6640   48.4750 H   0  0  0  0  0  0  0  0  0  0  0  0
   46.5440   35.3060   41.8830 O   0  0  0  0  0  0  0  0  0  0  0  0
   47.3680   33.0340   40.7680 O   0  0  0  0  0  0  0  0  0  0  0  0
   47.8690   34.3670   41.3100 P   0  0  1  0  0  0  0  0  0  0  0  0
   48.6570   35.2440   40.1360 O   0  0  0  0  0  0  0  0  0  0  0  0
   48.9640   36.0880   40.5040 H   0  0  0  0  0  0  0  0  0  0  0  0
   48.8590   34.0770   42.6470 O   0  0  0  0  0  0  0  0  0  0  0  0
   49.8720   33.1310   42.6380 C   0  0  0  0  0  0  0  0  0  0  0  0
   49.5960   31.9200   42.7360 O   0  0  0  0  0  0  0  0  0  0  0  0
   51.2330   33.5590   42.5150 N   0  0  0  0  0  0  0  0  0  0  0  0
   51.4660   34.5750   42.5640 H   0  0  0  0  0  0  0  0  0  0  0  0
   51.9900   32.8520   42.3770 H   0  0  0  0  0  0  0  0  0  0  0  0
  1  7  1  0  0  0  0
  1  6  1  0  0  0  0
  2  1  2  0  0  0  0
  3  2  1  0  0  0  0
  3  4  2  0  0  0  0
  4  5  1  0  0  0  0
  5  6  2  0  0  0  0
  5 10  1  0  0  0  0
  8  2  1  0  0  0  0
  9 14  1  6  0  0  0
  9 13  1  0  0  0  0
  9 20  1  0  0  0  0
 10 15  1  1  0  0  0
 10  9  1  0  0  0  0
 11 10  1  0  0  0  0
 11 12  1  0  0  0  0
 12 13  1  0  0  0  0
 13 19  1  0  0  0  0
 13 18  1  0  0  0  0
 16 11  1  0  0  0  0
 17 11  1  0  0  0  0
 20 21  1  0  0  0  0
 22  3  1  0  0  0  0
 24 23  2  6  0  0  0
 24 22  1  0  0  0  0
 24 27  1  0  0  0  0
 25 26  1  0  0  0  0
 25 24  1  0  0  0  0
 28 27  1  0  0  0  0
 28 29  2  0  0  0  0
 30 31  1  0  0  0  0
 30 28  1  0  0  0  0
 32 30  1  0  0  0  0
M  END
>  <minimizedAffinity>
-5.77639866

>  <minimizedRMSD>
0.903003335

$$$$
