
 OpenBabel03242523553D

 41 43  0  0  1  0  0  0  0  0999 V2000
   42.8160   34.5360   38.7380 C   0  0  1  0  0  0  0  0  0  0  0  0
   42.9510   35.1790   40.1100 C   0  0  1  0  0  0  0  0  0  0  0  0
   41.6580   35.3830   40.6290 O   0  0  0  0  0  0  0  0  0  0  0  0
   40.7270   35.7310   39.6400 C   0  0  0  0  0  0  0  0  0  0  0  0
   40.4360   34.5710   38.7130 C   0  0  2  0  0  0  0  0  0  0  0  0
   41.6560   33.6010   38.8340 C   0  0  1  0  0  0  0  0  0  0  0  0
   43.7610   34.0090   38.4890 H   0  0  0  0  0  0  0  0  0  0  0  0
   43.5150   36.1260   40.0880 H   0  0  0  0  0  0  0  0  0  0  0  0
   41.0250   36.6430   39.0980 H   0  0  0  0  0  0  0  0  0  0  0  0
   39.8030   35.9570   40.1770 H   0  0  0  0  0  0  0  0  0  0  0  0
   39.5120   34.0290   38.9800 H   0  0  0  0  0  0  0  0  0  0  0  0
   41.4450   33.3010   39.9140 H   0  0  0  0  0  0  0  0  0  0  0  0
   42.5930   35.5090   37.7490 O   0  0  0  0  0  0  0  0  0  0  0  0
   43.1500   36.3130   37.9770 H   0  0  0  0  0  0  0  0  0  0  0  0
   40.4490   35.0010   37.3960 O   0  0  0  0  0  0  0  0  0  0  0  0
   40.5130   34.2740   36.7460 H   0  0  0  0  0  0  0  0  0  0  0  0
   43.4960   34.1850   40.9350 O   0  0  0  0  0  0  0  0  0  0  0  0
   44.5960   34.3260   41.6820 C   0  0  0  0  0  0  0  0  0  0  0  0
   45.8590   34.4330   41.0930 C   0  0  0  0  0  0  0  0  0  0  0  0
   46.9720   34.5800   41.8990 C   0  0  0  0  0  0  0  0  0  0  0  0
   46.8010   34.6160   43.2740 N   0  0  0  0  0  0  0  0  0  0  0  0
   45.5660   34.5080   43.8120 C   0  0  0  0  0  0  0  0  0  0  0  0
   44.4730   34.3640   43.0190 N   0  0  0  0  0  0  0  0  0  0  0  0
   45.9590   34.4020   40.0290 H   0  0  0  0  0  0  0  0  0  0  0  0
   45.4380   34.5360   44.8770 H   0  0  0  0  0  0  0  0  0  0  0  0
   48.3540   34.6800   41.3360 C   0  0  0  0  0  0  0  0  0  0  0  0
   49.0690   36.0180   41.5090 C   0  0  0  0  0  0  0  0  0  0  0  0
   49.4990   34.7030   42.1910 C   0  0  0  0  0  0  0  0  0  0  0  0
   48.4120   34.2360   40.3090 H   0  0  0  0  0  0  0  0  0  0  0  0
   49.7150   36.3020   40.6740 H   0  0  0  0  0  0  0  0  0  0  0  0
   48.5140   36.7630   42.0960 H   0  0  0  0  0  0  0  0  0  0  0  0
   50.4780   34.2910   41.9280 H   0  0  0  0  0  0  0  0  0  0  0  0
   49.3460   34.7450   43.2980 H   0  0  0  0  0  0  0  0  0  0  0  0
   41.5350   32.6670   37.8700 O   0  0  0  0  0  0  0  0  0  0  0  0
   40.8920   31.5020   37.8330 C   0  0  0  0  0  0  0  0  0  0  0  0
   39.5930   31.4130   37.5650 O   0  0  0  0  0  0  0  0  0  0  0  0
   41.5710   28.0710   37.3940 H   0  0  0  0  0  0  0  0  0  0  0  0
   41.2180   29.0530   37.1110 C   0  0  0  0  0  0  0  0  0  0  0  0
   40.7170   29.2990   35.9860 O   0  0  0  0  0  0  0  0  0  0  0  0
   41.3160   30.1150   38.0350 N   0  0  0  0  0  0  0  0  0  0  0  0
   41.7330   29.8730   38.9480 H   0  0  0  0  0  0  0  0  0  0  0  0
  1  7  1  6  0  0  0
  1  6  1  0  0  0  0
  1  2  1  0  0  0  0
  2  8  1  6  0  0  0
  2  3  1  0  0  0  0
  2 17  1  0  0  0  0
  4 10  1  0  0  0  0
  4  3  1  0  0  0  0
  5  6  1  0  0  0  0
  5 11  1  1  0  0  0
  5  4  1  0  0  0  0
  6 12  1  1  0  0  0
  9  4  1  0  0  0  0
 13 14  1  0  0  0  0
 13  1  1  0  0  0  0
 15  5  1  0  0  0  0
 16 15  1  0  0  0  0
 17 18  1  0  0  0  0
 18 23  1  0  0  0  0
 19 18  2  0  0  0  0
 19 20  1  0  0  0  0
 20 21  2  0  0  0  0
 21 22  1  0  0  0  0
 22 25  1  0  0  0  0
 23 22  2  0  0  0  0
 24 19  1  0  0  0  0
 26 27  1  0  0  0  0
 26 20  1  0  0  0  0
 26 28  1  0  0  0  0
 27 31  1  0  0  0  0
 27 28  1  0  0  0  0
 28 33  1  0  0  0  0
 29 26  1  0  0  0  0
 30 27  1  0  0  0  0
 32 28  1  0  0  0  0
 34  6  1  0  0  0  0
 35 34  1  0  0  0  0
 35 40  1  0  0  0  0
 36 35  2  0  0  0  0
 38 37  1  0  0  0  0
 38 40  1  0  0  0  0
 39 38  2  0  0  0  0
 40 41  1  0  0  0  0
M  END
>  <minimizedAffinity>
-5.84394789

>  <minimizedRMSD>
0.12042363

$$$$
