
 OpenBabel03242517013D

 28 27  0  0  0  0  0  0  0  0999 V2000
   46.6480   34.7680   41.9980 C   0  0  0  0  0  0  0  0  0  0  0  0
   47.9100   35.3220   41.9070 C   0  0  0  0  0  0  0  0  0  0  0  0
   48.6370   35.1440   40.7360 C   0  0  0  0  0  0  0  0  0  0  0  0
   48.1030   34.4320   39.7020 C   0  0  0  0  0  0  0  0  0  0  0  0
   46.8650   33.8680   39.7460 C   0  0  0  0  0  0  0  0  0  0  0  0
   46.1650   34.0690   40.9400 C   0  0  0  0  0  0  0  0  0  0  0  0
   48.3230   35.8900   42.7460 H   0  0  0  0  0  0  0  0  0  0  0  0
   49.6160   35.5980   40.7200 H   0  0  0  0  0  0  0  0  0  0  0  0
   48.7300   34.3360   38.8240 H   0  0  0  0  0  0  0  0  0  0  0  0
   46.4380   33.3030   38.9290 H   0  0  0  0  0  0  0  0  0  0  0  0
   44.5030   36.1480   44.7650 C   0  0  0  0  0  0  0  0  0  0  0  0
   45.1520   36.0750   43.5020 C   0  0  0  0  0  0  0  0  0  0  0  0
   45.9280   34.9770   43.2400 C   0  0  0  0  0  0  0  0  0  0  0  0
   46.0380   34.0110   44.2100 N   0  0  0  0  0  0  0  0  0  0  0  0
   45.4180   34.0920   45.4030 C   0  0  0  0  0  0  0  0  0  0  0  0
   44.6400   35.1770   45.6860 N   0  0  0  0  0  0  0  0  0  0  0  0
   43.8930   37.0010   44.9810 H   0  0  0  0  0  0  0  0  0  0  0  0
   45.0540   36.8330   42.7670 H   0  0  0  0  0  0  0  0  0  0  0  0
   45.5950   33.2640   46.0610 H   0  0  0  0  0  0  0  0  0  0  0  0
   43.5270   33.8950   40.8230 C   0  0  0  0  0  0  0  0  0  0  0  0
   43.2160   34.9790   40.2660 O   0  0  0  0  0  0  0  0  0  0  0  0
   44.8620   33.5370   41.1180 N   0  0  0  0  0  0  0  0  0  0  0  0
   44.8250   32.6180   41.6030 H   0  0  0  0  0  0  0  0  0  0  0  0
   40.3070   32.8360   41.4070 H   0  0  0  0  0  0  0  0  0  0  0  0
   41.1160   33.5370   41.1470 C   0  0  0  0  0  0  0  0  0  0  0  0
   40.8520   34.7200   40.8610 O   0  0  0  0  0  0  0  0  0  0  0  0
   42.4360   32.9900   41.1640 N   0  0  0  0  0  0  0  0  0  0  0  0
   42.3850   33.9820   40.9090 H   0  0  0  0  0  0  0  0  0  0  0  0
  1 13  1  0  0  0  0
  2  1  1  0  0  0  0
  2  7  1  0  0  0  0
  3  2  2  0  0  0  0
  4  5  2  0  0  0  0
  4  3  1  0  0  0  0
  5  6  1  0  0  0  0
  6 22  1  0  0  0  0
  6  1  2  0  0  0  0
  8  3  1  0  0  0  0
  9  4  1  0  0  0  0
 10  5  1  0  0  0  0
 11 17  1  0  0  0  0
 11 16  1  0  0  0  0
 12 11  2  0  0  0  0
 13 12  1  0  0  0  0
 13 14  2  0  0  0  0
 14 15  1  0  0  0  0
 15 16  2  0  0  0  0
 15 19  1  0  0  0  0
 18 12  1  0  0  0  0
 20 22  1  0  0  0  0
 21 20  2  0  0  0  0
 22 23  1  0  0  0  0
 25 24  1  0  0  0  0
 26 25  2  0  0  0  0
 28 27  1  0  0  0  0
M  END
>  <minimizedAffinity>
-5.92505455

>  <minimizedRMSD>
0.0763608143

$$$$
