
 OpenBabel03242523553D

 41 43  0  0  1  0  0  0  0  0999 V2000
   42.8180   34.5380   38.7400 C   0  0  1  0  0  0  0  0  0  0  0  0
   42.9510   35.1810   40.1120 C   0  0  1  0  0  0  0  0  0  0  0  0
   41.6580   35.3850   40.6300 O   0  0  0  0  0  0  0  0  0  0  0  0
   40.7280   35.7320   39.6400 C   0  0  0  0  0  0  0  0  0  0  0  0
   40.4380   34.5710   38.7130 C   0  0  2  0  0  0  0  0  0  0  0  0
   41.6580   33.6020   38.8360 C   0  0  1  0  0  0  0  0  0  0  0  0
   43.7630   34.0110   38.4920 H   0  0  0  0  0  0  0  0  0  0  0  0
   43.5150   36.1280   40.0900 H   0  0  0  0  0  0  0  0  0  0  0  0
   41.0260   36.6440   39.0980 H   0  0  0  0  0  0  0  0  0  0  0  0
   39.8030   35.9580   40.1760 H   0  0  0  0  0  0  0  0  0  0  0  0
   39.5140   34.0290   38.9790 H   0  0  0  0  0  0  0  0  0  0  0  0
   41.4470   33.3020   39.9160 H   0  0  0  0  0  0  0  0  0  0  0  0
   42.5950   35.5100   37.7510 O   0  0  0  0  0  0  0  0  0  0  0  0
   43.1520   36.3140   37.9790 H   0  0  0  0  0  0  0  0  0  0  0  0
   40.4510   35.0010   37.3970 O   0  0  0  0  0  0  0  0  0  0  0  0
   40.5160   34.2740   36.7460 H   0  0  0  0  0  0  0  0  0  0  0  0
   43.4960   34.1870   40.9380 O   0  0  0  0  0  0  0  0  0  0  0  0
   44.5970   34.3280   41.6840 C   0  0  0  0  0  0  0  0  0  0  0  0
   45.8590   34.4350   41.0950 C   0  0  0  0  0  0  0  0  0  0  0  0
   46.9730   34.5820   41.9000 C   0  0  0  0  0  0  0  0  0  0  0  0
   46.8030   34.6180   43.2750 N   0  0  0  0  0  0  0  0  0  0  0  0
   45.5680   34.5110   43.8140 C   0  0  0  0  0  0  0  0  0  0  0  0
   44.4740   34.3670   43.0220 N   0  0  0  0  0  0  0  0  0  0  0  0
   45.9580   34.4040   40.0310 H   0  0  0  0  0  0  0  0  0  0  0  0
   45.4410   34.5380   44.8780 H   0  0  0  0  0  0  0  0  0  0  0  0
   48.3550   34.6820   41.3360 C   0  0  0  0  0  0  0  0  0  0  0  0
   49.0710   36.0190   41.5110 C   0  0  0  0  0  0  0  0  0  0  0  0
   49.5000   34.7020   42.1890 C   0  0  0  0  0  0  0  0  0  0  0  0
   48.4110   34.2410   40.3070 H   0  0  0  0  0  0  0  0  0  0  0  0
   49.7160   36.3040   40.6760 H   0  0  0  0  0  0  0  0  0  0  0  0
   48.5180   36.7640   42.1000 H   0  0  0  0  0  0  0  0  0  0  0  0
   50.4780   34.2900   41.9240 H   0  0  0  0  0  0  0  0  0  0  0  0
   49.3490   34.7420   43.2960 H   0  0  0  0  0  0  0  0  0  0  0  0
   41.5380   32.6670   37.8710 O   0  0  0  0  0  0  0  0  0  0  0  0
   40.8930   31.5030   37.8340 C   0  0  0  0  0  0  0  0  0  0  0  0
   39.5980   31.4160   37.5500 O   0  0  0  0  0  0  0  0  0  0  0  0
   41.3490   28.0210   37.5420 H   0  0  0  0  0  0  0  0  0  0  0  0
   40.9680   28.9940   37.2670 C   0  0  0  0  0  0  0  0  0  0  0  0
   40.2250   29.1780   36.2710 O   0  0  0  0  0  0  0  0  0  0  0  0
   41.3120   30.1170   38.0490 N   0  0  0  0  0  0  0  0  0  0  0  0
   41.9230   29.9240   38.8580 H   0  0  0  0  0  0  0  0  0  0  0  0
  1  7  1  6  0  0  0
  1  6  1  0  0  0  0
  1  2  1  0  0  0  0
  2  8  1  6  0  0  0
  2  3  1  0  0  0  0
  2 17  1  0  0  0  0
  4 10  1  0  0  0  0
  4  3  1  0  0  0  0
  5  6  1  0  0  0  0
  5 11  1  1  0  0  0
  5  4  1  0  0  0  0
  6 12  1  1  0  0  0
  9  4  1  0  0  0  0
 13 14  1  0  0  0  0
 13  1  1  0  0  0  0
 15  5  1  0  0  0  0
 16 15  1  0  0  0  0
 17 18  1  0  0  0  0
 18 23  1  0  0  0  0
 19 18  2  0  0  0  0
 19 20  1  0  0  0  0
 20 21  2  0  0  0  0
 21 22  1  0  0  0  0
 22 25  1  0  0  0  0
 23 22  2  0  0  0  0
 24 19  1  0  0  0  0
 26 27  1  0  0  0  0
 26 20  1  0  0  0  0
 26 28  1  0  0  0  0
 27 31  1  0  0  0  0
 27 28  1  0  0  0  0
 28 33  1  0  0  0  0
 29 26  1  0  0  0  0
 30 27  1  0  0  0  0
 32 28  1  0  0  0  0
 34  6  1  0  0  0  0
 35 34  1  0  0  0  0
 35 40  1  0  0  0  0
 36 35  2  0  0  0  0
 38 37  1  0  0  0  0
 38 40  1  0  0  0  0
 39 38  2  0  0  0  0
 40 41  1  0  0  0  0
M  END
>  <minimizedAffinity>
-5.82895136

>  <minimizedRMSD>
0.113699846

$$$$
