
 OpenBabel03242523553D

 41 43  0  0  1  0  0  0  0  0999 V2000
   42.7940   34.4530   38.8220 C   0  0  1  0  0  0  0  0  0  0  0  0
   42.9540   35.1840   40.1460 C   0  0  1  0  0  0  0  0  0  0  0  0
   41.6700   35.4770   40.6450 O   0  0  0  0  0  0  0  0  0  0  0  0
   40.7550   35.7910   39.6310 C   0  0  0  0  0  0  0  0  0  0  0  0
   40.4170   34.5810   38.7870 C   0  0  2  0  0  0  0  0  0  0  0  0
   41.5970   33.5750   38.9800 C   0  0  1  0  0  0  0  0  0  0  0  0
   43.7170   33.8720   38.6130 H   0  0  0  0  0  0  0  0  0  0  0  0
   43.5560   36.1040   40.0590 H   0  0  0  0  0  0  0  0  0  0  0  0
   41.0890   36.6500   39.0270 H   0  0  0  0  0  0  0  0  0  0  0  0
   39.8400   36.0910   40.1480 H   0  0  0  0  0  0  0  0  0  0  0  0
   39.4720   34.0970   39.0880 H   0  0  0  0  0  0  0  0  0  0  0  0
   41.3740   33.3600   40.0780 H   0  0  0  0  0  0  0  0  0  0  0  0
   42.6100   35.3620   37.7660 O   0  0  0  0  0  0  0  0  0  0  0  0
   43.2000   36.1570   37.9390 H   0  0  0  0  0  0  0  0  0  0  0  0
   40.4470   34.9170   37.4440 O   0  0  0  0  0  0  0  0  0  0  0  0
   40.4830   34.1440   36.8460 H   0  0  0  0  0  0  0  0  0  0  0  0
   43.4580   34.2290   41.0400 O   0  0  0  0  0  0  0  0  0  0  0  0
   44.5780   34.3670   41.7580 C   0  0  0  0  0  0  0  0  0  0  0  0
   45.8260   34.4650   41.1380 C   0  0  0  0  0  0  0  0  0  0  0  0
   46.9600   34.6080   41.9150 C   0  0  0  0  0  0  0  0  0  0  0  0
   46.8240   34.6500   43.2940 N   0  0  0  0  0  0  0  0  0  0  0  0
   45.6020   34.5520   43.8630 C   0  0  0  0  0  0  0  0  0  0  0  0
   44.4890   34.4110   43.0990 N   0  0  0  0  0  0  0  0  0  0  0  0
   45.8980   34.4290   40.0720 H   0  0  0  0  0  0  0  0  0  0  0  0
   45.5020   34.5840   44.9300 H   0  0  0  0  0  0  0  0  0  0  0  0
   48.3280   34.6990   41.3170 C   0  0  0  0  0  0  0  0  0  0  0  0
   49.0710   36.0200   41.5020 C   0  0  0  0  0  0  0  0  0  0  0  0
   49.4950   34.6810   42.1400 C   0  0  0  0  0  0  0  0  0  0  0  0
   48.3500   34.2790   40.2770 H   0  0  0  0  0  0  0  0  0  0  0  0
   49.6990   36.3130   40.6560 H   0  0  0  0  0  0  0  0  0  0  0  0
   48.5460   36.7590   42.1210 H   0  0  0  0  0  0  0  0  0  0  0  0
   50.4590   34.2590   41.8400 H   0  0  0  0  0  0  0  0  0  0  0  0
   49.3740   34.6990   43.2510 H   0  0  0  0  0  0  0  0  0  0  0  0
   41.4390   32.5800   38.0830 O   0  0  0  0  0  0  0  0  0  0  0  0
   40.6780   31.4870   38.0890 C   0  0  0  0  0  0  0  0  0  0  0  0
   39.5160   31.4250   37.4480 O   0  0  0  0  0  0  0  0  0  0  0  0
   41.0720   28.8470   40.3900 H   0  0  0  0  0  0  0  0  0  0  0  0
   40.9690   29.8750   40.0740 C   0  0  0  0  0  0  0  0  0  0  0  0
   40.9710   30.8380   40.8800 O   0  0  0  0  0  0  0  0  0  0  0  0
   40.8270   30.1650   38.7000 N   0  0  0  0  0  0  0  0  0  0  0  0
   40.8300   29.3470   38.0710 H   0  0  0  0  0  0  0  0  0  0  0  0
  1  7  1  6  0  0  0
  1  6  1  0  0  0  0
  1  2  1  0  0  0  0
  2  8  1  6  0  0  0
  2  3  1  0  0  0  0
  2 17  1  0  0  0  0
  4 10  1  0  0  0  0
  4  3  1  0  0  0  0
  5  6  1  0  0  0  0
  5 11  1  1  0  0  0
  5  4  1  0  0  0  0
  6 12  1  1  0  0  0
  9  4  1  0  0  0  0
 13 14  1  0  0  0  0
 13  1  1  0  0  0  0
 15  5  1  0  0  0  0
 16 15  1  0  0  0  0
 17 18  1  0  0  0  0
 18 23  1  0  0  0  0
 19 18  2  0  0  0  0
 19 20  1  0  0  0  0
 20 21  2  0  0  0  0
 21 22  1  0  0  0  0
 22 25  1  0  0  0  0
 23 22  2  0  0  0  0
 24 19  1  0  0  0  0
 26 27  1  0  0  0  0
 26 20  1  0  0  0  0
 26 28  1  0  0  0  0
 27 31  1  0  0  0  0
 27 28  1  0  0  0  0
 28 33  1  0  0  0  0
 29 26  1  0  0  0  0
 30 27  1  0  0  0  0
 32 28  1  0  0  0  0
 34 35  1  0  0  0  0
 34  6  1  0  0  0  0
 35 40  1  0  0  0  0
 36 35  2  0  0  0  0
 38 37  1  0  0  0  0
 38 39  2  0  0  0  0
 40 38  1  0  0  0  0
 41 40  1  0  0  0  0
M  END
>  <minimizedAffinity>
-5.88611269

>  <minimizedRMSD>
0.407664418

$$$$
