
 OpenBabel03242523553D

 41 43  0  0  1  0  0  0  0  0999 V2000
   42.8150   34.5160   38.7470 C   0  0  1  0  0  0  0  0  0  0  0  0
   42.9540   35.1740   40.1110 C   0  0  1  0  0  0  0  0  0  0  0  0
   41.6630   35.3910   40.6300 O   0  0  0  0  0  0  0  0  0  0  0  0
   40.7330   35.7310   39.6380 C   0  0  0  0  0  0  0  0  0  0  0  0
   40.4350   34.5610   38.7240 C   0  0  2  0  0  0  0  0  0  0  0  0
   41.6510   33.5880   38.8560 C   0  0  1  0  0  0  0  0  0  0  0  0
   43.7570   33.9820   38.5030 H   0  0  0  0  0  0  0  0  0  0  0  0
   43.5230   36.1180   40.0780 H   0  0  0  0  0  0  0  0  0  0  0  0
   41.0340   36.6360   39.0840 H   0  0  0  0  0  0  0  0  0  0  0  0
   39.8100   35.9680   40.1730 H   0  0  0  0  0  0  0  0  0  0  0  0
   39.5090   34.0270   38.9980 H   0  0  0  0  0  0  0  0  0  0  0  0
   41.4400   33.3010   39.9390 H   0  0  0  0  0  0  0  0  0  0  0  0
   42.5950   35.4790   37.7470 O   0  0  0  0  0  0  0  0  0  0  0  0
   43.1570   36.2830   37.9660 H   0  0  0  0  0  0  0  0  0  0  0  0
   40.4480   34.9760   37.4030 O   0  0  0  0  0  0  0  0  0  0  0  0
   40.5090   34.2420   36.7610 H   0  0  0  0  0  0  0  0  0  0  0  0
   43.4960   34.1870   40.9480 O   0  0  0  0  0  0  0  0  0  0  0  0
   44.5980   34.3320   41.6910 C   0  0  0  0  0  0  0  0  0  0  0  0
   45.8590   34.4370   41.0980 C   0  0  0  0  0  0  0  0  0  0  0  0
   46.9740   34.5870   41.9000 C   0  0  0  0  0  0  0  0  0  0  0  0
   46.8080   34.6280   43.2760 N   0  0  0  0  0  0  0  0  0  0  0  0
   45.5740   34.5220   43.8170 C   0  0  0  0  0  0  0  0  0  0  0  0
   44.4790   34.3750   43.0290 N   0  0  0  0  0  0  0  0  0  0  0  0
   45.9550   34.4020   40.0340 H   0  0  0  0  0  0  0  0  0  0  0  0
   45.4500   34.5540   44.8820 H   0  0  0  0  0  0  0  0  0  0  0  0
   48.3550   34.6860   41.3330 C   0  0  0  0  0  0  0  0  0  0  0  0
   49.0740   36.0220   41.5080 C   0  0  0  0  0  0  0  0  0  0  0  0
   49.5020   34.7030   42.1830 C   0  0  0  0  0  0  0  0  0  0  0  0
   48.4080   34.2460   40.3030 H   0  0  0  0  0  0  0  0  0  0  0  0
   49.7170   36.3070   40.6710 H   0  0  0  0  0  0  0  0  0  0  0  0
   48.5230   36.7660   42.0990 H   0  0  0  0  0  0  0  0  0  0  0  0
   50.4790   34.2890   41.9150 H   0  0  0  0  0  0  0  0  0  0  0  0
   49.3540   34.7410   43.2900 H   0  0  0  0  0  0  0  0  0  0  0  0
   41.5240   32.6430   37.9020 O   0  0  0  0  0  0  0  0  0  0  0  0
   40.8710   31.4830   37.8780 C   0  0  0  0  0  0  0  0  0  0  0  0
   39.6010   31.3890   37.4980 O   0  0  0  0  0  0  0  0  0  0  0  0
   41.1090   27.9690   37.9750 H   0  0  0  0  0  0  0  0  0  0  0  0
   40.7320   28.9250   37.6400 C   0  0  0  0  0  0  0  0  0  0  0  0
   39.8400   29.0360   36.7640 O   0  0  0  0  0  0  0  0  0  0  0  0
   41.2560   30.1080   38.2020 N   0  0  0  0  0  0  0  0  0  0  0  0
   41.9860   29.9730   38.9190 H   0  0  0  0  0  0  0  0  0  0  0  0
  1  7  1  6  0  0  0
  1  6  1  0  0  0  0
  1  2  1  0  0  0  0
  2  8  1  6  0  0  0
  2  3  1  0  0  0  0
  2 17  1  0  0  0  0
  4 10  1  0  0  0  0
  4  3  1  0  0  0  0
  5  6  1  0  0  0  0
  5 11  1  1  0  0  0
  5  4  1  0  0  0  0
  6 12  1  1  0  0  0
  9  4  1  0  0  0  0
 13 14  1  0  0  0  0
 13  1  1  0  0  0  0
 15  5  1  0  0  0  0
 16 15  1  0  0  0  0
 17 18  1  0  0  0  0
 18 23  1  0  0  0  0
 19 18  2  0  0  0  0
 19 20  1  0  0  0  0
 20 21  2  0  0  0  0
 21 22  1  0  0  0  0
 22 25  1  0  0  0  0
 23 22  2  0  0  0  0
 24 19  1  0  0  0  0
 26 27  1  0  0  0  0
 26 20  1  0  0  0  0
 26 28  1  0  0  0  0
 27 31  1  0  0  0  0
 27 28  1  0  0  0  0
 28 33  1  0  0  0  0
 29 26  1  0  0  0  0
 30 27  1  0  0  0  0
 32 28  1  0  0  0  0
 34  6  1  0  0  0  0
 35 34  1  0  0  0  0
 35 40  1  0  0  0  0
 36 35  2  0  0  0  0
 38 37  1  0  0  0  0
 38 40  1  0  0  0  0
 39 38  2  0  0  0  0
 40 41  1  0  0  0  0
M  END
>  <minimizedAffinity>
-5.82054234

>  <minimizedRMSD>
0.0799082667

$$$$
