
 OpenBabel03242518503D

 19 19  0  0  0  0  0  0  0  0999 V2000
   44.4400   35.9770   44.4530 C   0  0  0  0  0  0  0  0  0  0  0  0
   45.1550   35.8030   43.2500 C   0  0  0  0  0  0  0  0  0  0  0  0
   46.1140   34.7970   43.2220 C   0  0  0  0  0  0  0  0  0  0  0  0
   46.2870   34.0660   44.3450 N   0  0  0  0  0  0  0  0  0  0  0  0
   45.5890   34.2570   45.4810 C   0  0  0  0  0  0  0  0  0  0  0  0
   44.6520   35.2300   45.5280 N   0  0  0  0  0  0  0  0  0  0  0  0
   43.6850   36.7550   44.5080 H   0  0  0  0  0  0  0  0  0  0  0  0
   44.9300   36.4430   42.4280 H   0  0  0  0  0  0  0  0  0  0  0  0
   45.8410   33.4410   46.6630 C   0  0  0  0  0  0  0  0  0  0  0  0
   44.8960   33.1080   47.4370 O   0  0  0  0  0  0  0  0  0  0  0  0
   48.4850   31.8950   48.2920 H   0  0  0  0  0  0  0  0  0  0  0  0
   47.4530   32.2180   48.0850 C   0  0  0  0  0  0  0  0  0  0  0  0
   46.5400   31.8730   48.8710 O   0  0  0  0  0  0  0  0  0  0  0  0
   47.1810   33.0190   46.9330 N   0  0  0  0  0  0  0  0  0  0  0  0
   48.0060   33.2630   46.3280 H   0  0  0  0  0  0  0  0  0  0  0  0
   46.8280   34.6470   41.9660 C   0  0  0  0  0  0  0  0  0  0  0  0
   47.5680   33.4570   42.0030 F   0  0  0  0  0  0  0  0  0  0  0  0
   47.7910   35.6640   41.9330 F   0  0  0  0  0  0  0  0  0  0  0  0
   46.0400   34.6350   40.8700 F   0  0  0  0  0  0  0  0  0  0  0  0
  1  7  1  0  0  0  0
  1  6  1  0  0  0  0
  2  1  2  0  0  0  0
  3  2  1  0  0  0  0
  3  4  2  0  0  0  0
  4  5  1  0  0  0  0
  5  6  2  0  0  0  0
  5  9  1  0  0  0  0
  8  2  1  0  0  0  0
  9 14  1  0  0  0  0
  9 10  2  0  0  0  0
 12 11  1  0  0  0  0
 12 13  2  0  0  0  0
 14 12  1  0  0  0  0
 15 14  1  0  0  0  0
 16 17  1  0  0  0  0
 16  3  1  0  0  0  0
 18 16  1  0  0  0  0
 19 16  1  0  0  0  0
M  END
>  <minimizedAffinity>
-5.33363342

>  <minimizedRMSD>
0.514166355

$$$$
