
 OpenBabel03242523553D

 41 43  0  0  1  0  0  0  0  0999 V2000
   42.8170   34.4750   38.7870 C   0  0  1  0  0  0  0  0  0  0  0  0
   42.9610   35.1690   40.1320 C   0  0  1  0  0  0  0  0  0  0  0  0
   41.6710   35.4130   40.6420 O   0  0  0  0  0  0  0  0  0  0  0  0
   40.7460   35.7350   39.6400 C   0  0  0  0  0  0  0  0  0  0  0  0
   40.4380   34.5430   38.7590 C   0  0  2  0  0  0  0  0  0  0  0  0
   41.6440   33.5620   38.9200 C   0  0  1  0  0  0  0  0  0  0  0  0
   43.7540   33.9250   38.5590 H   0  0  0  0  0  0  0  0  0  0  0  0
   43.5390   36.1060   40.0740 H   0  0  0  0  0  0  0  0  0  0  0  0
   41.0570   36.6200   39.0620 H   0  0  0  0  0  0  0  0  0  0  0  0
   39.8240   35.9950   40.1670 H   0  0  0  0  0  0  0  0  0  0  0  0
   39.5050   34.0250   39.0460 H   0  0  0  0  0  0  0  0  0  0  0  0
   41.4280   33.3070   40.0100 H   0  0  0  0  0  0  0  0  0  0  0  0
   42.6080   35.4110   37.7600 O   0  0  0  0  0  0  0  0  0  0  0  0
   43.1770   36.2150   37.9570 H   0  0  0  0  0  0  0  0  0  0  0  0
   40.4560   34.9210   37.4270 O   0  0  0  0  0  0  0  0  0  0  0  0
   40.5100   34.1680   36.8050 H   0  0  0  0  0  0  0  0  0  0  0  0
   43.4910   34.2010   40.9970 O   0  0  0  0  0  0  0  0  0  0  0  0
   44.6020   34.3500   41.7260 C   0  0  0  0  0  0  0  0  0  0  0  0
   45.8560   34.4520   41.1190 C   0  0  0  0  0  0  0  0  0  0  0  0
   46.9800   34.6070   41.9080 C   0  0  0  0  0  0  0  0  0  0  0  0
   46.8290   34.6560   43.2850 N   0  0  0  0  0  0  0  0  0  0  0  0
   45.6020   34.5540   43.8410 C   0  0  0  0  0  0  0  0  0  0  0  0
   44.4970   34.4020   43.0650 N   0  0  0  0  0  0  0  0  0  0  0  0
   45.9410   34.4100   40.0540 H   0  0  0  0  0  0  0  0  0  0  0  0
   45.4890   34.5920   44.9070 H   0  0  0  0  0  0  0  0  0  0  0  0
   48.3550   34.7020   41.3240 C   0  0  0  0  0  0  0  0  0  0  0  0
   49.0850   36.0310   41.5040 C   0  0  0  0  0  0  0  0  0  0  0  0
   49.5120   34.7020   42.1610 C   0  0  0  0  0  0  0  0  0  0  0  0
   48.3920   34.2720   40.2900 H   0  0  0  0  0  0  0  0  0  0  0  0
   49.7200   36.3200   40.6630 H   0  0  0  0  0  0  0  0  0  0  0  0
   48.5470   36.7730   42.1100 H   0  0  0  0  0  0  0  0  0  0  0  0
   50.4830   34.2850   41.8760 H   0  0  0  0  0  0  0  0  0  0  0  0
   49.3780   34.7300   43.2700 H   0  0  0  0  0  0  0  0  0  0  0  0
   41.5090   32.5910   37.9920 O   0  0  0  0  0  0  0  0  0  0  0  0
   40.9290   31.3940   38.0330 C   0  0  0  0  0  0  0  0  0  0  0  0
   39.8340   31.1090   37.3360 O   0  0  0  0  0  0  0  0  0  0  0  0
   41.1090   28.8210   40.4360 H   0  0  0  0  0  0  0  0  0  0  0  0
   40.8000   29.7730   40.0290 C   0  0  0  0  0  0  0  0  0  0  0  0
   40.0580   30.5720   40.6540 O   0  0  0  0  0  0  0  0  0  0  0  0
   41.2410   30.1520   38.7420 N   0  0  0  0  0  0  0  0  0  0  0  0
   41.8480   29.4690   38.2640 H   0  0  0  0  0  0  0  0  0  0  0  0
  1  7  1  6  0  0  0
  1  6  1  0  0  0  0
  1  2  1  0  0  0  0
  2  8  1  6  0  0  0
  2  3  1  0  0  0  0
  2 17  1  0  0  0  0
  4 10  1  0  0  0  0
  4  3  1  0  0  0  0
  5  6  1  0  0  0  0
  5 11  1  1  0  0  0
  5  4  1  0  0  0  0
  6 12  1  1  0  0  0
  9  4  1  0  0  0  0
 13 14  1  0  0  0  0
 13  1  1  0  0  0  0
 15  5  1  0  0  0  0
 16 15  1  0  0  0  0
 17 18  1  0  0  0  0
 18 23  1  0  0  0  0
 19 18  2  0  0  0  0
 19 20  1  0  0  0  0
 20 21  2  0  0  0  0
 21 22  1  0  0  0  0
 22 25  1  0  0  0  0
 23 22  2  0  0  0  0
 24 19  1  0  0  0  0
 26 27  1  0  0  0  0
 26 20  1  0  0  0  0
 26 28  1  0  0  0  0
 27 31  1  0  0  0  0
 27 28  1  0  0  0  0
 28 33  1  0  0  0  0
 29 26  1  0  0  0  0
 30 27  1  0  0  0  0
 32 28  1  0  0  0  0
 34 35  1  0  0  0  0
 34  6  1  0  0  0  0
 35 40  1  0  0  0  0
 36 35  2  0  0  0  0
 38 37  1  0  0  0  0
 38 39  2  0  0  0  0
 40 38  1  0  0  0  0
 41 40  1  0  0  0  0
M  END
>  <minimizedAffinity>
-5.9048872

>  <minimizedRMSD>
0.316070259

$$$$
