
 OpenBabel03252509193D

 39 41  0  0  1  0  0  0  0  0999 V2000
   38.8040   28.8530   41.6460 C   0  0  1  0  0  0  0  0  0  0  0  0
   39.2680   28.0260   42.7810 C   0  0  0  0  0  0  0  0  0  0  0  0
   38.1690   27.5280   43.6800 C   0  0  0  0  0  0  0  0  0  0  0  0
   36.9810   27.0060   42.9190 C   0  0  0  0  0  0  0  0  0  0  0  0
   36.5720   27.9160   41.7920 C   0  0  0  0  0  0  0  0  0  0  0  0
   37.3270   29.2420   41.8810 C   0  0  2  0  0  0  0  0  0  0  0  0
   38.7670   28.2160   40.7470 H   0  0  0  0  0  0  0  0  0  0  0  0
   39.9260   28.6640   43.4370 H   0  0  0  0  0  0  0  0  0  0  0  0
   39.8660   27.1660   42.4410 H   0  0  0  0  0  0  0  0  0  0  0  0
   38.5940   26.6810   44.2510 H   0  0  0  0  0  0  0  0  0  0  0  0
   37.8540   28.2780   44.4240 H   0  0  0  0  0  0  0  0  0  0  0  0
   36.1730   26.7600   43.6030 H   0  0  0  0  0  0  0  0  0  0  0  0
   37.3050   26.0320   42.4490 H   0  0  0  0  0  0  0  0  0  0  0  0
   36.8020   27.4820   40.7960 H   0  0  0  0  0  0  0  0  0  0  0  0
   35.4920   28.1300   41.8970 H   0  0  0  0  0  0  0  0  0  0  0  0
   37.2240   29.6830   42.8940 H   0  0  0  0  0  0  0  0  0  0  0  0
   41.2860   31.7350   40.1500 C   0  0  0  0  0  0  0  0  0  0  0  0
   40.9220   31.9850   41.4700 C   0  0  0  0  0  0  0  0  0  0  0  0
   40.1080   31.1130   42.0720 C   0  0  0  0  0  0  0  0  0  0  0  0
   39.6410   29.9760   41.3750 C   0  0  0  0  0  0  0  0  0  0  0  0
   40.4130   30.1610   39.7340 S   0  0  0  0  0  0  0  0  0  0  0  0
   41.2890   32.8580   41.9920 H   0  0  0  0  0  0  0  0  0  0  0  0
   39.7260   31.1440   43.0790 H   0  0  0  0  0  0  0  0  0  0  0  0
   42.7790   34.1270   37.7270 C   0  0  0  0  0  0  0  0  0  0  0  0
   44.1330   34.0210   38.0510 C   0  0  0  0  0  0  0  0  0  0  0  0
   44.4760   33.1330   39.0800 C   0  0  0  0  0  0  0  0  0  0  0  0
   43.4770   32.4270   39.7040 N   0  0  0  0  0  0  0  0  0  0  0  0
   42.1940   32.5800   39.3400 C   0  0  0  0  0  0  0  0  0  0  0  0
   41.8350   33.4330   38.3460 N   0  0  0  0  0  0  0  0  0  0  0  0
   42.4790   34.8120   36.9290 H   0  0  0  0  0  0  0  0  0  0  0  0
   44.9090   34.5830   37.5510 H   0  0  0  0  0  0  0  0  0  0  0  0
   45.4970   32.9800   39.4030 H   0  0  0  0  0  0  0  0  0  0  0  0
   36.8680   30.1270   40.8080 C   0  0  0  0  0  0  0  0  0  0  0  0
   36.3990   31.2610   41.0250 O   0  0  0  0  0  0  0  0  0  0  0  0
   36.7290   30.7240   37.3410 H   0  0  0  0  0  0  0  0  0  0  0  0
   36.8220   31.0270   38.3890 C   0  0  0  0  0  0  0  0  0  0  0  0
   36.9670   32.1860   38.8160 O   0  0  0  0  0  0  0  0  0  0  0  0
   36.7840   30.0820   39.4200 N   0  0  0  0  0  0  0  0  0  0  0  0
   36.6660   29.1230   39.0870 H   0  0  0  0  0  0  0  0  0  0  0  0
  1  7  1  6  0  0  0
  1  6  1  0  0  0  0
  1  2  1  0  0  0  0
  2  8  1  0  0  0  0
  2  3  1  0  0  0  0
  3 10  1  0  0  0  0
  3 11  1  0  0  0  0
  4 12  1  0  0  0  0
  4  3  1  0  0  0  0
  5  6  1  0  0  0  0
  5 15  1  0  0  0  0
  5  4  1  0  0  0  0
  6 16  1  1  0  0  0
  9  2  1  0  0  0  0
 13  4  1  0  0  0  0
 14  5  1  0  0  0  0
 17 18  2  0  0  0  0
 18 22  1  0  0  0  0
 18 19  1  0  0  0  0
 19 23  1  0  0  0  0
 20  1  1  0  0  0  0
 20 19  2  0  0  0  0
 21 17  1  0  0  0  0
 21 20  1  0  0  0  0
 24 25  2  0  0  0  0
 24 29  1  0  0  0  0
 25 26  1  0  0  0  0
 26 32  1  0  0  0  0
 26 27  2  0  0  0  0
 28 27  1  0  0  0  0
 28 17  1  0  0  0  0
 29 28  2  0  0  0  0
 30 24  1  0  0  0  0
 31 25  1  0  0  0  0
 33 34  2  0  0  0  0
 33  6  1  0  0  0  0
 35 36  1  0  0  0  0
 36 37  2  0  0  0  0
 36 38  1  0  0  0  0
 38 33  1  0  0  0  0
 39 38  1  0  0  0  0
M  END
>  <minimizedAffinity>
-5.28062677

$$$$

 OpenBabel03252509193D

 39 41  0  0  1  0  0  0  0  0999 V2000
   37.6820   26.5280   42.1560 C   0  0  1  0  0  0  0  0  0  0  0  0
   37.3500   25.0870   42.1530 C   0  0  0  0  0  0  0  0  0  0  0  0
   38.5440   24.1720   42.1810 C   0  0  0  0  0  0  0  0  0  0  0  0
   39.5950   24.6100   43.1640 C   0  0  0  0  0  0  0  0  0  0  0  0
   39.8760   26.0860   43.0890 C   0  0  0  0  0  0  0  0  0  0  0  0
   39.1900   26.6940   41.8650 C   0  0  2  0  0  0  0  0  0  0  0  0
   37.5700   26.9050   43.1850 H   0  0  0  0  0  0  0  0  0  0  0  0
   36.8130   24.8500   41.1900 H   0  0  0  0  0  0  0  0  0  0  0  0
   36.6790   24.8200   42.9850 H   0  0  0  0  0  0  0  0  0  0  0  0
   38.1730   23.1840   42.5130 H   0  0  0  0  0  0  0  0  0  0  0  0
   38.9870   24.0180   41.1830 H   0  0  0  0  0  0  0  0  0  0  0  0
   40.4810   23.9860   43.0730 H   0  0  0  0  0  0  0  0  0  0  0  0
   39.1730   24.4120   44.1930 H   0  0  0  0  0  0  0  0  0  0  0  0
   39.4940   26.6340   43.9760 H   0  0  0  0  0  0  0  0  0  0  0  0
   40.9680   26.2230   42.9720 H   0  0  0  0  0  0  0  0  0  0  0  0
   39.4500   26.1250   40.9490 H   0  0  0  0  0  0  0  0  0  0  0  0
   35.5220   28.2240   39.1290 C   0  0  0  0  0  0  0  0  0  0  0  0
   35.4220   28.9440   40.3160 C   0  0  0  0  0  0  0  0  0  0  0  0
   36.0840   28.4870   41.3840 C   0  0  0  0  0  0  0  0  0  0  0  0
   36.8580   27.3080   41.2920 C   0  0  0  0  0  0  0  0  0  0  0  0
   36.6250   26.8050   39.5560 S   0  0  0  0  0  0  0  0  0  0  0  0
   34.8270   29.8450   40.3720 H   0  0  0  0  0  0  0  0  0  0  0  0
   36.1220   28.9090   42.3750 H   0  0  0  0  0  0  0  0  0  0  0  0
   34.7490   29.0270   35.5820 C   0  0  0  0  0  0  0  0  0  0  0  0
   33.3800   29.2830   35.6620 C   0  0  0  0  0  0  0  0  0  0  0  0
   32.7810   29.1750   36.9240 C   0  0  0  0  0  0  0  0  0  0  0  0
   33.5640   28.8280   37.9990 N   0  0  0  0  0  0  0  0  0  0  0  0
   34.8770   28.5950   37.8480 C   0  0  0  0  0  0  0  0  0  0  0  0
   35.4810   28.6930   36.6360 N   0  0  0  0  0  0  0  0  0  0  0  0
   35.2470   29.1020   34.6110 H   0  0  0  0  0  0  0  0  0  0  0  0
   32.7760   29.5560   34.8070 H   0  0  0  0  0  0  0  0  0  0  0  0
   31.7280   29.3550   37.0890 H   0  0  0  0  0  0  0  0  0  0  0  0
   39.5290   28.1170   41.7850 C   0  0  0  0  0  0  0  0  0  0  0  0
   39.8740   28.6690   40.7230 O   0  0  0  0  0  0  0  0  0  0  0  0
   39.5330   31.2380   43.4160 H   0  0  0  0  0  0  0  0  0  0  0  0
   39.4270   30.5830   42.5460 C   0  0  0  0  0  0  0  0  0  0  0  0
   39.1640   30.9320   41.3820 O   0  0  0  0  0  0  0  0  0  0  0  0
   39.5890   29.1980   42.6610 N   0  0  0  0  0  0  0  0  0  0  0  0
   39.8060   28.8920   43.6110 H   0  0  0  0  0  0  0  0  0  0  0  0
  1  7  1  1  0  0  0
  2  1  1  0  0  0  0
  2  3  1  0  0  0  0
  2  9  1  0  0  0  0
  3 10  1  0  0  0  0
  3  4  1  0  0  0  0
  4 13  1  0  0  0  0
  5  4  1  0  0  0  0
  5 14  1  0  0  0  0
  6 16  1  6  0  0  0
  6  1  1  0  0  0  0
  6  5  1  0  0  0  0
  8  2  1  0  0  0  0
 11  3  1  0  0  0  0
 12  4  1  0  0  0  0
 15  5  1  0  0  0  0
 17 21  1  0  0  0  0
 17 18  2  0  0  0  0
 18 22  1  0  0  0  0
 18 19  1  0  0  0  0
 19 23  1  0  0  0  0
 20 19  2  0  0  0  0
 20  1  1  0  0  0  0
 21 20  1  0  0  0  0
 24 25  2  0  0  0  0
 24 29  1  0  0  0  0
 25 26  1  0  0  0  0
 26 32  1  0  0  0  0
 26 27  2  0  0  0  0
 28 27  1  0  0  0  0
 28 17  1  0  0  0  0
 29 28  2  0  0  0  0
 30 24  1  0  0  0  0
 31 25  1  0  0  0  0
 33  6  1  0  0  0  0
 33 38  1  0  0  0  0
 34 33  2  0  0  0  0
 36 38  1  0  0  0  0
 36 35  1  0  0  0  0
 37 36  2  0  0  0  0
 38 39  1  0  0  0  0
M  END
>  <minimizedAffinity>
-5.27376127

$$$$

 OpenBabel03252509193D

 39 41  0  0  1  0  0  0  0  0999 V2000
   37.9070   26.0410   42.0690 C   0  0  1  0  0  0  0  0  0  0  0  0
   36.7780   25.6710   41.1880 C   0  0  0  0  0  0  0  0  0  0  0  0
   37.0350   24.4720   40.3160 C   0  0  0  0  0  0  0  0  0  0  0  0
   37.7000   23.3420   41.0550 C   0  0  0  0  0  0  0  0  0  0  0  0
   38.8430   23.8090   41.9160 C   0  0  0  0  0  0  0  0  0  0  0  0
   39.1680   25.2730   41.6160 C   0  0  2  0  0  0  0  0  0  0  0  0
   37.7040   25.6410   43.0760 H   0  0  0  0  0  0  0  0  0  0  0  0
   36.5910   26.5250   40.4750 H   0  0  0  0  0  0  0  0  0  0  0  0
   35.8520   25.5020   41.7600 H   0  0  0  0  0  0  0  0  0  0  0  0
   36.0440   24.1100   39.9830 H   0  0  0  0  0  0  0  0  0  0  0  0
   37.5980   24.7220   39.4020 H   0  0  0  0  0  0  0  0  0  0  0  0
   37.9640   22.5440   40.3650 H   0  0  0  0  0  0  0  0  0  0  0  0
   36.9220   22.9140   41.7520 H   0  0  0  0  0  0  0  0  0  0  0  0
   38.6060   23.7490   42.9990 H   0  0  0  0  0  0  0  0  0  0  0  0
   39.7330   23.2030   41.6650 H   0  0  0  0  0  0  0  0  0  0  0  0
   39.3150   25.4250   40.5260 H   0  0  0  0  0  0  0  0  0  0  0  0
   38.5380   30.0470   41.5650 C   0  0  0  0  0  0  0  0  0  0  0  0
   38.4480   29.6930   42.9080 C   0  0  0  0  0  0  0  0  0  0  0  0
   38.2390   28.4060   43.2040 C   0  0  0  0  0  0  0  0  0  0  0  0
   38.1170   27.4480   42.1710 C   0  0  0  0  0  0  0  0  0  0  0  0
   38.3090   28.4530   40.6620 S   0  0  0  0  0  0  0  0  0  0  0  0
   38.5450   30.4360   43.6870 H   0  0  0  0  0  0  0  0  0  0  0  0
   38.1430   27.9530   44.1760 H   0  0  0  0  0  0  0  0  0  0  0  0
   40.0290   33.2990   40.5520 C   0  0  0  0  0  0  0  0  0  0  0  0
   38.9140   33.9460   40.0160 C   0  0  0  0  0  0  0  0  0  0  0  0
   37.7010   33.2440   40.0290 C   0  0  0  0  0  0  0  0  0  0  0  0
   37.6760   31.9770   40.5590 N   0  0  0  0  0  0  0  0  0  0  0  0
   38.7890   31.4170   41.0590 C   0  0  0  0  0  0  0  0  0  0  0  0
   39.9760   32.0750   41.0580 N   0  0  0  0  0  0  0  0  0  0  0  0
   40.9910   33.8200   40.5580 H   0  0  0  0  0  0  0  0  0  0  0  0
   38.9480   34.9440   39.6020 H   0  0  0  0  0  0  0  0  0  0  0  0
   36.7810   33.6580   39.6380 H   0  0  0  0  0  0  0  0  0  0  0  0
   40.3190   25.6820   42.4240 C   0  0  0  0  0  0  0  0  0  0  0  0
   40.4360   25.3860   43.6290 O   0  0  0  0  0  0  0  0  0  0  0  0
   43.5440   27.0920   42.4520 H   0  0  0  0  0  0  0  0  0  0  0  0
   42.7730   26.3950   42.7920 C   0  0  0  0  0  0  0  0  0  0  0  0
   42.8920   25.5320   43.6790 O   0  0  0  0  0  0  0  0  0  0  0  0
   41.4920   26.4050   42.2290 N   0  0  0  0  0  0  0  0  0  0  0  0
   41.3760   27.1090   41.4970 H   0  0  0  0  0  0  0  0  0  0  0  0
  1 20  1  0  0  0  0
  1  7  1  1  0  0  0
  2  9  1  0  0  0  0
  2  1  1  0  0  0  0
  3  4  1  0  0  0  0
  3  2  1  0  0  0  0
  4 13  1  0  0  0  0
  4  5  1  0  0  0  0
  5 14  1  0  0  0  0
  6 16  1  6  0  0  0
  6  5  1  0  0  0  0
  6  1  1  0  0  0  0
  6 33  1  0  0  0  0
  8  2  1  0  0  0  0
 10  3  1  0  0  0  0
 11  3  1  0  0  0  0
 12  4  1  0  0  0  0
 15  5  1  0  0  0  0
 17 18  2  0  0  0  0
 18 19  1  0  0  0  0
 18 22  1  0  0  0  0
 19 23  1  0  0  0  0
 20 19  2  0  0  0  0
 21 17  1  0  0  0  0
 21 20  1  0  0  0  0
 24 30  1  0  0  0  0
 24 29  1  0  0  0  0
 25 26  1  0  0  0  0
 25 24  2  0  0  0  0
 26 27  2  0  0  0  0
 27 28  1  0  0  0  0
 28 17  1  0  0  0  0
 29 28  2  0  0  0  0
 31 25  1  0  0  0  0
 32 26  1  0  0  0  0
 33 34  2  0  0  0  0
 35 36  1  0  0  0  0
 36 37  2  0  0  0  0
 38 33  1  0  0  0  0
 38 36  1  0  0  0  0
 39 38  1  0  0  0  0
M  END
>  <minimizedAffinity>
-5.25258684

$$$$

 OpenBabel03252509193D

 39 41  0  0  1  0  0  0  0  0999 V2000
   37.9960   26.3820   42.0980 C   0  0  1  0  0  0  0  0  0  0  0  0
   36.8460   26.0860   41.2170 C   0  0  0  0  0  0  0  0  0  0  0  0
   37.0200   24.8670   40.3520 C   0  0  0  0  0  0  0  0  0  0  0  0
   37.6040   23.6980   41.0980 C   0  0  0  0  0  0  0  0  0  0  0  0
   38.7750   24.0900   41.9590 C   0  0  0  0  0  0  0  0  0  0  0  0
   39.2020   25.5250   41.6510 C   0  0  2  0  0  0  0  0  0  0  0  0
   37.7650   26.0030   43.1060 H   0  0  0  0  0  0  0  0  0  0  0  0
   36.7190   26.9460   40.4990 H   0  0  0  0  0  0  0  0  0  0  0  0
   35.9090   25.9850   41.7880 H   0  0  0  0  0  0  0  0  0  0  0  0
   36.0070   24.5730   40.0190 H   0  0  0  0  0  0  0  0  0  0  0  0
   37.6000   25.0720   39.4370 H   0  0  0  0  0  0  0  0  0  0  0  0
   37.8130   22.8800   40.4140 H   0  0  0  0  0  0  0  0  0  0  0  0
   36.7970   23.3290   41.7960 H   0  0  0  0  0  0  0  0  0  0  0  0
   38.5330   24.0520   43.0420 H   0  0  0  0  0  0  0  0  0  0  0  0
   39.6220   23.4210   41.7130 H   0  0  0  0  0  0  0  0  0  0  0  0
   39.3610   25.6600   40.5610 H   0  0  0  0  0  0  0  0  0  0  0  0
   38.8770   30.3380   41.5720 C   0  0  0  0  0  0  0  0  0  0  0  0
   38.8080   29.9870   42.9170 C   0  0  0  0  0  0  0  0  0  0  0  0
   38.5240   28.7170   43.2200 C   0  0  0  0  0  0  0  0  0  0  0  0
   38.3030   27.7720   42.1920 C   0  0  0  0  0  0  0  0  0  0  0  0
   38.5120   28.7640   40.6780 S   0  0  0  0  0  0  0  0  0  0  0  0
   38.9800   30.7210   43.6920 H   0  0  0  0  0  0  0  0  0  0  0  0
   38.4300   28.2690   44.1960 H   0  0  0  0  0  0  0  0  0  0  0  0
   38.7800   33.8340   40.3110 C   0  0  0  0  0  0  0  0  0  0  0  0
   40.1420   34.0940   40.1470 C   0  0  0  0  0  0  0  0  0  0  0  0
   41.0330   33.0610   40.4700 C   0  0  0  0  0  0  0  0  0  0  0  0
   40.5250   31.8680   40.9240 N   0  0  0  0  0  0  0  0  0  0  0  0
   39.2020   31.6890   41.0570 C   0  0  0  0  0  0  0  0  0  0  0  0
   38.3170   32.6730   40.7510 N   0  0  0  0  0  0  0  0  0  0  0  0
   38.0590   34.6200   40.0680 H   0  0  0  0  0  0  0  0  0  0  0  0
   40.5280   35.0380   39.7890 H   0  0  0  0  0  0  0  0  0  0  0  0
   42.1050   33.1640   40.3770 H   0  0  0  0  0  0  0  0  0  0  0  0
   40.3770   25.8590   42.4600 C   0  0  0  0  0  0  0  0  0  0  0  0
   40.4930   25.5180   43.6530 O   0  0  0  0  0  0  0  0  0  0  0  0
   43.6600   27.1290   42.4960 H   0  0  0  0  0  0  0  0  0  0  0  0
   42.8630   26.4540   42.8230 C   0  0  0  0  0  0  0  0  0  0  0  0
   42.9540   25.5580   43.6800 O   0  0  0  0  0  0  0  0  0  0  0  0
   41.5780   26.5370   42.2740 N   0  0  0  0  0  0  0  0  0  0  0  0
   41.4850   27.2690   41.5670 H   0  0  0  0  0  0  0  0  0  0  0  0
  1 20  1  0  0  0  0
  1  7  1  1  0  0  0
  2  9  1  0  0  0  0
  2  1  1  0  0  0  0
  3  4  1  0  0  0  0
  3  2  1  0  0  0  0
  4 13  1  0  0  0  0
  4  5  1  0  0  0  0
  5 14  1  0  0  0  0
  6 16  1  6  0  0  0
  6  5  1  0  0  0  0
  6  1  1  0  0  0  0
  6 33  1  0  0  0  0
  8  2  1  0  0  0  0
 10  3  1  0  0  0  0
 11  3  1  0  0  0  0
 12  4  1  0  0  0  0
 15  5  1  0  0  0  0
 17 18  2  0  0  0  0
 18 19  1  0  0  0  0
 18 22  1  0  0  0  0
 19 23  1  0  0  0  0
 20 19  2  0  0  0  0
 21 17  1  0  0  0  0
 21 20  1  0  0  0  0
 24 29  1  0  0  0  0
 25 24  2  0  0  0  0
 25 26  1  0  0  0  0
 26 27  2  0  0  0  0
 27 28  1  0  0  0  0
 28 17  1  0  0  0  0
 29 28  2  0  0  0  0
 30 24  1  0  0  0  0
 31 25  1  0  0  0  0
 32 26  1  0  0  0  0
 33 34  2  0  0  0  0
 35 36  1  0  0  0  0
 36 37  2  0  0  0  0
 38 33  1  0  0  0  0
 38 36  1  0  0  0  0
 39 38  1  0  0  0  0
M  END
>  <minimizedAffinity>
-5.23016691

$$$$

 OpenBabel03252509193D

 39 41  0  0  1  0  0  0  0  0999 V2000
   37.4840   31.5340   38.7530 C   0  0  1  0  0  0  0  0  0  0  0  0
   37.4610   31.5170   37.2740 C   0  0  0  0  0  0  0  0  0  0  0  0
   37.1290   30.1790   36.6710 C   0  0  0  0  0  0  0  0  0  0  0  0
   35.9820   29.4940   37.3620 C   0  0  0  0  0  0  0  0  0  0  0  0
   36.0940   29.5510   38.8620 C   0  0  0  0  0  0  0  0  0  0  0  0
   37.4690   30.0790   39.2700 C   0  0  2  0  0  0  0  0  0  0  0  0
   36.5270   31.9490   39.1080 H   0  0  0  0  0  0  0  0  0  0  0  0
   38.4970   31.7650   36.9020 H   0  0  0  0  0  0  0  0  0  0  0  0
   36.7690   32.2710   36.8670 H   0  0  0  0  0  0  0  0  0  0  0  0
   36.8170   30.3760   35.6280 H   0  0  0  0  0  0  0  0  0  0  0  0
   38.0030   29.5090   36.6130 H   0  0  0  0  0  0  0  0  0  0  0  0
   35.8480   28.4900   36.9670 H   0  0  0  0  0  0  0  0  0  0  0  0
   35.0510   30.0700   37.0840 H   0  0  0  0  0  0  0  0  0  0  0  0
   35.3410   30.2300   39.3150 H   0  0  0  0  0  0  0  0  0  0  0  0
   35.9930   28.5210   39.2540 H   0  0  0  0  0  0  0  0  0  0  0  0
   38.2730   29.5040   38.7660 H   0  0  0  0  0  0  0  0  0  0  0  0
   41.0020   33.2130   39.9820 C   0  0  0  0  0  0  0  0  0  0  0  0
   39.8930   33.9240   40.4310 C   0  0  0  0  0  0  0  0  0  0  0  0
   38.6810   33.4750   40.0920 C   0  0  0  0  0  0  0  0  0  0  0  0
   38.5480   32.3110   39.3010 C   0  0  0  0  0  0  0  0  0  0  0  0
   40.2780   31.8180   39.0120 S   0  0  0  0  0  0  0  0  0  0  0  0
   40.0100   34.8110   41.0370 H   0  0  0  0  0  0  0  0  0  0  0  0
   37.7200   33.8910   40.3470 H   0  0  0  0  0  0  0  0  0  0  0  0
   44.5940   34.1600   39.8200 C   0  0  0  0  0  0  0  0  0  0  0  0
   44.9280   34.1600   41.1750 C   0  0  0  0  0  0  0  0  0  0  0  0
   43.9140   33.8310   42.0840 C   0  0  0  0  0  0  0  0  0  0  0  0
   42.6640   33.5320   41.5990 N   0  0  0  0  0  0  0  0  0  0  0  0
   42.4130   33.5520   40.2810 C   0  0  0  0  0  0  0  0  0  0  0  0
   43.3780   33.8680   39.3790 N   0  0  0  0  0  0  0  0  0  0  0  0
   45.3630   34.4120   39.0850 H   0  0  0  0  0  0  0  0  0  0  0  0
   45.9170   34.3970   41.5430 H   0  0  0  0  0  0  0  0  0  0  0  0
   44.0730   33.8020   43.1530 H   0  0  0  0  0  0  0  0  0  0  0  0
   37.5700   30.0680   40.7320 C   0  0  0  0  0  0  0  0  0  0  0  0
   36.6110   30.3500   41.4760 O   0  0  0  0  0  0  0  0  0  0  0  0
   39.5030   29.1940   43.5420 H   0  0  0  0  0  0  0  0  0  0  0  0
   38.5640   29.3160   42.9930 C   0  0  0  0  0  0  0  0  0  0  0  0
   37.4210   29.0660   43.4140 O   0  0  0  0  0  0  0  0  0  0  0  0
   38.5530   29.7990   41.6800 N   0  0  0  0  0  0  0  0  0  0  0  0
   39.4850   30.0100   41.3180 H   0  0  0  0  0  0  0  0  0  0  0  0
  1  7  1  1  0  0  0
  1  6  1  0  0  0  0
  1 20  1  0  0  0  0
  2  1  1  0  0  0  0
  3  2  1  0  0  0  0
  3  4  1  0  0  0  0
  4  5  1  0  0  0  0
  5 15  1  0  0  0  0
  5  6  1  0  0  0  0
  5 14  1  0  0  0  0
  6 16  1  6  0  0  0
  6 33  1  0  0  0  0
  8  2  1  0  0  0  0
  9  2  1  0  0  0  0
 10  3  1  0  0  0  0
 11  3  1  0  0  0  0
 12  4  1  0  0  0  0
 13  4  1  0  0  0  0
 17 28  1  0  0  0  0
 17 18  2  0  0  0  0
 18 22  1  0  0  0  0
 19 23  1  0  0  0  0
 19 18  1  0  0  0  0
 20 19  2  0  0  0  0
 21 20  1  0  0  0  0
 21 17  1  0  0  0  0
 24 25  1  0  0  0  0
 25 31  1  0  0  0  0
 25 26  2  0  0  0  0
 26 32  1  0  0  0  0
 27 26  1  0  0  0  0
 28 27  2  0  0  0  0
 29 24  2  0  0  0  0
 29 28  1  0  0  0  0
 30 24  1  0  0  0  0
 33 34  2  0  0  0  0
 33 38  1  0  0  0  0
 36 37  2  0  0  0  0
 36 35  1  0  0  0  0
 38 36  1  0  0  0  0
 39 38  1  0  0  0  0
M  END
>  <minimizedAffinity>
-5.20799446

$$$$

 OpenBabel03252509193D

 39 41  0  0  1  0  0  0  0  0999 V2000
   39.1610   26.7380   41.6390 C   0  0  1  0  0  0  0  0  0  0  0  0
   40.0150   25.5700   41.9460 C   0  0  0  0  0  0  0  0  0  0  0  0
   39.3250   24.4800   42.7210 C   0  0  0  0  0  0  0  0  0  0  0  0
   37.9440   24.1780   42.2060 C   0  0  0  0  0  0  0  0  0  0  0  0
   37.1440   25.4240   41.9330 C   0  0  0  0  0  0  0  0  0  0  0  0
   37.8710   26.6510   42.4850 C   0  0  2  0  0  0  0  0  0  0  0  0
   38.8020   26.6400   40.6020 H   0  0  0  0  0  0  0  0  0  0  0  0
   40.8630   25.9150   42.6030 H   0  0  0  0  0  0  0  0  0  0  0  0
   40.4520   25.1330   41.0340 H   0  0  0  0  0  0  0  0  0  0  0  0
   39.9350   23.5670   42.5860 H   0  0  0  0  0  0  0  0  0  0  0  0
   39.2990   24.6790   43.8050 H   0  0  0  0  0  0  0  0  0  0  0  0
   37.4450   23.4670   42.8590 H   0  0  0  0  0  0  0  0  0  0  0  0
   38.0800   23.6560   41.2140 H   0  0  0  0  0  0  0  0  0  0  0  0
   36.9970   25.5990   40.8460 H   0  0  0  0  0  0  0  0  0  0  0  0
   36.1760   25.3330   42.4610 H   0  0  0  0  0  0  0  0  0  0  0  0
   38.1430   26.4970   43.5490 H   0  0  0  0  0  0  0  0  0  0  0  0
   40.8380   30.4470   41.2750 C   0  0  0  0  0  0  0  0  0  0  0  0
   41.0930   29.8730   42.5170 C   0  0  0  0  0  0  0  0  0  0  0  0
   40.5940   28.6570   42.7600 C   0  0  0  0  0  0  0  0  0  0  0  0
   39.8330   27.9890   41.7730 C   0  0  0  0  0  0  0  0  0  0  0  0
   39.8210   29.1810   40.3940 S   0  0  0  0  0  0  0  0  0  0  0  0
   41.6770   30.3950   43.2610 H   0  0  0  0  0  0  0  0  0  0  0  0
   40.6880   28.0640   43.6540 H   0  0  0  0  0  0  0  0  0  0  0  0
   42.5530   33.7280   40.9380 C   0  0  0  0  0  0  0  0  0  0  0  0
   42.0580   34.1610   39.7070 C   0  0  0  0  0  0  0  0  0  0  0  0
   41.1560   33.3140   39.0480 C   0  0  0  0  0  0  0  0  0  0  0  0
   40.8140   32.1230   39.6410 N   0  0  0  0  0  0  0  0  0  0  0  0
   41.3300   31.7710   40.8290 C   0  0  0  0  0  0  0  0  0  0  0  0
   42.2060   32.5730   41.4880 N   0  0  0  0  0  0  0  0  0  0  0  0
   43.2590   34.3660   41.4780 H   0  0  0  0  0  0  0  0  0  0  0  0
   42.3360   35.1010   39.2520 H   0  0  0  0  0  0  0  0  0  0  0  0
   40.7170   33.5590   38.0910 H   0  0  0  0  0  0  0  0  0  0  0  0
   37.0440   27.8380   42.2570 C   0  0  0  0  0  0  0  0  0  0  0  0
   36.9630   28.7710   43.0790 O   0  0  0  0  0  0  0  0  0  0  0  0
   35.1100   29.6820   39.9650 H   0  0  0  0  0  0  0  0  0  0  0  0
   35.8130   29.5750   40.7960 C   0  0  0  0  0  0  0  0  0  0  0  0
   36.3540   30.4960   41.4330 O   0  0  0  0  0  0  0  0  0  0  0  0
   36.2010   28.3120   41.2560 N   0  0  0  0  0  0  0  0  0  0  0  0
   35.7660   27.5420   40.7430 H   0  0  0  0  0  0  0  0  0  0  0  0
  1  7  1  6  0  0  0
  1 20  1  0  0  0  0
  1  2  1  0  0  0  0
  1  6  1  0  0  0  0
  2  8  1  0  0  0  0
  2  3  1  0  0  0  0
  3 11  1  0  0  0  0
  4  3  1  0  0  0  0
  4 12  1  0  0  0  0
  5  4  1  0  0  0  0
  5 15  1  0  0  0  0
  5  6  1  0  0  0  0
  6 16  1  1  0  0  0
  9  2  1  0  0  0  0
 10  3  1  0  0  0  0
 13  4  1  0  0  0  0
 14  5  1  0  0  0  0
 17 18  2  0  0  0  0
 18 19  1  0  0  0  0
 18 22  1  0  0  0  0
 19 23  1  0  0  0  0
 20 19  2  0  0  0  0
 21 17  1  0  0  0  0
 21 20  1  0  0  0  0
 24 30  1  0  0  0  0
 24 29  1  0  0  0  0
 25 24  2  0  0  0  0
 26 27  2  0  0  0  0
 26 25  1  0  0  0  0
 27 28  1  0  0  0  0
 28 17  1  0  0  0  0
 28 29  2  0  0  0  0
 31 25  1  0  0  0  0
 32 26  1  0  0  0  0
 33  6  1  0  0  0  0
 33 34  2  0  0  0  0
 35 36  1  0  0  0  0
 36 38  1  0  0  0  0
 36 37  2  0  0  0  0
 38 33  1  0  0  0  0
 39 38  1  0  0  0  0
M  END
>  <minimizedAffinity>
-5.20666265

$$$$

 OpenBabel03252509193D

 39 41  0  0  1  0  0  0  0  0999 V2000
   37.2700   28.0360   41.9780 C   0  0  1  0  0  0  0  0  0  0  0  0
   37.1890   26.6630   42.5210 C   0  0  0  0  0  0  0  0  0  0  0  0
   38.5200   26.0460   42.8560 C   0  0  0  0  0  0  0  0  0  0  0  0
   39.4400   26.9940   43.5770 C   0  0  0  0  0  0  0  0  0  0  0  0
   39.4670   28.3620   42.9500 C   0  0  0  0  0  0  0  0  0  0  0  0
   38.7380   28.3420   41.6060 C   0  0  2  0  0  0  0  0  0  0  0  0
   37.0530   28.7430   42.7950 H   0  0  0  0  0  0  0  0  0  0  0  0
   36.7410   25.9960   41.7300 H   0  0  0  0  0  0  0  0  0  0  0  0
   36.5410   26.6120   43.4100 H   0  0  0  0  0  0  0  0  0  0  0  0
   38.3100   25.2040   43.5420 H   0  0  0  0  0  0  0  0  0  0  0  0
   39.0230   25.6130   41.9760 H   0  0  0  0  0  0  0  0  0  0  0  0
   40.4230   26.5450   43.7010 H   0  0  0  0  0  0  0  0  0  0  0  0
   39.0170   27.1210   44.6160 H   0  0  0  0  0  0  0  0  0  0  0  0
   38.9610   29.1240   43.5790 H   0  0  0  0  0  0  0  0  0  0  0  0
   40.5230   28.6330   42.7610 H   0  0  0  0  0  0  0  0  0  0  0  0
   39.1280   27.5280   40.9620 H   0  0  0  0  0  0  0  0  0  0  0  0
   35.0380   28.1390   38.5560 C   0  0  0  0  0  0  0  0  0  0  0  0
   34.6600   29.1260   39.4620 C   0  0  0  0  0  0  0  0  0  0  0  0
   35.3160   29.1950   40.6240 C   0  0  0  0  0  0  0  0  0  0  0  0
   36.3600   28.2840   40.9080 C   0  0  0  0  0  0  0  0  0  0  0  0
   36.4110   27.2470   39.4100 S   0  0  0  0  0  0  0  0  0  0  0  0
   33.8610   29.8170   39.2310 H   0  0  0  0  0  0  0  0  0  0  0  0
   35.1630   29.8860   41.4360 H   0  0  0  0  0  0  0  0  0  0  0  0
   33.1840   26.8720   35.5930 C   0  0  0  0  0  0  0  0  0  0  0  0
   33.4630   27.8720   34.6590 C   0  0  0  0  0  0  0  0  0  0  0  0
   34.2760   28.9320   35.0820 C   0  0  0  0  0  0  0  0  0  0  0  0
   34.7470   28.9300   36.3720 N   0  0  0  0  0  0  0  0  0  0  0  0
   34.4370   27.9340   37.2170 C   0  0  0  0  0  0  0  0  0  0  0  0
   33.6510   26.8950   36.8330 N   0  0  0  0  0  0  0  0  0  0  0  0
   32.5520   26.0310   35.2940 H   0  0  0  0  0  0  0  0  0  0  0  0
   33.0860   27.8600   33.6460 H   0  0  0  0  0  0  0  0  0  0  0  0
   34.5500   29.7530   34.4340 H   0  0  0  0  0  0  0  0  0  0  0  0
   38.8300   29.6700   40.9930 C   0  0  0  0  0  0  0  0  0  0  0  0
   39.2670   29.8500   39.8400 O   0  0  0  0  0  0  0  0  0  0  0  0
   37.9820   33.0790   41.2140 H   0  0  0  0  0  0  0  0  0  0  0  0
   38.1580   32.1430   40.6770 C   0  0  0  0  0  0  0  0  0  0  0  0
   38.0610   31.9600   39.4510 O   0  0  0  0  0  0  0  0  0  0  0  0
   38.5360   30.9800   41.3580 N   0  0  0  0  0  0  0  0  0  0  0  0
   38.6200   31.1110   42.3680 H   0  0  0  0  0  0  0  0  0  0  0  0
  1  2  1  0  0  0  0
  1  7  1  1  0  0  0
  2  3  1  0  0  0  0
  2  9  1  0  0  0  0
  3 10  1  0  0  0  0
  3  4  1  0  0  0  0
  4 12  1  0  0  0  0
  4 13  1  0  0  0  0
  5  4  1  0  0  0  0
  5 14  1  0  0  0  0
  6 16  1  6  0  0  0
  6  1  1  0  0  0  0
  6  5  1  0  0  0  0
  8  2  1  0  0  0  0
 11  3  1  0  0  0  0
 15  5  1  0  0  0  0
 17 21  1  0  0  0  0
 17 18  2  0  0  0  0
 18 19  1  0  0  0  0
 19 20  2  0  0  0  0
 19 23  1  0  0  0  0
 20  1  1  0  0  0  0
 21 20  1  0  0  0  0
 22 18  1  0  0  0  0
 24 29  1  0  0  0  0
 25 26  1  0  0  0  0
 25 24  2  0  0  0  0
 26 27  2  0  0  0  0
 27 28  1  0  0  0  0
 28 17  1  0  0  0  0
 29 28  2  0  0  0  0
 30 24  1  0  0  0  0
 31 25  1  0  0  0  0
 32 26  1  0  0  0  0
 33 38  1  0  0  0  0
 33  6  1  0  0  0  0
 34 33  2  0  0  0  0
 36 35  1  0  0  0  0
 36 38  1  0  0  0  0
 37 36  2  0  0  0  0
 38 39  1  0  0  0  0
M  END
>  <minimizedAffinity>
-5.07020473

$$$$

 OpenBabel03252509193D

 39 41  0  0  1  0  0  0  0  0999 V2000
   36.4410   26.1830   39.5700 C   0  0  1  0  0  0  0  0  0  0  0  0
   36.0880   25.5820   38.2660 C   0  0  0  0  0  0  0  0  0  0  0  0
   36.2880   24.0920   38.1920 C   0  0  0  0  0  0  0  0  0  0  0  0
   35.7870   23.3720   39.4140 C   0  0  0  0  0  0  0  0  0  0  0  0
   36.2020   24.0480   40.6930 C   0  0  0  0  0  0  0  0  0  0  0  0
   37.2250   25.1460   40.4040 C   0  0  2  0  0  0  0  0  0  0  0  0
   35.5120   26.3320   40.1440 H   0  0  0  0  0  0  0  0  0  0  0  0
   36.7710   26.0150   37.4810 H   0  0  0  0  0  0  0  0  0  0  0  0
   35.0520   25.8150   37.9750 H   0  0  0  0  0  0  0  0  0  0  0  0
   35.6890   23.7390   37.3320 H   0  0  0  0  0  0  0  0  0  0  0  0
   37.3330   23.8130   37.9790 H   0  0  0  0  0  0  0  0  0  0  0  0
   36.0490   22.3180   39.3660 H   0  0  0  0  0  0  0  0  0  0  0  0
   34.6590   23.4200   39.3730 H   0  0  0  0  0  0  0  0  0  0  0  0
   35.3470   24.5330   41.2100 H   0  0  0  0  0  0  0  0  0  0  0  0
   36.6860   23.2910   41.3400 H   0  0  0  0  0  0  0  0  0  0  0  0
   38.0640   24.7480   39.7960 H   0  0  0  0  0  0  0  0  0  0  0  0
   37.7230   30.0640   39.6180 C   0  0  0  0  0  0  0  0  0  0  0  0
   38.6390   29.2130   39.0060 C   0  0  0  0  0  0  0  0  0  0  0  0
   38.3350   27.9140   38.9300 C   0  0  0  0  0  0  0  0  0  0  0  0
   37.1140   27.4360   39.4600 C   0  0  0  0  0  0  0  0  0  0  0  0
   36.3400   28.9480   40.1210 S   0  0  0  0  0  0  0  0  0  0  0  0
   39.5680   29.5930   38.6040 H   0  0  0  0  0  0  0  0  0  0  0  0
   38.9160   27.1170   38.4970 H   0  0  0  0  0  0  0  0  0  0  0  0
   37.3220   33.7600   39.5590 C   0  0  0  0  0  0  0  0  0  0  0  0
   38.4770   34.1610   40.2340 C   0  0  0  0  0  0  0  0  0  0  0  0
   39.3430   33.1520   40.6750 C   0  0  0  0  0  0  0  0  0  0  0  0
   39.0140   31.8420   40.4230 N   0  0  0  0  0  0  0  0  0  0  0  0
   37.8850   31.5290   39.7670 C   0  0  0  0  0  0  0  0  0  0  0  0
   37.0290   32.4880   39.3300 N   0  0  0  0  0  0  0  0  0  0  0  0
   36.6250   34.5230   39.2030 H   0  0  0  0  0  0  0  0  0  0  0  0
   38.7230   35.1970   40.4250 H   0  0  0  0  0  0  0  0  0  0  0  0
   40.2620   33.3610   41.2050 H   0  0  0  0  0  0  0  0  0  0  0  0
   37.6540   25.7450   41.6700 C   0  0  0  0  0  0  0  0  0  0  0  0
   38.8320   25.6980   42.0740 O   0  0  0  0  0  0  0  0  0  0  0  0
   36.8050   27.8340   44.3740 H   0  0  0  0  0  0  0  0  0  0  0  0
   37.4910   27.4200   43.6290 C   0  0  0  0  0  0  0  0  0  0  0  0
   38.6900   27.7130   43.4800 O   0  0  0  0  0  0  0  0  0  0  0  0
   37.0610   26.4560   42.7100 N   0  0  0  0  0  0  0  0  0  0  0  0
   36.0770   26.2030   42.8170 H   0  0  0  0  0  0  0  0  0  0  0  0
  1  7  1  1  0  0  0
  1  6  1  0  0  0  0
  2  1  1  0  0  0  0
  3  2  1  0  0  0  0
  3  4  1  0  0  0  0
  4  5  1  0  0  0  0
  5 14  1  0  0  0  0
  5 15  1  0  0  0  0
  6 16  1  6  0  0  0
  6  5  1  0  0  0  0
  6 33  1  0  0  0  0
  8  2  1  0  0  0  0
  9  2  1  0  0  0  0
 10  3  1  0  0  0  0
 11  3  1  0  0  0  0
 12  4  1  0  0  0  0
 13  4  1  0  0  0  0
 17 28  1  0  0  0  0
 17 21  1  0  0  0  0
 18 17  2  0  0  0  0
 19 18  1  0  0  0  0
 19 20  2  0  0  0  0
 20  1  1  0  0  0  0
 20 21  1  0  0  0  0
 22 18  1  0  0  0  0
 23 19  1  0  0  0  0
 24 25  1  0  0  0  0
 25 31  1  0  0  0  0
 25 26  2  0  0  0  0
 26 32  1  0  0  0  0
 27 26  1  0  0  0  0
 28 27  2  0  0  0  0
 29 24  2  0  0  0  0
 29 28  1  0  0  0  0
 30 24  1  0  0  0  0
 33 34  2  0  0  0  0
 33 38  1  0  0  0  0
 36 35  1  0  0  0  0
 37 36  2  0  0  0  0
 38 39  1  0  0  0  0
 38 36  1  0  0  0  0
M  END
>  <minimizedAffinity>
-5.01074219

$$$$

 OpenBabel03252509193D

 39 41  0  0  1  0  0  0  0  0999 V2000
   36.6450   30.0310   38.4410 C   0  0  1  0  0  0  0  0  0  0  0  0
   35.8910   29.6330   37.2320 C   0  0  0  0  0  0  0  0  0  0  0  0
   34.8580   28.5640   37.4650 C   0  0  0  0  0  0  0  0  0  0  0  0
   34.0450   28.7950   38.7100 C   0  0  0  0  0  0  0  0  0  0  0  0
   34.8940   29.1850   39.8900 C   0  0  0  0  0  0  0  0  0  0  0  0
   36.3760   29.0010   39.5600 C   0  0  2  0  0  0  0  0  0  0  0  0
   36.2040   30.9630   38.8310 H   0  0  0  0  0  0  0  0  0  0  0  0
   36.6180   29.1910   36.4920 H   0  0  0  0  0  0  0  0  0  0  0  0
   35.4050   30.4960   36.7510 H   0  0  0  0  0  0  0  0  0  0  0  0
   34.1650   28.6060   36.6050 H   0  0  0  0  0  0  0  0  0  0  0  0
   35.2890   27.5480   37.4670 H   0  0  0  0  0  0  0  0  0  0  0  0
   33.3910   27.9480   38.8970 H   0  0  0  0  0  0  0  0  0  0  0  0
   33.3700   29.6740   38.4920 H   0  0  0  0  0  0  0  0  0  0  0  0
   34.7580   30.2500   40.1740 H   0  0  0  0  0  0  0  0  0  0  0  0
   34.6450   28.5100   40.7310 H   0  0  0  0  0  0  0  0  0  0  0  0
   36.5650   27.9800   39.1680 H   0  0  0  0  0  0  0  0  0  0  0  0
   40.4540   31.4160   37.9240 C   0  0  0  0  0  0  0  0  0  0  0  0
   40.3550   30.0480   37.6910 C   0  0  0  0  0  0  0  0  0  0  0  0
   39.1560   29.4740   37.8310 C   0  0  0  0  0  0  0  0  0  0  0  0
   38.0340   30.2490   38.2040 C   0  0  0  0  0  0  0  0  0  0  0  0
   38.7360   31.9220   38.3730 S   0  0  0  0  0  0  0  0  0  0  0  0
   41.2210   29.4680   37.4060 H   0  0  0  0  0  0  0  0  0  0  0  0
   38.8930   28.4380   37.6940 H   0  0  0  0  0  0  0  0  0  0  0  0
   42.9740   34.1260   37.5560 C   0  0  0  0  0  0  0  0  0  0  0  0
   44.1600   33.3920   37.6060 C   0  0  0  0  0  0  0  0  0  0  0  0
   44.0470   32.0030   37.7590 C   0  0  0  0  0  0  0  0  0  0  0  0
   42.7940   31.4490   37.8500 N   0  0  0  0  0  0  0  0  0  0  0  0
   41.6940   32.2170   37.7930 C   0  0  0  0  0  0  0  0  0  0  0  0
   41.7770   33.5650   37.6460 N   0  0  0  0  0  0  0  0  0  0  0  0
   43.0280   35.2120   37.4380 H   0  0  0  0  0  0  0  0  0  0  0  0
   45.1410   33.8420   37.5330 H   0  0  0  0  0  0  0  0  0  0  0  0
   44.9060   31.3490   37.8080 H   0  0  0  0  0  0  0  0  0  0  0  0
   37.1740   29.3310   40.7430 C   0  0  0  0  0  0  0  0  0  0  0  0
   36.8630   30.2430   41.5330 O   0  0  0  0  0  0  0  0  0  0  0  0
   39.8220   28.3890   42.8640 H   0  0  0  0  0  0  0  0  0  0  0  0
   38.8370   28.8160   42.6500 C   0  0  0  0  0  0  0  0  0  0  0  0
   38.0420   29.2970   43.4760 O   0  0  0  0  0  0  0  0  0  0  0  0
   38.3420   28.8680   41.3420 N   0  0  0  0  0  0  0  0  0  0  0  0
   38.9830   28.4760   40.6500 H   0  0  0  0  0  0  0  0  0  0  0  0
  1  7  1  1  0  0  0
  1  6  1  0  0  0  0
  2  3  1  0  0  0  0
  2  1  1  0  0  0  0
  3 11  1  0  0  0  0
  3  4  1  0  0  0  0
  4 12  1  0  0  0  0
  4  5  1  0  0  0  0
  5 14  1  0  0  0  0
  5 15  1  0  0  0  0
  6 16  1  6  0  0  0
  6  5  1  0  0  0  0
  6 33  1  0  0  0  0
  8  2  1  0  0  0  0
  9  2  1  0  0  0  0
 10  3  1  0  0  0  0
 13  4  1  0  0  0  0
 17 21  1  0  0  0  0
 18 19  1  0  0  0  0
 18 17  2  0  0  0  0
 19 20  2  0  0  0  0
 20 21  1  0  0  0  0
 20  1  1  0  0  0  0
 22 18  1  0  0  0  0
 23 19  1  0  0  0  0
 24 25  2  0  0  0  0
 24 29  1  0  0  0  0
 25 26  1  0  0  0  0
 26 32  1  0  0  0  0
 26 27  2  0  0  0  0
 28 27  1  0  0  0  0
 28 17  1  0  0  0  0
 29 28  2  0  0  0  0
 30 24  1  0  0  0  0
 31 25  1  0  0  0  0
 33 38  1  0  0  0  0
 33 34  2  0  0  0  0
 36 35  1  0  0  0  0
 36 37  2  0  0  0  0
 38 36  1  0  0  0  0
 39 38  1  0  0  0  0
M  END
>  <minimizedAffinity>
-5.00914288

$$$$
