
 OpenBabel03252509313D

 23 23  0  0  0  0  0  0  0  0999 V2000
   47.1060   33.3150   42.9990 C   0  0  0  0  0  0  0  0  0  0  0  0
   46.5670   32.3910   42.6690 H   0  0  0  0  0  0  0  0  0  0  0  0
   47.1820   33.9440   42.1050 H   0  0  0  0  0  0  0  0  0  0  0  0
   45.2330   34.1470   46.1070 C   0  0  0  0  0  0  0  0  0  0  0  0
   46.0840   33.4800   45.2200 C   0  0  0  0  0  0  0  0  0  0  0  0
   46.2170   33.9950   43.9510 C   0  0  0  0  0  0  0  0  0  0  0  0
   45.5230   35.1230   43.6100 N   0  0  0  0  0  0  0  0  0  0  0  0
   44.7000   35.7470   44.5040 C   0  0  0  0  0  0  0  0  0  0  0  0
   44.5610   35.2600   45.7370 N   0  0  0  0  0  0  0  0  0  0  0  0
   45.1120   33.7590   47.1150 H   0  0  0  0  0  0  0  0  0  0  0  0
   46.5900   32.5890   45.5950 H   0  0  0  0  0  0  0  0  0  0  0  0
   44.1830   36.6410   44.1500 H   0  0  0  0  0  0  0  0  0  0  0  0
   48.3130   32.9700   43.5790 O   0  0  0  0  0  0  0  0  0  0  0  0
   50.6570   32.4600   42.5460 O   0  0  0  0  0  0  0  0  0  0  0  0
   49.5380   33.4600   42.5270 P   0  0  2  0  0  0  0  0  0  0  0  0
   50.0350   34.9960   43.0440 O   0  0  0  0  0  0  0  0  0  0  0  0
   49.2250   35.4900   43.3290 H   0  0  0  0  0  0  0  0  0  0  0  0
   48.9040   33.5390   40.9750 O   0  0  0  0  0  0  0  0  0  0  0  0
   48.6430   34.7020   40.2790 C   0  0  0  0  0  0  0  0  0  0  0  0
   47.9190   34.4780   39.2520 O   0  0  0  0  0  0  0  0  0  0  0  0
   49.0790   36.0190   40.5860 N   0  0  0  0  0  0  0  0  0  0  0  0
   48.3600   36.3120   41.3120 H   0  0  0  0  0  0  0  0  0  0  0  0
   49.9320   36.1660   39.9700 H   0  0  0  0  0  0  0  0  0  0  0  0
  1 13  1  0  0  0  0
  1  6  1  0  0  0  0
  2  1  1  0  0  0  0
  3  1  1  0  0  0  0
  4 10  1  0  0  0  0
  5 11  1  0  0  0  0
  5  4  2  0  0  0  0
  6  5  1  0  0  0  0
  7  6  2  0  0  0  0
  7  8  1  0  0  0  0
  8  9  2  0  0  0  0
  9  4  1  0  0  0  0
 12  8  1  0  0  0  0
 15 14  2  1  0  0  0
 15 16  1  0  0  0  0
 15 13  1  0  0  0  0
 16 17  1  0  0  0  0
 18 15  1  0  0  0  0
 19 21  1  0  0  0  0
 19 18  1  0  0  0  0
 20 19  2  0  0  0  0
 21 22  1  0  0  0  0
 23 21  1  0  0  0  0
M  END
>  <minimizedAffinity>
-4.32659817

>  <minimizedRMSD>
0.971702039

$$$$
