
 OpenBabel03252503363D

 38 40  0  0  1  0  0  0  0  0999 V2000
   46.7470   33.4270   39.1790 C   0  0  0  0  0  0  0  0  0  0  0  0
   46.6120   33.8640   40.4340 C   0  0  0  0  0  0  0  0  0  0  0  0
   45.3300   33.9280   41.0320 N   0  0  0  0  0  0  0  0  0  0  0  0
   44.5040   33.8000   42.1700 C   0  0  0  0  0  0  0  0  0  0  0  0
   44.6990   33.5830   43.4050 O   0  0  0  0  0  0  0  0  0  0  0  0
   43.2510   34.0030   41.4640 C   0  0  1  0  0  0  0  0  0  0  0  0
   44.1400   34.2790   40.2760 C   0  0  2  0  0  0  0  0  0  0  0  0
   44.0200   33.1310   38.9030 S   0  0  0  0  0  0  0  0  0  0  0  0
   45.6770   32.9610   38.2500 C   0  0  0  0  0  0  0  0  0  0  0  0
   42.6460   34.9280   41.6370 H   0  0  0  0  0  0  0  0  0  0  0  0
   44.1510   35.3250   39.9150 H   0  0  0  0  0  0  0  0  0  0  0  0
   45.8910   31.8660   38.0960 H   0  0  0  0  0  0  0  0  0  0  0  0
   45.7820   33.4030   37.2350 H   0  0  0  0  0  0  0  0  0  0  0  0
   42.4320   32.7930   41.4080 C   0  0  0  0  0  0  0  0  0  0  0  0
   41.5230   32.4390   40.6330 O   0  0  0  0  0  0  0  0  0  0  0  0
   42.7420   31.8350   42.4440 N   0  0  0  0  0  0  0  0  0  0  0  0
   43.4640   31.8120   43.1970 H   0  0  0  0  0  0  0  0  0  0  0  0
   40.0870   29.3650   43.2610 C   0  0  0  0  0  0  0  0  0  0  0  0
   40.7510   30.5950   43.1660 C   0  0  0  0  0  0  0  0  0  0  0  0
   41.9960   30.6390   42.5790 C   0  0  0  0  0  0  0  0  0  0  0  0
   42.5430   29.4990   42.1110 N   0  0  0  0  0  0  0  0  0  0  0  0
   41.8950   28.3000   42.2020 C   0  0  0  0  0  0  0  0  0  0  0  0
   40.6730   28.2590   42.7800 N   0  0  0  0  0  0  0  0  0  0  0  0
   39.1080   29.3000   43.7170 H   0  0  0  0  0  0  0  0  0  0  0  0
   40.3050   31.5020   43.5450 H   0  0  0  0  0  0  0  0  0  0  0  0
   42.4430   27.4690   41.7910 H   0  0  0  0  0  0  0  0  0  0  0  0
   48.1330   33.4090   38.6560 C   0  0  0  0  0  0  0  0  0  0  0  0
   48.2680   34.3180   38.0310 H   0  0  0  0  0  0  0  0  0  0  0  0
   48.9010   33.4400   39.4370 H   0  0  0  0  0  0  0  0  0  0  0  0
   48.2970   32.5550   37.9640 H   0  0  0  0  0  0  0  0  0  0  0  0
   47.7620   34.2850   41.2170 C   0  0  0  0  0  0  0  0  0  0  0  0
   48.1450   35.4950   41.2410 O   0  0  0  0  0  0  0  0  0  0  0  0
   48.6330   33.5930   42.0340 O   0  0  0  0  0  0  0  0  0  0  0  0
   49.9300   33.8620   42.3150 C   0  0  0  0  0  0  0  0  0  0  0  0
   50.7940   33.0580   41.8830 O   0  0  0  0  0  0  0  0  0  0  0  0
   50.2160   35.0520   43.0900 N   0  0  0  0  0  0  0  0  0  0  0  0
   50.5120   36.0550   43.0040 H   0  0  0  0  0  0  0  0  0  0  0  0
   50.0460   34.7090   44.0610 H   0  0  0  0  0  0  0  0  0  0  0  0
  1  2  2  0  0  0  0
  2  3  1  0  0  0  0
  2 31  1  0  0  0  0
  3  4  1  0  0  0  0
  4  5  2  0  0  0  0
  6 10  1  1  0  0  0
  6  4  1  0  0  0  0
  7 11  1  6  0  0  0
  7  3  1  0  0  0  0
  7  6  1  0  0  0  0
  8  7  1  0  0  0  0
  9  8  1  0  0  0  0
  9  1  1  0  0  0  0
 12  9  1  0  0  0  0
 13  9  1  0  0  0  0
 14  6  1  0  0  0  0
 14 16  1  0  0  0  0
 15 14  2  0  0  0  0
 16 20  1  0  0  0  0
 16 17  1  0  0  0  0
 18 24  1  0  0  0  0
 19 18  1  0  0  0  0
 19 25  1  0  0  0  0
 20 19  2  0  0  0  0
 21 22  2  0  0  0  0
 21 20  1  0  0  0  0
 22 23  1  0  0  0  0
 23 18  2  0  0  0  0
 26 22  1  0  0  0  0
 27  1  1  0  0  0  0
 27 29  1  0  0  0  0
 28 27  1  0  0  0  0
 30 27  1  0  0  0  0
 31 32  2  0  0  0  0
 31 33  1  0  0  0  0
 33 34  1  0  0  0  0
 34 36  1  0  0  0  0
 35 34  2  0  0  0  0
 36 38  1  0  0  0  0
 37 36  1  0  0  0  0
M  END
>  <minimizedAffinity>
-5.35982227

>  <minimizedRMSD>
5.2169714

$$$$
