
     RDKit          3D

 23 24  0  0  0  0  0  0  0  0999 V2000
   46.2712   34.4943   43.6228 C   0  0  0  0  0  0  0  0  0  0  0  0
   47.3770   33.8881   43.1355 C   0  0  0  0  0  0  0  0  0  0  0  0
   47.7637   32.7384   43.8191 C   0  0  0  0  0  0  0  0  0  0  0  0
   47.0101   32.3287   44.9036 N   0  0  0  0  0  0  0  0  0  0  0  0
   45.9257   32.9822   45.3307 C   0  0  0  0  0  0  0  0  0  0  0  0
   45.5169   34.1151   44.6818 N   0  0  0  0  0  0  0  0  0  0  0  0
   48.1846   34.3583   42.0734 C   0  0  0  0  0  0  0  0  0  0  0  0
   48.5499   35.6167   41.7215 C   0  0  0  0  0  0  0  0  0  0  0  0
   49.6730   34.8186   42.3877 C   0  0  0  0  0  0  0  0  0  0  0  0
   45.5803   35.6427   43.0205 C   0  0  0  0  0  0  0  0  0  0  0  0
   45.1996   36.7999   43.1143 O   0  0  0  0  0  0  0  0  0  0  0  0
   48.6264   32.1499   43.5419 H   0  0  0  0  0  0  0  0  0  0  0  0
   45.4672   32.5140   46.1914 H   0  0  0  0  0  0  0  0  0  0  0  0
   48.4687   33.4230   41.4104 H   0  0  0  0  0  0  0  0  0  0  0  0
   48.7786   35.9444   40.6627 H   0  0  0  0  0  0  0  0  0  0  0  0
   48.3230   36.5301   42.3301 H   0  0  0  0  0  0  0  0  0  0  0  0
   49.8456   34.9167   43.4598 H   0  0  0  0  0  0  0  0  0  0  0  0
   50.4784   34.4891   41.7573 H   0  0  0  0  0  0  0  0  0  0  0  0
   43.6268   35.2951   40.0063 H   0  0  0  0  0  0  0  0  0  0  0  0
   44.0085   35.5892   40.9692 C   0  0  0  0  0  0  0  0  0  0  0  0
   43.2971   36.4594   41.5198 O   0  0  0  0  0  0  0  0  0  0  0  0
   45.1648   35.1638   41.7097 N   0  0  0  0  0  0  0  0  0  0  0  0
   45.5962   34.4416   41.0544 H   0  0  0  0  0  0  0  0  0  0  0  0
  1  6  2  0
  2  1  1  0
  2  3  2  0
  3  4  1  0
  4  5  2  0
  6  5  1  0
  7  9  1  0
  7  2  1  0
  8  7  1  0
  8  9  1  0
 10  1  1  0
 11 10  2  0
  3 12  1  0
  5 13  1  0
  7 14  1  0
  8 15  1  0
  8 16  1  0
  9 17  1  0
  9 18  1  0
 19 20  1  0
 20 21  2  0
 20 22  1  0
 22 23  1  0
 10 22  1  0
M  ISO  8  12  14  13  14  14  13  15  13  16  13  17  13  18  13  19   1
M  END
>  <DihAtoms>  (1) 
0,9,21,19

>  <DihDeg>  (1) 
179.99393037486948

$$$$
