
 OpenBabel03252500223D

 21 21  0  0  0  0  0  0  0  0999 V2000
   45.0830   34.0480   46.3530 O   0  0  0  0  0  0  0  0  0  0  0  0
   45.0100   36.2280   43.5250 C   0  0  0  0  0  0  0  0  0  0  0  0
   45.1470   35.3660   42.4170 C   0  0  0  0  0  0  0  0  0  0  0  0
   45.2670   33.9930   42.7030 C   0  0  0  0  0  0  0  0  0  0  0  0
   45.2440   33.5840   43.9860 N   0  0  0  0  0  0  0  0  0  0  0  0
   45.1090   34.4530   45.0170 C   0  0  0  0  0  0  0  0  0  0  0  0
   44.9930   35.7680   44.7700 N   0  0  0  0  0  0  0  0  0  0  0  0
   45.1570   35.7700   41.4300 H   0  0  0  0  0  0  0  0  0  0  0  0
   45.3750   33.2990   41.8740 H   0  0  0  0  0  0  0  0  0  0  0  0
   44.8930   37.5700   43.2410 O   0  0  0  0  0  0  0  0  0  0  0  0
   45.0460   38.2310   43.9900 H   0  0  0  0  0  0  0  0  0  0  0  0
   47.2790   32.8000   46.8690 O   0  0  0  0  0  0  0  0  0  0  0  0
   45.7700   32.5710   46.8800 P   0  0  2  0  0  0  0  0  0  0  0  0
   45.4310   31.2950   45.8440 O   0  0  0  0  0  0  0  0  0  0  0  0
   46.1540   31.1890   45.1690 H   0  0  0  0  0  0  0  0  0  0  0  0
   45.3320   32.2070   48.4490 O   0  0  0  0  0  0  0  0  0  0  0  0
   45.7420   31.0750   49.1280 C   0  0  0  0  0  0  0  0  0  0  0  0
   44.9040   30.1720   49.4040 O   0  0  0  0  0  0  0  0  0  0  0  0
   47.1000   30.9460   49.5050 N   0  0  0  0  0  0  0  0  0  0  0  0
   47.3970   30.3220   48.7050 H   0  0  0  0  0  0  0  0  0  0  0  0
   47.9430   31.1090   50.0970 H   0  0  0  0  0  0  0  0  0  0  0  0
  1 13  1  0  0  0  0
  2  7  1  0  0  0  0
  3  4  1  0  0  0  0
  3  2  2  0  0  0  0
  4  5  2  0  0  0  0
  5  6  1  0  0  0  0
  6  1  1  0  0  0  0
  7  6  2  0  0  0  0
  8  3  1  0  0  0  0
  9  4  1  0  0  0  0
 10  2  1  0  0  0  0
 10 11  1  0  0  0  0
 13 12  2  6  0  0  0
 13 16  1  0  0  0  0
 14 13  1  0  0  0  0
 15 14  1  0  0  0  0
 16 17  1  0  0  0  0
 17 18  2  0  0  0  0
 17 19  1  0  0  0  0
 19 21  1  0  0  0  0
 20 19  1  0  0  0  0
M  END
>  <minimizedAffinity>
-4.7679677

>  <minimizedRMSD>
1.49922252

$$$$
