
 OpenBabel03252507303D

 41 43  0  0  1  0  0  0  0  0999 V2000
   38.4020   26.1420   41.0080 C   0  0  2  0  0  0  0  0  0  0  0  0
   37.5540   24.9830   41.5090 C   0  0  0  0  0  0  0  0  0  0  0  0
   38.4790   23.9070   42.0090 C   0  0  0  0  0  0  0  0  0  0  0  0
   39.5020   24.3870   42.9790 C   0  0  0  0  0  0  0  0  0  0  0  0
   40.1990   25.6030   42.5120 C   0  0  0  0  0  0  0  0  0  0  0  0
   39.2060   26.6830   42.1180 C   0  0  2  0  0  0  0  0  0  0  0  0
   39.0640   25.6780   40.2370 H   0  0  0  0  0  0  0  0  0  0  0  0
   36.7420   25.2510   42.1750 H   0  0  0  0  0  0  0  0  0  0  0  0
   37.0660   24.5590   40.5920 H   0  0  0  0  0  0  0  0  0  0  0  0
   39.0440   23.5510   41.0990 H   0  0  0  0  0  0  0  0  0  0  0  0
   37.9570   23.0190   42.3770 H   0  0  0  0  0  0  0  0  0  0  0  0
   40.2750   23.5720   43.0510 H   0  0  0  0  0  0  0  0  0  0  0  0
   39.0240   24.5530   43.9720 H   0  0  0  0  0  0  0  0  0  0  0  0
   40.7840   25.3610   41.5910 H   0  0  0  0  0  0  0  0  0  0  0  0
   40.9260   25.9570   43.2890 H   0  0  0  0  0  0  0  0  0  0  0  0
   39.8940   27.4910   41.7490 H   0  0  0  0  0  0  0  0  0  0  0  0
   37.6150   27.1670   40.3320 C   0  0  0  0  0  0  0  0  0  0  0  0
   36.5430   26.7600   39.5340 C   0  0  0  0  0  0  0  0  0  0  0  0
   35.7900   27.7450   38.8570 C   0  0  0  0  0  0  0  0  0  0  0  0
   36.1790   29.0680   39.0410 N   0  0  0  0  0  0  0  0  0  0  0  0
   37.2200   29.3830   39.8250 C   0  0  0  0  0  0  0  0  0  0  0  0
   37.9360   28.4570   40.4650 N   0  0  0  0  0  0  0  0  0  0  0  0
   36.1330   25.8330   39.3200 H   0  0  0  0  0  0  0  0  0  0  0  0
   34.9480   27.6000   38.2140 H   0  0  0  0  0  0  0  0  0  0  0  0
   37.5670   30.8020   39.9700 C   0  0  0  0  0  0  0  0  0  0  0  0
   37.0010   31.7640   39.1810 C   0  0  0  0  0  0  0  0  0  0  0  0
   37.2830   33.1080   39.2690 C   0  0  0  0  0  0  0  0  0  0  0  0
   38.2070   33.4470   40.2380 C   0  0  0  0  0  0  0  0  0  0  0  0
   38.7950   32.4930   41.0520 C   0  0  0  0  0  0  0  0  0  0  0  0
   38.4700   31.1720   40.9120 N   0  0  0  0  0  0  0  0  0  0  0  0
   36.3000   31.4080   38.4610 H   0  0  0  0  0  0  0  0  0  0  0  0
   36.7830   33.7750   38.6010 H   0  0  0  0  0  0  0  0  0  0  0  0
   38.4560   34.5020   40.3370 H   0  0  0  0  0  0  0  0  0  0  0  0
   39.5070   32.8530   41.7830 H   0  0  0  0  0  0  0  0  0  0  0  0
   38.4250   27.0630   43.2340 N   0  0  0  0  0  0  0  0  0  0  0  0
   38.6840   26.6240   44.1660 H   0  0  0  0  0  0  0  0  0  0  0  0
   37.3030   27.9370   43.5030 C   0  0  0  0  0  0  0  0  0  0  0  0
   36.2020   27.3220   43.6800 O   0  0  0  0  0  0  0  0  0  0  0  0
   37.3470   29.3480   43.5810 N   0  0  0  0  0  0  0  0  0  0  0  0
   36.8330   29.8260   44.3650 H   0  0  0  0  0  0  0  0  0  0  0  0
   37.8160   30.0590   42.9780 H   0  0  0  0  0  0  0  0  0  0  0  0
  1  7  1  6  0  0  0
  1  2  1  0  0  0  0
  1  6  1  0  0  0  0
  2  3  1  0  0  0  0
  2  8  1  0  0  0  0
  3 11  1  0  0  0  0
  3  4  1  0  0  0  0
  4 12  1  0  0  0  0
  4 13  1  0  0  0  0
  5  4  1  0  0  0  0
  5 15  1  0  0  0  0
  6 16  1  6  0  0  0
  6  5  1  0  0  0  0
  6 35  1  0  0  0  0
  9  2  1  0  0  0  0
 10  3  1  0  0  0  0
 14  5  1  0  0  0  0
 17 22  1  0  0  0  0
 17  1  1  0  0  0  0
 18 17  2  0  0  0  0
 19 20  2  0  0  0  0
 19 18  1  0  0  0  0
 20 21  1  0  0  0  0
 21 25  1  0  0  0  0
 21 22  2  0  0  0  0
 23 18  1  0  0  0  0
 24 19  1  0  0  0  0
 25 30  1  0  0  0  0
 26 27  1  0  0  0  0
 26 25  2  0  0  0  0
 27 28  2  0  0  0  0
 28 33  1  0  0  0  0
 28 29  1  0  0  0  0
 29 34  1  0  0  0  0
 30 29  2  0  0  0  0
 31 26  1  0  0  0  0
 32 27  1  0  0  0  0
 35 37  1  0  0  0  0
 35 36  1  0  0  0  0
 37 39  1  0  0  0  0
 37 38  2  0  0  0  0
 39 40  1  0  0  0  0
 41 39  1  0  0  0  0
M  END
>  <minimizedAffinity>
-6.12276554

$$$$

 OpenBabel03252507303D

 41 43  0  0  1  0  0  0  0  0999 V2000
   38.2320   31.7760   40.8220 C   0  0  2  0  0  0  0  0  0  0  0  0
   37.4020   32.7880   40.0480 C   0  0  0  0  0  0  0  0  0  0  0  0
   38.1040   34.1180   40.1120 C   0  0  0  0  0  0  0  0  0  0  0  0
   39.5400   34.0670   39.7190 C   0  0  0  0  0  0  0  0  0  0  0  0
   40.2720   32.9720   40.3880 C   0  0  0  0  0  0  0  0  0  0  0  0
   39.5600   31.6430   40.1980 C   0  0  2  0  0  0  0  0  0  0  0  0
   38.3230   32.2260   41.8420 H   0  0  0  0  0  0  0  0  0  0  0  0
   37.0820   32.4740   39.0610 H   0  0  0  0  0  0  0  0  0  0  0  0
   36.4610   32.9150   40.6460 H   0  0  0  0  0  0  0  0  0  0  0  0
   38.0820   34.4160   41.2000 H   0  0  0  0  0  0  0  0  0  0  0  0
   37.5710   34.9180   39.5920 H   0  0  0  0  0  0  0  0  0  0  0  0
   39.9980   35.0320   40.0700 H   0  0  0  0  0  0  0  0  0  0  0  0
   39.6200   33.9840   38.6100 H   0  0  0  0  0  0  0  0  0  0  0  0
   40.2950   33.1640   41.4890 H   0  0  0  0  0  0  0  0  0  0  0  0
   41.3340   32.9390   40.0310 H   0  0  0  0  0  0  0  0  0  0  0  0
   40.2120   30.9560   40.8020 H   0  0  0  0  0  0  0  0  0  0  0  0
   37.5550   30.4950   40.9820 C   0  0  0  0  0  0  0  0  0  0  0  0
   36.2180   30.3980   40.5900 C   0  0  0  0  0  0  0  0  0  0  0  0
   35.5480   29.1660   40.7620 C   0  0  0  0  0  0  0  0  0  0  0  0
   36.2850   28.1250   41.3170 N   0  0  0  0  0  0  0  0  0  0  0  0
   37.5680   28.2910   41.6690 C   0  0  0  0  0  0  0  0  0  0  0  0
   38.2050   29.4530   41.5100 N   0  0  0  0  0  0  0  0  0  0  0  0
   35.5590   31.0680   40.1540 H   0  0  0  0  0  0  0  0  0  0  0  0
   34.5350   28.9300   40.5160 H   0  0  0  0  0  0  0  0  0  0  0  0
   38.2770   27.1440   42.2470 C   0  0  0  0  0  0  0  0  0  0  0  0
   37.9600   25.8580   41.9080 C   0  0  0  0  0  0  0  0  0  0  0  0
   38.5870   24.7420   42.4130 C   0  0  0  0  0  0  0  0  0  0  0  0
   39.5980   25.0020   43.3170 C   0  0  0  0  0  0  0  0  0  0  0  0
   39.9410   26.2940   43.6780 C   0  0  0  0  0  0  0  0  0  0  0  0
   39.2760   27.3610   43.1380 N   0  0  0  0  0  0  0  0  0  0  0  0
   37.1660   25.7560   41.2030 H   0  0  0  0  0  0  0  0  0  0  0  0
   38.2570   23.7820   42.0790 H   0  0  0  0  0  0  0  0  0  0  0  0
   40.1180   24.1430   43.7380 H   0  0  0  0  0  0  0  0  0  0  0  0
   40.7450   26.4000   44.3940 H   0  0  0  0  0  0  0  0  0  0  0  0
   39.4960   31.3120   38.8250 N   0  0  0  0  0  0  0  0  0  0  0  0
   38.5850   30.8870   38.4820 H   0  0  0  0  0  0  0  0  0  0  0  0
   40.3610   31.3910   37.6670 C   0  0  0  0  0  0  0  0  0  0  0  0
   40.8530   30.2710   37.3140 O   0  0  0  0  0  0  0  0  0  0  0  0
   40.6760   32.5640   36.9420 N   0  0  0  0  0  0  0  0  0  0  0  0
   40.6650   32.5230   35.8900 H   0  0  0  0  0  0  0  0  0  0  0  0
   40.9350   33.5240   37.2590 H   0  0  0  0  0  0  0  0  0  0  0  0
  1 17  1  0  0  0  0
  1  7  1  1  0  0  0
  2  3  1  0  0  0  0
  2  9  1  0  0  0  0
  2  1  1  0  0  0  0
  3 10  1  0  0  0  0
  4 12  1  0  0  0  0
  4  3  1  0  0  0  0
  4  5  1  0  0  0  0
  5 14  1  0  0  0  0
  6  5  1  0  0  0  0
  6 16  1  1  0  0  0
  6  1  1  0  0  0  0
  8  2  1  0  0  0  0
 11  3  1  0  0  0  0
 13  4  1  0  0  0  0
 15  5  1  0  0  0  0
 17 22  1  0  0  0  0
 18 19  1  0  0  0  0
 18 17  2  0  0  0  0
 19 20  2  0  0  0  0
 20 21  1  0  0  0  0
 21 25  1  0  0  0  0
 22 21  2  0  0  0  0
 23 18  1  0  0  0  0
 24 19  1  0  0  0  0
 25 30  1  0  0  0  0
 26 25  2  0  0  0  0
 26 27  1  0  0  0  0
 27 28  2  0  0  0  0
 28 29  1  0  0  0  0
 28 33  1  0  0  0  0
 29 34  1  0  0  0  0
 30 29  2  0  0  0  0
 31 26  1  0  0  0  0
 32 27  1  0  0  0  0
 35  6  1  0  0  0  0
 36 35  1  0  0  0  0
 37 35  1  0  0  0  0
 38 37  2  0  0  0  0
 39 41  1  0  0  0  0
 39 37  1  0  0  0  0
 40 39  1  0  0  0  0
M  END
>  <minimizedAffinity>
-6.0636487

$$$$

 OpenBabel03252507303D

 41 43  0  0  1  0  0  0  0  0999 V2000
   38.2170   28.1110   41.3470 C   0  0  2  0  0  0  0  0  0  0  0  0
   37.0130   27.1940   41.1970 C   0  0  0  0  0  0  0  0  0  0  0  0
   36.7380   26.5590   42.5330 C   0  0  0  0  0  0  0  0  0  0  0  0
   36.6380   27.5290   43.6590 C   0  0  0  0  0  0  0  0  0  0  0  0
   37.7560   28.4950   43.6760 C   0  0  0  0  0  0  0  0  0  0  0  0
   37.9130   29.1710   42.3250 C   0  0  2  0  0  0  0  0  0  0  0  0
   39.0210   27.4400   41.7370 H   0  0  0  0  0  0  0  0  0  0  0  0
   36.1540   27.6270   40.6980 H   0  0  0  0  0  0  0  0  0  0  0  0
   37.3610   26.3590   40.5330 H   0  0  0  0  0  0  0  0  0  0  0  0
   37.6390   25.9120   42.7490 H   0  0  0  0  0  0  0  0  0  0  0  0
   35.8930   25.8650   42.5210 H   0  0  0  0  0  0  0  0  0  0  0  0
   36.7110   26.9240   44.6040 H   0  0  0  0  0  0  0  0  0  0  0  0
   35.6550   28.0520   43.6120 H   0  0  0  0  0  0  0  0  0  0  0  0
   38.7120   27.9470   43.8680 H   0  0  0  0  0  0  0  0  0  0  0  0
   37.6180   29.2340   44.5070 H   0  0  0  0  0  0  0  0  0  0  0  0
   38.8170   29.8130   42.5040 H   0  0  0  0  0  0  0  0  0  0  0  0
   38.6860   28.6400   40.0720 C   0  0  0  0  0  0  0  0  0  0  0  0
   38.5730   27.8330   38.9380 C   0  0  0  0  0  0  0  0  0  0  0  0
   39.0460   28.3290   37.7020 C   0  0  0  0  0  0  0  0  0  0  0  0
   39.5970   29.6060   37.7100 N   0  0  0  0  0  0  0  0  0  0  0  0
   39.6720   30.3240   38.8400 C   0  0  0  0  0  0  0  0  0  0  0  0
   39.2280   29.8600   40.0100 N   0  0  0  0  0  0  0  0  0  0  0  0
   38.1770   26.8880   38.7790 H   0  0  0  0  0  0  0  0  0  0  0  0
   39.0330   27.8410   36.7510 H   0  0  0  0  0  0  0  0  0  0  0  0
   40.2650   31.6640   38.7650 C   0  0  0  0  0  0  0  0  0  0  0  0
   41.1870   31.9890   37.8100 C   0  0  0  0  0  0  0  0  0  0  0  0
   41.7790   33.2260   37.6870 C   0  0  0  0  0  0  0  0  0  0  0  0
   41.3720   34.1600   38.6190 C   0  0  0  0  0  0  0  0  0  0  0  0
   40.4390   33.8590   39.5970 C   0  0  0  0  0  0  0  0  0  0  0  0
   39.8890   32.6080   39.6640 N   0  0  0  0  0  0  0  0  0  0  0  0
   41.4400   31.2040   37.1350 H   0  0  0  0  0  0  0  0  0  0  0  0
   42.4890   33.3720   36.9030 H   0  0  0  0  0  0  0  0  0  0  0  0
   41.8180   35.1510   38.5540 H   0  0  0  0  0  0  0  0  0  0  0  0
   40.1830   34.6550   40.2830 H   0  0  0  0  0  0  0  0  0  0  0  0
   36.7460   29.9030   42.0030 N   0  0  0  0  0  0  0  0  0  0  0  0
   35.9660   29.8910   42.7240 H   0  0  0  0  0  0  0  0  0  0  0  0
   36.2680   30.7240   40.9110 C   0  0  0  0  0  0  0  0  0  0  0  0
   35.4050   30.1490   40.1730 O   0  0  0  0  0  0  0  0  0  0  0  0
   36.6740   32.0490   40.6270 N   0  0  0  0  0  0  0  0  0  0  0  0
   35.9370   32.7580   40.3790 H   0  0  0  0  0  0  0  0  0  0  0  0
   37.6170   32.4940   40.6110 H   0  0  0  0  0  0  0  0  0  0  0  0
  1  7  1  1  0  0  0
  1  6  1  0  0  0  0
  2  1  1  0  0  0  0
  2  3  1  0  0  0  0
  3 10  1  0  0  0  0
  3  4  1  0  0  0  0
  4  5  1  0  0  0  0
  4 12  1  0  0  0  0
  5 14  1  0  0  0  0
  5 15  1  0  0  0  0
  6 16  1  1  0  0  0
  6  5  1  0  0  0  0
  8  2  1  0  0  0  0
  9  2  1  0  0  0  0
 11  3  1  0  0  0  0
 13  4  1  0  0  0  0
 17  1  1  0  0  0  0
 18 17  2  0  0  0  0
 19 20  2  0  0  0  0
 19 18  1  0  0  0  0
 20 21  1  0  0  0  0
 21 22  2  0  0  0  0
 22 17  1  0  0  0  0
 23 18  1  0  0  0  0
 24 19  1  0  0  0  0
 25 21  1  0  0  0  0
 25 30  1  0  0  0  0
 26 25  2  0  0  0  0
 27 26  1  0  0  0  0
 27 28  2  0  0  0  0
 28 29  1  0  0  0  0
 29 30  2  0  0  0  0
 29 34  1  0  0  0  0
 31 26  1  0  0  0  0
 32 27  1  0  0  0  0
 33 28  1  0  0  0  0
 35  6  1  0  0  0  0
 35 36  1  0  0  0  0
 37 35  1  0  0  0  0
 38 37  2  0  0  0  0
 39 37  1  0  0  0  0
 40 39  1  0  0  0  0
 41 39  1  0  0  0  0
M  END
>  <minimizedAffinity>
-6.00915527

$$$$

 OpenBabel03252507303D

 41 43  0  0  1  0  0  0  0  0999 V2000
   38.0210   31.3370   38.7790 C   0  0  2  0  0  0  0  0  0  0  0  0
   39.1550   31.1260   39.7700 C   0  0  0  0  0  0  0  0  0  0  0  0
   39.7540   32.4690   40.0900 C   0  0  0  0  0  0  0  0  0  0  0  0
   38.7590   33.4970   40.5010 C   0  0  0  0  0  0  0  0  0  0  0  0
   37.6000   33.5620   39.5870 C   0  0  0  0  0  0  0  0  0  0  0  0
   36.9830   32.1880   39.3880 C   0  0  2  0  0  0  0  0  0  0  0  0
   38.5060   31.8660   37.9220 H   0  0  0  0  0  0  0  0  0  0  0  0
   38.9200   30.5020   40.6240 H   0  0  0  0  0  0  0  0  0  0  0  0
   39.9460   30.5720   39.1970 H   0  0  0  0  0  0  0  0  0  0  0  0
   40.2060   32.8330   39.1210 H   0  0  0  0  0  0  0  0  0  0  0  0
   40.5950   32.4170   40.7870 H   0  0  0  0  0  0  0  0  0  0  0  0
   39.2840   34.4890   40.4390 H   0  0  0  0  0  0  0  0  0  0  0  0
   38.4330   33.3000   41.5490 H   0  0  0  0  0  0  0  0  0  0  0  0
   37.9460   33.9020   38.5790 H   0  0  0  0  0  0  0  0  0  0  0  0
   36.8540   34.3130   39.9570 H   0  0  0  0  0  0  0  0  0  0  0  0
   36.1740   32.4160   38.6430 H   0  0  0  0  0  0  0  0  0  0  0  0
   37.4860   30.0850   38.2580 C   0  0  0  0  0  0  0  0  0  0  0  0
   37.0030   30.0650   36.9470 C   0  0  0  0  0  0  0  0  0  0  0  0
   36.4640   28.8610   36.4420 C   0  0  0  0  0  0  0  0  0  0  0  0
   36.4550   27.7680   37.3020 N   0  0  0  0  0  0  0  0  0  0  0  0
   36.9380   27.8620   38.5490 C   0  0  0  0  0  0  0  0  0  0  0  0
   37.4480   28.9970   39.0330 N   0  0  0  0  0  0  0  0  0  0  0  0
   36.9610   30.7800   36.1990 H   0  0  0  0  0  0  0  0  0  0  0  0
   36.0560   28.6820   35.4700 H   0  0  0  0  0  0  0  0  0  0  0  0
   36.8960   26.6630   39.3960 C   0  0  0  0  0  0  0  0  0  0  0  0
   36.6750   25.4210   38.8710 C   0  0  0  0  0  0  0  0  0  0  0  0
   36.6250   24.2600   39.6090 C   0  0  0  0  0  0  0  0  0  0  0  0
   36.8190   24.4260   40.9660 C   0  0  0  0  0  0  0  0  0  0  0  0
   37.0450   25.6730   41.5250 C   0  0  0  0  0  0  0  0  0  0  0  0
   37.0820   26.7880   40.7330 N   0  0  0  0  0  0  0  0  0  0  0  0
   36.5360   25.3910   37.8140 H   0  0  0  0  0  0  0  0  0  0  0  0
   36.4450   23.3410   39.0960 H   0  0  0  0  0  0  0  0  0  0  0  0
   36.7860   23.5300   41.5840 H   0  0  0  0  0  0  0  0  0  0  0  0
   37.1850   25.7050   42.5970 H   0  0  0  0  0  0  0  0  0  0  0  0
   36.5040   31.6820   40.6180 N   0  0  0  0  0  0  0  0  0  0  0  0
   36.2740   32.3990   41.3680 H   0  0  0  0  0  0  0  0  0  0  0  0
   36.2070   30.3890   41.1970 C   0  0  0  0  0  0  0  0  0  0  0  0
   37.0730   29.9920   42.0410 O   0  0  0  0  0  0  0  0  0  0  0  0
   35.0810   29.5850   40.9050 N   0  0  0  0  0  0  0  0  0  0  0  0
   34.5690   29.1280   41.7030 H   0  0  0  0  0  0  0  0  0  0  0  0
   34.6260   29.3360   40.0000 H   0  0  0  0  0  0  0  0  0  0  0  0
  1  7  1  6  0  0  0
  1  6  1  0  0  0  0
  1  2  1  0  0  0  0
  2  3  1  0  0  0  0
  2  8  1  0  0  0  0
  3  4  1  0  0  0  0
  3 11  1  0  0  0  0
  4 13  1  0  0  0  0
  5 15  1  0  0  0  0
  5  4  1  0  0  0  0
  6 16  1  6  0  0  0
  6  5  1  0  0  0  0
  6 35  1  0  0  0  0
  9  2  1  0  0  0  0
 10  3  1  0  0  0  0
 12  4  1  0  0  0  0
 14  5  1  0  0  0  0
 17  1  1  0  0  0  0
 17 22  1  0  0  0  0
 18 17  2  0  0  0  0
 19 18  1  0  0  0  0
 19 20  2  0  0  0  0
 20 21  1  0  0  0  0
 21 22  2  0  0  0  0
 21 25  1  0  0  0  0
 23 18  1  0  0  0  0
 24 19  1  0  0  0  0
 25 30  1  0  0  0  0
 26 25  2  0  0  0  0
 26 27  1  0  0  0  0
 27 28  2  0  0  0  0
 28 29  1  0  0  0  0
 28 33  1  0  0  0  0
 29 34  1  0  0  0  0
 30 29  2  0  0  0  0
 31 26  1  0  0  0  0
 32 27  1  0  0  0  0
 35 37  1  0  0  0  0
 35 36  1  0  0  0  0
 37 38  2  0  0  0  0
 39 37  1  0  0  0  0
 39 40  1  0  0  0  0
 41 39  1  0  0  0  0
M  END
>  <minimizedAffinity>
-5.75378466

$$$$

 OpenBabel03252507303D

 41 43  0  0  1  0  0  0  0  0999 V2000
   37.7010   25.6310   40.7280 C   0  0  2  0  0  0  0  0  0  0  0  0
   36.9290   24.4430   41.2790 C   0  0  0  0  0  0  0  0  0  0  0  0
   36.9730   23.3390   40.2560 C   0  0  0  0  0  0  0  0  0  0  0  0
   38.3420   23.0140   39.7700 C   0  0  0  0  0  0  0  0  0  0  0  0
   39.1080   24.2180   39.3840 C   0  0  0  0  0  0  0  0  0  0  0  0
   39.1050   25.2480   40.5000 C   0  0  2  0  0  0  0  0  0  0  0  0
   37.1950   25.8540   39.7550 H   0  0  0  0  0  0  0  0  0  0  0  0
   37.1790   24.1520   42.2930 H   0  0  0  0  0  0  0  0  0  0  0  0
   35.8590   24.7780   41.3150 H   0  0  0  0  0  0  0  0  0  0  0  0
   36.4040   23.7350   39.3650 H   0  0  0  0  0  0  0  0  0  0  0  0
   36.4270   22.4420   40.5590 H   0  0  0  0  0  0  0  0  0  0  0  0
   38.2090   22.3960   38.8410 H   0  0  0  0  0  0  0  0  0  0  0  0
   38.8840   22.4270   40.5490 H   0  0  0  0  0  0  0  0  0  0  0  0
   38.6110   24.7020   38.5060 H   0  0  0  0  0  0  0  0  0  0  0  0
   40.1450   23.9350   39.0690 H   0  0  0  0  0  0  0  0  0  0  0  0
   39.6720   26.0920   40.0220 H   0  0  0  0  0  0  0  0  0  0  0  0
   37.5700   26.8240   41.5570 C   0  0  0  0  0  0  0  0  0  0  0  0
   37.1360   26.6700   42.8760 C   0  0  0  0  0  0  0  0  0  0  0  0
   36.9860   27.8220   43.6790 C   0  0  0  0  0  0  0  0  0  0  0  0
   37.2870   29.0430   43.0840 N   0  0  0  0  0  0  0  0  0  0  0  0
   37.7000   29.1140   41.8110 C   0  0  0  0  0  0  0  0  0  0  0  0
   37.8420   28.0280   41.0470 N   0  0  0  0  0  0  0  0  0  0  0  0
   36.8970   25.8400   43.4480 H   0  0  0  0  0  0  0  0  0  0  0  0
   36.6660   27.8750   44.6970 H   0  0  0  0  0  0  0  0  0  0  0  0
   38.0000   30.4390   41.2570 C   0  0  0  0  0  0  0  0  0  0  0  0
   37.1030   31.1110   40.4740 C   0  0  0  0  0  0  0  0  0  0  0  0
   37.3240   32.3540   39.9270 C   0  0  0  0  0  0  0  0  0  0  0  0
   38.5520   32.9100   40.2250 C   0  0  0  0  0  0  0  0  0  0  0  0
   39.4800   32.2530   41.0160 C   0  0  0  0  0  0  0  0  0  0  0  0
   39.1970   31.0170   41.5290 N   0  0  0  0  0  0  0  0  0  0  0  0
   36.1820   30.6030   40.2980 H   0  0  0  0  0  0  0  0  0  0  0  0
   36.5530   32.7880   39.3280 H   0  0  0  0  0  0  0  0  0  0  0  0
   38.7640   33.8940   39.8090 H   0  0  0  0  0  0  0  0  0  0  0  0
   40.4150   32.7670   41.1940 H   0  0  0  0  0  0  0  0  0  0  0  0
   39.7290   24.7220   41.6550 N   0  0  0  0  0  0  0  0  0  0  0  0
   39.3540   23.7960   42.0160 H   0  0  0  0  0  0  0  0  0  0  0  0
   40.8040   25.0930   42.5500 C   0  0  0  0  0  0  0  0  0  0  0  0
   40.4080   25.5320   43.6770 O   0  0  0  0  0  0  0  0  0  0  0  0
   42.1880   25.0030   42.2710 N   0  0  0  0  0  0  0  0  0  0  0  0
   42.8270   24.6140   43.0110 H   0  0  0  0  0  0  0  0  0  0  0  0
   42.7400   25.2620   41.4240 H   0  0  0  0  0  0  0  0  0  0  0  0
  1  7  1  6  0  0  0
  1  2  1  0  0  0  0
  1 17  1  0  0  0  0
  2  9  1  0  0  0  0
  2  8  1  0  0  0  0
  3 11  1  0  0  0  0
  3  2  1  0  0  0  0
  4  3  1  0  0  0  0
  4 13  1  0  0  0  0
  5  4  1  0  0  0  0
  5  6  1  0  0  0  0
  6 16  1  6  0  0  0
  6  1  1  0  0  0  0
  6 35  1  0  0  0  0
 10  3  1  0  0  0  0
 12  4  1  0  0  0  0
 14  5  1  0  0  0  0
 15  5  1  0  0  0  0
 17 18  1  0  0  0  0
 18 23  1  0  0  0  0
 18 19  2  0  0  0  0
 19 24  1  0  0  0  0
 20 19  1  0  0  0  0
 21 20  2  0  0  0  0
 22 17  2  0  0  0  0
 22 21  1  0  0  0  0
 25 30  1  0  0  0  0
 25 21  1  0  0  0  0
 26 25  2  0  0  0  0
 27 28  2  0  0  0  0
 27 26  1  0  0  0  0
 28 29  1  0  0  0  0
 29 34  1  0  0  0  0
 29 30  2  0  0  0  0
 31 26  1  0  0  0  0
 32 27  1  0  0  0  0
 33 28  1  0  0  0  0
 35 36  1  0  0  0  0
 35 37  1  0  0  0  0
 37 38  2  0  0  0  0
 39 37  1  0  0  0  0
 39 40  1  0  0  0  0
 41 39  1  0  0  0  0
M  END
>  <minimizedAffinity>
-5.65248251

$$$$

 OpenBabel03252507303D

 41 43  0  0  1  0  0  0  0  0999 V2000
   36.5930   29.0410   37.9740 C   0  0  2  0  0  0  0  0  0  0  0  0
   37.2060   27.7400   37.4800 C   0  0  0  0  0  0  0  0  0  0  0  0
   36.7760   27.5310   36.0530 C   0  0  0  0  0  0  0  0  0  0  0  0
   37.0180   28.7030   35.1660 C   0  0  0  0  0  0  0  0  0  0  0  0
   36.5370   29.9690   35.7560 C   0  0  0  0  0  0  0  0  0  0  0  0
   37.0890   30.1640   37.1580 C   0  0  2  0  0  0  0  0  0  0  0  0
   35.4950   28.8990   37.8160 H   0  0  0  0  0  0  0  0  0  0  0  0
   38.2650   27.6190   37.6730 H   0  0  0  0  0  0  0  0  0  0  0  0
   36.6960   26.9330   38.0690 H   0  0  0  0  0  0  0  0  0  0  0  0
   35.6560   27.3900   36.0950 H   0  0  0  0  0  0  0  0  0  0  0  0
   37.1570   26.6050   35.6130 H   0  0  0  0  0  0  0  0  0  0  0  0
   36.4160   28.5230   34.2340 H   0  0  0  0  0  0  0  0  0  0  0  0
   38.1040   28.7630   34.9180 H   0  0  0  0  0  0  0  0  0  0  0  0
   35.4240   29.9260   35.8580 H   0  0  0  0  0  0  0  0  0  0  0  0
   36.7790   30.8300   35.0800 H   0  0  0  0  0  0  0  0  0  0  0  0
   36.5880   31.1220   37.4600 H   0  0  0  0  0  0  0  0  0  0  0  0
   36.7930   29.2530   39.4020 C   0  0  0  0  0  0  0  0  0  0  0  0
   36.1760   30.3540   40.0020 C   0  0  0  0  0  0  0  0  0  0  0  0
   36.3820   30.5790   41.3810 C   0  0  0  0  0  0  0  0  0  0  0  0
   37.1970   29.6700   42.0490 N   0  0  0  0  0  0  0  0  0  0  0  0
   37.7540   28.6330   41.4060 C   0  0  0  0  0  0  0  0  0  0  0  0
   37.5640   28.4170   40.1030 N   0  0  0  0  0  0  0  0  0  0  0  0
   35.5420   31.0910   39.6430 H   0  0  0  0  0  0  0  0  0  0  0  0
   35.9870   31.3680   41.9830 H   0  0  0  0  0  0  0  0  0  0  0  0
   38.5990   27.7170   42.1820 C   0  0  0  0  0  0  0  0  0  0  0  0
   39.6490   28.1680   42.9310 C   0  0  0  0  0  0  0  0  0  0  0  0
   40.4760   27.3620   43.6790 C   0  0  0  0  0  0  0  0  0  0  0  0
   40.1740   26.0150   43.6310 C   0  0  0  0  0  0  0  0  0  0  0  0
   39.1150   25.5300   42.8810 C   0  0  0  0  0  0  0  0  0  0  0  0
   38.3320   26.3870   42.1590 N   0  0  0  0  0  0  0  0  0  0  0  0
   39.8060   29.2230   42.9060 H   0  0  0  0  0  0  0  0  0  0  0  0
   41.2700   27.8200   44.2270 H   0  0  0  0  0  0  0  0  0  0  0  0
   40.8070   25.3450   44.2100 H   0  0  0  0  0  0  0  0  0  0  0  0
   38.9560   24.4600   42.9040 H   0  0  0  0  0  0  0  0  0  0  0  0
   38.5000   30.2410   37.1230 N   0  0  0  0  0  0  0  0  0  0  0  0
   39.0080   29.4280   36.6650 H   0  0  0  0  0  0  0  0  0  0  0  0
   39.5290   31.1650   37.5490 C   0  0  0  0  0  0  0  0  0  0  0  0
   40.1590   30.7900   38.5900 O   0  0  0  0  0  0  0  0  0  0  0  0
   39.8630   32.3880   36.9210 N   0  0  0  0  0  0  0  0  0  0  0  0
   40.8800   32.6230   36.7850 H   0  0  0  0  0  0  0  0  0  0  0  0
   39.2660   33.1550   36.5410 H   0  0  0  0  0  0  0  0  0  0  0  0
  1  7  1  6  0  0  0
  1 17  1  0  0  0  0
  2  8  1  0  0  0  0
  2  1  1  0  0  0  0
  2  9  1  0  0  0  0
  3 10  1  0  0  0  0
  3  2  1  0  0  0  0
  4  5  1  0  0  0  0
  4  3  1  0  0  0  0
  5 14  1  0  0  0  0
  5  6  1  0  0  0  0
  6 16  1  1  0  0  0
  6  1  1  0  0  0  0
 11  3  1  0  0  0  0
 12  4  1  0  0  0  0
 13  4  1  0  0  0  0
 15  5  1  0  0  0  0
 17 18  2  0  0  0  0
 17 22  1  0  0  0  0
 18 19  1  0  0  0  0
 19 24  1  0  0  0  0
 19 20  2  0  0  0  0
 21 20  1  0  0  0  0
 21 25  1  0  0  0  0
 22 21  2  0  0  0  0
 23 18  1  0  0  0  0
 25 26  1  0  0  0  0
 26 27  2  0  0  0  0
 27 32  1  0  0  0  0
 28 27  1  0  0  0  0
 28 33  1  0  0  0  0
 29 34  1  0  0  0  0
 29 28  2  0  0  0  0
 30 25  2  0  0  0  0
 30 29  1  0  0  0  0
 31 26  1  0  0  0  0
 35  6  1  0  0  0  0
 35 37  1  0  0  0  0
 36 35  1  0  0  0  0
 37 38  2  0  0  0  0
 39 37  1  0  0  0  0
 40 39  1  0  0  0  0
 41 39  1  0  0  0  0
M  END
>  <minimizedAffinity>
-5.64151382

$$$$

 OpenBabel03252507303D

 41 43  0  0  1  0  0  0  0  0999 V2000
   38.4280   32.0450   38.8530 C   0  0  2  0  0  0  0  0  0  0  0  0
   39.5320   31.8950   39.8880 C   0  0  0  0  0  0  0  0  0  0  0  0
   39.9660   33.2720   40.3140 C   0  0  0  0  0  0  0  0  0  0  0  0
   38.8460   34.1610   40.7300 C   0  0  0  0  0  0  0  0  0  0  0  0
   37.7300   34.1590   39.7620 C   0  0  0  0  0  0  0  0  0  0  0  0
   37.2770   32.7430   39.4530 C   0  0  2  0  0  0  0  0  0  0  0  0
   38.8910   32.6750   38.0530 H   0  0  0  0  0  0  0  0  0  0  0  0
   39.3270   31.1980   40.6920 H   0  0  0  0  0  0  0  0  0  0  0  0
   40.4030   31.4650   39.3270 H   0  0  0  0  0  0  0  0  0  0  0  0
   40.4190   33.7420   39.3930 H   0  0  0  0  0  0  0  0  0  0  0  0
   40.7730   33.2670   41.0510 H   0  0  0  0  0  0  0  0  0  0  0  0
   39.2630   35.2050   40.7510 H   0  0  0  0  0  0  0  0  0  0  0  0
   38.4950   33.8660   41.7470 H   0  0  0  0  0  0  0  0  0  0  0  0
   38.0830   34.5960   38.7940 H   0  0  0  0  0  0  0  0  0  0  0  0
   36.8910   34.8030   40.1340 H   0  0  0  0  0  0  0  0  0  0  0  0
   36.4820   32.9290   38.6820 H   0  0  0  0  0  0  0  0  0  0  0  0
   38.0580   30.7780   38.2340 C   0  0  0  0  0  0  0  0  0  0  0  0
   39.0500   29.8110   38.0580 C   0  0  0  0  0  0  0  0  0  0  0  0
   38.7050   28.5890   37.4400 C   0  0  0  0  0  0  0  0  0  0  0  0
   37.3790   28.4390   37.0480 N   0  0  0  0  0  0  0  0  0  0  0  0
   36.4790   29.4120   37.2510 C   0  0  0  0  0  0  0  0  0  0  0  0
   36.8000   30.5690   37.8330 N   0  0  0  0  0  0  0  0  0  0  0  0
   40.0550   29.7760   38.3110 H   0  0  0  0  0  0  0  0  0  0  0  0
   39.3410   27.7560   37.2330 H   0  0  0  0  0  0  0  0  0  0  0  0
   35.0990   29.1760   36.8110 C   0  0  0  0  0  0  0  0  0  0  0  0
   34.7860   28.9950   35.4920 C   0  0  0  0  0  0  0  0  0  0  0  0
   33.5150   28.7700   35.0170 C   0  0  0  0  0  0  0  0  0  0  0  0
   32.5300   28.7330   35.9840 C   0  0  0  0  0  0  0  0  0  0  0  0
   32.8180   28.9120   37.3270 C   0  0  0  0  0  0  0  0  0  0  0  0
   34.1050   29.1330   37.7330 N   0  0  0  0  0  0  0  0  0  0  0  0
   35.6110   29.0400   34.8180 H   0  0  0  0  0  0  0  0  0  0  0  0
   33.3830   28.6430   33.9650 H   0  0  0  0  0  0  0  0  0  0  0  0
   31.5100   28.5570   35.6460 H   0  0  0  0  0  0  0  0  0  0  0  0
   31.9820   28.8670   38.0120 H   0  0  0  0  0  0  0  0  0  0  0  0
   36.8000   32.1140   40.6260 N   0  0  0  0  0  0  0  0  0  0  0  0
   36.6650   32.7360   41.4770 H   0  0  0  0  0  0  0  0  0  0  0  0
   36.4060   30.7830   41.0390 C   0  0  0  0  0  0  0  0  0  0  0  0
   37.2630   30.1990   41.7770 O   0  0  0  0  0  0  0  0  0  0  0  0
   35.2000   30.1280   40.6980 N   0  0  0  0  0  0  0  0  0  0  0  0
   34.6790   29.6100   41.4510 H   0  0  0  0  0  0  0  0  0  0  0  0
   34.6900   30.0480   39.7910 H   0  0  0  0  0  0  0  0  0  0  0  0
  1  7  1  6  0  0  0
  1  6  1  0  0  0  0
  1  2  1  0  0  0  0
  2  3  1  0  0  0  0
  2  8  1  0  0  0  0
  3  4  1  0  0  0  0
  3 11  1  0  0  0  0
  4 12  1  0  0  0  0
  4 13  1  0  0  0  0
  5 15  1  0  0  0  0
  5  4  1  0  0  0  0
  6 16  1  6  0  0  0
  6  5  1  0  0  0  0
  6 35  1  0  0  0  0
  9  2  1  0  0  0  0
 10  3  1  0  0  0  0
 14  5  1  0  0  0  0
 17  1  1  0  0  0  0
 18 17  1  0  0  0  0
 18 23  1  0  0  0  0
 19 18  2  0  0  0  0
 20 21  2  0  0  0  0
 20 19  1  0  0  0  0
 21 22  1  0  0  0  0
 22 17  2  0  0  0  0
 24 19  1  0  0  0  0
 25 21  1  0  0  0  0
 25 30  1  0  0  0  0
 26 25  2  0  0  0  0
 27 26  1  0  0  0  0
 27 28  2  0  0  0  0
 28 29  1  0  0  0  0
 29 30  2  0  0  0  0
 29 34  1  0  0  0  0
 31 26  1  0  0  0  0
 32 27  1  0  0  0  0
 33 28  1  0  0  0  0
 35 37  1  0  0  0  0
 35 36  1  0  0  0  0
 37 38  2  0  0  0  0
 39 37  1  0  0  0  0
 39 40  1  0  0  0  0
 41 39  1  0  0  0  0
M  END
>  <minimizedAffinity>
-5.60120201

$$$$

 OpenBabel03252507303D

 41 43  0  0  1  0  0  0  0  0999 V2000
   39.2330   32.0540   39.2620 C   0  0  2  0  0  0  0  0  0  0  0  0
   40.0110   31.2780   38.2110 C   0  0  0  0  0  0  0  0  0  0  0  0
   40.7330   32.2670   37.3360 C   0  0  0  0  0  0  0  0  0  0  0  0
   41.5400   33.2680   38.0870 C   0  0  0  0  0  0  0  0  0  0  0  0
   40.7850   33.8900   39.1940 C   0  0  0  0  0  0  0  0  0  0  0  0
   40.1660   32.8340   40.0940 C   0  0  2  0  0  0  0  0  0  0  0  0
   38.5800   32.7370   38.6640 H   0  0  0  0  0  0  0  0  0  0  0  0
   40.6120   30.4570   38.5850 H   0  0  0  0  0  0  0  0  0  0  0  0
   39.2310   30.8080   37.5550 H   0  0  0  0  0  0  0  0  0  0  0  0
   39.9210   32.8450   36.8050 H   0  0  0  0  0  0  0  0  0  0  0  0
   41.3110   31.7990   36.5340 H   0  0  0  0  0  0  0  0  0  0  0  0
   41.7880   34.0860   37.3560 H   0  0  0  0  0  0  0  0  0  0  0  0
   42.4750   32.7880   38.4580 H   0  0  0  0  0  0  0  0  0  0  0  0
   39.9350   34.4820   38.7710 H   0  0  0  0  0  0  0  0  0  0  0  0
   41.4410   34.6010   39.7610 H   0  0  0  0  0  0  0  0  0  0  0  0
   39.6030   33.4720   40.8260 H   0  0  0  0  0  0  0  0  0  0  0  0
   38.3490   31.2060   40.0520 C   0  0  0  0  0  0  0  0  0  0  0  0
   37.0360   31.6320   40.2650 C   0  0  0  0  0  0  0  0  0  0  0  0
   36.1800   30.8260   41.0470 C   0  0  0  0  0  0  0  0  0  0  0  0
   36.7190   29.6490   41.5550 N   0  0  0  0  0  0  0  0  0  0  0  0
   37.9910   29.3030   41.3080 C   0  0  0  0  0  0  0  0  0  0  0  0
   38.8040   30.0610   40.5700 N   0  0  0  0  0  0  0  0  0  0  0  0
   36.5010   32.4580   39.9420 H   0  0  0  0  0  0  0  0  0  0  0  0
   35.1580   31.0090   41.3020 H   0  0  0  0  0  0  0  0  0  0  0  0
   38.4840   28.0440   41.8770 C   0  0  0  0  0  0  0  0  0  0  0  0
   39.1140   28.0020   43.0890 C   0  0  0  0  0  0  0  0  0  0  0  0
   39.5990   26.8550   43.6770 C   0  0  0  0  0  0  0  0  0  0  0  0
   39.4040   25.7000   42.9440 C   0  0  0  0  0  0  0  0  0  0  0  0
   38.7690   25.7140   41.7140 C   0  0  0  0  0  0  0  0  0  0  0  0
   38.3110   26.8890   41.1860 N   0  0  0  0  0  0  0  0  0  0  0  0
   39.2190   28.9420   43.5810 H   0  0  0  0  0  0  0  0  0  0  0  0
   40.0760   26.9360   44.6290 H   0  0  0  0  0  0  0  0  0  0  0  0
   39.7740   24.7720   43.3770 H   0  0  0  0  0  0  0  0  0  0  0  0
   38.6630   24.7600   41.2130 H   0  0  0  0  0  0  0  0  0  0  0  0
   41.1760   32.0400   40.6850 N   0  0  0  0  0  0  0  0  0  0  0  0
   41.6650   31.3440   40.0490 H   0  0  0  0  0  0  0  0  0  0  0  0
   41.7890   31.8880   41.9870 C   0  0  0  0  0  0  0  0  0  0  0  0
   41.4180   30.8440   42.6130 O   0  0  0  0  0  0  0  0  0  0  0  0
   42.7210   32.7730   42.5770 N   0  0  0  0  0  0  0  0  0  0  0  0
   43.5650   32.3680   43.0590 H   0  0  0  0  0  0  0  0  0  0  0  0
   42.7430   33.8150   42.6360 H   0  0  0  0  0  0  0  0  0  0  0  0
  1  7  1  6  0  0  0
  1 17  1  0  0  0  0
  1  6  1  0  0  0  0
  2  8  1  0  0  0  0
  2  1  1  0  0  0  0
  3  4  1  0  0  0  0
  3  2  1  0  0  0  0
  4 13  1  0  0  0  0
  4  5  1  0  0  0  0
  5 15  1  0  0  0  0
  5  6  1  0  0  0  0
  6 35  1  0  0  0  0
  6 16  1  1  0  0  0
  9  2  1  0  0  0  0
 10  3  1  0  0  0  0
 11  3  1  0  0  0  0
 12  4  1  0  0  0  0
 14  5  1  0  0  0  0
 17 18  2  0  0  0  0
 17 22  1  0  0  0  0
 18 19  1  0  0  0  0
 19 24  1  0  0  0  0
 19 20  2  0  0  0  0
 21 20  1  0  0  0  0
 21 25  1  0  0  0  0
 22 21  2  0  0  0  0
 23 18  1  0  0  0  0
 25 26  1  0  0  0  0
 26 31  1  0  0  0  0
 26 27  2  0  0  0  0
 27 32  1  0  0  0  0
 28 33  1  0  0  0  0
 28 27  1  0  0  0  0
 29 28  2  0  0  0  0
 30 29  1  0  0  0  0
 30 25  2  0  0  0  0
 34 29  1  0  0  0  0
 35 37  1  0  0  0  0
 36 35  1  0  0  0  0
 37 39  1  0  0  0  0
 37 38  2  0  0  0  0
 39 41  1  0  0  0  0
 39 40  1  0  0  0  0
M  END
>  <minimizedAffinity>
-5.48836946

$$$$

 OpenBabel03252507303D

 41 43  0  0  1  0  0  0  0  0999 V2000
   39.6690   32.1490   40.4390 C   0  0  2  0  0  0  0  0  0  0  0  0
   39.1410   33.4420   41.0420 C   0  0  0  0  0  0  0  0  0  0  0  0
   38.3290   34.1520   39.9920 C   0  0  0  0  0  0  0  0  0  0  0  0
   37.2900   33.3010   39.3480 C   0  0  0  0  0  0  0  0  0  0  0  0
   37.8200   31.9930   38.9100 C   0  0  0  0  0  0  0  0  0  0  0  0
   38.5400   31.2880   40.0460 C   0  0  2  0  0  0  0  0  0  0  0  0
   40.2360   32.4850   39.5350 H   0  0  0  0  0  0  0  0  0  0  0  0
   38.6700   33.3470   42.0130 H   0  0  0  0  0  0  0  0  0  0  0  0
   40.0480   34.0820   41.2050 H   0  0  0  0  0  0  0  0  0  0  0  0
   39.0640   34.4260   39.1800 H   0  0  0  0  0  0  0  0  0  0  0  0
   37.9180   35.1070   40.3300 H   0  0  0  0  0  0  0  0  0  0  0  0
   36.9620   33.8500   38.4230 H   0  0  0  0  0  0  0  0  0  0  0  0
   36.4300   33.1730   40.0450 H   0  0  0  0  0  0  0  0  0  0  0  0
   38.5800   32.1550   38.1060 H   0  0  0  0  0  0  0  0  0  0  0  0
   36.9980   31.3670   38.4740 H   0  0  0  0  0  0  0  0  0  0  0  0
   38.9120   30.3620   39.5300 H   0  0  0  0  0  0  0  0  0  0  0  0
   40.6210   31.4690   41.3080 C   0  0  0  0  0  0  0  0  0  0  0  0
   41.7670   32.1610   41.7070 C   0  0  0  0  0  0  0  0  0  0  0  0
   42.7050   31.5000   42.5320 C   0  0  0  0  0  0  0  0  0  0  0  0
   42.4100   30.1890   42.8900 N   0  0  0  0  0  0  0  0  0  0  0  0
   41.2880   29.5890   42.4690 C   0  0  0  0  0  0  0  0  0  0  0  0
   40.3990   30.2070   41.6890 N   0  0  0  0  0  0  0  0  0  0  0  0
   42.1050   33.1250   41.5380 H   0  0  0  0  0  0  0  0  0  0  0  0
   43.6230   31.8860   42.9200 H   0  0  0  0  0  0  0  0  0  0  0  0
   41.0470   28.2040   42.8930 C   0  0  0  0  0  0  0  0  0  0  0  0
   39.8040   27.7700   43.2590 C   0  0  0  0  0  0  0  0  0  0  0  0
   39.5140   26.4870   43.6640 C   0  0  0  0  0  0  0  0  0  0  0  0
   40.5930   25.6250   43.6800 C   0  0  0  0  0  0  0  0  0  0  0  0
   41.8630   26.0380   43.3130 C   0  0  0  0  0  0  0  0  0  0  0  0
   42.0830   27.3290   42.9210 N   0  0  0  0  0  0  0  0  0  0  0  0
   39.0340   28.5070   43.2150 H   0  0  0  0  0  0  0  0  0  0  0  0
   38.5060   26.2560   43.9290 H   0  0  0  0  0  0  0  0  0  0  0  0
   40.4030   24.6000   43.9950 H   0  0  0  0  0  0  0  0  0  0  0  0
   42.6460   25.2920   43.3580 H   0  0  0  0  0  0  0  0  0  0  0  0
   37.6450   31.0300   41.1100 N   0  0  0  0  0  0  0  0  0  0  0  0
   37.6870   31.6950   41.9370 H   0  0  0  0  0  0  0  0  0  0  0  0
   36.6120   30.0660   41.4260 C   0  0  0  0  0  0  0  0  0  0  0  0
   36.9650   29.1970   42.2860 O   0  0  0  0  0  0  0  0  0  0  0  0
   35.3100   30.0300   40.8740 N   0  0  0  0  0  0  0  0  0  0  0  0
   34.4950   29.8640   41.5180 H   0  0  0  0  0  0  0  0  0  0  0  0
   34.9730   30.1400   39.8930 H   0  0  0  0  0  0  0  0  0  0  0  0
  1  7  1  6  0  0  0
  1  2  1  0  0  0  0
  1 17  1  0  0  0  0
  2  9  1  0  0  0  0
  2  8  1  0  0  0  0
  3 11  1  0  0  0  0
  3  2  1  0  0  0  0
  4  3  1  0  0  0  0
  4 13  1  0  0  0  0
  5  4  1  0  0  0  0
  5  6  1  0  0  0  0
  6 16  1  6  0  0  0
  6  1  1  0  0  0  0
  6 35  1  0  0  0  0
 10  3  1  0  0  0  0
 12  4  1  0  0  0  0
 14  5  1  0  0  0  0
 15  5  1  0  0  0  0
 17 22  2  0  0  0  0
 17 18  1  0  0  0  0
 18 19  2  0  0  0  0
 19 20  1  0  0  0  0
 19 24  1  0  0  0  0
 21 20  2  0  0  0  0
 21 25  1  0  0  0  0
 22 21  1  0  0  0  0
 23 18  1  0  0  0  0
 25 30  2  0  0  0  0
 25 26  1  0  0  0  0
 26 27  2  0  0  0  0
 27 28  1  0  0  0  0
 27 32  1  0  0  0  0
 28 33  1  0  0  0  0
 29 34  1  0  0  0  0
 29 28  2  0  0  0  0
 30 29  1  0  0  0  0
 31 26  1  0  0  0  0
 35 37  1  0  0  0  0
 35 36  1  0  0  0  0
 37 38  2  0  0  0  0
 39 37  1  0  0  0  0
 39 40  1  0  0  0  0
 41 39  1  0  0  0  0
M  END
>  <minimizedAffinity>
-5.48458052

$$$$
