
     RDKit          3D

 41 43  0  0  0  0  0  0  0  0999 V2000
   42.8270   34.4906   38.7769 C   0  0  1  0  0  0  0  0  0  0  0  0
   42.9504   35.1621   40.1356 C   0  0  1  0  0  0  0  0  0  0  0  0
   41.6528   35.3763   40.6413 O   0  0  0  0  0  0  0  0  0  0  0  0
   40.7296   35.7020   39.6377 C   0  0  0  0  0  0  0  0  0  0  0  0
   40.4467   34.5218   38.7326 C   0  0  2  0  0  0  0  0  0  0  0  0
   41.6675   33.5571   38.8837 C   0  0  1  0  0  0  0  0  0  0  0  0
   42.6101   35.4428   37.7664 O   0  0  0  0  0  0  0  0  0  0  0  0
   40.4690   34.9252   37.4079 O   0  0  0  0  0  0  0  0  0  0  0  0
   43.4901   34.1857   40.9861 O   0  0  0  0  0  0  0  0  0  0  0  0
   44.5982   34.3350   41.7192 C   0  0  0  0  0  0  0  0  0  0  0  0
   45.8529   34.4483   41.1153 C   0  0  0  0  0  0  0  0  0  0  0  0
   46.9752   34.6028   41.9074 C   0  0  0  0  0  0  0  0  0  0  0  0
   46.8211   34.6409   43.2843 N   0  0  0  0  0  0  0  0  0  0  0  0
   45.5931   34.5279   43.8367 C   0  0  0  0  0  0  0  0  0  0  0  0
   44.4906   34.3761   43.0582 N   0  0  0  0  0  0  0  0  0  0  0  0
   48.3501   34.7099   41.3271 C   0  0  0  0  0  0  0  0  0  0  0  0
   49.0716   36.0425   41.5161 C   0  0  0  0  0  0  0  0  0  0  0  0
   49.5061   34.7118   42.1656 C   0  0  0  0  0  0  0  0  0  0  0  0
   41.5545   32.6018   37.9376 O   0  0  0  0  0  0  0  0  0  0  0  0
   40.9462   31.4181   37.9354 C   0  0  0  0  0  0  0  0  0  0  0  0
   39.6634   31.2772   37.6190 O   0  0  0  0  0  0  0  0  0  0  0  0
   43.7736   33.9600   38.5461 H   0  0  0  0  0  0  0  0  0  0  0  0
   43.5138   36.1089   40.0987 H   0  0  0  0  0  0  0  0  0  0  0  0
   41.0306   36.6035   39.0791 H   0  0  0  0  0  0  0  0  0  0  0  0
   39.8009   35.9384   40.1633 H   0  0  0  0  0  0  0  0  0  0  0  0
   39.5213   33.9851   39.0035 H   0  0  0  0  0  0  0  0  0  0  0  0
   41.4481   33.2792   39.9676 H   0  0  0  0  0  0  0  0  0  0  0  0
   43.1647   36.2525   37.9822 H   0  0  0  0  0  0  0  0  0  0  0  0
   40.5390   34.1853   36.7728 H   0  0  0  0  0  0  0  0  0  0  0  0
   45.9396   34.4154   40.0499 H   0  0  0  0  0  0  0  0  0  0  0  0
   45.4780   34.5575   44.9029 H   0  0  0  0  0  0  0  0  0  0  0  0
   48.3917   34.2857   40.2903 H   0  0  0  0  0  0  0  0  0  0  0  0
   49.7073   36.3405   40.6781 H   0  0  0  0  0  0  0  0  0  0  0  0
   48.5278   36.7767   42.1250 H   0  0  0  0  0  0  0  0  0  0  0  0
   50.4798   34.3021   41.8811 H   0  0  0  0  0  0  0  0  0  0  0  0
   49.3691   34.7328   43.2751 H   0  0  0  0  0  0  0  0  0  0  0  0
   41.0900   27.9322   38.4340 H   0  0  0  0  0  0  0  0  0  0  0  0
   40.6247   28.8776   38.1950 C   0  0  0  0  0  0  0  0  0  0  0  0
   39.4115   28.9809   37.8871 O   0  0  0  0  0  0  0  0  0  0  0  0
   41.3996   30.0573   38.2255 N   0  0  0  0  0  0  0  0  0  0  0  0
   42.3914   29.9294   38.4832 H   0  0  0  0  0  0  0  0  0  0  0  0
  1  6  1  0
  1  2  1  0
  2  3  1  0
  2  9  1  0
  4  3  1  0
  5  6  1  0
  5  4  1  0
  7  1  1  0
  8  5  1  0
  9 10  1  0
 10 15  1  0
 11 10  2  0
 11 12  1  0
 12 13  2  0
 13 14  1  0
 15 14  2  0
 16 17  1  0
 16 12  1  0
 16 18  1  0
 17 18  1  0
 19 20  1  0
 19  6  1  0
 21 20  2  0
  1 22  1  6
  2 23  1  6
  4 24  1  0
  4 25  1  0
  5 26  1  1
  6 27  1  1
  7 28  1  0
  8 29  1  0
 11 30  1  0
 14 31  1  0
 16 32  1  0
 17 33  1  0
 17 34  1  0
 18 35  1  0
 18 36  1  0
 37 38  1  0
 38 39  2  0
 38 40  1  0
 40 41  1  0
 20 40  1  0
M  ISO  8  22  13  23  13  24  13  25  13  26  13  27  13  28   3  29   3
M  ISO  8  30  14  31  14  32  13  33  13  34  13  35  13  36  13  37   1
M  END
>  <DihAtoms>  (1) 
18,19,39,37

>  <DihDeg>  (1) 
179.28915526722983

$$$$
