
 OpenBabel03242523133D

 42 45  0  0  1  0  0  0  0  0999 V2000
   37.9840   29.5900   42.6160 C   0  0  0  0  0  0  0  0  0  0  0  0
   37.6320   29.9060   41.3070 C   0  0  0  0  0  0  0  0  0  0  0  0
   36.8300   29.0560   40.6050 C   0  0  0  0  0  0  0  0  0  0  0  0
   36.4190   27.9250   41.2490 N   0  0  0  0  0  0  0  0  0  0  0  0
   36.7580   27.6220   42.5080 C   0  0  0  0  0  0  0  0  0  0  0  0
   37.5280   28.4460   43.1740 N   0  0  0  0  0  0  0  0  0  0  0  0
   38.6170   30.2560   43.1780 H   0  0  0  0  0  0  0  0  0  0  0  0
   36.4620   26.7440   43.0630 H   0  0  0  0  0  0  0  0  0  0  0  0
   38.1560   31.0840   40.7700 N   0  0  0  0  0  0  0  0  0  0  0  0
   39.5490   31.2360   40.4960 C   0  0  0  0  0  0  0  0  0  0  0  0
   39.9080   32.4990   39.7650 C   0  0  0  0  0  0  0  0  0  0  0  0
   39.0230   32.8770   38.7560 N   0  0  0  0  0  0  0  0  0  0  0  0
   37.6760   32.7660   39.0500 C   0  0  0  0  0  0  0  0  0  0  0  0
   37.4230   32.2420   40.4430 C   0  0  0  0  0  0  0  0  0  0  0  0
   40.0850   31.2790   41.4680 H   0  0  0  0  0  0  0  0  0  0  0  0
   39.9920   30.3700   39.9520 H   0  0  0  0  0  0  0  0  0  0  0  0
   40.9400   32.3880   39.3580 H   0  0  0  0  0  0  0  0  0  0  0  0
   39.9790   33.3230   40.5190 H   0  0  0  0  0  0  0  0  0  0  0  0
   39.3420   32.4900   37.8280 H   0  0  0  0  0  0  0  0  0  0  0  0
   37.1140   32.2160   38.2730 H   0  0  0  0  0  0  0  0  0  0  0  0
   37.2160   33.7980   39.0390 H   0  0  0  0  0  0  0  0  0  0  0  0
   36.3400   31.9810   40.4920 H   0  0  0  0  0  0  0  0  0  0  0  0
   37.5360   33.0780   41.1840 H   0  0  0  0  0  0  0  0  0  0  0  0
   34.8850   28.9200   39.2910 C   0  0  0  0  0  0  0  0  0  0  0  0
   36.2920   29.0760   39.3190 C   0  0  0  0  0  0  0  0  0  0  0  0
   36.8000   29.1680   38.0460 C   0  0  0  0  0  0  0  0  0  0  0  0
   36.0930   29.1180   36.8880 C   0  0  0  0  0  0  0  0  0  0  0  0
   34.7160   28.9600   36.9460 C   0  0  0  0  0  0  0  0  0  0  0  0
   34.1060   28.8600   38.1720 C   0  0  0  0  0  0  0  0  0  0  0  0
   34.3040   28.9460   35.6240 O   0  0  0  0  0  0  0  0  0  0  0  0
   35.3960   29.1380   34.7660 C   0  0  2  0  0  0  0  0  0  0  0  0
   36.5580   29.2080   35.5890 O   0  0  0  0  0  0  0  0  0  0  0  0
   34.1670   28.8270   40.1310 H   0  0  0  0  0  0  0  0  0  0  0  0
   37.8380   29.2810   38.0460 H   0  0  0  0  0  0  0  0  0  0  0  0
   33.0430   28.7430   38.0940 H   0  0  0  0  0  0  0  0  0  0  0  0
   35.5360   28.3740   33.9990 H   0  0  0  0  0  0  0  0  0  0  0  0
   35.2250   30.4030   34.1510 O   0  0  0  0  0  0  0  0  0  0  0  0
   36.3160   31.1390   33.6700 C   0  0  0  0  0  0  0  0  0  0  0  0
   36.5810   31.1140   32.4280 O   0  0  0  0  0  0  0  0  0  0  0  0
   37.1850   31.9350   34.4510 N   0  0  0  0  0  0  0  0  0  0  0  0
   38.2300   31.8500   34.3550 H   0  0  0  0  0  0  0  0  0  0  0  0
   37.1040   32.6750   35.1890 H   0  0  0  0  0  0  0  0  0  0  0  0
  1  6  1  0  0  0  0
  1  7  1  0  0  0  0
  2  1  2  0  0  0  0
  3  4  2  0  0  0  0
  3  2  1  0  0  0  0
  4  5  1  0  0  0  0
  5  8  1  0  0  0  0
  5  6  2  0  0  0  0
  9  2  1  0  0  0  0
 10  9  1  0  0  0  0
 10 15  1  0  0  0  0
 11 10  1  0  0  0  0
 11 18  1  0  0  0  0
 12 13  1  0  0  0  0
 12 11  1  0  0  0  0
 13 14  1  0  0  0  0
 14 22  1  0  0  0  0
 14  9  1  0  0  0  0
 14 23  1  0  0  0  0
 16 10  1  0  0  0  0
 17 11  1  0  0  0  0
 19 12  1  0  0  0  0
 20 13  1  0  0  0  0
 21 13  1  0  0  0  0
 24 25  1  0  0  0  0
 24 33  1  0  0  0  0
 25  3  1  0  0  0  0
 26 25  2  0  0  0  0
 27 28  2  0  0  0  0
 27 26  1  0  0  0  0
 28 29  1  0  0  0  0
 29 24  2  0  0  0  0
 30 28  1  0  0  0  0
 31 36  1  6  0  0  0
 31 32  1  0  0  0  0
 31 30  1  0  0  0  0
 32 27  1  0  0  0  0
 34 26  1  0  0  0  0
 35 29  1  0  0  0  0
 37 31  1  0  0  0  0
 38 37  1  0  0  0  0
 38 40  1  0  0  0  0
 39 38  2  0  0  0  0
 40 42  1  0  0  0  0
 41 40  1  0  0  0  0
M  END
>  <minimizedAffinity>
-5.89583254

$$$$

 OpenBabel03242523133D

 42 45  0  0  1  0  0  0  0  0999 V2000
   36.7720   28.2600   41.4640 C   0  0  0  0  0  0  0  0  0  0  0  0
   37.7060   29.1200   40.8940 C   0  0  0  0  0  0  0  0  0  0  0  0
   38.5920   29.7740   41.6970 C   0  0  0  0  0  0  0  0  0  0  0  0
   38.4990   29.5380   43.0380 N   0  0  0  0  0  0  0  0  0  0  0  0
   37.6000   28.7100   43.5850 C   0  0  0  0  0  0  0  0  0  0  0  0
   36.7540   28.0850   42.8050 N   0  0  0  0  0  0  0  0  0  0  0  0
   36.0680   27.7380   40.8360 H   0  0  0  0  0  0  0  0  0  0  0  0
   37.4830   28.4880   44.6350 H   0  0  0  0  0  0  0  0  0  0  0  0
   37.6600   29.2870   39.5080 N   0  0  0  0  0  0  0  0  0  0  0  0
   36.8240   30.2650   38.8910 C   0  0  0  0  0  0  0  0  0  0  0  0
   37.0290   30.4190   37.4110 C   0  0  0  0  0  0  0  0  0  0  0  0
   38.3540   30.3660   36.9830 N   0  0  0  0  0  0  0  0  0  0  0  0
   39.1440   29.3850   37.5560 C   0  0  0  0  0  0  0  0  0  0  0  0
   38.3930   28.5440   38.5600 C   0  0  0  0  0  0  0  0  0  0  0  0
   35.7690   29.9450   39.0250 H   0  0  0  0  0  0  0  0  0  0  0  0
   36.8900   31.2700   39.3680 H   0  0  0  0  0  0  0  0  0  0  0  0
   36.5540   31.3750   37.0880 H   0  0  0  0  0  0  0  0  0  0  0  0
   36.4450   29.6150   36.8980 H   0  0  0  0  0  0  0  0  0  0  0  0
   38.7630   31.3380   36.9350 H   0  0  0  0  0  0  0  0  0  0  0  0
   40.0970   29.7810   37.9520 H   0  0  0  0  0  0  0  0  0  0  0  0
   39.4640   28.6590   36.7500 H   0  0  0  0  0  0  0  0  0  0  0  0
   39.1590   27.9520   39.1140 H   0  0  0  0  0  0  0  0  0  0  0  0
   37.7860   27.7690   38.0200 H   0  0  0  0  0  0  0  0  0  0  0  0
   40.6710   30.6000   42.4210 C   0  0  0  0  0  0  0  0  0  0  0  0
   39.6360   30.6680   41.4580 C   0  0  0  0  0  0  0  0  0  0  0  0
   39.8940   31.6460   40.5290 C   0  0  0  0  0  0  0  0  0  0  0  0
   40.9770   32.4640   40.4960 C   0  0  0  0  0  0  0  0  0  0  0  0
   41.9480   32.3360   41.4790 C   0  0  0  0  0  0  0  0  0  0  0  0
   41.7870   31.3860   42.4560 C   0  0  0  0  0  0  0  0  0  0  0  0
   42.8970   33.2960   41.1680 O   0  0  0  0  0  0  0  0  0  0  0  0
   42.5460   33.9730   39.9920 C   0  0  2  0  0  0  0  0  0  0  0  0
   41.2800   33.4580   39.5830 O   0  0  0  0  0  0  0  0  0  0  0  0
   40.7830   29.9240   43.2930 H   0  0  0  0  0  0  0  0  0  0  0  0
   39.1390   31.7130   39.8110 H   0  0  0  0  0  0  0  0  0  0  0  0
   42.5970   31.3770   43.1590 H   0  0  0  0  0  0  0  0  0  0  0  0
   42.4900   35.0600   40.0690 H   0  0  0  0  0  0  0  0  0  0  0  0
   43.4980   33.6140   39.0060 O   0  0  0  0  0  0  0  0  0  0  0  0
   43.1350   33.4450   37.6630 C   0  0  0  0  0  0  0  0  0  0  0  0
   43.2220   32.2910   37.1380 O   0  0  0  0  0  0  0  0  0  0  0  0
   42.6670   34.4610   36.7980 N   0  0  0  0  0  0  0  0  0  0  0  0
   43.0750   34.5840   35.8360 H   0  0  0  0  0  0  0  0  0  0  0  0
   41.9500   35.2260   36.8190 H   0  0  0  0  0  0  0  0  0  0  0  0
  1  6  1  0  0  0  0
  2  1  2  0  0  0  0
  2  3  1  0  0  0  0
  3  4  2  0  0  0  0
  4  5  1  0  0  0  0
  5  8  1  0  0  0  0
  6  5  2  0  0  0  0
  7  1  1  0  0  0  0
  9  2  1  0  0  0  0
 10 15  1  0  0  0  0
 10 16  1  0  0  0  0
 10  9  1  0  0  0  0
 11 10  1  0  0  0  0
 12 11  1  0  0  0  0
 12 13  1  0  0  0  0
 13 20  1  0  0  0  0
 13 14  1  0  0  0  0
 14 22  1  0  0  0  0
 14  9  1  0  0  0  0
 17 11  1  0  0  0  0
 18 11  1  0  0  0  0
 19 12  1  0  0  0  0
 21 13  1  0  0  0  0
 23 14  1  0  0  0  0
 24 29  1  0  0  0  0
 24 33  1  0  0  0  0
 25  3  1  0  0  0  0
 25 24  2  0  0  0  0
 26 25  1  0  0  0  0
 27 26  2  0  0  0  0
 27 28  1  0  0  0  0
 28 29  2  0  0  0  0
 29 35  1  0  0  0  0
 30 28  1  0  0  0  0
 31 36  1  1  0  0  0
 31 30  1  0  0  0  0
 32 31  1  0  0  0  0
 32 27  1  0  0  0  0
 34 26  1  0  0  0  0
 37 31  1  0  0  0  0
 38 37  1  0  0  0  0
 39 38  2  0  0  0  0
 40 42  1  0  0  0  0
 40 38  1  0  0  0  0
 41 40  1  0  0  0  0
M  END
>  <minimizedAffinity>
-5.87974262

$$$$

 OpenBabel03242523133D

 42 45  0  0  1  0  0  0  0  0999 V2000
   38.4760   22.9600   40.6160 C   0  0  0  0  0  0  0  0  0  0  0  0
   38.5600   24.3060   40.9620 C   0  0  0  0  0  0  0  0  0  0  0  0
   37.5930   25.1680   40.5400 C   0  0  0  0  0  0  0  0  0  0  0  0
   36.5860   24.6420   39.7850 N   0  0  0  0  0  0  0  0  0  0  0  0
   36.5050   23.3480   39.4520 C   0  0  0  0  0  0  0  0  0  0  0  0
   37.4380   22.5270   39.8640 N   0  0  0  0  0  0  0  0  0  0  0  0
   39.2350   22.2710   40.9460 H   0  0  0  0  0  0  0  0  0  0  0  0
   35.7320   22.8800   38.8600 H   0  0  0  0  0  0  0  0  0  0  0  0
   39.6680   24.7040   41.7140 N   0  0  0  0  0  0  0  0  0  0  0  0
   40.8340   25.2590   41.1050 C   0  0  0  0  0  0  0  0  0  0  0  0
   41.8540   25.7880   42.0740 C   0  0  0  0  0  0  0  0  0  0  0  0
   41.3350   26.4670   43.1760 N   0  0  0  0  0  0  0  0  0  0  0  0
   40.2320   25.8960   43.7830 C   0  0  0  0  0  0  0  0  0  0  0  0
   39.7940   24.6150   43.1140 C   0  0  0  0  0  0  0  0  0  0  0  0
   41.3390   24.4510   40.5360 H   0  0  0  0  0  0  0  0  0  0  0  0
   40.6090   26.0530   40.3560 H   0  0  0  0  0  0  0  0  0  0  0  0
   42.5660   26.4380   41.5150 H   0  0  0  0  0  0  0  0  0  0  0  0
   42.4670   24.9230   42.4320 H   0  0  0  0  0  0  0  0  0  0  0  0
   41.2860   27.5020   42.9760 H   0  0  0  0  0  0  0  0  0  0  0  0
   39.4020   26.6130   43.9250 H   0  0  0  0  0  0  0  0  0  0  0  0
   40.5120   25.5940   44.8350 H   0  0  0  0  0  0  0  0  0  0  0  0
   38.7880   24.3680   43.5290 H   0  0  0  0  0  0  0  0  0  0  0  0
   40.4480   23.7700   43.4610 H   0  0  0  0  0  0  0  0  0  0  0  0
   36.9500   26.8760   42.0230 C   0  0  0  0  0  0  0  0  0  0  0  0
   37.3730   26.5340   40.7160 C   0  0  0  0  0  0  0  0  0  0  0  0
   37.4230   27.6460   39.9110 C   0  0  0  0  0  0  0  0  0  0  0  0
   37.1160   28.9190   40.2700 C   0  0  0  0  0  0  0  0  0  0  0  0
   36.7060   29.1710   41.5720 C   0  0  0  0  0  0  0  0  0  0  0  0
   36.6240   28.1270   42.4600 C   0  0  0  0  0  0  0  0  0  0  0  0
   36.4720   30.5350   41.6120 O   0  0  0  0  0  0  0  0  0  0  0  0
   36.7750   31.1240   40.3770 C   0  0  2  0  0  0  0  0  0  0  0  0
   37.1520   30.0660   39.4990 O   0  0  0  0  0  0  0  0  0  0  0  0
   36.8130   26.2290   42.9140 H   0  0  0  0  0  0  0  0  0  0  0  0
   37.7300   27.4130   38.9410 H   0  0  0  0  0  0  0  0  0  0  0  0
   36.2990   28.4390   43.4330 H   0  0  0  0  0  0  0  0  0  0  0  0
   35.9740   31.7090   39.9210 H   0  0  0  0  0  0  0  0  0  0  0  0
   37.9110   31.9470   40.5750 O   0  0  0  0  0  0  0  0  0  0  0  0
   37.9770   33.2450   40.0520 C   0  0  0  0  0  0  0  0  0  0  0  0
   39.0170   33.9440   40.2610 O   0  0  0  0  0  0  0  0  0  0  0  0
   36.9720   33.8820   39.2880 N   0  0  0  0  0  0  0  0  0  0  0  0
   36.6520   34.8570   39.5200 H   0  0  0  0  0  0  0  0  0  0  0  0
   36.3700   33.6570   38.4600 H   0  0  0  0  0  0  0  0  0  0  0  0
  1  7  1  0  0  0  0
  1  2  1  0  0  0  0
  2  9  1  0  0  0  0
  3 25  1  0  0  0  0
  3  2  2  0  0  0  0
  4  3  1  0  0  0  0
  5  4  2  0  0  0  0
  5  6  1  0  0  0  0
  6  1  2  0  0  0  0
  8  5  1  0  0  0  0
  9 14  1  0  0  0  0
 10  9  1  0  0  0  0
 10 11  1  0  0  0  0
 11 18  1  0  0  0  0
 11 12  1  0  0  0  0
 12 13  1  0  0  0  0
 13 20  1  0  0  0  0
 13 21  1  0  0  0  0
 14 23  1  0  0  0  0
 14 22  1  0  0  0  0
 14 13  1  0  0  0  0
 15 10  1  0  0  0  0
 16 10  1  0  0  0  0
 17 11  1  0  0  0  0
 19 12  1  0  0  0  0
 24 29  1  0  0  0  0
 24 33  1  0  0  0  0
 25 24  2  0  0  0  0
 26 27  2  0  0  0  0
 26 25  1  0  0  0  0
 27 28  1  0  0  0  0
 28 30  1  0  0  0  0
 28 29  2  0  0  0  0
 29 35  1  0  0  0  0
 31 36  1  6  0  0  0
 31 37  1  0  0  0  0
 31 30  1  0  0  0  0
 32 27  1  0  0  0  0
 32 31  1  0  0  0  0
 34 26  1  0  0  0  0
 38 39  2  0  0  0  0
 38 37  1  0  0  0  0
 40 41  1  0  0  0  0
 40 38  1  0  0  0  0
 42 40  1  0  0  0  0
M  END
>  <minimizedAffinity>
-5.82059145

$$$$

 OpenBabel03242523133D

 42 45  0  0  1  0  0  0  0  0999 V2000
   36.5710   24.1340   40.9790 C   0  0  0  0  0  0  0  0  0  0  0  0
   36.9460   25.4690   40.8570 C   0  0  0  0  0  0  0  0  0  0  0  0
   36.7050   26.1290   39.6890 C   0  0  0  0  0  0  0  0  0  0  0  0
   36.1010   25.4180   38.6940 N   0  0  0  0  0  0  0  0  0  0  0  0
   35.7410   24.1340   38.8110 C   0  0  0  0  0  0  0  0  0  0  0  0
   35.9760   23.5090   39.9380 N   0  0  0  0  0  0  0  0  0  0  0  0
   36.7570   23.6050   41.8990 H   0  0  0  0  0  0  0  0  0  0  0  0
   35.2620   23.5260   38.0580 H   0  0  0  0  0  0  0  0  0  0  0  0
   37.5850   26.0560   41.9520 N   0  0  0  0  0  0  0  0  0  0  0  0
   38.9490   25.7800   42.2680 C   0  0  0  0  0  0  0  0  0  0  0  0
   39.5190   26.6260   43.3720 C   0  0  0  0  0  0  0  0  0  0  0  0
   39.1360   27.9660   43.3550 N   0  0  0  0  0  0  0  0  0  0  0  0
   37.8020   28.2190   43.0900 C   0  0  0  0  0  0  0  0  0  0  0  0
   37.0030   26.9590   42.8640 C   0  0  0  0  0  0  0  0  0  0  0  0
   39.0110   24.7290   42.6220 H   0  0  0  0  0  0  0  0  0  0  0  0
   39.6300   25.8360   41.3880 H   0  0  0  0  0  0  0  0  0  0  0  0
   40.6300   26.5370   43.3450 H   0  0  0  0  0  0  0  0  0  0  0  0
   39.2130   26.1690   44.3470 H   0  0  0  0  0  0  0  0  0  0  0  0
   39.8450   28.5410   42.8240 H   0  0  0  0  0  0  0  0  0  0  0  0
   37.6600   28.9690   42.2900 H   0  0  0  0  0  0  0  0  0  0  0  0
   37.3360   28.7010   44.0000 H   0  0  0  0  0  0  0  0  0  0  0  0
   36.0200   27.2770   42.4430 H   0  0  0  0  0  0  0  0  0  0  0  0
   36.7400   26.5000   43.8550 H   0  0  0  0  0  0  0  0  0  0  0  0
   35.7800   28.0620   38.7210 C   0  0  0  0  0  0  0  0  0  0  0  0
   36.9330   27.4340   39.2520 C   0  0  0  0  0  0  0  0  0  0  0  0
   38.0250   28.2620   39.1660 C   0  0  0  0  0  0  0  0  0  0  0  0
   38.0510   29.5160   38.6490 C   0  0  0  0  0  0  0  0  0  0  0  0
   36.8780   30.0600   38.1450 C   0  0  0  0  0  0  0  0  0  0  0  0
   35.7250   29.3160   38.1850 C   0  0  0  0  0  0  0  0  0  0  0  0
   37.2340   31.3230   37.7010 O   0  0  0  0  0  0  0  0  0  0  0  0
   38.5870   31.5740   37.9660 C   0  0  2  0  0  0  0  0  0  0  0  0
   39.1220   30.3850   38.5430 O   0  0  0  0  0  0  0  0  0  0  0  0
   34.7410   27.6840   38.6450 H   0  0  0  0  0  0  0  0  0  0  0  0
   38.8860   27.8130   39.5510 H   0  0  0  0  0  0  0  0  0  0  0  0
   34.8850   29.8360   37.7700 H   0  0  0  0  0  0  0  0  0  0  0  0
   39.1930   31.8670   37.1060 H   0  0  0  0  0  0  0  0  0  0  0  0
   38.6370   32.5920   38.9500 O   0  0  0  0  0  0  0  0  0  0  0  0
   37.4790   33.0450   39.5980 C   0  0  0  0  0  0  0  0  0  0  0  0
   37.0400   34.2080   39.3400 O   0  0  0  0  0  0  0  0  0  0  0  0
   36.7220   32.3150   40.5430 N   0  0  0  0  0  0  0  0  0  0  0  0
   36.4320   32.7500   41.4570 H   0  0  0  0  0  0  0  0  0  0  0  0
   36.3080   31.3560   40.6290 H   0  0  0  0  0  0  0  0  0  0  0  0
  1  7  1  0  0  0  0
  2  1  1  0  0  0  0
  2  9  1  0  0  0  0
  3  2  2  0  0  0  0
  4  5  2  0  0  0  0
  4  3  1  0  0  0  0
  5  6  1  0  0  0  0
  6  1  2  0  0  0  0
  8  5  1  0  0  0  0
  9 10  1  0  0  0  0
  9 14  1  0  0  0  0
 10 15  1  0  0  0  0
 10 11  1  0  0  0  0
 11 18  1  0  0  0  0
 12 11  1  0  0  0  0
 13 12  1  0  0  0  0
 13 21  1  0  0  0  0
 14 13  1  0  0  0  0
 14 23  1  0  0  0  0
 16 10  1  0  0  0  0
 17 11  1  0  0  0  0
 19 12  1  0  0  0  0
 20 13  1  0  0  0  0
 22 14  1  0  0  0  0
 24 25  1  0  0  0  0
 25  3  1  0  0  0  0
 26 25  2  0  0  0  0
 26 34  1  0  0  0  0
 27 26  1  0  0  0  0
 28 29  1  0  0  0  0
 28 27  2  0  0  0  0
 29 24  2  0  0  0  0
 30 31  1  0  0  0  0
 30 28  1  0  0  0  0
 31 36  1  6  0  0  0
 31 32  1  0  0  0  0
 31 37  1  0  0  0  0
 32 27  1  0  0  0  0
 33 24  1  0  0  0  0
 35 29  1  0  0  0  0
 37 38  1  0  0  0  0
 38 40  1  0  0  0  0
 39 38  2  0  0  0  0
 40 42  1  0  0  0  0
 40 41  1  0  0  0  0
M  END
>  <minimizedAffinity>
-5.7737174

$$$$

 OpenBabel03242523133D

 42 45  0  0  1  0  0  0  0  0999 V2000
   37.5530   31.1660   37.0630 C   0  0  0  0  0  0  0  0  0  0  0  0
   37.9290   30.8450   38.3640 C   0  0  0  0  0  0  0  0  0  0  0  0
   37.6810   29.5940   38.8430 C   0  0  0  0  0  0  0  0  0  0  0  0
   37.0630   28.7210   37.9950 N   0  0  0  0  0  0  0  0  0  0  0  0
   36.7020   29.0310   36.7440 C   0  0  0  0  0  0  0  0  0  0  0  0
   36.9460   30.2360   36.2930 N   0  0  0  0  0  0  0  0  0  0  0  0
   37.7450   32.1540   36.6760 H   0  0  0  0  0  0  0  0  0  0  0  0
   36.2130   28.3810   36.0340 H   0  0  0  0  0  0  0  0  0  0  0  0
   38.5240   31.8530   39.1250 N   0  0  0  0  0  0  0  0  0  0  0  0
   39.8990   32.2040   38.9720 C   0  0  0  0  0  0  0  0  0  0  0  0
   40.3250   33.4200   39.7460 C   0  0  0  0  0  0  0  0  0  0  0  0
   39.4070   34.4680   39.7640 N   0  0  0  0  0  0  0  0  0  0  0  0
   38.0820   34.1190   39.9570 C   0  0  0  0  0  0  0  0  0  0  0  0
   37.8880   32.6300   40.1140 C   0  0  0  0  0  0  0  0  0  0  0  0
   40.5110   31.3620   39.3580 H   0  0  0  0  0  0  0  0  0  0  0  0
   40.2090   32.3310   37.9090 H   0  0  0  0  0  0  0  0  0  0  0  0
   41.3050   33.7670   39.3440 H   0  0  0  0  0  0  0  0  0  0  0  0
   40.5370   33.1000   40.7970 H   0  0  0  0  0  0  0  0  0  0  0  0
   39.6110   35.1460   38.9800 H   0  0  0  0  0  0  0  0  0  0  0  0
   37.4080   34.5650   39.2020 H   0  0  0  0  0  0  0  0  0  0  0  0
   37.7280   34.5640   40.9340 H   0  0  0  0  0  0  0  0  0  0  0  0
   36.7910   32.4440   40.0360 H   0  0  0  0  0  0  0  0  0  0  0  0
   38.1420   32.3290   41.1650 H   0  0  0  0  0  0  0  0  0  0  0  0
   36.7710   28.7430   40.8380 C   0  0  0  0  0  0  0  0  0  0  0  0
   37.9330   28.9560   40.0580 C   0  0  0  0  0  0  0  0  0  0  0  0
   39.0540   28.5140   40.7180 C   0  0  0  0  0  0  0  0  0  0  0  0
   39.0950   27.9470   41.9500 C   0  0  0  0  0  0  0  0  0  0  0  0
   37.9110   27.7760   42.6530 C   0  0  0  0  0  0  0  0  0  0  0  0
   36.7310   28.1820   42.0810 C   0  0  0  0  0  0  0  0  0  0  0  0
   38.2890   27.1860   43.8470 O   0  0  0  0  0  0  0  0  0  0  0  0
   39.6710   26.9540   43.8670 C   0  0  2  0  0  0  0  0  0  0  0  0
   40.1940   27.4870   42.6520 O   0  0  0  0  0  0  0  0  0  0  0  0
   35.7110   28.9710   40.6040 H   0  0  0  0  0  0  0  0  0  0  0  0
   39.9220   28.6660   40.1590 H   0  0  0  0  0  0  0  0  0  0  0  0
   35.8840   28.0000   42.7130 H   0  0  0  0  0  0  0  0  0  0  0  0
   40.2120   27.3790   44.7150 H   0  0  0  0  0  0  0  0  0  0  0  0
   39.8580   25.5500   43.8390 O   0  0  0  0  0  0  0  0  0  0  0  0
   40.5860   24.9260   42.8170 C   0  0  0  0  0  0  0  0  0  0  0  0
   39.9630   24.4200   41.8330 O   0  0  0  0  0  0  0  0  0  0  0  0
   41.9930   24.7950   42.7650 N   0  0  0  0  0  0  0  0  0  0  0  0
   42.4430   23.8680   42.5520 H   0  0  0  0  0  0  0  0  0  0  0  0
   42.8330   25.4100   42.8880 H   0  0  0  0  0  0  0  0  0  0  0  0
  1  2  1  0  0  0  0
  2  3  2  0  0  0  0
  2  9  1  0  0  0  0
  3 25  1  0  0  0  0
  4  3  1  0  0  0  0
  5  4  2  0  0  0  0
  6  5  1  0  0  0  0
  6  1  2  0  0  0  0
  7  1  1  0  0  0  0
  8  5  1  0  0  0  0
  9 14  1  0  0  0  0
 10  9  1  0  0  0  0
 10 15  1  0  0  0  0
 10 11  1  0  0  0  0
 11 12  1  0  0  0  0
 11 18  1  0  0  0  0
 12 13  1  0  0  0  0
 13 14  1  0  0  0  0
 13 21  1  0  0  0  0
 14 23  1  0  0  0  0
 16 10  1  0  0  0  0
 17 11  1  0  0  0  0
 19 12  1  0  0  0  0
 20 13  1  0  0  0  0
 22 14  1  0  0  0  0
 24 29  1  0  0  0  0
 25 26  1  0  0  0  0
 25 24  2  0  0  0  0
 26 27  2  0  0  0  0
 27 32  1  0  0  0  0
 27 28  1  0  0  0  0
 28 30  1  0  0  0  0
 29 28  2  0  0  0  0
 29 35  1  0  0  0  0
 30 31  1  0  0  0  0
 31 36  1  1  0  0  0
 32 31  1  0  0  0  0
 33 24  1  0  0  0  0
 34 26  1  0  0  0  0
 37 31  1  0  0  0  0
 38 37  1  0  0  0  0
 39 38  2  0  0  0  0
 40 38  1  0  0  0  0
 40 42  1  0  0  0  0
 41 40  1  0  0  0  0
M  END
>  <minimizedAffinity>
-5.7528944

$$$$

 OpenBabel03242523133D

 42 45  0  0  1  0  0  0  0  0999 V2000
   37.3060   32.4460   38.6330 C   0  0  0  0  0  0  0  0  0  0  0  0
   37.4790   31.1800   39.1850 C   0  0  0  0  0  0  0  0  0  0  0  0
   38.0750   31.0570   40.4040 C   0  0  0  0  0  0  0  0  0  0  0  0
   38.4750   32.2110   41.0140 N   0  0  0  0  0  0  0  0  0  0  0  0
   38.3090   33.4280   40.4820 C   0  0  0  0  0  0  0  0  0  0  0  0
   37.7330   33.5360   39.3100 N   0  0  0  0  0  0  0  0  0  0  0  0
   36.8350   32.5530   37.6700 H   0  0  0  0  0  0  0  0  0  0  0  0
   38.6060   34.3700   40.9190 H   0  0  0  0  0  0  0  0  0  0  0  0
   37.0460   30.0890   38.4290 N   0  0  0  0  0  0  0  0  0  0  0  0
   37.9290   29.3680   37.5690 C   0  0  0  0  0  0  0  0  0  0  0  0
   37.3390   28.1250   36.9660 C   0  0  0  0  0  0  0  0  0  0  0  0
   36.5390   27.3690   37.8220 N   0  0  0  0  0  0  0  0  0  0  0  0
   35.6570   28.0750   38.6200 C   0  0  0  0  0  0  0  0  0  0  0  0
   35.7380   29.5670   38.4010 C   0  0  0  0  0  0  0  0  0  0  0  0
   38.1890   30.0310   36.7160 H   0  0  0  0  0  0  0  0  0  0  0  0
   38.9010   29.1070   38.0470 H   0  0  0  0  0  0  0  0  0  0  0  0
   38.1690   27.5030   36.5590 H   0  0  0  0  0  0  0  0  0  0  0  0
   36.7360   28.4280   36.0740 H   0  0  0  0  0  0  0  0  0  0  0  0
   37.1160   26.6220   38.2960 H   0  0  0  0  0  0  0  0  0  0  0  0
   35.7250   27.7920   39.6870 H   0  0  0  0  0  0  0  0  0  0  0  0
   34.6010   27.7950   38.3300 H   0  0  0  0  0  0  0  0  0  0  0  0
   35.1670   30.0410   39.2330 H   0  0  0  0  0  0  0  0  0  0  0  0
   35.1570   29.8410   37.4800 H   0  0  0  0  0  0  0  0  0  0  0  0
   37.2380   29.3470   41.7850 C   0  0  0  0  0  0  0  0  0  0  0  0
   38.3790   29.9720   41.2260 C   0  0  0  0  0  0  0  0  0  0  0  0
   39.5330   29.3730   41.6710 C   0  0  0  0  0  0  0  0  0  0  0  0
   39.6210   28.3270   42.5300 C   0  0  0  0  0  0  0  0  0  0  0  0
   38.4540   27.7710   43.0370 C   0  0  0  0  0  0  0  0  0  0  0  0
   37.2450   28.2940   42.6530 C   0  0  0  0  0  0  0  0  0  0  0  0
   38.8800   26.7470   43.8670 O   0  0  0  0  0  0  0  0  0  0  0  0
   40.2770   26.6400   43.8400 C   0  0  2  0  0  0  0  0  0  0  0  0
   40.7550   27.6920   43.0040 O   0  0  0  0  0  0  0  0  0  0  0  0
   36.1630   29.5700   41.6310 H   0  0  0  0  0  0  0  0  0  0  0  0
   40.3860   29.8230   41.2710 H   0  0  0  0  0  0  0  0  0  0  0  0
   36.4150   27.7870   43.1050 H   0  0  0  0  0  0  0  0  0  0  0  0
   40.7760   26.6880   44.8090 H   0  0  0  0  0  0  0  0  0  0  0  0
   40.5880   25.4110   43.2070 O   0  0  0  0  0  0  0  0  0  0  0  0
   41.8710   25.1450   42.7090 C   0  0  0  0  0  0  0  0  0  0  0  0
   42.0770   25.2170   41.4580 O   0  0  0  0  0  0  0  0  0  0  0  0
   43.0000   24.7900   43.4820 N   0  0  0  0  0  0  0  0  0  0  0  0
   43.6030   23.9690   43.2160 H   0  0  0  0  0  0  0  0  0  0  0  0
   43.4860   25.1320   44.3460 H   0  0  0  0  0  0  0  0  0  0  0  0
  1  2  2  0  0  0  0
  1  6  1  0  0  0  0
  2  3  1  0  0  0  0
  3  4  2  0  0  0  0
  3 25  1  0  0  0  0
  5  8  1  0  0  0  0
  5  4  1  0  0  0  0
  6  5  2  0  0  0  0
  7  1  1  0  0  0  0
  9  2  1  0  0  0  0
 10 16  1  0  0  0  0
 10  9  1  0  0  0  0
 11 10  1  0  0  0  0
 11 12  1  0  0  0  0
 12 19  1  0  0  0  0
 12 13  1  0  0  0  0
 13 20  1  0  0  0  0
 14  9  1  0  0  0  0
 14 13  1  0  0  0  0
 14 22  1  0  0  0  0
 15 10  1  0  0  0  0
 17 11  1  0  0  0  0
 18 11  1  0  0  0  0
 21 13  1  0  0  0  0
 23 14  1  0  0  0  0
 24 29  1  0  0  0  0
 25 26  1  0  0  0  0
 25 24  2  0  0  0  0
 26 27  2  0  0  0  0
 27 32  1  0  0  0  0
 27 28  1  0  0  0  0
 28 30  1  0  0  0  0
 29 28  2  0  0  0  0
 29 35  1  0  0  0  0
 31 30  1  0  0  0  0
 31 36  1  1  0  0  0
 32 31  1  0  0  0  0
 33 24  1  0  0  0  0
 34 26  1  0  0  0  0
 37 31  1  0  0  0  0
 38 37  1  0  0  0  0
 38 40  1  0  0  0  0
 39 38  2  0  0  0  0
 40 42  1  0  0  0  0
 41 40  1  0  0  0  0
M  END
>  <minimizedAffinity>
-5.58646774

$$$$

 OpenBabel03242523133D

 42 45  0  0  1  0  0  0  0  0999 V2000
   35.7230   24.6430   38.4910 C   0  0  0  0  0  0  0  0  0  0  0  0
   36.2780   25.8020   39.0250 C   0  0  0  0  0  0  0  0  0  0  0  0
   35.8260   27.0170   38.6040 C   0  0  0  0  0  0  0  0  0  0  0  0
   34.8390   27.0130   37.6610 N   0  0  0  0  0  0  0  0  0  0  0  0
   34.3060   25.8980   37.1470 C   0  0  0  0  0  0  0  0  0  0  0  0
   34.7460   24.7350   37.5610 N   0  0  0  0  0  0  0  0  0  0  0  0
   36.0740   23.6780   38.8190 H   0  0  0  0  0  0  0  0  0  0  0  0
   33.5260   25.8380   36.4030 H   0  0  0  0  0  0  0  0  0  0  0  0
   37.3040   25.6490   39.9600 N   0  0  0  0  0  0  0  0  0  0  0  0
   37.0460   25.2530   41.3070 C   0  0  0  0  0  0  0  0  0  0  0  0
   38.2770   24.9730   42.1230 C   0  0  0  0  0  0  0  0  0  0  0  0
   39.2960   24.2970   41.4530 N   0  0  0  0  0  0  0  0  0  0  0  0
   39.5660   24.7180   40.1640 C   0  0  0  0  0  0  0  0  0  0  0  0
   38.6770   25.8570   39.7230 C   0  0  0  0  0  0  0  0  0  0  0  0
   36.5240   26.0920   41.8150 H   0  0  0  0  0  0  0  0  0  0  0  0
   36.3560   24.3820   41.3900 H   0  0  0  0  0  0  0  0  0  0  0  0
   37.9720   24.4120   43.0370 H   0  0  0  0  0  0  0  0  0  0  0  0
   38.6700   25.9510   42.4980 H   0  0  0  0  0  0  0  0  0  0  0  0
   39.2050   23.2560   41.6050 H   0  0  0  0  0  0  0  0  0  0  0  0
   39.5880   23.8840   39.4380 H   0  0  0  0  0  0  0  0  0  0  0  0
   40.6140   25.1370   40.1300 H   0  0  0  0  0  0  0  0  0  0  0  0
   38.8190   25.9620   38.6220 H   0  0  0  0  0  0  0  0  0  0  0  0
   39.0710   26.8220   40.1430 H   0  0  0  0  0  0  0  0  0  0  0  0
   35.8740   28.6600   40.2860 C   0  0  0  0  0  0  0  0  0  0  0  0
   36.1430   28.3340   38.9340 C   0  0  0  0  0  0  0  0  0  0  0  0
   36.6200   29.4270   38.2530 C   0  0  0  0  0  0  0  0  0  0  0  0
   36.8210   30.6710   38.7590 C   0  0  0  0  0  0  0  0  0  0  0  0
   36.5290   30.9100   40.0940 C   0  0  0  0  0  0  0  0  0  0  0  0
   36.0480   29.8820   40.8670 C   0  0  0  0  0  0  0  0  0  0  0  0
   36.8350   32.2460   40.2910 O   0  0  0  0  0  0  0  0  0  0  0  0
   37.3490   32.8120   39.1160 C   0  0  2  0  0  0  0  0  0  0  0  0
   37.2990   31.7970   38.1150 O   0  0  0  0  0  0  0  0  0  0  0  0
   35.4940   28.0170   41.1050 H   0  0  0  0  0  0  0  0  0  0  0  0
   36.8220   29.2070   37.2530 H   0  0  0  0  0  0  0  0  0  0  0  0
   35.8600   30.1820   41.8790 H   0  0  0  0  0  0  0  0  0  0  0  0
   36.8360   33.7060   38.7560 H   0  0  0  0  0  0  0  0  0  0  0  0
   38.7120   33.1120   39.3590 O   0  0  0  0  0  0  0  0  0  0  0  0
   39.1810   33.4050   40.6470 C   0  0  0  0  0  0  0  0  0  0  0  0
   40.0550   32.6490   41.1750 O   0  0  0  0  0  0  0  0  0  0  0  0
   38.7670   34.4920   41.4500 N   0  0  0  0  0  0  0  0  0  0  0  0
   38.4920   34.3490   42.4560 H   0  0  0  0  0  0  0  0  0  0  0  0
   38.6320   35.5260   41.3440 H   0  0  0  0  0  0  0  0  0  0  0  0
  1  7  1  0  0  0  0
  1  2  1  0  0  0  0
  2  9  1  0  0  0  0
  3 25  1  0  0  0  0
  3  2  2  0  0  0  0
  4  3  1  0  0  0  0
  5  6  1  0  0  0  0
  5  4  2  0  0  0  0
  6  1  2  0  0  0  0
  8  5  1  0  0  0  0
  9 10  1  0  0  0  0
 10 16  1  0  0  0  0
 10 15  1  0  0  0  0
 10 11  1  0  0  0  0
 11 18  1  0  0  0  0
 11 17  1  0  0  0  0
 12 19  1  0  0  0  0
 12 11  1  0  0  0  0
 13 12  1  0  0  0  0
 14  9  1  0  0  0  0
 14 23  1  0  0  0  0
 14 13  1  0  0  0  0
 20 13  1  0  0  0  0
 21 13  1  0  0  0  0
 22 14  1  0  0  0  0
 24 29  1  0  0  0  0
 24 33  1  0  0  0  0
 25 24  2  0  0  0  0
 26 27  2  0  0  0  0
 26 25  1  0  0  0  0
 27 28  1  0  0  0  0
 28 30  1  0  0  0  0
 28 29  2  0  0  0  0
 29 35  1  0  0  0  0
 31 36  1  6  0  0  0
 31 37  1  0  0  0  0
 31 30  1  0  0  0  0
 32 27  1  0  0  0  0
 32 31  1  0  0  0  0
 34 26  1  0  0  0  0
 37 38  1  0  0  0  0
 38 39  2  0  0  0  0
 38 40  1  0  0  0  0
 40 41  1  0  0  0  0
 42 40  1  0  0  0  0
M  END
>  <minimizedAffinity>
-5.54188919

$$$$

 OpenBabel03242523133D

 42 45  0  0  1  0  0  0  0  0999 V2000
   39.4150   31.9000   41.4970 C   0  0  0  0  0  0  0  0  0  0  0  0
   38.5690   30.9110   41.0040 C   0  0  0  0  0  0  0  0  0  0  0  0
   37.6330   31.2360   40.0680 C   0  0  0  0  0  0  0  0  0  0  0  0
   37.5860   32.5410   39.6710 N   0  0  0  0  0  0  0  0  0  0  0  0
   38.4000   33.4920   40.1470 C   0  0  0  0  0  0  0  0  0  0  0  0
   39.2970   33.1690   41.0440 N   0  0  0  0  0  0  0  0  0  0  0  0
   40.1580   31.6520   42.2370 H   0  0  0  0  0  0  0  0  0  0  0  0
   38.4050   34.5350   39.8680 H   0  0  0  0  0  0  0  0  0  0  0  0
   38.7140   29.6250   41.5280 N   0  0  0  0  0  0  0  0  0  0  0  0
   38.3250   29.3050   42.8640 C   0  0  0  0  0  0  0  0  0  0  0  0
   38.3930   27.8420   43.2020 C   0  0  0  0  0  0  0  0  0  0  0  0
   37.9630   26.9770   42.1970 N   0  0  0  0  0  0  0  0  0  0  0  0
   38.3830   27.2730   40.9130 C   0  0  0  0  0  0  0  0  0  0  0  0
   39.2460   28.5100   40.8510 C   0  0  0  0  0  0  0  0  0  0  0  0
   39.0290   29.8150   43.5560 H   0  0  0  0  0  0  0  0  0  0  0  0
   37.3140   29.6880   43.1360 H   0  0  0  0  0  0  0  0  0  0  0  0
   37.8130   27.6700   44.1390 H   0  0  0  0  0  0  0  0  0  0  0  0
   39.4530   27.6000   43.4660 H   0  0  0  0  0  0  0  0  0  0  0  0
   36.9400   26.7500   42.3230 H   0  0  0  0  0  0  0  0  0  0  0  0
   37.5510   27.2910   40.1850 H   0  0  0  0  0  0  0  0  0  0  0  0
   39.0470   26.4360   40.5460 H   0  0  0  0  0  0  0  0  0  0  0  0
   39.3370   28.7810   39.7730 H   0  0  0  0  0  0  0  0  0  0  0  0
   40.2960   28.2490   41.1560 H   0  0  0  0  0  0  0  0  0  0  0  0
   35.6630   29.9600   40.2090 C   0  0  0  0  0  0  0  0  0  0  0  0
   36.6670   30.5080   39.3740 C   0  0  0  0  0  0  0  0  0  0  0  0
   36.4660   30.1460   38.0640 C   0  0  0  0  0  0  0  0  0  0  0  0
   35.4600   29.3700   37.5850 C   0  0  0  0  0  0  0  0  0  0  0  0
   34.5160   28.8680   38.4700 C   0  0  0  0  0  0  0  0  0  0  0  0
   34.6240   29.1720   39.8040 C   0  0  0  0  0  0  0  0  0  0  0  0
   33.6480   28.1320   37.6820 O   0  0  0  0  0  0  0  0  0  0  0  0
   34.0180   28.2120   36.3320 C   0  0  2  0  0  0  0  0  0  0  0  0
   35.2170   28.9820   36.2800 O   0  0  0  0  0  0  0  0  0  0  0  0
   35.5200   30.0620   41.3030 H   0  0  0  0  0  0  0  0  0  0  0  0
   37.1990   30.5390   37.4340 H   0  0  0  0  0  0  0  0  0  0  0  0
   33.8420   28.7330   40.3900 H   0  0  0  0  0  0  0  0  0  0  0  0
   34.1740   27.2590   35.8250 H   0  0  0  0  0  0  0  0  0  0  0  0
   33.0050   28.9440   35.6660 O   0  0  0  0  0  0  0  0  0  0  0  0
   31.7750   29.2220   36.2780 C   0  0  0  0  0  0  0  0  0  0  0  0
   31.4710   30.4270   36.5390 O   0  0  0  0  0  0  0  0  0  0  0  0
   30.8020   28.2650   36.6500 N   0  0  0  0  0  0  0  0  0  0  0  0
   30.3690   28.2790   37.6090 H   0  0  0  0  0  0  0  0  0  0  0  0
   30.3180   27.4440   36.2150 H   0  0  0  0  0  0  0  0  0  0  0  0
  1  7  1  0  0  0  0
  2  1  2  0  0  0  0
  2  9  1  0  0  0  0
  3  2  1  0  0  0  0
  4  3  2  0  0  0  0
  4  5  1  0  0  0  0
  5  6  2  0  0  0  0
  6  1  1  0  0  0  0
  8  5  1  0  0  0  0
  9 10  1  0  0  0  0
 10 16  1  0  0  0  0
 10 11  1  0  0  0  0
 10 15  1  0  0  0  0
 11 18  1  0  0  0  0
 11 17  1  0  0  0  0
 12 19  1  0  0  0  0
 12 11  1  0  0  0  0
 13 12  1  0  0  0  0
 14 13  1  0  0  0  0
 14 23  1  0  0  0  0
 14  9  1  0  0  0  0
 20 13  1  0  0  0  0
 21 13  1  0  0  0  0
 22 14  1  0  0  0  0
 24 33  1  0  0  0  0
 25  3  1  0  0  0  0
 25 24  2  0  0  0  0
 26 25  1  0  0  0  0
 27 26  2  0  0  0  0
 27 28  1  0  0  0  0
 28 29  2  0  0  0  0
 29 24  1  0  0  0  0
 29 35  1  0  0  0  0
 30 28  1  0  0  0  0
 31 36  1  6  0  0  0
 31 30  1  0  0  0  0
 32 31  1  0  0  0  0
 32 27  1  0  0  0  0
 34 26  1  0  0  0  0
 37 38  1  0  0  0  0
 37 31  1  0  0  0  0
 38 39  2  0  0  0  0
 38 40  1  0  0  0  0
 40 41  1  0  0  0  0
 42 40  1  0  0  0  0
M  END
>  <minimizedAffinity>
-5.52465296

$$$$

 OpenBabel03242523133D

 42 45  0  0  1  0  0  0  0  0999 V2000
   41.5640   32.6260   37.3120 C   0  0  0  0  0  0  0  0  0  0  0  0
   40.9380   31.9780   38.3720 C   0  0  0  0  0  0  0  0  0  0  0  0
   41.5090   30.8620   38.9070 C   0  0  0  0  0  0  0  0  0  0  0  0
   42.6840   30.4450   38.3510 N   0  0  0  0  0  0  0  0  0  0  0  0
   43.2850   31.0690   37.3300 C   0  0  0  0  0  0  0  0  0  0  0  0
   42.7280   32.1410   36.8250 N   0  0  0  0  0  0  0  0  0  0  0  0
   41.1190   33.5090   36.8830 H   0  0  0  0  0  0  0  0  0  0  0  0
   44.2110   30.7830   36.8540 H   0  0  0  0  0  0  0  0  0  0  0  0
   39.7220   32.5040   38.8160 N   0  0  0  0  0  0  0  0  0  0  0  0
   38.4680   31.9870   38.3700 C   0  0  0  0  0  0  0  0  0  0  0  0
   37.2700   32.5570   39.0770 C   0  0  0  0  0  0  0  0  0  0  0  0
   37.4210   32.7450   40.4500 N   0  0  0  0  0  0  0  0  0  0  0  0
   38.6240   33.2860   40.8660 C   0  0  0  0  0  0  0  0  0  0  0  0
   39.5630   33.5730   39.7180 C   0  0  0  0  0  0  0  0  0  0  0  0
   38.3500   32.2550   37.2990 H   0  0  0  0  0  0  0  0  0  0  0  0
   38.4080   30.8750   38.4050 H   0  0  0  0  0  0  0  0  0  0  0  0
   36.3940   31.9010   38.8680 H   0  0  0  0  0  0  0  0  0  0  0  0
   37.0230   33.5370   38.5980 H   0  0  0  0  0  0  0  0  0  0  0  0
   37.0740   31.8970   40.9750 H   0  0  0  0  0  0  0  0  0  0  0  0
   39.1000   32.7010   41.6750 H   0  0  0  0  0  0  0  0  0  0  0  0
   38.4260   34.2930   41.3390 H   0  0  0  0  0  0  0  0  0  0  0  0
   40.5600   33.7860   40.1700 H   0  0  0  0  0  0  0  0  0  0  0  0
   39.2710   34.5420   39.2310 H   0  0  0  0  0  0  0  0  0  0  0  0
   42.1540   29.9190   40.9620 C   0  0  0  0  0  0  0  0  0  0  0  0
   41.1650   30.0060   39.9530 C   0  0  0  0  0  0  0  0  0  0  0  0
   40.1050   29.1790   40.2330 C   0  0  0  0  0  0  0  0  0  0  0  0
   39.9760   28.3660   41.3120 C   0  0  0  0  0  0  0  0  0  0  0  0
   40.9930   28.3350   42.2560 C   0  0  0  0  0  0  0  0  0  0  0  0
   42.0980   29.1280   42.0740 C   0  0  0  0  0  0  0  0  0  0  0  0
   40.5650   27.4260   43.2090 O   0  0  0  0  0  0  0  0  0  0  0  0
   39.2910   26.9380   42.8870 C   0  0  2  0  0  0  0  0  0  0  0  0
   38.9320   27.5200   41.6360 O   0  0  0  0  0  0  0  0  0  0  0  0
   43.1200   30.4540   41.0530 H   0  0  0  0  0  0  0  0  0  0  0  0
   39.3660   29.2280   39.4970 H   0  0  0  0  0  0  0  0  0  0  0  0
   42.8150   29.0230   42.8640 H   0  0  0  0  0  0  0  0  0  0  0  0
   39.2000   25.8520   42.8250 H   0  0  0  0  0  0  0  0  0  0  0  0
   38.3950   27.4340   43.8670 O   0  0  0  0  0  0  0  0  0  0  0  0
   37.1350   27.9400   43.5210 C   0  0  0  0  0  0  0  0  0  0  0  0
   36.1280   27.1660   43.5480 O   0  0  0  0  0  0  0  0  0  0  0  0
   36.8580   29.2700   43.1310 N   0  0  0  0  0  0  0  0  0  0  0  0
   36.2830   29.4740   42.2730 H   0  0  0  0  0  0  0  0  0  0  0  0
   37.0720   30.2380   43.4710 H   0  0  0  0  0  0  0  0  0  0  0  0
  1  2  1  0  0  0  0
  2  9  1  0  0  0  0
  2  3  2  0  0  0  0
  3 25  1  0  0  0  0
  4  3  1  0  0  0  0
  5  4  2  0  0  0  0
  6  1  2  0  0  0  0
  6  5  1  0  0  0  0
  7  1  1  0  0  0  0
  8  5  1  0  0  0  0
  9 14  1  0  0  0  0
 10 16  1  0  0  0  0
 10  9  1  0  0  0  0
 10 11  1  0  0  0  0
 11 12  1  0  0  0  0
 12 13  1  0  0  0  0
 12 19  1  0  0  0  0
 13 21  1  0  0  0  0
 13 20  1  0  0  0  0
 14 22  1  0  0  0  0
 14 13  1  0  0  0  0
 15 10  1  0  0  0  0
 17 11  1  0  0  0  0
 18 11  1  0  0  0  0
 23 14  1  0  0  0  0
 24 33  1  0  0  0  0
 24 29  1  0  0  0  0
 25 26  1  0  0  0  0
 25 24  2  0  0  0  0
 26 27  2  0  0  0  0
 27 32  1  0  0  0  0
 27 28  1  0  0  0  0
 28 30  1  0  0  0  0
 29 28  2  0  0  0  0
 29 35  1  0  0  0  0
 31 36  1  6  0  0  0
 31 30  1  0  0  0  0
 31 37  1  0  0  0  0
 32 31  1  0  0  0  0
 34 26  1  0  0  0  0
 38 39  2  0  0  0  0
 38 37  1  0  0  0  0
 40 42  1  0  0  0  0
 40 38  1  0  0  0  0
 41 40  1  0  0  0  0
M  END
>  <minimizedAffinity>
-5.49577332

$$$$
