
 OpenBabel03252506113D

 32 33  0  0  0  0  0  0  0  0999 V2000
   45.2550   33.5430   41.1220 F   0  0  0  0  0  0  0  0  0  0  0  0
   46.4320   34.1580   41.0400 C   0  0  0  0  0  0  0  0  0  0  0  0
   46.8970   34.8590   42.1290 C   0  0  0  0  0  0  0  0  0  0  0  0
   48.1240   35.5330   42.1300 C   0  0  0  0  0  0  0  0  0  0  0  0
   48.9180   35.4980   40.9820 C   0  0  0  0  0  0  0  0  0  0  0  0
   48.4180   34.7850   39.9180 C   0  0  0  0  0  0  0  0  0  0  0  0
   47.2310   34.1260   39.8980 C   0  0  0  0  0  0  0  0  0  0  0  0
   48.4250   36.0720   43.0360 H   0  0  0  0  0  0  0  0  0  0  0  0
   49.8470   36.0320   41.0410 H   0  0  0  0  0  0  0  0  0  0  0  0
   49.1330   34.8330   39.1050 H   0  0  0  0  0  0  0  0  0  0  0  0
   45.5040   33.9680   45.4010 C   0  0  0  0  0  0  0  0  0  0  0  0
   44.6260   35.0480   45.6460 C   0  0  0  0  0  0  0  0  0  0  0  0
   44.5180   36.0860   44.6760 C   0  0  0  0  0  0  0  0  0  0  0  0
   45.2870   35.9580   43.5550 N   0  0  0  0  0  0  0  0  0  0  0  0
   46.1050   34.9220   43.3580 C   0  0  0  0  0  0  0  0  0  0  0  0
   46.2090   33.9420   44.2710 N   0  0  0  0  0  0  0  0  0  0  0  0
   44.0160   35.1530   46.5310 H   0  0  0  0  0  0  0  0  0  0  0  0
   43.8540   36.9220   44.8420 H   0  0  0  0  0  0  0  0  0  0  0  0
   45.5890   32.9590   46.3780 N   0  0  0  0  0  0  0  0  0  0  0  0
   45.0930   33.0090   47.2720 H   0  0  0  0  0  0  0  0  0  0  0  0
   46.1790   32.1220   46.1950 H   0  0  0  0  0  0  0  0  0  0  0  0
   46.8230   33.4440   38.7800 O   0  0  0  0  0  0  0  0  0  0  0  0
   48.2690   34.7350   36.9750 O   0  0  0  0  0  0  0  0  0  0  0  0
   47.6020   33.4200   37.2950 P   0  0  2  0  0  0  0  0  0  0  0  0
   46.4380   33.0430   36.0910 O   0  0  0  0  0  0  0  0  0  0  0  0
   46.8510   33.0730   35.1950 H   0  0  0  0  0  0  0  0  0  0  0  0
   48.7640   32.1970   37.1590 O   0  0  0  0  0  0  0  0  0  0  0  0
   49.8570   32.0350   37.9760 C   0  0  0  0  0  0  0  0  0  0  0  0
   49.7190   31.5530   39.1250 O   0  0  0  0  0  0  0  0  0  0  0  0
   51.0960   32.4440   37.4210 N   0  0  0  0  0  0  0  0  0  0  0  0
   51.8710   33.1310   37.2670 H   0  0  0  0  0  0  0  0  0  0  0  0
   51.4090   31.6130   36.8630 H   0  0  0  0  0  0  0  0  0  0  0  0
  2  1  1  0  0  0  0
  2  3  1  0  0  0  0
  3  4  2  0  0  0  0
  3 15  1  0  0  0  0
  4  8  1  0  0  0  0
  5  9  1  0  0  0  0
  5  4  1  0  0  0  0
  6  5  2  0  0  0  0
  7  6  1  0  0  0  0
  7  2  2  0  0  0  0
 10  6  1  0  0  0  0
 11 12  1  0  0  0  0
 11 19  1  0  0  0  0
 12 17  1  0  0  0  0
 13 18  1  0  0  0  0
 13 12  2  0  0  0  0
 14 13  1  0  0  0  0
 15 14  2  0  0  0  0
 15 16  1  0  0  0  0
 16 11  2  0  0  0  0
 19 20  1  0  0  0  0
 21 19  1  0  0  0  0
 22  7  1  0  0  0  0
 24 23  2  6  0  0  0
 24 22  1  0  0  0  0
 25 24  1  0  0  0  0
 26 25  1  0  0  0  0
 27 24  1  0  0  0  0
 27 28  1  0  0  0  0
 28 29  2  0  0  0  0
 30 28  1  0  0  0  0
 31 30  1  0  0  0  0
 32 30  1  0  0  0  0
M  END
>  <minimizedAffinity>
-6.217237

>  <minimizedRMSD>
1.06970251

$$$$
