
 OpenBabel03252509313D

 23 23  0  0  0  0  0  0  0  0999 V2000
   47.0560   33.4310   42.9950 C   0  0  0  0  0  0  0  0  0  0  0  0
   46.6650   32.3860   42.9050 H   0  0  0  0  0  0  0  0  0  0  0  0
   46.9280   33.8770   42.0030 H   0  0  0  0  0  0  0  0  0  0  0  0
   45.0990   34.2960   46.0410 C   0  0  0  0  0  0  0  0  0  0  0  0
   45.9590   33.6090   45.1790 C   0  0  0  0  0  0  0  0  0  0  0  0
   46.1560   34.1310   43.9210 C   0  0  0  0  0  0  0  0  0  0  0  0
   45.5130   35.2850   43.5670 N   0  0  0  0  0  0  0  0  0  0  0  0
   44.6790   35.9280   44.4370 C   0  0  0  0  0  0  0  0  0  0  0  0
   44.4780   35.4340   45.6590 N   0  0  0  0  0  0  0  0  0  0  0  0
   44.9280   33.9020   47.0400 H   0  0  0  0  0  0  0  0  0  0  0  0
   46.4220   32.6980   45.5630 H   0  0  0  0  0  0  0  0  0  0  0  0
   44.2050   36.8420   44.0740 H   0  0  0  0  0  0  0  0  0  0  0  0
   48.3580   33.4040   43.4640 O   0  0  0  0  0  0  0  0  0  0  0  0
   49.8330   31.7820   42.0460 O   0  0  0  0  0  0  0  0  0  0  0  0
   49.3720   33.2070   42.1300 P   0  0  2  0  0  0  0  0  0  0  0  0
   50.6590   34.2920   42.3360 O   0  0  0  0  0  0  0  0  0  0  0  0
   50.2850   35.1270   42.7170 H   0  0  0  0  0  0  0  0  0  0  0  0
   48.5040   33.5830   40.7440 O   0  0  0  0  0  0  0  0  0  0  0  0
   48.6560   34.7320   39.9960 C   0  0  0  0  0  0  0  0  0  0  0  0
   48.7500   35.7650   40.7420 O   0  0  0  0  0  0  0  0  0  0  0  0
   48.7130   34.8510   38.5800 N   0  0  0  0  0  0  0  0  0  0  0  0
   49.7330   34.6120   38.3940 H   0  0  0  0  0  0  0  0  0  0  0  0
   47.7280   35.1270   38.3000 H   0  0  0  0  0  0  0  0  0  0  0  0
  1 13  1  0  0  0  0
  1  6  1  0  0  0  0
  2  1  1  0  0  0  0
  3  1  1  0  0  0  0
  4 10  1  0  0  0  0
  5 11  1  0  0  0  0
  5  4  2  0  0  0  0
  6  5  1  0  0  0  0
  7  6  2  0  0  0  0
  7  8  1  0  0  0  0
  8  9  2  0  0  0  0
  9  4  1  0  0  0  0
 12  8  1  0  0  0  0
 15 14  2  6  0  0  0
 15 16  1  0  0  0  0
 15 13  1  0  0  0  0
 16 17  1  0  0  0  0
 18 15  1  0  0  0  0
 19 20  2  0  0  0  0
 19 18  1  0  0  0  0
 21 19  1  0  0  0  0
 22 21  1  0  0  0  0
 23 21  1  0  0  0  0
M  END
>  <minimizedAffinity>
-4.05569267

>  <minimizedRMSD>
1.13228571

$$$$
