
 OpenBabel03252502283D

 31 32  0  0  0  0  0  0  0  0999 V2000
   45.0720   34.3260   41.1220 C   0  0  0  0  0  0  0  0  0  0  0  0
   45.5360   34.7760   42.3480 C   0  0  0  0  0  0  0  0  0  0  0  0
   46.9130   34.9580   42.4900 C   0  0  0  0  0  0  0  0  0  0  0  0
   47.7720   34.6940   41.4340 C   0  0  0  0  0  0  0  0  0  0  0  0
   47.3140   34.2530   40.2300 C   0  0  0  0  0  0  0  0  0  0  0  0
   45.9400   34.0810   40.1150 C   0  0  0  0  0  0  0  0  0  0  0  0
   44.8400   34.9770   43.1640 H   0  0  0  0  0  0  0  0  0  0  0  0
   47.2330   35.3100   43.4560 H   0  0  0  0  0  0  0  0  0  0  0  0
   48.8360   34.8510   41.5890 H   0  0  0  0  0  0  0  0  0  0  0  0
   47.9590   34.0330   39.3760 H   0  0  0  0  0  0  0  0  0  0  0  0
   45.8810   32.9400   37.7290 C   0  0  0  0  0  0  0  0  0  0  0  0
   47.0230   32.6330   37.5330 O   0  0  0  0  0  0  0  0  0  0  0  0
   45.3600   33.6580   38.8830 N   0  0  0  0  0  0  0  0  0  0  0  0
   44.3750   34.0740   39.0730 H   0  0  0  0  0  0  0  0  0  0  0  0
   43.1070   31.0440   38.2350 H   0  0  0  0  0  0  0  0  0  0  0  0
   43.8260   31.7820   37.8300 C   0  0  0  0  0  0  0  0  0  0  0  0
   44.2800   31.1080   38.8150 O   0  0  0  0  0  0  0  0  0  0  0  0
   44.6170   32.8320   37.1250 N   0  0  0  0  0  0  0  0  0  0  0  0
   43.7280   32.7560   36.7010 H   0  0  0  0  0  0  0  0  0  0  0  0
   41.3750   34.8430   40.5570 C   0  0  0  0  0  0  0  0  0  0  0  0
   42.7520   35.1490   40.6100 C   0  0  0  0  0  0  0  0  0  0  0  0
   43.6280   34.1540   41.0080 C   0  0  0  0  0  0  0  0  0  0  0  0
   43.1020   32.9430   41.3220 N   0  0  0  0  0  0  0  0  0  0  0  0
   41.7850   32.6640   41.2680 C   0  0  0  0  0  0  0  0  0  0  0  0
   40.9130   33.6360   40.8780 N   0  0  0  0  0  0  0  0  0  0  0  0
   43.1490   36.1120   40.3560 H   0  0  0  0  0  0  0  0  0  0  0  0
   41.4180   31.6790   41.5290 H   0  0  0  0  0  0  0  0  0  0  0  0
   40.4170   35.8950   40.1340 C   0  0  0  0  0  0  0  0  0  0  0  0
   39.1830   35.2760   39.9160 F   0  0  0  0  0  0  0  0  0  0  0  0
   40.8260   36.3410   38.8930 F   0  0  0  0  0  0  0  0  0  0  0  0
   40.2890   36.9150   41.0470 F   0  0  0  0  0  0  0  0  0  0  0  0
  1  2  1  0  0  0  0
  2  3  2  0  0  0  0
  2  7  1  0  0  0  0
  3  8  1  0  0  0  0
  4  9  1  0  0  0  0
  4  3  1  0  0  0  0
  5  4  2  0  0  0  0
  6  5  1  0  0  0  0
  6  1  2  0  0  0  0
 10  5  1  0  0  0  0
 11 13  1  0  0  0  0
 12 11  2  0  0  0  0
 13 14  1  0  0  0  0
 13  6  1  0  0  0  0
 16 15  1  0  0  0  0
 16 17  2  0  0  0  0
 18 11  1  0  0  0  0
 18 16  1  0  0  0  0
 19 18  1  0  0  0  0
 20 21  2  0  0  0  0
 20 25  1  0  0  0  0
 21 22  1  0  0  0  0
 22  1  1  0  0  0  0
 22 23  2  0  0  0  0
 24 23  1  0  0  0  0
 24 27  1  0  0  0  0
 25 24  2  0  0  0  0
 26 21  1  0  0  0  0
 28 20  1  0  0  0  0
 28 31  1  0  0  0  0
 29 28  1  0  0  0  0
 30 28  1  0  0  0  0
M  END
>  <minimizedAffinity>
-5.98483229

>  <minimizedRMSD>
0.78525126

$$$$
