
 OpenBabel03252504003D

 30 32  0  0  0  0  0  0  0  0999 V2000
   46.0440   31.7510   45.1650 C   0  0  0  0  0  0  0  0  0  0  0  0
   45.7590   33.0510   45.5810 C   0  0  0  0  0  0  0  0  0  0  0  0
   45.4710   33.2860   46.9020 C   0  0  0  0  0  0  0  0  0  0  0  0
   45.4720   32.2280   47.7880 C   0  0  0  0  0  0  0  0  0  0  0  0
   45.2320   32.1530   49.1120 N   0  0  0  0  0  0  0  0  0  0  0  0
   45.3440   30.9000   49.5550 C   0  0  0  0  0  0  0  0  0  0  0  0
   45.6740   30.1050   48.4910 C   0  0  0  0  0  0  0  0  0  0  0  0
   45.7560   30.9260   47.3750 C   0  0  0  0  0  0  0  0  0  0  0  0
   46.0430   30.7000   46.0540 C   0  0  0  0  0  0  0  0  0  0  0  0
   46.2860   31.4580   44.1320 H   0  0  0  0  0  0  0  0  0  0  0  0
   45.2520   34.3030   47.2100 H   0  0  0  0  0  0  0  0  0  0  0  0
   44.9910   32.9930   49.6760 H   0  0  0  0  0  0  0  0  0  0  0  0
   45.1850   30.6410   50.6000 H   0  0  0  0  0  0  0  0  0  0  0  0
   45.8340   29.0330   48.5340 H   0  0  0  0  0  0  0  0  0  0  0  0
   46.2560   29.6710   45.7880 H   0  0  0  0  0  0  0  0  0  0  0  0
   46.7150   34.9940   42.6490 C   0  0  0  0  0  0  0  0  0  0  0  0
   45.8070   36.0530   42.6350 C   0  0  0  0  0  0  0  0  0  0  0  0
   44.8580   36.0880   43.6540 C   0  0  0  0  0  0  0  0  0  0  0  0
   44.8720   35.1070   44.5850 N   0  0  0  0  0  0  0  0  0  0  0  0
   45.7840   34.0880   44.5540 C   0  0  0  0  0  0  0  0  0  0  0  0
   46.7060   34.0290   43.5890 N   0  0  0  0  0  0  0  0  0  0  0  0
   45.8270   36.8210   41.8720 H   0  0  0  0  0  0  0  0  0  0  0  0
   44.1380   36.8950   43.6740 H   0  0  0  0  0  0  0  0  0  0  0  0
   47.6820   35.0020   41.5670 C   0  0  0  0  0  0  0  0  0  0  0  0
   48.7760   35.6360   41.5690 O   0  0  0  0  0  0  0  0  0  0  0  0
   48.1170   32.5680   39.0940 H   0  0  0  0  0  0  0  0  0  0  0  0
   48.2810   33.1890   39.9860 C   0  0  0  0  0  0  0  0  0  0  0  0
   49.3280   32.9210   40.6600 O   0  0  0  0  0  0  0  0  0  0  0  0
   47.3970   34.2350   40.3900 N   0  0  0  0  0  0  0  0  0  0  0  0
   46.5680   34.3760   39.7700 H   0  0  0  0  0  0  0  0  0  0  0  0
  1  2  2  0  0  0  0
  1  9  1  0  0  0  0
  2  3  1  0  0  0  0
  3 11  1  0  0  0  0
  3  4  2  0  0  0  0
  4  5  1  0  0  0  0
  5  6  1  0  0  0  0
  5 12  1  0  0  0  0
  6 13  1  0  0  0  0
  7 14  1  0  0  0  0
  7  6  2  0  0  0  0
  8  4  1  0  0  0  0
  8  7  1  0  0  0  0
  9  8  2  0  0  0  0
 10  1  1  0  0  0  0
 15  9  1  0  0  0  0
 16 21  1  0  0  0  0
 17 16  2  0  0  0  0
 17 18  1  0  0  0  0
 18 23  1  0  0  0  0
 18 19  2  0  0  0  0
 20 19  1  0  0  0  0
 20  2  1  0  0  0  0
 21 20  2  0  0  0  0
 22 17  1  0  0  0  0
 24 25  2  0  0  0  0
 24 16  1  0  0  0  0
 26 27  1  0  0  0  0
 27 29  1  0  0  0  0
 27 28  2  0  0  0  0
 29 24  1  0  0  0  0
 30 29  1  0  0  0  0
M  END
>  <minimizedAffinity>
-5.8386364

>  <minimizedRMSD>
0.365539312

$$$$
