
 OpenBabel03252501323D

 20 19  0  0  0  0  0  0  0  0999 V2000
   45.5710   34.7250   44.3120 C   0  0  0  0  0  0  0  0  0  0  0  0
   45.2520   34.3950   45.6220 C   0  0  0  0  0  0  0  0  0  0  0  0
   45.9580   33.3460   46.1950 C   0  0  0  0  0  0  0  0  0  0  0  0
   46.8880   32.7370   45.4390 N   0  0  0  0  0  0  0  0  0  0  0  0
   47.1820   33.0720   44.1710 C   0  0  0  0  0  0  0  0  0  0  0  0
   46.5110   34.0900   43.5860 N   0  0  0  0  0  0  0  0  0  0  0  0
   45.6980   33.1100   47.1980 H   0  0  0  0  0  0  0  0  0  0  0  0
   47.9480   32.5200   43.6430 H   0  0  0  0  0  0  0  0  0  0  0  0
   44.1730   35.1880   42.4980 C   0  0  0  0  0  0  0  0  0  0  0  0
   44.2110   33.9260   42.5190 O   0  0  0  0  0  0  0  0  0  0  0  0
   44.9550   35.7860   43.5310 N   0  0  0  0  0  0  0  0  0  0  0  0
   45.0170   36.8120   43.6350 H   0  0  0  0  0  0  0  0  0  0  0  0
   41.4390   36.0950   40.5570 H   0  0  0  0  0  0  0  0  0  0  0  0
   42.1060   35.5790   41.2620 C   0  0  0  0  0  0  0  0  0  0  0  0
   41.5270   34.5780   41.7900 O   0  0  0  0  0  0  0  0  0  0  0  0
   43.4400   35.9650   41.5580 N   0  0  0  0  0  0  0  0  0  0  0  0
   43.0660   35.1190   42.0550 H   0  0  0  0  0  0  0  0  0  0  0  0
   44.2380   35.1720   46.2260 N   0  0  0  0  0  0  0  0  0  0  0  0
   44.9100   35.8320   46.6270 H   0  0  0  0  0  0  0  0  0  0  0  0
   43.4390   34.5780   45.8790 H   0  0  0  0  0  0  0  0  0  0  0  0
  1  2  1  0  0  0  0
  2  3  2  0  0  0  0
  2 18  1  0  0  0  0
  3  7  1  0  0  0  0
  4  3  1  0  0  0  0
  5  4  2  0  0  0  0
  6  5  1  0  0  0  0
  6  1  2  0  0  0  0
  8  5  1  0  0  0  0
  9 10  2  0  0  0  0
  9 11  1  0  0  0  0
 11 12  1  0  0  0  0
 11  1  1  0  0  0  0
 13 14  1  0  0  0  0
 14 15  1  0  0  0  0
 16 17  1  0  0  0  0
 16  9  1  0  0  0  0
 18 19  1  0  0  0  0
 20 18  1  0  0  0  0
M  END
>  <minimizedAffinity>
-4.60570097

>  <minimizedRMSD>
0.771331251

$$$$
