
 OpenBabel03252503293D

 21 20  0  0  0  0  0  0  0  0999 V2000
   36.3600   30.5080   40.7670 C   0  0  0  0  0  0  0  0  0  0  0  0
   36.8820   29.7740   41.8320 C   0  0  0  0  0  0  0  0  0  0  0  0
   36.6170   28.3970   41.8120 C   0  0  0  0  0  0  0  0  0  0  0  0
   35.8960   27.9100   40.7890 N   0  0  0  0  0  0  0  0  0  0  0  0
   35.4120   28.6610   39.7800 C   0  0  0  0  0  0  0  0  0  0  0  0
   35.6550   29.9890   39.7820 N   0  0  0  0  0  0  0  0  0  0  0  0
   37.9500   32.1990   40.2720 C   0  0  0  0  0  0  0  0  0  0  0  0
   38.7200   31.2440   40.0460 O   0  0  0  0  0  0  0  0  0  0  0  0
   36.5790   31.9330   40.6980 N   0  0  0  0  0  0  0  0  0  0  0  0
   37.4400   30.3310   42.5710 H   0  0  0  0  0  0  0  0  0  0  0  0
   34.8250   28.2570   38.9530 H   0  0  0  0  0  0  0  0  0  0  0  0
   35.7740   32.5660   40.9410 H   0  0  0  0  0  0  0  0  0  0  0  0
   40.1010   34.6900   40.8860 H   0  0  0  0  0  0  0  0  0  0  0  0
   39.1570   34.1570   40.6360 C   0  0  0  0  0  2  0  0  0  0  0  0
   40.1840   33.4070   40.8240 O   0  0  0  0  0  1  0  0  0  0  0  0
   37.8160   33.5910   40.2940 N   0  0  0  0  0  2  0  0  0  0  0  0
   37.7620   34.5650   40.3200 H   0  0  0  0  0  0  0  0  0  0  0  0
   37.1600   27.6260   42.9300 C   0  0  0  0  0  0  0  0  0  0  0  0
   37.8010   26.4910   42.4570 F   0  0  0  0  0  0  0  0  0  0  0  0
   36.0720   27.1700   43.6780 F   0  0  0  0  0  0  0  0  0  0  0  0
   38.0660   28.3280   43.6800 F   0  0  0  0  0  0  0  0  0  0  0  0
  1  2  1  0  0  0  0
  2 10  1  0  0  0  0
  3  2  2  0  0  0  0
  3 18  1  0  0  0  0
  4  3  1  0  0  0  0
  5  6  1  0  0  0  0
  5  4  2  0  0  0  0
  6  1  2  0  0  0  0
  7 16  1  0  0  0  0
  7  9  1  0  0  0  0
  8  7  2  0  0  0  0
  9  1  1  0  0  0  0
  9 12  1  0  0  0  0
 11  5  1  0  0  0  0
 14 15  1  0  0  0  0
 14 13  1  0  0  0  0
 16 17  1  0  0  0  0
 18 20  1  0  0  0  0
 18 21  1  0  0  0  0
 19 18  1  0  0  0  0
M  END
>  <minimizedAffinity>
-5.51790047

$$$$

 OpenBabel03252503293D

 21 20  0  0  0  0  0  0  0  0999 V2000
   36.7560   30.9220   40.5000 C   0  0  0  0  0  0  0  0  0  0  0  0
   36.6930   30.1800   39.3210 C   0  0  0  0  0  0  0  0  0  0  0  0
   37.0360   30.8660   38.1470 C   0  0  0  0  0  0  0  0  0  0  0  0
   37.3900   32.1570   38.2540 N   0  0  0  0  0  0  0  0  0  0  0  0
   37.4370   32.8340   39.4190 C   0  0  0  0  0  0  0  0  0  0  0  0
   37.1090   32.1910   40.5600 N   0  0  0  0  0  0  0  0  0  0  0  0
   37.5170   29.4390   42.1890 C   0  0  0  0  0  0  0  0  0  0  0  0
   38.5310   29.3300   41.4710 O   0  0  0  0  0  0  0  0  0  0  0  0
   36.4220   30.3030   41.7600 N   0  0  0  0  0  0  0  0  0  0  0  0
   36.3870   29.1480   39.4190 H   0  0  0  0  0  0  0  0  0  0  0  0
   37.7240   33.8840   39.4980 H   0  0  0  0  0  0  0  0  0  0  0  0
   35.4910   30.5410   42.1920 H   0  0  0  0  0  0  0  0  0  0  0  0
   37.6460   26.6250   43.9990 H   0  0  0  0  0  0  0  0  0  0  0  0
   37.3710   27.6540   43.6770 C   0  0  0  0  0  2  0  0  0  0  0  0
   38.2150   27.0460   42.9230 O   0  0  0  0  0  1  0  0  0  0  0  0
   36.9000   29.0410   43.3790 N   0  0  0  0  0  2  0  0  0  0  0  0
   36.4880   28.7280   44.2060 H   0  0  0  0  0  0  0  0  0  0  0  0
   36.9660   30.0910   36.9090 C   0  0  0  0  0  0  0  0  0  0  0  0
   37.0570   30.9360   35.8140 F   0  0  0  0  0  0  0  0  0  0  0  0
   35.6900   29.5240   36.8540 F   0  0  0  0  0  0  0  0  0  0  0  0
   37.9670   29.1630   36.7960 F   0  0  0  0  0  0  0  0  0  0  0  0
  1  6  1  0  0  0  0
  1  9  1  0  0  0  0
  2 10  1  0  0  0  0
  2  1  2  0  0  0  0
  3  4  2  0  0  0  0
  3  2  1  0  0  0  0
  4  5  1  0  0  0  0
  5 11  1  0  0  0  0
  5  6  2  0  0  0  0
  7 16  1  0  0  0  0
  8  7  2  0  0  0  0
  9  7  1  0  0  0  0
  9 12  1  0  0  0  0
 14 13  1  0  0  0  0
 15 14  1  0  0  0  0
 16 17  1  0  0  0  0
 18  3  1  0  0  0  0
 19 18  1  0  0  0  0
 20 18  1  0  0  0  0
 21 18  1  0  0  0  0
M  END
>  <minimizedAffinity>
-5.19964266

$$$$

 OpenBabel03252503293D

 21 20  0  0  0  0  0  0  0  0999 V2000
   37.3630   30.8350   37.3120 C   0  0  0  0  0  0  0  0  0  0  0  0
   36.9100   30.7330   38.6270 C   0  0  0  0  0  0  0  0  0  0  0  0
   35.9740   29.7180   38.8740 C   0  0  0  0  0  0  0  0  0  0  0  0
   35.5980   28.9450   37.8420 N   0  0  0  0  0  0  0  0  0  0  0  0
   36.0640   29.0830   36.5850 C   0  0  0  0  0  0  0  0  0  0  0  0
   36.9650   30.0550   36.3270 N   0  0  0  0  0  0  0  0  0  0  0  0
   39.6510   31.4540   37.4330 C   0  0  0  0  0  0  0  0  0  0  0  0
   39.7860   30.3800   38.0510 O   0  0  0  0  0  0  0  0  0  0  0  0
   38.3280   31.8490   36.9590 N   0  0  0  0  0  0  0  0  0  0  0  0
   37.3210   31.4410   39.3330 H   0  0  0  0  0  0  0  0  0  0  0  0
   35.7520   28.4510   35.7520 H   0  0  0  0  0  0  0  0  0  0  0  0
   37.9830   32.6920   36.4300 H   0  0  0  0  0  0  0  0  0  0  0  0
   42.3330   33.1810   38.4490 H   0  0  0  0  0  0  0  0  0  0  0  0
   41.4530   32.8700   37.8440 C   0  0  0  0  0  2  0  0  0  0  0  0
   41.7200   32.1230   38.8550 O   0  0  0  0  0  1  0  0  0  0  0  0
   40.3020   32.5860   36.9330 N   0  0  0  0  0  2  0  0  0  0  0  0
   40.7830   33.3730   36.6150 H   0  0  0  0  0  0  0  0  0  0  0  0
   35.4950   29.6120   40.2520 C   0  0  0  0  0  0  0  0  0  0  0  0
   36.1680   28.5940   40.9100 F   0  0  0  0  0  0  0  0  0  0  0  0
   34.1580   29.2140   40.1900 F   0  0  0  0  0  0  0  0  0  0  0  0
   35.6780   30.7600   40.9760 F   0  0  0  0  0  0  0  0  0  0  0  0
  1  2  1  0  0  0  0
  2  3  2  0  0  0  0
  2 10  1  0  0  0  0
  3 18  1  0  0  0  0
  4  3  1  0  0  0  0
  5  4  2  0  0  0  0
  6  5  1  0  0  0  0
  6  1  2  0  0  0  0
  7  8  2  0  0  0  0
  9  1  1  0  0  0  0
  9  7  1  0  0  0  0
 11  5  1  0  0  0  0
 12  9  1  0  0  0  0
 14 13  1  0  0  0  0
 14 15  1  0  0  0  0
 16  7  1  0  0  0  0
 17 16  1  0  0  0  0
 18 19  1  0  0  0  0
 18 21  1  0  0  0  0
 20 18  1  0  0  0  0
M  END
>  <minimizedAffinity>
-4.97944117

$$$$

 OpenBabel03252503293D

 21 20  0  0  0  0  0  0  0  0999 V2000
   37.3390   26.9640   42.4190 C   0  0  0  0  0  0  0  0  0  0  0  0
   36.5360   27.5900   41.4660 C   0  0  0  0  0  0  0  0  0  0  0  0
   36.5810   28.9910   41.4550 C   0  0  0  0  0  0  0  0  0  0  0  0
   37.3780   29.6020   42.3460 N   0  0  0  0  0  0  0  0  0  0  0  0
   38.1380   28.9520   43.2500 C   0  0  0  0  0  0  0  0  0  0  0  0
   38.1080   27.6030   43.2780 N   0  0  0  0  0  0  0  0  0  0  0  0
   38.1520   24.9740   41.4120 C   0  0  0  0  0  0  0  0  0  0  0  0
   38.6680   25.7470   40.5800 O   0  0  0  0  0  0  0  0  0  0  0  0
   37.3610   25.5230   42.5090 N   0  0  0  0  0  0  0  0  0  0  0  0
   35.9550   26.9400   40.8270 H   0  0  0  0  0  0  0  0  0  0  0  0
   38.7830   29.4560   43.9720 H   0  0  0  0  0  0  0  0  0  0  0  0
   36.8430   25.0730   43.3080 H   0  0  0  0  0  0  0  0  0  0  0  0
   38.0150   22.1030   39.6970 H   0  0  0  0  0  0  0  0  0  0  0  0
   38.0140   22.8150   40.5500 C   0  0  0  0  0  2  0  0  0  0  0  0
   38.1970   23.3410   39.3920 O   0  0  0  0  0  1  0  0  0  0  0  0
   37.9860   23.6400   41.7970 N   0  0  0  0  0  2  0  0  0  0  0  0
   37.8720   22.6990   42.0270 H   0  0  0  0  0  0  0  0  0  0  0  0
   35.7360   29.6500   40.4600 C   0  0  0  0  0  0  0  0  0  0  0  0
   36.2910   29.5080   39.1970 F   0  0  0  0  0  0  0  0  0  0  0  0
   35.7630   31.0170   40.7410 F   0  0  0  0  0  0  0  0  0  0  0  0
   34.4650   29.1400   40.4090 F   0  0  0  0  0  0  0  0  0  0  0  0
  1  9  1  0  0  0  0
  1  6  1  0  0  0  0
  2  1  2  0  0  0  0
  3  2  1  0  0  0  0
  3  4  2  0  0  0  0
  4  5  1  0  0  0  0
  5  6  2  0  0  0  0
  5 11  1  0  0  0  0
  7 16  1  0  0  0  0
  7  9  1  0  0  0  0
  8  7  2  0  0  0  0
  9 12  1  0  0  0  0
 10  2  1  0  0  0  0
 13 14  1  0  0  0  0
 15 14  1  0  0  0  0
 16 17  1  0  0  0  0
 18 20  1  0  0  0  0
 18  3  1  0  0  0  0
 19 18  1  0  0  0  0
 21 18  1  0  0  0  0
M  END
>  <minimizedAffinity>
-4.86344671

$$$$

 OpenBabel03252503293D

 21 20  0  0  0  0  0  0  0  0999 V2000
   37.1870   30.6520   41.3580 C   0  0  0  0  0  0  0  0  0  0  0  0
   37.6900   31.7060   40.5970 C   0  0  0  0  0  0  0  0  0  0  0  0
   39.0300   32.0460   40.8330 C   0  0  0  0  0  0  0  0  0  0  0  0
   39.7040   31.3410   41.7560 N   0  0  0  0  0  0  0  0  0  0  0  0
   39.1730   30.3270   42.4690 C   0  0  0  0  0  0  0  0  0  0  0  0
   37.8840   29.9860   42.2570 N   0  0  0  0  0  0  0  0  0  0  0  0
   35.6920   29.4590   39.9530 C   0  0  0  0  0  0  0  0  0  0  0  0
   36.6960   29.2800   39.2360 O   0  0  0  0  0  0  0  0  0  0  0  0
   35.8170   30.2280   41.1870 N   0  0  0  0  0  0  0  0  0  0  0  0
   37.0040   32.1630   39.8970 H   0  0  0  0  0  0  0  0  0  0  0  0
   39.7270   29.7600   43.2190 H   0  0  0  0  0  0  0  0  0  0  0  0
   35.1220   30.5020   41.9290 H   0  0  0  0  0  0  0  0  0  0  0  0
   33.1940   29.0220   37.7660 H   0  0  0  0  0  0  0  0  0  0  0  0
   33.7400   29.1110   38.7320 C   0  0  0  0  0  2  0  0  0  0  0  0
   34.4630   29.2220   37.6750 O   0  0  0  0  0  1  0  0  0  0  0  0
   34.3240   29.2080   40.1040 N   0  0  0  0  0  2  0  0  0  0  0  0
   33.3670   29.0330   40.1700 H   0  0  0  0  0  0  0  0  0  0  0  0
   39.5580   33.1540   40.0380 C   0  0  0  0  0  0  0  0  0  0  0  0
   39.9460   32.6980   38.7870 F   0  0  0  0  0  0  0  0  0  0  0  0
   40.7260   33.5890   40.6690 F   0  0  0  0  0  0  0  0  0  0  0  0
   38.6490   34.1610   39.8450 F   0  0  0  0  0  0  0  0  0  0  0  0
  1  6  1  0  0  0  0
  2  3  1  0  0  0  0
  2  1  2  0  0  0  0
  3  4  2  0  0  0  0
  4  5  1  0  0  0  0
  5 11  1  0  0  0  0
  6  5  2  0  0  0  0
  7 16  1  0  0  0  0
  7  9  1  0  0  0  0
  8  7  2  0  0  0  0
  9  1  1  0  0  0  0
  9 12  1  0  0  0  0
 10  2  1  0  0  0  0
 13 14  1  0  0  0  0
 15 14  1  0  0  0  0
 16 17  1  0  0  0  0
 18 20  1  0  0  0  0
 18  3  1  0  0  0  0
 19 18  1  0  0  0  0
 21 18  1  0  0  0  0
M  END
>  <minimizedAffinity>
-4.69430542

$$$$

 OpenBabel03252503293D

 21 20  0  0  0  0  0  0  0  0999 V2000
   36.1170   30.1640   40.6290 C   0  0  0  0  0  0  0  0  0  0  0  0
   36.5760   31.3960   40.1630 C   0  0  0  0  0  0  0  0  0  0  0  0
   37.8180   31.8140   40.6620 C   0  0  0  0  0  0  0  0  0  0  0  0
   38.4490   31.0080   41.5320 N   0  0  0  0  0  0  0  0  0  0  0  0
   37.9640   29.8230   41.9530 C   0  0  0  0  0  0  0  0  0  0  0  0
   36.7700   29.4040   41.4850 N   0  0  0  0  0  0  0  0  0  0  0  0
   34.9870   29.1360   38.8120 C   0  0  0  0  0  0  0  0  0  0  0  0
   36.0920   29.2070   38.2380 O   0  0  0  0  0  0  0  0  0  0  0  0
   34.8480   29.6480   40.1720 N   0  0  0  0  0  0  0  0  0  0  0  0
   35.9350   31.9130   39.4620 H   0  0  0  0  0  0  0  0  0  0  0  0
   38.4830   29.1750   42.6610 H   0  0  0  0  0  0  0  0  0  0  0  0
   34.0320   29.6950   40.8360 H   0  0  0  0  0  0  0  0  0  0  0  0
   32.8770   28.9000   36.2230 H   0  0  0  0  0  0  0  0  0  0  0  0
   33.2750   28.8460   37.2610 C   0  0  0  0  0  2  0  0  0  0  0  0
   34.1110   29.2410   36.3680 O   0  0  0  0  0  1  0  0  0  0  0  0
   33.6550   28.7220   38.7010 N   0  0  0  0  0  2  0  0  0  0  0  0
   32.7280   28.4420   38.5840 H   0  0  0  0  0  0  0  0  0  0  0  0
   38.2990   33.1070   40.1780 C   0  0  0  0  0  0  0  0  0  0  0  0
   38.7950   33.8550   41.2350 F   0  0  0  0  0  0  0  0  0  0  0  0
   37.1860   33.8040   39.7020 F   0  0  0  0  0  0  0  0  0  0  0  0
   39.2980   32.9970   39.2480 F   0  0  0  0  0  0  0  0  0  0  0  0
  1  6  1  0  0  0  0
  2  1  2  0  0  0  0
  2  3  1  0  0  0  0
  3  4  2  0  0  0  0
  4  5  1  0  0  0  0
  5 11  1  0  0  0  0
  6  5  2  0  0  0  0
  7  9  1  0  0  0  0
  8  7  2  0  0  0  0
  9  1  1  0  0  0  0
  9 12  1  0  0  0  0
 10  2  1  0  0  0  0
 13 14  1  0  0  0  0
 15 14  1  0  0  0  0
 16  7  1  0  0  0  0
 17 16  1  0  0  0  0
 18  3  1  0  0  0  0
 18 19  1  0  0  0  0
 20 18  1  0  0  0  0
 21 18  1  0  0  0  0
M  END
>  <minimizedAffinity>
-4.67108631

$$$$

 OpenBabel03252503293D

 21 20  0  0  0  0  0  0  0  0999 V2000
   37.8180   31.1410   39.5780 C   0  0  0  0  0  0  0  0  0  0  0  0
   38.4240   30.7230   40.7630 C   0  0  0  0  0  0  0  0  0  0  0  0
   37.6580   29.8730   41.5740 C   0  0  0  0  0  0  0  0  0  0  0  0
   36.4290   29.5380   41.1500 N   0  0  0  0  0  0  0  0  0  0  0  0
   35.8850   29.9690   39.9940 C   0  0  0  0  0  0  0  0  0  0  0  0
   36.6050   30.7890   39.2000 N   0  0  0  0  0  0  0  0  0  0  0  0
   39.5390   31.2610   37.9480 C   0  0  0  0  0  0  0  0  0  0  0  0
   39.6760   30.0420   38.1760 O   0  0  0  0  0  0  0  0  0  0  0  0
   38.5260   32.0190   38.6770 N   0  0  0  0  0  0  0  0  0  0  0  0
   39.4230   31.0910   40.9470 H   0  0  0  0  0  0  0  0  0  0  0  0
   34.8840   29.6930   39.6570 H   0  0  0  0  0  0  0  0  0  0  0  0
   38.2400   33.0320   38.6520 H   0  0  0  0  0  0  0  0  0  0  0  0
   42.5230   32.0660   36.6610 H   0  0  0  0  0  0  0  0  0  0  0  0
   41.4440   32.1240   36.9240 C   0  0  0  0  0  2  0  0  0  0  0  0
   42.0540   31.0670   37.3250 O   0  0  0  0  0  1  0  0  0  0  0  0
   39.9920   32.3520   37.1990 N   0  0  0  0  0  2  0  0  0  0  0  0
   40.3440   33.0960   36.6770 H   0  0  0  0  0  0  0  0  0  0  0  0
   38.2900   29.4370   42.8180 C   0  0  0  0  0  0  0  0  0  0  0  0
   39.0600   28.3060   42.5900 F   0  0  0  0  0  0  0  0  0  0  0  0
   37.2650   29.0370   43.6790 F   0  0  0  0  0  0  0  0  0  0  0  0
   39.1100   30.3870   43.3690 F   0  0  0  0  0  0  0  0  0  0  0  0
  1  2  1  0  0  0  0
  2 10  1  0  0  0  0
  2  3  2  0  0  0  0
  3 18  1  0  0  0  0
  4  3  1  0  0  0  0
  5  4  2  0  0  0  0
  6  1  2  0  0  0  0
  6  5  1  0  0  0  0
  7  8  2  0  0  0  0
  7  9  1  0  0  0  0
  9  1  1  0  0  0  0
 11  5  1  0  0  0  0
 12  9  1  0  0  0  0
 13 14  1  0  0  0  0
 14 15  1  0  0  0  0
 16  7  1  0  0  0  0
 17 16  1  0  0  0  0
 18 21  1  0  0  0  0
 18 20  1  0  0  0  0
 19 18  1  0  0  0  0
M  END
>  <minimizedAffinity>
-4.59376431

$$$$

 OpenBabel03252503293D

 21 20  0  0  0  0  0  0  0  0999 V2000
   39.2870   27.8580   42.0170 C   0  0  0  0  0  0  0  0  0  0  0  0
   38.4120   26.8940   41.5180 C   0  0  0  0  0  0  0  0  0  0  0  0
   38.4140   25.6610   42.1870 C   0  0  0  0  0  0  0  0  0  0  0  0
   39.2430   25.5160   43.2330 N   0  0  0  0  0  0  0  0  0  0  0  0
   40.0730   26.4800   43.6800 C   0  0  0  0  0  0  0  0  0  0  0  0
   40.0870   27.6720   43.0480 N   0  0  0  0  0  0  0  0  0  0  0  0
   38.1910   29.9500   41.7780 C   0  0  0  0  0  0  0  0  0  0  0  0
   37.3280   29.4500   42.5270 O   0  0  0  0  0  0  0  0  0  0  0  0
   39.3570   29.1590   41.3950 N   0  0  0  0  0  0  0  0  0  0  0  0
   37.8150   27.1830   40.6650 H   0  0  0  0  0  0  0  0  0  0  0  0
   40.7450   26.3530   44.5300 H   0  0  0  0  0  0  0  0  0  0  0  0
   40.1900   29.3680   40.7860 H   0  0  0  0  0  0  0  0  0  0  0  0
   36.4580   32.3700   40.2460 H   0  0  0  0  0  0  0  0  0  0  0  0
   37.3170   31.7750   40.6250 C   0  0  0  0  0  2  0  0  0  0  0  0
   36.1540   31.3310   40.9440 O   0  0  0  0  0  1  0  0  0  0  0  0
   38.5720   31.0860   41.0560 N   0  0  0  0  0  2  0  0  0  0  0  0
   38.7990   31.8860   40.5470 H   0  0  0  0  0  0  0  0  0  0  0  0
   37.5010   24.6470   41.6620 C   0  0  0  0  0  0  0  0  0  0  0  0
   36.3810   24.5510   42.4740 F   0  0  0  0  0  0  0  0  0  0  0  0
   38.1550   23.4180   41.7610 F   0  0  0  0  0  0  0  0  0  0  0  0
   37.0640   24.9200   40.3920 F   0  0  0  0  0  0  0  0  0  0  0  0
  1  6  1  0  0  0  0
  2  1  2  0  0  0  0
  2  3  1  0  0  0  0
  3  4  2  0  0  0  0
  4  5  1  0  0  0  0
  5 11  1  0  0  0  0
  6  5  2  0  0  0  0
  7  8  2  0  0  0  0
  9  7  1  0  0  0  0
  9  1  1  0  0  0  0
 10  2  1  0  0  0  0
 12  9  1  0  0  0  0
 13 14  1  0  0  0  0
 14 15  1  0  0  0  0
 16  7  1  0  0  0  0
 17 16  1  0  0  0  0
 18 20  1  0  0  0  0
 18  3  1  0  0  0  0
 18 19  1  0  0  0  0
 21 18  1  0  0  0  0
M  END
>  <minimizedAffinity>
-4.52471733

$$$$

 OpenBabel03252503293D

 21 20  0  0  0  0  0  0  0  0999 V2000
   40.0920   28.6750   42.0060 C   0  0  0  0  0  0  0  0  0  0  0  0
   38.7550   28.2990   41.8850 C   0  0  0  0  0  0  0  0  0  0  0  0
   38.3270   27.2780   42.7460 C   0  0  0  0  0  0  0  0  0  0  0  0
   39.2240   26.7570   43.5990 N   0  0  0  0  0  0  0  0  0  0  0  0
   40.5090   27.1550   43.6790 C   0  0  0  0  0  0  0  0  0  0  0  0
   40.9410   28.1350   42.8590 N   0  0  0  0  0  0  0  0  0  0  0  0
   40.1680   31.0190   41.6410 C   0  0  0  0  0  0  0  0  0  0  0  0
   39.4160   31.0790   42.6340 O   0  0  0  0  0  0  0  0  0  0  0  0
   40.6270   29.7180   41.1640 N   0  0  0  0  0  0  0  0  0  0  0  0
   38.1730   28.8260   41.1420 H   0  0  0  0  0  0  0  0  0  0  0  0
   41.2330   26.7260   44.3750 H   0  0  0  0  0  0  0  0  0  0  0  0
   41.2480   29.4320   40.3630 H   0  0  0  0  0  0  0  0  0  0  0  0
   39.5280   33.9280   40.1120 H   0  0  0  0  0  0  0  0  0  0  0  0
   40.0420   32.9840   40.3970 C   0  0  0  0  0  2  0  0  0  0  0  0
   38.9520   33.2330   41.0310 O   0  0  0  0  0  1  0  0  0  0  0  0
   40.8490   31.7540   40.6650 N   0  0  0  0  0  2  0  0  0  0  0  0
   41.2940   32.2930   39.9850 H   0  0  0  0  0  0  0  0  0  0  0  0
   36.9260   26.8790   42.6170 C   0  0  0  0  0  0  0  0  0  0  0  0
   36.8320   25.4990   42.5200 F   0  0  0  0  0  0  0  0  0  0  0  0
   36.4680   27.3830   41.3970 F   0  0  0  0  0  0  0  0  0  0  0  0
   36.1540   27.2690   43.6790 F   0  0  0  0  0  0  0  0  0  0  0  0
  1  6  1  0  0  0  0
  2  1  2  0  0  0  0
  2  3  1  0  0  0  0
  3  4  2  0  0  0  0
  4  5  1  0  0  0  0
  5 11  1  0  0  0  0
  6  5  2  0  0  0  0
  7  8  2  0  0  0  0
  9  7  1  0  0  0  0
  9  1  1  0  0  0  0
 10  2  1  0  0  0  0
 12  9  1  0  0  0  0
 13 14  1  0  0  0  0
 14 15  1  0  0  0  0
 16  7  1  0  0  0  0
 17 16  1  0  0  0  0
 18  3  1  0  0  0  0
 18 21  1  0  0  0  0
 19 18  1  0  0  0  0
 20 18  1  0  0  0  0
M  END
>  <minimizedAffinity>
-4.49885559

$$$$
