
 OpenBabel03252502283D

 31 32  0  0  0  0  0  0  0  0999 V2000
   45.1470   34.4340   41.2370 C   0  0  0  0  0  0  0  0  0  0  0  0
   45.5490   35.0260   42.4230 C   0  0  0  0  0  0  0  0  0  0  0  0
   46.9150   35.2530   42.6010 C   0  0  0  0  0  0  0  0  0  0  0  0
   47.8230   34.8930   41.6160 C   0  0  0  0  0  0  0  0  0  0  0  0
   47.4260   34.3120   40.4510 C   0  0  0  0  0  0  0  0  0  0  0  0
   46.0620   34.0980   40.2990 C   0  0  0  0  0  0  0  0  0  0  0  0
   44.8150   35.3000   43.1820 H   0  0  0  0  0  0  0  0  0  0  0  0
   47.1870   35.7160   43.5330 H   0  0  0  0  0  0  0  0  0  0  0  0
   48.8770   35.0890   41.7970 H   0  0  0  0  0  0  0  0  0  0  0  0
   48.1110   34.0140   39.6530 H   0  0  0  0  0  0  0  0  0  0  0  0
   45.4550   32.1660   38.5970 C   0  0  0  0  0  0  0  0  0  0  0  0
   45.9400   31.1890   39.0940 O   0  0  0  0  0  0  0  0  0  0  0  0
   45.5420   33.5300   39.0990 N   0  0  0  0  0  0  0  0  0  0  0  0
   45.2390   34.4710   38.6500 H   0  0  0  0  0  0  0  0  0  0  0  0
   43.0800   30.6670   36.6860 H   0  0  0  0  0  0  0  0  0  0  0  0
   43.7960   31.4000   37.1010 C   0  0  0  0  0  0  0  0  0  0  0  0
   43.7950   30.2800   37.7120 O   0  0  0  0  0  0  0  0  0  0  0  0
   44.6790   32.5390   37.4870 N   0  0  0  0  0  0  0  0  0  0  0  0
   44.1340   32.8020   36.7060 H   0  0  0  0  0  0  0  0  0  0  0  0
   41.4500   34.8450   40.5900 C   0  0  0  0  0  0  0  0  0  0  0  0
   42.8150   35.1930   40.6830 C   0  0  0  0  0  0  0  0  0  0  0  0
   43.7120   34.2190   41.0830 C   0  0  0  0  0  0  0  0  0  0  0  0
   43.2180   32.9850   41.3600 N   0  0  0  0  0  0  0  0  0  0  0  0
   41.9120   32.6660   41.2680 C   0  0  0  0  0  0  0  0  0  0  0  0
   41.0190   33.6180   40.8750 N   0  0  0  0  0  0  0  0  0  0  0  0
   43.1870   36.1730   40.4580 H   0  0  0  0  0  0  0  0  0  0  0  0
   41.5700   31.6640   41.5010 H   0  0  0  0  0  0  0  0  0  0  0  0
   40.4690   35.8750   40.1640 C   0  0  0  0  0  0  0  0  0  0  0  0
   39.2400   35.2340   39.9810 F   0  0  0  0  0  0  0  0  0  0  0  0
   40.8490   36.3010   38.9070 F   0  0  0  0  0  0  0  0  0  0  0  0
   40.3430   36.9110   41.0590 F   0  0  0  0  0  0  0  0  0  0  0  0
  1  2  1  0  0  0  0
  2  3  2  0  0  0  0
  2  7  1  0  0  0  0
  3  8  1  0  0  0  0
  4  9  1  0  0  0  0
  4  3  1  0  0  0  0
  5  4  2  0  0  0  0
  6  5  1  0  0  0  0
  6  1  2  0  0  0  0
 10  5  1  0  0  0  0
 11 12  2  0  0  0  0
 11 13  1  0  0  0  0
 13  6  1  0  0  0  0
 14 13  1  0  0  0  0
 15 16  1  0  0  0  0
 16 18  1  0  0  0  0
 16 17  2  0  0  0  0
 18 11  1  0  0  0  0
 19 18  1  0  0  0  0
 20 21  2  0  0  0  0
 20 25  1  0  0  0  0
 21 22  1  0  0  0  0
 22  1  1  0  0  0  0
 22 23  2  0  0  0  0
 24 23  1  0  0  0  0
 24 27  1  0  0  0  0
 25 24  2  0  0  0  0
 26 21  1  0  0  0  0
 28 20  1  0  0  0  0
 28 31  1  0  0  0  0
 29 28  1  0  0  0  0
 30 28  1  0  0  0  0
M  END
>  <minimizedAffinity>
-5.81690979

>  <minimizedRMSD>
0.0511896834

$$$$
