
 OpenBabel03252508013D

 25 26  0  0  1  0  0  0  0  0999 V2000
   46.3250   34.6590   43.2610 C   0  0  0  0  0  0  0  0  0  0  0  0
   45.3410   35.6440   43.5730 C   0  0  0  0  0  0  0  0  0  0  0  0
   44.6820   35.4680   44.7870 C   0  0  0  0  0  0  0  0  0  0  0  0
   45.0010   34.4150   45.5720 N   0  0  0  0  0  0  0  0  0  0  0  0
   45.9630   33.5020   45.2050 C   0  0  0  0  0  0  0  0  0  0  0  0
   46.6220   33.6100   44.0710 N   0  0  0  0  0  0  0  0  0  0  0  0
   45.1590   36.4500   42.8770 H   0  0  0  0  0  0  0  0  0  0  0  0
   43.9310   36.1880   45.0630 H   0  0  0  0  0  0  0  0  0  0  0  0
   46.2630   32.3820   46.1390 C   0  0  1  0  0  0  0  0  0  0  0  0
   47.0730   32.6780   47.3850 C   0  0  0  0  0  0  0  0  0  0  0  0
   45.5870   32.4690   47.4500 C   0  0  1  0  0  0  0  0  0  0  0  0
   46.4240   31.3880   45.6810 H   0  0  0  0  0  0  0  0  0  0  0  0
   47.4930   33.7040   47.3840 H   0  0  0  0  0  0  0  0  0  0  0  0
   47.7040   31.8570   47.7730 H   0  0  0  0  0  0  0  0  0  0  0  0
   45.2430   31.6040   48.0260 H   0  0  0  0  0  0  0  0  0  0  0  0
   44.8860   33.7070   47.8160 N   0  0  0  0  0  0  0  0  0  0  0  0
   44.0050   33.4960   48.3620 H   0  0  0  0  0  0  0  0  0  0  0  0
   45.4800   34.2500   48.4850 H   0  0  0  0  0  0  0  0  0  0  0  0
   47.0220   34.8540   42.0060 C   0  0  0  0  0  0  0  0  0  0  0  0
   48.2230   35.2980   41.9300 O   0  0  0  0  0  0  0  0  0  0  0  0
   45.5610   33.1720   39.3440 H   0  0  0  0  0  0  0  0  0  0  0  0
   45.9820   33.2860   40.3300 C   0  0  0  0  0  0  0  0  0  0  0  0
   46.0870   32.3380   41.1570 O   0  0  0  0  0  0  0  0  0  0  0  0
   46.4450   34.5720   40.7290 N   0  0  0  0  0  0  0  0  0  0  0  0
   46.3870   35.3950   40.0930 H   0  0  0  0  0  0  0  0  0  0  0  0
  1  2  2  0  0  0  0
  1  6  1  0  0  0  0
  2  3  1  0  0  0  0
  3  8  1  0  0  0  0
  3  4  2  0  0  0  0
  5  4  1  0  0  0  0
  5  9  1  0  0  0  0
  6  5  2  0  0  0  0
  7  2  1  0  0  0  0
  9 12  1  6  0  0  0
  9 10  1  0  0  0  0
  9 11  1  0  0  0  0
 10 11  1  0  0  0  0
 10 14  1  0  0  0  0
 11 16  1  0  0  0  0
 11 15  1  1  0  0  0
 13 10  1  0  0  0  0
 16 17  1  0  0  0  0
 16 18  1  0  0  0  0
 19  1  1  0  0  0  0
 20 19  2  0  0  0  0
 21 22  1  0  0  0  0
 22 24  1  0  0  0  0
 22 23  2  0  0  0  0
 24 19  1  0  0  0  0
 25 24  1  0  0  0  0
M  END
>  <minimizedAffinity>
-5.07117367

>  <minimizedRMSD>
0.122765362

$$$$
