REMARK  Name = 
REMARK  2 active torsions:
REMARK  status: ('A' for Active; 'I' for Inactive)
REMARK    1  A    between atoms: C_1  and  N_9
REMARK    2  A    between atoms: C_2  and  N_10
REMARK                            x       y       z     vdW  Elec       q    Type
REMARK                         _______ _______ _______ _____ _____    ______ ____
ROOT
ATOM      1  C   UNL     1      45.306  34.559  45.034  0.00  0.00    +0.000 A 
ATOM      2  C   UNL     1      45.267  33.934  46.273  0.00  0.00    +0.000 A 
ATOM      3  C   UNL     1      46.167  32.899  46.483  0.00  0.00    +0.000 A 
ATOM      4  N   UNL     1      47.000  32.586  45.474  0.00  0.00    +0.000 NA
ATOM      5  C   UNL     1      47.022  33.204  44.281  0.00  0.00    +0.000 A 
ATOM      6  N   UNL     1      46.156  34.217  44.047  0.00  0.00    +0.000 NA
ATOM      7  H   UNL     1      46.120  32.434  47.437  0.00  0.00    +0.000 HD
ATOM      8  H   UNL     1      47.730  32.879  43.531  0.00  0.00    +0.000 HD
ENDROOT
BRANCH   1  11
ATOM      9  C   UNL     1      43.976  35.381  43.297  0.00  0.00    +0.000 C 
ATOM     10  O   UNL     1      44.400  34.282  42.842  0.00  0.00    +0.000 OA
ATOM     11  N   UNL     1      44.454  35.660  44.612  0.00  0.00    +0.000 N 
ATOM     12  H   UNL     1      44.188  36.525  45.110  0.00  0.00    +0.000 HD
ATOM     13  H   UNL     1      42.986  37.504  40.733  0.00  0.00    +0.000 HD
ATOM     14  C   UNL     1      43.557  36.809  41.362  0.00  0.00    +0.000 C 
ATOM     15  O   UNL     1      44.684  36.538  40.840  0.00  0.00    +0.000 OA
ATOM     16  N   UNL     1      43.113  36.272  42.600  0.00  0.00    +0.000 N 
ATOM     17  H   UNL     1      44.063  35.977  42.266  0.00  0.00    +0.000 HD
ENDBRANCH   1  11
BRANCH   2  18
ATOM     18  N   UNL     1      44.307  34.429  47.185  0.00  0.00    +0.000 N 
ATOM     19  H   UNL     1      44.971  35.082  47.610  0.00  0.00    +0.000 HD
ATOM     20  H   UNL     1      43.522  33.812  46.846  0.00  0.00    +0.000 HD
ENDBRANCH   2  18
TORSDOF 2
