REMARK  Name = 
REMARK  2 active torsions:
REMARK  status: ('A' for Active; 'I' for Inactive)
REMARK    1  A    between atoms: C_2  and  C_13
REMARK    2  A    between atoms: C_3  and  C_7
REMARK                            x       y       z     vdW  Elec       q    Type
REMARK                         _______ _______ _______ _____ _____    ______ ____
ROOT
ATOM      1  C   UNL     1      45.267  36.163  43.175  0.00  0.00    +0.000 A 
ATOM      2  C   UNL     1      45.874  34.917  42.899  0.00  0.00    +0.000 A 
ATOM      3  C   UNL     1      45.828  33.955  43.900  0.00  0.00    +0.000 A 
ATOM      4  N   UNL     1      45.227  34.223  45.071  0.00  0.00    +0.000 NA
ATOM      5  C   UNL     1      44.646  35.437  45.314  0.00  0.00    +0.000 A 
ATOM      6  N   UNL     1      44.678  36.369  44.375  0.00  0.00    +0.000 NA
ATOM      7  H   UNL     1      45.322  36.892  42.370  0.00  0.00    +0.000 HD
ATOM      8  H   UNL     1      44.160  35.657  46.259  0.00  0.00    +0.000 HD
ENDROOT
BRANCH   3   9
ATOM      9  C   UNL     1      46.450  32.659  43.632  0.00  0.00    +0.000 A 
ATOM     10  C   UNL     1      45.656  31.577  43.291  0.00  0.00    +0.000 A 
ATOM     11  C   UNL     1      46.283  30.374  43.047  0.00  0.00    +0.000 A 
ATOM     12  C   UNL     1      47.653  30.176  43.120  0.00  0.00    +0.000 A 
ATOM     13  C   UNL     1      48.378  31.311  43.468  0.00  0.00    +0.000 A 
ATOM     14  N   UNL     1      47.769  32.496  43.710  0.00  0.00    +0.000 NA
ATOM     15  H   UNL     1      44.564  31.642  43.209  0.00  0.00    +0.000 HD
ATOM     16  H   UNL     1      45.680  29.518  42.779  0.00  0.00    +0.000 HD
ATOM     17  H   UNL     1      48.128  29.229  42.926  0.00  0.00    +0.000 HD
ATOM     18  H   UNL     1      49.439  31.288  43.557  0.00  0.00    +0.000 HD
ENDBRANCH   3   9
BRANCH   2  19
ATOM     19  C   UNL     1      46.498  34.677  41.645  0.00  0.00    +0.000 C 
ATOM     20  O   UNL     1      47.664  35.124  41.462  0.00  0.00    +0.000 OA
ATOM     21  H   UNL     1      44.609  34.110  38.839  0.00  0.00    +0.000 HD
ATOM     22  C   UNL     1      45.179  34.670  39.575  0.00  0.00    +0.000 C 
ATOM     23  O   UNL     1      45.359  35.925  39.505  0.00  0.00    +0.000 OA
ATOM     24  N   UNL     1      45.745  33.937  40.670  0.00  0.00    +0.000 N 
ATOM     25  H   UNL     1      45.575  32.890  40.699  0.00  0.00    +0.000 HD
ENDBRANCH   2  19
TORSDOF 2
