
 OpenBabel03252502283D

 31 32  0  0  0  0  0  0  0  0999 V2000
   45.1460   34.3540   41.1260 C   0  0  0  0  0  0  0  0  0  0  0  0
   45.5470   34.8490   42.3560 C   0  0  0  0  0  0  0  0  0  0  0  0
   46.9120   35.0640   42.5520 C   0  0  0  0  0  0  0  0  0  0  0  0
   47.8210   34.7870   41.5430 C   0  0  0  0  0  0  0  0  0  0  0  0
   47.4250   34.3000   40.3350 C   0  0  0  0  0  0  0  0  0  0  0  0
   46.0620   34.0960   40.1650 C   0  0  0  0  0  0  0  0  0  0  0  0
   44.8120   35.0610   43.1340 H   0  0  0  0  0  0  0  0  0  0  0  0
   47.1820   35.4520   43.5190 H   0  0  0  0  0  0  0  0  0  0  0  0
   48.8750   34.9700   41.7390 H   0  0  0  0  0  0  0  0  0  0  0  0
   48.1120   34.0680   39.5160 H   0  0  0  0  0  0  0  0  0  0  0  0
   45.5240   32.3170   38.2820 C   0  0  0  0  0  0  0  0  0  0  0  0
   46.0780   31.3250   38.6640 O   0  0  0  0  0  0  0  0  0  0  0  0
   45.5440   33.6250   38.9230 N   0  0  0  0  0  0  0  0  0  0  0  0
   45.1750   34.5870   38.5820 H   0  0  0  0  0  0  0  0  0  0  0  0
   45.7960   32.5130   34.9010 H   0  0  0  0  0  0  0  0  0  0  0  0
   45.4150   32.5770   35.9380 C   0  0  0  0  0  0  0  0  0  0  0  0
   46.5980   32.1070   35.8540 O   0  0  0  0  0  0  0  0  0  0  0  0
   44.6970   32.7550   37.2340 N   0  0  0  0  0  0  0  0  0  0  0  0
   44.1160   33.0640   36.4970 H   0  0  0  0  0  0  0  0  0  0  0  0
   41.4510   34.8050   40.4980 C   0  0  0  0  0  0  0  0  0  0  0  0
   42.8150   35.1460   40.6170 C   0  0  0  0  0  0  0  0  0  0  0  0
   43.7120   34.1480   40.9550 C   0  0  0  0  0  0  0  0  0  0  0  0
   43.2180   32.8990   41.1480 N   0  0  0  0  0  0  0  0  0  0  0  0
   41.9130   32.5850   41.0320 C   0  0  0  0  0  0  0  0  0  0  0  0
   41.0200   33.5610   40.7010 N   0  0  0  0  0  0  0  0  0  0  0  0
   43.1860   36.1390   40.4590 H   0  0  0  0  0  0  0  0  0  0  0  0
   41.5710   31.5710   41.1970 H   0  0  0  0  0  0  0  0  0  0  0  0
   40.4700   35.8600   40.1390 C   0  0  0  0  0  0  0  0  0  0  0  0
   39.2300   35.2380   39.9630 F   0  0  0  0  0  0  0  0  0  0  0  0
   40.8220   36.3320   38.8900 F   0  0  0  0  0  0  0  0  0  0  0  0
   40.3780   36.8610   41.0770 F   0  0  0  0  0  0  0  0  0  0  0  0
  1  2  1  0  0  0  0
  2  3  2  0  0  0  0
  2  7  1  0  0  0  0
  3  8  1  0  0  0  0
  4  9  1  0  0  0  0
  4  3  1  0  0  0  0
  5  4  2  0  0  0  0
  6  5  1  0  0  0  0
  6  1  2  0  0  0  0
 10  5  1  0  0  0  0
 11 12  2  0  0  0  0
 11 13  1  0  0  0  0
 13  6  1  0  0  0  0
 14 13  1  0  0  0  0
 15 16  1  0  0  0  0
 16 18  1  0  0  0  0
 17 16  2  0  0  0  0
 18 11  1  0  0  0  0
 19 18  1  0  0  0  0
 20 21  2  0  0  0  0
 20 25  1  0  0  0  0
 21 22  1  0  0  0  0
 22  1  1  0  0  0  0
 22 23  2  0  0  0  0
 24 23  1  0  0  0  0
 24 27  1  0  0  0  0
 25 24  2  0  0  0  0
 26 21  1  0  0  0  0
 28 20  1  0  0  0  0
 28 31  1  0  0  0  0
 29 28  1  0  0  0  0
 30 28  1  0  0  0  0
M  END
>  <minimizedAffinity>
-5.99399137

>  <minimizedRMSD>
0.260750711

$$$$
