
 OpenBabel03252508013D

 25 26  0  0  1  0  0  0  0  0999 V2000
   46.7920   33.1230   44.7720 C   0  0  0  0  0  0  0  0  0  0  0  0
   45.9040   33.8050   45.6570 C   0  0  0  0  0  0  0  0  0  0  0  0
   45.4850   33.0740   46.7650 C   0  0  0  0  0  0  0  0  0  0  0  0
   45.9270   31.8080   46.9340 N   0  0  0  0  0  0  0  0  0  0  0  0
   46.7850   31.2130   46.0380 C   0  0  0  0  0  0  0  0  0  0  0  0
   47.2180   31.8490   44.9700 N   0  0  0  0  0  0  0  0  0  0  0  0
   45.6090   34.8190   45.4320 H   0  0  0  0  0  0  0  0  0  0  0  0
   44.8140   33.5500   47.4590 H   0  0  0  0  0  0  0  0  0  0  0  0
   47.2360   29.8210   46.3130 C   0  0  1  0  0  0  0  0  0  0  0  0
   48.7230   29.5490   46.4050 C   0  0  0  0  0  0  0  0  0  0  0  0
   47.8640   29.6230   47.6350 C   0  0  1  0  0  0  0  0  0  0  0  0
   46.6200   29.0090   45.8820 H   0  0  0  0  0  0  0  0  0  0  0  0
   49.3340   30.4220   46.0990 H   0  0  0  0  0  0  0  0  0  0  0  0
   49.0630   28.5420   46.1000 H   0  0  0  0  0  0  0  0  0  0  0  0
   47.7820   28.7050   48.2260 H   0  0  0  0  0  0  0  0  0  0  0  0
   48.1990   30.7950   48.4550 N   0  0  0  0  0  0  0  0  0  0  0  0
   48.0350   30.5980   49.4820 H   0  0  0  0  0  0  0  0  0  0  0  0
   49.2270   30.9750   48.3880 H   0  0  0  0  0  0  0  0  0  0  0  0
   47.2410   33.8920   43.6290 C   0  0  0  0  0  0  0  0  0  0  0  0
   46.4430   34.3720   42.7480 O   0  0  0  0  0  0  0  0  0  0  0  0
   50.2710   34.3240   41.9910 H   0  0  0  0  0  0  0  0  0  0  0  0
   49.2270   34.0730   42.0880 C   0  0  0  0  0  0  0  0  0  0  0  0
   48.5130   33.6770   41.1260 O   0  0  0  0  0  0  0  0  0  0  0  0
   48.6140   34.1930   43.3680 N   0  0  0  0  0  0  0  0  0  0  0  0
   49.1480   34.5140   44.2020 H   0  0  0  0  0  0  0  0  0  0  0  0
  1  6  2  0  0  0  0
  1  2  1  0  0  0  0
  2  3  2  0  0  0  0
  3  4  1  0  0  0  0
  3  8  1  0  0  0  0
  5  9  1  0  0  0  0
  5  4  2  0  0  0  0
  6  5  1  0  0  0  0
  7  2  1  0  0  0  0
  9 12  1  6  0  0  0
  9 10  1  0  0  0  0
  9 11  1  0  0  0  0
 10 11  1  0  0  0  0
 11 15  1  1  0  0  0
 11 16  1  0  0  0  0
 13 10  1  0  0  0  0
 14 10  1  0  0  0  0
 16 17  1  0  0  0  0
 18 16  1  0  0  0  0
 19  1  1  0  0  0  0
 20 19  2  0  0  0  0
 21 22  1  0  0  0  0
 22 24  1  0  0  0  0
 23 22  2  0  0  0  0
 24 19  1  0  0  0  0
 24 25  1  0  0  0  0
M  END
>  <minimizedAffinity>
-3.75135326

>  <minimizedRMSD>
3.17243671

$$$$
