
 OpenBabel03252504003D

 30 32  0  0  0  0  0  0  0  0999 V2000
   46.0590   31.7680   45.1440 C   0  0  0  0  0  0  0  0  0  0  0  0
   45.7720   33.0650   45.5680 C   0  0  0  0  0  0  0  0  0  0  0  0
   45.4800   33.2930   46.8880 C   0  0  0  0  0  0  0  0  0  0  0  0
   45.4780   32.2290   47.7680 C   0  0  0  0  0  0  0  0  0  0  0  0
   45.2340   32.1470   49.0910 N   0  0  0  0  0  0  0  0  0  0  0  0
   45.3460   30.8910   49.5280 C   0  0  0  0  0  0  0  0  0  0  0  0
   45.6800   30.1020   48.4590 C   0  0  0  0  0  0  0  0  0  0  0  0
   45.7650   30.9300   47.3490 C   0  0  0  0  0  0  0  0  0  0  0  0
   46.0560   30.7120   46.0280 C   0  0  0  0  0  0  0  0  0  0  0  0
   46.3040   31.4810   44.1110 H   0  0  0  0  0  0  0  0  0  0  0  0
   45.2590   34.3070   47.2020 H   0  0  0  0  0  0  0  0  0  0  0  0
   44.9910   32.9830   49.6590 H   0  0  0  0  0  0  0  0  0  0  0  0
   45.1840   30.6250   50.5710 H   0  0  0  0  0  0  0  0  0  0  0  0
   45.8410   29.0310   48.4970 H   0  0  0  0  0  0  0  0  0  0  0  0
   46.2710   29.6850   45.7570 H   0  0  0  0  0  0  0  0  0  0  0  0
   46.7580   35.0460   42.6700 C   0  0  0  0  0  0  0  0  0  0  0  0
   45.8270   36.0840   42.6380 C   0  0  0  0  0  0  0  0  0  0  0  0
   44.8510   36.0910   43.6320 C   0  0  0  0  0  0  0  0  0  0  0  0
   44.8640   35.1050   44.5580 N   0  0  0  0  0  0  0  0  0  0  0  0
   45.8000   34.1080   44.5470 C   0  0  0  0  0  0  0  0  0  0  0  0
   46.7470   34.0760   43.6050 N   0  0  0  0  0  0  0  0  0  0  0  0
   45.8490   36.8560   41.8800 H   0  0  0  0  0  0  0  0  0  0  0  0
   44.1120   36.8820   43.6370 H   0  0  0  0  0  0  0  0  0  0  0  0
   47.7530   35.0820   41.6140 C   0  0  0  0  0  0  0  0  0  0  0  0
   48.8580   35.6940   41.6710 O   0  0  0  0  0  0  0  0  0  0  0  0
   45.9980   33.0910   39.3360 H   0  0  0  0  0  0  0  0  0  0  0  0
   46.2600   33.6530   40.2430 C   0  0  0  0  0  0  0  0  0  0  0  0
   45.3940   33.6280   41.1780 O   0  0  0  0  0  0  0  0  0  0  0  0
   47.4830   34.3730   40.3970 N   0  0  0  0  0  0  0  0  0  0  0  0
   48.1270   34.3310   39.5750 H   0  0  0  0  0  0  0  0  0  0  0  0
  1  2  2  0  0  0  0
  1  9  1  0  0  0  0
  2  3  1  0  0  0  0
  3 11  1  0  0  0  0
  3  4  2  0  0  0  0
  4  5  1  0  0  0  0
  5  6  1  0  0  0  0
  5 12  1  0  0  0  0
  6 13  1  0  0  0  0
  7 14  1  0  0  0  0
  7  6  2  0  0  0  0
  8  4  1  0  0  0  0
  8  7  1  0  0  0  0
  9  8  2  0  0  0  0
 10  1  1  0  0  0  0
 15  9  1  0  0  0  0
 16 21  1  0  0  0  0
 17 16  2  0  0  0  0
 17 18  1  0  0  0  0
 18 23  1  0  0  0  0
 18 19  2  0  0  0  0
 20 19  1  0  0  0  0
 20  2  1  0  0  0  0
 21 20  2  0  0  0  0
 22 17  1  0  0  0  0
 24 25  2  0  0  0  0
 24 16  1  0  0  0  0
 26 27  1  0  0  0  0
 27 29  1  0  0  0  0
 27 28  2  0  0  0  0
 29 24  1  0  0  0  0
 30 29  1  0  0  0  0
M  END
>  <minimizedAffinity>
-5.80401421

>  <minimizedRMSD>
0.405157089

$$$$
