
 OpenBabel03252508013D

 25 26  0  0  1  0  0  0  0  0999 V2000
   46.2170   34.7420   43.2490 C   0  0  0  0  0  0  0  0  0  0  0  0
   45.2720   35.7470   43.6120 C   0  0  0  0  0  0  0  0  0  0  0  0
   44.6480   35.5650   44.8430 C   0  0  0  0  0  0  0  0  0  0  0  0
   44.9610   34.4870   45.5960 N   0  0  0  0  0  0  0  0  0  0  0  0
   45.8840   33.5560   45.1810 C   0  0  0  0  0  0  0  0  0  0  0  0
   46.5090   33.6690   44.0280 N   0  0  0  0  0  0  0  0  0  0  0  0
   45.0910   36.5720   42.9390 H   0  0  0  0  0  0  0  0  0  0  0  0
   43.9270   36.3000   45.1580 H   0  0  0  0  0  0  0  0  0  0  0  0
   46.1820   32.4090   46.0820 C   0  0  1  0  0  0  0  0  0  0  0  0
   47.0270   32.6590   47.3140 C   0  0  0  0  0  0  0  0  0  0  0  0
   45.5380   32.4800   47.4100 C   0  0  1  0  0  0  0  0  0  0  0  0
   46.3090   31.4220   45.5990 H   0  0  0  0  0  0  0  0  0  0  0  0
   47.4680   33.6760   47.3270 H   0  0  0  0  0  0  0  0  0  0  0  0
   47.6490   31.8160   47.6690 H   0  0  0  0  0  0  0  0  0  0  0  0
   45.1890   31.6100   47.9750 H   0  0  0  0  0  0  0  0  0  0  0  0
   44.8730   33.7240   47.8210 N   0  0  0  0  0  0  0  0  0  0  0  0
   44.0010   33.5190   48.3830 H   0  0  0  0  0  0  0  0  0  0  0  0
   45.4940   34.2390   48.4870 H   0  0  0  0  0  0  0  0  0  0  0  0
   46.8780   34.9430   41.9750 C   0  0  0  0  0  0  0  0  0  0  0  0
   48.0170   35.5210   41.8590 O   0  0  0  0  0  0  0  0  0  0  0  0
   46.3190   33.1440   39.0600 H   0  0  0  0  0  0  0  0  0  0  0  0
   46.7960   33.3850   39.9950 C   0  0  0  0  0  0  0  0  0  0  0  0
   47.7480   32.7180   40.4870 O   0  0  0  0  0  0  0  0  0  0  0  0
   46.3320   34.5170   40.7250 N   0  0  0  0  0  0  0  0  0  0  0  0
   45.5510   35.1110   40.3750 H   0  0  0  0  0  0  0  0  0  0  0  0
  1  2  2  0  0  0  0
  1  6  1  0  0  0  0
  2  3  1  0  0  0  0
  3  8  1  0  0  0  0
  3  4  2  0  0  0  0
  5  4  1  0  0  0  0
  5  9  1  0  0  0  0
  6  5  2  0  0  0  0
  7  2  1  0  0  0  0
  9 12  1  6  0  0  0
  9 10  1  0  0  0  0
  9 11  1  0  0  0  0
 10 13  1  0  0  0  0
 10 11  1  0  0  0  0
 10 14  1  0  0  0  0
 11 16  1  0  0  0  0
 11 15  1  1  0  0  0
 16 17  1  0  0  0  0
 16 18  1  0  0  0  0
 19  1  1  0  0  0  0
 20 19  2  0  0  0  0
 21 22  1  0  0  0  0
 22 23  2  0  0  0  0
 22 24  1  0  0  0  0
 24 19  1  0  0  0  0
 25 24  1  0  0  0  0
M  END
>  <minimizedAffinity>
-5.22371292

>  <minimizedRMSD>
0.0486441106

$$$$
