
 OpenBabel03252507173D

 25 26  0  0  0  0  0  0  0  0999 V2000
   45.1780   36.1880   43.3260 C   0  0  0  0  0  0  0  0  0  0  0  0
   45.8090   34.9750   42.9680 C   0  0  0  0  0  0  0  0  0  0  0  0
   45.8260   33.9650   43.9220 C   0  0  0  0  0  0  0  0  0  0  0  0
   45.2610   34.1590   45.1250 N   0  0  0  0  0  0  0  0  0  0  0  0
   44.6560   35.3430   45.4470 C   0  0  0  0  0  0  0  0  0  0  0  0
   44.6280   36.3190   44.5540 N   0  0  0  0  0  0  0  0  0  0  0  0
   45.1830   36.9550   42.5560 H   0  0  0  0  0  0  0  0  0  0  0  0
   44.1990   35.5030   46.4180 H   0  0  0  0  0  0  0  0  0  0  0  0
   46.4730   32.7020   43.5700 C   0  0  0  0  0  0  0  0  0  0  0  0
   45.7040   31.6390   43.1280 C   0  0  0  0  0  0  0  0  0  0  0  0
   46.3540   30.4670   42.8060 C   0  0  0  0  0  0  0  0  0  0  0  0
   47.7250   30.2830   42.8960 C   0  0  0  0  0  0  0  0  0  0  0  0
   48.4250   31.3970   43.3470 C   0  0  0  0  0  0  0  0  0  0  0  0
   47.7930   32.5510   43.6660 N   0  0  0  0  0  0  0  0  0  0  0  0
   44.6130   31.6960   43.0250 H   0  0  0  0  0  0  0  0  0  0  0  0
   45.7700   29.6270   42.4590 H   0  0  0  0  0  0  0  0  0  0  0  0
   48.2190   29.3600   42.6410 H   0  0  0  0  0  0  0  0  0  0  0  0
   49.4840   31.3810   43.4590 H   0  0  0  0  0  0  0  0  0  0  0  0
   46.3930   34.8130   41.6830 C   0  0  0  0  0  0  0  0  0  0  0  0
   47.6280   35.0400   41.5540 O   0  0  0  0  0  0  0  0  0  0  0  0
   43.4830   33.8750   40.1280 H   0  0  0  0  0  0  0  0  0  0  0  0
   44.1410   34.1860   40.9350 C   0  0  0  0  0  0  0  0  0  0  0  0
   43.7400   34.3650   42.1270 O   0  0  0  0  0  0  0  0  0  0  0  0
   45.5230   34.4010   40.6150 N   0  0  0  0  0  0  0  0  0  0  0  0
   45.8240   34.2430   39.6100 H   0  0  0  0  0  0  0  0  0  0  0  0
  1  6  1  0  0  0  0
  2  1  2  0  0  0  0
  2  3  1  0  0  0  0
  3  4  2  0  0  0  0
  4  5  1  0  0  0  0
  5  8  1  0  0  0  0
  6  5  2  0  0  0  0
  7  1  1  0  0  0  0
  9 14  1  0  0  0  0
  9  3  1  0  0  0  0
 10  9  2  0  0  0  0
 11 12  2  0  0  0  0
 11 10  1  0  0  0  0
 12 13  1  0  0  0  0
 13 18  1  0  0  0  0
 13 14  2  0  0  0  0
 15 10  1  0  0  0  0
 16 11  1  0  0  0  0
 17 12  1  0  0  0  0
 19  2  1  0  0  0  0
 20 19  2  0  0  0  0
 21 22  1  0  0  0  0
 22 23  2  0  0  0  0
 24 22  1  0  0  0  0
 24 19  1  0  0  0  0
 25 24  1  0  0  0  0
M  END
>  <minimizedAffinity>
-4.41588402

>  <minimizedRMSD>
0.307553887

$$$$
