
 OpenBabel03252502283D

 31 32  0  0  0  0  0  0  0  0999 V2000
   45.1390   34.4270   41.2200 C   0  0  0  0  0  0  0  0  0  0  0  0
   45.5470   35.0340   42.3970 C   0  0  0  0  0  0  0  0  0  0  0  0
   46.9140   35.2590   42.5680 C   0  0  0  0  0  0  0  0  0  0  0  0
   47.8180   34.8840   41.5860 C   0  0  0  0  0  0  0  0  0  0  0  0
   47.4150   34.2880   40.4300 C   0  0  0  0  0  0  0  0  0  0  0  0
   46.0500   34.0760   40.2840 C   0  0  0  0  0  0  0  0  0  0  0  0
   44.8150   35.3200   43.1550 H   0  0  0  0  0  0  0  0  0  0  0  0
   47.1890   35.7340   43.4940 H   0  0  0  0  0  0  0  0  0  0  0  0
   48.8730   35.0790   41.7610 H   0  0  0  0  0  0  0  0  0  0  0  0
   48.0980   33.9780   39.6340 H   0  0  0  0  0  0  0  0  0  0  0  0
   45.4760   32.1290   38.5890 C   0  0  0  0  0  0  0  0  0  0  0  0
   46.0040   31.1680   39.0720 O   0  0  0  0  0  0  0  0  0  0  0  0
   45.5260   33.4940   39.0930 N   0  0  0  0  0  0  0  0  0  0  0  0
   45.1810   34.4250   38.6540 H   0  0  0  0  0  0  0  0  0  0  0  0
   42.3980   31.2250   37.4670 H   0  0  0  0  0  0  0  0  0  0  0  0
   43.3890   31.7070   37.5670 C   0  0  0  0  0  0  0  0  0  0  0  0
   43.1320   30.8660   38.4920 O   0  0  0  0  0  0  0  0  0  0  0  0
   44.6640   32.4780   37.4960 N   0  0  0  0  0  0  0  0  0  0  0  0
   44.0930   32.7240   36.7280 H   0  0  0  0  0  0  0  0  0  0  0  0
   41.4400   34.8430   40.5860 C   0  0  0  0  0  0  0  0  0  0  0  0
   42.8060   35.1880   40.6720 C   0  0  0  0  0  0  0  0  0  0  0  0
   43.7030   34.2140   41.0730 C   0  0  0  0  0  0  0  0  0  0  0  0
   43.2080   32.9830   41.3580 N   0  0  0  0  0  0  0  0  0  0  0  0
   41.9010   32.6660   41.2730 C   0  0  0  0  0  0  0  0  0  0  0  0
   41.0080   33.6170   40.8800 N   0  0  0  0  0  0  0  0  0  0  0  0
   43.1790   36.1670   40.4410 H   0  0  0  0  0  0  0  0  0  0  0  0
   41.5580   31.6660   41.5120 H   0  0  0  0  0  0  0  0  0  0  0  0
   40.4590   35.8720   40.1590 C   0  0  0  0  0  0  0  0  0  0  0  0
   39.2320   35.2300   39.9690 F   0  0  0  0  0  0  0  0  0  0  0  0
   40.8440   36.3030   38.9050 F   0  0  0  0  0  0  0  0  0  0  0  0
   40.3280   36.9050   41.0570 F   0  0  0  0  0  0  0  0  0  0  0  0
  1  2  1  0  0  0  0
  2  3  2  0  0  0  0
  2  7  1  0  0  0  0
  3  8  1  0  0  0  0
  4  9  1  0  0  0  0
  4  3  1  0  0  0  0
  5  4  2  0  0  0  0
  6  5  1  0  0  0  0
  6  1  2  0  0  0  0
 10  5  1  0  0  0  0
 11 12  2  0  0  0  0
 11 13  1  0  0  0  0
 13  6  1  0  0  0  0
 14 13  1  0  0  0  0
 15 16  1  0  0  0  0
 16 17  2  0  0  0  0
 18 16  1  0  0  0  0
 18 11  1  0  0  0  0
 19 18  1  0  0  0  0
 20 21  2  0  0  0  0
 20 25  1  0  0  0  0
 21 22  1  0  0  0  0
 22  1  1  0  0  0  0
 22 23  2  0  0  0  0
 24 23  1  0  0  0  0
 24 27  1  0  0  0  0
 25 24  2  0  0  0  0
 26 21  1  0  0  0  0
 28 20  1  0  0  0  0
 28 31  1  0  0  0  0
 29 28  1  0  0  0  0
 30 28  1  0  0  0  0
M  END
>  <minimizedAffinity>
-5.8099885

>  <minimizedRMSD>
0.031500373

$$$$
