
 OpenBabel03252503283D

 21 20  0  0  0  0  0  0  0  0999 V2000
   45.1860   35.0190   43.3520 C   0  0  0  0  0  0  0  0  0  0  0  0
   46.1280   35.3680   42.3840 C   0  0  0  0  0  0  0  0  0  0  0  0
   47.3870   34.7630   42.5110 C   0  0  0  0  0  0  0  0  0  0  0  0
   47.5770   33.9150   43.5340 N   0  0  0  0  0  0  0  0  0  0  0  0
   46.6330   33.6090   44.4470 C   0  0  0  0  0  0  0  0  0  0  0  0
   45.4160   34.1810   44.3430 N   0  0  0  0  0  0  0  0  0  0  0  0
   43.0850   34.9450   42.2510 C   0  0  0  0  0  0  0  0  0  0  0  0
   43.6140   34.0560   41.5540 O   0  0  0  0  0  0  0  0  0  0  0  0
   43.8610   35.5890   43.3060 N   0  0  0  0  0  0  0  0  0  0  0  0
   45.8020   36.0690   41.6280 H   0  0  0  0  0  0  0  0  0  0  0  0
   46.7970   32.9190   45.2770 H   0  0  0  0  0  0  0  0  0  0  0  0
   43.6280   36.3460   44.0000 H   0  0  0  0  0  0  0  0  0  0  0  0
   40.6010   35.9920   40.2660 H   0  0  0  0  0  0  0  0  0  0  0  0
   41.2120   35.8210   41.1790 C   0  0  0  0  0  0  0  0  0  0  0  0
   41.6670   35.2900   40.1010 O   0  0  0  0  0  0  0  0  0  0  0  0
   41.9200   35.6830   42.4880 N   0  0  0  0  0  0  0  0  0  0  0  0
   41.1000   36.1950   42.6140 H   0  0  0  0  0  0  0  0  0  0  0  0
   48.3770   35.1310   41.4990 C   0  0  0  0  0  0  0  0  0  0  0  0
   49.4940   34.3180   41.6110 F   0  0  0  0  0  0  0  0  0  0  0  0
   48.8100   36.4240   41.8030 F   0  0  0  0  0  0  0  0  0  0  0  0
   47.9080   35.0120   40.2170 F   0  0  0  0  0  0  0  0  0  0  0  0
  1  6  1  0  0  0  0
  2  3  1  0  0  0  0
  2  1  2  0  0  0  0
  3  4  2  0  0  0  0
  4  5  1  0  0  0  0
  5 11  1  0  0  0  0
  6  5  2  0  0  0  0
  7 16  1  0  0  0  0
  7  9  1  0  0  0  0
  8  7  2  0  0  0  0
  9  1  1  0  0  0  0
  9 12  1  0  0  0  0
 10  2  1  0  0  0  0
 13 14  1  0  0  0  0
 15 14  1  0  0  0  0
 16 17  1  0  0  0  0
 18 19  1  0  0  0  0
 18 20  1  0  0  0  0
 18  3  1  0  0  0  0
 21 18  1  0  0  0  0
M  END
>  <minimizedAffinity>
-5.92330742

>  <minimizedRMSD>
0.524691582

$$$$
