
     RDKit          3D

 25 26  0  0  0  0  0  0  0  0999 V2000
   46.2580   34.7534   43.2419 C   0  0  0  0  0  0  0  0  0  0  0  0
   45.2946   35.7470   43.5881 C   0  0  0  0  0  0  0  0  0  0  0  0
   44.6523   35.5590   44.8077 C   0  0  0  0  0  0  0  0  0  0  0  0
   44.9647   34.4862   45.5680 N   0  0  0  0  0  0  0  0  0  0  0  0
   45.9061   33.5650   45.1703 C   0  0  0  0  0  0  0  0  0  0  0  0
   46.5500   33.6842   44.0276 N   0  0  0  0  0  0  0  0  0  0  0  0
   46.2015   32.4228   46.0778 C   0  0  1  0  0  0  0  0  0  0  0  0
   47.0418   32.6800   47.3125 C   0  0  0  0  0  0  0  0  0  0  0  0
   45.5528   32.4996   47.4031 C   0  0  1  0  0  0  0  0  0  0  0  0
   44.8846   33.7454   47.8047 N   0  0  0  0  0  0  0  0  0  0  0  0
   46.9392   34.9600   41.9801 C   0  0  0  0  0  0  0  0  0  0  0  0
   48.0895   35.5171   41.8862 O   0  0  0  0  0  0  0  0  0  0  0  0
   45.1161   36.5689   42.9105 H   0  0  0  0  0  0  0  0  0  0  0  0
   43.9172   36.2858   45.1087 H   0  0  0  0  0  0  0  0  0  0  0  0
   46.3328   31.4339   45.6005 H   0  0  0  0  0  0  0  0  0  0  0  0
   47.4819   33.6977   47.3211 H   0  0  0  0  0  0  0  0  0  0  0  0
   47.6638   31.8397   47.6733 H   0  0  0  0  0  0  0  0  0  0  0  0
   45.2035   31.6316   47.9712 H   0  0  0  0  0  0  0  0  0  0  0  0
   44.0113   33.5420   48.3655 H   0  0  0  0  0  0  0  0  0  0  0  0
   45.5026   34.2645   48.4707 H   0  0  0  0  0  0  0  0  0  0  0  0
   46.5730   34.4308   38.5692 H   0  0  0  0  0  0  0  0  0  0  0  0
   47.0613   34.7636   39.4704 C   0  0  0  0  0  0  0  0  0  0  0  0
   48.1928   35.3225   39.4856 O   0  0  0  0  0  0  0  0  0  0  0  0
   46.4003   34.5653   40.7165 N   0  0  0  0  0  0  0  0  0  0  0  0
   45.4654   34.1105   40.7731 H   0  0  0  0  0  0  0  0  0  0  0  0
  1  2  2  0
  1  6  1  0
  2  3  1  0
  3  4  2  0
  5  4  1  0
  5  7  1  0
  6  5  2  0
  7  8  1  0
  7  9  1  0
  8  9  1  0
  9 10  1  0
 11  1  1  0
 12 11  2  0
  2 13  1  0
  3 14  1  0
  7 15  1  6
  8 16  1  0
  8 17  1  0
  9 18  1  1
 10 19  1  0
 10 20  1  0
 21 22  1  0
 22 23  2  0
 22 24  1  0
 24 25  1  0
 11 24  1  0
M  ISO  8  13  14  14  14  15  13  16  13  17  13  18  13  19   5  20   5
M  ISO  1  21   1
M  END
>  <DihAtoms>  (1) 
0,10,23,21

>  <DihDeg>  (1) 
-179.99950269725346

$$$$
