
 OpenBabel03252508013D

 25 26  0  0  1  0  0  0  0  0999 V2000
   46.1690   34.3510   43.6100 C   0  0  0  0  0  0  0  0  0  0  0  0
   45.2120   35.3220   44.0320 C   0  0  0  0  0  0  0  0  0  0  0  0
   44.7510   35.1810   45.3370 C   0  0  0  0  0  0  0  0  0  0  0  0
   45.2190   34.1710   46.1040 N   0  0  0  0  0  0  0  0  0  0  0  0
   46.1430   33.2680   45.6300 C   0  0  0  0  0  0  0  0  0  0  0  0
   46.6190   33.3450   44.4050 N   0  0  0  0  0  0  0  0  0  0  0  0
   44.9010   36.0930   43.3410 H   0  0  0  0  0  0  0  0  0  0  0  0
   44.0280   35.8930   45.6970 H   0  0  0  0  0  0  0  0  0  0  0  0
   46.6170   32.1980   46.5490 C   0  0  1  0  0  0  0  0  0  0  0  0
   47.1800   32.5990   47.8970 C   0  0  0  0  0  0  0  0  0  0  0  0
   45.8000   32.0190   47.7670 C   0  0  1  0  0  0  0  0  0  0  0  0
   47.0780   31.3100   46.0760 H   0  0  0  0  0  0  0  0  0  0  0  0
   47.3170   33.6960   47.9890 H   0  0  0  0  0  0  0  0  0  0  0  0
   47.9550   31.9380   48.3280 H   0  0  0  0  0  0  0  0  0  0  0  0
   45.6300   31.0570   48.2610 H   0  0  0  0  0  0  0  0  0  0  0  0
   44.7670   33.0120   48.0920 N   0  0  0  0  0  0  0  0  0  0  0  0
   43.9160   32.5480   48.5150 H   0  0  0  0  0  0  0  0  0  0  0  0
   45.1230   33.6390   48.8510 H   0  0  0  0  0  0  0  0  0  0  0  0
   46.6600   34.5100   42.2570 C   0  0  0  0  0  0  0  0  0  0  0  0
   47.4020   35.4890   41.8890 O   0  0  0  0  0  0  0  0  0  0  0  0
   45.1140   32.9680   39.5590 H   0  0  0  0  0  0  0  0  0  0  0  0
   45.2480   33.7090   40.3300 C   0  0  0  0  0  0  0  0  0  0  0  0
   44.4600   34.6790   40.5090 O   0  0  0  0  0  0  0  0  0  0  0  0
   46.3710   33.5950   41.1980 N   0  0  0  0  0  0  0  0  0  0  0  0
   47.0590   32.8180   41.1030 H   0  0  0  0  0  0  0  0  0  0  0  0
  1  2  2  0  0  0  0
  1  6  1  0  0  0  0
  2  3  1  0  0  0  0
  3  8  1  0  0  0  0
  3  4  2  0  0  0  0
  5  4  1  0  0  0  0
  5  9  1  0  0  0  0
  6  5  2  0  0  0  0
  7  2  1  0  0  0  0
  9 12  1  6  0  0  0
  9 11  1  0  0  0  0
  9 10  1  0  0  0  0
 10 13  1  0  0  0  0
 10 14  1  0  0  0  0
 11 10  1  0  0  0  0
 11 16  1  0  0  0  0
 11 15  1  1  0  0  0
 16 17  1  0  0  0  0
 16 18  1  0  0  0  0
 19  1  1  0  0  0  0
 20 19  2  0  0  0  0
 21 22  1  0  0  0  0
 22 23  2  0  0  0  0
 22 24  1  0  0  0  0
 24 19  1  0  0  0  0
 25 24  1  0  0  0  0
M  END
>  <minimizedAffinity>
-4.76884127

>  <minimizedRMSD>
0.949063122

$$$$
