
 OpenBabel03252502293D

 31 32  0  0  0  0  0  0  0  0999 V2000
   35.3130   29.1030   38.5090 C   0  0  0  0  0  0  0  0  0  0  0  0
   33.9390   28.9370   38.5700 C   0  0  0  0  0  0  0  0  0  0  0  0
   33.2480   28.8280   37.3620 C   0  0  0  0  0  0  0  0  0  0  0  0
   33.9260   28.8850   36.1540 C   0  0  0  0  0  0  0  0  0  0  0  0
   35.2770   29.0480   36.0970 C   0  0  0  0  0  0  0  0  0  0  0  0
   35.9410   29.1540   37.3130 C   0  0  0  0  0  0  0  0  0  0  0  0
   33.4280   28.8930   39.5330 H   0  0  0  0  0  0  0  0  0  0  0  0
   32.1830   28.6970   37.4520 H   0  0  0  0  0  0  0  0  0  0  0  0
   33.3480   28.7950   35.2380 H   0  0  0  0  0  0  0  0  0  0  0  0
   35.8460   29.1000   35.1650 H   0  0  0  0  0  0  0  0  0  0  0  0
   38.4460   28.6560   36.6270 C   0  0  0  0  0  0  0  0  0  0  0  0
   38.3520   27.7480   35.8500 O   0  0  0  0  0  0  0  0  0  0  0  0
   37.3590   29.2890   37.3600 N   0  0  0  0  0  0  0  0  0  0  0  0
   37.3760   30.0240   38.1590 H   0  0  0  0  0  0  0  0  0  0  0  0
   39.9690   28.9090   39.6540 H   0  0  0  0  0  0  0  0  0  0  0  0
   39.6660   29.0810   38.6040 C   0  0  0  0  0  0  0  0  0  0  0  0
   39.0480   28.1150   39.1650 O   0  0  0  0  0  0  0  0  0  0  0  0
   39.4220   29.4960   37.1910 N   0  0  0  0  0  0  0  0  0  0  0  0
   40.1070   30.0860   37.5880 H   0  0  0  0  0  0  0  0  0  0  0  0
   36.7920   28.4230   41.9160 C   0  0  0  0  0  0  0  0  0  0  0  0
   36.1050   28.1760   40.7080 C   0  0  0  0  0  0  0  0  0  0  0  0
   36.0030   29.2060   39.7910 C   0  0  0  0  0  0  0  0  0  0  0  0
   36.5750   30.3940   40.1140 N   0  0  0  0  0  0  0  0  0  0  0  0
   37.2290   30.6180   41.2710 C   0  0  0  0  0  0  0  0  0  0  0  0
   37.3340   29.6100   42.1830 N   0  0  0  0  0  0  0  0  0  0  0  0
   35.6600   27.2290   40.4700 H   0  0  0  0  0  0  0  0  0  0  0  0
   37.6680   31.5850   41.4800 H   0  0  0  0  0  0  0  0  0  0  0  0
   36.9120   27.3320   42.9160 C   0  0  0  0  0  0  0  0  0  0  0  0
   36.8730   26.1190   42.2210 F   0  0  0  0  0  0  0  0  0  0  0  0
   35.7610   27.3520   43.6780 F   0  0  0  0  0  0  0  0  0  0  0  0
   38.0530   27.4140   43.6780 F   0  0  0  0  0  0  0  0  0  0  0  0
  1  2  1  0  0  0  0
  1 22  1  0  0  0  0
  2  7  1  0  0  0  0
  3  8  1  0  0  0  0
  3  2  2  0  0  0  0
  4  3  1  0  0  0  0
  5  4  2  0  0  0  0
  5  6  1  0  0  0  0
  6 13  1  0  0  0  0
  6  1  2  0  0  0  0
  9  4  1  0  0  0  0
 10  5  1  0  0  0  0
 11 18  1  0  0  0  0
 11 13  1  0  0  0  0
 12 11  2  0  0  0  0
 13 14  1  0  0  0  0
 16 17  2  0  0  0  0
 16 15  1  0  0  0  0
 18 19  1  0  0  0  0
 18 16  1  0  0  0  0
 20 25  1  0  0  0  0
 20 28  1  0  0  0  0
 21 20  2  0  0  0  0
 22 23  2  0  0  0  0
 22 21  1  0  0  0  0
 23 24  1  0  0  0  0
 24 27  1  0  0  0  0
 24 25  2  0  0  0  0
 26 21  1  0  0  0  0
 28 30  1  0  0  0  0
 28 31  1  0  0  0  0
 29 28  1  0  0  0  0
M  END
>  <minimizedAffinity>
-5.68045807

$$$$

 OpenBabel03252502293D

 31 32  0  0  0  0  0  0  0  0999 V2000
   39.7110   29.2970   41.9800 C   0  0  0  0  0  0  0  0  0  0  0  0
   40.7570   28.5060   42.4270 C   0  0  0  0  0  0  0  0  0  0  0  0
   40.4460   27.4550   43.2920 C   0  0  0  0  0  0  0  0  0  0  0  0
   39.1350   27.2250   43.6800 C   0  0  0  0  0  0  0  0  0  0  0  0
   38.1090   28.0030   43.2380 C   0  0  0  0  0  0  0  0  0  0  0  0
   38.4440   29.0410   42.3780 C   0  0  0  0  0  0  0  0  0  0  0  0
   41.7800   28.7070   42.1080 H   0  0  0  0  0  0  0  0  0  0  0  0
   41.2850   26.8630   43.6150 H   0  0  0  0  0  0  0  0  0  0  0  0
   38.9390   26.3950   44.3540 H   0  0  0  0  0  0  0  0  0  0  0  0
   37.0640   27.8530   43.5220 H   0  0  0  0  0  0  0  0  0  0  0  0
   36.1020   29.6420   41.3070 C   0  0  0  0  0  0  0  0  0  0  0  0
   35.5920   28.5730   41.1240 O   0  0  0  0  0  0  0  0  0  0  0  0
   37.4370   29.8890   41.8310 N   0  0  0  0  0  0  0  0  0  0  0  0
   38.0080   30.8090   41.9110 H   0  0  0  0  0  0  0  0  0  0  0  0
   37.0260   32.1150   39.1670 H   0  0  0  0  0  0  0  0  0  0  0  0
   36.5560   31.5540   39.9970 C   0  0  0  0  0  0  0  0  0  0  0  0
   37.3270   30.8430   39.2690 O   0  0  0  0  0  0  0  0  0  0  0  0
   35.8140   31.0110   41.1730 N   0  0  0  0  0  0  0  0  0  0  0  0
   35.6130   31.9740   41.0790 H   0  0  0  0  0  0  0  0  0  0  0  0
   40.9180   31.3410   39.0430 C   0  0  0  0  0  0  0  0  0  0  0  0
   40.6030   30.1970   39.8080 C   0  0  0  0  0  0  0  0  0  0  0  0
   40.0720   30.3810   41.0720 C   0  0  0  0  0  0  0  0  0  0  0  0
   39.8850   31.6570   41.4960 N   0  0  0  0  0  0  0  0  0  0  0  0
   40.1900   32.7420   40.7560 C   0  0  0  0  0  0  0  0  0  0  0  0
   40.7150   32.5720   39.5100 N   0  0  0  0  0  0  0  0  0  0  0  0
   40.7560   29.1960   39.4550 H   0  0  0  0  0  0  0  0  0  0  0  0
   40.0210   33.7400   41.1420 H   0  0  0  0  0  0  0  0  0  0  0  0
   41.4900   31.1680   37.6840 C   0  0  0  0  0  0  0  0  0  0  0  0
   42.8780   31.2960   37.7940 F   0  0  0  0  0  0  0  0  0  0  0  0
   41.0820   32.2500   36.9310 F   0  0  0  0  0  0  0  0  0  0  0  0
   41.1620   29.9650   37.1050 F   0  0  0  0  0  0  0  0  0  0  0  0
  1  6  2  0  0  0  0
  1  2  1  0  0  0  0
  2  3  2  0  0  0  0
  3  8  1  0  0  0  0
  3  4  1  0  0  0  0
  4  9  1  0  0  0  0
  5 10  1  0  0  0  0
  5  4  2  0  0  0  0
  6  5  1  0  0  0  0
  7  2  1  0  0  0  0
 11 13  1  0  0  0  0
 12 11  2  0  0  0  0
 13 14  1  0  0  0  0
 13  6  1  0  0  0  0
 15 16  1  0  0  0  0
 16 18  1  0  0  0  0
 17 16  2  0  0  0  0
 18 11  1  0  0  0  0
 19 18  1  0  0  0  0
 20 25  2  0  0  0  0
 20 21  1  0  0  0  0
 21 22  2  0  0  0  0
 22 23  1  0  0  0  0
 22  1  1  0  0  0  0
 24 27  1  0  0  0  0
 24 23  2  0  0  0  0
 25 24  1  0  0  0  0
 26 21  1  0  0  0  0
 28 29  1  0  0  0  0
 28 20  1  0  0  0  0
 30 28  1  0  0  0  0
 31 28  1  0  0  0  0
M  END
>  <minimizedAffinity>
-5.50941229

$$$$

 OpenBabel03252502293D

 31 32  0  0  0  0  0  0  0  0999 V2000
   37.4470   29.5860   39.6460 C   0  0  0  0  0  0  0  0  0  0  0  0
   36.5800   29.1750   38.6460 C   0  0  0  0  0  0  0  0  0  0  0  0
   36.5450   29.9290   37.4720 C   0  0  0  0  0  0  0  0  0  0  0  0
   37.3530   31.0470   37.3280 C   0  0  0  0  0  0  0  0  0  0  0  0
   38.2030   31.4490   38.3110 C   0  0  0  0  0  0  0  0  0  0  0  0
   38.2210   30.6810   39.4690 C   0  0  0  0  0  0  0  0  0  0  0  0
   35.9550   28.2910   38.7840 H   0  0  0  0  0  0  0  0  0  0  0  0
   35.8610   29.5760   36.7190 H   0  0  0  0  0  0  0  0  0  0  0  0
   37.2930   31.6040   36.3960 H   0  0  0  0  0  0  0  0  0  0  0  0
   38.8540   32.3240   38.2350 H   0  0  0  0  0  0  0  0  0  0  0  0
   39.3350   32.2060   41.3200 C   0  0  0  0  0  0  0  0  0  0  0  0
   38.8570   33.2870   41.1210 O   0  0  0  0  0  0  0  0  0  0  0  0
   39.1040   30.9980   40.5410 N   0  0  0  0  0  0  0  0  0  0  0  0
   39.5860   30.0260   40.5830 H   0  0  0  0  0  0  0  0  0  0  0  0
   42.5380   31.0800   41.1910 H   0  0  0  0  0  0  0  0  0  0  0  0
   41.5160   31.3270   41.5350 C   0  0  0  0  0  0  0  0  0  0  0  0
   41.7490   31.6710   40.3280 O   0  0  0  0  0  0  0  0  0  0  0  0
   40.2060   31.5610   42.2130 N   0  0  0  0  0  0  0  0  0  0  0  0
   40.8190   31.1060   42.8400 H   0  0  0  0  0  0  0  0  0  0  0  0
   37.5900   26.7320   42.1140 C   0  0  0  0  0  0  0  0  0  0  0  0
   37.6060   27.3940   40.8670 C   0  0  0  0  0  0  0  0  0  0  0  0
   37.4620   28.7700   40.8560 C   0  0  0  0  0  0  0  0  0  0  0  0
   37.3160   29.3970   42.0510 N   0  0  0  0  0  0  0  0  0  0  0  0
   37.3020   28.7530   43.2350 C   0  0  0  0  0  0  0  0  0  0  0  0
   37.4410   27.3970   43.2580 N   0  0  0  0  0  0  0  0  0  0  0  0
   37.7240   26.8810   39.9330 H   0  0  0  0  0  0  0  0  0  0  0  0
   37.1820   29.3020   44.1610 H   0  0  0  0  0  0  0  0  0  0  0  0
   37.7400   25.2550   42.1500 C   0  0  0  0  0  0  0  0  0  0  0  0
   37.8940   24.8160   40.8320 F   0  0  0  0  0  0  0  0  0  0  0  0
   36.5320   24.7350   42.5690 F   0  0  0  0  0  0  0  0  0  0  0  0
   38.7960   24.8340   42.9240 F   0  0  0  0  0  0  0  0  0  0  0  0
  1 22  1  0  0  0  0
  2  7  1  0  0  0  0
  2  1  2  0  0  0  0
  3  2  1  0  0  0  0
  4  3  2  0  0  0  0
  4  5  1  0  0  0  0
  5  6  2  0  0  0  0
  6  1  1  0  0  0  0
  6 13  1  0  0  0  0
  8  3  1  0  0  0  0
  9  4  1  0  0  0  0
 10  5  1  0  0  0  0
 11 18  1  0  0  0  0
 12 11  2  0  0  0  0
 13 14  1  0  0  0  0
 13 11  1  0  0  0  0
 15 16  1  0  0  0  0
 16 18  1  0  0  0  0
 17 16  2  0  0  0  0
 18 19  1  0  0  0  0
 20 28  1  0  0  0  0
 20 25  1  0  0  0  0
 21 20  2  0  0  0  0
 22 21  1  0  0  0  0
 22 23  2  0  0  0  0
 23 24  1  0  0  0  0
 24 25  2  0  0  0  0
 24 27  1  0  0  0  0
 26 21  1  0  0  0  0
 28 30  1  0  0  0  0
 28 31  1  0  0  0  0
 29 28  1  0  0  0  0
M  END
>  <minimizedAffinity>
-5.45061731

$$$$

 OpenBabel03252502293D

 31 32  0  0  0  0  0  0  0  0999 V2000
   36.2170   27.4890   39.2800 C   0  0  0  0  0  0  0  0  0  0  0  0
   35.5070   27.2290   38.1190 C   0  0  0  0  0  0  0  0  0  0  0  0
   35.3260   25.8930   37.7580 C   0  0  0  0  0  0  0  0  0  0  0  0
   35.8430   24.8740   38.5430 C   0  0  0  0  0  0  0  0  0  0  0  0
   36.5390   25.1320   39.6840 C   0  0  0  0  0  0  0  0  0  0  0  0
   36.7050   26.4690   40.0220 C   0  0  0  0  0  0  0  0  0  0  0  0
   35.1090   28.0490   37.5180 H   0  0  0  0  0  0  0  0  0  0  0  0
   34.7670   25.7340   36.8520 H   0  0  0  0  0  0  0  0  0  0  0  0
   35.6770   23.8490   38.2250 H   0  0  0  0  0  0  0  0  0  0  0  0
   36.9630   24.3560   40.3280 H   0  0  0  0  0  0  0  0  0  0  0  0
   38.1240   26.0850   42.2210 C   0  0  0  0  0  0  0  0  0  0  0  0
   38.2160   24.8930   42.2940 O   0  0  0  0  0  0  0  0  0  0  0  0
   37.3880   26.8400   41.2170 N   0  0  0  0  0  0  0  0  0  0  0  0
   37.1590   27.8990   41.1540 H   0  0  0  0  0  0  0  0  0  0  0  0
   36.6960   28.3840   44.2760 H   0  0  0  0  0  0  0  0  0  0  0  0
   37.4200   27.8250   43.6540 C   0  0  0  0  0  0  0  0  0  0  0  0
   36.2500   27.3160   43.6600 O   0  0  0  0  0  0  0  0  0  0  0  0
   38.5610   27.2430   42.8860 N   0  0  0  0  0  0  0  0  0  0  0  0
   38.8670   28.0580   43.3540 H   0  0  0  0  0  0  0  0  0  0  0  0
   37.0780   31.1650   39.2860 C   0  0  0  0  0  0  0  0  0  0  0  0
   36.9750   29.8400   38.8110 C   0  0  0  0  0  0  0  0  0  0  0  0
   36.3810   28.8960   39.6300 C   0  0  0  0  0  0  0  0  0  0  0  0
   35.9320   29.3090   40.8420 N   0  0  0  0  0  0  0  0  0  0  0  0
   36.0360   30.5780   41.2850 C   0  0  0  0  0  0  0  0  0  0  0  0
   36.6210   31.5160   40.4870 N   0  0  0  0  0  0  0  0  0  0  0  0
   37.3340   29.5320   37.8490 H   0  0  0  0  0  0  0  0  0  0  0  0
   35.6600   30.8550   42.2620 H   0  0  0  0  0  0  0  0  0  0  0  0
   37.7130   32.1940   38.4250 C   0  0  0  0  0  0  0  0  0  0  0  0
   37.0330   33.3970   38.6370 F   0  0  0  0  0  0  0  0  0  0  0  0
   37.4440   31.8490   37.1150 F   0  0  0  0  0  0  0  0  0  0  0  0
   39.0570   32.3520   38.6660 F   0  0  0  0  0  0  0  0  0  0  0  0
  1 22  1  0  0  0  0
  1  6  1  0  0  0  0
  2  1  2  0  0  0  0
  3  2  1  0  0  0  0
  3  4  2  0  0  0  0
  4  5  1  0  0  0  0
  5  6  2  0  0  0  0
  5 10  1  0  0  0  0
  6 13  1  0  0  0  0
  7  2  1  0  0  0  0
  8  3  1  0  0  0  0
  9  4  1  0  0  0  0
 11 12  2  0  0  0  0
 11 18  1  0  0  0  0
 13 11  1  0  0  0  0
 14 13  1  0  0  0  0
 16 17  2  0  0  0  0
 16 15  1  0  0  0  0
 18 19  1  0  0  0  0
 18 16  1  0  0  0  0
 20 25  1  0  0  0  0
 21 20  2  0  0  0  0
 21 22  1  0  0  0  0
 22 23  2  0  0  0  0
 23 24  1  0  0  0  0
 24 27  1  0  0  0  0
 25 24  2  0  0  0  0
 26 21  1  0  0  0  0
 28 29  1  0  0  0  0
 28 31  1  0  0  0  0
 28 20  1  0  0  0  0
 30 28  1  0  0  0  0
M  END
>  <minimizedAffinity>
-5.44312572

$$$$

 OpenBabel03252502293D

 31 32  0  0  0  0  0  0  0  0999 V2000
   36.0380   27.4400   39.0240 C   0  0  0  0  0  0  0  0  0  0  0  0
   35.4450   27.0150   37.8460 C   0  0  0  0  0  0  0  0  0  0  0  0
   34.3260   27.7170   37.3960 C   0  0  0  0  0  0  0  0  0  0  0  0
   33.8370   28.7980   38.1140 C   0  0  0  0  0  0  0  0  0  0  0  0
   34.4210   29.2140   39.2710 C   0  0  0  0  0  0  0  0  0  0  0  0
   35.5330   28.4990   39.6960 C   0  0  0  0  0  0  0  0  0  0  0  0
   35.8490   26.1610   37.2990 H   0  0  0  0  0  0  0  0  0  0  0  0
   33.8960   27.3580   36.4770 H   0  0  0  0  0  0  0  0  0  0  0  0
   32.9640   29.3170   37.7260 H   0  0  0  0  0  0  0  0  0  0  0  0
   34.0640   30.0610   39.8640 H   0  0  0  0  0  0  0  0  0  0  0  0
   36.5020   30.1630   41.5090 C   0  0  0  0  0  0  0  0  0  0  0  0
   36.2430   31.2460   41.0660 O   0  0  0  0  0  0  0  0  0  0  0  0
   36.2380   28.8800   40.8750 N   0  0  0  0  0  0  0  0  0  0  0  0
   36.5460   27.8760   41.1520 H   0  0  0  0  0  0  0  0  0  0  0  0
   39.4580   28.6440   42.2140 H   0  0  0  0  0  0  0  0  0  0  0  0
   38.4410   29.0690   42.2980 C   0  0  0  0  0  0  0  0  0  0  0  0
   38.9470   29.1750   41.1300 O   0  0  0  0  0  0  0  0  0  0  0  0
   37.0790   29.5730   42.6460 N   0  0  0  0  0  0  0  0  0  0  0  0
   37.4850   29.1580   43.4450 H   0  0  0  0  0  0  0  0  0  0  0  0
   38.3980   25.0490   40.7460 C   0  0  0  0  0  0  0  0  0  0  0  0
   37.1830   25.6850   40.4130 C   0  0  0  0  0  0  0  0  0  0  0  0
   37.2090   26.6860   39.4590 C   0  0  0  0  0  0  0  0  0  0  0  0
   38.4080   26.9920   38.9020 N   0  0  0  0  0  0  0  0  0  0  0  0
   39.5620   26.3780   39.2290 C   0  0  0  0  0  0  0  0  0  0  0  0
   39.5480   25.3900   40.1690 N   0  0  0  0  0  0  0  0  0  0  0  0
   36.2440   25.4280   40.8630 H   0  0  0  0  0  0  0  0  0  0  0  0
   40.4930   26.6610   38.7530 H   0  0  0  0  0  0  0  0  0  0  0  0
   38.3940   23.9720   41.7690 C   0  0  0  0  0  0  0  0  0  0  0  0
   38.2200   22.7570   41.0990 F   0  0  0  0  0  0  0  0  0  0  0  0
   37.2520   24.1370   42.5270 F   0  0  0  0  0  0  0  0  0  0  0  0
   39.5370   23.9410   42.5320 F   0  0  0  0  0  0  0  0  0  0  0  0
  1 22  1  0  0  0  0
  1  6  1  0  0  0  0
  2  1  2  0  0  0  0
  3  2  1  0  0  0  0
  3  4  2  0  0  0  0
  4  5  1  0  0  0  0
  5  6  2  0  0  0  0
  5 10  1  0  0  0  0
  6 13  1  0  0  0  0
  7  2  1  0  0  0  0
  8  3  1  0  0  0  0
  9  4  1  0  0  0  0
 11 18  1  0  0  0  0
 12 11  2  0  0  0  0
 13 14  1  0  0  0  0
 13 11  1  0  0  0  0
 15 16  1  0  0  0  0
 16 18  1  0  0  0  0
 17 16  2  0  0  0  0
 18 19  1  0  0  0  0
 20 28  1  0  0  0  0
 21 20  1  0  0  0  0
 21 26  1  0  0  0  0
 22 21  2  0  0  0  0
 23 24  2  0  0  0  0
 23 22  1  0  0  0  0
 24 25  1  0  0  0  0
 25 20  2  0  0  0  0
 27 24  1  0  0  0  0
 28 30  1  0  0  0  0
 28 31  1  0  0  0  0
 29 28  1  0  0  0  0
M  END
>  <minimizedAffinity>
-5.40638304

$$$$

 OpenBabel03252502293D

 31 32  0  0  0  0  0  0  0  0999 V2000
   37.5880   27.9640   38.1480 C   0  0  0  0  0  0  0  0  0  0  0  0
   37.9490   27.4710   36.9050 C   0  0  0  0  0  0  0  0  0  0  0  0
   37.5370   28.1890   35.7810 C   0  0  0  0  0  0  0  0  0  0  0  0
   36.7940   29.3510   35.9200 C   0  0  0  0  0  0  0  0  0  0  0  0
   36.4410   29.8340   37.1430 C   0  0  0  0  0  0  0  0  0  0  0  0
   36.8640   29.1020   38.2450 C   0  0  0  0  0  0  0  0  0  0  0  0
   38.5350   26.5540   36.8210 H   0  0  0  0  0  0  0  0  0  0  0  0
   37.8390   27.7740   34.8350 H   0  0  0  0  0  0  0  0  0  0  0  0
   36.4950   29.8780   35.0180 H   0  0  0  0  0  0  0  0  0  0  0  0
   35.8550   30.7450   37.2930 H   0  0  0  0  0  0  0  0  0  0  0  0
   36.4590   30.8640   40.1760 C   0  0  0  0  0  0  0  0  0  0  0  0
   36.7040   31.9150   39.6560 O   0  0  0  0  0  0  0  0  0  0  0  0
   36.5770   29.5460   39.5690 N   0  0  0  0  0  0  0  0  0  0  0  0
   36.4920   28.5550   40.0050 H   0  0  0  0  0  0  0  0  0  0  0  0
   37.8880   29.2370   42.7950 H   0  0  0  0  0  0  0  0  0  0  0  0
   37.1570   29.7300   42.1270 C   0  0  0  0  0  0  0  0  0  0  0  0
   38.3430   29.6960   41.6550 O   0  0  0  0  0  0  0  0  0  0  0  0
   36.0070   30.3470   41.4020 N   0  0  0  0  0  0  0  0  0  0  0  0
   35.6890   29.9820   42.2640 H   0  0  0  0  0  0  0  0  0  0  0  0
   37.8180   25.6410   41.1150 C   0  0  0  0  0  0  0  0  0  0  0  0
   37.2480   26.3110   40.0120 C   0  0  0  0  0  0  0  0  0  0  0  0
   38.0420   27.1920   39.3000 C   0  0  0  0  0  0  0  0  0  0  0  0
   39.3260   27.3530   39.7110 N   0  0  0  0  0  0  0  0  0  0  0  0
   39.8580   26.7070   40.7670 C   0  0  0  0  0  0  0  0  0  0  0  0
   39.0840   25.8380   41.4760 N   0  0  0  0  0  0  0  0  0  0  0  0
   36.2310   26.1690   39.7010 H   0  0  0  0  0  0  0  0  0  0  0  0
   40.8900   26.8730   41.0530 H   0  0  0  0  0  0  0  0  0  0  0  0
   36.9830   24.6910   41.8940 C   0  0  0  0  0  0  0  0  0  0  0  0
   36.3220   25.4270   42.8830 F   0  0  0  0  0  0  0  0  0  0  0  0
   37.8460   23.8570   42.5760 F   0  0  0  0  0  0  0  0  0  0  0  0
   36.0780   24.0010   41.1230 F   0  0  0  0  0  0  0  0  0  0  0  0
  1  6  1  0  0  0  0
  1 22  1  0  0  0  0
  2  1  2  0  0  0  0
  3  4  2  0  0  0  0
  3  2  1  0  0  0  0
  4  5  1  0  0  0  0
  5 10  1  0  0  0  0
  5  6  2  0  0  0  0
  6 13  1  0  0  0  0
  7  2  1  0  0  0  0
  8  3  1  0  0  0  0
  9  4  1  0  0  0  0
 11 18  1  0  0  0  0
 12 11  2  0  0  0  0
 13 14  1  0  0  0  0
 13 11  1  0  0  0  0
 16 15  1  0  0  0  0
 17 16  2  0  0  0  0
 18 16  1  0  0  0  0
 18 19  1  0  0  0  0
 20 25  1  0  0  0  0
 20 28  1  0  0  0  0
 21 20  2  0  0  0  0
 22 23  2  0  0  0  0
 22 21  1  0  0  0  0
 23 24  1  0  0  0  0
 24 27  1  0  0  0  0
 24 25  2  0  0  0  0
 26 21  1  0  0  0  0
 28 30  1  0  0  0  0
 28 29  1  0  0  0  0
 31 28  1  0  0  0  0
M  END
>  <minimizedAffinity>
-5.3445425

$$$$

 OpenBabel03252502293D

 31 32  0  0  0  0  0  0  0  0999 V2000
   37.0450   28.8750   40.0420 C   0  0  0  0  0  0  0  0  0  0  0  0
   36.2100   28.1520   39.2060 C   0  0  0  0  0  0  0  0  0  0  0  0
   35.7840   28.7680   38.0290 C   0  0  0  0  0  0  0  0  0  0  0  0
   36.1900   30.0580   37.7210 C   0  0  0  0  0  0  0  0  0  0  0  0
   37.0110   30.7670   38.5430 C   0  0  0  0  0  0  0  0  0  0  0  0
   37.4220   30.1310   39.7080 C   0  0  0  0  0  0  0  0  0  0  0  0
   35.9050   27.1380   39.4700 H   0  0  0  0  0  0  0  0  0  0  0  0
   35.1380   28.1730   37.4060 H   0  0  0  0  0  0  0  0  0  0  0  0
   35.8340   30.4980   36.7930 H   0  0  0  0  0  0  0  0  0  0  0  0
   37.3510   31.7850   38.3350 H   0  0  0  0  0  0  0  0  0  0  0  0
   39.4430   31.6740   40.4350 C   0  0  0  0  0  0  0  0  0  0  0  0
   39.9490   31.9860   39.3940 O   0  0  0  0  0  0  0  0  0  0  0  0
   38.3120   30.7750   40.6160 N   0  0  0  0  0  0  0  0  0  0  0  0
   37.8790   30.3530   41.5180 H   0  0  0  0  0  0  0  0  0  0  0  0
   40.6210   29.9210   43.0970 H   0  0  0  0  0  0  0  0  0  0  0  0
   40.1830   30.7130   42.4620 C   0  0  0  0  0  0  0  0  0  0  0  0
   40.5010   29.6580   41.8190 O   0  0  0  0  0  0  0  0  0  0  0  0
   39.5760   31.9130   41.8130 N   0  0  0  0  0  0  0  0  0  0  0  0
   39.6680   32.0810   42.7820 H   0  0  0  0  0  0  0  0  0  0  0  0
   38.4590   26.4240   42.5410 C   0  0  0  0  0  0  0  0  0  0  0  0
   38.1090   26.9680   41.2870 C   0  0  0  0  0  0  0  0  0  0  0  0
   37.4760   28.1970   41.2600 C   0  0  0  0  0  0  0  0  0  0  0  0
   37.2320   28.8040   42.4490 N   0  0  0  0  0  0  0  0  0  0  0  0
   37.5700   28.2750   43.6410 C   0  0  0  0  0  0  0  0  0  0  0  0
   38.1940   27.0630   43.6800 N   0  0  0  0  0  0  0  0  0  0  0  0
   38.3120   26.4730   40.3570 H   0  0  0  0  0  0  0  0  0  0  0  0
   37.3530   28.8020   44.5620 H   0  0  0  0  0  0  0  0  0  0  0  0
   39.1380   25.1050   42.5940 C   0  0  0  0  0  0  0  0  0  0  0  0
   39.8550   24.9540   41.4040 F   0  0  0  0  0  0  0  0  0  0  0  0
   38.1520   24.1390   42.5510 F   0  0  0  0  0  0  0  0  0  0  0  0
   39.9700   24.9630   43.6790 F   0  0  0  0  0  0  0  0  0  0  0  0
  1 22  1  0  0  0  0
  2  7  1  0  0  0  0
  2  1  2  0  0  0  0
  3  2  1  0  0  0  0
  4  3  2  0  0  0  0
  4  5  1  0  0  0  0
  5  6  2  0  0  0  0
  6  1  1  0  0  0  0
  6 13  1  0  0  0  0
  8  3  1  0  0  0  0
  9  4  1  0  0  0  0
 10  5  1  0  0  0  0
 11 13  1  0  0  0  0
 11 18  1  0  0  0  0
 12 11  2  0  0  0  0
 13 14  1  0  0  0  0
 16 15  1  0  0  0  0
 17 16  2  0  0  0  0
 18 16  1  0  0  0  0
 18 19  1  0  0  0  0
 20 28  1  0  0  0  0
 20 25  1  0  0  0  0
 21 20  2  0  0  0  0
 22 21  1  0  0  0  0
 22 23  2  0  0  0  0
 23 24  1  0  0  0  0
 24 25  2  0  0  0  0
 24 27  1  0  0  0  0
 26 21  1  0  0  0  0
 28 31  1  0  0  0  0
 29 28  1  0  0  0  0
 30 28  1  0  0  0  0
M  END
>  <minimizedAffinity>
-5.22211075

$$$$

 OpenBabel03252502293D

 31 32  0  0  0  0  0  0  0  0999 V2000
   40.1740   28.8020   42.8060 C   0  0  0  0  0  0  0  0  0  0  0  0
   40.4880   30.1460   42.6850 C   0  0  0  0  0  0  0  0  0  0  0  0
   41.8260   30.5130   42.8360 C   0  0  0  0  0  0  0  0  0  0  0  0
   42.7940   29.5560   43.0980 C   0  0  0  0  0  0  0  0  0  0  0  0
   42.4840   28.2360   43.2170 C   0  0  0  0  0  0  0  0  0  0  0  0
   41.1460   27.8970   43.0620 C   0  0  0  0  0  0  0  0  0  0  0  0
   39.7080   30.8800   42.4770 H   0  0  0  0  0  0  0  0  0  0  0  0
   42.0290   31.5650   42.7320 H   0  0  0  0  0  0  0  0  0  0  0  0
   43.8240   29.8860   43.2080 H   0  0  0  0  0  0  0  0  0  0  0  0
   43.2180   27.4530   43.4250 H   0  0  0  0  0  0  0  0  0  0  0  0
   41.3140   25.2860   42.6750 C   0  0  0  0  0  0  0  0  0  0  0  0
   42.3000   25.1620   42.0050 O   0  0  0  0  0  0  0  0  0  0  0  0
   40.7250   26.5370   43.1310 N   0  0  0  0  0  0  0  0  0  0  0  0
   39.7820   26.7350   43.6300 H   0  0  0  0  0  0  0  0  0  0  0  0
   38.0520   24.5470   42.0750 H   0  0  0  0  0  0  0  0  0  0  0  0
   39.0610   24.5930   42.5260 C   0  0  0  0  0  0  0  0  0  0  0  0
   38.9390   25.2980   41.4690 O   0  0  0  0  0  0  0  0  0  0  0  0
   40.3320   24.5010   43.3040 N   0  0  0  0  0  0  0  0  0  0  0  0
   39.6420   23.9510   43.7460 H   0  0  0  0  0  0  0  0  0  0  0  0
   36.6810   28.3090   41.4620 C   0  0  0  0  0  0  0  0  0  0  0  0
   38.0410   28.6860   41.4810 C   0  0  0  0  0  0  0  0  0  0  0  0
   38.7670   28.4550   42.6350 C   0  0  0  0  0  0  0  0  0  0  0  0
   38.1210   27.8760   43.6790 N   0  0  0  0  0  0  0  0  0  0  0  0
   36.8220   27.5200   43.6490 C   0  0  0  0  0  0  0  0  0  0  0  0
   36.0960   27.7450   42.5170 N   0  0  0  0  0  0  0  0  0  0  0  0
   38.5340   29.1420   40.6450 H   0  0  0  0  0  0  0  0  0  0  0  0
   36.3540   27.0600   44.5110 H   0  0  0  0  0  0  0  0  0  0  0  0
   35.8810   28.5500   40.2340 C   0  0  0  0  0  0  0  0  0  0  0  0
   36.4240   29.6650   39.5910 F   0  0  0  0  0  0  0  0  0  0  0  0
   34.6210   28.9410   40.6410 F   0  0  0  0  0  0  0  0  0  0  0  0
   35.8510   27.4700   39.3830 F   0  0  0  0  0  0  0  0  0  0  0  0
  1  6  1  0  0  0  0
  2  1  2  0  0  0  0
  2  3  1  0  0  0  0
  3  4  2  0  0  0  0
  4  9  1  0  0  0  0
  4  5  1  0  0  0  0
  5 10  1  0  0  0  0
  6 13  1  0  0  0  0
  6  5  2  0  0  0  0
  7  2  1  0  0  0  0
  8  3  1  0  0  0  0
 11 13  1  0  0  0  0
 11 18  1  0  0  0  0
 12 11  2  0  0  0  0
 13 14  1  0  0  0  0
 15 16  1  0  0  0  0
 16 18  1  0  0  0  0
 17 16  2  0  0  0  0
 18 19  1  0  0  0  0
 20 21  2  0  0  0  0
 20 25  1  0  0  0  0
 21 22  1  0  0  0  0
 22  1  1  0  0  0  0
 22 23  2  0  0  0  0
 24 23  1  0  0  0  0
 24 27  1  0  0  0  0
 25 24  2  0  0  0  0
 26 21  1  0  0  0  0
 28 30  1  0  0  0  0
 28 20  1  0  0  0  0
 29 28  1  0  0  0  0
 31 28  1  0  0  0  0
M  END
>  <minimizedAffinity>
-5.10457134

$$$$

 OpenBabel03252502293D

 31 32  0  0  0  0  0  0  0  0999 V2000
   39.8560   29.9710   38.4830 C   0  0  0  0  0  0  0  0  0  0  0  0
   40.3020   28.7590   37.9790 C   0  0  0  0  0  0  0  0  0  0  0  0
   41.3970   28.7830   37.1140 C   0  0  0  0  0  0  0  0  0  0  0  0
   42.0060   29.9840   36.7810 C   0  0  0  0  0  0  0  0  0  0  0  0
   41.5670   31.1730   37.2780 C   0  0  0  0  0  0  0  0  0  0  0  0
   40.4760   31.1210   38.1370 C   0  0  0  0  0  0  0  0  0  0  0  0
   39.8060   27.8280   38.2570 H   0  0  0  0  0  0  0  0  0  0  0  0
   41.7140   27.8230   36.7460 H   0  0  0  0  0  0  0  0  0  0  0  0
   42.8560   29.9550   36.1050 H   0  0  0  0  0  0  0  0  0  0  0  0
   42.0200   32.1380   37.0380 H   0  0  0  0  0  0  0  0  0  0  0  0
   40.5950   33.5150   39.2570 C   0  0  0  0  0  0  0  0  0  0  0  0
   41.7710   33.7110   39.3810 O   0  0  0  0  0  0  0  0  0  0  0  0
   39.9650   32.3090   38.7380 N   0  0  0  0  0  0  0  0  0  0  0  0
   38.9220   32.0110   38.7080 H   0  0  0  0  0  0  0  0  0  0  0  0
   38.0840   33.2490   41.5300 H   0  0  0  0  0  0  0  0  0  0  0  0
   38.7060   33.5670   40.6720 C   0  0  0  0  0  0  0  0  0  0  0  0
   39.2180   32.6170   41.3530 O   0  0  0  0  0  0  0  0  0  0  0  0
   39.3660   34.1600   39.4720 N   0  0  0  0  0  0  0  0  0  0  0  0
   38.5010   34.6130   39.6230 H   0  0  0  0  0  0  0  0  0  0  0  0
   37.5130   29.2040   41.3420 C   0  0  0  0  0  0  0  0  0  0  0  0
   38.6940   29.1850   40.5700 C   0  0  0  0  0  0  0  0  0  0  0  0
   38.7140   29.9060   39.3890 C   0  0  0  0  0  0  0  0  0  0  0  0
   37.5910   30.5890   39.0500 N   0  0  0  0  0  0  0  0  0  0  0  0
   36.4690   30.5980   39.7960 C   0  0  0  0  0  0  0  0  0  0  0  0
   36.4370   29.8910   40.9610 N   0  0  0  0  0  0  0  0  0  0  0  0
   39.5720   28.6410   40.8550 H   0  0  0  0  0  0  0  0  0  0  0  0
   35.5990   31.1610   39.4800 H   0  0  0  0  0  0  0  0  0  0  0  0
   37.4670   28.4360   42.6120 C   0  0  0  0  0  0  0  0  0  0  0  0
   37.7760   29.3210   43.6490 F   0  0  0  0  0  0  0  0  0  0  0  0
   38.5130   27.5350   42.5790 F   0  0  0  0  0  0  0  0  0  0  0  0
   36.2540   27.8310   42.8400 F   0  0  0  0  0  0  0  0  0  0  0  0
  1 22  1  0  0  0  0
  2  7  1  0  0  0  0
  2  1  2  0  0  0  0
  3  2  1  0  0  0  0
  4  3  2  0  0  0  0
  4  5  1  0  0  0  0
  5  6  2  0  0  0  0
  6  1  1  0  0  0  0
  6 13  1  0  0  0  0
  8  3  1  0  0  0  0
  9  4  1  0  0  0  0
 10  5  1  0  0  0  0
 11 12  2  0  0  0  0
 11 18  1  0  0  0  0
 13 11  1  0  0  0  0
 14 13  1  0  0  0  0
 16 17  2  0  0  0  0
 16 15  1  0  0  0  0
 18 19  1  0  0  0  0
 18 16  1  0  0  0  0
 20 28  1  0  0  0  0
 21 26  1  0  0  0  0
 21 20  2  0  0  0  0
 22 21  1  0  0  0  0
 23 22  2  0  0  0  0
 23 24  1  0  0  0  0
 24 25  2  0  0  0  0
 25 20  1  0  0  0  0
 27 24  1  0  0  0  0
 28 31  1  0  0  0  0
 28 29  1  0  0  0  0
 30 28  1  0  0  0  0
M  END
>  <minimizedAffinity>
-5.10186243

$$$$
