
     RDKit          3D

 25 26  0  0  0  0  0  0  0  0999 V2000
   45.2669   36.1632   43.1754 C   0  0  0  0  0  0  0  0  0  0  0  0
   45.8739   34.9169   42.8987 C   0  0  0  0  0  0  0  0  0  0  0  0
   45.8281   33.9545   43.9000 C   0  0  0  0  0  0  0  0  0  0  0  0
   45.2268   34.2226   45.0708 N   0  0  0  0  0  0  0  0  0  0  0  0
   44.6462   35.4372   45.3143 C   0  0  0  0  0  0  0  0  0  0  0  0
   44.6777   36.3689   44.3753 N   0  0  0  0  0  0  0  0  0  0  0  0
   46.4503   32.6591   43.6322 C   0  0  0  0  0  0  0  0  0  0  0  0
   45.6555   31.5767   43.2907 C   0  0  0  0  0  0  0  0  0  0  0  0
   46.2827   30.3742   43.0466 C   0  0  0  0  0  0  0  0  0  0  0  0
   47.6528   30.1762   43.1199 C   0  0  0  0  0  0  0  0  0  0  0  0
   48.3781   31.3112   43.4684 C   0  0  0  0  0  0  0  0  0  0  0  0
   47.7692   32.4960   43.7097 N   0  0  0  0  0  0  0  0  0  0  0  0
   46.4979   34.6774   41.6448 C   0  0  0  0  0  0  0  0  0  0  0  0
   47.6638   35.1238   41.4623 O   0  0  0  0  0  0  0  0  0  0  0  0
   45.3216   36.8917   42.3702 H   0  0  0  0  0  0  0  0  0  0  0  0
   44.1595   35.6574   46.2589 H   0  0  0  0  0  0  0  0  0  0  0  0
   44.5642   31.6419   43.2092 H   0  0  0  0  0  0  0  0  0  0  0  0
   45.6800   29.5177   42.7787 H   0  0  0  0  0  0  0  0  0  0  0  0
   48.1284   29.2291   42.9260 H   0  0  0  0  0  0  0  0  0  0  0  0
   49.4390   31.2878   43.5575 H   0  0  0  0  0  0  0  0  0  0  0  0
   44.6094   34.1102   38.8387 H   0  0  0  0  0  0  0  0  0  0  0  0
   45.1789   34.6697   39.5755 C   0  0  0  0  0  0  0  0  0  0  0  0
   45.3589   35.9253   39.5046 O   0  0  0  0  0  0  0  0  0  0  0  0
   45.7448   33.9371   40.6705 N   0  0  0  0  0  0  0  0  0  0  0  0
   45.5750   32.8900   40.6988 H   0  0  0  0  0  0  0  0  0  0  0  0
  1  6  2  0
  2  1  1  0
  2  3  2  0
  3  4  1  0
  4  5  2  0
  6  5  1  0
  7 12  1  0
  7  3  1  0
  8  7  2  0
  9 10  2  0
  9  8  1  0
 10 11  1  0
 11 12  2  0
 13  2  1  0
 14 13  2  0
  1 15  1  0
  5 16  1  0
  8 17  1  0
  9 18  1  0
 10 19  1  0
 11 20  1  0
 21 22  1  0
 22 23  2  0
 22 24  1  0
 24 25  1  0
 13 24  1  0
M  ISO  7  15  14  16  14  17  14  18  14  19  14  20  14  21   1
M  END
>  <DihAtoms>  (1) 
1,12,23,21

>  <DihDeg>  (1) 
179.99942324438814

$$$$
