REMARK  Name = 
REMARK  3 active torsions:
REMARK  status: ('A' for Active; 'I' for Inactive)
REMARK    1  A    between atoms: C_1  and  C_9
REMARK    2  A    between atoms: C_6  and  N_19
REMARK    3  A    between atoms: C_7  and  C_13
REMARK                            x       y       z     vdW  Elec       q    Type
REMARK                         _______ _______ _______ _____ _____    ______ ____
ROOT
ATOM      1  C   UNL     1      45.131  34.416  41.203  0.00  0.00    +0.000 A 
ATOM      2  C   UNL     1      45.544  35.021  42.379  0.00  0.00    +0.000 A 
ATOM      3  C   UNL     1      46.912  35.243  42.545  0.00  0.00    +0.000 A 
ATOM      4  C   UNL     1      47.812  34.866  41.560  0.00  0.00    +0.000 A 
ATOM      5  C   UNL     1      47.404  34.272  40.405  0.00  0.00    +0.000 A 
ATOM      6  C   UNL     1      46.038  34.063  40.264  0.00  0.00    +0.000 A 
ATOM      7  H   UNL     1      44.816  35.309  43.139  0.00  0.00    +0.000 HD
ATOM      8  H   UNL     1      47.192  35.717  43.470  0.00  0.00    +0.000 HD
ATOM      9  H   UNL     1      48.868  35.059  41.731  0.00  0.00    +0.000 HD
ATOM     10  H   UNL     1      48.083  33.960  39.607  0.00  0.00    +0.000 HD
ENDROOT
BRANCH   6  13
ATOM     11  C   UNL     1      45.436  32.115  38.579  0.00  0.00    +0.000 C 
ATOM     12  O   UNL     1      45.945  31.148  39.071  0.00  0.00    +0.000 OA
ATOM     13  N   UNL     1      45.508  33.482  39.075  0.00  0.00    +0.000 N 
ATOM     14  H   UNL     1      45.182  34.416  38.628  0.00  0.00    +0.000 HD
ATOM     15  H   UNL     1      42.347  31.258  37.451  0.00  0.00    +0.000 HD
ATOM     16  C   UNL     1      43.346  31.723  37.552  0.00  0.00    +0.000 C 
ATOM     17  O   UNL     1      43.071  30.893  38.481  0.00  0.00    +0.000 OA
ATOM     18  N   UNL     1      44.635  32.471  37.481  0.00  0.00    +0.000 N 
ATOM     19  H   UNL     1      44.072  32.722  36.709  0.00  0.00    +0.000 HD
ENDBRANCH   6  13
BRANCH   1  22
ATOM     20  C   UNL     1      41.432  34.838  40.576  0.00  0.00    +0.000 A 
ATOM     21  C   UNL     1      42.799  35.180  40.656  0.00  0.00    +0.000 A 
ATOM     22  C   UNL     1      43.694  34.206  41.061  0.00  0.00    +0.000 A 
ATOM     23  N   UNL     1      43.196  32.978  41.355  0.00  0.00    +0.000 NA
ATOM     24  C   UNL     1      41.888  32.664  41.275  0.00  0.00    +0.000 A 
ATOM     25  N   UNL     1      40.997  33.616  40.878  0.00  0.00    +0.000 NA
ATOM     26  H   UNL     1      43.174  36.156  40.418  0.00  0.00    +0.000 HD
ATOM     27  H   UNL     1      41.543  31.667  41.521  0.00  0.00    +0.000 HD
BRANCH  20  28
ATOM     28  C   UNL     1      40.453  35.868  40.145  0.00  0.00    +0.000 C 
ATOM     29  F   UNL     1      39.228  35.225  39.944  0.00  0.00    +0.000 F 
ATOM     30  F   UNL     1      40.846  36.303  38.895  0.00  0.00    +0.000 F 
ATOM     31  F   UNL     1      40.314  36.898  41.045  0.00  0.00    +0.000 F 
ENDBRANCH  20  28
ENDBRANCH   1  22
TORSDOF 3
