
 OpenBabel03252508013D

 25 26  0  0  1  0  0  0  0  0999 V2000
   46.2060   34.7560   43.2490 C   0  0  0  0  0  0  0  0  0  0  0  0
   45.2800   35.7760   43.6210 C   0  0  0  0  0  0  0  0  0  0  0  0
   44.6560   35.5990   44.8520 C   0  0  0  0  0  0  0  0  0  0  0  0
   44.9520   34.5110   45.5980 N   0  0  0  0  0  0  0  0  0  0  0  0
   45.8570   33.5650   45.1750 C   0  0  0  0  0  0  0  0  0  0  0  0
   46.4810   33.6730   44.0220 N   0  0  0  0  0  0  0  0  0  0  0  0
   45.1130   36.6080   42.9520 H   0  0  0  0  0  0  0  0  0  0  0  0
   43.9500   36.3450   45.1730 H   0  0  0  0  0  0  0  0  0  0  0  0
   46.1360   32.4080   46.0700 C   0  0  1  0  0  0  0  0  0  0  0  0
   46.9910   32.6350   47.2990 C   0  0  0  0  0  0  0  0  0  0  0  0
   45.5000   32.4850   47.4010 C   0  0  1  0  0  0  0  0  0  0  0  0
   46.2430   31.4220   45.5810 H   0  0  0  0  0  0  0  0  0  0  0  0
   47.4530   33.6440   47.3140 H   0  0  0  0  0  0  0  0  0  0  0  0
   47.5990   31.7790   47.6470 H   0  0  0  0  0  0  0  0  0  0  0  0
   45.1360   31.6190   47.9630 H   0  0  0  0  0  0  0  0  0  0  0  0
   44.8610   33.7400   47.8200 N   0  0  0  0  0  0  0  0  0  0  0  0
   43.9880   33.5500   48.3860 H   0  0  0  0  0  0  0  0  0  0  0  0
   45.4950   34.2390   48.4860 H   0  0  0  0  0  0  0  0  0  0  0  0
   46.8680   34.9520   41.9750 C   0  0  0  0  0  0  0  0  0  0  0  0
   47.9960   35.5500   41.8540 O   0  0  0  0  0  0  0  0  0  0  0  0
   44.7770   33.5080   39.6110 H   0  0  0  0  0  0  0  0  0  0  0  0
   45.0960   33.8090   40.5950 C   0  0  0  0  0  0  0  0  0  0  0  0
   44.4310   33.5830   41.6440 O   0  0  0  0  0  0  0  0  0  0  0  0
   46.3340   34.5000   40.7290 N   0  0  0  0  0  0  0  0  0  0  0  0
   46.9300   34.7180   39.9030 H   0  0  0  0  0  0  0  0  0  0  0  0
  1  2  2  0  0  0  0
  1  6  1  0  0  0  0
  2  3  1  0  0  0  0
  3  8  1  0  0  0  0
  3  4  2  0  0  0  0
  5  4  1  0  0  0  0
  5  9  1  0  0  0  0
  6  5  2  0  0  0  0
  7  2  1  0  0  0  0
  9 12  1  6  0  0  0
  9 10  1  0  0  0  0
  9 11  1  0  0  0  0
 10 13  1  0  0  0  0
 10 11  1  0  0  0  0
 10 14  1  0  0  0  0
 11 16  1  0  0  0  0
 11 15  1  1  0  0  0
 16 17  1  0  0  0  0
 16 18  1  0  0  0  0
 19  1  1  0  0  0  0
 20 19  2  0  0  0  0
 21 22  1  0  0  0  0
 22 24  1  0  0  0  0
 22 23  2  0  0  0  0
 24 19  1  0  0  0  0
 25 24  1  0  0  0  0
M  END
>  <minimizedAffinity>
-5.25625753

>  <minimizedRMSD>
0.0771973431

$$$$
