
 OpenBabel03252502283D

 31 32  0  0  0  0  0  0  0  0999 V2000
   45.1520   34.4380   41.2320 C   0  0  0  0  0  0  0  0  0  0  0  0
   45.5480   35.0420   42.4150 C   0  0  0  0  0  0  0  0  0  0  0  0
   46.9120   35.2720   42.5970 C   0  0  0  0  0  0  0  0  0  0  0  0
   47.8260   34.9050   41.6200 C   0  0  0  0  0  0  0  0  0  0  0  0
   47.4340   34.3120   40.4590 C   0  0  0  0  0  0  0  0  0  0  0  0
   46.0710   34.0950   40.3020 C   0  0  0  0  0  0  0  0  0  0  0  0
   44.8090   35.3220   43.1680 H   0  0  0  0  0  0  0  0  0  0  0  0
   47.1790   35.7450   43.5260 H   0  0  0  0  0  0  0  0  0  0  0  0
   48.8780   35.1040   41.8040 H   0  0  0  0  0  0  0  0  0  0  0  0
   48.1240   34.0070   39.6670 H   0  0  0  0  0  0  0  0  0  0  0  0
   45.4440   32.1420   38.6310 C   0  0  0  0  0  0  0  0  0  0  0  0
   45.8930   31.1640   39.1580 O   0  0  0  0  0  0  0  0  0  0  0  0
   45.5580   33.5140   39.1050 N   0  0  0  0  0  0  0  0  0  0  0  0
   45.2890   34.4530   38.6310 H   0  0  0  0  0  0  0  0  0  0  0  0
   42.6620   30.9690   37.0720 H   0  0  0  0  0  0  0  0  0  0  0  0
   43.5540   31.5680   37.3370 C   0  0  0  0  0  0  0  0  0  0  0  0
   43.3400   30.5880   38.1270 O   0  0  0  0  0  0  0  0  0  0  0  0
   44.6980   32.5110   37.4990 N   0  0  0  0  0  0  0  0  0  0  0  0
   44.1740   32.7720   36.7030 H   0  0  0  0  0  0  0  0  0  0  0  0
   41.4550   34.8430   40.5830 C   0  0  0  0  0  0  0  0  0  0  0  0
   42.8180   35.1940   40.6820 C   0  0  0  0  0  0  0  0  0  0  0  0
   43.7180   34.2190   41.0740 C   0  0  0  0  0  0  0  0  0  0  0  0
   43.2280   32.9810   41.3370 N   0  0  0  0  0  0  0  0  0  0  0  0
   41.9230   32.6580   41.2390 C   0  0  0  0  0  0  0  0  0  0  0  0
   41.0280   33.6110   40.8550 N   0  0  0  0  0  0  0  0  0  0  0  0
   43.1860   36.1780   40.4680 H   0  0  0  0  0  0  0  0  0  0  0  0
   41.5850   31.6530   41.4610 H   0  0  0  0  0  0  0  0  0  0  0  0
   40.4700   35.8730   40.1660 C   0  0  0  0  0  0  0  0  0  0  0  0
   39.2410   35.2320   39.9880 F   0  0  0  0  0  0  0  0  0  0  0  0
   40.8430   36.3040   38.9080 F   0  0  0  0  0  0  0  0  0  0  0  0
   40.3490   36.9060   41.0650 F   0  0  0  0  0  0  0  0  0  0  0  0
  1  2  1  0  0  0  0
  2  3  2  0  0  0  0
  2  7  1  0  0  0  0
  3  8  1  0  0  0  0
  4  9  1  0  0  0  0
  4  3  1  0  0  0  0
  5  4  2  0  0  0  0
  6  5  1  0  0  0  0
  6  1  2  0  0  0  0
 10  5  1  0  0  0  0
 11 13  1  0  0  0  0
 11 12  2  0  0  0  0
 13  6  1  0  0  0  0
 14 13  1  0  0  0  0
 15 16  1  0  0  0  0
 16 18  1  0  0  0  0
 16 17  2  0  0  0  0
 18 11  1  0  0  0  0
 19 18  1  0  0  0  0
 20 21  2  0  0  0  0
 20 25  1  0  0  0  0
 21 22  1  0  0  0  0
 22  1  1  0  0  0  0
 22 23  2  0  0  0  0
 24 23  1  0  0  0  0
 24 27  1  0  0  0  0
 25 24  2  0  0  0  0
 26 21  1  0  0  0  0
 28 20  1  0  0  0  0
 28 31  1  0  0  0  0
 29 28  1  0  0  0  0
 30 28  1  0  0  0  0
M  END
>  <minimizedAffinity>
-5.81783915

>  <minimizedRMSD>
0.0604883172

$$$$
