
 OpenBabel03252502293D

 31 32  0  0  0  0  0  0  0  0999 V2000
   45.0260   34.4980   41.3440 C   0  0  0  0  0  0  0  0  0  0  0  0
   45.3820   35.1370   42.5200 C   0  0  0  0  0  0  0  0  0  0  0  0
   46.7400   35.3780   42.7390 C   0  0  0  0  0  0  0  0  0  0  0  0
   47.6850   34.9860   41.8030 C   0  0  0  0  0  0  0  0  0  0  0  0
   47.3330   34.3580   40.6480 C   0  0  0  0  0  0  0  0  0  0  0  0
   45.9760   34.1310   40.4540 C   0  0  0  0  0  0  0  0  0  0  0  0
   44.6200   35.4360   43.2410 H   0  0  0  0  0  0  0  0  0  0  0  0
   46.9750   35.8790   43.6620 H   0  0  0  0  0  0  0  0  0  0  0  0
   48.7310   35.1950   42.0140 H   0  0  0  0  0  0  0  0  0  0  0  0
   48.0490   34.0340   39.8880 H   0  0  0  0  0  0  0  0  0  0  0  0
   45.4730   32.1340   38.7930 C   0  0  0  0  0  0  0  0  0  0  0  0
   45.9760   31.1880   39.3280 O   0  0  0  0  0  0  0  0  0  0  0  0
   45.5040   33.5140   39.2590 N   0  0  0  0  0  0  0  0  0  0  0  0
   45.1820   34.4320   38.7770 H   0  0  0  0  0  0  0  0  0  0  0  0
   46.0830   33.6510   35.8150 H   0  0  0  0  0  0  0  0  0  0  0  0
   45.5850   33.1370   36.6580 C   0  0  0  0  0  0  0  0  0  0  0  0
   46.8210   33.3820   36.8640 O   0  0  0  0  0  0  0  0  0  0  0  0
   44.7120   32.4520   37.6560 N   0  0  0  0  0  0  0  0  0  0  0  0
   44.1770   32.6750   36.8560 H   0  0  0  0  0  0  0  0  0  0  0  0
   41.3520   34.8650   40.5590 C   0  0  0  0  0  0  0  0  0  0  0  0
   42.7100   35.2250   40.6900 C   0  0  0  0  0  0  0  0  0  0  0  0
   43.5990   34.2680   41.1460 C   0  0  0  0  0  0  0  0  0  0  0  0
   43.1040   33.0390   41.4380 N   0  0  0  0  0  0  0  0  0  0  0  0
   41.8040   32.7080   41.3090 C   0  0  0  0  0  0  0  0  0  0  0  0
   40.9190   33.6430   40.8620 N   0  0  0  0  0  0  0  0  0  0  0  0
   43.0840   36.2020   40.4520 H   0  0  0  0  0  0  0  0  0  0  0  0
   41.4600   31.7100   41.5560 H   0  0  0  0  0  0  0  0  0  0  0  0
   40.3800   35.8770   40.0720 C   0  0  0  0  0  0  0  0  0  0  0  0
   39.1810   35.2100   39.8010 F   0  0  0  0  0  0  0  0  0  0  0  0
   40.8360   36.3210   38.8470 F   0  0  0  0  0  0  0  0  0  0  0  0
   40.1690   36.9030   40.9630 F   0  0  0  0  0  0  0  0  0  0  0  0
  1  2  1  0  0  0  0
  2  3  2  0  0  0  0
  2  7  1  0  0  0  0
  3  8  1  0  0  0  0
  4  9  1  0  0  0  0
  4  3  1  0  0  0  0
  5  4  2  0  0  0  0
  6  5  1  0  0  0  0
  6  1  2  0  0  0  0
 10  5  1  0  0  0  0
 11 13  1  0  0  0  0
 11 12  2  0  0  0  0
 13  6  1  0  0  0  0
 14 13  1  0  0  0  0
 15 16  1  0  0  0  0
 16 17  2  0  0  0  0
 16 18  1  0  0  0  0
 18 11  1  0  0  0  0
 19 18  1  0  0  0  0
 20 21  2  0  0  0  0
 20 25  1  0  0  0  0
 21 22  1  0  0  0  0
 22  1  1  0  0  0  0
 22 23  2  0  0  0  0
 24 23  1  0  0  0  0
 24 27  1  0  0  0  0
 25 24  2  0  0  0  0
 26 21  1  0  0  0  0
 28 20  1  0  0  0  0
 28 31  1  0  0  0  0
 29 28  1  0  0  0  0
 30 28  1  0  0  0  0
M  END
>  <minimizedAffinity>
-6.06323242

>  <minimizedRMSD>
0.194366187

$$$$
