
 OpenBabel03242510513D

 18 17  0  0  0  0  0  0  0  0999 V2000
   44.6800   36.0120   44.1140 C   0  0  0  0  0  0  0  0  0  0  0  0
   45.5450   35.4340   43.1790 C   0  0  0  0  0  0  0  0  0  0  0  0
   46.2560   34.2730   43.5550 C   0  0  0  0  0  0  0  0  0  0  0  0
   46.0720   33.7710   44.7960 N   0  0  0  0  0  0  0  0  0  0  0  0
   45.2220   34.3720   45.6630 C   0  0  0  0  0  0  0  0  0  0  0  0
   44.5410   35.4760   45.3160 N   0  0  0  0  0  0  0  0  0  0  0  0
   46.1010   32.8810   47.3690 C   0  0  0  0  0  0  0  0  0  0  0  0
   47.0620   32.5140   46.6950 O   0  0  0  0  0  0  0  0  0  0  0  0
   45.0390   33.8300   46.9910 N   0  0  0  0  0  0  0  0  0  0  0  0
   44.1920   36.8870   43.7280 H   0  0  0  0  0  0  0  0  0  0  0  0
   45.8000   35.7030   42.1730 H   0  0  0  0  0  0  0  0  0  0  0  0
   46.9600   33.7250   42.9220 H   0  0  0  0  0  0  0  0  0  0  0  0
   44.1660   34.2060   47.5030 H   0  0  0  0  0  0  0  0  0  0  0  0
   44.3530   30.3720   48.8770 H   0  0  0  0  0  0  0  0  0  0  0  0
   44.8840   31.3240   48.6810 C   0  0  0  0  0  0  0  0  0  0  0  0
   44.8730   30.5560   47.6660 O   0  0  0  0  0  0  0  0  0  0  0  0
   45.5400   32.6640   48.6580 N   0  0  0  0  0  0  0  0  0  0  0  0
   45.1630   32.5170   49.5240 H   0  0  0  0  0  0  0  0  0  0  0  0
  1  6  1  0  0  0  0
  2  3  1  0  0  0  0
  2  1  2  0  0  0  0
  3  4  2  0  0  0  0
  4  5  1  0  0  0  0
  5  9  1  0  0  0  0
  6  5  2  0  0  0  0
  7 17  1  0  0  0  0
  8  7  2  0  0  0  0
  9  7  1  0  0  0  0
  9 13  1  0  0  0  0
 10  1  1  0  0  0  0
 11  2  1  0  0  0  0
 12  3  1  0  0  0  0
 15 14  1  0  0  0  0
 16 15  1  0  0  0  0
 17 18  1  0  0  0  0
M  END
>  <minimizedAffinity>
-5.23385525

>  <minimizedRMSD>
0.342418551

$$$$
