
 OpenBabel03252504003D

 30 32  0  0  0  0  0  0  0  0999 V2000
   45.9960   31.7880   45.2200 C   0  0  0  0  0  0  0  0  0  0  0  0
   45.6760   33.0730   45.6580 C   0  0  0  0  0  0  0  0  0  0  0  0
   45.3930   33.2810   46.9840 C   0  0  0  0  0  0  0  0  0  0  0  0
   45.4320   32.2110   47.8540 C   0  0  0  0  0  0  0  0  0  0  0  0
   45.2050   32.1110   49.1790 N   0  0  0  0  0  0  0  0  0  0  0  0
   45.3580   30.8560   49.6040 C   0  0  0  0  0  0  0  0  0  0  0  0
   45.7020   30.0850   48.5260 C   0  0  0  0  0  0  0  0  0  0  0  0
   45.7510   30.9240   47.4210 C   0  0  0  0  0  0  0  0  0  0  0  0
   46.0330   30.7250   46.0950 C   0  0  0  0  0  0  0  0  0  0  0  0
   46.2380   31.5160   44.1820 H   0  0  0  0  0  0  0  0  0  0  0  0
   45.1460   34.2860   47.3080 H   0  0  0  0  0  0  0  0  0  0  0  0
   44.9440   32.9350   49.7570 H   0  0  0  0  0  0  0  0  0  0  0  0
   45.2150   30.5770   50.6460 H   0  0  0  0  0  0  0  0  0  0  0  0
   45.8940   29.0180   48.5520 H   0  0  0  0  0  0  0  0  0  0  0  0
   46.2750   29.7070   45.8130 H   0  0  0  0  0  0  0  0  0  0  0  0
   46.4210   34.9850   42.6450 C   0  0  0  0  0  0  0  0  0  0  0  0
   45.6160   36.1190   42.7560 C   0  0  0  0  0  0  0  0  0  0  0  0
   44.8100   36.2150   43.8890 C   0  0  0  0  0  0  0  0  0  0  0  0
   44.8560   35.2170   44.8010 N   0  0  0  0  0  0  0  0  0  0  0  0
   45.6630   34.1250   44.6450 C   0  0  0  0  0  0  0  0  0  0  0  0
   46.4460   34.0060   43.5700 N   0  0  0  0  0  0  0  0  0  0  0  0
   45.6070   36.8970   42.0040 H   0  0  0  0  0  0  0  0  0  0  0  0
   44.1730   37.0800   44.0080 H   0  0  0  0  0  0  0  0  0  0  0  0
   47.2410   34.9320   41.4490 C   0  0  0  0  0  0  0  0  0  0  0  0
   48.4090   35.4040   41.3400 O   0  0  0  0  0  0  0  0  0  0  0  0
   47.1580   32.8690   38.6250 H   0  0  0  0  0  0  0  0  0  0  0  0
   47.5100   33.3870   39.5280 C   0  0  0  0  0  0  0  0  0  0  0  0
   48.7090   33.1300   39.8780 O   0  0  0  0  0  0  0  0  0  0  0  0
   46.7050   34.2950   40.2810 N   0  0  0  0  0  0  0  0  0  0  0  0
   45.7390   34.4390   39.9110 H   0  0  0  0  0  0  0  0  0  0  0  0
  1  2  2  0  0  0  0
  1  9  1  0  0  0  0
  2  3  1  0  0  0  0
  3 11  1  0  0  0  0
  3  4  2  0  0  0  0
  4  5  1  0  0  0  0
  5  6  1  0  0  0  0
  5 12  1  0  0  0  0
  6 13  1  0  0  0  0
  7 14  1  0  0  0  0
  7  6  2  0  0  0  0
  8  4  1  0  0  0  0
  8  7  1  0  0  0  0
  9  8  2  0  0  0  0
 10  1  1  0  0  0  0
 15  9  1  0  0  0  0
 16 17  2  0  0  0  0
 16 21  1  0  0  0  0
 17 18  1  0  0  0  0
 18 23  1  0  0  0  0
 18 19  2  0  0  0  0
 20 19  1  0  0  0  0
 20  2  1  0  0  0  0
 21 20  2  0  0  0  0
 22 17  1  0  0  0  0
 24 16  1  0  0  0  0
 25 24  2  0  0  0  0
 26 27  1  0  0  0  0
 27 28  2  0  0  0  0
 27 29  1  0  0  0  0
 29 24  1  0  0  0  0
 30 29  1  0  0  0  0
M  END
>  <minimizedAffinity>
-5.83893919

>  <minimizedRMSD>
0.724893034

$$$$
