REMARK  Name = 
REMARK  2 active torsions:
REMARK  status: ('A' for Active; 'I' for Inactive)
REMARK    1  A    between atoms: C_2  and  C_14
REMARK    2  A    between atoms: C_10  and  C_16
REMARK                            x       y       z     vdW  Elec       q    Type
REMARK                         _______ _______ _______ _____ _____    ______ ____
ROOT
ATOM      1  C   UNL     1      46.056  31.704  45.147  0.00  0.00    +0.000 A 
ATOM      2  C   UNL     1      45.812  33.019  45.542  0.00  0.00    +0.000 A 
ATOM      3  C   UNL     1      45.531  33.285  46.858  0.00  0.00    +0.000 A 
ATOM      4  C   UNL     1      45.497  32.242  47.761  0.00  0.00    +0.000 A 
ATOM      5  N   UNL     1      45.253  32.197  49.086  0.00  0.00    +0.000 N 
ATOM      6  C   UNL     1      45.325  30.948  49.550  0.00  0.00    +0.000 A 
ATOM      7  C   UNL     1      45.630  30.125  48.499  0.00  0.00    +0.000 A 
ATOM      8  C   UNL     1      45.740  30.925  47.370  0.00  0.00    +0.000 A 
ATOM      9  C   UNL     1      46.020  30.668  46.054  0.00  0.00    +0.000 A 
ATOM     10  H   UNL     1      46.289  31.386  44.120  0.00  0.00    +0.000 HD
ATOM     11  H   UNL     1      45.344  34.313  47.149  0.00  0.00    +0.000 HD
ATOM     12  H   UNL     1      45.039  33.053  49.636  0.00  0.00    +0.000 HD
ATOM     13  H   UNL     1      45.157  30.711  50.599  0.00  0.00    +0.000 HD
ATOM     14  H   UNL     1      45.756  29.050  48.560  0.00  0.00    +0.000 HD
ATOM     15  H   UNL     1      46.201  29.629  45.805  0.00  0.00    +0.000 HD
ENDROOT
BRANCH   2  20
ATOM     16  C   UNL     1      46.886  34.930  42.629  0.00  0.00    +0.000 A 
ATOM     17  C   UNL     1      45.958  35.968  42.545  0.00  0.00    +0.000 A 
ATOM     18  C   UNL     1      44.954  36.000  43.510  0.00  0.00    +0.000 A 
ATOM     19  N   UNL     1      44.938  35.036  44.459  0.00  0.00    +0.000 NA
ATOM     20  C   UNL     1      45.872  34.038  44.498  0.00  0.00    +0.000 A 
ATOM     21  N   UNL     1      46.846  33.982  43.586  0.00  0.00    +0.000 NA
ATOM     22  H   UNL     1      46.004  36.722  41.770  0.00  0.00    +0.000 HD
ATOM     23  H   UNL     1      44.217  36.791  43.475  0.00  0.00    +0.000 HD
BRANCH  16  24
ATOM     24  C   UNL     1      47.911  34.940  41.602  0.00  0.00    +0.000 C 
ATOM     25  O   UNL     1      48.816  35.815  41.480  0.00  0.00    +0.000 OA
ATOM     26  H   UNL     1      47.129  31.849  40.163  0.00  0.00    +0.000 HD
ATOM     27  C   UNL     1      47.162  32.694  40.866  0.00  0.00    +0.000 C 
ATOM     28  O   UNL     1      46.469  32.556  41.927  0.00  0.00    +0.000 OA
ATOM     29  N   UNL     1      47.920  33.881  40.635  0.00  0.00    +0.000 N 
ATOM     30  H   UNL     1      48.454  33.897  39.737  0.00  0.00    +0.000 HD
ENDBRANCH  16  24
ENDBRANCH   2  20
TORSDOF 2
