
 OpenBabel03252504003D

 30 32  0  0  0  0  0  0  0  0999 V2000
   46.0050   31.6940   45.1630 C   0  0  0  0  0  0  0  0  0  0  0  0
   45.7320   33.0040   45.5570 C   0  0  0  0  0  0  0  0  0  0  0  0
   45.4650   33.2680   46.8760 C   0  0  0  0  0  0  0  0  0  0  0  0
   45.4730   32.2280   47.7830 C   0  0  0  0  0  0  0  0  0  0  0  0
   45.2520   32.1820   49.1120 N   0  0  0  0  0  0  0  0  0  0  0  0
   45.3640   30.9370   49.5800 C   0  0  0  0  0  0  0  0  0  0  0  0
   45.6740   30.1180   48.5270 C   0  0  0  0  0  0  0  0  0  0  0  0
   45.7450   30.9160   47.3930 C   0  0  0  0  0  0  0  0  0  0  0  0
   46.0110   30.6610   46.0740 C   0  0  0  0  0  0  0  0  0  0  0  0
   46.2300   31.3780   44.1330 H   0  0  0  0  0  0  0  0  0  0  0  0
   45.2550   34.2920   47.1660 H   0  0  0  0  0  0  0  0  0  0  0  0
   45.0230   33.0340   49.6620 H   0  0  0  0  0  0  0  0  0  0  0  0
   45.2190   30.7000   50.6320 H   0  0  0  0  0  0  0  0  0  0  0  0
   45.8300   29.0470   48.5900 H   0  0  0  0  0  0  0  0  0  0  0  0
   46.2160   29.6260   45.8260 H   0  0  0  0  0  0  0  0  0  0  0  0
   46.5310   34.7890   42.4800 C   0  0  0  0  0  0  0  0  0  0  0  0
   45.7560   35.9470   42.5510 C   0  0  0  0  0  0  0  0  0  0  0  0
   44.9520   36.1040   43.6770 C   0  0  0  0  0  0  0  0  0  0  0  0
   44.9700   35.1380   44.6240 N   0  0  0  0  0  0  0  0  0  0  0  0
   45.7480   34.0200   44.5080 C   0  0  0  0  0  0  0  0  0  0  0  0
   46.5290   33.8420   43.4390 N   0  0  0  0  0  0  0  0  0  0  0  0
   45.7700   36.6990   41.7720 H   0  0  0  0  0  0  0  0  0  0  0  0
   44.3380   36.9900   43.7640 H   0  0  0  0  0  0  0  0  0  0  0  0
   47.3510   34.6720   41.2890 C   0  0  0  0  0  0  0  0  0  0  0  0
   48.3790   35.3640   41.0370 O   0  0  0  0  0  0  0  0  0  0  0  0
   47.3150   33.0440   38.1940 H   0  0  0  0  0  0  0  0  0  0  0  0
   47.5530   33.7600   38.9920 C   0  0  0  0  0  0  0  0  0  0  0  0
   48.3870   34.6740   38.6820 O   0  0  0  0  0  0  0  0  0  0  0  0
   46.9860   33.6980   40.3010 N   0  0  0  0  0  0  0  0  0  0  0  0
   46.3150   32.9130   40.4560 H   0  0  0  0  0  0  0  0  0  0  0  0
  1  2  2  0  0  0  0
  1  9  1  0  0  0  0
  2  3  1  0  0  0  0
  3 11  1  0  0  0  0
  3  4  2  0  0  0  0
  4  5  1  0  0  0  0
  5  6  1  0  0  0  0
  5 12  1  0  0  0  0
  6 13  1  0  0  0  0
  7 14  1  0  0  0  0
  7  6  2  0  0  0  0
  8  4  1  0  0  0  0
  8  7  1  0  0  0  0
  9  8  2  0  0  0  0
 10  1  1  0  0  0  0
 15  9  1  0  0  0  0
 16 17  2  0  0  0  0
 16 21  1  0  0  0  0
 17 18  1  0  0  0  0
 18 23  1  0  0  0  0
 18 19  2  0  0  0  0
 20 19  1  0  0  0  0
 20  2  1  0  0  0  0
 21 20  2  0  0  0  0
 22 17  1  0  0  0  0
 24 16  1  0  0  0  0
 25 24  2  0  0  0  0
 26 27  1  0  0  0  0
 27 29  1  0  0  0  0
 28 27  2  0  0  0  0
 29 30  1  0  0  0  0
 29 24  1  0  0  0  0
M  END
>  <minimizedAffinity>
-5.77793407

>  <minimizedRMSD>
0.524984896

$$$$
