
 OpenBabel03242520433D

 35 37  0  0  1  0  0  0  0  0999 V2000
   39.2310   27.7010   42.0350 C   0  0  0  0  0  0  0  0  0  0  0  0
   38.6670   27.8190   43.3130 C   0  0  0  0  0  0  0  0  0  0  0  0
   37.2470   27.9170   43.4110 C   0  0  0  0  0  0  0  0  0  0  0  0
   36.5030   27.8930   42.2630 N   0  0  0  0  0  0  0  0  0  0  0  0
   37.1000   27.7780   41.0620 C   0  0  0  0  0  0  0  0  0  0  0  0
   38.4480   27.6830   40.9530 N   0  0  0  0  0  0  0  0  0  0  0  0
   36.2640   27.7630   39.9380 N   0  0  0  0  0  0  0  0  0  0  0  0
   35.4000   28.8620   39.6620 C   0  0  2  0  0  0  0  0  0  0  0  0
   34.3770   28.6080   38.6110 C   0  0  0  0  0  0  0  0  0  0  0  0
   34.7280   27.7000   37.5830 N   0  0  0  0  0  0  0  0  0  0  0  0
   36.0440   27.1800   37.6680 C   0  0  0  0  0  0  0  0  0  0  0  0
   36.2750   26.6270   39.0440 C   0  0  0  0  0  0  0  0  0  0  0  0
   40.3100   27.6300   42.0250 H   0  0  0  0  0  0  0  0  0  0  0  0
   39.1760   27.8460   44.2650 H   0  0  0  0  0  0  0  0  0  0  0  0
   36.7250   28.0100   44.3540 H   0  0  0  0  0  0  0  0  0  0  0  0
   34.7990   29.0100   40.6120 H   0  0  0  0  0  0  0  0  0  0  0  0
   33.4240   28.2420   39.0490 H   0  0  0  0  0  0  0  0  0  0  0  0
   34.0920   29.6130   38.1860 H   0  0  0  0  0  0  0  0  0  0  0  0
   34.5810   28.1510   36.6370 H   0  0  0  0  0  0  0  0  0  0  0  0
   36.8630   27.8230   37.3570 H   0  0  0  0  0  0  0  0  0  0  0  0
   36.0930   26.2890   36.9740 H   0  0  0  0  0  0  0  0  0  0  0  0
   37.3340   26.2430   39.0530 H   0  0  0  0  0  0  0  0  0  0  0  0
   35.5620   25.8350   39.3080 H   0  0  0  0  0  0  0  0  0  0  0  0
   36.1550   30.1250   39.4460 C   0  0  0  0  0  0  0  0  0  0  0  0
   36.8490   30.6210   38.3670 C   0  0  0  0  0  0  0  0  0  0  0  0
   37.3740   31.8250   38.6210 N   0  0  0  0  0  0  0  0  0  0  0  0
   37.0090   32.1050   39.8840 C   0  0  0  0  0  0  0  0  0  0  0  0
   36.2870   31.0930   40.3670 N   0  0  0  0  0  0  0  0  0  0  0  0
   36.9620   30.1010   37.4270 H   0  0  0  0  0  0  0  0  0  0  0  0
   37.9470   32.3910   37.9340 H   0  0  0  0  0  0  0  0  0  0  0  0
   39.0160   34.8150   40.8230 H   0  0  0  0  0  0  0  0  0  0  0  0
   38.7450   33.8730   40.3660 C   0  0  0  0  0  0  0  0  0  0  0  0
   39.5940   33.2080   39.7220 O   0  0  0  0  0  0  0  0  0  0  0  0
   37.4210   33.3520   40.4740 N   0  0  0  0  0  0  0  0  0  0  0  0
   36.7000   33.8900   41.0040 H   0  0  0  0  0  0  0  0  0  0  0  0
  1  2  1  0  0  0  0
  2  3  2  0  0  0  0
  2 14  1  0  0  0  0
  3 15  1  0  0  0  0
  4  3  1  0  0  0  0
  5  4  2  0  0  0  0
  6  5  1  0  0  0  0
  6  1  2  0  0  0  0
  7  5  1  0  0  0  0
  8  7  1  0  0  0  0
  8 16  1  1  0  0  0
  9 17  1  0  0  0  0
  9  8  1  0  0  0  0
 10 11  1  0  0  0  0
 10  9  1  0  0  0  0
 11 12  1  0  0  0  0
 12 22  1  0  0  0  0
 12 23  1  0  0  0  0
 12  7  1  0  0  0  0
 13  1  1  0  0  0  0
 18  9  1  0  0  0  0
 19 10  1  0  0  0  0
 20 11  1  0  0  0  0
 21 11  1  0  0  0  0
 24  8  1  0  0  0  0
 24 28  1  0  0  0  0
 25 26  1  0  0  0  0
 25 24  2  0  0  0  0
 26 27  1  0  0  0  0
 27 28  2  0  0  0  0
 27 34  1  0  0  0  0
 29 25  1  0  0  0  0
 30 26  1  0  0  0  0
 32 34  1  0  0  0  0
 32 31  1  0  0  0  0
 33 32  2  0  0  0  0
 34 35  1  0  0  0  0
M  END
>  <minimizedAffinity>
-5.66566896

$$$$

 OpenBabel03242520433D

 35 37  0  0  1  0  0  0  0  0999 V2000
   43.0260   31.0440   39.6090 C   0  0  0  0  0  0  0  0  0  0  0  0
   43.1810   30.3790   38.3850 C   0  0  0  0  0  0  0  0  0  0  0  0
   42.0900   30.4050   37.4660 C   0  0  0  0  0  0  0  0  0  0  0  0
   40.9490   31.0740   37.8170 N   0  0  0  0  0  0  0  0  0  0  0  0
   40.8570   31.6950   39.0070 C   0  0  0  0  0  0  0  0  0  0  0  0
   41.8860   31.6780   39.8910 N   0  0  0  0  0  0  0  0  0  0  0  0
   39.6530   32.3540   39.2870 N   0  0  0  0  0  0  0  0  0  0  0  0
   38.4210   31.6380   39.3060 C   0  0  2  0  0  0  0  0  0  0  0  0
   37.2000   32.4890   39.3380 C   0  0  0  0  0  0  0  0  0  0  0  0
   37.3090   33.7380   39.9960 N   0  0  0  0  0  0  0  0  0  0  0  0
   38.5740   33.9970   40.5820 C   0  0  0  0  0  0  0  0  0  0  0  0
   39.6530   33.7730   39.5630 C   0  0  0  0  0  0  0  0  0  0  0  0
   43.8870   30.9880   40.2620 H   0  0  0  0  0  0  0  0  0  0  0  0
   44.0400   29.8300   38.0290 H   0  0  0  0  0  0  0  0  0  0  0  0
   42.1190   29.9210   36.4990 H   0  0  0  0  0  0  0  0  0  0  0  0
   38.3720   31.1120   38.3020 H   0  0  0  0  0  0  0  0  0  0  0  0
   36.8190   32.6970   38.3170 H   0  0  0  0  0  0  0  0  0  0  0  0
   36.3800   31.8610   39.7920 H   0  0  0  0  0  0  0  0  0  0  0  0
   36.5490   33.8290   40.7270 H   0  0  0  0  0  0  0  0  0  0  0  0
   38.8070   33.5020   41.5210 H   0  0  0  0  0  0  0  0  0  0  0  0
   38.6080   35.1020   40.8190 H   0  0  0  0  0  0  0  0  0  0  0  0
   40.6270   33.9810   40.0890 H   0  0  0  0  0  0  0  0  0  0  0  0
   39.5350   34.4090   38.6750 H   0  0  0  0  0  0  0  0  0  0  0  0
   38.4140   30.5680   40.3380 C   0  0  0  0  0  0  0  0  0  0  0  0
   39.1080   29.3870   40.4590 C   0  0  0  0  0  0  0  0  0  0  0  0
   38.7830   28.7290   41.5780 N   0  0  0  0  0  0  0  0  0  0  0  0
   37.8660   29.5020   42.1840 C   0  0  0  0  0  0  0  0  0  0  0  0
   37.6510   30.5910   41.4440 N   0  0  0  0  0  0  0  0  0  0  0  0
   39.8270   29.0290   39.7370 H   0  0  0  0  0  0  0  0  0  0  0  0
   39.1940   27.7990   41.8720 H   0  0  0  0  0  0  0  0  0  0  0  0
   36.4360   27.4540   44.6350 H   0  0  0  0  0  0  0  0  0  0  0  0
   36.8540   27.7390   43.6800 C   0  0  0  0  0  0  0  0  0  0  0  0
   36.9600   26.8980   42.7520 O   0  0  0  0  0  0  0  0  0  0  0  0
   37.3010   29.0720   43.4360 N   0  0  0  0  0  0  0  0  0  0  0  0
   37.2230   29.7860   44.1950 H   0  0  0  0  0  0  0  0  0  0  0  0
  1  6  1  0  0  0  0
  1 13  1  0  0  0  0
  2  1  2  0  0  0  0
  3  4  2  0  0  0  0
  3  2  1  0  0  0  0
  4  5  1  0  0  0  0
  5  7  1  0  0  0  0
  5  6  2  0  0  0  0
  7  8  1  0  0  0  0
  7 12  1  0  0  0  0
  8 16  1  6  0  0  0
  8  9  1  0  0  0  0
  8 24  1  0  0  0  0
  9 18  1  0  0  0  0
  9 10  1  0  0  0  0
 10 11  1  0  0  0  0
 10 19  1  0  0  0  0
 11 21  1  0  0  0  0
 11 20  1  0  0  0  0
 12 22  1  0  0  0  0
 12 11  1  0  0  0  0
 14  2  1  0  0  0  0
 15  3  1  0  0  0  0
 17  9  1  0  0  0  0
 23 12  1  0  0  0  0
 24 25  2  0  0  0  0
 24 28  1  0  0  0  0
 25 26  1  0  0  0  0
 26 30  1  0  0  0  0
 26 27  1  0  0  0  0
 27 34  1  0  0  0  0
 28 27  2  0  0  0  0
 29 25  1  0  0  0  0
 32 31  1  0  0  0  0
 33 32  2  0  0  0  0
 34 32  1  0  0  0  0
 34 35  1  0  0  0  0
M  END
>  <minimizedAffinity>
-5.57399845

$$$$

 OpenBabel03242520433D

 35 37  0  0  1  0  0  0  0  0999 V2000
   38.9920   28.7610   37.1950 C   0  0  0  0  0  0  0  0  0  0  0  0
   37.7340   28.8740   36.5880 C   0  0  0  0  0  0  0  0  0  0  0  0
   36.9650   30.0460   36.8550 C   0  0  0  0  0  0  0  0  0  0  0  0
   37.4850   31.0010   37.6850 N   0  0  0  0  0  0  0  0  0  0  0  0
   38.7010   30.8380   38.2400 C   0  0  0  0  0  0  0  0  0  0  0  0
   39.4430   29.7300   37.9950 N   0  0  0  0  0  0  0  0  0  0  0  0
   39.1580   31.8630   39.0790 N   0  0  0  0  0  0  0  0  0  0  0  0
   38.4210   32.2310   40.2420 C   0  0  2  0  0  0  0  0  0  0  0  0
   38.8560   33.5000   40.8850 C   0  0  0  0  0  0  0  0  0  0  0  0
   40.2270   33.8370   40.7730 N   0  0  0  0  0  0  0  0  0  0  0  0
   41.0230   32.8830   40.0880 C   0  0  0  0  0  0  0  0  0  0  0  0
   40.3870   32.5570   38.7680 C   0  0  0  0  0  0  0  0  0  0  0  0
   39.5270   27.8520   36.9540 H   0  0  0  0  0  0  0  0  0  0  0  0
   37.2490   28.1730   35.9250 H   0  0  0  0  0  0  0  0  0  0  0  0
   35.9850   30.2190   36.4320 H   0  0  0  0  0  0  0  0  0  0  0  0
   37.3720   32.4490   39.8690 H   0  0  0  0  0  0  0  0  0  0  0  0
   38.2820   34.3700   40.5050 H   0  0  0  0  0  0  0  0  0  0  0  0
   38.5400   33.4400   41.9670 H   0  0  0  0  0  0  0  0  0  0  0  0
   40.6340   34.0210   41.7320 H   0  0  0  0  0  0  0  0  0  0  0  0
   41.3060   31.9820   40.6260 H   0  0  0  0  0  0  0  0  0  0  0  0
   42.0010   33.3900   39.8340 H   0  0  0  0  0  0  0  0  0  0  0  0
   41.0550   31.7910   38.2820 H   0  0  0  0  0  0  0  0  0  0  0  0
   40.2620   33.4400   38.1280 H   0  0  0  0  0  0  0  0  0  0  0  0
   38.2960   31.1030   41.2020 C   0  0  0  0  0  0  0  0  0  0  0  0
   39.1840   30.5280   42.0820 C   0  0  0  0  0  0  0  0  0  0  0  0
   38.6260   29.5230   42.7680 N   0  0  0  0  0  0  0  0  0  0  0  0
   37.3610   29.4550   42.3210 C   0  0  0  0  0  0  0  0  0  0  0  0
   37.1710   30.3940   41.3930 N   0  0  0  0  0  0  0  0  0  0  0  0
   40.2090   30.8450   42.2030 H   0  0  0  0  0  0  0  0  0  0  0  0
   39.1260   28.9410   43.4970 H   0  0  0  0  0  0  0  0  0  0  0  0
   36.1600   26.3790   43.4820 H   0  0  0  0  0  0  0  0  0  0  0  0
   36.8530   27.0980   43.0680 C   0  0  0  0  0  0  0  0  0  0  0  0
   38.0190   26.7520   42.7500 O   0  0  0  0  0  0  0  0  0  0  0  0
   36.4760   28.4590   42.8670 N   0  0  0  0  0  0  0  0  0  0  0  0
   35.5120   28.7680   43.1260 H   0  0  0  0  0  0  0  0  0  0  0  0
  1  6  1  0  0  0  0
  2  3  1  0  0  0  0
  2  1  2  0  0  0  0
  3  4  2  0  0  0  0
  4  5  1  0  0  0  0
  5  7  1  0  0  0  0
  6  5  2  0  0  0  0
  7  8  1  0  0  0  0
  8 16  1  6  0  0  0
  8  9  1  0  0  0  0
  8 24  1  0  0  0  0
  9 18  1  0  0  0  0
 10  9  1  0  0  0  0
 10 19  1  0  0  0  0
 11 20  1  0  0  0  0
 11 10  1  0  0  0  0
 12  7  1  0  0  0  0
 12 11  1  0  0  0  0
 13  1  1  0  0  0  0
 14  2  1  0  0  0  0
 15  3  1  0  0  0  0
 17  9  1  0  0  0  0
 21 11  1  0  0  0  0
 22 12  1  0  0  0  0
 23 12  1  0  0  0  0
 24 28  1  0  0  0  0
 24 25  2  0  0  0  0
 25 29  1  0  0  0  0
 25 26  1  0  0  0  0
 26 30  1  0  0  0  0
 27 26  1  0  0  0  0
 27 34  1  0  0  0  0
 28 27  2  0  0  0  0
 32 31  1  0  0  0  0
 33 32  2  0  0  0  0
 34 32  1  0  0  0  0
 34 35  1  0  0  0  0
M  END
>  <minimizedAffinity>
-5.44868755

$$$$

 OpenBabel03242520433D

 35 37  0  0  1  0  0  0  0  0999 V2000
   38.9170   27.4910   41.6830 C   0  0  0  0  0  0  0  0  0  0  0  0
   38.2650   27.4710   42.9230 C   0  0  0  0  0  0  0  0  0  0  0  0
   37.3950   28.5560   43.2400 C   0  0  0  0  0  0  0  0  0  0  0  0
   37.2340   29.5610   42.3250 N   0  0  0  0  0  0  0  0  0  0  0  0
   37.8870   29.5280   41.1480 C   0  0  0  0  0  0  0  0  0  0  0  0
   38.7180   28.5030   40.8340 N   0  0  0  0  0  0  0  0  0  0  0  0
   37.6690   30.5980   40.2710 N   0  0  0  0  0  0  0  0  0  0  0  0
   37.9730   31.9330   40.6660 C   0  0  2  0  0  0  0  0  0  0  0  0
   37.4420   32.9910   39.7630 C   0  0  0  0  0  0  0  0  0  0  0  0
   37.3240   32.6610   38.3910 N   0  0  0  0  0  0  0  0  0  0  0  0
   37.7760   31.3620   38.0480 C   0  0  0  0  0  0  0  0  0  0  0  0
   37.1310   30.3530   38.9520 C   0  0  0  0  0  0  0  0  0  0  0  0
   39.5630   26.6430   41.5000 H   0  0  0  0  0  0  0  0  0  0  0  0
   38.3330   26.7230   43.6990 H   0  0  0  0  0  0  0  0  0  0  0  0
   36.8500   28.6250   44.1720 H   0  0  0  0  0  0  0  0  0  0  0  0
   37.4140   32.0870   41.6400 H   0  0  0  0  0  0  0  0  0  0  0  0
   36.4440   33.3470   40.0930 H   0  0  0  0  0  0  0  0  0  0  0  0
   38.0970   33.8980   39.9090 H   0  0  0  0  0  0  0  0  0  0  0  0
   37.8270   33.3830   37.8020 H   0  0  0  0  0  0  0  0  0  0  0  0
   38.8490   31.2010   37.9770 H   0  0  0  0  0  0  0  0  0  0  0  0
   37.3790   31.1360   37.0140 H   0  0  0  0  0  0  0  0  0  0  0  0
   37.5360   29.3490   38.6400 H   0  0  0  0  0  0  0  0  0  0  0  0
   36.0340   30.3740   38.8970 H   0  0  0  0  0  0  0  0  0  0  0  0
   39.4160   32.1060   40.9800 C   0  0  0  0  0  0  0  0  0  0  0  0
   40.1990   31.6740   42.0260 C   0  0  0  0  0  0  0  0  0  0  0  0
   41.4720   32.0630   41.8910 N   0  0  0  0  0  0  0  0  0  0  0  0
   41.5050   32.7550   40.7400 C   0  0  0  0  0  0  0  0  0  0  0  0
   40.2830   32.7770   40.2050 N   0  0  0  0  0  0  0  0  0  0  0  0
   39.8310   31.0930   42.8590 H   0  0  0  0  0  0  0  0  0  0  0  0
   42.2460   31.8420   42.5780 H   0  0  0  0  0  0  0  0  0  0  0  0
   44.5740   34.4370   40.7860 H   0  0  0  0  0  0  0  0  0  0  0  0
   43.6450   34.0270   41.1570 C   0  0  0  0  0  0  0  0  0  0  0  0
   43.3240   34.1590   42.3650 O   0  0  0  0  0  0  0  0  0  0  0  0
   42.7520   33.3210   40.2960 N   0  0  0  0  0  0  0  0  0  0  0  0
   43.0000   33.1990   39.2890 H   0  0  0  0  0  0  0  0  0  0  0  0
  1  2  1  0  0  0  0
  2  3  2  0  0  0  0
  2 14  1  0  0  0  0
  3 15  1  0  0  0  0
  4  3  1  0  0  0  0
  5  4  2  0  0  0  0
  6  5  1  0  0  0  0
  6  1  2  0  0  0  0
  7  8  1  0  0  0  0
  7  5  1  0  0  0  0
  8 24  1  0  0  0  0
  8 16  1  1  0  0  0
  9 18  1  0  0  0  0
  9 17  1  0  0  0  0
  9  8  1  0  0  0  0
 10  9  1  0  0  0  0
 11 10  1  0  0  0  0
 11 12  1  0  0  0  0
 12  7  1  0  0  0  0
 13  1  1  0  0  0  0
 19 10  1  0  0  0  0
 20 11  1  0  0  0  0
 21 11  1  0  0  0  0
 22 12  1  0  0  0  0
 23 12  1  0  0  0  0
 24 25  2  0  0  0  0
 25 29  1  0  0  0  0
 26 25  1  0  0  0  0
 26 30  1  0  0  0  0
 27 26  1  0  0  0  0
 28 27  2  0  0  0  0
 28 24  1  0  0  0  0
 31 32  1  0  0  0  0
 32 33  2  0  0  0  0
 34 27  1  0  0  0  0
 34 32  1  0  0  0  0
 35 34  1  0  0  0  0
M  END
>  <minimizedAffinity>
-5.34351444

$$$$

 OpenBabel03242520433D

 35 37  0  0  1  0  0  0  0  0999 V2000
   39.5980   26.6700   41.5950 C   0  0  0  0  0  0  0  0  0  0  0  0
   40.7000   26.8630   42.4390 C   0  0  0  0  0  0  0  0  0  0  0  0
   40.9640   28.1870   42.9020 C   0  0  0  0  0  0  0  0  0  0  0  0
   40.1370   29.2020   42.5050 N   0  0  0  0  0  0  0  0  0  0  0  0
   39.0920   28.9560   41.6920 C   0  0  0  0  0  0  0  0  0  0  0  0
   38.8290   27.7040   41.2440 N   0  0  0  0  0  0  0  0  0  0  0  0
   38.2980   30.0530   41.3320 N   0  0  0  0  0  0  0  0  0  0  0  0
   38.8650   31.1670   40.6480 C   0  0  2  0  0  0  0  0  0  0  0  0
   37.9910   32.3690   40.5730 C   0  0  0  0  0  0  0  0  0  0  0  0
   36.5940   32.1420   40.5310 N   0  0  0  0  0  0  0  0  0  0  0  0
   36.2100   30.7760   40.5220 C   0  0  0  0  0  0  0  0  0  0  0  0
   36.8880   30.0590   41.6530 C   0  0  0  0  0  0  0  0  0  0  0  0
   39.4490   25.6470   41.2780 H   0  0  0  0  0  0  0  0  0  0  0  0
   41.4000   26.1250   42.8000 H   0  0  0  0  0  0  0  0  0  0  0  0
   41.7910   28.4310   43.5560 H   0  0  0  0  0  0  0  0  0  0  0  0
   39.7390   31.4940   41.2930 H   0  0  0  0  0  0  0  0  0  0  0  0
   38.1760   33.0640   41.4190 H   0  0  0  0  0  0  0  0  0  0  0  0
   38.3330   32.9620   39.6760 H   0  0  0  0  0  0  0  0  0  0  0  0
   36.1720   32.6380   39.6970 H   0  0  0  0  0  0  0  0  0  0  0  0
   36.3100   30.2290   39.5890 H   0  0  0  0  0  0  0  0  0  0  0  0
   35.1060   30.7420   40.7640 H   0  0  0  0  0  0  0  0  0  0  0  0
   36.5560   28.9860   41.5850 H   0  0  0  0  0  0  0  0  0  0  0  0
   36.6480   30.4910   42.6340 H   0  0  0  0  0  0  0  0  0  0  0  0
   39.4390   30.7800   39.3330 C   0  0  0  0  0  0  0  0  0  0  0  0
   38.9850   29.9630   38.3230 C   0  0  0  0  0  0  0  0  0  0  0  0
   39.8430   29.9120   37.2980 N   0  0  0  0  0  0  0  0  0  0  0  0
   40.8620   30.7110   37.6550 C   0  0  0  0  0  0  0  0  0  0  0  0
   40.6170   31.2230   38.8620 N   0  0  0  0  0  0  0  0  0  0  0  0
   38.0510   29.4220   38.3550 H   0  0  0  0  0  0  0  0  0  0  0  0
   39.6960   29.3450   36.4160 H   0  0  0  0  0  0  0  0  0  0  0  0
   43.4300   29.9620   35.3990 H   0  0  0  0  0  0  0  0  0  0  0  0
   42.5980   29.7950   36.0690 C   0  0  0  0  0  0  0  0  0  0  0  0
   42.1550   28.6350   36.2620 O   0  0  0  0  0  0  0  0  0  0  0  0
   41.9730   30.8790   36.7540 N   0  0  0  0  0  0  0  0  0  0  0  0
   42.3250   31.8510   36.6070 H   0  0  0  0  0  0  0  0  0  0  0  0
  1  2  1  0  0  0  0
  2 14  1  0  0  0  0
  2  3  2  0  0  0  0
  3 15  1  0  0  0  0
  4  3  1  0  0  0  0
  5  4  2  0  0  0  0
  6  1  2  0  0  0  0
  6  5  1  0  0  0  0
  7 12  1  0  0  0  0
  7  5  1  0  0  0  0
  8 16  1  1  0  0  0
  8  7  1  0  0  0  0
  9  8  1  0  0  0  0
  9 17  1  0  0  0  0
 10  9  1  0  0  0  0
 11 10  1  0  0  0  0
 11 21  1  0  0  0  0
 11 12  1  0  0  0  0
 12 23  1  0  0  0  0
 13  1  1  0  0  0  0
 18  9  1  0  0  0  0
 19 10  1  0  0  0  0
 20 11  1  0  0  0  0
 22 12  1  0  0  0  0
 24  8  1  0  0  0  0
 25 29  1  0  0  0  0
 25 24  2  0  0  0  0
 26 27  1  0  0  0  0
 26 25  1  0  0  0  0
 27 28  2  0  0  0  0
 28 24  1  0  0  0  0
 30 26  1  0  0  0  0
 31 32  1  0  0  0  0
 32 33  2  0  0  0  0
 32 34  1  0  0  0  0
 34 27  1  0  0  0  0
 35 34  1  0  0  0  0
M  END
>  <minimizedAffinity>
-5.170228

$$$$

 OpenBabel03242520433D

 35 37  0  0  1  0  0  0  0  0999 V2000
   37.5760   27.1590   41.1440 C   0  0  0  0  0  0  0  0  0  0  0  0
   38.0550   26.8260   42.4180 C   0  0  0  0  0  0  0  0  0  0  0  0
   38.4930   27.8860   43.2660 C   0  0  0  0  0  0  0  0  0  0  0  0
   38.4270   29.1720   42.8030 N   0  0  0  0  0  0  0  0  0  0  0  0
   37.9560   29.4320   41.5680 C   0  0  0  0  0  0  0  0  0  0  0  0
   37.5360   28.4340   40.7520 N   0  0  0  0  0  0  0  0  0  0  0  0
   37.9240   30.7760   41.1720 N   0  0  0  0  0  0  0  0  0  0  0  0
   39.1210   31.5480   41.1300 C   0  0  2  0  0  0  0  0  0  0  0  0
   38.9160   33.0130   40.9650 C   0  0  0  0  0  0  0  0  0  0  0  0
   37.7770   33.4220   40.2310 N   0  0  0  0  0  0  0  0  0  0  0  0
   36.9940   32.3630   39.7040 C   0  0  0  0  0  0  0  0  0  0  0  0
   36.6690   31.3890   40.7990 C   0  0  0  0  0  0  0  0  0  0  0  0
   37.2580   26.3130   40.5490 H   0  0  0  0  0  0  0  0  0  0  0  0
   38.1430   25.8460   42.8620 H   0  0  0  0  0  0  0  0  0  0  0  0
   38.8780   27.7260   44.2640 H   0  0  0  0  0  0  0  0  0  0  0  0
   39.5760   31.4410   42.1630 H   0  0  0  0  0  0  0  0  0  0  0  0
   38.8670   33.5320   41.9460 H   0  0  0  0  0  0  0  0  0  0  0  0
   39.8630   33.4220   40.5080 H   0  0  0  0  0  0  0  0  0  0  0  0
   38.0650   34.0760   39.4510 H   0  0  0  0  0  0  0  0  0  0  0  0
   37.3620   31.8540   38.8180 H   0  0  0  0  0  0  0  0  0  0  0  0
   36.0020   32.8080   39.3940 H   0  0  0  0  0  0  0  0  0  0  0  0
   36.0610   30.5710   40.3190 H   0  0  0  0  0  0  0  0  0  0  0  0
   36.1250   31.8530   41.6330 H   0  0  0  0  0  0  0  0  0  0  0  0
   40.1130   30.9880   40.1760 C   0  0  0  0  0  0  0  0  0  0  0  0
   41.2750   30.2730   40.3540 C   0  0  0  0  0  0  0  0  0  0  0  0
   41.8540   29.9620   39.1880 N   0  0  0  0  0  0  0  0  0  0  0  0
   41.0490   30.4850   38.2480 C   0  0  0  0  0  0  0  0  0  0  0  0
   40.0180   31.0920   38.8390 N   0  0  0  0  0  0  0  0  0  0  0  0
   41.6760   29.9990   41.3180 H   0  0  0  0  0  0  0  0  0  0  0  0
   42.7560   29.4170   39.0890 H   0  0  0  0  0  0  0  0  0  0  0  0
   42.9300   30.3960   35.2980 H   0  0  0  0  0  0  0  0  0  0  0  0
   42.7100   30.5280   36.3480 C   0  0  0  0  0  0  0  0  0  0  0  0
   43.6140   30.8640   37.1530 O   0  0  0  0  0  0  0  0  0  0  0  0
   41.3930   30.3250   36.8590 N   0  0  0  0  0  0  0  0  0  0  0  0
   40.6270   30.0440   36.2070 H   0  0  0  0  0  0  0  0  0  0  0  0
  1  2  1  0  0  0  0
  2 14  1  0  0  0  0
  2  3  2  0  0  0  0
  3 15  1  0  0  0  0
  4  3  1  0  0  0  0
  5  4  2  0  0  0  0
  6  1  2  0  0  0  0
  6  5  1  0  0  0  0
  7  5  1  0  0  0  0
  8  7  1  0  0  0  0
  8 16  1  1  0  0  0
  9  8  1  0  0  0  0
  9 17  1  0  0  0  0
 10  9  1  0  0  0  0
 11 10  1  0  0  0  0
 11 12  1  0  0  0  0
 12  7  1  0  0  0  0
 12 23  1  0  0  0  0
 13  1  1  0  0  0  0
 18  9  1  0  0  0  0
 19 10  1  0  0  0  0
 20 11  1  0  0  0  0
 21 11  1  0  0  0  0
 22 12  1  0  0  0  0
 24 25  2  0  0  0  0
 24  8  1  0  0  0  0
 25 29  1  0  0  0  0
 26 25  1  0  0  0  0
 27 28  2  0  0  0  0
 27 26  1  0  0  0  0
 28 24  1  0  0  0  0
 30 26  1  0  0  0  0
 31 32  1  0  0  0  0
 32 34  1  0  0  0  0
 32 33  2  0  0  0  0
 34 27  1  0  0  0  0
 35 34  1  0  0  0  0
M  END
>  <minimizedAffinity>
-5.15752029

$$$$

 OpenBabel03242520433D

 35 37  0  0  1  0  0  0  0  0999 V2000
   40.7090   28.6260   38.0150 C   0  0  0  0  0  0  0  0  0  0  0  0
   40.3760   27.7420   36.9810 C   0  0  0  0  0  0  0  0  0  0  0  0
   38.9960   27.4420   36.7750 C   0  0  0  0  0  0  0  0  0  0  0  0
   38.0660   28.0280   37.5900 N   0  0  0  0  0  0  0  0  0  0  0  0
   38.4450   28.8710   38.5680 C   0  0  0  0  0  0  0  0  0  0  0  0
   39.7530   29.1640   38.7760 N   0  0  0  0  0  0  0  0  0  0  0  0
   37.4280   29.4240   39.3580 N   0  0  0  0  0  0  0  0  0  0  0  0
   36.5510   28.5850   40.1040 C   0  0  2  0  0  0  0  0  0  0  0  0
   35.3580   29.2700   40.6710 C   0  0  0  0  0  0  0  0  0  0  0  0
   35.5090   30.6340   41.0200 N   0  0  0  0  0  0  0  0  0  0  0  0
   36.8110   31.1610   40.8210 C   0  0  0  0  0  0  0  0  0  0  0  0
   37.2640   30.8590   39.4220 C   0  0  0  0  0  0  0  0  0  0  0  0
   41.7690   28.8140   38.1220 H   0  0  0  0  0  0  0  0  0  0  0  0
   41.0400   27.2380   36.2960 H   0  0  0  0  0  0  0  0  0  0  0  0
   38.6450   26.7720   36.0020 H   0  0  0  0  0  0  0  0  0  0  0  0
   36.1250   27.8570   39.3460 H   0  0  0  0  0  0  0  0  0  0  0  0
   34.4880   29.2110   39.9850 H   0  0  0  0  0  0  0  0  0  0  0  0
   35.0250   28.6580   41.5580 H   0  0  0  0  0  0  0  0  0  0  0  0
   35.2120   30.7850   42.0250 H   0  0  0  0  0  0  0  0  0  0  0  0
   37.5770   30.9070   41.5490 H   0  0  0  0  0  0  0  0  0  0  0  0
   36.7230   32.2870   40.8710 H   0  0  0  0  0  0  0  0  0  0  0  0
   38.3010   31.2890   39.3300 H   0  0  0  0  0  0  0  0  0  0  0  0
   36.5910   31.2730   38.6600 H   0  0  0  0  0  0  0  0  0  0  0  0
   37.2820   27.7640   41.1050 C   0  0  0  0  0  0  0  0  0  0  0  0
   37.9890   28.0910   42.2400 C   0  0  0  0  0  0  0  0  0  0  0  0
   38.4810   27.0080   42.8520 N   0  0  0  0  0  0  0  0  0  0  0  0
   38.0820   25.9700   42.0970 C   0  0  0  0  0  0  0  0  0  0  0  0
   37.3720   26.4240   41.0640 N   0  0  0  0  0  0  0  0  0  0  0  0
   38.1330   29.1020   42.5940 H   0  0  0  0  0  0  0  0  0  0  0  0
   39.0560   27.0260   43.7400 H   0  0  0  0  0  0  0  0  0  0  0  0
   40.0060   23.2620   43.2000 H   0  0  0  0  0  0  0  0  0  0  0  0
   39.7660   24.2770   42.9140 C   0  0  0  0  0  0  0  0  0  0  0  0
   40.6450   25.1750   42.9490 O   0  0  0  0  0  0  0  0  0  0  0  0
   38.4530   24.6340   42.4880 N   0  0  0  0  0  0  0  0  0  0  0  0
   37.7080   23.9030   42.4530 H   0  0  0  0  0  0  0  0  0  0  0  0
  1 13  1  0  0  0  0
  1  6  1  0  0  0  0
  2  1  2  0  0  0  0
  3  2  1  0  0  0  0
  3  4  2  0  0  0  0
  4  5  1  0  0  0  0
  5  6  2  0  0  0  0
  5  7  1  0  0  0  0
  7 12  1  0  0  0  0
  7  8  1  0  0  0  0
  8 16  1  6  0  0  0
  8  9  1  0  0  0  0
  8 24  1  0  0  0  0
  9 10  1  0  0  0  0
  9 18  1  0  0  0  0
 10 19  1  0  0  0  0
 11 21  1  0  0  0  0
 11 10  1  0  0  0  0
 11 20  1  0  0  0  0
 12 11  1  0  0  0  0
 14  2  1  0  0  0  0
 15  3  1  0  0  0  0
 17  9  1  0  0  0  0
 22 12  1  0  0  0  0
 23 12  1  0  0  0  0
 24 25  2  0  0  0  0
 25 29  1  0  0  0  0
 25 26  1  0  0  0  0
 26 30  1  0  0  0  0
 27 34  1  0  0  0  0
 27 26  1  0  0  0  0
 28 24  1  0  0  0  0
 28 27  2  0  0  0  0
 32 33  2  0  0  0  0
 32 31  1  0  0  0  0
 34 32  1  0  0  0  0
 35 34  1  0  0  0  0
M  END
>  <minimizedAffinity>
-5.13116646

$$$$

 OpenBabel03242520433D

 35 37  0  0  1  0  0  0  0  0999 V2000
   36.2430   29.0610   37.4630 C   0  0  0  0  0  0  0  0  0  0  0  0
   34.8550   28.8660   37.4670 C   0  0  0  0  0  0  0  0  0  0  0  0
   34.1880   28.8340   38.7280 C   0  0  0  0  0  0  0  0  0  0  0  0
   34.9260   28.9950   39.8690 N   0  0  0  0  0  0  0  0  0  0  0  0
   36.2580   29.1790   39.8040 C   0  0  0  0  0  0  0  0  0  0  0  0
   36.9050   29.2120   38.6130 N   0  0  0  0  0  0  0  0  0  0  0  0
   36.9370   29.3330   41.0190 N   0  0  0  0  0  0  0  0  0  0  0  0
   36.8950   28.3080   42.0090 C   0  0  2  0  0  0  0  0  0  0  0  0
   37.4160   28.7040   43.3450 C   0  0  0  0  0  0  0  0  0  0  0  0
   38.4460   29.6760   43.3680 N   0  0  0  0  0  0  0  0  0  0  0  0
   38.8800   30.1170   42.0920 C   0  0  0  0  0  0  0  0  0  0  0  0
   37.6910   30.5390   41.2780 C   0  0  0  0  0  0  0  0  0  0  0  0
   36.6910   29.0760   36.4790 H   0  0  0  0  0  0  0  0  0  0  0  0
   34.1990   28.7310   36.6210 H   0  0  0  0  0  0  0  0  0  0  0  0
   33.1210   28.6890   38.8300 H   0  0  0  0  0  0  0  0  0  0  0  0
   35.7910   28.1130   42.1830 H   0  0  0  0  0  0  0  0  0  0  0  0
   36.6070   29.0810   44.0050 H   0  0  0  0  0  0  0  0  0  0  0  0
   37.7420   27.7540   43.8590 H   0  0  0  0  0  0  0  0  0  0  0  0
   39.2720   29.3140   43.9220 H   0  0  0  0  0  0  0  0  0  0  0  0
   39.5350   29.4600   41.5260 H   0  0  0  0  0  0  0  0  0  0  0  0
   39.4820   31.0600   42.2550 H   0  0  0  0  0  0  0  0  0  0  0  0
   38.0970   30.8640   40.2790 H   0  0  0  0  0  0  0  0  0  0  0  0
   37.1140   31.3420   41.7550 H   0  0  0  0  0  0  0  0  0  0  0  0
   37.4710   27.0310   41.5130 C   0  0  0  0  0  0  0  0  0  0  0  0
   38.4340   26.7470   40.5730 C   0  0  0  0  0  0  0  0  0  0  0  0
   38.6460   25.4310   40.4560 N   0  0  0  0  0  0  0  0  0  0  0  0
   37.8060   24.8630   41.3370 C   0  0  0  0  0  0  0  0  0  0  0  0
   37.1120   25.8160   41.9610 N   0  0  0  0  0  0  0  0  0  0  0  0
   38.9550   27.4960   39.9940 H   0  0  0  0  0  0  0  0  0  0  0  0
   39.3430   24.9890   39.7920 H   0  0  0  0  0  0  0  0  0  0  0  0
   37.7600   21.4700   40.4790 H   0  0  0  0  0  0  0  0  0  0  0  0
   37.7750   22.5430   40.3440 C   0  0  0  0  0  0  0  0  0  0  0  0
   37.7870   23.0420   39.1910 O   0  0  0  0  0  0  0  0  0  0  0  0
   37.7850   23.4280   41.4620 N   0  0  0  0  0  0  0  0  0  0  0  0
   37.7770   23.0340   42.4290 H   0  0  0  0  0  0  0  0  0  0  0  0
  1  2  2  0  0  0  0
  1  6  1  0  0  0  0
  2  3  1  0  0  0  0
  3 15  1  0  0  0  0
  3  4  2  0  0  0  0
  5  4  1  0  0  0  0
  5  7  1  0  0  0  0
  6  5  2  0  0  0  0
  7 12  1  0  0  0  0
  7  8  1  0  0  0  0
  8 16  1  1  0  0  0
  8  9  1  0  0  0  0
  9 10  1  0  0  0  0
  9 18  1  0  0  0  0
  9 17  1  0  0  0  0
 10 19  1  0  0  0  0
 11 21  1  0  0  0  0
 11 10  1  0  0  0  0
 12 23  1  0  0  0  0
 12 11  1  0  0  0  0
 13  1  1  0  0  0  0
 14  2  1  0  0  0  0
 20 11  1  0  0  0  0
 22 12  1  0  0  0  0
 24 28  1  0  0  0  0
 24  8  1  0  0  0  0
 25 24  2  0  0  0  0
 26 25  1  0  0  0  0
 26 27  1  0  0  0  0
 27 34  1  0  0  0  0
 27 28  2  0  0  0  0
 29 25  1  0  0  0  0
 30 26  1  0  0  0  0
 32 31  1  0  0  0  0
 32 34  1  0  0  0  0
 33 32  2  0  0  0  0
 34 35  1  0  0  0  0
M  END
>  <minimizedAffinity>
-5.11415911

$$$$

 OpenBabel03242520433D

 35 37  0  0  1  0  0  0  0  0999 V2000
   39.7820   25.7330   41.5190 C   0  0  0  0  0  0  0  0  0  0  0  0
   40.3540   25.8030   42.7970 C   0  0  0  0  0  0  0  0  0  0  0  0
   39.8950   26.8260   43.6800 C   0  0  0  0  0  0  0  0  0  0  0  0
   38.9240   27.6860   43.2450 N   0  0  0  0  0  0  0  0  0  0  0  0
   38.4100   27.5700   42.0060 C   0  0  0  0  0  0  0  0  0  0  0  0
   38.8360   26.6030   41.1560 N   0  0  0  0  0  0  0  0  0  0  0  0
   37.4210   28.4930   41.6410 N   0  0  0  0  0  0  0  0  0  0  0  0
   37.6970   29.8910   41.6460 C   0  0  2  0  0  0  0  0  0  0  0  0
   36.5000   30.7660   41.5110 C   0  0  0  0  0  0  0  0  0  0  0  0
   35.4150   30.2550   40.7580 N   0  0  0  0  0  0  0  0  0  0  0  0
   35.6330   28.9750   40.1880 C   0  0  0  0  0  0  0  0  0  0  0  0
   36.1090   28.0290   41.2520 C   0  0  0  0  0  0  0  0  0  0  0  0
   40.1700   24.9380   40.8970 H   0  0  0  0  0  0  0  0  0  0  0  0
   41.1200   25.1710   43.2190 H   0  0  0  0  0  0  0  0  0  0  0  0
   40.2780   26.9570   44.6830 H   0  0  0  0  0  0  0  0  0  0  0  0
   38.0900   30.1090   42.6870 H   0  0  0  0  0  0  0  0  0  0  0  0
   36.0930   31.0580   42.5010 H   0  0  0  0  0  0  0  0  0  0  0  0
   36.8630   31.7470   41.0860 H   0  0  0  0  0  0  0  0  0  0  0  0
   35.1450   30.9430   40.0010 H   0  0  0  0  0  0  0  0  0  0  0  0
   36.2560   28.9170   39.2990 H   0  0  0  0  0  0  0  0  0  0  0  0
   34.6250   28.5810   39.8640 H   0  0  0  0  0  0  0  0  0  0  0  0
   36.2750   27.0400   40.7380 H   0  0  0  0  0  0  0  0  0  0  0  0
   35.3970   27.9320   42.0820 H   0  0  0  0  0  0  0  0  0  0  0  0
   38.7890   30.2480   40.7030 C   0  0  0  0  0  0  0  0  0  0  0  0
   40.1540   30.3330   40.8500 C   0  0  0  0  0  0  0  0  0  0  0  0
   40.7580   30.6890   39.7100 N   0  0  0  0  0  0  0  0  0  0  0  0
   39.7630   30.8330   38.8190 C   0  0  0  0  0  0  0  0  0  0  0  0
   38.5990   30.5700   39.4130 N   0  0  0  0  0  0  0  0  0  0  0  0
   40.6780   30.1390   41.7750 H   0  0  0  0  0  0  0  0  0  0  0  0
   41.8030   30.8140   39.5950 H   0  0  0  0  0  0  0  0  0  0  0  0
   41.2120   32.5210   36.1170 H   0  0  0  0  0  0  0  0  0  0  0  0
   40.9980   32.2610   37.1440 C   0  0  0  0  0  0  0  0  0  0  0  0
   41.5580   32.8750   38.0880 O   0  0  0  0  0  0  0  0  0  0  0  0
   40.0810   31.2190   37.4680 N   0  0  0  0  0  0  0  0  0  0  0  0
   39.6060   30.6950   36.6980 H   0  0  0  0  0  0  0  0  0  0  0  0
  1  2  1  0  0  0  0
  2 14  1  0  0  0  0
  2  3  2  0  0  0  0
  3 15  1  0  0  0  0
  4  3  1  0  0  0  0
  5  4  2  0  0  0  0
  6  1  2  0  0  0  0
  6  5  1  0  0  0  0
  7  8  1  0  0  0  0
  7  5  1  0  0  0  0
  8 16  1  1  0  0  0
  9  8  1  0  0  0  0
  9 17  1  0  0  0  0
 10  9  1  0  0  0  0
 11 10  1  0  0  0  0
 11 12  1  0  0  0  0
 12  7  1  0  0  0  0
 12 23  1  0  0  0  0
 13  1  1  0  0  0  0
 18  9  1  0  0  0  0
 19 10  1  0  0  0  0
 20 11  1  0  0  0  0
 21 11  1  0  0  0  0
 22 12  1  0  0  0  0
 24 25  2  0  0  0  0
 24  8  1  0  0  0  0
 25 29  1  0  0  0  0
 26 25  1  0  0  0  0
 27 28  2  0  0  0  0
 27 26  1  0  0  0  0
 28 24  1  0  0  0  0
 30 26  1  0  0  0  0
 31 32  1  0  0  0  0
 32 34  1  0  0  0  0
 32 33  2  0  0  0  0
 34 27  1  0  0  0  0
 35 34  1  0  0  0  0
M  END
>  <minimizedAffinity>
-5.06515503

$$$$
