
     RDKit          3D

 34 37  0  0  0  0  0  0  0  0999 V2000
   45.5069   34.8349   43.5322 C   0  0  0  0  0  0  0  0  0  0  0  0
   46.2186   33.7506   44.1067 C   0  0  0  0  0  0  0  0  0  0  0  0
   46.0265   33.5187   45.4678 C   0  0  0  0  0  0  0  0  0  0  0  0
   45.1906   34.3198   46.1582 N   0  0  0  0  0  0  0  0  0  0  0  0
   44.5205   35.3527   45.5819 C   0  0  0  0  0  0  0  0  0  0  0  0
   44.6822   35.5982   44.2907 N   0  0  0  0  0  0  0  0  0  0  0  0
   46.9900   32.6825   47.5410 C   0  0  0  0  0  0  0  0  0  0  0  0
   46.6861   32.4432   46.2026 C   0  0  0  0  0  0  0  0  0  0  0  0
   47.0193   31.2324   45.6694 C   0  0  0  0  0  0  0  0  0  0  0  0
   47.6410   30.2495   46.4078 C   0  0  0  0  0  0  0  0  0  0  0  0
   48.0546   28.9938   46.0839 N   0  0  0  0  0  0  0  0  0  0  0  0
   48.6187   28.4468   47.2239 C   0  0  0  0  0  0  0  0  0  0  0  0
   48.5374   29.3668   48.2009 N   0  0  0  0  0  0  0  0  0  0  0  0
   47.9446   30.4677   47.7169 C   0  0  0  0  0  0  0  0  0  0  0  0
   47.6193   31.6869   48.2875 C   0  0  0  0  0  0  0  0  0  0  0  0
   45.6911   35.0764   42.1745 O   0  0  0  0  0  0  0  0  0  0  0  0
   44.6194   34.9208   41.2948 C   0  0  0  0  0  0  0  0  0  0  0  0
   45.0167   33.8317   40.6100 C   0  0  0  0  0  0  0  0  0  0  0  0
   43.5656   33.5842   39.3926 S   0  0  0  0  0  0  0  0  0  0  0  0
   42.7173   35.0998   40.1414 C   0  0  0  0  0  0  0  0  0  0  0  0
   43.4487   35.3936   40.9032 N   0  0  0  0  0  0  0  0  0  0  0  0
   46.8768   33.1190   43.5659 H   0  0  0  0  0  0  0  0  0  0  0  0
   43.8662   35.9544   46.1950 H   0  0  0  0  0  0  0  0  0  0  0  0
   46.7837   33.5924   48.0885 H   0  0  0  0  0  0  0  0  0  0  0  0
   46.7687   31.0854   44.6342 H   0  0  0  0  0  0  0  0  0  0  0  0
   47.9364   28.5826   45.1316 H   0  0  0  0  0  0  0  0  0  0  0  0
   49.0194   27.4432   47.1989 H   0  0  0  0  0  0  0  0  0  0  0  0
   47.8767   31.8228   49.3305 H   0  0  0  0  0  0  0  0  0  0  0  0
   45.6948   32.8930   40.2511 H   0  0  0  0  0  0  0  0  0  0  0  0
   40.4249   37.7422   40.2899 H   0  0  0  0  0  0  0  0  0  0  0  0
   41.2356   37.0279   40.3414 C   0  0  0  0  0  0  0  0  0  0  0  0
   41.7673   37.9420   41.0280 O   0  0  0  0  0  0  0  0  0  0  0  0
   41.4682   35.7409   39.8451 N   0  0  0  0  0  0  0  0  0  0  0  0
   40.6668   35.4088   39.3039 H   0  0  0  0  0  0  0  0  0  0  0  0
  1  2  2  0
  1  6  1  0
  2  3  1  0
  3  4  2  0
  3  8  1  0
  5  4  1  0
  6  5  2  0
  7 15  2  0
  8  7  1  0
  9  8  2  0
  9 10  1  0
 10 14  2  0
 11 10  1  0
 11 12  1  0
 12 13  2  0
 14 13  1  0
 14 15  1  0
 16  1  1  0
 17 16  1  0
 18 17  2  0
 19 20  1  0
 19 18  1  0
 20 21  2  0
 21 17  1  0
  2 22  1  0
  5 23  1  0
  7 24  1  0
  9 25  1  0
 11 26  1  0
 12 27  1  0
 15 28  1  0
 18 29  1  0
 30 31  1  0
 31 32  2  0
 31 33  1  0
 33 34  1  0
 20 33  1  0
M  ISO  8  22  14  23  14  24  14  25  14  26   9  27  14  28  14  29  14
M  ISO  1  30   1
M  END
>  <DihAtoms>  (1) 
18,19,32,30

>  <DihDeg>  (1) 
90.00146026523507

$$$$
