REMARK  Name = 
REMARK  3 active torsions:
REMARK  status: ('A' for Active; 'I' for Inactive)
REMARK    1  A    between atoms: C_1  and  O_16
REMARK    2  A    between atoms: C_3  and  C_8
REMARK    3  A    between atoms: O_16  and  C_17
REMARK                            x       y       z     vdW  Elec       q    Type
REMARK                         _______ _______ _______ _____ _____    ______ ____
ROOT
ATOM      1  C   UNL     1      45.507  34.835  43.532  0.00  0.00    +0.000 A 
ATOM      2  C   UNL     1      46.219  33.751  44.107  0.00  0.00    +0.000 A 
ATOM      3  C   UNL     1      46.026  33.519  45.468  0.00  0.00    +0.000 A 
ATOM      4  N   UNL     1      45.191  34.320  46.158  0.00  0.00    +0.000 NA
ATOM      5  C   UNL     1      44.520  35.353  45.582  0.00  0.00    +0.000 A 
ATOM      6  N   UNL     1      44.682  35.598  44.291  0.00  0.00    +0.000 NA
ATOM      7  H   UNL     1      46.877  33.119  43.566  0.00  0.00    +0.000 HD
ATOM      8  H   UNL     1      43.866  35.954  46.195  0.00  0.00    +0.000 HD
ENDROOT
BRANCH   3  10
ATOM      9  C   UNL     1      46.990  32.682  47.541  0.00  0.00    +0.000 A 
ATOM     10  C   UNL     1      46.686  32.443  46.203  0.00  0.00    +0.000 A 
ATOM     11  C   UNL     1      47.019  31.232  45.669  0.00  0.00    +0.000 A 
ATOM     12  C   UNL     1      47.641  30.250  46.408  0.00  0.00    +0.000 A 
ATOM     13  N   UNL     1      48.055  28.994  46.084  0.00  0.00    +0.000 N 
ATOM     14  C   UNL     1      48.619  28.447  47.224  0.00  0.00    +0.000 A 
ATOM     15  N   UNL     1      48.537  29.367  48.201  0.00  0.00    +0.000 NA
ATOM     16  C   UNL     1      47.945  30.468  47.717  0.00  0.00    +0.000 A 
ATOM     17  C   UNL     1      47.619  31.687  48.288  0.00  0.00    +0.000 A 
ATOM     18  H   UNL     1      46.784  33.592  48.089  0.00  0.00    +0.000 HD
ATOM     19  H   UNL     1      46.769  31.085  44.634  0.00  0.00    +0.000 HD
ATOM     20  H   UNL     1      47.936  28.583  45.132  0.00  0.00    +0.000 HD
ATOM     21  H   UNL     1      49.019  27.443  47.199  0.00  0.00    +0.000 HD
ATOM     22  H   UNL     1      47.877  31.823  49.331  0.00  0.00    +0.000 HD
ENDBRANCH   3  10
BRANCH   1  23
ATOM     23  O   UNL     1      45.691  35.076  42.175  0.00  0.00    +0.000 OA
BRANCH  23  24
ATOM     24  C   UNL     1      44.619  34.921  41.295  0.00  0.00    +0.000 A 
ATOM     25  C   UNL     1      45.017  33.832  40.610  0.00  0.00    +0.000 A 
ATOM     26  S   UNL     1      43.566  33.584  39.393  0.00  0.00    +0.000 S 
ATOM     27  C   UNL     1      42.717  35.100  40.141  0.00  0.00    +0.000 A 
ATOM     28  N   UNL     1      43.449  35.394  40.903  0.00  0.00    +0.000 NA
ATOM     29  H   UNL     1      45.695  32.893  40.251  0.00  0.00    +0.000 HD
ATOM     30  H   UNL     1      40.425  37.742  40.290  0.00  0.00    +0.000 HD
ATOM     31  C   UNL     1      41.236  37.028  40.341  0.00  0.00    +0.000 C 
ATOM     32  O   UNL     1      41.767  37.942  41.028  0.00  0.00    +0.000 OA
ATOM     33  N   UNL     1      41.468  35.741  39.845  0.00  0.00    +0.000 N 
ATOM     34  H   UNL     1      40.667  35.409  39.304  0.00  0.00    +0.000 HD
ENDBRANCH  23  24
ENDBRANCH   1  23
TORSDOF 3
