
 OpenBabel03252507373D

 34 37  0  0  0  0  0  0  0  0999 V2000
   45.4340   34.8440   43.5090 C   0  0  0  0  0  0  0  0  0  0  0  0
   46.1470   33.7560   44.0730 C   0  0  0  0  0  0  0  0  0  0  0  0
   45.9870   33.5360   45.4410 C   0  0  0  0  0  0  0  0  0  0  0  0
   45.1800   34.3520   46.1460 N   0  0  0  0  0  0  0  0  0  0  0  0
   44.5060   35.3890   45.5800 C   0  0  0  0  0  0  0  0  0  0  0  0
   44.6380   35.6220   44.2830 N   0  0  0  0  0  0  0  0  0  0  0  0
   46.7840   33.1120   43.5200 H   0  0  0  0  0  0  0  0  0  0  0  0
   43.8760   36.0020   46.2050 H   0  0  0  0  0  0  0  0  0  0  0  0
   46.9830   32.6980   47.4980 C   0  0  0  0  0  0  0  0  0  0  0  0
   46.6530   32.4570   46.1670 C   0  0  0  0  0  0  0  0  0  0  0  0
   46.9680   31.2430   45.6300 C   0  0  0  0  0  0  0  0  0  0  0  0
   47.5970   30.2580   46.3600 C   0  0  0  0  0  0  0  0  0  0  0  0
   47.9960   28.9990   46.0320 N   0  0  0  0  0  0  0  0  0  0  0  0
   48.5770   28.4510   47.1630 C   0  0  0  0  0  0  0  0  0  0  0  0
   48.5190   29.3740   48.1390 N   0  0  0  0  0  0  0  0  0  0  0  0
   47.9260   30.4780   47.6630 C   0  0  0  0  0  0  0  0  0  0  0  0
   47.6180   31.7000   48.2360 C   0  0  0  0  0  0  0  0  0  0  0  0
   46.7930   33.6110   48.0470 H   0  0  0  0  0  0  0  0  0  0  0  0
   46.6980   31.0950   44.6000 H   0  0  0  0  0  0  0  0  0  0  0  0
   47.8570   28.5860   45.0840 H   0  0  0  0  0  0  0  0  0  0  0  0
   48.9700   27.4440   47.1340 H   0  0  0  0  0  0  0  0  0  0  0  0
   47.8960   31.8370   49.2740 H   0  0  0  0  0  0  0  0  0  0  0  0
   45.5850   35.0730   42.1460 O   0  0  0  0  0  0  0  0  0  0  0  0
   44.4930   34.9090   41.2930 C   0  0  0  0  0  0  0  0  0  0  0  0
   44.9300   33.8910   40.5250 C   0  0  0  0  0  0  0  0  0  0  0  0
   43.4530   33.6330   39.3420 S   0  0  0  0  0  0  0  0  0  0  0  0
   42.5430   35.0430   40.2150 C   0  0  0  0  0  0  0  0  0  0  0  0
   43.2840   35.3330   40.9710 N   0  0  0  0  0  0  0  0  0  0  0  0
   45.6480   33.0200   40.0840 H   0  0  0  0  0  0  0  0  0  0  0  0
   39.0920   35.3100   40.7360 H   0  0  0  0  0  0  0  0  0  0  0  0
   40.1510   35.0950   40.6880 C   0  0  0  0  0  0  0  0  0  0  0  0
   39.8310   34.2000   41.5170 O   0  0  0  0  0  0  0  0  0  0  0  0
   41.2490   35.6240   40.0020 N   0  0  0  0  0  0  0  0  0  0  0  0
   40.9640   36.4030   39.4030 H   0  0  0  0  0  0  0  0  0  0  0  0
  1  2  2  0  0  0  0
  1  6  1  0  0  0  0
  2  3  1  0  0  0  0
  3  4  2  0  0  0  0
  3 10  1  0  0  0  0
  5  4  1  0  0  0  0
  5  8  1  0  0  0  0
  6  5  2  0  0  0  0
  7  2  1  0  0  0  0
  9 18  1  0  0  0  0
  9 17  1  0  0  0  0
 10  9  2  0  0  0  0
 11 10  1  0  0  0  0
 11 12  2  0  0  0  0
 12 16  1  0  0  0  0
 13 12  1  0  0  0  0
 13 14  1  0  0  0  0
 14 15  2  0  0  0  0
 16 15  1  0  0  0  0
 16 17  2  0  0  0  0
 17 22  1  0  0  0  0
 19 11  1  0  0  0  0
 20 13  1  0  0  0  0
 21 14  1  0  0  0  0
 23  1  1  0  0  0  0
 24 23  1  0  0  0  0
 25 24  2  0  0  0  0
 26 27  1  0  0  0  0
 26 25  1  0  0  0  0
 27 28  2  0  0  0  0
 28 24  1  0  0  0  0
 29 25  1  0  0  0  0
 31 30  1  0  0  0  0
 31 32  2  0  0  0  0
 33 27  1  0  0  0  0
 33 31  1  0  0  0  0
 34 33  1  0  0  0  0
M  END
>  <minimizedAffinity>
-6.10093212

>  <minimizedRMSD>
0.144847184

$$$$
