
     RDKit          3D

 45 47  0  0  0  0  0  0  0  0999 V2000
   47.5582   31.9672   46.4132 C   0  0  2  0  0  0  0  0  0  0  0  0
   47.3003   30.5008   45.9604 C   0  0  0  0  0  0  0  0  0  0  0  0
   48.1073   29.5692   46.7991 C   0  0  0  0  0  0  0  0  0  0  0  0
   48.1195   29.8508   48.2615 C   0  0  0  0  0  0  0  0  0  0  0  0
   48.1232   31.2480   48.6080 C   0  0  0  0  0  0  0  0  0  0  0  0
   47.1274   32.1006   47.7906 C   0  0  2  0  0  0  0  0  0  0  0  0
   46.9122   32.9159   45.5280 C   0  0  0  0  0  0  0  0  0  0  0  0
   45.8045   33.5957   46.0197 C   0  0  0  0  0  0  0  0  0  0  0  0
   45.1271   34.5148   45.1839 C   0  0  0  0  0  0  0  0  0  0  0  0
   45.6358   34.6765   43.8971 N   0  0  0  0  0  0  0  0  0  0  0  0
   46.7103   33.9898   43.4888 C   0  0  0  0  0  0  0  0  0  0  0  0
   47.3345   33.1276   44.2870 N   0  0  0  0  0  0  0  0  0  0  0  0
   47.2029   34.2238   42.1280 C   0  0  0  0  0  0  0  0  0  0  0  0
   48.1918   35.1492   41.8801 C   0  0  0  0  0  0  0  0  0  0  0  0
   48.7204   35.4431   40.6484 C   0  0  0  0  0  0  0  0  0  0  0  0
   48.1715   34.7168   39.6220 C   0  0  0  0  0  0  0  0  0  0  0  0
   47.1679   33.7705   39.8344 C   0  0  0  0  0  0  0  0  0  0  0  0
   46.6888   33.5311   41.0990 N   0  0  0  0  0  0  0  0  0  0  0  0
   45.7871   31.5320   47.9529 N   0  0  0  0  0  0  0  0  0  0  0  0
   45.1894   30.8454   49.0235 C   0  0  0  0  0  0  0  0  0  0  0  0
   44.7529   31.4372   50.0751 O   0  0  0  0  0  0  0  0  0  0  0  0
   45.0950   29.4310   48.8521 N   0  0  0  0  0  0  0  0  0  0  0  0
   48.6523   32.0584   46.2956 H   0  0  0  0  0  0  0  0  0  0  0  0
   47.6436   30.4842   44.9056 H   0  0  0  0  0  0  0  0  0  0  0  0
   46.2423   30.2481   45.9633 H   0  0  0  0  0  0  0  0  0  0  0  0
   49.0884   29.4737   46.2959 H   0  0  0  0  0  0  0  0  0  0  0  0
   47.6343   28.5521   46.6764 H   0  0  0  0  0  0  0  0  0  0  0  0
   49.2340   29.6033   48.4829 H   0  0  0  0  0  0  0  0  0  0  0  0
   47.7560   29.0727   48.9392 H   0  0  0  0  0  0  0  0  0  0  0  0
   49.0786   31.8238   48.5542 H   0  0  0  0  0  0  0  0  0  0  0  0
   47.7901   31.3814   49.6760 H   0  0  0  0  0  0  0  0  0  0  0  0
   47.2364   33.0697   48.2808 H   0  0  0  0  0  0  0  0  0  0  0  0
   45.2816   33.6528   46.9491 H   0  0  0  0  0  0  0  0  0  0  0  0
   44.2774   35.1128   45.3809 H   0  0  0  0  0  0  0  0  0  0  0  0
   48.5700   35.6817   42.7627 H   0  0  0  0  0  0  0  0  0  0  0  0
   49.4858   36.1606   40.4639 H   0  0  0  0  0  0  0  0  0  0  0  0
   48.5001   34.8525   38.5988 H   0  0  0  0  0  0  0  0  0  0  0  0
   45.0639   31.5330   47.1383 H   0  0  0  0  0  0  0  0  0  0  0  0
   44.6671   28.8734   48.0779 H   0  0  0  0  0  0  0  0  0  0  0  0
   45.4378   28.6542   49.4717 H   0  0  0  0  0  0  0  0  0  0  0  0
   47.5838   32.4190   36.7606 H   0  0  0  0  0  0  0  0  0  0  0  0
   47.6829   32.9251   37.7329 C   0  0  0  0  0  0  0  0  0  0  0  0
   48.8249   33.4199   37.9516 O   0  0  0  0  0  0  0  0  0  0  0  0
   46.6428   33.0522   38.7235 N   0  0  0  0  0  0  0  0  0  0  0  0
   45.7345   32.6317   38.4943 H   0  0  0  0  0  0  0  0  0  0  0  0
  1  6  1  0
  2  1  1  0
  2  3  1  0
  3  4  1  0
  4  5  1  0
  6 19  1  0
  6  5  1  0
  7  8  2  0
  7  1  1  0
  9  8  1  0
 10  9  2  0
 11 10  1  0
 11 12  2  0
 12  7  1  0
 13 11  1  0
 14 13  2  0
 15 14  1  0
 16 17  1  0
 16 15  2  0
 17 18  2  0
 18 13  1  0
 19 20  1  0
 20 21  2  0
 22 20  1  0
  1 23  1  1
  2 24  1  0
  2 25  1  0
  3 26  1  0
  3 27  1  0
  4 28  1  0
  4 29  1  0
  5 30  1  0
  5 31  1  0
  6 32  1  1
  8 33  1  0
  9 34  1  0
 14 35  1  0
 15 36  1  0
 16 37  1  0
 19 38  1  0
 22 39  1  0
 22 40  1  0
 41 42  1  0
 42 43  2  0
 42 44  1  0
 44 45  1  0
 17 44  1  0
M  ISO  8  23  13  24  13  25  13  26  13  27  13  28  13  29  13  30  13
M  ISO  8  31  13  32  13  33  14  34  14  35  14  36  14  37  14  41   1
M  END
>  <DihAtoms>  (1) 
15,16,43,41

>  <DihDeg>  (1) 
-89.99962568099261

$$$$
