
     RDKit          3D

 27 28  0  0  0  0  0  0  0  0999 V2000
   44.9041   35.0355   43.5649 C   0  0  0  0  0  0  0  0  0  0  0  0
   45.2844   34.9162   42.2113 C   0  0  0  0  0  0  0  0  0  0  0  0
   46.3863   34.1365   41.8660 C   0  0  0  0  0  0  0  0  0  0  0  0
   47.0323   33.5307   42.8890 N   0  0  0  0  0  0  0  0  0  0  0  0
   46.6613   33.6524   44.1658 C   0  0  0  0  0  0  0  0  0  0  0  0
   45.6022   34.4016   44.4992 N   0  0  0  0  0  0  0  0  0  0  0  0
   43.7727   35.8438   43.8552 N   0  0  0  0  0  0  0  0  0  0  0  0
   47.9721   34.6392   40.1015 C   0  0  0  0  0  0  0  0  0  0  0  0
   46.8120   33.9869   40.4828 C   0  0  0  0  0  0  0  0  0  0  0  0
   46.1612   33.2570   39.5337 C   0  0  0  0  0  0  0  0  0  0  0  0
   46.5999   33.1398   38.2264 C   0  0  0  0  0  0  0  0  0  0  0  0
   47.7664   33.8069   37.8785 C   0  0  0  0  0  0  0  0  0  0  0  0
   48.4448   34.5485   38.8067 C   0  0  0  0  0  0  0  0  0  0  0  0
   49.3207   36.0774   41.8074 N   0  0  0  0  0  0  0  0  0  0  0  0
   48.7154   35.4297   41.0475 C   0  0  0  0  0  0  0  0  0  0  0  0
   44.7556   35.4098   41.3923 H   0  0  0  0  0  0  0  0  0  0  0  0
   47.1992   33.1531   44.9753 H   0  0  0  0  0  0  0  0  0  0  0  0
   44.0405   36.6316   44.5099 H   0  0  0  0  0  0  0  0  0  0  0  0
   42.9377   35.4578   43.3436 H   0  0  0  0  0  0  0  0  0  0  0  0
   45.2531   32.7418   39.8178 H   0  0  0  0  0  0  0  0  0  0  0  0
   46.0317   32.5424   37.5251 H   0  0  0  0  0  0  0  0  0  0  0  0
   48.1298   33.7300   36.8603 H   0  0  0  0  0  0  0  0  0  0  0  0
   50.5233   37.2263   38.7180 H   0  0  0  0  0  0  0  0  0  0  0  0
   49.6812   36.5670   38.9164 C   0  0  0  0  0  0  0  0  0  0  0  0
   48.9761   37.3581   39.5951 O   0  0  0  0  0  0  0  0  0  0  0  0
   49.6294   35.2185   38.4294 N   0  0  0  0  0  0  0  0  0  0  0  0
   50.4671   34.9474   37.8782 H   0  0  0  0  0  0  0  0  0  0  0  0
  1  7  1  0
  1  6  2  0
  2  1  1  0
  3  2  2  0
  3  4  1  0
  4  5  2  0
  5  6  1  0
  8  9  2  0
  8 15  1  0
  9  3  1  0
 10  9  1  0
 11 10  2  0
 12 11  1  0
 12 13  2  0
 13  8  1  0
 15 14  3  0
  2 16  1  0
  5 17  1  0
  7 18  1  0
  7 19  1  0
 10 20  1  0
 11 21  1  0
 12 22  1  0
 23 24  1  0
 24 25  2  0
 24 26  1  0
 26 27  1  0
 13 26  1  0
M  ISO  6  16  14  17  14  20  14  21  14  22  14  23   1
M  END
>  <DihAtoms>  (1) 
11,12,25,23

>  <DihDeg>  (1) 
89.99992311498399

$$$$
