
 OpenBabel03252507373D

 34 37  0  0  0  0  0  0  0  0999 V2000
   45.5960   34.8140   43.4120 C   0  0  0  0  0  0  0  0  0  0  0  0
   46.2940   33.7370   44.0170 C   0  0  0  0  0  0  0  0  0  0  0  0
   46.0650   33.5200   45.3750 C   0  0  0  0  0  0  0  0  0  0  0  0
   45.2100   34.3270   46.0340 N   0  0  0  0  0  0  0  0  0  0  0  0
   44.5540   35.3530   45.4290 C   0  0  0  0  0  0  0  0  0  0  0  0
   44.7500   35.5840   44.1400 N   0  0  0  0  0  0  0  0  0  0  0  0
   46.9670   33.1010   43.5010 H   0  0  0  0  0  0  0  0  0  0  0  0
   43.8830   35.9590   46.0170 H   0  0  0  0  0  0  0  0  0  0  0  0
   46.9830   32.7110   47.4790 C   0  0  0  0  0  0  0  0  0  0  0  0
   46.7060   32.4530   46.1390 C   0  0  0  0  0  0  0  0  0  0  0  0
   47.0450   31.2330   45.6300 C   0  0  0  0  0  0  0  0  0  0  0  0
   47.6490   30.2600   46.3960 C   0  0  0  0  0  0  0  0  0  0  0  0
   48.0650   28.9980   46.0990 N   0  0  0  0  0  0  0  0  0  0  0  0
   48.6040   28.4660   47.2580 C   0  0  0  0  0  0  0  0  0  0  0  0
   48.5050   29.4010   48.2190 N   0  0  0  0  0  0  0  0  0  0  0  0
   47.9270   30.4960   47.7070 C   0  0  0  0  0  0  0  0  0  0  0  0
   47.5940   31.7250   48.2530 C   0  0  0  0  0  0  0  0  0  0  0  0
   46.7700   33.6290   48.0090 H   0  0  0  0  0  0  0  0  0  0  0  0
   46.8160   31.0710   44.5920 H   0  0  0  0  0  0  0  0  0  0  0  0
   47.9640   28.5730   45.1510 H   0  0  0  0  0  0  0  0  0  0  0  0
   49.0010   27.4610   47.2560 H   0  0  0  0  0  0  0  0  0  0  0  0
   47.8310   31.8750   49.2990 H   0  0  0  0  0  0  0  0  0  0  0  0
   45.8160   35.0410   42.0580 O   0  0  0  0  0  0  0  0  0  0  0  0
   44.8740   34.6080   41.1230 C   0  0  0  0  0  0  0  0  0  0  0  0
   45.6220   33.7570   40.3950 C   0  0  0  0  0  0  0  0  0  0  0  0
   44.3600   33.1370   39.1020 S   0  0  0  0  0  0  0  0  0  0  0  0
   43.0450   34.2400   39.8980 C   0  0  0  0  0  0  0  0  0  0  0  0
   43.6230   34.7020   40.7080 N   0  0  0  0  0  0  0  0  0  0  0  0
   46.5770   33.1160   40.0120 H   0  0  0  0  0  0  0  0  0  0  0  0
   39.9070   35.7150   40.3820 H   0  0  0  0  0  0  0  0  0  0  0  0
   40.9260   35.3540   40.3700 C   0  0  0  0  0  0  0  0  0  0  0  0
   41.0290   36.1280   41.3610 O   0  0  0  0  0  0  0  0  0  0  0  0
   41.6630   34.4600   39.5850 N   0  0  0  0  0  0  0  0  0  0  0  0
   41.0810   34.0580   38.8470 H   0  0  0  0  0  0  0  0  0  0  0  0
  1  2  2  0  0  0  0
  1  6  1  0  0  0  0
  2  3  1  0  0  0  0
  3  4  2  0  0  0  0
  3 10  1  0  0  0  0
  5  8  1  0  0  0  0
  5  4  1  0  0  0  0
  6  5  2  0  0  0  0
  7  2  1  0  0  0  0
  9 18  1  0  0  0  0
  9 17  1  0  0  0  0
 10  9  2  0  0  0  0
 11 10  1  0  0  0  0
 11 12  2  0  0  0  0
 12 16  1  0  0  0  0
 13 12  1  0  0  0  0
 13 14  1  0  0  0  0
 14 15  2  0  0  0  0
 16 15  1  0  0  0  0
 16 17  2  0  0  0  0
 17 22  1  0  0  0  0
 19 11  1  0  0  0  0
 20 13  1  0  0  0  0
 21 14  1  0  0  0  0
 23  1  1  0  0  0  0
 24 23  1  0  0  0  0
 25 24  2  0  0  0  0
 26 27  1  0  0  0  0
 26 25  1  0  0  0  0
 27 28  2  0  0  0  0
 28 24  1  0  0  0  0
 29 25  1  0  0  0  0
 31 30  1  0  0  0  0
 31 32  2  0  0  0  0
 33 27  1  0  0  0  0
 33 31  1  0  0  0  0
 34 33  1  0  0  0  0
M  END
>  <minimizedAffinity>
-5.9120903

>  <minimizedRMSD>
0.637041092

$$$$
