
 OpenBabel03242513063D

 37 40  0  0  0  0  0  0  0  0999 V2000
   45.9650   33.1980   41.6420 C   0  0  0  0  0  0  0  0  0  0  0  0
   47.1420   33.8980   41.3230 C   0  0  0  0  0  0  0  0  0  0  0  0
   48.1170   33.9660   42.2960 C   0  0  0  0  0  0  0  0  0  0  0  0
   47.8660   33.3520   43.4910 N   0  0  0  0  0  0  0  0  0  0  0  0
   46.7380   32.6900   43.7810 C   0  0  0  0  0  0  0  0  0  0  0  0
   45.7800   32.6110   42.8530 N   0  0  0  0  0  0  0  0  0  0  0  0
   45.1940   33.1410   40.8830 H   0  0  0  0  0  0  0  0  0  0  0  0
   46.8990   30.7600   45.2860 C   0  0  0  0  0  0  0  0  0  0  0  0
   46.5820   32.0780   45.0830 C   0  0  0  0  0  0  0  0  0  0  0  0
   46.0910   32.9120   46.1120 C   0  0  0  0  0  0  0  0  0  0  0  0
   45.9170   32.3880   47.3910 C   0  0  0  0  0  0  0  0  0  0  0  0
   45.4840   32.8670   48.5870 N   0  0  0  0  0  0  0  0  0  0  0  0
   45.5450   31.8410   49.4890 C   0  0  0  0  0  0  0  0  0  0  0  0
   46.0100   30.7590   48.8360 N   0  0  0  0  0  0  0  0  0  0  0  0
   46.2470   31.0650   47.5510 C   0  0  0  0  0  0  0  0  0  0  0  0
   46.7270   30.2290   46.5640 C   0  0  0  0  0  0  0  0  0  0  0  0
   47.2680   30.1840   44.4550 H   0  0  0  0  0  0  0  0  0  0  0  0
   45.8440   33.9400   45.9560 H   0  0  0  0  0  0  0  0  0  0  0  0
   45.1690   33.8550   48.7440 H   0  0  0  0  0  0  0  0  0  0  0  0
   45.2620   31.9210   50.5300 H   0  0  0  0  0  0  0  0  0  0  0  0
   46.9710   29.1970   46.7360 H   0  0  0  0  0  0  0  0  0  0  0  0
   49.3800   34.6880   42.0180 C   0  0  0  0  0  0  0  0  0  0  0  0
   49.1380   35.7990   41.1940 F   0  0  0  0  0  0  0  0  0  0  0  0
   49.9190   35.1840   43.1790 F   0  0  0  0  0  0  0  0  0  0  0  0
   50.2410   33.8210   41.3870 F   0  0  0  0  0  0  0  0  0  0  0  0
   47.2600   34.4600   40.0950 O   0  0  0  0  0  0  0  0  0  0  0  0
   47.3540   33.7160   38.9460 C   0  0  0  0  0  0  0  0  0  0  0  0
   48.3490   34.3640   38.2250 C   0  0  0  0  0  0  0  0  0  0  0  0
   48.4680   33.3590   36.6890 S   0  0  0  0  0  0  0  0  0  0  0  0
   47.1280   32.2160   37.3000 C   0  0  0  0  0  0  0  0  0  0  0  0
   46.9300   32.7010   38.2650 N   0  0  0  0  0  0  0  0  0  0  0  0
   49.1970   35.2620   38.0710 H   0  0  0  0  0  0  0  0  0  0  0  0
   45.7040   30.3750   34.8020 H   0  0  0  0  0  0  0  0  0  0  0  0
   45.9250   31.2960   35.3240 C   0  0  0  0  0  0  0  0  0  0  0  0
   45.5300   32.4510   34.9860 O   0  0  0  0  0  0  0  0  0  0  0  0
   46.7260   31.1140   36.4700 N   0  0  0  0  0  0  0  0  0  0  0  0
   47.0750   30.2160   36.7970 H   0  0  0  0  0  0  0  0  0  0  0  0
  1  6  1  0  0  0  0
  2  1  2  0  0  0  0
  2  3  1  0  0  0  0
  3  4  2  0  0  0  0
  4  5  1  0  0  0  0
  5  9  1  0  0  0  0
  6  5  2  0  0  0  0
  7  1  1  0  0  0  0
  8 16  1  0  0  0  0
  9  8  2  0  0  0  0
  9 10  1  0  0  0  0
 10 11  2  0  0  0  0
 11 15  1  0  0  0  0
 11 12  1  0  0  0  0
 12 19  1  0  0  0  0
 12 13  1  0  0  0  0
 13 20  1  0  0  0  0
 14 13  2  0  0  0  0
 15 14  1  0  0  0  0
 16 21  1  0  0  0  0
 16 15  2  0  0  0  0
 17  8  1  0  0  0  0
 18 10  1  0  0  0  0
 22  3  1  0  0  0  0
 22 24  1  0  0  0  0
 23 22  1  0  0  0  0
 25 22  1  0  0  0  0
 26  2  1  0  0  0  0
 27 26  1  0  0  0  0
 28 27  2  0  0  0  0
 29 30  1  0  0  0  0
 29 28  1  0  0  0  0
 30 31  2  0  0  0  0
 31 27  1  0  0  0  0
 32 28  1  0  0  0  0
 33 34  1  0  0  0  0
 34 36  1  0  0  0  0
 35 34  2  0  0  0  0
 36 37  1  0  0  0  0
 36 30  1  0  0  0  0
M  END
>  <minimizedAffinity>
-6.41611052

>  <minimizedRMSD>
0.0731674284

$$$$
