
 OpenBabel03242519083D

 39 41  0  0  1  0  0  0  0  0999 V2000
   37.6000   31.8060   39.9980 N   0  0  0  0  0  0  0  0  0  0  0  0
   37.1380   30.8190   40.9660 C   0  0  0  0  0  0  0  0  0  0  0  0
   37.2470   29.5940   40.1100 C   0  0  2  0  0  0  0  0  0  0  0  0
   36.5530   30.0440   38.8360 C   0  0  0  0  0  0  0  0  0  0  0  0
   36.9440   31.4970   38.7570 C   0  0  0  0  0  0  0  0  0  0  0  0
   36.0890   31.0210   41.2460 H   0  0  0  0  0  0  0  0  0  0  0  0
   37.8410   30.8300   41.8120 H   0  0  0  0  0  0  0  0  0  0  0  0
   38.3210   29.3710   39.9580 H   0  0  0  0  0  0  0  0  0  0  0  0
   35.4710   29.9950   39.0090 H   0  0  0  0  0  0  0  0  0  0  0  0
   36.9060   29.4880   37.9460 H   0  0  0  0  0  0  0  0  0  0  0  0
   36.0700   32.1470   38.5530 H   0  0  0  0  0  0  0  0  0  0  0  0
   37.6810   31.6290   37.9400 H   0  0  0  0  0  0  0  0  0  0  0  0
   39.1240   35.2000   40.2530 C   0  0  0  0  0  0  0  0  0  0  0  0
   38.1440   34.2260   40.0920 C   0  0  0  0  0  0  0  0  0  0  0  0
   38.4990   32.8750   40.1470 C   0  0  0  0  0  0  0  0  0  0  0  0
   39.8120   32.6000   40.3610 N   0  0  0  0  0  0  0  0  0  0  0  0
   40.7630   33.5310   40.5180 C   0  0  0  0  0  0  0  0  0  0  0  0
   40.4050   34.8400   40.4620 N   0  0  0  0  0  0  0  0  0  0  0  0
   38.8370   36.2440   40.2090 H   0  0  0  0  0  0  0  0  0  0  0  0
   37.1030   34.4470   39.9230 H   0  0  0  0  0  0  0  0  0  0  0  0
   41.7850   33.2760   40.6840 H   0  0  0  0  0  0  0  0  0  0  0  0
   36.5220   28.4740   40.6230 N   0  0  0  0  0  0  0  0  0  0  0  0
   35.6300   28.7220   41.1410 H   0  0  0  0  0  0  0  0  0  0  0  0
   37.3070   26.3320   41.6290 C   0  0  0  0  0  0  0  0  0  0  0  0
   36.7560   27.0850   40.5770 C   0  0  0  0  0  0  0  0  0  0  0  0
   36.4550   26.3330   39.4700 C   0  0  0  0  0  0  0  0  0  0  0  0
   36.6450   24.9860   39.3290 C   0  0  0  0  0  0  0  0  0  0  0  0
   37.1890   24.2910   40.3900 C   0  0  0  0  0  0  0  0  0  0  0  0
   37.5130   24.9850   41.5330 C   0  0  0  0  0  0  0  0  0  0  0  0
   36.0240   26.8140   38.5950 H   0  0  0  0  0  0  0  0  0  0  0  0
   36.3890   24.4360   38.4290 H   0  0  0  0  0  0  0  0  0  0  0  0
   37.3570   23.2210   40.3260 H   0  0  0  0  0  0  0  0  0  0  0  0
   40.1630   23.6950   43.4250 H   0  0  0  0  0  0  0  0  0  0  0  0
   39.4900   24.1740   42.7310 C   0  0  0  0  0  0  0  0  0  0  0  0
   40.2420   24.7760   41.8940 O   0  0  0  0  0  0  0  0  0  0  0  0
   38.0740   24.2350   42.6090 N   0  0  0  0  0  0  0  0  0  0  0  0
   37.6210   23.6880   43.3740 H   0  0  0  0  0  0  0  0  0  0  0  0
   37.9190   27.6310   43.8080 N   0  0  0  0  0  0  0  0  0  0  0  0
   37.6510   27.0620   42.8390 C   0  0  0  0  0  0  0  0  0  0  0  0
  1 15  1  0  0  0  0
  1  2  1  0  0  0  0
  2  6  1  0  0  0  0
  2  7  1  0  0  0  0
  3  8  1  6  0  0  0
  3 22  1  0  0  0  0
  3  2  1  0  0  0  0
  4  9  1  0  0  0  0
  4  3  1  0  0  0  0
  5  4  1  0  0  0  0
  5  1  1  0  0  0  0
 10  4  1  0  0  0  0
 11  5  1  0  0  0  0
 12  5  1  0  0  0  0
 13 18  1  0  0  0  0
 14 15  1  0  0  0  0
 14 13  2  0  0  0  0
 15 16  2  0  0  0  0
 16 17  1  0  0  0  0
 17 21  1  0  0  0  0
 18 17  2  0  0  0  0
 19 13  1  0  0  0  0
 20 14  1  0  0  0  0
 22 23  1  0  0  0  0
 24 39  1  0  0  0  0
 25 22  1  0  0  0  0
 25 24  2  0  0  0  0
 26 25  1  0  0  0  0
 27 26  2  0  0  0  0
 27 28  1  0  0  0  0
 28 29  2  0  0  0  0
 29 24  1  0  0  0  0
 29 36  1  0  0  0  0
 30 26  1  0  0  0  0
 31 27  1  0  0  0  0
 32 28  1  0  0  0  0
 34 33  1  0  0  0  0
 35 34  2  0  0  0  0
 36 34  1  0  0  0  0
 36 37  1  0  0  0  0
 39 38  3  0  0  0  0
M  END
>  <minimizedAffinity>
-5.45221376

$$$$

 OpenBabel03242519083D

 39 41  0  0  1  0  0  0  0  0999 V2000
   38.1780   31.0360   41.0280 N   0  0  0  0  0  0  0  0  0  0  0  0
   39.5090   31.6130   40.8850 C   0  0  0  0  0  0  0  0  0  0  0  0
   39.1550   33.0540   41.0980 C   0  0  2  0  0  0  0  0  0  0  0  0
   37.9640   33.2200   40.1710 C   0  0  0  0  0  0  0  0  0  0  0  0
   37.2870   31.8790   40.2780 C   0  0  0  0  0  0  0  0  0  0  0  0
   39.8930   31.4410   39.8640 H   0  0  0  0  0  0  0  0  0  0  0  0
   40.1400   31.1920   41.6820 H   0  0  0  0  0  0  0  0  0  0  0  0
   38.8920   33.1930   42.1650 H   0  0  0  0  0  0  0  0  0  0  0  0
   38.3490   33.3230   39.1480 H   0  0  0  0  0  0  0  0  0  0  0  0
   37.2880   34.0350   40.4950 H   0  0  0  0  0  0  0  0  0  0  0  0
   37.0330   31.4660   39.2820 H   0  0  0  0  0  0  0  0  0  0  0  0
   36.3520   31.9920   40.8630 H   0  0  0  0  0  0  0  0  0  0  0  0
   37.7760   28.3260   43.5580 C   0  0  0  0  0  0  0  0  0  0  0  0
   38.2790   29.4730   42.9530 C   0  0  0  0  0  0  0  0  0  0  0  0
   37.7510   29.8970   41.7310 C   0  0  0  0  0  0  0  0  0  0  0  0
   36.7540   29.1390   41.2030 N   0  0  0  0  0  0  0  0  0  0  0  0
   36.2630   28.0320   41.7780 C   0  0  0  0  0  0  0  0  0  0  0  0
   36.7850   27.6310   42.9660 N   0  0  0  0  0  0  0  0  0  0  0  0
   38.1940   28.0080   44.5060 H   0  0  0  0  0  0  0  0  0  0  0  0
   39.0700   30.0740   43.3740 H   0  0  0  0  0  0  0  0  0  0  0  0
   35.4790   27.4620   41.3330 H   0  0  0  0  0  0  0  0  0  0  0  0
   40.1700   33.9600   40.6630 N   0  0  0  0  0  0  0  0  0  0  0  0
   40.1660   34.9000   41.1530 H   0  0  0  0  0  0  0  0  0  0  0  0
   42.5310   34.2360   39.9090 C   0  0  0  0  0  0  0  0  0  0  0  0
   41.1940   33.8540   39.6990 C   0  0  0  0  0  0  0  0  0  0  0  0
   40.9610   33.3540   38.4440 C   0  0  0  0  0  0  0  0  0  0  0  0
   41.8840   33.2120   37.4440 C   0  0  0  0  0  0  0  0  0  0  0  0
   43.1840   33.6010   37.6970 C   0  0  0  0  0  0  0  0  0  0  0  0
   43.4850   34.1120   38.9390 C   0  0  0  0  0  0  0  0  0  0  0  0
   39.9600   33.0280   38.1730 H   0  0  0  0  0  0  0  0  0  0  0  0
   41.6480   32.8090   36.4640 H   0  0  0  0  0  0  0  0  0  0  0  0
   43.9500   33.5070   36.9360 H   0  0  0  0  0  0  0  0  0  0  0  0
   46.8160   33.5390   39.8610 H   0  0  0  0  0  0  0  0  0  0  0  0
   45.7650   33.5230   39.6160 C   0  0  0  0  0  0  0  0  0  0  0  0
   45.3930   32.3170   39.8130 O   0  0  0  0  0  0  0  0  0  0  0  0
   44.8390   34.5040   39.1660 N   0  0  0  0  0  0  0  0  0  0  0  0
   45.3130   35.4280   39.0600 H   0  0  0  0  0  0  0  0  0  0  0  0
   43.1240   35.1960   42.2610 N   0  0  0  0  0  0  0  0  0  0  0  0
   42.8550   34.7760   41.2190 C   0  0  0  0  0  0  0  0  0  0  0  0
  1 15  1  0  0  0  0
  2  1  1  0  0  0  0
  2  3  1  0  0  0  0
  2  7  1  0  0  0  0
  3  8  1  1  0  0  0
  4  5  1  0  0  0  0
  4 10  1  0  0  0  0
  4  3  1  0  0  0  0
  5 12  1  0  0  0  0
  5  1  1  0  0  0  0
  6  2  1  0  0  0  0
  9  4  1  0  0  0  0
 11  5  1  0  0  0  0
 13 19  1  0  0  0  0
 14 20  1  0  0  0  0
 14 13  2  0  0  0  0
 15 14  1  0  0  0  0
 16 15  2  0  0  0  0
 16 17  1  0  0  0  0
 17 18  2  0  0  0  0
 18 13  1  0  0  0  0
 21 17  1  0  0  0  0
 22  3  1  0  0  0  0
 22 23  1  0  0  0  0
 24 39  1  0  0  0  0
 25 24  1  0  0  0  0
 25 22  1  0  0  0  0
 26 25  2  0  0  0  0
 27 28  2  0  0  0  0
 27 26  1  0  0  0  0
 28 29  1  0  0  0  0
 29 36  1  0  0  0  0
 29 24  2  0  0  0  0
 30 26  1  0  0  0  0
 31 27  1  0  0  0  0
 32 28  1  0  0  0  0
 34 35  2  0  0  0  0
 34 33  1  0  0  0  0
 36 34  1  0  0  0  0
 37 36  1  0  0  0  0
 39 38  3  0  0  0  0
M  END
>  <minimizedAffinity>
-5.41127348

$$$$

 OpenBabel03242519083D

 39 41  0  0  1  0  0  0  0  0999 V2000
   39.8150   27.7690   43.2820 N   0  0  0  0  0  0  0  0  0  0  0  0
   39.1440   28.6710   42.3550 C   0  0  0  0  0  0  0  0  0  0  0  0
   38.0350   29.1330   43.2510 C   0  0  2  0  0  0  0  0  0  0  0  0
   37.5190   27.8180   43.8070 C   0  0  0  0  0  0  0  0  0  0  0  0
   38.7810   27.0040   43.9250 C   0  0  0  0  0  0  0  0  0  0  0  0
   38.7520   28.1090   41.4890 H   0  0  0  0  0  0  0  0  0  0  0  0
   39.8570   29.4660   42.0910 H   0  0  0  0  0  0  0  0  0  0  0  0
   38.4700   29.7890   44.0310 H   0  0  0  0  0  0  0  0  0  0  0  0
   36.8890   27.3540   43.0390 H   0  0  0  0  0  0  0  0  0  0  0  0
   37.0300   27.9410   44.7940 H   0  0  0  0  0  0  0  0  0  0  0  0
   38.6580   25.9910   43.4960 H   0  0  0  0  0  0  0  0  0  0  0  0
   39.0480   26.9050   44.9960 H   0  0  0  0  0  0  0  0  0  0  0  0
   43.0890   26.5020   44.5390 C   0  0  0  0  0  0  0  0  0  0  0  0
   41.7160   26.5630   44.3260 C   0  0  0  0  0  0  0  0  0  0  0  0
   41.1810   27.6040   43.5620 C   0  0  0  0  0  0  0  0  0  0  0  0
   42.0640   28.5100   43.0670 N   0  0  0  0  0  0  0  0  0  0  0  0
   43.3890   28.4600   43.2650 C   0  0  0  0  0  0  0  0  0  0  0  0
   43.8960   27.4430   44.0100 N   0  0  0  0  0  0  0  0  0  0  0  0
   43.4920   25.6900   45.1320 H   0  0  0  0  0  0  0  0  0  0  0  0
   41.0170   25.8420   44.7200 H   0  0  0  0  0  0  0  0  0  0  0  0
   44.0510   29.1900   42.8600 H   0  0  0  0  0  0  0  0  0  0  0  0
   36.9580   29.7580   42.5500 N   0  0  0  0  0  0  0  0  0  0  0  0
   36.2880   30.3060   43.1620 H   0  0  0  0  0  0  0  0  0  0  0  0
   37.0700   30.7440   40.2620 C   0  0  0  0  0  0  0  0  0  0  0  0
   36.6010   29.7930   41.1860 C   0  0  0  0  0  0  0  0  0  0  0  0
   35.7440   28.8750   40.6350 C   0  0  0  0  0  0  0  0  0  0  0  0
   35.3390   28.8270   39.3290 C   0  0  0  0  0  0  0  0  0  0  0  0
   35.8260   29.7820   38.4610 C   0  0  0  0  0  0  0  0  0  0  0  0
   36.6920   30.7320   38.9490 C   0  0  0  0  0  0  0  0  0  0  0  0
   35.3200   28.0930   41.2610 H   0  0  0  0  0  0  0  0  0  0  0  0
   34.6560   28.0770   38.9430 H   0  0  0  0  0  0  0  0  0  0  0  0
   35.5340   29.7830   37.4160 H   0  0  0  0  0  0  0  0  0  0  0  0
   38.9990   32.0050   36.6410 H   0  0  0  0  0  0  0  0  0  0  0  0
   38.4130   31.4600   37.3650 C   0  0  0  0  0  0  0  0  0  0  0  0
   39.0770   30.3950   37.6000 O   0  0  0  0  0  0  0  0  0  0  0  0
   37.1760   31.7040   38.0230 N   0  0  0  0  0  0  0  0  0  0  0  0
   36.7760   32.6170   37.7130 H   0  0  0  0  0  0  0  0  0  0  0  0
   38.7110   32.5460   41.1930 N   0  0  0  0  0  0  0  0  0  0  0  0
   37.9850   31.7510   40.7740 C   0  0  0  0  0  0  0  0  0  0  0  0
  1 15  1  0  0  0  0
  1  5  1  0  0  0  0
  2  3  1  0  0  0  0
  2  1  1  0  0  0  0
  3  4  1  0  0  0  0
  3  8  1  1  0  0  0
  4  5  1  0  0  0  0
  4 10  1  0  0  0  0
  5 12  1  0  0  0  0
  6  2  1  0  0  0  0
  7  2  1  0  0  0  0
  9  4  1  0  0  0  0
 11  5  1  0  0  0  0
 13 19  1  0  0  0  0
 14 13  1  0  0  0  0
 14 20  1  0  0  0  0
 15 14  2  0  0  0  0
 16 17  2  0  0  0  0
 16 15  1  0  0  0  0
 17 18  1  0  0  0  0
 18 13  2  0  0  0  0
 21 17  1  0  0  0  0
 22 23  1  0  0  0  0
 22  3  1  0  0  0  0
 24 39  1  0  0  0  0
 24 25  1  0  0  0  0
 25 22  1  0  0  0  0
 26 25  2  0  0  0  0
 26 30  1  0  0  0  0
 27 26  1  0  0  0  0
 28 29  1  0  0  0  0
 28 27  2  0  0  0  0
 29 24  2  0  0  0  0
 31 27  1  0  0  0  0
 32 28  1  0  0  0  0
 33 34  1  0  0  0  0
 34 35  2  0  0  0  0
 34 36  1  0  0  0  0
 36 29  1  0  0  0  0
 37 36  1  0  0  0  0
 39 38  3  0  0  0  0
M  END
>  <minimizedAffinity>
-5.40029001

$$$$

 OpenBabel03242519083D

 39 41  0  0  1  0  0  0  0  0999 V2000
   36.5280   30.0620   38.9420 N   0  0  0  0  0  0  0  0  0  0  0  0
   37.1290   29.3790   40.0810 C   0  0  0  0  0  0  0  0  0  0  0  0
   36.7940   30.3790   41.1460 C   0  0  2  0  0  0  0  0  0  0  0  0
   37.2390   31.6790   40.5000 C   0  0  0  0  0  0  0  0  0  0  0  0
   36.9070   31.4440   39.0490 C   0  0  0  0  0  0  0  0  0  0  0  0
   38.2210   29.2910   39.9410 H   0  0  0  0  0  0  0  0  0  0  0  0
   36.6100   28.4160   40.2020 H   0  0  0  0  0  0  0  0  0  0  0  0
   35.7020   30.3400   41.3280 H   0  0  0  0  0  0  0  0  0  0  0  0
   38.3300   31.7420   40.5910 H   0  0  0  0  0  0  0  0  0  0  0  0
   36.6900   32.5560   40.8980 H   0  0  0  0  0  0  0  0  0  0  0  0
   37.7520   31.7160   38.3860 H   0  0  0  0  0  0  0  0  0  0  0  0
   36.0280   32.0610   38.7760 H   0  0  0  0  0  0  0  0  0  0  0  0
   33.7660   28.5170   36.9690 C   0  0  0  0  0  0  0  0  0  0  0  0
   34.4700   28.9770   38.0770 C   0  0  0  0  0  0  0  0  0  0  0  0
   35.7270   29.5630   37.9010 C   0  0  0  0  0  0  0  0  0  0  0  0
   36.1870   29.6440   36.6250 N   0  0  0  0  0  0  0  0  0  0  0  0
   35.5160   29.2040   35.5510 C   0  0  0  0  0  0  0  0  0  0  0  0
   34.2960   28.6370   35.7360 N   0  0  0  0  0  0  0  0  0  0  0  0
   32.7930   28.0650   37.1170 H   0  0  0  0  0  0  0  0  0  0  0  0
   34.1030   28.9120   39.0880 H   0  0  0  0  0  0  0  0  0  0  0  0
   35.9100   29.2850   34.5640 H   0  0  0  0  0  0  0  0  0  0  0  0
   37.5550   30.2100   42.3440 N   0  0  0  0  0  0  0  0  0  0  0  0
   37.1990   30.7620   43.1770 H   0  0  0  0  0  0  0  0  0  0  0  0
   38.6760   28.1760   43.2510 C   0  0  0  0  0  0  0  0  0  0  0  0
   38.7000   29.4460   42.6470 C   0  0  0  0  0  0  0  0  0  0  0  0
   39.9670   29.8920   42.3690 C   0  0  0  0  0  0  0  0  0  0  0  0
   41.1350   29.2270   42.6240 C   0  0  0  0  0  0  0  0  0  0  0  0
   41.0600   27.9840   43.2170 C   0  0  0  0  0  0  0  0  0  0  0  0
   39.8180   27.4760   43.5230 C   0  0  0  0  0  0  0  0  0  0  0  0
   40.1030   30.8650   41.9010 H   0  0  0  0  0  0  0  0  0  0  0  0
   42.1150   29.6260   42.3830 H   0  0  0  0  0  0  0  0  0  0  0  0
   41.9590   27.4190   43.4380 H   0  0  0  0  0  0  0  0  0  0  0  0
   39.8160   23.9740   43.4890 H   0  0  0  0  0  0  0  0  0  0  0  0
   39.8300   25.0370   43.3020 C   0  0  0  0  0  0  0  0  0  0  0  0
   39.9090   25.1530   42.0330 O   0  0  0  0  0  0  0  0  0  0  0  0
   39.7780   26.1880   44.1360 N   0  0  0  0  0  0  0  0  0  0  0  0
   39.7140   25.9060   45.1390 H   0  0  0  0  0  0  0  0  0  0  0  0
   36.3200   27.2110   43.8210 N   0  0  0  0  0  0  0  0  0  0  0  0
   37.3660   27.6350   43.5750 C   0  0  0  0  0  0  0  0  0  0  0  0
  1  5  1  0  0  0  0
  1  2  1  0  0  0  0
  2  7  1  0  0  0  0
  2  3  1  0  0  0  0
  3  8  1  1  0  0  0
  3 22  1  0  0  0  0
  4  9  1  0  0  0  0
  4 10  1  0  0  0  0
  4  3  1  0  0  0  0
  5  4  1  0  0  0  0
  6  2  1  0  0  0  0
 11  5  1  0  0  0  0
 12  5  1  0  0  0  0
 13 19  1  0  0  0  0
 13 14  1  0  0  0  0
 14 20  1  0  0  0  0
 15 14  2  0  0  0  0
 15  1  1  0  0  0  0
 16 15  1  0  0  0  0
 17 18  1  0  0  0  0
 17 16  2  0  0  0  0
 18 13  2  0  0  0  0
 21 17  1  0  0  0  0
 22 25  1  0  0  0  0
 22 23  1  0  0  0  0
 24 29  1  0  0  0  0
 24 39  1  0  0  0  0
 25 24  2  0  0  0  0
 26 27  2  0  0  0  0
 26 25  1  0  0  0  0
 27 28  1  0  0  0  0
 28 32  1  0  0  0  0
 28 29  2  0  0  0  0
 29 36  1  0  0  0  0
 30 26  1  0  0  0  0
 31 27  1  0  0  0  0
 34 33  1  0  0  0  0
 34 36  1  0  0  0  0
 35 34  2  0  0  0  0
 36 37  1  0  0  0  0
 39 38  3  0  0  0  0
M  END
>  <minimizedAffinity>
-5.33371401

$$$$

 OpenBabel03242519083D

 39 41  0  0  1  0  0  0  0  0999 V2000
   37.6900   26.8380   41.9360 N   0  0  0  0  0  0  0  0  0  0  0  0
   38.1940   28.1530   41.5570 C   0  0  0  0  0  0  0  0  0  0  0  0
   38.5580   28.6570   42.9210 C   0  0  2  0  0  0  0  0  0  0  0  0
   37.3050   28.3340   43.7150 C   0  0  0  0  0  0  0  0  0  0  0  0
   36.8560   27.0390   43.0890 C   0  0  0  0  0  0  0  0  0  0  0  0
   37.3850   28.7570   41.1080 H   0  0  0  0  0  0  0  0  0  0  0  0
   39.0610   27.9990   40.8980 H   0  0  0  0  0  0  0  0  0  0  0  0
   39.4470   28.0960   43.2720 H   0  0  0  0  0  0  0  0  0  0  0  0
   36.5550   29.0990   43.4820 H   0  0  0  0  0  0  0  0  0  0  0  0
   37.5140   28.2030   44.7950 H   0  0  0  0  0  0  0  0  0  0  0  0
   35.7750   27.0530   42.8470 H   0  0  0  0  0  0  0  0  0  0  0  0
   37.0500   26.2090   43.7980 H   0  0  0  0  0  0  0  0  0  0  0  0
   37.3620   23.2930   40.8260 C   0  0  0  0  0  0  0  0  0  0  0  0
   37.0310   24.4980   41.4370 C   0  0  0  0  0  0  0  0  0  0  0  0
   37.9150   25.5770   41.3590 C   0  0  0  0  0  0  0  0  0  0  0  0
   39.0690   25.3690   40.6730 N   0  0  0  0  0  0  0  0  0  0  0  0
   39.3970   24.2120   40.0800 C   0  0  0  0  0  0  0  0  0  0  0  0
   38.5290   23.1710   40.1640 N   0  0  0  0  0  0  0  0  0  0  0  0
   36.6670   22.4640   40.8930 H   0  0  0  0  0  0  0  0  0  0  0  0
   36.1140   24.6610   41.9810 H   0  0  0  0  0  0  0  0  0  0  0  0
   40.3130   24.0860   39.5500 H   0  0  0  0  0  0  0  0  0  0  0  0
   38.7490   30.0720   42.9720 N   0  0  0  0  0  0  0  0  0  0  0  0
   38.1290   30.5790   43.6680 H   0  0  0  0  0  0  0  0  0  0  0  0
   39.2100   31.7950   41.2300 C   0  0  0  0  0  0  0  0  0  0  0  0
   39.6100   30.9450   42.2760 C   0  0  0  0  0  0  0  0  0  0  0  0
   40.9460   31.0370   42.5720 C   0  0  0  0  0  0  0  0  0  0  0  0
   41.8580   31.8490   41.9550 C   0  0  0  0  0  0  0  0  0  0  0  0
   41.4170   32.6670   40.9340 C   0  0  0  0  0  0  0  0  0  0  0  0
   40.0860   32.6230   40.5870 C   0  0  0  0  0  0  0  0  0  0  0  0
   41.3640   30.4220   43.3650 H   0  0  0  0  0  0  0  0  0  0  0  0
   42.9080   31.8850   42.2280 H   0  0  0  0  0  0  0  0  0  0  0  0
   42.1030   33.3280   40.4170 H   0  0  0  0  0  0  0  0  0  0  0  0
   38.8790   35.6340   39.2660 H   0  0  0  0  0  0  0  0  0  0  0  0
   39.2390   34.7990   39.8480 C   0  0  0  0  0  0  0  0  0  0  0  0
   39.2310   35.2050   41.0590 O   0  0  0  0  0  0  0  0  0  0  0  0
   39.6660   33.4810   39.5270 N   0  0  0  0  0  0  0  0  0  0  0  0
   39.6060   33.3220   38.4980 H   0  0  0  0  0  0  0  0  0  0  0  0
   36.6880   31.7070   40.5650 N   0  0  0  0  0  0  0  0  0  0  0  0
   37.8040   31.7540   40.8600 C   0  0  0  0  0  0  0  0  0  0  0  0
  1  5  1  0  0  0  0
  2  1  1  0  0  0  0
  2  3  1  0  0  0  0
  3 22  1  0  0  0  0
  3  8  1  1  0  0  0
  3  4  1  0  0  0  0
  4 10  1  0  0  0  0
  5  4  1  0  0  0  0
  5 12  1  0  0  0  0
  6  2  1  0  0  0  0
  7  2  1  0  0  0  0
  9  4  1  0  0  0  0
 11  5  1  0  0  0  0
 13 19  1  0  0  0  0
 13 14  1  0  0  0  0
 14 20  1  0  0  0  0
 15 14  2  0  0  0  0
 15  1  1  0  0  0  0
 16 15  1  0  0  0  0
 17 18  1  0  0  0  0
 17 16  2  0  0  0  0
 18 13  2  0  0  0  0
 21 17  1  0  0  0  0
 22 23  1  0  0  0  0
 24 25  1  0  0  0  0
 25 26  2  0  0  0  0
 25 22  1  0  0  0  0
 26 30  1  0  0  0  0
 27 31  1  0  0  0  0
 27 26  1  0  0  0  0
 28 27  2  0  0  0  0
 29 28  1  0  0  0  0
 29 24  2  0  0  0  0
 32 28  1  0  0  0  0
 33 34  1  0  0  0  0
 34 35  2  0  0  0  0
 36 34  1  0  0  0  0
 36 29  1  0  0  0  0
 37 36  1  0  0  0  0
 38 39  3  0  0  0  0
 39 24  1  0  0  0  0
M  END
>  <minimizedAffinity>
-5.31319571

$$$$

 OpenBabel03242519083D

 39 41  0  0  1  0  0  0  0  0999 V2000
   38.1250   29.5300   39.9510 N   0  0  0  0  0  0  0  0  0  0  0  0
   39.1250   30.5670   39.7290 C   0  0  0  0  0  0  0  0  0  0  0  0
   38.3030   31.4980   38.8890 C   0  0  2  0  0  0  0  0  0  0  0  0
   37.7060   30.5470   37.8680 C   0  0  0  0  0  0  0  0  0  0  0  0
   37.4910   29.2980   38.6820 C   0  0  0  0  0  0  0  0  0  0  0  0
   39.9780   30.1600   39.1580 H   0  0  0  0  0  0  0  0  0  0  0  0
   39.3960   30.9830   40.7110 H   0  0  0  0  0  0  0  0  0  0  0  0
   37.5380   31.9680   39.5390 H   0  0  0  0  0  0  0  0  0  0  0  0
   38.4780   30.3330   37.1190 H   0  0  0  0  0  0  0  0  0  0  0  0
   36.7500   30.9210   37.4530 H   0  0  0  0  0  0  0  0  0  0  0  0
   37.8750   28.3980   38.1630 H   0  0  0  0  0  0  0  0  0  0  0  0
   36.4060   29.1670   38.8630 H   0  0  0  0  0  0  0  0  0  0  0  0
   36.9130   26.9730   42.3800 C   0  0  0  0  0  0  0  0  0  0  0  0
   37.2200   27.5580   41.1560 C   0  0  0  0  0  0  0  0  0  0  0  0
   37.7760   28.8400   41.1240 C   0  0  0  0  0  0  0  0  0  0  0  0
   37.9830   29.4430   42.3240 N   0  0  0  0  0  0  0  0  0  0  0  0
   37.6920   28.8880   43.5080 C   0  0  0  0  0  0  0  0  0  0  0  0
   37.1520   27.6410   43.5250 N   0  0  0  0  0  0  0  0  0  0  0  0
   36.4820   25.9790   42.3920 H   0  0  0  0  0  0  0  0  0  0  0  0
   37.0540   27.0780   40.2050 H   0  0  0  0  0  0  0  0  0  0  0  0
   37.8690   29.3920   44.4300 H   0  0  0  0  0  0  0  0  0  0  0  0
   39.0830   32.4620   38.1780 N   0  0  0  0  0  0  0  0  0  0  0  0
   38.5820   32.9260   37.3660 H   0  0  0  0  0  0  0  0  0  0  0  0
   40.8000   33.8910   39.2850 C   0  0  0  0  0  0  0  0  0  0  0  0
   40.4040   32.9280   38.3400 C   0  0  0  0  0  0  0  0  0  0  0  0
   41.4370   32.4650   37.5670 C   0  0  0  0  0  0  0  0  0  0  0  0
   42.7470   32.8540   37.6480 C   0  0  0  0  0  0  0  0  0  0  0  0
   43.0870   33.8020   38.5910 C   0  0  0  0  0  0  0  0  0  0  0  0
   42.0960   34.3080   39.4010 C   0  0  0  0  0  0  0  0  0  0  0  0
   41.2430   31.7170   36.8020 H   0  0  0  0  0  0  0  0  0  0  0  0
   43.5290   32.4550   37.0100 H   0  0  0  0  0  0  0  0  0  0  0  0
   44.1120   34.1410   38.6930 H   0  0  0  0  0  0  0  0  0  0  0  0
   43.3020   35.3460   42.5210 H   0  0  0  0  0  0  0  0  0  0  0  0
   42.9540   34.8430   41.6320 C   0  0  0  0  0  0  0  0  0  0  0  0
   43.0250   33.5970   41.9010 O   0  0  0  0  0  0  0  0  0  0  0  0
   42.4840   35.2860   40.3640 N   0  0  0  0  0  0  0  0  0  0  0  0
   42.4920   36.3290   40.3200 H   0  0  0  0  0  0  0  0  0  0  0  0
   38.9360   34.8660   40.8270 N   0  0  0  0  0  0  0  0  0  0  0  0
   39.7570   34.4280   40.1430 C   0  0  0  0  0  0  0  0  0  0  0  0
  1 15  1  0  0  0  0
  2  1  1  0  0  0  0
  2  7  1  0  0  0  0
  3  8  1  1  0  0  0
  3  2  1  0  0  0  0
  4  5  1  0  0  0  0
  4  3  1  0  0  0  0
  5 12  1  0  0  0  0
  5  1  1  0  0  0  0
  6  2  1  0  0  0  0
  9  4  1  0  0  0  0
 10  4  1  0  0  0  0
 11  5  1  0  0  0  0
 13 19  1  0  0  0  0
 13 18  1  0  0  0  0
 14 13  2  0  0  0  0
 15 14  1  0  0  0  0
 15 16  2  0  0  0  0
 16 17  1  0  0  0  0
 17 18  2  0  0  0  0
 17 21  1  0  0  0  0
 20 14  1  0  0  0  0
 22 25  1  0  0  0  0
 22  3  1  0  0  0  0
 23 22  1  0  0  0  0
 24 29  1  0  0  0  0
 24 39  1  0  0  0  0
 25 24  2  0  0  0  0
 26 27  2  0  0  0  0
 26 25  1  0  0  0  0
 27 28  1  0  0  0  0
 28 32  1  0  0  0  0
 28 29  2  0  0  0  0
 29 36  1  0  0  0  0
 30 26  1  0  0  0  0
 31 27  1  0  0  0  0
 34 35  2  0  0  0  0
 34 33  1  0  0  0  0
 36 34  1  0  0  0  0
 37 36  1  0  0  0  0
 39 38  3  0  0  0  0
M  END
>  <minimizedAffinity>
-5.29669857

$$$$

 OpenBabel03242519083D

 39 41  0  0  1  0  0  0  0  0999 V2000
   37.7530   26.8610   41.7590 N   0  0  0  0  0  0  0  0  0  0  0  0
   38.1540   28.1500   41.2070 C   0  0  0  0  0  0  0  0  0  0  0  0
   38.6750   28.7820   42.4620 C   0  0  2  0  0  0  0  0  0  0  0  0
   37.5490   28.4980   43.4410 C   0  0  0  0  0  0  0  0  0  0  0  0
   37.0710   27.1420   42.9920 C   0  0  0  0  0  0  0  0  0  0  0  0
   37.2720   28.6910   40.8210 H   0  0  0  0  0  0  0  0  0  0  0  0
   38.9320   27.9600   40.4530 H   0  0  0  0  0  0  0  0  0  0  0  0
   39.6220   28.2780   42.7380 H   0  0  0  0  0  0  0  0  0  0  0  0
   36.7470   29.2200   43.2470 H   0  0  0  0  0  0  0  0  0  0  0  0
   37.9020   28.4690   44.4910 H   0  0  0  0  0  0  0  0  0  0  0  0
   35.9680   27.1060   42.8970 H   0  0  0  0  0  0  0  0  0  0  0  0
   37.3870   26.3830   43.7360 H   0  0  0  0  0  0  0  0  0  0  0  0
   37.3450   23.2580   40.8900 C   0  0  0  0  0  0  0  0  0  0  0  0
   37.0430   24.5070   41.4220 C   0  0  0  0  0  0  0  0  0  0  0  0
   37.9480   25.5610   41.2660 C   0  0  0  0  0  0  0  0  0  0  0  0
   39.0920   25.2830   40.5860 N   0  0  0  0  0  0  0  0  0  0  0  0
   39.3910   24.0840   40.0690 C   0  0  0  0  0  0  0  0  0  0  0  0
   38.5030   23.0680   40.2280 N   0  0  0  0  0  0  0  0  0  0  0  0
   36.6350   22.4490   41.0180 H   0  0  0  0  0  0  0  0  0  0  0  0
   36.1350   24.7250   41.9620 H   0  0  0  0  0  0  0  0  0  0  0  0
   40.2990   23.9040   39.5410 H   0  0  0  0  0  0  0  0  0  0  0  0
   38.8170   30.2010   42.3680 N   0  0  0  0  0  0  0  0  0  0  0  0
   39.2190   30.6650   43.2330 H   0  0  0  0  0  0  0  0  0  0  0  0
   39.4780   31.9560   40.7250 C   0  0  0  0  0  0  0  0  0  0  0  0
   38.5280   31.1230   41.3410 C   0  0  0  0  0  0  0  0  0  0  0  0
   37.2590   31.2840   40.8460 C   0  0  0  0  0  0  0  0  0  0  0  0
   36.8800   32.1490   39.8560 C   0  0  0  0  0  0  0  0  0  0  0  0
   37.8490   32.9460   39.2820 C   0  0  0  0  0  0  0  0  0  0  0  0
   39.1440   32.8330   39.7330 C   0  0  0  0  0  0  0  0  0  0  0  0
   36.4440   30.6890   41.2520 H   0  0  0  0  0  0  0  0  0  0  0  0
   35.8590   32.2390   39.4990 H   0  0  0  0  0  0  0  0  0  0  0  0
   37.5960   33.6460   38.4930 H   0  0  0  0  0  0  0  0  0  0  0  0
   41.0940   35.7320   39.4830 H   0  0  0  0  0  0  0  0  0  0  0  0
   40.4210   34.9230   39.7250 C   0  0  0  0  0  0  0  0  0  0  0  0
   39.8310   35.2860   40.7970 O   0  0  0  0  0  0  0  0  0  0  0  0
   40.1190   33.6730   39.1170 N   0  0  0  0  0  0  0  0  0  0  0  0
   40.6910   33.5430   38.2530 H   0  0  0  0  0  0  0  0  0  0  0  0
   41.9330   31.7370   41.5810 N   0  0  0  0  0  0  0  0  0  0  0  0
   40.8480   31.8400   41.1980 C   0  0  0  0  0  0  0  0  0  0  0  0
  1  5  1  0  0  0  0
  2  1  1  0  0  0  0
  2  3  1  0  0  0  0
  3  8  1  1  0  0  0
  3  4  1  0  0  0  0
  4 10  1  0  0  0  0
  5  4  1  0  0  0  0
  5 12  1  0  0  0  0
  6  2  1  0  0  0  0
  7  2  1  0  0  0  0
  9  4  1  0  0  0  0
 11  5  1  0  0  0  0
 13 19  1  0  0  0  0
 13 14  1  0  0  0  0
 14 20  1  0  0  0  0
 15 14  2  0  0  0  0
 15  1  1  0  0  0  0
 16 15  1  0  0  0  0
 17 18  1  0  0  0  0
 17 16  2  0  0  0  0
 18 13  2  0  0  0  0
 21 17  1  0  0  0  0
 22  3  1  0  0  0  0
 22 23  1  0  0  0  0
 24 39  1  0  0  0  0
 24 25  1  0  0  0  0
 25 22  1  0  0  0  0
 26 30  1  0  0  0  0
 26 25  2  0  0  0  0
 27 26  1  0  0  0  0
 28 29  1  0  0  0  0
 28 27  2  0  0  0  0
 29 24  2  0  0  0  0
 31 27  1  0  0  0  0
 32 28  1  0  0  0  0
 33 34  1  0  0  0  0
 34 35  2  0  0  0  0
 36 34  1  0  0  0  0
 36 29  1  0  0  0  0
 37 36  1  0  0  0  0
 39 38  3  0  0  0  0
M  END
>  <minimizedAffinity>
-5.29349709

$$$$

 OpenBabel03242519083D

 39 41  0  0  1  0  0  0  0  0999 V2000
   39.3530   32.4310   39.6320 N   0  0  0  0  0  0  0  0  0  0  0  0
   39.1920   31.0440   40.0500 C   0  0  0  0  0  0  0  0  0  0  0  0
   37.7770   30.8350   39.6020 C   0  0  2  0  0  0  0  0  0  0  0  0
   37.0890   32.0650   40.1690 C   0  0  0  0  0  0  0  0  0  0  0  0
   38.1570   33.1190   40.0340 C   0  0  0  0  0  0  0  0  0  0  0  0
   39.2810   30.9620   41.1480 H   0  0  0  0  0  0  0  0  0  0  0  0
   39.9240   30.4410   39.4920 H   0  0  0  0  0  0  0  0  0  0  0  0
   37.7630   30.8080   38.4950 H   0  0  0  0  0  0  0  0  0  0  0  0
   36.9210   31.8900   41.2390 H   0  0  0  0  0  0  0  0  0  0  0  0
   36.1810   32.3410   39.5970 H   0  0  0  0  0  0  0  0  0  0  0  0
   38.2820   33.6990   40.9690 H   0  0  0  0  0  0  0  0  0  0  0  0
   37.8750   33.8150   39.2190 H   0  0  0  0  0  0  0  0  0  0  0  0
   42.0050   34.8340   38.5850 C   0  0  0  0  0  0  0  0  0  0  0  0
   40.9480   34.3060   39.3190 C   0  0  0  0  0  0  0  0  0  0  0  0
   40.4180   33.0620   38.9670 C   0  0  0  0  0  0  0  0  0  0  0  0
   40.9870   32.4370   37.9040 N   0  0  0  0  0  0  0  0  0  0  0  0
   42.0060   32.9370   37.1900 C   0  0  0  0  0  0  0  0  0  0  0  0
   42.5120   34.1480   37.5430 N   0  0  0  0  0  0  0  0  0  0  0  0
   42.4080   35.8000   38.8670 H   0  0  0  0  0  0  0  0  0  0  0  0
   40.4980   34.8040   40.1630 H   0  0  0  0  0  0  0  0  0  0  0  0
   42.4270   32.4170   36.3610 H   0  0  0  0  0  0  0  0  0  0  0  0
   37.1570   29.6870   40.1850 N   0  0  0  0  0  0  0  0  0  0  0  0
   36.2570   29.3810   39.7160 H   0  0  0  0  0  0  0  0  0  0  0  0
   38.0450   27.5710   41.1610 C   0  0  0  0  0  0  0  0  0  0  0  0
   37.5080   28.8650   41.2760 C   0  0  0  0  0  0  0  0  0  0  0  0
   37.3500   29.2750   42.5750 C   0  0  0  0  0  0  0  0  0  0  0  0
   37.6580   28.5530   43.6960 C   0  0  0  0  0  0  0  0  0  0  0  0
   38.1830   27.2880   43.5310 C   0  0  0  0  0  0  0  0  0  0  0  0
   38.3680   26.8160   42.2520 C   0  0  0  0  0  0  0  0  0  0  0  0
   36.9410   30.2610   42.7820 H   0  0  0  0  0  0  0  0  0  0  0  0
   37.5130   28.9250   44.7050 H   0  0  0  0  0  0  0  0  0  0  0  0
   38.4440   26.6780   44.3900 H   0  0  0  0  0  0  0  0  0  0  0  0
   38.1540   23.3250   42.0560 H   0  0  0  0  0  0  0  0  0  0  0  0
   38.0230   24.3930   42.1340 C   0  0  0  0  0  0  0  0  0  0  0  0
   36.7650   24.5680   42.2650 O   0  0  0  0  0  0  0  0  0  0  0  0
   38.9120   25.5030   42.1190 N   0  0  0  0  0  0  0  0  0  0  0  0
   39.8970   25.1760   42.0060 H   0  0  0  0  0  0  0  0  0  0  0  0
   38.4100   26.6780   38.7360 N   0  0  0  0  0  0  0  0  0  0  0  0
   38.2430   27.0670   39.8110 C   0  0  0  0  0  0  0  0  0  0  0  0
  1  5  1  0  0  0  0
  1  2  1  0  0  0  0
  2  6  1  0  0  0  0
  3  8  1  6  0  0  0
  3  2  1  0  0  0  0
  3  4  1  0  0  0  0
  3 22  1  0  0  0  0
  4  9  1  0  0  0  0
  5  4  1  0  0  0  0
  5 11  1  0  0  0  0
  7  2  1  0  0  0  0
 10  4  1  0  0  0  0
 12  5  1  0  0  0  0
 13 19  1  0  0  0  0
 13 14  1  0  0  0  0
 14 20  1  0  0  0  0
 15 14  2  0  0  0  0
 15  1  1  0  0  0  0
 16 15  1  0  0  0  0
 17 18  1  0  0  0  0
 17 16  2  0  0  0  0
 18 13  2  0  0  0  0
 21 17  1  0  0  0  0
 22 25  1  0  0  0  0
 23 22  1  0  0  0  0
 24 25  2  0  0  0  0
 24 29  1  0  0  0  0
 25 26  1  0  0  0  0
 26 30  1  0  0  0  0
 26 27  2  0  0  0  0
 27 31  1  0  0  0  0
 28 27  1  0  0  0  0
 28 32  1  0  0  0  0
 29 28  2  0  0  0  0
 33 34  1  0  0  0  0
 34 35  2  0  0  0  0
 36 34  1  0  0  0  0
 36 29  1  0  0  0  0
 37 36  1  0  0  0  0
 38 39  3  0  0  0  0
 39 24  1  0  0  0  0
M  END
>  <minimizedAffinity>
-5.28500748

$$$$

 OpenBabel03242519083D

 39 41  0  0  1  0  0  0  0  0999 V2000
   38.9460   31.3460   41.2080 N   0  0  0  0  0  0  0  0  0  0  0  0
   37.8790   30.5200   40.6570 C   0  0  0  0  0  0  0  0  0  0  0  0
   37.2610   30.0600   41.9430 C   0  0  2  0  0  0  0  0  0  0  0  0
   38.4800   29.6050   42.7260 C   0  0  0  0  0  0  0  0  0  0  0  0
   39.5300   30.5910   42.2840 C   0  0  0  0  0  0  0  0  0  0  0  0
   38.3040   29.6730   40.0910 H   0  0  0  0  0  0  0  0  0  0  0  0
   37.2240   31.1760   40.0640 H   0  0  0  0  0  0  0  0  0  0  0  0
   36.7480   30.9230   42.4100 H   0  0  0  0  0  0  0  0  0  0  0  0
   38.7680   28.6150   42.3510 H   0  0  0  0  0  0  0  0  0  0  0  0
   38.3210   29.6570   43.8210 H   0  0  0  0  0  0  0  0  0  0  0  0
   40.4740   30.0870   41.9990 H   0  0  0  0  0  0  0  0  0  0  0  0
   39.7390   31.2920   43.1160 H   0  0  0  0  0  0  0  0  0  0  0  0
   39.1050   34.9420   40.2350 C   0  0  0  0  0  0  0  0  0  0  0  0
   38.5520   33.7190   40.5990 C   0  0  0  0  0  0  0  0  0  0  0  0
   39.3890   32.6260   40.8370 C   0  0  0  0  0  0  0  0  0  0  0  0
   40.7230   32.8400   40.6920 N   0  0  0  0  0  0  0  0  0  0  0  0
   41.2670   34.0140   40.3430 C   0  0  0  0  0  0  0  0  0  0  0  0
   40.4410   35.0680   40.1140 N   0  0  0  0  0  0  0  0  0  0  0  0
   38.4450   35.7820   40.0540 H   0  0  0  0  0  0  0  0  0  0  0  0
   37.4920   33.5520   40.7130 H   0  0  0  0  0  0  0  0  0  0  0  0
   42.3190   34.1440   40.2390 H   0  0  0  0  0  0  0  0  0  0  0  0
   36.4010   28.9300   41.7890 N   0  0  0  0  0  0  0  0  0  0  0  0
   35.3680   29.1370   41.9150 H   0  0  0  0  0  0  0  0  0  0  0  0
   36.5400   26.9960   40.2210 C   0  0  0  0  0  0  0  0  0  0  0  0
   36.6510   27.5730   41.4980 C   0  0  0  0  0  0  0  0  0  0  0  0
   37.0340   26.6810   42.4670 C   0  0  0  0  0  0  0  0  0  0  0  0
   37.2980   25.3510   42.2850 C   0  0  0  0  0  0  0  0  0  0  0  0
   37.1760   24.8310   41.0120 C   0  0  0  0  0  0  0  0  0  0  0  0
   36.7950   25.6740   39.9930 C   0  0  0  0  0  0  0  0  0  0  0  0
   37.1510   27.0200   43.4940 H   0  0  0  0  0  0  0  0  0  0  0  0
   37.6000   24.6850   43.0880 H   0  0  0  0  0  0  0  0  0  0  0  0
   37.3760   23.7830   40.8190 H   0  0  0  0  0  0  0  0  0  0  0  0
   38.0490   24.5990   36.9040 H   0  0  0  0  0  0  0  0  0  0  0  0
   37.8510   24.9800   37.8940 C   0  0  0  0  0  0  0  0  0  0  0  0
   38.9820   25.3750   38.3350 O   0  0  0  0  0  0  0  0  0  0  0  0
   36.6790   25.1020   38.6910 N   0  0  0  0  0  0  0  0  0  0  0  0
   35.8500   24.7320   38.1750 H   0  0  0  0  0  0  0  0  0  0  0  0
   35.8190   28.5970   38.2910 N   0  0  0  0  0  0  0  0  0  0  0  0
   36.1380   27.8820   39.1410 C   0  0  0  0  0  0  0  0  0  0  0  0
  1  5  1  0  0  0  0
  2  1  1  0  0  0  0
  2  3  1  0  0  0  0
  3  8  1  1  0  0  0
  3  4  1  0  0  0  0
  4 10  1  0  0  0  0
  5  4  1  0  0  0  0
  5 12  1  0  0  0  0
  6  2  1  0  0  0  0
  7  2  1  0  0  0  0
  9  4  1  0  0  0  0
 11  5  1  0  0  0  0
 13 14  1  0  0  0  0
 14 20  1  0  0  0  0
 14 15  2  0  0  0  0
 15  1  1  0  0  0  0
 16 15  1  0  0  0  0
 17 16  2  0  0  0  0
 18 13  2  0  0  0  0
 18 17  1  0  0  0  0
 19 13  1  0  0  0  0
 21 17  1  0  0  0  0
 22 23  1  0  0  0  0
 22  3  1  0  0  0  0
 24 25  1  0  0  0  0
 25 22  1  0  0  0  0
 25 26  2  0  0  0  0
 26 30  1  0  0  0  0
 27 26  1  0  0  0  0
 27 31  1  0  0  0  0
 28 27  2  0  0  0  0
 29 24  2  0  0  0  0
 29 28  1  0  0  0  0
 32 28  1  0  0  0  0
 33 34  1  0  0  0  0
 34 35  2  0  0  0  0
 34 36  1  0  0  0  0
 36 29  1  0  0  0  0
 37 36  1  0  0  0  0
 38 39  3  0  0  0  0
 39 24  1  0  0  0  0
M  END
>  <minimizedAffinity>
-5.25249672

$$$$
