
 OpenBabel03242510583D

 32 33  0  0  0  0  0  0  0  0999 V2000
   38.2400   28.9320   42.1680 C   0  0  0  0  0  0  0  0  0  0  0  0
   37.6210   28.8700   43.4270 C   0  0  0  0  0  0  0  0  0  0  0  0
   36.8900   27.7770   43.8670 C   0  0  0  0  0  0  0  0  0  0  0  0
   36.7810   26.7070   43.0010 C   0  0  0  0  0  0  0  0  0  0  0  0
   37.3950   26.7750   41.7600 C   0  0  0  0  0  0  0  0  0  0  0  0
   38.0840   27.8580   41.4010 N   0  0  0  0  0  0  0  0  0  0  0  0
   37.7200   29.7230   44.0910 H   0  0  0  0  0  0  0  0  0  0  0  0
   36.4410   27.8030   44.8510 H   0  0  0  0  0  0  0  0  0  0  0  0
   36.2040   25.8740   43.3810 H   0  0  0  0  0  0  0  0  0  0  0  0
   39.0750   34.5360   40.0850 C   0  0  0  0  0  0  0  0  0  0  0  0
   40.4760   34.5340   40.0950 C   0  0  0  0  0  0  0  0  0  0  0  0
   41.1250   33.3470   40.4600 C   0  0  0  0  0  0  0  0  0  0  0  0
   40.3890   32.2500   40.7900 N   0  0  0  0  0  0  0  0  0  0  0  0
   39.0290   32.3090   40.7620 C   0  0  0  0  0  0  0  0  0  0  0  0
   38.3500   33.4550   40.4090 N   0  0  0  0  0  0  0  0  0  0  0  0
   38.9880   30.1300   41.8020 C   0  0  0  0  0  0  0  0  0  0  0  0
   40.2140   30.1840   42.1230 O   0  0  0  0  0  0  0  0  0  0  0  0
   38.2800   31.1500   41.1100 N   0  0  0  0  0  0  0  0  0  0  0  0
   38.6550   35.4920   39.7920 H   0  0  0  0  0  0  0  0  0  0  0  0
   41.0990   35.3630   39.8470 H   0  0  0  0  0  0  0  0  0  0  0  0
   42.2050   33.2280   40.5030 H   0  0  0  0  0  0  0  0  0  0  0  0
   37.2690   31.0800   40.8580 H   0  0  0  0  0  0  0  0  0  0  0  0
   37.2620   25.6360   40.8760 C   0  0  0  0  0  3  0  0  0  0  0  0
   36.9570   24.4390   41.3320 C   0  0  0  0  0  3  0  0  0  0  0  0
   36.7960   23.2040   40.5170 C   0  0  0  0  0  0  0  0  0  0  0  0
   35.9110   22.6860   40.9390 H   0  0  0  0  0  0  0  0  0  0  0  0
   36.5740   23.5150   39.4550 H   0  0  0  0  0  0  0  0  0  0  0  0
   39.8130   21.9610   39.3150 H   0  0  0  0  0  0  0  0  0  0  0  0
   38.8890   22.5020   39.4570 C   0  0  0  0  0  0  0  0  0  0  0  0
   38.7800   23.2710   38.4690 O   0  0  0  0  0  0  0  0  0  0  0  0
   37.9790   22.3690   40.5410 N   0  0  0  0  0  0  0  0  0  0  0  0
   38.2750   21.6630   41.2540 H   0  0  0  0  0  0  0  0  0  0  0  0
  1  2  1  0  0  0  0
  2  3  2  0  0  0  0
  2  7  1  0  0  0  0
  3  8  1  0  0  0  0
  4  9  1  0  0  0  0
  4  3  1  0  0  0  0
  5  4  2  0  0  0  0
  6  5  1  0  0  0  0
  6  1  2  0  0  0  0
 10 11  2  0  0  0  0
 10 15  1  0  0  0  0
 11 12  1  0  0  0  0
 12 21  1  0  0  0  0
 12 13  2  0  0  0  0
 14 13  1  0  0  0  0
 14 18  1  0  0  0  0
 15 14  2  0  0  0  0
 16 17  2  0  0  0  0
 16  1  1  0  0  0  0
 18 16  1  0  0  0  0
 19 10  1  0  0  0  0
 20 11  1  0  0  0  0
 22 18  1  0  0  0  0
 23 24  2  0  0  0  0
 23  5  1  0  0  0  0
 25 31  1  0  0  0  0
 25 26  1  0  0  0  0
 25 24  1  0  0  0  0
 27 25  1  0  0  0  0
 28 29  1  0  0  0  0
 29 31  1  0  0  0  0
 30 29  2  0  0  0  0
 31 32  1  0  0  0  0
M  END
>  <minimizedAffinity>
-5.23735237

$$$$

 OpenBabel03242510583D

 32 33  0  0  0  0  0  0  0  0999 V2000
   37.8370   30.3640   40.6960 C   0  0  0  0  0  0  0  0  0  0  0  0
   36.5910   30.6390   40.1100 C   0  0  0  0  0  0  0  0  0  0  0  0
   35.4950   29.7980   40.2120 C   0  0  0  0  0  0  0  0  0  0  0  0
   35.6640   28.6330   40.9340 C   0  0  0  0  0  0  0  0  0  0  0  0
   36.8970   28.3670   41.5100 C   0  0  0  0  0  0  0  0  0  0  0  0
   37.9100   29.2210   41.3720 N   0  0  0  0  0  0  0  0  0  0  0  0
   36.4810   31.5620   39.5470 H   0  0  0  0  0  0  0  0  0  0  0  0
   34.5660   30.0780   39.7330 H   0  0  0  0  0  0  0  0  0  0  0  0
   34.7860   28.0030   40.9910 H   0  0  0  0  0  0  0  0  0  0  0  0
   41.9230   33.6610   37.7150 C   0  0  0  0  0  0  0  0  0  0  0  0
   42.6050   34.1670   38.8300 C   0  0  0  0  0  0  0  0  0  0  0  0
   42.2060   33.7230   40.0970 C   0  0  0  0  0  0  0  0  0  0  0  0
   41.1860   32.8280   40.2080 N   0  0  0  0  0  0  0  0  0  0  0  0
   40.5590   32.3690   39.0900 C   0  0  0  0  0  0  0  0  0  0  0  0
   40.9180   32.7790   37.8250 N   0  0  0  0  0  0  0  0  0  0  0  0
   38.9280   31.3170   40.5280 C   0  0  0  0  0  0  0  0  0  0  0  0
   39.2980   31.9780   41.5460 O   0  0  0  0  0  0  0  0  0  0  0  0
   39.4960   31.4330   39.2300 N   0  0  0  0  0  0  0  0  0  0  0  0
   42.2920   34.0560   36.7760 H   0  0  0  0  0  0  0  0  0  0  0  0
   43.4070   34.8680   38.7980 H   0  0  0  0  0  0  0  0  0  0  0  0
   42.6620   34.0460   41.0310 H   0  0  0  0  0  0  0  0  0  0  0  0
   39.1720   30.8760   38.4080 H   0  0  0  0  0  0  0  0  0  0  0  0
   37.0420   27.1370   42.2600 C   0  0  0  0  0  3  0  0  0  0  0  0
   37.1810   25.9730   41.6610 C   0  0  0  0  0  3  0  0  0  0  0  0
   37.3360   24.6540   42.3300 C   0  0  0  0  0  0  0  0  0  0  0  0
   37.2440   24.8600   43.4160 H   0  0  0  0  0  0  0  0  0  0  0  0
   36.4810   23.9950   42.0030 H   0  0  0  0  0  0  0  0  0  0  0  0
   40.7330   23.9960   42.6740 H   0  0  0  0  0  0  0  0  0  0  0  0
   39.7270   24.3710   42.7810 C   0  0  0  0  0  0  0  0  0  0  0  0
   39.7610   25.1910   43.7330 O   0  0  0  0  0  0  0  0  0  0  0  0
   38.5930   24.0130   42.0020 N   0  0  0  0  0  0  0  0  0  0  0  0
   38.8010   23.3080   41.2580 H   0  0  0  0  0  0  0  0  0  0  0  0
  1  6  1  0  0  0  0
  2  3  1  0  0  0  0
  2  1  2  0  0  0  0
  3  4  2  0  0  0  0
  4  9  1  0  0  0  0
  4  5  1  0  0  0  0
  5 23  1  0  0  0  0
  6  5  2  0  0  0  0
  7  2  1  0  0  0  0
  8  3  1  0  0  0  0
 10 15  2  0  0  0  0
 10 11  1  0  0  0  0
 11 12  2  0  0  0  0
 12 13  1  0  0  0  0
 12 21  1  0  0  0  0
 14 18  1  0  0  0  0
 14 13  2  0  0  0  0
 15 14  1  0  0  0  0
 16  1  1  0  0  0  0
 16 17  2  0  0  0  0
 18 16  1  0  0  0  0
 19 10  1  0  0  0  0
 20 11  1  0  0  0  0
 22 18  1  0  0  0  0
 24 23  2  0  0  0  0
 24 25  1  0  0  0  0
 25 26  1  0  0  0  0
 27 25  1  0  0  0  0
 28 29  1  0  0  0  0
 29 30  2  0  0  0  0
 31 25  1  0  0  0  0
 31 29  1  0  0  0  0
 32 31  1  0  0  0  0
M  END
>  <minimizedAffinity>
-5.22798824

$$$$

 OpenBabel03242510583D

 32 33  0  0  0  0  0  0  0  0999 V2000
   37.5730   29.0360   41.8390 C   0  0  0  0  0  0  0  0  0  0  0  0
   37.3400   28.8220   43.2070 C   0  0  0  0  0  0  0  0  0  0  0  0
   36.9870   27.5920   43.7390 C   0  0  0  0  0  0  0  0  0  0  0  0
   36.8650   26.5380   42.8550 C   0  0  0  0  0  0  0  0  0  0  0  0
   37.0960   26.7570   41.5050 C   0  0  0  0  0  0  0  0  0  0  0  0
   37.4320   27.9680   41.0610 N   0  0  0  0  0  0  0  0  0  0  0  0
   37.4430   29.6650   43.8840 H   0  0  0  0  0  0  0  0  0  0  0  0
   36.8240   27.5030   44.8050 H   0  0  0  0  0  0  0  0  0  0  0  0
   36.5880   25.5960   43.3080 H   0  0  0  0  0  0  0  0  0  0  0  0
   41.2590   33.5320   40.2090 C   0  0  0  0  0  0  0  0  0  0  0  0
   40.2890   34.5360   40.0910 C   0  0  0  0  0  0  0  0  0  0  0  0
   38.9700   34.2130   40.4320 C   0  0  0  0  0  0  0  0  0  0  0  0
   38.6720   32.9560   40.8600 N   0  0  0  0  0  0  0  0  0  0  0  0
   39.6540   32.0190   40.9560 C   0  0  0  0  0  0  0  0  0  0  0  0
   40.9650   32.2930   40.6310 N   0  0  0  0  0  0  0  0  0  0  0  0
   37.9400   30.3720   41.3810 C   0  0  0  0  0  0  0  0  0  0  0  0
   37.0080   31.1410   40.9920 O   0  0  0  0  0  0  0  0  0  0  0  0
   39.3200   30.7110   41.4060 N   0  0  0  0  0  0  0  0  0  0  0  0
   42.2510   33.8640   39.9250 H   0  0  0  0  0  0  0  0  0  0  0  0
   40.4690   35.5340   39.7620 H   0  0  0  0  0  0  0  0  0  0  0  0
   38.1360   34.9110   40.3810 H   0  0  0  0  0  0  0  0  0  0  0  0
   40.0670   30.0580   41.7310 H   0  0  0  0  0  0  0  0  0  0  0  0
   36.9580   25.6320   40.6040 C   0  0  0  0  0  3  0  0  0  0  0  0
   36.9480   24.3910   41.0440 C   0  0  0  0  0  3  0  0  0  0  0  0
   36.8130   23.1660   40.2110 C   0  0  0  0  0  0  0  0  0  0  0  0
   37.8430   22.7680   40.1020 H   0  0  0  0  0  0  0  0  0  0  0  0
   36.1860   22.4230   40.7840 H   0  0  0  0  0  0  0  0  0  0  0  0
   34.1750   23.3770   37.9560 H   0  0  0  0  0  0  0  0  0  0  0  0
   34.7920   23.2280   38.8280 C   0  0  0  0  0  0  0  0  0  0  0  0
   34.0200   22.8320   39.7370 O   0  0  0  0  0  0  0  0  0  0  0  0
   36.1950   23.4360   38.9290 N   0  0  0  0  0  0  0  0  0  0  0  0
   36.6350   23.7690   38.0410 H   0  0  0  0  0  0  0  0  0  0  0  0
  1  2  1  0  0  0  0
  2  3  2  0  0  0  0
  2  7  1  0  0  0  0
  3  8  1  0  0  0  0
  4  9  1  0  0  0  0
  4  3  1  0  0  0  0
  5  4  2  0  0  0  0
  6  5  1  0  0  0  0
  6  1  2  0  0  0  0
 10 15  1  0  0  0  0
 11 10  2  0  0  0  0
 11 12  1  0  0  0  0
 12 13  2  0  0  0  0
 13 14  1  0  0  0  0
 14 18  1  0  0  0  0
 15 14  2  0  0  0  0
 16 18  1  0  0  0  0
 16  1  1  0  0  0  0
 17 16  2  0  0  0  0
 18 22  1  0  0  0  0
 19 10  1  0  0  0  0
 20 11  1  0  0  0  0
 21 12  1  0  0  0  0
 23 24  2  0  0  0  0
 23  5  1  0  0  0  0
 25 27  1  0  0  0  0
 25 24  1  0  0  0  0
 26 25  1  0  0  0  0
 28 29  1  0  0  0  0
 29 31  1  0  0  0  0
 29 30  2  0  0  0  0
 31 25  1  0  0  0  0
 32 31  1  0  0  0  0
M  END
>  <minimizedAffinity>
-5.18984842

$$$$

 OpenBabel03242510583D

 32 33  0  0  0  0  0  0  0  0999 V2000
   38.0070   30.2780   41.2180 C   0  0  0  0  0  0  0  0  0  0  0  0
   36.8850   30.7250   40.5010 C   0  0  0  0  0  0  0  0  0  0  0  0
   35.7230   29.9840   40.3590 C   0  0  0  0  0  0  0  0  0  0  0  0
   35.6940   28.7420   40.9630 C   0  0  0  0  0  0  0  0  0  0  0  0
   36.8050   28.3070   41.6680 C   0  0  0  0  0  0  0  0  0  0  0  0
   37.8920   29.0720   41.7660 N   0  0  0  0  0  0  0  0  0  0  0  0
   36.9310   31.7060   40.0350 H   0  0  0  0  0  0  0  0  0  0  0  0
   34.8990   30.3960   39.7910 H   0  0  0  0  0  0  0  0  0  0  0  0
   34.7700   28.1950   40.8290 H   0  0  0  0  0  0  0  0  0  0  0  0
   41.9200   34.5360   39.4830 C   0  0  0  0  0  0  0  0  0  0  0  0
   42.8710   34.3400   40.4920 C   0  0  0  0  0  0  0  0  0  0  0  0
   42.6550   33.2940   41.3990 C   0  0  0  0  0  0  0  0  0  0  0  0
   41.5470   32.5120   41.2750 N   0  0  0  0  0  0  0  0  0  0  0  0
   40.6550   32.7480   40.2740 C   0  0  0  0  0  0  0  0  0  0  0  0
   40.8280   33.7660   39.3610 N   0  0  0  0  0  0  0  0  0  0  0  0
   39.1820   31.1370   41.3070 C   0  0  0  0  0  0  0  0  0  0  0  0
   39.8370   31.1330   42.3940 O   0  0  0  0  0  0  0  0  0  0  0  0
   39.5050   31.9180   40.1640 N   0  0  0  0  0  0  0  0  0  0  0  0
   42.1620   35.3640   38.8260 H   0  0  0  0  0  0  0  0  0  0  0  0
   43.7530   34.9220   40.6330 H   0  0  0  0  0  0  0  0  0  0  0  0
   43.3240   33.0480   42.2210 H   0  0  0  0  0  0  0  0  0  0  0  0
   38.9480   31.9030   39.2810 H   0  0  0  0  0  0  0  0  0  0  0  0
   36.7420   27.0000   42.2900 C   0  0  0  0  0  3  0  0  0  0  0  0
   37.2390   25.9310   41.7040 C   0  0  0  0  0  3  0  0  0  0  0  0
   37.2280   24.5470   42.2490 C   0  0  0  0  0  0  0  0  0  0  0  0
   37.2840   24.6630   43.3510 H   0  0  0  0  0  0  0  0  0  0  0  0
   36.2420   24.0720   41.9750 H   0  0  0  0  0  0  0  0  0  0  0  0
   38.7140   22.2430   40.1100 H   0  0  0  0  0  0  0  0  0  0  0  0
   38.0290   22.9050   40.6170 C   0  0  0  0  0  0  0  0  0  0  0  0
   36.9260   22.7830   40.0280 O   0  0  0  0  0  0  0  0  0  0  0  0
   38.3150   23.7420   41.7300 N   0  0  0  0  0  0  0  0  0  0  0  0
   39.3060   23.6800   42.0580 H   0  0  0  0  0  0  0  0  0  0  0  0
  1 16  1  0  0  0  0
  1  6  1  0  0  0  0
  2  1  2  0  0  0  0
  3  2  1  0  0  0  0
  3  4  2  0  0  0  0
  4  5  1  0  0  0  0
  5  6  2  0  0  0  0
  5 23  1  0  0  0  0
  7  2  1  0  0  0  0
  8  3  1  0  0  0  0
  9  4  1  0  0  0  0
 10 11  1  0  0  0  0
 11 20  1  0  0  0  0
 11 12  2  0  0  0  0
 12 21  1  0  0  0  0
 13 12  1  0  0  0  0
 14 13  2  0  0  0  0
 15 10  2  0  0  0  0
 15 14  1  0  0  0  0
 16 17  2  0  0  0  0
 18 14  1  0  0  0  0
 18 16  1  0  0  0  0
 19 10  1  0  0  0  0
 22 18  1  0  0  0  0
 24 25  1  0  0  0  0
 24 23  2  0  0  0  0
 25 26  1  0  0  0  0
 27 25  1  0  0  0  0
 28 29  1  0  0  0  0
 29 31  1  0  0  0  0
 30 29  2  0  0  0  0
 31 32  1  0  0  0  0
 31 25  1  0  0  0  0
M  END
>  <minimizedAffinity>
-5.13320494

$$$$

 OpenBabel03242510583D

 32 33  0  0  0  0  0  0  0  0999 V2000
   37.1860   26.9590   41.6810 C   0  0  0  0  0  0  0  0  0  0  0  0
   37.2240   26.9640   43.0850 C   0  0  0  0  0  0  0  0  0  0  0  0
   37.4970   28.0940   43.8400 C   0  0  0  0  0  0  0  0  0  0  0  0
   37.7410   29.2650   43.1480 C   0  0  0  0  0  0  0  0  0  0  0  0
   37.7020   29.2530   41.7620 C   0  0  0  0  0  0  0  0  0  0  0  0
   37.4330   28.1290   41.0990 N   0  0  0  0  0  0  0  0  0  0  0  0
   37.0280   26.0320   43.6080 H   0  0  0  0  0  0  0  0  0  0  0  0
   37.5080   28.0200   44.9190 H   0  0  0  0  0  0  0  0  0  0  0  0
   37.9490   30.1240   43.7720 H   0  0  0  0  0  0  0  0  0  0  0  0
   35.7640   23.4190   37.0030 C   0  0  0  0  0  0  0  0  0  0  0  0
   35.5990   22.2240   37.7150 C   0  0  0  0  0  0  0  0  0  0  0  0
   35.7230   22.2720   39.1090 C   0  0  0  0  0  0  0  0  0  0  0  0
   35.9950   23.4570   39.7210 N   0  0  0  0  0  0  0  0  0  0  0  0
   36.1460   24.5880   38.9790 C   0  0  0  0  0  0  0  0  0  0  0  0
   36.0320   24.5860   37.6060 N   0  0  0  0  0  0  0  0  0  0  0  0
   36.8890   25.7140   40.9820 C   0  0  0  0  0  0  0  0  0  0  0  0
   37.0590   24.6270   41.6130 O   0  0  0  0  0  0  0  0  0  0  0  0
   36.4300   25.8150   39.6410 N   0  0  0  0  0  0  0  0  0  0  0  0
   35.6530   23.2940   35.9310 H   0  0  0  0  0  0  0  0  0  0  0  0
   35.3860   21.2720   37.2850 H   0  0  0  0  0  0  0  0  0  0  0  0
   35.6150   21.4090   39.7640 H   0  0  0  0  0  0  0  0  0  0  0  0
   36.2990   26.7250   39.1450 H   0  0  0  0  0  0  0  0  0  0  0  0
   37.9630   30.4960   41.0680 C   0  0  0  0  0  3  0  0  0  0  0  0
   37.1090   30.9960   40.1990 C   0  0  0  0  0  3  0  0  0  0  0  0
   37.2750   32.2600   39.4330 C   0  0  0  0  0  0  0  0  0  0  0  0
   38.2420   32.1580   38.8990 H   0  0  0  0  0  0  0  0  0  0  0  0
   36.4390   32.3230   38.6780 H   0  0  0  0  0  0  0  0  0  0  0  0
   38.5700   35.1280   40.9140 H   0  0  0  0  0  0  0  0  0  0  0  0
   38.4200   34.2300   40.3350 C   0  0  0  0  0  0  0  0  0  0  0  0
   39.4930   34.0320   39.7130 O   0  0  0  0  0  0  0  0  0  0  0  0
   37.2450   33.4310   40.2870 N   0  0  0  0  0  0  0  0  0  0  0  0
   36.4690   33.7880   40.8910 H   0  0  0  0  0  0  0  0  0  0  0  0
  1  2  1  0  0  0  0
  2  7  1  0  0  0  0
  2  3  2  0  0  0  0
  3  8  1  0  0  0  0
  4  9  1  0  0  0  0
  4  3  1  0  0  0  0
  5  4  2  0  0  0  0
  6  1  2  0  0  0  0
  6  5  1  0  0  0  0
 10 15  2  0  0  0  0
 10 11  1  0  0  0  0
 11 12  2  0  0  0  0
 12 13  1  0  0  0  0
 12 21  1  0  0  0  0
 14 18  1  0  0  0  0
 14 13  2  0  0  0  0
 15 14  1  0  0  0  0
 16 17  2  0  0  0  0
 16  1  1  0  0  0  0
 18 16  1  0  0  0  0
 19 10  1  0  0  0  0
 20 11  1  0  0  0  0
 22 18  1  0  0  0  0
 23  5  1  0  0  0  0
 24 23  2  0  0  0  0
 25 24  1  0  0  0  0
 25 31  1  0  0  0  0
 26 25  1  0  0  0  0
 27 25  1  0  0  0  0
 29 28  1  0  0  0  0
 30 29  2  0  0  0  0
 31 29  1  0  0  0  0
 31 32  1  0  0  0  0
M  END
>  <minimizedAffinity>
-5.06567621

$$$$

 OpenBabel03242510583D

 32 33  0  0  0  0  0  0  0  0999 V2000
   39.6160   32.4280   40.5680 C   0  0  0  0  0  0  0  0  0  0  0  0
   38.6910   33.1600   39.8070 C   0  0  0  0  0  0  0  0  0  0  0  0
   37.3480   32.8320   39.7120 C   0  0  0  0  0  0  0  0  0  0  0  0
   36.9240   31.7200   40.4120 C   0  0  0  0  0  0  0  0  0  0  0  0
   37.8430   31.0010   41.1620 C   0  0  0  0  0  0  0  0  0  0  0  0
   39.1210   31.3740   41.2090 N   0  0  0  0  0  0  0  0  0  0  0  0
   39.0470   34.0320   39.2650 H   0  0  0  0  0  0  0  0  0  0  0  0
   36.6950   33.4440   39.1050 H   0  0  0  0  0  0  0  0  0  0  0  0
   35.8700   31.4960   40.3130 H   0  0  0  0  0  0  0  0  0  0  0  0
   45.1400   33.1930   42.8830 C   0  0  0  0  0  0  0  0  0  0  0  0
   45.6610   33.9980   41.8610 C   0  0  0  0  0  0  0  0  0  0  0  0
   44.8010   34.3730   40.8210 C   0  0  0  0  0  0  0  0  0  0  0  0
   43.5070   33.9520   40.8320 N   0  0  0  0  0  0  0  0  0  0  0  0
   43.0530   33.1710   41.8510 C   0  0  0  0  0  0  0  0  0  0  0  0
   43.8640   32.7790   42.8930 N   0  0  0  0  0  0  0  0  0  0  0  0
   41.0090   32.8590   40.6020 C   0  0  0  0  0  0  0  0  0  0  0  0
   41.5160   33.3070   39.5280 O   0  0  0  0  0  0  0  0  0  0  0  0
   41.6960   32.7440   41.8410 N   0  0  0  0  0  0  0  0  0  0  0  0
   45.8700   32.9490   43.6450 H   0  0  0  0  0  0  0  0  0  0  0  0
   46.6650   34.3530   41.8050 H   0  0  0  0  0  0  0  0  0  0  0  0
   45.0950   34.9940   39.9780 H   0  0  0  0  0  0  0  0  0  0  0  0
   41.2540   32.3710   42.7110 H   0  0  0  0  0  0  0  0  0  0  0  0
   37.3660   29.8400   41.8840 C   0  0  0  0  0  3  0  0  0  0  0  0
   38.1000   29.2460   42.8020 C   0  0  0  0  0  3  0  0  0  0  0  0
   37.7100   28.0530   43.6000 C   0  0  0  0  0  0  0  0  0  0  0  0
   37.3280   28.4530   44.5620 H   0  0  0  0  0  0  0  0  0  0  0  0
   36.8720   27.5290   43.0570 H   0  0  0  0  0  0  0  0  0  0  0  0
   39.7250   25.3270   42.8260 H   0  0  0  0  0  0  0  0  0  0  0  0
   38.9660   26.0940   42.8360 C   0  0  0  0  0  0  0  0  0  0  0  0
   38.2420   25.8800   41.8310 O   0  0  0  0  0  0  0  0  0  0  0  0
   38.8130   27.1340   43.7920 N   0  0  0  0  0  0  0  0  0  0  0  0
   39.5360   27.1180   44.5490 H   0  0  0  0  0  0  0  0  0  0  0  0
  1 16  1  0  0  0  0
  1  6  1  0  0  0  0
  2  1  2  0  0  0  0
  3  2  1  0  0  0  0
  3  4  2  0  0  0  0
  4  5  1  0  0  0  0
  5  6  2  0  0  0  0
  5 23  1  0  0  0  0
  7  2  1  0  0  0  0
  8  3  1  0  0  0  0
  9  4  1  0  0  0  0
 10 15  1  0  0  0  0
 10 19  1  0  0  0  0
 11 10  2  0  0  0  0
 12 13  2  0  0  0  0
 12 11  1  0  0  0  0
 13 14  1  0  0  0  0
 14 15  2  0  0  0  0
 16 18  1  0  0  0  0
 17 16  2  0  0  0  0
 18 14  1  0  0  0  0
 18 22  1  0  0  0  0
 20 11  1  0  0  0  0
 21 12  1  0  0  0  0
 23 24  2  0  0  0  0
 24 25  1  0  0  0  0
 25 31  1  0  0  0  0
 25 26  1  0  0  0  0
 27 25  1  0  0  0  0
 28 29  1  0  0  0  0
 29 31  1  0  0  0  0
 30 29  2  0  0  0  0
 31 32  1  0  0  0  0
M  END
>  <minimizedAffinity>
-4.99510098

$$$$

 OpenBabel03242510583D

 32 33  0  0  0  0  0  0  0  0999 V2000
   37.7750   30.0940   40.2000 C   0  0  0  0  0  0  0  0  0  0  0  0
   36.8980   31.1160   40.6020 C   0  0  0  0  0  0  0  0  0  0  0  0
   36.9550   32.4100   40.1090 C   0  0  0  0  0  0  0  0  0  0  0  0
   37.9340   32.6820   39.1740 C   0  0  0  0  0  0  0  0  0  0  0  0
   38.7960   31.6690   38.7820 C   0  0  0  0  0  0  0  0  0  0  0  0
   38.6860   30.4450   39.2980 N   0  0  0  0  0  0  0  0  0  0  0  0
   36.1350   30.8780   41.3380 H   0  0  0  0  0  0  0  0  0  0  0  0
   36.2450   33.1430   40.4660 H   0  0  0  0  0  0  0  0  0  0  0  0
   37.9450   33.7020   38.8140 H   0  0  0  0  0  0  0  0  0  0  0  0
   38.4430   24.1080   40.6060 C   0  0  0  0  0  0  0  0  0  0  0  0
   37.6110   23.9010   41.7140 C   0  0  0  0  0  0  0  0  0  0  0  0
   36.9270   25.0070   42.2330 C   0  0  0  0  0  0  0  0  0  0  0  0
   37.0860   26.2300   41.6560 N   0  0  0  0  0  0  0  0  0  0  0  0
   37.9080   26.3730   40.5800 C   0  0  0  0  0  0  0  0  0  0  0  0
   38.6000   25.3130   40.0380 N   0  0  0  0  0  0  0  0  0  0  0  0
   37.6300   28.7640   40.7810 C   0  0  0  0  0  0  0  0  0  0  0  0
   37.1340   28.6780   41.9460 O   0  0  0  0  0  0  0  0  0  0  0  0
   38.0590   27.6610   39.9940 N   0  0  0  0  0  0  0  0  0  0  0  0
   38.9340   23.2020   40.2690 H   0  0  0  0  0  0  0  0  0  0  0  0
   37.4520   22.9660   42.2030 H   0  0  0  0  0  0  0  0  0  0  0  0
   36.2550   24.9660   43.0880 H   0  0  0  0  0  0  0  0  0  0  0  0
   38.4650   27.7600   39.0370 H   0  0  0  0  0  0  0  0  0  0  0  0
   39.8120   31.9880   37.8010 C   0  0  0  0  0  3  0  0  0  0  0  0
   41.0920   32.0000   38.1090 C   0  0  0  0  0  3  0  0  0  0  0  0
   42.2150   32.3120   37.1840 C   0  0  0  0  0  0  0  0  0  0  0  0
   43.1290   31.9430   37.6930 H   0  0  0  0  0  0  0  0  0  0  0  0
   42.0560   31.7250   36.2340 H   0  0  0  0  0  0  0  0  0  0  0  0
   43.2510   35.5980   37.6520 H   0  0  0  0  0  0  0  0  0  0  0  0
   43.0830   34.5350   37.7350 C   0  0  0  0  0  0  0  0  0  0  0  0
   43.7230   34.1590   38.7490 O   0  0  0  0  0  0  0  0  0  0  0  0
   42.2960   33.7240   36.8730 N   0  0  0  0  0  0  0  0  0  0  0  0
   41.8510   34.2550   36.0890 H   0  0  0  0  0  0  0  0  0  0  0  0
  1  2  1  0  0  0  0
  1 16  1  0  0  0  0
  2  7  1  0  0  0  0
  3  8  1  0  0  0  0
  3  2  2  0  0  0  0
  4  3  1  0  0  0  0
  5  4  2  0  0  0  0
  5  6  1  0  0  0  0
  6  1  2  0  0  0  0
  9  4  1  0  0  0  0
 10 11  1  0  0  0  0
 11 20  1  0  0  0  0
 11 12  2  0  0  0  0
 12 21  1  0  0  0  0
 13 12  1  0  0  0  0
 14 13  2  0  0  0  0
 15 14  1  0  0  0  0
 15 10  2  0  0  0  0
 16 17  2  0  0  0  0
 18 14  1  0  0  0  0
 18 16  1  0  0  0  0
 19 10  1  0  0  0  0
 22 18  1  0  0  0  0
 23 24  2  0  0  0  0
 23  5  1  0  0  0  0
 25 26  1  0  0  0  0
 25 24  1  0  0  0  0
 27 25  1  0  0  0  0
 28 29  1  0  0  0  0
 29 30  2  0  0  0  0
 31 25  1  0  0  0  0
 31 29  1  0  0  0  0
 32 31  1  0  0  0  0
M  END
>  <minimizedAffinity>
-4.9903903

$$$$

 OpenBabel03242510583D

 32 33  0  0  0  0  0  0  0  0999 V2000
   37.1450   27.2690   41.1100 C   0  0  0  0  0  0  0  0  0  0  0  0
   37.5950   27.1830   42.4380 C   0  0  0  0  0  0  0  0  0  0  0  0
   37.7900   28.2870   43.2530 C   0  0  0  0  0  0  0  0  0  0  0  0
   37.5210   29.5260   42.7050 C   0  0  0  0  0  0  0  0  0  0  0  0
   37.0780   29.6040   41.3930 C   0  0  0  0  0  0  0  0  0  0  0  0
   36.9120   28.5000   40.6650 N   0  0  0  0  0  0  0  0  0  0  0  0
   37.7990   26.1980   42.8480 H   0  0  0  0  0  0  0  0  0  0  0  0
   38.1380   28.1410   44.2670 H   0  0  0  0  0  0  0  0  0  0  0  0
   37.6850   30.3610   43.3720 H   0  0  0  0  0  0  0  0  0  0  0  0
   37.7610   21.4160   39.7680 C   0  0  0  0  0  0  0  0  0  0  0  0
   37.1780   21.4530   38.4940 C   0  0  0  0  0  0  0  0  0  0  0  0
   36.7770   22.6980   37.9950 C   0  0  0  0  0  0  0  0  0  0  0  0
   36.9620   23.8180   38.7480 N   0  0  0  0  0  0  0  0  0  0  0  0
   37.5340   23.7230   39.9800 C   0  0  0  0  0  0  0  0  0  0  0  0
   37.9430   22.5180   40.5090 N   0  0  0  0  0  0  0  0  0  0  0  0
   36.9730   26.0450   40.3370 C   0  0  0  0  0  0  0  0  0  0  0  0
   36.1730   26.0740   39.3530 O   0  0  0  0  0  0  0  0  0  0  0  0
   37.7180   24.9060   40.7490 N   0  0  0  0  0  0  0  0  0  0  0  0
   38.0410   20.4150   40.0770 H   0  0  0  0  0  0  0  0  0  0  0  0
   37.0100   20.6080   37.8650 H   0  0  0  0  0  0  0  0  0  0  0  0
   36.3150   22.8490   37.0220 H   0  0  0  0  0  0  0  0  0  0  0  0
   38.3700   24.9090   41.5650 H   0  0  0  0  0  0  0  0  0  0  0  0
   36.8050   30.9170   40.8490 C   0  0  0  0  0  3  0  0  0  0  0  0
   37.7740   31.7610   40.5600 C   0  0  0  0  0  3  0  0  0  0  0  0
   37.6080   33.1290   40.0000 C   0  0  0  0  0  0  0  0  0  0  0  0
   38.0340   33.0840   38.9770 H   0  0  0  0  0  0  0  0  0  0  0  0
   36.5020   33.3460   39.9320 H   0  0  0  0  0  0  0  0  0  0  0  0
   40.1850   35.2690   40.9340 H   0  0  0  0  0  0  0  0  0  0  0  0
   39.5640   34.5360   40.4420 C   0  0  0  0  0  0  0  0  0  0  0  0
   40.2370   34.1010   39.4750 O   0  0  0  0  0  0  0  0  0  0  0  0
   38.2500   34.1400   40.8140 N   0  0  0  0  0  0  0  0  0  0  0  0
   37.8850   34.6380   41.6590 H   0  0  0  0  0  0  0  0  0  0  0  0
  1  2  1  0  0  0  0
  2  7  1  0  0  0  0
  2  3  2  0  0  0  0
  3  8  1  0  0  0  0
  4  3  1  0  0  0  0
  4  9  1  0  0  0  0
  5  4  2  0  0  0  0
  6  1  2  0  0  0  0
  6  5  1  0  0  0  0
 10 19  1  0  0  0  0
 10 15  1  0  0  0  0
 11 10  2  0  0  0  0
 12 11  1  0  0  0  0
 12 13  2  0  0  0  0
 13 14  1  0  0  0  0
 14 15  2  0  0  0  0
 14 18  1  0  0  0  0
 16 18  1  0  0  0  0
 16  1  1  0  0  0  0
 17 16  2  0  0  0  0
 18 22  1  0  0  0  0
 20 11  1  0  0  0  0
 21 12  1  0  0  0  0
 23  5  1  0  0  0  0
 24 23  2  0  0  0  0
 25 24  1  0  0  0  0
 25 31  1  0  0  0  0
 26 25  1  0  0  0  0
 27 25  1  0  0  0  0
 29 31  1  0  0  0  0
 29 28  1  0  0  0  0
 30 29  2  0  0  0  0
 31 32  1  0  0  0  0
M  END
>  <minimizedAffinity>
-4.93880796

$$$$

 OpenBabel03242510583D

 32 33  0  0  0  0  0  0  0  0999 V2000
   38.2100   31.1170   40.7450 C   0  0  0  0  0  0  0  0  0  0  0  0
   37.1490   31.8620   40.2030 C   0  0  0  0  0  0  0  0  0  0  0  0
   37.2930   33.1470   39.7060 C   0  0  0  0  0  0  0  0  0  0  0  0
   38.5570   33.7010   39.7580 C   0  0  0  0  0  0  0  0  0  0  0  0
   39.6000   32.9600   40.2950 C   0  0  0  0  0  0  0  0  0  0  0  0
   39.3900   31.7280   40.7560 N   0  0  0  0  0  0  0  0  0  0  0  0
   36.1640   31.4050   40.1720 H   0  0  0  0  0  0  0  0  0  0  0  0
   36.4290   33.6590   39.3040 H   0  0  0  0  0  0  0  0  0  0  0  0
   38.6290   34.7050   39.3610 H   0  0  0  0  0  0  0  0  0  0  0  0
   38.5230   25.0890   40.8750 C   0  0  0  0  0  0  0  0  0  0  0  0
   37.6010   24.8750   41.9080 C   0  0  0  0  0  0  0  0  0  0  0  0
   36.9400   25.9920   42.4360 C   0  0  0  0  0  0  0  0  0  0  0  0
   37.2080   27.2310   41.9380 N   0  0  0  0  0  0  0  0  0  0  0  0
   38.1140   27.3800   40.9330 C   0  0  0  0  0  0  0  0  0  0  0  0
   38.7870   26.3090   40.3860 N   0  0  0  0  0  0  0  0  0  0  0  0
   37.9510   29.7700   41.2420 C   0  0  0  0  0  0  0  0  0  0  0  0
   37.3650   29.6550   42.3610 O   0  0  0  0  0  0  0  0  0  0  0  0
   38.3770   28.6840   40.4290 N   0  0  0  0  0  0  0  0  0  0  0  0
   38.9890   24.1740   40.5270 H   0  0  0  0  0  0  0  0  0  0  0  0
   37.3560   23.9280   42.3330 H   0  0  0  0  0  0  0  0  0  0  0  0
   36.2060   25.9470   43.2370 H   0  0  0  0  0  0  0  0  0  0  0  0
   38.8580   28.8070   39.5100 H   0  0  0  0  0  0  0  0  0  0  0  0
   40.9120   33.5700   40.3350 C   0  0  0  0  0  3  0  0  0  0  0  0
   41.7850   33.2730   41.2750 C   0  0  0  0  0  3  0  0  0  0  0  0
   43.1540   33.8370   41.4110 C   0  0  0  0  0  0  0  0  0  0  0  0
   43.8370   33.0510   41.0300 H   0  0  0  0  0  0  0  0  0  0  0  0
   43.2240   34.7450   40.7460 H   0  0  0  0  0  0  0  0  0  0  0  0
   45.2180   34.8320   44.0270 H   0  0  0  0  0  0  0  0  0  0  0  0
   44.8150   34.5360   43.0710 C   0  0  0  0  0  0  0  0  0  0  0  0
   45.7840   34.5330   42.2700 O   0  0  0  0  0  0  0  0  0  0  0  0
   43.4630   34.2110   42.7760 N   0  0  0  0  0  0  0  0  0  0  0  0
   42.8250   34.2810   43.6020 H   0  0  0  0  0  0  0  0  0  0  0  0
  1  6  1  0  0  0  0
  1 16  1  0  0  0  0
  2  1  2  0  0  0  0
  3  4  2  0  0  0  0
  3  2  1  0  0  0  0
  4  5  1  0  0  0  0
  5 23  1  0  0  0  0
  5  6  2  0  0  0  0
  7  2  1  0  0  0  0
  8  3  1  0  0  0  0
  9  4  1  0  0  0  0
 10 11  1  0  0  0  0
 11 20  1  0  0  0  0
 11 12  2  0  0  0  0
 12 21  1  0  0  0  0
 13 12  1  0  0  0  0
 14 13  2  0  0  0  0
 15 10  2  0  0  0  0
 15 14  1  0  0  0  0
 16 17  2  0  0  0  0
 18 14  1  0  0  0  0
 18 16  1  0  0  0  0
 19 10  1  0  0  0  0
 22 18  1  0  0  0  0
 23 24  2  0  0  0  0
 24 25  1  0  0  0  0
 25 31  1  0  0  0  0
 26 25  1  0  0  0  0
 27 25  1  0  0  0  0
 29 28  1  0  0  0  0
 30 29  2  0  0  0  0
 31 29  1  0  0  0  0
 31 32  1  0  0  0  0
M  END
>  <minimizedAffinity>
-4.88811255

$$$$
