
 OpenBabel03252509253D

 26 27  0  0  1  0  0  0  0  0999 V2000
   46.8880   35.1170   41.8330 C   0  0  1  0  0  0  0  0  0  0  0  0
   48.3750   35.5610   41.9240 C   0  0  0  0  0  0  0  0  0  0  0  0
   47.8350   34.2650   41.2440 C   0  0  2  0  0  0  0  0  0  0  0  0
   46.2570   35.8220   41.2530 H   0  0  0  0  0  0  0  0  0  0  0  0
   48.6490   36.3780   41.2620 H   0  0  0  0  0  0  0  0  0  0  0  0
   48.9060   35.4680   42.8680 H   0  0  0  0  0  0  0  0  0  0  0  0
   48.1550   33.3470   41.8280 H   0  0  0  0  0  0  0  0  0  0  0  0
   44.8220   35.1360   44.9650 C   0  0  0  0  0  0  0  0  0  0  0  0
   45.3130   35.5340   43.6930 C   0  0  0  0  0  0  0  0  0  0  0  0
   46.3510   34.8080   43.2120 C   0  0  0  0  0  0  0  0  0  0  0  0
   46.8970   33.7570   43.9120 N   0  0  0  0  0  0  0  0  0  0  0  0
   46.4040   33.4060   45.1200 C   0  0  0  0  0  0  0  0  0  0  0  0
   45.3600   34.1020   45.6490 N   0  0  0  0  0  0  0  0  0  0  0  0
   43.9930   35.6780   45.3980 H   0  0  0  0  0  0  0  0  0  0  0  0
   46.9210   32.5670   45.5600 H   0  0  0  0  0  0  0  0  0  0  0  0
   44.7760   36.6350   43.0070 N   0  0  0  0  0  0  0  0  0  0  0  0
   44.7650   37.5280   43.5600 H   0  0  0  0  0  0  0  0  0  0  0  0
   44.4670   36.4070   42.0520 H   0  0  0  0  0  0  0  0  0  0  0  0
   47.9580   34.1350   39.7440 C   0  0  0  0  0  0  0  0  0  0  0  0
   48.2640   35.1150   39.3160 H   0  0  0  0  0  0  0  0  0  0  0  0
   46.9940   33.7880   39.3110 H   0  0  0  0  0  0  0  0  0  0  0  0
   49.7050   31.7550   37.8520 H   0  0  0  0  0  0  0  0  0  0  0  0
   48.9690   32.4940   38.1590 C   0  0  0  0  0  0  0  0  0  0  0  0
   48.0290   32.7900   37.3540 O   0  0  0  0  0  0  0  0  0  0  0  0
   48.9850   33.1600   39.4160 N   0  0  0  0  0  0  0  0  0  0  0  0
   49.7770   32.8980   40.0720 H   0  0  0  0  0  0  0  0  0  0  0  0
  1  4  1  6  0  0  0
  1  2  1  0  0  0  0
  1 10  1  0  0  0  0
  2  6  1  0  0  0  0
  3  7  1  1  0  0  0
  3  1  1  0  0  0  0
  3  2  1  0  0  0  0
  5  2  1  0  0  0  0
  8 14  1  0  0  0  0
  8 13  1  0  0  0  0
  9  8  2  0  0  0  0
 10  9  1  0  0  0  0
 10 11  2  0  0  0  0
 11 12  1  0  0  0  0
 12 15  1  0  0  0  0
 12 13  2  0  0  0  0
 16 17  1  0  0  0  0
 16  9  1  0  0  0  0
 18 16  1  0  0  0  0
 19  3  1  0  0  0  0
 20 19  1  0  0  0  0
 21 19  1  0  0  0  0
 22 23  1  0  0  0  0
 23 25  1  0  0  0  0
 24 23  2  0  0  0  0
 25 19  1  0  0  0  0
 25 26  1  0  0  0  0
M  END
>  <minimizedAffinity>
-4.40143061

>  <minimizedRMSD>
1.0491842

$$$$
