
 OpenBabel03252501213D

 28 28  0  0  0  0  0  0  0  0999 V2000
   44.8080   36.3070   43.5210 C   0  0  0  0  0  0  0  0  0  0  0  0
   45.1390   36.5330   42.5210 H   0  0  0  0  0  0  0  0  0  0  0  0
   43.6970   36.1220   43.4530 H   0  0  0  0  0  0  0  0  0  0  0  0
   45.0220   34.7720   45.4230 C   0  0  0  0  0  0  0  0  0  0  0  0
   45.4000   35.1370   44.1400 C   0  0  0  0  0  0  0  0  0  0  0  0
   46.3470   34.3300   43.5190 C   0  0  0  0  0  0  0  0  0  0  0  0
   46.8610   33.2320   44.1810 N   0  0  0  0  0  0  0  0  0  0  0  0
   46.4510   32.9310   45.4290 C   0  0  0  0  0  0  0  0  0  0  0  0
   45.5210   33.7060   46.0660 N   0  0  0  0  0  0  0  0  0  0  0  0
   44.2870   35.3300   46.0100 H   0  0  0  0  0  0  0  0  0  0  0  0
   46.9530   32.0410   45.8000 H   0  0  0  0  0  0  0  0  0  0  0  0
   46.7280   34.7360   42.1630 C   0  0  0  0  0  0  0  0  0  0  0  0
   47.5660   33.7590   41.6210 F   0  0  0  0  0  0  0  0  0  0  0  0
   47.4650   35.8820   42.2830 F   0  0  0  0  0  0  0  0  0  0  0  0
   45.6570   34.8140   41.3360 F   0  0  0  0  0  0  0  0  0  0  0  0
   44.9070   37.4620   44.4340 N   0  0  0  0  0  0  0  0  0  0  0  0
   45.5670   37.2610   45.2090 H   0  0  0  0  0  0  0  0  0  0  0  0
   45.3910   38.5510   43.6460 C   0  0  0  0  0  0  0  0  0  0  0  0
   46.4640   38.4190   43.3330 H   0  0  0  0  0  0  0  0  0  0  0  0
   44.8160   38.6610   42.7060 H   0  0  0  0  0  0  0  0  0  0  0  0
   45.3900   39.8600   44.4170 C   0  0  0  0  0  0  0  0  0  0  0  0
   46.3500   40.3770   44.1300 H   0  0  0  0  0  0  0  0  0  0  0  0
   44.5600   40.5090   44.1460 H   0  0  0  0  0  0  0  0  0  0  0  0
   44.8220   40.6100   47.7170 H   0  0  0  0  0  0  0  0  0  0  0  0
   44.8230   40.6370   46.6530 C   0  0  0  0  0  0  0  0  0  0  0  0
   44.1730   41.6120   46.1930 O   0  0  0  0  0  0  0  0  0  0  0  0
   45.4940   39.6670   45.8490 N   0  0  0  0  0  0  0  0  0  0  0  0
   46.0140   38.8850   46.2770 H   0  0  0  0  0  0  0  0  0  0  0  0
  1  5  1  0  0  0  0
  1 16  1  0  0  0  0
  2  1  1  0  0  0  0
  3  1  1  0  0  0  0
  4 10  1  0  0  0  0
  4  9  1  0  0  0  0
  5  4  2  0  0  0  0
  6  5  1  0  0  0  0
  6  7  2  0  0  0  0
  7  8  1  0  0  0  0
  8 11  1  0  0  0  0
  8  9  2  0  0  0  0
 12 14  1  0  0  0  0
 12  6  1  0  0  0  0
 13 12  1  0  0  0  0
 15 12  1  0  0  0  0
 16 17  1  0  0  0  0
 18 21  1  0  0  0  0
 18 16  1  0  0  0  0
 19 18  1  0  0  0  0
 20 18  1  0  0  0  0
 21 27  1  0  0  0  0
 22 21  1  0  0  0  0
 23 21  1  0  0  0  0
 25 24  1  0  0  0  0
 26 25  2  0  0  0  0
 27 28  1  0  0  0  0
 27 25  1  0  0  0  0
M  END
>  <minimizedAffinity>
-4.88975048

>  <minimizedRMSD>
1.27175999

$$$$
