
 OpenBabel03252509253D

 26 27  0  0  1  0  0  0  0  0999 V2000
   46.6220   35.0740   41.8820 C   0  0  1  0  0  0  0  0  0  0  0  0
   48.1560   35.3220   41.8850 C   0  0  0  0  0  0  0  0  0  0  0  0
   47.4150   34.1070   41.2460 C   0  0  2  0  0  0  0  0  0  0  0  0
   46.0550   35.8550   41.3330 H   0  0  0  0  0  0  0  0  0  0  0  0
   48.4950   36.0970   41.2030 H   0  0  0  0  0  0  0  0  0  0  0  0
   48.7230   35.1600   42.7980 H   0  0  0  0  0  0  0  0  0  0  0  0
   47.6470   33.1550   41.8170 H   0  0  0  0  0  0  0  0  0  0  0  0
   44.7030   35.3070   45.0980 C   0  0  0  0  0  0  0  0  0  0  0  0
   45.1600   35.6390   43.7950 C   0  0  0  0  0  0  0  0  0  0  0  0
   46.1280   34.8360   43.2910 C   0  0  0  0  0  0  0  0  0  0  0  0
   46.6390   33.7710   43.9970 N   0  0  0  0  0  0  0  0  0  0  0  0
   46.1790   33.4860   45.2360 C   0  0  0  0  0  0  0  0  0  0  0  0
   45.2050   34.2590   45.7880 N   0  0  0  0  0  0  0  0  0  0  0  0
   43.9300   35.9120   45.5500 H   0  0  0  0  0  0  0  0  0  0  0  0
   46.6630   32.6270   45.6770 H   0  0  0  0  0  0  0  0  0  0  0  0
   44.6620   36.7530   43.1010 N   0  0  0  0  0  0  0  0  0  0  0  0
   44.7320   37.6600   43.6270 H   0  0  0  0  0  0  0  0  0  0  0  0
   44.2970   36.5200   42.1670 H   0  0  0  0  0  0  0  0  0  0  0  0
   47.4350   33.9630   39.7430 C   0  0  0  0  0  0  0  0  0  0  0  0
   47.9280   34.8540   39.2960 H   0  0  0  0  0  0  0  0  0  0  0  0
   46.3980   33.8400   39.3570 H   0  0  0  0  0  0  0  0  0  0  0  0
   49.5050   31.9060   37.7990 H   0  0  0  0  0  0  0  0  0  0  0  0
   48.9130   32.7530   38.1370 C   0  0  0  0  0  0  0  0  0  0  0  0
   48.8400   33.7830   37.3930 O   0  0  0  0  0  0  0  0  0  0  0  0
   48.2040   32.7870   39.3690 N   0  0  0  0  0  0  0  0  0  0  0  0
   48.2770   31.9180   39.9740 H   0  0  0  0  0  0  0  0  0  0  0  0
  1  4  1  6  0  0  0
  1  2  1  0  0  0  0
  1 10  1  0  0  0  0
  2  6  1  0  0  0  0
  3  7  1  1  0  0  0
  3  1  1  0  0  0  0
  3  2  1  0  0  0  0
  5  2  1  0  0  0  0
  8 14  1  0  0  0  0
  8 13  1  0  0  0  0
  9  8  2  0  0  0  0
 10  9  1  0  0  0  0
 10 11  2  0  0  0  0
 11 12  1  0  0  0  0
 12 15  1  0  0  0  0
 12 13  2  0  0  0  0
 16 17  1  0  0  0  0
 16  9  1  0  0  0  0
 18 16  1  0  0  0  0
 19  3  1  0  0  0  0
 20 19  1  0  0  0  0
 21 19  1  0  0  0  0
 22 23  1  0  0  0  0
 23 25  1  0  0  0  0
 24 23  2  0  0  0  0
 25 19  1  0  0  0  0
 25 26  1  0  0  0  0
M  END
>  <minimizedAffinity>
-4.29966927

>  <minimizedRMSD>
0.696578979

$$$$
