
 OpenBabel03252509253D

 26 27  0  0  1  0  0  0  0  0999 V2000
   46.7010   35.0750   41.9220 C   0  0  1  0  0  0  0  0  0  0  0  0
   48.2110   35.4360   41.9710 C   0  0  0  0  0  0  0  0  0  0  0  0
   47.5850   34.1550   41.3380 C   0  0  2  0  0  0  0  0  0  0  0  0
   46.0980   35.7990   41.3340 H   0  0  0  0  0  0  0  0  0  0  0  0
   48.5170   36.2180   41.2820 H   0  0  0  0  0  0  0  0  0  0  0  0
   48.7560   35.3390   42.9070 H   0  0  0  0  0  0  0  0  0  0  0  0
   47.8650   33.2360   41.9420 H   0  0  0  0  0  0  0  0  0  0  0  0
   44.7010   35.2920   45.0890 C   0  0  0  0  0  0  0  0  0  0  0  0
   45.1860   35.6260   43.7970 C   0  0  0  0  0  0  0  0  0  0  0  0
   46.1750   34.8340   43.3190 C   0  0  0  0  0  0  0  0  0  0  0  0
   46.6810   33.7770   44.0390 N   0  0  0  0  0  0  0  0  0  0  0  0
   46.1940   33.4880   45.2670 C   0  0  0  0  0  0  0  0  0  0  0  0
   45.1980   34.2510   45.7930 N   0  0  0  0  0  0  0  0  0  0  0  0
   43.9090   35.8880   45.5210 H   0  0  0  0  0  0  0  0  0  0  0  0
   46.6770   32.6360   45.7220 H   0  0  0  0  0  0  0  0  0  0  0  0
   44.6930   36.7340   43.0890 N   0  0  0  0  0  0  0  0  0  0  0  0
   44.7390   37.6420   43.6140 H   0  0  0  0  0  0  0  0  0  0  0  0
   44.3540   36.4950   42.1460 H   0  0  0  0  0  0  0  0  0  0  0  0
   47.6700   33.9790   39.8410 C   0  0  0  0  0  0  0  0  0  0  0  0
   48.1290   34.8850   39.3910 H   0  0  0  0  0  0  0  0  0  0  0  0
   46.6570   33.7880   39.4220 H   0  0  0  0  0  0  0  0  0  0  0  0
   48.7460   31.0730   38.1990 H   0  0  0  0  0  0  0  0  0  0  0  0
   48.1570   31.9420   38.4830 C   0  0  0  0  0  0  0  0  0  0  0  0
   47.0780   32.1810   37.8550 O   0  0  0  0  0  0  0  0  0  0  0  0
   48.5180   32.8410   39.5260 N   0  0  0  0  0  0  0  0  0  0  0  0
   49.4220   32.6230   40.0370 H   0  0  0  0  0  0  0  0  0  0  0  0
  1  4  1  6  0  0  0
  1  2  1  0  0  0  0
  1 10  1  0  0  0  0
  2  6  1  0  0  0  0
  3  1  1  0  0  0  0
  3  7  1  1  0  0  0
  3  2  1  0  0  0  0
  5  2  1  0  0  0  0
  8 14  1  0  0  0  0
  8 13  1  0  0  0  0
  9  8  2  0  0  0  0
 10  9  1  0  0  0  0
 10 11  2  0  0  0  0
 11 12  1  0  0  0  0
 12 15  1  0  0  0  0
 12 13  2  0  0  0  0
 16 17  1  0  0  0  0
 16  9  1  0  0  0  0
 18 16  1  0  0  0  0
 19  3  1  0  0  0  0
 20 19  1  0  0  0  0
 21 19  1  0  0  0  0
 22 23  1  0  0  0  0
 23 25  1  0  0  0  0
 24 23  2  0  0  0  0
 25 19  1  0  0  0  0
 25 26  1  0  0  0  0
M  END
>  <minimizedAffinity>
-4.16776133

>  <minimizedRMSD>
0.203284815

$$$$
