
 OpenBabel03252503203D

 35 37  0  0  0  0  0  0  0  0999 V2000
   35.4020   29.2370   39.6460 C   0  0  0  0  0  0  0  0  0  0  0  0
   34.2390   29.2860   40.1350 O   0  0  0  0  0  0  0  0  0  0  0  0
   36.3060   30.4070   39.4450 C   0  0  0  0  0  0  0  0  0  0  0  0
   36.5940   31.3910   40.3500 C   0  0  0  0  0  0  0  0  0  0  0  0
   37.4560   32.2290   39.7200 N   0  0  0  0  0  0  0  0  0  0  0  0
   37.6810   31.7720   38.4890 C   0  0  0  0  0  0  0  0  0  0  0  0
   36.9730   30.6500   38.3200 N   0  0  0  0  0  0  0  0  0  0  0  0
   38.4970   32.2860   37.4550 N   0  0  0  0  0  0  0  0  0  0  0  0
   36.2280   31.4980   41.3480 H   0  0  0  0  0  0  0  0  0  0  0  0
   38.0950   33.0280   36.8180 H   0  0  0  0  0  0  0  0  0  0  0  0
   39.4840   32.0290   37.2150 H   0  0  0  0  0  0  0  0  0  0  0  0
   38.0740   33.4430   40.2350 C   0  0  0  0  0  0  0  0  0  0  0  0
   37.3420   34.0320   40.8070 H   0  0  0  0  0  0  0  0  0  0  0  0
   38.3810   34.0430   39.3630 H   0  0  0  0  0  0  0  0  0  0  0  0
   41.4190   33.1760   40.9120 H   0  0  0  0  0  0  0  0  0  0  0  0
   40.4770   33.3630   40.4090 C   0  0  0  0  0  0  0  0  0  0  0  0
   40.5410   33.7870   39.2230 O   0  0  0  0  0  0  0  0  0  0  0  0
   39.2380   33.1410   41.0550 N   0  0  0  0  0  0  0  0  0  0  0  0
   39.1660   32.7910   42.0300 H   0  0  0  0  0  0  0  0  0  0  0  0
   35.4480   27.3880   38.0320 C   0  0  0  0  0  0  0  0  0  0  0  0
   35.8410   27.9340   39.2680 C   0  0  0  0  0  0  0  0  0  0  0  0
   36.6580   27.0960   40.0270 C   0  0  0  0  0  0  0  0  0  0  0  0
   37.0370   25.8950   39.6320 N   0  0  0  0  0  0  0  0  0  0  0  0
   36.6280   25.4130   38.4220 C   0  0  0  0  0  0  0  0  0  0  0  0
   35.8410   26.1640   37.6400 N   0  0  0  0  0  0  0  0  0  0  0  0
   34.8040   27.9760   37.3680 H   0  0  0  0  0  0  0  0  0  0  0  0
   36.9470   24.4250   38.1130 H   0  0  0  0  0  0  0  0  0  0  0  0
   37.0960   27.5790   41.2970 C   0  0  0  0  0  0  0  0  0  0  0  0
   36.5960   27.6160   42.5560 C   0  0  0  0  0  0  0  0  0  0  0  0
   37.2300   28.1370   43.5780 C   0  0  0  0  0  0  0  0  0  0  0  0
   38.4390   28.6470   43.3050 C   0  0  0  0  0  0  0  0  0  0  0  0
   38.6790   28.3730   41.5250 S   0  0  0  0  0  0  0  0  0  0  0  0
   35.5870   27.1570   42.6240 H   0  0  0  0  0  0  0  0  0  0  0  0
   36.8710   28.1890   44.5980 H   0  0  0  0  0  0  0  0  0  0  0  0
   39.1960   29.1630   44.0410 H   0  0  0  0  0  0  0  0  0  0  0  0
  1  2  2  0  0  0  0
  3  1  1  0  0  0  0
  3  4  2  0  0  0  0
  4  9  1  0  0  0  0
  5 12  1  0  0  0  0
  5  4  1  0  0  0  0
  6  5  1  0  0  0  0
  7  6  2  0  0  0  0
  7  3  1  0  0  0  0
  8  6  1  0  0  0  0
 10  8  1  0  0  0  0
 11  8  1  0  0  0  0
 12 13  1  0  0  0  0
 12 18  1  0  0  0  0
 14 12  1  0  0  0  0
 16 15  1  0  0  0  0
 16 18  1  0  0  0  0
 17 16  2  0  0  0  0
 18 19  1  0  0  0  0
 20 21  1  0  0  0  0
 21  1  1  0  0  0  0
 21 22  2  0  0  0  0
 22 28  1  0  0  0  0
 23 22  1  0  0  0  0
 24 23  2  0  0  0  0
 25 20  2  0  0  0  0
 25 24  1  0  0  0  0
 26 20  1  0  0  0  0
 27 24  1  0  0  0  0
 28 32  1  0  0  0  0
 28 29  2  0  0  0  0
 29 33  1  0  0  0  0
 29 30  1  0  0  0  0
 30 34  1  0  0  0  0
 31 30  2  0  0  0  0
 31 35  1  0  0  0  0
 32 31  1  0  0  0  0
M  END
>  <minimizedAffinity>
-5.35520554

$$$$

 OpenBabel03252503203D

 35 37  0  0  0  0  0  0  0  0999 V2000
   37.4360   31.0290   40.5190 C   0  0  0  0  0  0  0  0  0  0  0  0
   36.4360   31.1460   41.2810 O   0  0  0  0  0  0  0  0  0  0  0  0
   37.3830   30.9290   39.0310 C   0  0  0  0  0  0  0  0  0  0  0  0
   36.9090   29.8790   38.2940 C   0  0  0  0  0  0  0  0  0  0  0  0
   37.0650   30.2440   36.9950 N   0  0  0  0  0  0  0  0  0  0  0  0
   37.6080   31.4600   36.9500 C   0  0  0  0  0  0  0  0  0  0  0  0
   37.8030   31.8810   38.2040 N   0  0  0  0  0  0  0  0  0  0  0  0
   37.9610   32.2650   35.8430 N   0  0  0  0  0  0  0  0  0  0  0  0
   36.4990   28.9570   38.6430 H   0  0  0  0  0  0  0  0  0  0  0  0
   38.9060   32.1180   35.3940 H   0  0  0  0  0  0  0  0  0  0  0  0
   37.4000   33.0210   35.3810 H   0  0  0  0  0  0  0  0  0  0  0  0
   36.7210   29.4890   35.7980 C   0  0  0  0  0  0  0  0  0  0  0  0
   36.4650   30.1720   34.9740 H   0  0  0  0  0  0  0  0  0  0  0  0
   35.8200   28.9010   36.0370 H   0  0  0  0  0  0  0  0  0  0  0  0
   38.3360   26.4820   35.5560 H   0  0  0  0  0  0  0  0  0  0  0  0
   37.6050   27.2470   35.7900 C   0  0  0  0  0  0  0  0  0  0  0  0
   36.5780   26.8780   36.4210 O   0  0  0  0  0  0  0  0  0  0  0  0
   37.7980   28.5950   35.4040 N   0  0  0  0  0  0  0  0  0  0  0  0
   38.6380   28.9170   34.8840 H   0  0  0  0  0  0  0  0  0  0  0  0
   39.5890   32.0760   41.0590 C   0  0  0  0  0  0  0  0  0  0  0  0
   38.6970   30.9950   41.1840 C   0  0  0  0  0  0  0  0  0  0  0  0
   39.1700   29.9560   41.9850 C   0  0  0  0  0  0  0  0  0  0  0  0
   40.3480   29.9730   42.5800 N   0  0  0  0  0  0  0  0  0  0  0  0
   41.1760   31.0470   42.4260 C   0  0  0  0  0  0  0  0  0  0  0  0
   40.7870   32.0820   41.6700 N   0  0  0  0  0  0  0  0  0  0  0  0
   39.3020   32.9400   40.4480 H   0  0  0  0  0  0  0  0  0  0  0  0
   42.1400   31.0450   42.9200 H   0  0  0  0  0  0  0  0  0  0  0  0
   38.3220   28.8210   42.1570 C   0  0  0  0  0  0  0  0  0  0  0  0
   37.4000   28.4160   43.0640 C   0  0  0  0  0  0  0  0  0  0  0  0
   36.7420   27.2850   42.9800 C   0  0  0  0  0  0  0  0  0  0  0  0
   37.0360   26.5270   41.9160 C   0  0  0  0  0  0  0  0  0  0  0  0
   38.2980   27.4600   41.0020 S   0  0  0  0  0  0  0  0  0  0  0  0
   37.2660   29.1480   43.8880 H   0  0  0  0  0  0  0  0  0  0  0  0
   35.9990   26.9220   43.6790 H   0  0  0  0  0  0  0  0  0  0  0  0
   36.5870   25.4810   41.6190 H   0  0  0  0  0  0  0  0  0  0  0  0
  1 21  1  0  0  0  0
  1  2  2  0  0  0  0
  3  1  1  0  0  0  0
  4  9  1  0  0  0  0
  4  3  2  0  0  0  0
  5  4  1  0  0  0  0
  6  5  1  0  0  0  0
  6  7  2  0  0  0  0
  7  3  1  0  0  0  0
  8  6  1  0  0  0  0
 10  8  1  0  0  0  0
 11  8  1  0  0  0  0
 12 14  1  0  0  0  0
 12  5  1  0  0  0  0
 13 12  1  0  0  0  0
 15 16  1  0  0  0  0
 16 17  2  0  0  0  0
 18 16  1  0  0  0  0
 18 12  1  0  0  0  0
 19 18  1  0  0  0  0
 20 21  2  0  0  0  0
 20 25  1  0  0  0  0
 21 22  1  0  0  0  0
 22 28  1  0  0  0  0
 22 23  2  0  0  0  0
 24 23  1  0  0  0  0
 24 27  1  0  0  0  0
 25 24  2  0  0  0  0
 26 20  1  0  0  0  0
 28 29  2  0  0  0  0
 29 33  1  0  0  0  0
 30 29  1  0  0  0  0
 30 34  1  0  0  0  0
 31 30  2  0  0  0  0
 32 31  1  0  0  0  0
 32 28  1  0  0  0  0
 35 31  1  0  0  0  0
M  END
>  <minimizedAffinity>
-5.34518099

$$$$

 OpenBabel03252503203D

 35 37  0  0  0  0  0  0  0  0999 V2000
   37.4510   30.8660   40.8230 C   0  0  0  0  0  0  0  0  0  0  0  0
   36.4340   31.5780   41.0530 O   0  0  0  0  0  0  0  0  0  0  0  0
   38.5820   31.2380   39.9250 C   0  0  0  0  0  0  0  0  0  0  0  0
   39.9090   31.2950   40.2520 C   0  0  0  0  0  0  0  0  0  0  0  0
   40.5510   31.6780   39.1180 N   0  0  0  0  0  0  0  0  0  0  0  0
   39.6530   31.8440   38.1490 C   0  0  0  0  0  0  0  0  0  0  0  0
   38.4410   31.5730   38.6460 N   0  0  0  0  0  0  0  0  0  0  0  0
   39.8210   32.2330   36.8000 N   0  0  0  0  0  0  0  0  0  0  0  0
   40.3670   31.0870   41.1940 H   0  0  0  0  0  0  0  0  0  0  0  0
   39.8610   33.2640   36.5740 H   0  0  0  0  0  0  0  0  0  0  0  0
   39.9150   31.6220   35.9530 H   0  0  0  0  0  0  0  0  0  0  0  0
   41.9770   31.8910   38.9170 C   0  0  0  0  0  0  0  0  0  0  0  0
   42.2400   31.7470   37.8590 H   0  0  0  0  0  0  0  0  0  0  0  0
   42.5040   31.1200   39.5020 H   0  0  0  0  0  0  0  0  0  0  0  0
   42.8810   35.1700   38.5330 H   0  0  0  0  0  0  0  0  0  0  0  0
   42.5750   34.1510   38.3270 C   0  0  0  0  0  0  0  0  0  0  0  0
   42.3960   33.8440   37.1180 O   0  0  0  0  0  0  0  0  0  0  0  0
   42.3870   33.2120   39.3690 N   0  0  0  0  0  0  0  0  0  0  0  0
   42.5300   33.4460   40.3710 H   0  0  0  0  0  0  0  0  0  0  0  0
   38.2180   29.4600   42.6830 C   0  0  0  0  0  0  0  0  0  0  0  0
   37.4710   29.6110   41.5000 C   0  0  0  0  0  0  0  0  0  0  0  0
   36.7980   28.4570   41.1000 C   0  0  0  0  0  0  0  0  0  0  0  0
   36.8490   27.3170   41.7630 N   0  0  0  0  0  0  0  0  0  0  0  0
   37.5900   27.2240   42.9070 C   0  0  0  0  0  0  0  0  0  0  0  0
   38.2620   28.2940   43.3500 N   0  0  0  0  0  0  0  0  0  0  0  0
   38.7810   30.3160   43.0740 H   0  0  0  0  0  0  0  0  0  0  0  0
   37.6220   26.2810   43.4390 H   0  0  0  0  0  0  0  0  0  0  0  0
   36.0200   28.5300   39.9060 C   0  0  0  0  0  0  0  0  0  0  0  0
   34.7450   28.8590   39.5860 C   0  0  0  0  0  0  0  0  0  0  0  0
   34.2710   28.8410   38.3640 C   0  0  0  0  0  0  0  0  0  0  0  0
   35.1410   28.4690   37.4160 C   0  0  0  0  0  0  0  0  0  0  0  0
   36.6920   28.1320   38.3000 S   0  0  0  0  0  0  0  0  0  0  0  0
   34.1460   29.1450   40.4760 H   0  0  0  0  0  0  0  0  0  0  0  0
   33.2630   29.0950   38.0630 H   0  0  0  0  0  0  0  0  0  0  0  0
   34.9610   28.3740   36.2570 H   0  0  0  0  0  0  0  0  0  0  0  0
  1  2  2  0  0  0  0
  1 21  1  0  0  0  0
  3  4  2  0  0  0  0
  3  1  1  0  0  0  0
  4  9  1  0  0  0  0
  5  4  1  0  0  0  0
  6  7  2  0  0  0  0
  6  5  1  0  0  0  0
  7  3  1  0  0  0  0
  8  6  1  0  0  0  0
 10  8  1  0  0  0  0
 11  8  1  0  0  0  0
 12  5  1  0  0  0  0
 12 18  1  0  0  0  0
 12 14  1  0  0  0  0
 13 12  1  0  0  0  0
 16 15  1  0  0  0  0
 16 18  1  0  0  0  0
 17 16  2  0  0  0  0
 18 19  1  0  0  0  0
 20 26  1  0  0  0  0
 20 25  1  0  0  0  0
 21 20  2  0  0  0  0
 22 21  1  0  0  0  0
 22 23  2  0  0  0  0
 23 24  1  0  0  0  0
 24 25  2  0  0  0  0
 24 27  1  0  0  0  0
 28 22  1  0  0  0  0
 29 28  2  0  0  0  0
 29 33  1  0  0  0  0
 30 29  1  0  0  0  0
 31 32  1  0  0  0  0
 31 30  2  0  0  0  0
 32 28  1  0  0  0  0
 34 30  1  0  0  0  0
 35 31  1  0  0  0  0
M  END
>  <minimizedAffinity>
-5.19440365

$$$$

 OpenBabel03252503203D

 35 37  0  0  0  0  0  0  0  0999 V2000
   36.5880   30.6100   39.6410 C   0  0  0  0  0  0  0  0  0  0  0  0
   35.6490   30.3280   40.4370 O   0  0  0  0  0  0  0  0  0  0  0  0
   36.8900   29.8890   38.3700 C   0  0  0  0  0  0  0  0  0  0  0  0
   36.0140   29.5990   37.3590 C   0  0  0  0  0  0  0  0  0  0  0  0
   36.7420   28.9390   36.4220 N   0  0  0  0  0  0  0  0  0  0  0  0
   38.0010   28.8360   36.8450 C   0  0  0  0  0  0  0  0  0  0  0  0
   38.0910   29.4210   38.0450 N   0  0  0  0  0  0  0  0  0  0  0  0
   39.1280   28.2410   36.2340 N   0  0  0  0  0  0  0  0  0  0  0  0
   34.9740   29.8310   37.2990 H   0  0  0  0  0  0  0  0  0  0  0  0
   39.2810   27.2030   36.3610 H   0  0  0  0  0  0  0  0  0  0  0  0
   39.8680   28.6970   35.6470 H   0  0  0  0  0  0  0  0  0  0  0  0
   36.2940   28.4040   35.1440 C   0  0  0  0  0  0  0  0  0  0  0  0
   35.2150   28.5750   35.0140 H   0  0  0  0  0  0  0  0  0  0  0  0
   36.4600   27.3140   35.1750 H   0  0  0  0  0  0  0  0  0  0  0  0
   36.9080   30.6650   32.6480 H   0  0  0  0  0  0  0  0  0  0  0  0
   36.4510   30.1410   33.4800 C   0  0  0  0  0  0  0  0  0  0  0  0
   35.3720   30.6170   33.9270 O   0  0  0  0  0  0  0  0  0  0  0  0
   37.0390   28.9800   34.0350 N   0  0  0  0  0  0  0  0  0  0  0  0
   37.9260   28.5730   33.6800 H   0  0  0  0  0  0  0  0  0  0  0  0
   37.1740   32.9870   39.4750 C   0  0  0  0  0  0  0  0  0  0  0  0
   37.3980   31.7150   40.0340 C   0  0  0  0  0  0  0  0  0  0  0  0
   38.4410   31.6740   40.9580 C   0  0  0  0  0  0  0  0  0  0  0  0
   39.1630   32.7290   41.2880 N   0  0  0  0  0  0  0  0  0  0  0  0
   38.9040   33.9410   40.7160 C   0  0  0  0  0  0  0  0  0  0  0  0
   37.9150   34.0540   39.8200 N   0  0  0  0  0  0  0  0  0  0  0  0
   36.3720   33.1150   38.7380 H   0  0  0  0  0  0  0  0  0  0  0  0
   39.5060   34.7970   40.9980 H   0  0  0  0  0  0  0  0  0  0  0  0
   38.7320   30.4160   41.5660 C   0  0  0  0  0  0  0  0  0  0  0  0
   38.2490   29.6980   42.6090 C   0  0  0  0  0  0  0  0  0  0  0  0
   38.7160   28.5260   42.9660 C   0  0  0  0  0  0  0  0  0  0  0  0
   39.7270   28.0590   42.2210 C   0  0  0  0  0  0  0  0  0  0  0  0
   40.0240   29.3390   40.9670 S   0  0  0  0  0  0  0  0  0  0  0  0
   37.4150   30.2140   43.1280 H   0  0  0  0  0  0  0  0  0  0  0  0
   38.3620   27.9180   43.7880 H   0  0  0  0  0  0  0  0  0  0  0  0
   40.3100   27.0440   42.3370 H   0  0  0  0  0  0  0  0  0  0  0  0
  1 21  1  0  0  0  0
  1  2  2  0  0  0  0
  3  1  1  0  0  0  0
  4  3  2  0  0  0  0
  5  6  1  0  0  0  0
  5  4  1  0  0  0  0
  6  7  2  0  0  0  0
  7  3  1  0  0  0  0
  8 10  1  0  0  0  0
  8  6  1  0  0  0  0
  9  4  1  0  0  0  0
 11  8  1  0  0  0  0
 12 14  1  0  0  0  0
 12  5  1  0  0  0  0
 13 12  1  0  0  0  0
 15 16  1  0  0  0  0
 16 17  2  0  0  0  0
 16 18  1  0  0  0  0
 18 12  1  0  0  0  0
 19 18  1  0  0  0  0
 20 25  2  0  0  0  0
 20 21  1  0  0  0  0
 21 22  2  0  0  0  0
 22 23  1  0  0  0  0
 22 28  1  0  0  0  0
 24 27  1  0  0  0  0
 24 23  2  0  0  0  0
 25 24  1  0  0  0  0
 26 20  1  0  0  0  0
 28 29  2  0  0  0  0
 29 30  1  0  0  0  0
 29 33  1  0  0  0  0
 30 34  1  0  0  0  0
 31 35  1  0  0  0  0
 31 30  2  0  0  0  0
 32 28  1  0  0  0  0
 32 31  1  0  0  0  0
M  END
>  <minimizedAffinity>
-5.18030643

$$$$

 OpenBabel03252503203D

 35 37  0  0  0  0  0  0  0  0999 V2000
   37.8410   27.7580   42.6690 C   0  0  0  0  0  0  0  0  0  0  0  0
   36.8750   27.4070   43.4030 O   0  0  0  0  0  0  0  0  0  0  0  0
   37.8350   28.9150   41.7270 C   0  0  0  0  0  0  0  0  0  0  0  0
   38.6360   29.0880   40.6320 C   0  0  0  0  0  0  0  0  0  0  0  0
   38.2670   30.2790   40.0930 N   0  0  0  0  0  0  0  0  0  0  0  0
   37.2870   30.8010   40.8280 C   0  0  0  0  0  0  0  0  0  0  0  0
   37.0210   29.9610   41.8340 N   0  0  0  0  0  0  0  0  0  0  0  0
   36.5740   32.0130   40.6780 N   0  0  0  0  0  0  0  0  0  0  0  0
   39.3980   28.4390   40.2600 H   0  0  0  0  0  0  0  0  0  0  0  0
   36.9890   32.8950   41.0870 H   0  0  0  0  0  0  0  0  0  0  0  0
   35.6550   32.1740   40.2020 H   0  0  0  0  0  0  0  0  0  0  0  0
   38.8050   30.9400   38.9120 C   0  0  0  0  0  0  0  0  0  0  0  0
   38.1420   31.7590   38.5960 H   0  0  0  0  0  0  0  0  0  0  0  0
   38.8210   30.1910   38.1030 H   0  0  0  0  0  0  0  0  0  0  0  0
   41.1570   33.2810   39.7500 H   0  0  0  0  0  0  0  0  0  0  0  0
   40.2120   32.7920   39.5450 C   0  0  0  0  0  0  0  0  0  0  0  0
   39.1700   33.4910   39.6790 O   0  0  0  0  0  0  0  0  0  0  0  0
   40.1520   31.4360   39.1460 N   0  0  0  0  0  0  0  0  0  0  0  0
   40.9990   30.8450   39.0300 H   0  0  0  0  0  0  0  0  0  0  0  0
   40.1050   27.4020   43.5440 C   0  0  0  0  0  0  0  0  0  0  0  0
   39.0090   26.9500   42.7870 C   0  0  0  0  0  0  0  0  0  0  0  0
   39.1960   25.6970   42.2050 C   0  0  0  0  0  0  0  0  0  0  0  0
   40.3000   24.9860   42.3450 N   0  0  0  0  0  0  0  0  0  0  0  0
   41.3350   25.4710   43.0910 C   0  0  0  0  0  0  0  0  0  0  0  0
   41.2250   26.6690   43.6800 N   0  0  0  0  0  0  0  0  0  0  0  0
   40.0480   28.3780   44.0400 H   0  0  0  0  0  0  0  0  0  0  0  0
   42.2340   24.8760   43.1950 H   0  0  0  0  0  0  0  0  0  0  0  0
   38.1280   25.1710   41.4170 C   0  0  0  0  0  0  0  0  0  0  0  0
   37.0540   24.3730   41.6320 C   0  0  0  0  0  0  0  0  0  0  0  0
   36.1990   24.0340   40.6980 C   0  0  0  0  0  0  0  0  0  0  0  0
   36.4490   24.5350   39.4810 C   0  0  0  0  0  0  0  0  0  0  0  0
   37.9600   25.5250   39.6760 S   0  0  0  0  0  0  0  0  0  0  0  0
   36.9810   24.0370   42.6880 H   0  0  0  0  0  0  0  0  0  0  0  0
   35.3300   23.4010   40.8230 H   0  0  0  0  0  0  0  0  0  0  0  0
   35.8370   24.3800   38.4880 H   0  0  0  0  0  0  0  0  0  0  0  0
  1 21  1  0  0  0  0
  1  2  2  0  0  0  0
  3  7  1  0  0  0  0
  3  1  1  0  0  0  0
  4  3  2  0  0  0  0
  5  4  1  0  0  0  0
  5  6  1  0  0  0  0
  6  7  2  0  0  0  0
  8  6  1  0  0  0  0
  8 10  1  0  0  0  0
  9  4  1  0  0  0  0
 11  8  1  0  0  0  0
 12 18  1  0  0  0  0
 12  5  1  0  0  0  0
 13 12  1  0  0  0  0
 14 12  1  0  0  0  0
 16 17  2  0  0  0  0
 16 15  1  0  0  0  0
 18 16  1  0  0  0  0
 19 18  1  0  0  0  0
 20 25  1  0  0  0  0
 20 26  1  0  0  0  0
 21 20  2  0  0  0  0
 22 23  2  0  0  0  0
 22 21  1  0  0  0  0
 23 24  1  0  0  0  0
 24 27  1  0  0  0  0
 24 25  2  0  0  0  0
 28 29  2  0  0  0  0
 28 22  1  0  0  0  0
 29 33  1  0  0  0  0
 30 34  1  0  0  0  0
 30 29  1  0  0  0  0
 31 32  1  0  0  0  0
 31 30  2  0  0  0  0
 32 28  1  0  0  0  0
 35 31  1  0  0  0  0
M  END
>  <minimizedAffinity>
-5.16338253

$$$$

 OpenBabel03252503203D

 35 37  0  0  0  0  0  0  0  0999 V2000
   35.5650   29.2140   40.2840 C   0  0  0  0  0  0  0  0  0  0  0  0
   34.3210   29.0270   40.1740 O   0  0  0  0  0  0  0  0  0  0  0  0
   36.2950   30.4440   39.8580 C   0  0  0  0  0  0  0  0  0  0  0  0
   36.5970   31.5310   40.6300 C   0  0  0  0  0  0  0  0  0  0  0  0
   37.2620   32.3890   39.8120 N   0  0  0  0  0  0  0  0  0  0  0  0
   37.3580   31.8430   38.6010 C   0  0  0  0  0  0  0  0  0  0  0  0
   36.7630   30.6460   38.6290 N   0  0  0  0  0  0  0  0  0  0  0  0
   37.9550   32.3370   37.4180 N   0  0  0  0  0  0  0  0  0  0  0  0
   36.3680   31.6950   41.6600 H   0  0  0  0  0  0  0  0  0  0  0  0
   37.3870   32.9730   36.7950 H   0  0  0  0  0  0  0  0  0  0  0  0
   38.9210   32.1570   37.0520 H   0  0  0  0  0  0  0  0  0  0  0  0
   37.8080   33.7000   40.1330 C   0  0  0  0  0  0  0  0  0  0  0  0
   37.0170   34.3620   40.5140 H   0  0  0  0  0  0  0  0  0  0  0  0
   38.1820   34.1320   39.1900 H   0  0  0  0  0  0  0  0  0  0  0  0
   41.0800   33.4620   41.1110 H   0  0  0  0  0  0  0  0  0  0  0  0
   40.1840   33.5360   40.5040 C   0  0  0  0  0  0  0  0  0  0  0  0
   40.3450   33.5610   39.2540 O   0  0  0  0  0  0  0  0  0  0  0  0
   38.8980   33.6030   41.0910 N   0  0  0  0  0  0  0  0  0  0  0  0
   38.7470   33.5830   42.1180 H   0  0  0  0  0  0  0  0  0  0  0  0
   36.5480   28.1230   42.2490 C   0  0  0  0  0  0  0  0  0  0  0  0
   36.2860   28.1320   40.8670 C   0  0  0  0  0  0  0  0  0  0  0  0
   36.7880   27.0240   40.1850 C   0  0  0  0  0  0  0  0  0  0  0  0
   37.4520   26.0460   40.7720 N   0  0  0  0  0  0  0  0  0  0  0  0
   37.6780   26.0860   42.1180 C   0  0  0  0  0  0  0  0  0  0  0  0
   37.2250   27.1210   42.8370 N   0  0  0  0  0  0  0  0  0  0  0  0
   36.1900   28.9550   42.8680 H   0  0  0  0  0  0  0  0  0  0  0  0
   38.2250   25.2760   42.5850 H   0  0  0  0  0  0  0  0  0  0  0  0
   36.5660   26.9630   38.7760 C   0  0  0  0  0  0  0  0  0  0  0  0
   35.5410   26.6140   37.9610 C   0  0  0  0  0  0  0  0  0  0  0  0
   35.6050   26.6530   36.6520 C   0  0  0  0  0  0  0  0  0  0  0  0
   36.7730   27.0690   36.1450 C   0  0  0  0  0  0  0  0  0  0  0  0
   37.8190   27.4180   37.5890 S   0  0  0  0  0  0  0  0  0  0  0  0
   34.6420   26.2910   38.5260 H   0  0  0  0  0  0  0  0  0  0  0  0
   34.8140   26.3840   35.9630 H   0  0  0  0  0  0  0  0  0  0  0  0
   37.0770   27.1890   35.0150 H   0  0  0  0  0  0  0  0  0  0  0  0
  1 21  1  0  0  0  0
  2  1  2  0  0  0  0
  3  1  1  0  0  0  0
  3  4  2  0  0  0  0
  4  9  1  0  0  0  0
  5 12  1  0  0  0  0
  5  4  1  0  0  0  0
  6  7  2  0  0  0  0
  6  5  1  0  0  0  0
  7  3  1  0  0  0  0
  8  6  1  0  0  0  0
 10  8  1  0  0  0  0
 11  8  1  0  0  0  0
 12 13  1  0  0  0  0
 12 18  1  0  0  0  0
 14 12  1  0  0  0  0
 16 18  1  0  0  0  0
 16 15  1  0  0  0  0
 17 16  2  0  0  0  0
 18 19  1  0  0  0  0
 20 25  1  0  0  0  0
 20 26  1  0  0  0  0
 21 20  2  0  0  0  0
 22 23  2  0  0  0  0
 22 21  1  0  0  0  0
 23 24  1  0  0  0  0
 24 27  1  0  0  0  0
 24 25  2  0  0  0  0
 28 22  1  0  0  0  0
 29 33  1  0  0  0  0
 29 28  2  0  0  0  0
 30 29  1  0  0  0  0
 31 30  2  0  0  0  0
 31 32  1  0  0  0  0
 32 28  1  0  0  0  0
 34 30  1  0  0  0  0
 35 31  1  0  0  0  0
M  END
>  <minimizedAffinity>
-5.1548624

$$$$

 OpenBabel03252503203D

 35 37  0  0  0  0  0  0  0  0999 V2000
   37.0940   28.1720   38.8250 C   0  0  0  0  0  0  0  0  0  0  0  0
   35.9370   27.6690   38.8800 O   0  0  0  0  0  0  0  0  0  0  0  0
   37.3990   29.6210   38.6350 C   0  0  0  0  0  0  0  0  0  0  0  0
   36.8990   30.6690   39.3570 C   0  0  0  0  0  0  0  0  0  0  0  0
   37.4600   31.7840   38.8220 N   0  0  0  0  0  0  0  0  0  0  0  0
   38.2650   31.4250   37.8230 C   0  0  0  0  0  0  0  0  0  0  0  0
   38.2270   30.0930   37.7080 N   0  0  0  0  0  0  0  0  0  0  0  0
   39.0670   32.2120   36.9640 N   0  0  0  0  0  0  0  0  0  0  0  0
   36.2100   30.6410   40.1720 H   0  0  0  0  0  0  0  0  0  0  0  0
   38.6220   32.6290   36.1010 H   0  0  0  0  0  0  0  0  0  0  0  0
   40.0830   32.4520   37.0600 H   0  0  0  0  0  0  0  0  0  0  0  0
   37.2660   33.1710   39.2190 C   0  0  0  0  0  0  0  0  0  0  0  0
   36.2040   33.4480   39.1370 H   0  0  0  0  0  0  0  0  0  0  0  0
   37.8310   33.7930   38.5040 H   0  0  0  0  0  0  0  0  0  0  0  0
   39.5790   34.0680   41.5760 H   0  0  0  0  0  0  0  0  0  0  0  0
   39.0980   33.8540   40.6290 C   0  0  0  0  0  0  0  0  0  0  0  0
   39.7910   34.0160   39.5890 O   0  0  0  0  0  0  0  0  0  0  0  0
   37.7540   33.4130   40.5670 N   0  0  0  0  0  0  0  0  0  0  0  0
   37.1680   33.2740   41.4130 H   0  0  0  0  0  0  0  0  0  0  0  0
   38.7830   26.7080   37.8130 C   0  0  0  0  0  0  0  0  0  0  0  0
   38.1620   27.2380   38.9590 C   0  0  0  0  0  0  0  0  0  0  0  0
   38.6890   26.7680   40.1610 C   0  0  0  0  0  0  0  0  0  0  0  0
   39.6820   25.9010   40.2320 N   0  0  0  0  0  0  0  0  0  0  0  0
   40.2490   25.4170   39.0880 C   0  0  0  0  0  0  0  0  0  0  0  0
   39.7930   25.8250   37.8970 N   0  0  0  0  0  0  0  0  0  0  0  0
   38.4340   27.0210   36.8220 H   0  0  0  0  0  0  0  0  0  0  0  0
   41.0630   24.7050   39.1630 H   0  0  0  0  0  0  0  0  0  0  0  0
   38.1100   27.2590   41.3700 C   0  0  0  0  0  0  0  0  0  0  0  0
   37.0770   26.9080   42.1730 C   0  0  0  0  0  0  0  0  0  0  0  0
   36.7500   27.5550   43.2650 C   0  0  0  0  0  0  0  0  0  0  0  0
   37.5150   28.6160   43.5560 C   0  0  0  0  0  0  0  0  0  0  0  0
   38.7460   28.6930   42.2220 S   0  0  0  0  0  0  0  0  0  0  0  0
   36.5380   26.0110   41.8030 H   0  0  0  0  0  0  0  0  0  0  0  0
   35.9350   27.3120   43.9360 H   0  0  0  0  0  0  0  0  0  0  0  0
   37.4270   29.3510   44.4700 H   0  0  0  0  0  0  0  0  0  0  0  0
  1  2  2  0  0  0  0
  1 21  1  0  0  0  0
  3  1  1  0  0  0  0
  3  4  2  0  0  0  0
  4  9  1  0  0  0  0
  5 12  1  0  0  0  0
  5  4  1  0  0  0  0
  6  5  1  0  0  0  0
  7  6  2  0  0  0  0
  7  3  1  0  0  0  0
  8 11  1  0  0  0  0
  8  6  1  0  0  0  0
 10  8  1  0  0  0  0
 12 18  1  0  0  0  0
 13 12  1  0  0  0  0
 14 12  1  0  0  0  0
 16 15  1  0  0  0  0
 17 16  2  0  0  0  0
 18 16  1  0  0  0  0
 18 19  1  0  0  0  0
 20 25  2  0  0  0  0
 20 21  1  0  0  0  0
 21 22  2  0  0  0  0
 22 23  1  0  0  0  0
 22 28  1  0  0  0  0
 24 27  1  0  0  0  0
 24 23  2  0  0  0  0
 25 24  1  0  0  0  0
 26 20  1  0  0  0  0
 28 29  2  0  0  0  0
 28 32  1  0  0  0  0
 29 30  1  0  0  0  0
 30 31  2  0  0  0  0
 30 34  1  0  0  0  0
 31 35  1  0  0  0  0
 32 31  1  0  0  0  0
 33 29  1  0  0  0  0
M  END
>  <minimizedAffinity>
-5.15051603

$$$$

 OpenBabel03252503203D

 35 37  0  0  0  0  0  0  0  0999 V2000
   39.3270   31.3350   41.3290 C   0  0  0  0  0  0  0  0  0  0  0  0
   39.7820   31.4980   42.4960 O   0  0  0  0  0  0  0  0  0  0  0  0
   39.8780   31.9590   40.0910 C   0  0  0  0  0  0  0  0  0  0  0  0
   40.8500   32.9180   40.0140 C   0  0  0  0  0  0  0  0  0  0  0  0
   41.0150   33.1680   38.6900 N   0  0  0  0  0  0  0  0  0  0  0  0
   40.1800   32.3950   37.9970 C   0  0  0  0  0  0  0  0  0  0  0  0
   39.4800   31.6500   38.8600 N   0  0  0  0  0  0  0  0  0  0  0  0
   39.9750   32.2870   36.6020 N   0  0  0  0  0  0  0  0  0  0  0  0
   41.3810   33.3860   40.8140 H   0  0  0  0  0  0  0  0  0  0  0  0
   39.3110   32.9640   36.1360 H   0  0  0  0  0  0  0  0  0  0  0  0
   40.4030   31.6040   35.9320 H   0  0  0  0  0  0  0  0  0  0  0  0
   41.9290   34.1080   38.0560 C   0  0  0  0  0  0  0  0  0  0  0  0
   42.4460   34.7110   38.8170 H   0  0  0  0  0  0  0  0  0  0  0  0
   41.3160   34.7920   37.4460 H   0  0  0  0  0  0  0  0  0  0  0  0
   45.0160   32.9120   37.1870 H   0  0  0  0  0  0  0  0  0  0  0  0
   44.2070   33.3930   37.7250 C   0  0  0  0  0  0  0  0  0  0  0  0
   44.4950   33.9200   38.8340 O   0  0  0  0  0  0  0  0  0  0  0  0
   42.8910   33.4240   37.2060 N   0  0  0  0  0  0  0  0  0  0  0  0
   42.6350   32.9960   36.2950 H   0  0  0  0  0  0  0  0  0  0  0  0
   36.9200   31.0160   40.9730 C   0  0  0  0  0  0  0  0  0  0  0  0
   38.1920   30.4770   41.2420 C   0  0  0  0  0  0  0  0  0  0  0  0
   38.2020   29.0920   41.4010 C   0  0  0  0  0  0  0  0  0  0  0  0
   37.1200   28.3400   41.3090 N   0  0  0  0  0  0  0  0  0  0  0  0
   35.9100   28.9140   41.0460 C   0  0  0  0  0  0  0  0  0  0  0  0
   35.8250   30.2400   40.8820 N   0  0  0  0  0  0  0  0  0  0  0  0
   36.8150   32.0980   40.8330 H   0  0  0  0  0  0  0  0  0  0  0  0
   35.0320   28.2830   40.9750 H   0  0  0  0  0  0  0  0  0  0  0  0
   39.4560   28.4710   41.6790 C   0  0  0  0  0  0  0  0  0  0  0  0
   40.1310   28.0790   42.7870 C   0  0  0  0  0  0  0  0  0  0  0  0
   41.3120   27.5120   42.7590 C   0  0  0  0  0  0  0  0  0  0  0  0
   41.8350   27.3310   41.5390 C   0  0  0  0  0  0  0  0  0  0  0  0
   40.5960   27.9970   40.3890 S   0  0  0  0  0  0  0  0  0  0  0  0
   39.5710   28.2940   43.7210 H   0  0  0  0  0  0  0  0  0  0  0  0
   41.8860   27.1830   43.6160 H   0  0  0  0  0  0  0  0  0  0  0  0
   42.8690   26.8500   41.2520 H   0  0  0  0  0  0  0  0  0  0  0  0
  1  2  2  0  0  0  0
  3  1  1  0  0  0  0
  4  3  2  0  0  0  0
  4  9  1  0  0  0  0
  5  4  1  0  0  0  0
  6  5  1  0  0  0  0
  6  7  2  0  0  0  0
  7  3  1  0  0  0  0
  8  6  1  0  0  0  0
 10  8  1  0  0  0  0
 11  8  1  0  0  0  0
 12  5  1  0  0  0  0
 12 13  1  0  0  0  0
 14 12  1  0  0  0  0
 15 16  1  0  0  0  0
 16 17  2  0  0  0  0
 18 16  1  0  0  0  0
 18 12  1  0  0  0  0
 19 18  1  0  0  0  0
 20 21  1  0  0  0  0
 21  1  1  0  0  0  0
 21 22  2  0  0  0  0
 22 28  1  0  0  0  0
 23 22  1  0  0  0  0
 24 23  2  0  0  0  0
 25 20  2  0  0  0  0
 25 24  1  0  0  0  0
 26 20  1  0  0  0  0
 27 24  1  0  0  0  0
 28 29  2  0  0  0  0
 29 33  1  0  0  0  0
 30 29  1  0  0  0  0
 30 34  1  0  0  0  0
 31 30  2  0  0  0  0
 32 31  1  0  0  0  0
 32 28  1  0  0  0  0
 35 31  1  0  0  0  0
M  END
>  <minimizedAffinity>
-5.05097723

$$$$

 OpenBabel03252503203D

 35 37  0  0  0  0  0  0  0  0999 V2000
   39.2490   29.9170   39.8810 C   0  0  0  0  0  0  0  0  0  0  0  0
   40.0880   29.6830   38.9660 O   0  0  0  0  0  0  0  0  0  0  0  0
   38.8040   28.9400   40.9170 C   0  0  0  0  0  0  0  0  0  0  0  0
   39.4510   27.7980   41.3040 C   0  0  0  0  0  0  0  0  0  0  0  0
   38.6690   27.2430   42.2660 N   0  0  0  0  0  0  0  0  0  0  0  0
   37.6000   28.0140   42.4530 C   0  0  0  0  0  0  0  0  0  0  0  0
   37.6830   29.0590   41.6230 N   0  0  0  0  0  0  0  0  0  0  0  0
   36.5060   27.8670   43.3370 N   0  0  0  0  0  0  0  0  0  0  0  0
   40.3740   27.4060   40.9400 H   0  0  0  0  0  0  0  0  0  0  0  0
   35.6900   27.2680   43.0320 H   0  0  0  0  0  0  0  0  0  0  0  0
   36.3780   28.2820   44.2910 H   0  0  0  0  0  0  0  0  0  0  0  0
   38.8960   26.0140   43.0140 C   0  0  0  0  0  0  0  0  0  0  0  0
   38.1160   25.8820   43.7790 H   0  0  0  0  0  0  0  0  0  0  0  0
   39.8610   26.1280   43.5350 H   0  0  0  0  0  0  0  0  0  0  0  0
   37.5980   23.3790   41.2570 H   0  0  0  0  0  0  0  0  0  0  0  0
   37.6930   24.2500   41.8950 C   0  0  0  0  0  0  0  0  0  0  0  0
   36.6330   24.6930   42.4140 O   0  0  0  0  0  0  0  0  0  0  0  0
   38.9490   24.8570   42.1340 N   0  0  0  0  0  0  0  0  0  0  0  0
   39.8330   24.5060   41.7160 H   0  0  0  0  0  0  0  0  0  0  0  0
   39.3500   32.2600   40.6050 C   0  0  0  0  0  0  0  0  0  0  0  0
   38.7110   31.2370   39.8790 C   0  0  0  0  0  0  0  0  0  0  0  0
   37.5630   31.6500   39.2040 C   0  0  0  0  0  0  0  0  0  0  0  0
   37.1050   32.8870   39.2340 N   0  0  0  0  0  0  0  0  0  0  0  0
   37.7630   33.8420   39.9540 C   0  0  0  0  0  0  0  0  0  0  0  0
   38.8740   33.5170   40.6280 N   0  0  0  0  0  0  0  0  0  0  0  0
   40.2620   32.0280   41.1670 H   0  0  0  0  0  0  0  0  0  0  0  0
   37.3740   34.8530   39.9690 H   0  0  0  0  0  0  0  0  0  0  0  0
   36.8560   30.6670   38.4470 C   0  0  0  0  0  0  0  0  0  0  0  0
   35.8440   29.7960   38.6760 C   0  0  0  0  0  0  0  0  0  0  0  0
   35.3700   28.9750   37.7710 C   0  0  0  0  0  0  0  0  0  0  0  0
   35.9550   29.0450   36.5680 C   0  0  0  0  0  0  0  0  0  0  0  0
   37.2300   30.3280   36.7350 S   0  0  0  0  0  0  0  0  0  0  0  0
   35.4630   29.8540   39.7170 H   0  0  0  0  0  0  0  0  0  0  0  0
   34.5650   28.2640   37.9090 H   0  0  0  0  0  0  0  0  0  0  0  0
   35.7130   28.4200   35.6010 H   0  0  0  0  0  0  0  0  0  0  0  0
  1  3  1  0  0  0  0
  2  1  2  0  0  0  0
  3  4  2  0  0  0  0
  3  7  1  0  0  0  0
  4  5  1  0  0  0  0
  5  6  1  0  0  0  0
  5 12  1  0  0  0  0
  6  8  1  0  0  0  0
  7  6  2  0  0  0  0
  8 11  1  0  0  0  0
  9  4  1  0  0  0  0
 10  8  1  0  0  0  0
 12 14  1  0  0  0  0
 12 13  1  0  0  0  0
 15 16  1  0  0  0  0
 16 18  1  0  0  0  0
 16 17  2  0  0  0  0
 18 12  1  0  0  0  0
 19 18  1  0  0  0  0
 20 25  1  0  0  0  0
 20 26  1  0  0  0  0
 21  1  1  0  0  0  0
 21 20  2  0  0  0  0
 22 23  2  0  0  0  0
 22 21  1  0  0  0  0
 23 24  1  0  0  0  0
 24 27  1  0  0  0  0
 24 25  2  0  0  0  0
 28 29  2  0  0  0  0
 28 22  1  0  0  0  0
 29 33  1  0  0  0  0
 30 34  1  0  0  0  0
 30 29  1  0  0  0  0
 31 32  1  0  0  0  0
 31 30  2  0  0  0  0
 32 28  1  0  0  0  0
 35 31  1  0  0  0  0
M  END
>  <minimizedAffinity>
-4.93303204

$$$$
