
 OpenBabel03242522263D

 38 40  0  0  1  0  0  0  0  0999 V2000
   36.8930   27.3600   43.2780 C   0  0  0  0  0  0  0  0  0  0  0  0
   37.1160   28.6960   42.9030 C   0  0  0  0  0  0  0  0  0  0  0  0
   37.5860   29.0290   41.6300 C   0  0  0  0  0  0  0  0  0  0  0  0
   37.8160   27.9920   40.7820 N   0  0  0  0  0  0  0  0  0  0  0  0
   37.6030   26.7240   41.1420 C   0  0  0  0  0  0  0  0  0  0  0  0
   37.1500   26.4100   42.3660 N   0  0  0  0  0  0  0  0  0  0  0  0
   36.5250   27.1850   44.2880 H   0  0  0  0  0  0  0  0  0  0  0  0
   36.9270   29.5050   43.5920 H   0  0  0  0  0  0  0  0  0  0  0  0
   37.8790   25.6520   40.1560 C   0  0  2  0  0  0  0  0  0  0  0  0
   36.5870   25.1000   39.5880 C   0  0  0  0  0  0  0  0  0  0  0  0
   36.2340   23.8760   40.4220 C   0  0  0  0  0  0  0  0  0  0  0  0
   37.1250   22.8470   40.2590 O   0  0  0  0  0  0  0  0  0  0  0  0
   38.4560   23.2390   40.1560 C   0  0  0  0  0  0  0  0  0  0  0  0
   38.6080   24.5520   40.9040 C   0  0  1  0  0  0  0  0  0  0  0  0
   38.5400   26.0290   39.3490 H   0  0  0  0  0  0  0  0  0  0  0  0
   36.8230   24.7110   38.5690 H   0  0  0  0  0  0  0  0  0  0  0  0
   35.7640   25.8130   39.6270 H   0  0  0  0  0  0  0  0  0  0  0  0
   35.2350   23.5380   40.0180 H   0  0  0  0  0  0  0  0  0  0  0  0
   36.0240   24.1360   41.4810 H   0  0  0  0  0  0  0  0  0  0  0  0
   38.7850   23.3150   39.1010 H   0  0  0  0  0  0  0  0  0  0  0  0
   39.0680   22.4920   40.7050 H   0  0  0  0  0  0  0  0  0  0  0  0
   38.0430   24.3920   41.8620 H   0  0  0  0  0  0  0  0  0  0  0  0
   41.4570   25.1970   42.8030 H   0  0  0  0  0  0  0  0  0  0  0  0
   40.4440   24.9730   42.5730 C   0  0  0  0  0  0  0  0  0  0  0  0
   39.8730   24.8630   43.7080 O   0  0  0  0  0  0  0  0  0  0  0  0
   39.9640   24.8510   41.2200 N   0  0  0  0  0  0  0  0  0  0  0  0
   40.7050   25.0030   40.5010 H   0  0  0  0  0  0  0  0  0  0  0  0
   40.2460   30.0040   42.4310 Cl  0  0  0  0  0  0  0  0  0  0  0  0
   39.0560   30.9710   41.5580 C   0  0  0  0  0  0  0  0  0  0  0  0
   37.8230   30.4120   41.2250 C   0  0  0  0  0  0  0  0  0  0  0  0
   36.9340   31.1990   40.5480 C   0  0  0  0  0  0  0  0  0  0  0  0
   37.2380   32.5030   40.2030 C   0  0  0  0  0  0  0  0  0  0  0  0
   38.4920   33.0010   40.5670 C   0  0  0  0  0  0  0  0  0  0  0  0
   38.8550   34.6620   40.1150 Cl  0  0  0  0  0  0  0  0  0  0  0  0
   39.4220   32.2560   41.2460 C   0  0  0  0  0  0  0  0  0  0  0  0
   35.9880   30.7520   40.3000 H   0  0  0  0  0  0  0  0  0  0  0  0
   36.5300   33.1040   39.6730 H   0  0  0  0  0  0  0  0  0  0  0  0
   40.3790   32.6770   41.5080 H   0  0  0  0  0  0  0  0  0  0  0  0
  1  7  1  0  0  0  0
  2  1  1  0  0  0  0
  2  8  1  0  0  0  0
  3  2  2  0  0  0  0
  4  5  2  0  0  0  0
  4  3  1  0  0  0  0
  5  6  1  0  0  0  0
  6  1  2  0  0  0  0
  9 15  1  6  0  0  0
  9 14  1  0  0  0  0
  9  5  1  0  0  0  0
 10 17  1  0  0  0  0
 10  9  1  0  0  0  0
 10 11  1  0  0  0  0
 11 19  1  0  0  0  0
 12 11  1  0  0  0  0
 13 12  1  0  0  0  0
 13 21  1  0  0  0  0
 13 14  1  0  0  0  0
 14 26  1  0  0  0  0
 14 22  1  1  0  0  0
 16 10  1  0  0  0  0
 18 11  1  0  0  0  0
 20 13  1  0  0  0  0
 24 23  1  0  0  0  0
 24 25  2  0  0  0  0
 26 24  1  0  0  0  0
 27 26  1  0  0  0  0
 29 28  1  0  0  0  0
 30 29  2  0  0  0  0
 30  3  1  0  0  0  0
 31 30  1  0  0  0  0
 32 31  2  0  0  0  0
 32 33  1  0  0  0  0
 33 35  2  0  0  0  0
 34 33  1  0  0  0  0
 35 38  1  0  0  0  0
 35 29  1  0  0  0  0
 36 31  1  0  0  0  0
 37 32  1  0  0  0  0
M  END
>  <minimizedAffinity>
-5.70860815

$$$$

 OpenBabel03242522263D

 38 40  0  0  1  0  0  0  0  0999 V2000
   38.4710   29.4480   42.9810 C   0  0  0  0  0  0  0  0  0  0  0  0
   38.5130   28.0690   42.7150 C   0  0  0  0  0  0  0  0  0  0  0  0
   37.9450   27.5310   41.5560 C   0  0  0  0  0  0  0  0  0  0  0  0
   37.3530   28.4120   40.7090 N   0  0  0  0  0  0  0  0  0  0  0  0
   37.3160   29.7230   40.9660 C   0  0  0  0  0  0  0  0  0  0  0  0
   37.8630   30.2340   42.0790 N   0  0  0  0  0  0  0  0  0  0  0  0
   38.9370   29.7880   43.9050 H   0  0  0  0  0  0  0  0  0  0  0  0
   38.9880   27.3850   43.4010 H   0  0  0  0  0  0  0  0  0  0  0  0
   36.6500   30.6160   39.9890 C   0  0  2  0  0  0  0  0  0  0  0  0
   36.3230   29.8670   38.7120 C   0  0  0  0  0  0  0  0  0  0  0  0
   37.4790   30.1170   37.7530 C   0  0  0  0  0  0  0  0  0  0  0  0
   37.5590   31.4240   37.3490 O   0  0  0  0  0  0  0  0  0  0  0  0
   37.2840   32.3600   38.3410 C   0  0  0  0  0  0  0  0  0  0  0  0
   37.6330   31.7290   39.6770 C   0  0  1  0  0  0  0  0  0  0  0  0
   35.7370   31.0650   40.4320 H   0  0  0  0  0  0  0  0  0  0  0  0
   35.4390   30.3740   38.2570 H   0  0  0  0  0  0  0  0  0  0  0  0
   36.2060   28.7950   38.8650 H   0  0  0  0  0  0  0  0  0  0  0  0
   37.2340   29.4880   36.8480 H   0  0  0  0  0  0  0  0  0  0  0  0
   38.4340   29.6940   38.1280 H   0  0  0  0  0  0  0  0  0  0  0  0
   36.2340   32.7090   38.3020 H   0  0  0  0  0  0  0  0  0  0  0  0
   37.9860   33.2100   38.2020 H   0  0  0  0  0  0  0  0  0  0  0  0
   38.6260   31.2340   39.4990 H   0  0  0  0  0  0  0  0  0  0  0  0
   39.0470   34.2620   41.6070 H   0  0  0  0  0  0  0  0  0  0  0  0
   38.9390   33.5460   40.8290 C   0  0  0  0  0  0  0  0  0  0  0  0
   39.9990   33.6690   40.1300 O   0  0  0  0  0  0  0  0  0  0  0  0
   37.7840   32.6910   40.7170 N   0  0  0  0  0  0  0  0  0  0  0  0
   37.0770   32.8460   41.4680 H   0  0  0  0  0  0  0  0  0  0  0  0
   40.2300   26.7760   39.8600 Cl  0  0  0  0  0  0  0  0  0  0  0  0
   39.0260   25.6380   40.4670 C   0  0  0  0  0  0  0  0  0  0  0  0
   37.9810   26.1000   41.2650 C   0  0  0  0  0  0  0  0  0  0  0  0
   37.0730   25.1810   41.7120 C   0  0  0  0  0  0  0  0  0  0  0  0
   37.1800   23.8410   41.3890 C   0  0  0  0  0  0  0  0  0  0  0  0
   38.2530   23.4450   40.5850 C   0  0  0  0  0  0  0  0  0  0  0  0
   38.3660   21.7350   40.1880 Cl  0  0  0  0  0  0  0  0  0  0  0  0
   39.1910   24.3240   40.1080 C   0  0  0  0  0  0  0  0  0  0  0  0
   36.2740   25.5550   42.3270 H   0  0  0  0  0  0  0  0  0  0  0  0
   36.4610   23.1360   41.7480 H   0  0  0  0  0  0  0  0  0  0  0  0
   40.0040   23.9790   39.4910 H   0  0  0  0  0  0  0  0  0  0  0  0
  1  7  1  0  0  0  0
  2  1  1  0  0  0  0
  2  8  1  0  0  0  0
  3  2  2  0  0  0  0
  4  5  2  0  0  0  0
  4  3  1  0  0  0  0
  5  6  1  0  0  0  0
  6  1  2  0  0  0  0
  9 15  1  1  0  0  0
  9  5  1  0  0  0  0
 10 17  1  0  0  0  0
 10  9  1  0  0  0  0
 11 19  1  0  0  0  0
 11 10  1  0  0  0  0
 12 11  1  0  0  0  0
 12 13  1  0  0  0  0
 13 14  1  0  0  0  0
 14 22  1  6  0  0  0
 14  9  1  0  0  0  0
 14 26  1  0  0  0  0
 16 10  1  0  0  0  0
 18 11  1  0  0  0  0
 20 13  1  0  0  0  0
 21 13  1  0  0  0  0
 24 23  1  0  0  0  0
 25 24  2  0  0  0  0
 26 24  1  0  0  0  0
 26 27  1  0  0  0  0
 28 29  1  0  0  0  0
 29 30  1  0  0  0  0
 30  3  1  0  0  0  0
 30 31  2  0  0  0  0
 31 36  1  0  0  0  0
 32 31  1  0  0  0  0
 32 37  1  0  0  0  0
 33 32  2  0  0  0  0
 34 33  1  0  0  0  0
 35 29  2  0  0  0  0
 35 33  1  0  0  0  0
 38 35  1  0  0  0  0
M  END
>  <minimizedAffinity>
-5.64426899

$$$$

 OpenBabel03242522263D

 38 40  0  0  1  0  0  0  0  0999 V2000
   38.0230   33.4090   40.2130 C   0  0  0  0  0  0  0  0  0  0  0  0
   37.3540   32.6140   39.2660 C   0  0  0  0  0  0  0  0  0  0  0  0
   37.5040   31.2250   39.2420 C   0  0  0  0  0  0  0  0  0  0  0  0
   38.3300   30.6910   40.1800 N   0  0  0  0  0  0  0  0  0  0  0  0
   38.9640   31.4500   41.0780 C   0  0  0  0  0  0  0  0  0  0  0  0
   38.8150   32.7830   41.0970 N   0  0  0  0  0  0  0  0  0  0  0  0
   37.8520   34.4840   40.1660 H   0  0  0  0  0  0  0  0  0  0  0  0
   36.7020   33.0580   38.5300 H   0  0  0  0  0  0  0  0  0  0  0  0
   39.8480   30.7870   42.0660 C   0  0  2  0  0  0  0  0  0  0  0  0
   41.2430   30.6060   41.5020 C   0  0  0  0  0  0  0  0  0  0  0  0
   41.2950   29.2040   40.9110 C   0  0  0  0  0  0  0  0  0  0  0  0
   41.2010   28.2230   41.8640 O   0  0  0  0  0  0  0  0  0  0  0  0
   40.3070   28.4950   42.8950 C   0  0  0  0  0  0  0  0  0  0  0  0
   39.2410   29.4250   42.3450 C   0  0  1  0  0  0  0  0  0  0  0  0
   39.8730   31.3640   43.0130 H   0  0  0  0  0  0  0  0  0  0  0  0
   41.9430   30.5930   42.3710 H   0  0  0  0  0  0  0  0  0  0  0  0
   41.4880   31.3340   40.7290 H   0  0  0  0  0  0  0  0  0  0  0  0
   42.3190   29.1350   40.4400 H   0  0  0  0  0  0  0  0  0  0  0  0
   40.5940   29.0820   40.0580 H   0  0  0  0  0  0  0  0  0  0  0  0
   40.8160   28.9140   43.7840 H   0  0  0  0  0  0  0  0  0  0  0  0
   39.7930   27.5430   43.1500 H   0  0  0  0  0  0  0  0  0  0  0  0
   38.9760   28.9850   41.3460 H   0  0  0  0  0  0  0  0  0  0  0  0
   36.2840   28.3720   43.8590 H   0  0  0  0  0  0  0  0  0  0  0  0
   37.1580   28.3430   43.2550 C   0  0  0  0  0  0  0  0  0  0  0  0
   37.1460   27.1820   42.7270 O   0  0  0  0  0  0  0  0  0  0  0  0
   38.0690   29.4560   43.1540 N   0  0  0  0  0  0  0  0  0  0  0  0
   37.7840   30.2790   43.7280 H   0  0  0  0  0  0  0  0  0  0  0  0
   35.2690   29.7140   40.4220 Cl  0  0  0  0  0  0  0  0  0  0  0  0
   35.7390   29.6270   38.7240 C   0  0  0  0  0  0  0  0  0  0  0  0
   36.8150   30.3860   38.2660 C   0  0  0  0  0  0  0  0  0  0  0  0
   37.1410   30.2850   36.9420 C   0  0  0  0  0  0  0  0  0  0  0  0
   36.4350   29.4640   36.0830 C   0  0  0  0  0  0  0  0  0  0  0  0
   35.3670   28.7300   36.6070 C   0  0  0  0  0  0  0  0  0  0  0  0
   34.4850   27.6930   35.4930 Cl  0  0  0  0  0  0  0  0  0  0  0  0
   34.9970   28.7920   37.9260 C   0  0  0  0  0  0  0  0  0  0  0  0
   37.9740   30.8770   36.6070 H   0  0  0  0  0  0  0  0  0  0  0  0
   36.7050   29.3980   35.0500 H   0  0  0  0  0  0  0  0  0  0  0  0
   34.1660   28.2110   38.2920 H   0  0  0  0  0  0  0  0  0  0  0  0
  1  6  1  0  0  0  0
  2  1  2  0  0  0  0
  3  2  1  0  0  0  0
  3  4  2  0  0  0  0
  4  5  1  0  0  0  0
  5  6  2  0  0  0  0
  5  9  1  0  0  0  0
  7  1  1  0  0  0  0
  8  2  1  0  0  0  0
  9 14  1  0  0  0  0
  9 15  1  1  0  0  0
 10  9  1  0  0  0  0
 10 16  1  0  0  0  0
 11 10  1  0  0  0  0
 11 12  1  0  0  0  0
 12 13  1  0  0  0  0
 13 21  1  0  0  0  0
 13 20  1  0  0  0  0
 14 22  1  6  0  0  0
 14 13  1  0  0  0  0
 14 26  1  0  0  0  0
 17 10  1  0  0  0  0
 18 11  1  0  0  0  0
 19 11  1  0  0  0  0
 24 23  1  0  0  0  0
 25 24  2  0  0  0  0
 26 24  1  0  0  0  0
 26 27  1  0  0  0  0
 29 28  1  0  0  0  0
 30 29  1  0  0  0  0
 30  3  1  0  0  0  0
 31 30  2  0  0  0  0
 32 33  2  0  0  0  0
 32 31  1  0  0  0  0
 33 35  1  0  0  0  0
 34 33  1  0  0  0  0
 35 38  1  0  0  0  0
 35 29  2  0  0  0  0
 36 31  1  0  0  0  0
 37 32  1  0  0  0  0
M  END
>  <minimizedAffinity>
-5.48131561

$$$$

 OpenBabel03242522263D

 38 40  0  0  1  0  0  0  0  0999 V2000
   37.0580   27.5740   43.6530 C   0  0  0  0  0  0  0  0  0  0  0  0
   37.4890   28.8500   43.2480 C   0  0  0  0  0  0  0  0  0  0  0  0
   37.8700   29.1070   41.9280 C   0  0  0  0  0  0  0  0  0  0  0  0
   37.8020   28.0600   41.0650 N   0  0  0  0  0  0  0  0  0  0  0  0
   37.3920   26.8490   41.4540 C   0  0  0  0  0  0  0  0  0  0  0  0
   37.0270   26.6080   42.7230 N   0  0  0  0  0  0  0  0  0  0  0  0
   36.7790   27.4560   44.6990 H   0  0  0  0  0  0  0  0  0  0  0  0
   37.5360   29.6690   43.9500 H   0  0  0  0  0  0  0  0  0  0  0  0
   37.3480   25.7610   40.4490 C   0  0  2  0  0  0  0  0  0  0  0  0
   36.7540   24.5020   41.0470 C   0  0  0  0  0  0  0  0  0  0  0  0
   37.9240   23.6530   41.5250 C   0  0  0  0  0  0  0  0  0  0  0  0
   38.6970   23.1870   40.4930 O   0  0  0  0  0  0  0  0  0  0  0  0
   38.8920   24.0930   39.4550 C   0  0  0  0  0  0  0  0  0  0  0  0
   38.7830   25.4910   40.0390 C   0  0  1  0  0  0  0  0  0  0  0  0
   36.7780   26.0830   39.5530 H   0  0  0  0  0  0  0  0  0  0  0  0
   36.2920   23.9320   40.2060 H   0  0  0  0  0  0  0  0  0  0  0  0
   36.0860   24.7010   41.8850 H   0  0  0  0  0  0  0  0  0  0  0  0
   37.4410   22.7640   42.0260 H   0  0  0  0  0  0  0  0  0  0  0  0
   38.4950   24.1470   42.3390 H   0  0  0  0  0  0  0  0  0  0  0  0
   38.1830   23.9270   38.6220 H   0  0  0  0  0  0  0  0  0  0  0  0
   39.9410   23.9800   39.1060 H   0  0  0  0  0  0  0  0  0  0  0  0
   39.3810   25.4430   40.9890 H   0  0  0  0  0  0  0  0  0  0  0  0
   41.1860   27.5010   38.5140 H   0  0  0  0  0  0  0  0  0  0  0  0
   40.7670   26.7570   39.1470 C   0  0  0  0  0  0  0  0  0  0  0  0
   41.7660   26.2560   39.7600 O   0  0  0  0  0  0  0  0  0  0  0  0
   39.3520   26.4860   39.1930 N   0  0  0  0  0  0  0  0  0  0  0  0
   38.7920   27.0870   38.5500 H   0  0  0  0  0  0  0  0  0  0  0  0
   35.7740   30.6030   40.5010 Cl  0  0  0  0  0  0  0  0  0  0  0  0
   37.3990   31.2170   40.8050 C   0  0  0  0  0  0  0  0  0  0  0  0
   38.3190   30.4260   41.4930 C   0  0  0  0  0  0  0  0  0  0  0  0
   39.5650   30.9460   41.7040 C   0  0  0  0  0  0  0  0  0  0  0  0
   39.9100   32.2080   41.2570 C   0  0  0  0  0  0  0  0  0  0  0  0
   38.9400   32.9480   40.5740 C   0  0  0  0  0  0  0  0  0  0  0  0
   39.4030   34.5500   40.0150 Cl  0  0  0  0  0  0  0  0  0  0  0  0
   37.6750   32.4760   40.3340 C   0  0  0  0  0  0  0  0  0  0  0  0
   40.2610   30.3220   42.2360 H   0  0  0  0  0  0  0  0  0  0  0  0
   40.8900   32.5980   41.4310 H   0  0  0  0  0  0  0  0  0  0  0  0
   36.9550   33.0790   39.8040 H   0  0  0  0  0  0  0  0  0  0  0  0
  1  7  1  0  0  0  0
  2  1  1  0  0  0  0
  2  8  1  0  0  0  0
  3  2  2  0  0  0  0
  4  5  2  0  0  0  0
  4  3  1  0  0  0  0
  5  6  1  0  0  0  0
  6  1  2  0  0  0  0
  9 15  1  6  0  0  0
  9 10  1  0  0  0  0
  9  5  1  0  0  0  0
 10 11  1  0  0  0  0
 10 17  1  0  0  0  0
 11 18  1  0  0  0  0
 11 19  1  0  0  0  0
 12 11  1  0  0  0  0
 13 14  1  0  0  0  0
 13 12  1  0  0  0  0
 14  9  1  0  0  0  0
 14 22  1  1  0  0  0
 16 10  1  0  0  0  0
 20 13  1  0  0  0  0
 21 13  1  0  0  0  0
 23 24  1  0  0  0  0
 24 26  1  0  0  0  0
 24 25  2  0  0  0  0
 26 14  1  0  0  0  0
 27 26  1  0  0  0  0
 28 29  1  0  0  0  0
 29 30  1  0  0  0  0
 30 31  2  0  0  0  0
 30  3  1  0  0  0  0
 31 36  1  0  0  0  0
 32 37  1  0  0  0  0
 32 31  1  0  0  0  0
 33 32  2  0  0  0  0
 34 33  1  0  0  0  0
 35 33  1  0  0  0  0
 35 29  2  0  0  0  0
 38 35  1  0  0  0  0
M  END
>  <minimizedAffinity>
-5.43171072

$$$$

 OpenBabel03242522263D

 38 40  0  0  1  0  0  0  0  0999 V2000
   37.1310   27.8630   43.9530 C   0  0  0  0  0  0  0  0  0  0  0  0
   37.6740   29.0620   43.4580 C   0  0  0  0  0  0  0  0  0  0  0  0
   38.0350   29.2000   42.1150 C   0  0  0  0  0  0  0  0  0  0  0  0
   37.8350   28.1150   41.3220 N   0  0  0  0  0  0  0  0  0  0  0  0
   37.3200   26.9780   41.7970 C   0  0  0  0  0  0  0  0  0  0  0  0
   36.9740   26.8510   43.0870 N   0  0  0  0  0  0  0  0  0  0  0  0
   36.8750   27.8370   45.0110 H   0  0  0  0  0  0  0  0  0  0  0  0
   37.8240   29.9130   44.1050 H   0  0  0  0  0  0  0  0  0  0  0  0
   37.1360   25.8410   40.8630 C   0  0  2  0  0  0  0  0  0  0  0  0
   38.2110   24.7940   41.0730 C   0  0  0  0  0  0  0  0  0  0  0  0
   39.3140   25.0960   40.0690 C   0  0  0  0  0  0  0  0  0  0  0  0
   38.9190   24.8980   38.7710 O   0  0  0  0  0  0  0  0  0  0  0  0
   37.6150   25.2960   38.4910 C   0  0  0  0  0  0  0  0  0  0  0  0
   37.2560   26.4080   39.4610 C   0  0  1  0  0  0  0  0  0  0  0  0
   36.1240   25.4020   40.9810 H   0  0  0  0  0  0  0  0  0  0  0  0
   37.7750   23.8160   40.7570 H   0  0  0  0  0  0  0  0  0  0  0  0
   38.6270   24.8050   42.0800 H   0  0  0  0  0  0  0  0  0  0  0  0
   40.1230   24.3440   40.3040 H   0  0  0  0  0  0  0  0  0  0  0  0
   39.7950   26.0790   40.2560 H   0  0  0  0  0  0  0  0  0  0  0  0
   36.9040   24.4490   38.5380 H   0  0  0  0  0  0  0  0  0  0  0  0
   37.6160   25.7520   37.4770 H   0  0  0  0  0  0  0  0  0  0  0  0
   38.1600   27.0750   39.4650 H   0  0  0  0  0  0  0  0  0  0  0  0
   35.4070   28.9180   37.9040 H   0  0  0  0  0  0  0  0  0  0  0  0
   36.2500   28.3530   38.2200 C   0  0  0  0  0  0  0  0  0  0  0  0
   37.2520   28.9660   37.7240 O   0  0  0  0  0  0  0  0  0  0  0  0
   36.1310   27.1690   39.0330 N   0  0  0  0  0  0  0  0  0  0  0  0
   35.1450   26.9280   39.2740 H   0  0  0  0  0  0  0  0  0  0  0  0
   36.0220   30.8770   40.7720 Cl  0  0  0  0  0  0  0  0  0  0  0  0
   37.7260   31.3060   40.9290 C   0  0  0  0  0  0  0  0  0  0  0  0
   38.5990   30.4390   41.5860 C   0  0  0  0  0  0  0  0  0  0  0  0
   39.9090   30.8150   41.6820 C   0  0  0  0  0  0  0  0  0  0  0  0
   40.3620   32.0080   41.1510 C   0  0  0  0  0  0  0  0  0  0  0  0
   39.4350   32.8310   40.5060 C   0  0  0  0  0  0  0  0  0  0  0  0
   40.0360   34.3430   39.8390 Cl  0  0  0  0  0  0  0  0  0  0  0  0
   38.1090   32.5040   40.3790 C   0  0  0  0  0  0  0  0  0  0  0  0
   40.5670   30.1340   42.1920 H   0  0  0  0  0  0  0  0  0  0  0  0
   41.3910   32.2850   41.2360 H   0  0  0  0  0  0  0  0  0  0  0  0
   37.4250   33.1660   39.8740 H   0  0  0  0  0  0  0  0  0  0  0  0
  1  7  1  0  0  0  0
  2  1  1  0  0  0  0
  2  8  1  0  0  0  0
  3  2  2  0  0  0  0
  4  5  2  0  0  0  0
  4  3  1  0  0  0  0
  5  6  1  0  0  0  0
  6  1  2  0  0  0  0
  9 15  1  1  0  0  0
  9 10  1  0  0  0  0
  9  5  1  0  0  0  0
 10 17  1  0  0  0  0
 11 19  1  0  0  0  0
 11 18  1  0  0  0  0
 11 10  1  0  0  0  0
 12 11  1  0  0  0  0
 13 20  1  0  0  0  0
 13 12  1  0  0  0  0
 13 14  1  0  0  0  0
 14 22  1  1  0  0  0
 14  9  1  0  0  0  0
 16 10  1  0  0  0  0
 21 13  1  0  0  0  0
 23 24  1  0  0  0  0
 24 26  1  0  0  0  0
 25 24  2  0  0  0  0
 26 27  1  0  0  0  0
 26 14  1  0  0  0  0
 28 29  1  0  0  0  0
 29 30  1  0  0  0  0
 30 31  2  0  0  0  0
 30  3  1  0  0  0  0
 31 36  1  0  0  0  0
 32 37  1  0  0  0  0
 32 31  1  0  0  0  0
 33 32  2  0  0  0  0
 34 33  1  0  0  0  0
 35 33  1  0  0  0  0
 35 29  2  0  0  0  0
 38 35  1  0  0  0  0
M  END
>  <minimizedAffinity>
-5.24109983

$$$$

 OpenBabel03242522263D

 38 40  0  0  1  0  0  0  0  0999 V2000
   36.6360   27.0800   39.0590 C   0  0  0  0  0  0  0  0  0  0  0  0
   36.9960   28.4390   39.0230 C   0  0  0  0  0  0  0  0  0  0  0  0
   37.6340   29.0550   40.1030 C   0  0  0  0  0  0  0  0  0  0  0  0
   37.8820   28.2710   41.1840 N   0  0  0  0  0  0  0  0  0  0  0  0
   37.5380   26.9800   41.2150 C   0  0  0  0  0  0  0  0  0  0  0  0
   36.9270   26.3940   40.1750 N   0  0  0  0  0  0  0  0  0  0  0  0
   36.1430   26.6760   38.1770 H   0  0  0  0  0  0  0  0  0  0  0  0
   36.7900   29.0450   38.1540 H   0  0  0  0  0  0  0  0  0  0  0  0
   37.8450   26.1950   42.4350 C   0  0  2  0  0  0  0  0  0  0  0  0
   38.4610   27.0790   43.5000 C   0  0  0  0  0  0  0  0  0  0  0  0
   39.9710   26.9470   43.3560 C   0  0  0  0  0  0  0  0  0  0  0  0
   40.4260   25.6930   43.6720 O   0  0  0  0  0  0  0  0  0  0  0  0
   39.6070   24.6510   43.2480 C   0  0  0  0  0  0  0  0  0  0  0  0
   38.8470   25.1320   42.0250 C   0  0  1  0  0  0  0  0  0  0  0  0
   36.9310   25.6930   42.8140 H   0  0  0  0  0  0  0  0  0  0  0  0
   38.2120   26.6180   44.4860 H   0  0  0  0  0  0  0  0  0  0  0  0
   38.1790   28.1270   43.4020 H   0  0  0  0  0  0  0  0  0  0  0  0
   40.3910   27.6700   44.1140 H   0  0  0  0  0  0  0  0  0  0  0  0
   40.3350   27.3330   42.3800 H   0  0  0  0  0  0  0  0  0  0  0  0
   38.9330   24.3000   44.0530 H   0  0  0  0  0  0  0  0  0  0  0  0
   40.2680   23.8270   42.9020 H   0  0  0  0  0  0  0  0  0  0  0  0
   39.6240   25.6520   41.4020 H   0  0  0  0  0  0  0  0  0  0  0  0
   38.4870   22.7670   39.4930 H   0  0  0  0  0  0  0  0  0  0  0  0
   38.9040   23.5650   40.0570 C   0  0  0  0  0  0  0  0  0  0  0  0
   39.9580   23.8930   39.4200 O   0  0  0  0  0  0  0  0  0  0  0  0
   38.2940   24.0620   41.2650 N   0  0  0  0  0  0  0  0  0  0  0  0
   37.4150   23.5640   41.5230 H   0  0  0  0  0  0  0  0  0  0  0  0
   40.4670   29.4520   39.4080 Cl  0  0  0  0  0  0  0  0  0  0  0  0
   39.3390   30.7620   39.7610 C   0  0  0  0  0  0  0  0  0  0  0  0
   38.0140   30.4650   40.0800 C   0  0  0  0  0  0  0  0  0  0  0  0
   37.1780   31.5130   40.3460 C   0  0  0  0  0  0  0  0  0  0  0  0
   37.6200   32.8220   40.3020 C   0  0  0  0  0  0  0  0  0  0  0  0
   38.9600   33.0490   39.9760 C   0  0  0  0  0  0  0  0  0  0  0  0
   39.4980   34.7230   39.9270 Cl  0  0  0  0  0  0  0  0  0  0  0  0
   39.8430   32.0370   39.7010 C   0  0  0  0  0  0  0  0  0  0  0  0
   36.1610   31.2650   40.5900 H   0  0  0  0  0  0  0  0  0  0  0  0
   36.9510   33.6290   40.5130 H   0  0  0  0  0  0  0  0  0  0  0  0
   40.8690   32.2540   39.4530 H   0  0  0  0  0  0  0  0  0  0  0  0
  1  6  1  0  0  0  0
  2  1  2  0  0  0  0
  2  3  1  0  0  0  0
  3  4  2  0  0  0  0
  4  5  1  0  0  0  0
  5  9  1  0  0  0  0
  6  5  2  0  0  0  0
  7  1  1  0  0  0  0
  8  2  1  0  0  0  0
  9 15  1  1  0  0  0
  9 10  1  0  0  0  0
 10 16  1  0  0  0  0
 11 10  1  0  0  0  0
 11 12  1  0  0  0  0
 11 18  1  0  0  0  0
 13 12  1  0  0  0  0
 13 20  1  0  0  0  0
 14 22  1  6  0  0  0
 14  9  1  0  0  0  0
 14 13  1  0  0  0  0
 17 10  1  0  0  0  0
 19 11  1  0  0  0  0
 21 13  1  0  0  0  0
 23 24  1  0  0  0  0
 24 26  1  0  0  0  0
 25 24  2  0  0  0  0
 26 27  1  0  0  0  0
 26 14  1  0  0  0  0
 28 29  1  0  0  0  0
 29 30  1  0  0  0  0
 30  3  1  0  0  0  0
 30 31  2  0  0  0  0
 31 36  1  0  0  0  0
 32 31  1  0  0  0  0
 32 37  1  0  0  0  0
 33 32  2  0  0  0  0
 34 33  1  0  0  0  0
 35 29  2  0  0  0  0
 35 33  1  0  0  0  0
 38 35  1  0  0  0  0
M  END
>  <minimizedAffinity>
-5.22860241

$$$$

 OpenBabel03242522263D

 38 40  0  0  1  0  0  0  0  0999 V2000
   37.7080   33.7720   39.9200 C   0  0  0  0  0  0  0  0  0  0  0  0
   37.3920   32.4530   40.2910 C   0  0  0  0  0  0  0  0  0  0  0  0
   38.3790   31.5550   40.7050 C   0  0  0  0  0  0  0  0  0  0  0  0
   39.6540   32.0250   40.7250 N   0  0  0  0  0  0  0  0  0  0  0  0
   39.9500   33.2790   40.3700 C   0  0  0  0  0  0  0  0  0  0  0  0
   38.9980   34.1380   39.9750 N   0  0  0  0  0  0  0  0  0  0  0  0
   36.8810   34.4100   39.6100 H   0  0  0  0  0  0  0  0  0  0  0  0
   36.3730   32.0990   40.2690 H   0  0  0  0  0  0  0  0  0  0  0  0
   41.3660   33.7120   40.4190 C   0  0  2  0  0  0  0  0  0  0  0  0
   41.8990   33.9650   39.0230 C   0  0  0  0  0  0  0  0  0  0  0  0
   42.5840   32.6800   38.5790 C   0  0  0  0  0  0  0  0  0  0  0  0
   43.7100   32.3990   39.3090 O   0  0  0  0  0  0  0  0  0  0  0  0
   43.6100   32.6830   40.6680 C   0  0  0  0  0  0  0  0  0  0  0  0
   42.1460   32.5750   41.0540 C   0  0  1  0  0  0  0  0  0  0  0  0
   41.4750   34.6140   41.0560 H   0  0  0  0  0  0  0  0  0  0  0  0
   42.7140   34.7220   39.1210 H   0  0  0  0  0  0  0  0  0  0  0  0
   41.1190   34.2240   38.3090 H   0  0  0  0  0  0  0  0  0  0  0  0
   42.9020   32.8830   37.5150 H   0  0  0  0  0  0  0  0  0  0  0  0
   41.8710   31.8330   38.4930 H   0  0  0  0  0  0  0  0  0  0  0  0
   44.0400   33.6730   40.9170 H   0  0  0  0  0  0  0  0  0  0  0  0
   44.1400   31.8750   41.2180 H   0  0  0  0  0  0  0  0  0  0  0  0
   41.7950   31.6320   40.5530 H   0  0  0  0  0  0  0  0  0  0  0  0
   41.9940   31.1000   44.2070 H   0  0  0  0  0  0  0  0  0  0  0  0
   42.1370   31.1940   43.1580 C   0  0  0  0  0  0  0  0  0  0  0  0
   42.4730   30.0260   42.7730 O   0  0  0  0  0  0  0  0  0  0  0  0
   41.9560   32.4420   42.4590 N   0  0  0  0  0  0  0  0  0  0  0  0
   41.6730   33.2290   43.0810 H   0  0  0  0  0  0  0  0  0  0  0  0
   38.3230   29.7110   38.4110 Cl  0  0  0  0  0  0  0  0  0  0  0  0
   38.0160   29.2280   40.0800 C   0  0  0  0  0  0  0  0  0  0  0  0
   38.0670   30.1830   41.0950 C   0  0  0  0  0  0  0  0  0  0  0  0
   37.8230   29.7600   42.3720 C   0  0  0  0  0  0  0  0  0  0  0  0
   37.5330   28.4390   42.6550 C   0  0  0  0  0  0  0  0  0  0  0  0
   37.4980   27.5340   41.5910 C   0  0  0  0  0  0  0  0  0  0  0  0
   37.1280   25.8580   41.9780 Cl  0  0  0  0  0  0  0  0  0  0  0  0
   37.7340   27.9020   40.2910 C   0  0  0  0  0  0  0  0  0  0  0  0
   37.8670   30.5100   43.1410 H   0  0  0  0  0  0  0  0  0  0  0  0
   37.3440   28.1270   43.6600 H   0  0  0  0  0  0  0  0  0  0  0  0
   37.6980   27.1730   39.4980 H   0  0  0  0  0  0  0  0  0  0  0  0
  1  6  2  0  0  0  0
  1  2  1  0  0  0  0
  2  3  2  0  0  0  0
  3  4  1  0  0  0  0
  3 30  1  0  0  0  0
  5  9  1  0  0  0  0
  5  4  2  0  0  0  0
  6  5  1  0  0  0  0
  7  1  1  0  0  0  0
  8  2  1  0  0  0  0
  9 14  1  0  0  0  0
  9 15  1  1  0  0  0
 10 16  1  0  0  0  0
 10  9  1  0  0  0  0
 11 10  1  0  0  0  0
 11 12  1  0  0  0  0
 12 13  1  0  0  0  0
 13 20  1  0  0  0  0
 13 14  1  0  0  0  0
 13 21  1  0  0  0  0
 14 22  1  6  0  0  0
 14 26  1  0  0  0  0
 17 10  1  0  0  0  0
 18 11  1  0  0  0  0
 19 11  1  0  0  0  0
 24 23  1  0  0  0  0
 25 24  2  0  0  0  0
 26 27  1  0  0  0  0
 26 24  1  0  0  0  0
 28 29  1  0  0  0  0
 29 35  2  0  0  0  0
 29 30  1  0  0  0  0
 30 31  2  0  0  0  0
 31 32  1  0  0  0  0
 31 36  1  0  0  0  0
 32 37  1  0  0  0  0
 33 34  1  0  0  0  0
 33 32  2  0  0  0  0
 35 33  1  0  0  0  0
 38 35  1  0  0  0  0
M  END
>  <minimizedAffinity>
-5.21463108

$$$$

 OpenBabel03242522263D

 38 40  0  0  1  0  0  0  0  0999 V2000
   41.1800   29.0700   37.8820 C   0  0  0  0  0  0  0  0  0  0  0  0
   40.3800   28.5510   38.9150 C   0  0  0  0  0  0  0  0  0  0  0  0
   39.7660   29.3860   39.8530 C   0  0  0  0  0  0  0  0  0  0  0  0
   39.9870   30.7180   39.7110 N   0  0  0  0  0  0  0  0  0  0  0  0
   40.7490   31.2080   38.7290 C   0  0  0  0  0  0  0  0  0  0  0  0
   41.3350   30.4020   37.8300 N   0  0  0  0  0  0  0  0  0  0  0  0
   41.6230   28.3540   37.1920 H   0  0  0  0  0  0  0  0  0  0  0  0
   40.2170   27.4880   39.0100 H   0  0  0  0  0  0  0  0  0  0  0  0
   40.9400   32.6750   38.6460 C   0  0  2  0  0  0  0  0  0  0  0  0
   42.2830   33.0750   39.2210 C   0  0  0  0  0  0  0  0  0  0  0  0
   42.0390   33.4550   40.6750 C   0  0  0  0  0  0  0  0  0  0  0  0
   41.2800   34.5900   40.8060 O   0  0  0  0  0  0  0  0  0  0  0  0
   40.2420   34.7070   39.8880 C   0  0  0  0  0  0  0  0  0  0  0  0
   39.8340   33.3040   39.4740 C   0  0  1  0  0  0  0  0  0  0  0  0
   40.8360   33.0220   37.5970 H   0  0  0  0  0  0  0  0  0  0  0  0
   42.5850   34.0200   38.7100 H   0  0  0  0  0  0  0  0  0  0  0  0
   43.0220   32.2750   39.1770 H   0  0  0  0  0  0  0  0  0  0  0  0
   43.0670   33.6760   41.0860 H   0  0  0  0  0  0  0  0  0  0  0  0
   41.6830   32.5950   41.2800 H   0  0  0  0  0  0  0  0  0  0  0  0
   40.5230   35.3370   39.0220 H   0  0  0  0  0  0  0  0  0  0  0  0
   39.3700   35.1420   40.4230 H   0  0  0  0  0  0  0  0  0  0  0  0
   39.7960   32.7300   40.4390 H   0  0  0  0  0  0  0  0  0  0  0  0
   36.4220   32.7170   39.0840 H   0  0  0  0  0  0  0  0  0  0  0  0
   37.3810   32.7470   39.5410 C   0  0  0  0  0  0  0  0  0  0  0  0
   37.1980   32.2560   40.7040 O   0  0  0  0  0  0  0  0  0  0  0  0
   38.5460   33.2620   38.8680 N   0  0  0  0  0  0  0  0  0  0  0  0
   38.3520   33.5970   37.8990 H   0  0  0  0  0  0  0  0  0  0  0  0
   36.9350   29.1470   39.0800 Cl  0  0  0  0  0  0  0  0  0  0  0  0
   37.5710   28.7100   40.6660 C   0  0  0  0  0  0  0  0  0  0  0  0
   38.9320   28.8620   40.9310 C   0  0  0  0  0  0  0  0  0  0  0  0
   39.3770   28.5090   42.1740 C   0  0  0  0  0  0  0  0  0  0  0  0
   38.5170   28.0200   43.1400 C   0  0  0  0  0  0  0  0  0  0  0  0
   37.1650   27.8930   42.8090 C   0  0  0  0  0  0  0  0  0  0  0  0
   36.0920   27.2680   44.0550 Cl  0  0  0  0  0  0  0  0  0  0  0  0
   36.6640   28.2310   41.5780 C   0  0  0  0  0  0  0  0  0  0  0  0
   40.4280   28.6330   42.3600 H   0  0  0  0  0  0  0  0  0  0  0  0
   38.8840   27.7490   44.1070 H   0  0  0  0  0  0  0  0  0  0  0  0
   35.6140   28.1180   41.3620 H   0  0  0  0  0  0  0  0  0  0  0  0
  1  2  1  0  0  0  0
  2  8  1  0  0  0  0
  2  3  2  0  0  0  0
  3 30  1  0  0  0  0
  4  3  1  0  0  0  0
  5  4  2  0  0  0  0
  6  1  2  0  0  0  0
  6  5  1  0  0  0  0
  7  1  1  0  0  0  0
  9 15  1  6  0  0  0
  9  5  1  0  0  0  0
  9 10  1  0  0  0  0
  9 14  1  0  0  0  0
 10 11  1  0  0  0  0
 11 12  1  0  0  0  0
 11 18  1  0  0  0  0
 11 19  1  0  0  0  0
 13 21  1  0  0  0  0
 13 12  1  0  0  0  0
 14 13  1  0  0  0  0
 14 22  1  1  0  0  0
 16 10  1  0  0  0  0
 17 10  1  0  0  0  0
 20 13  1  0  0  0  0
 23 24  1  0  0  0  0
 24 25  2  0  0  0  0
 26 14  1  0  0  0  0
 26 24  1  0  0  0  0
 27 26  1  0  0  0  0
 28 29  1  0  0  0  0
 29 30  2  0  0  0  0
 29 35  1  0  0  0  0
 30 31  1  0  0  0  0
 31 36  1  0  0  0  0
 31 32  2  0  0  0  0
 32 37  1  0  0  0  0
 33 32  1  0  0  0  0
 33 34  1  0  0  0  0
 35 33  2  0  0  0  0
 38 35  1  0  0  0  0
M  END
>  <minimizedAffinity>
-5.18790627

$$$$

 OpenBabel03242522263D

 38 40  0  0  1  0  0  0  0  0999 V2000
   36.9070   26.9220   39.5790 C   0  0  0  0  0  0  0  0  0  0  0  0
   35.9050   27.2110   38.6370 C   0  0  0  0  0  0  0  0  0  0  0  0
   35.4960   28.5240   38.3850 C   0  0  0  0  0  0  0  0  0  0  0  0
   36.1180   29.4970   39.1000 N   0  0  0  0  0  0  0  0  0  0  0  0
   37.0700   29.2180   39.9950 C   0  0  0  0  0  0  0  0  0  0  0  0
   37.4590   27.9560   40.2320 N   0  0  0  0  0  0  0  0  0  0  0  0
   37.1690   25.8740   39.7170 H   0  0  0  0  0  0  0  0  0  0  0  0
   35.4230   26.4230   38.0790 H   0  0  0  0  0  0  0  0  0  0  0  0
   37.6980   30.3400   40.7330 C   0  0  2  0  0  0  0  0  0  0  0  0
   38.8200   30.9540   39.9220 C   0  0  0  0  0  0  0  0  0  0  0  0
   40.1070   30.2810   40.3800 C   0  0  0  0  0  0  0  0  0  0  0  0
   40.4360   30.5920   41.6740 O   0  0  0  0  0  0  0  0  0  0  0  0
   39.3570   30.6640   42.5490 C   0  0  0  0  0  0  0  0  0  0  0  0
   38.2670   29.7530   42.0110 C   0  0  1  0  0  0  0  0  0  0  0  0
   36.9370   31.1010   41.0020 H   0  0  0  0  0  0  0  0  0  0  0  0
   38.9060   32.0190   40.2440 H   0  0  0  0  0  0  0  0  0  0  0  0
   38.7000   30.8100   38.8480 H   0  0  0  0  0  0  0  0  0  0  0  0
   40.9050   30.7110   39.7060 H   0  0  0  0  0  0  0  0  0  0  0  0
   40.1160   29.1940   40.1530 H   0  0  0  0  0  0  0  0  0  0  0  0
   39.0050   31.7050   42.6890 H   0  0  0  0  0  0  0  0  0  0  0  0
   39.6820   30.2260   43.5170 H   0  0  0  0  0  0  0  0  0  0  0  0
   38.8110   28.8150   41.7150 H   0  0  0  0  0  0  0  0  0  0  0  0
   36.6600   28.0120   44.5660 H   0  0  0  0  0  0  0  0  0  0  0  0
   37.3910   28.2550   43.8340 C   0  0  0  0  0  0  0  0  0  0  0  0
   38.2560   27.3220   43.9220 O   0  0  0  0  0  0  0  0  0  0  0  0
   37.2920   29.4220   42.9950 N   0  0  0  0  0  0  0  0  0  0  0  0
   36.4400   29.9950   43.1790 H   0  0  0  0  0  0  0  0  0  0  0  0
   36.5630   28.8460   35.6600 Cl  0  0  0  0  0  0  0  0  0  0  0  0
   34.8590   29.0130   36.0850 C   0  0  0  0  0  0  0  0  0  0  0  0
   34.4580   28.8400   37.4090 C   0  0  0  0  0  0  0  0  0  0  0  0
   33.1270   28.9800   37.6890 C   0  0  0  0  0  0  0  0  0  0  0  0
   32.2060   29.2810   36.7030 C   0  0  0  0  0  0  0  0  0  0  0  0
   32.6760   29.4420   35.3960 C   0  0  0  0  0  0  0  0  0  0  0  0
   31.4850   29.8250   34.1600 Cl  0  0  0  0  0  0  0  0  0  0  0  0
   33.9990   29.3140   35.0580 C   0  0  0  0  0  0  0  0  0  0  0  0
   32.8360   28.8420   38.7150 H   0  0  0  0  0  0  0  0  0  0  0  0
   31.1700   29.3870   36.9410 H   0  0  0  0  0  0  0  0  0  0  0  0
   34.3220   29.4450   34.0380 H   0  0  0  0  0  0  0  0  0  0  0  0
  1  7  1  0  0  0  0
  1  6  1  0  0  0  0
  2  1  2  0  0  0  0
  3  2  1  0  0  0  0
  3  4  2  0  0  0  0
  4  5  1  0  0  0  0
  5  6  2  0  0  0  0
  5  9  1  0  0  0  0
  8  2  1  0  0  0  0
  9 15  1  1  0  0  0
  9 14  1  0  0  0  0
 10 16  1  0  0  0  0
 10 11  1  0  0  0  0
 10  9  1  0  0  0  0
 11 12  1  0  0  0  0
 12 13  1  0  0  0  0
 13 20  1  0  0  0  0
 13 21  1  0  0  0  0
 14 22  1  6  0  0  0
 14 13  1  0  0  0  0
 14 26  1  0  0  0  0
 17 10  1  0  0  0  0
 18 11  1  0  0  0  0
 19 11  1  0  0  0  0
 24 25  2  0  0  0  0
 24 23  1  0  0  0  0
 26 27  1  0  0  0  0
 26 24  1  0  0  0  0
 28 29  1  0  0  0  0
 29 30  1  0  0  0  0
 30 31  2  0  0  0  0
 30  3  1  0  0  0  0
 31 36  1  0  0  0  0
 32 37  1  0  0  0  0
 32 31  1  0  0  0  0
 33 32  2  0  0  0  0
 34 33  1  0  0  0  0
 35 33  1  0  0  0  0
 35 29  2  0  0  0  0
 38 35  1  0  0  0  0
M  END
>  <minimizedAffinity>
-5.1754427

$$$$
