
 OpenBabel03242514533D

 28 29  0  0  1  0  0  0  0  0999 V2000
   37.5210   30.7100   40.8090 N   0  0  0  0  0  0  0  0  0  0  0  0
   36.2020   30.7450   40.2400 C   0  0  0  0  0  0  0  0  0  0  0  0
   35.4030   29.5190   40.4720 C   0  0  0  0  0  0  0  0  0  0  0  0
   36.0870   28.3020   40.4210 N   0  0  0  0  0  0  0  0  0  0  0  0
   37.4650   28.2900   40.6590 C   0  0  0  0  0  0  0  0  0  0  0  0
   37.8780   29.5000   41.4840 C   0  0  2  0  0  0  0  0  0  0  0  0
   35.5950   31.6130   40.5900 H   0  0  0  0  0  0  0  0  0  0  0  0
   36.3270   30.9100   39.1460 H   0  0  0  0  0  0  0  0  0  0  0  0
   34.6030   29.4920   39.6710 H   0  0  0  0  0  0  0  0  0  0  0  0
   34.8020   29.6420   41.4180 H   0  0  0  0  0  0  0  0  0  0  0  0
   35.6230   27.5790   41.0170 H   0  0  0  0  0  0  0  0  0  0  0  0
   37.9920   28.3910   39.6840 H   0  0  0  0  0  0  0  0  0  0  0  0
   37.8600   27.3850   41.1400 H   0  0  0  0  0  0  0  0  0  0  0  0
   38.9520   29.3850   41.6560 H   0  0  0  0  0  0  0  0  0  0  0  0
   37.7330   33.0280   40.2530 C   0  0  0  0  0  0  0  0  0  0  0  0
   38.3340   31.8450   40.6610 C   0  0  0  0  0  0  0  0  0  0  0  0
   39.7160   31.8620   40.8930 C   0  0  0  0  0  0  0  0  0  0  0  0
   40.3960   33.0350   40.7060 N   0  0  0  0  0  0  0  0  0  0  0  0
   39.7720   34.1610   40.3070 C   0  0  0  0  0  0  0  0  0  0  0  0
   38.4440   34.1600   40.0810 N   0  0  0  0  0  0  0  0  0  0  0  0
   36.6930   33.2110   40.0310 H   0  0  0  0  0  0  0  0  0  0  0  0
   40.1860   30.9420   41.2110 H   0  0  0  0  0  0  0  0  0  0  0  0
   40.4540   35.0040   40.2060 H   0  0  0  0  0  0  0  0  0  0  0  0
   37.4510   28.0580   44.6970 H   0  0  0  0  0  0  0  0  0  0  0  0
   37.7030   28.3970   43.6800 C   0  0  0  0  0  0  0  0  0  0  0  0
   38.6050   27.4920   43.6780 O   0  0  0  0  0  0  0  0  0  0  0  0
   37.2040   29.4180   42.7890 N   0  0  0  0  0  0  0  0  0  0  0  0
   36.4560   29.8240   43.3810 H   0  0  0  0  0  0  0  0  0  0  0  0
  1  6  1  0  0  0  0
  2  3  1  0  0  0  0
  2  7  1  0  0  0  0
  2  1  1  0  0  0  0
  3 10  1  0  0  0  0
  4  3  1  0  0  0  0
  4  5  1  0  0  0  0
  4 11  1  0  0  0  0
  5 13  1  0  0  0  0
  5  6  1  0  0  0  0
  6 14  1  1  0  0  0
  6 27  1  0  0  0  0
  8  2  1  0  0  0  0
  9  3  1  0  0  0  0
 12  5  1  0  0  0  0
 15 16  1  0  0  0  0
 16  1  1  0  0  0  0
 16 17  2  0  0  0  0
 17 22  1  0  0  0  0
 18 17  1  0  0  0  0
 19 18  2  0  0  0  0
 20 15  2  0  0  0  0
 20 19  1  0  0  0  0
 21 15  1  0  0  0  0
 23 19  1  0  0  0  0
 25 24  1  0  0  0  0
 26 25  2  0  0  0  0
 27 28  1  0  0  0  0
 27 25  1  0  0  0  0
M  END
>  <minimizedAffinity>
-4.39605093

$$$$

 OpenBabel03242514533D

 28 29  0  0  1  0  0  0  0  0999 V2000
   37.4890   30.6640   40.7750 N   0  0  0  0  0  0  0  0  0  0  0  0
   36.1930   30.6100   40.1570 C   0  0  0  0  0  0  0  0  0  0  0  0
   35.4530   29.3500   40.3990 C   0  0  0  0  0  0  0  0  0  0  0  0
   36.2020   28.1710   40.4100 N   0  0  0  0  0  0  0  0  0  0  0  0
   37.5690   28.2410   40.6990 C   0  0  0  0  0  0  0  0  0  0  0  0
   37.8850   29.4960   41.5010 C   0  0  2  0  0  0  0  0  0  0  0  0
   35.5280   31.4540   40.4570 H   0  0  0  0  0  0  0  0  0  0  0  0
   36.3510   30.7500   39.0640 H   0  0  0  0  0  0  0  0  0  0  0  0
   34.6860   29.2550   39.5700 H   0  0  0  0  0  0  0  0  0  0  0  0
   34.8100   29.4680   41.3170 H   0  0  0  0  0  0  0  0  0  0  0  0
   35.7550   27.4420   41.0110 H   0  0  0  0  0  0  0  0  0  0  0  0
   38.1260   28.3420   39.7420 H   0  0  0  0  0  0  0  0  0  0  0  0
   37.9930   27.3740   41.2220 H   0  0  0  0  0  0  0  0  0  0  0  0
   38.9560   29.4440   41.7150 H   0  0  0  0  0  0  0  0  0  0  0  0
   39.6200   31.7530   40.8030 C   0  0  0  0  0  0  0  0  0  0  0  0
   38.2460   31.8360   40.6210 C   0  0  0  0  0  0  0  0  0  0  0  0
   37.7060   33.0890   40.3020 C   0  0  0  0  0  0  0  0  0  0  0  0
   38.5540   34.1580   40.1860 N   0  0  0  0  0  0  0  0  0  0  0  0
   39.8820   34.0310   40.3730 C   0  0  0  0  0  0  0  0  0  0  0  0
   40.4170   32.8340   40.6800 N   0  0  0  0  0  0  0  0  0  0  0  0
   40.2130   30.8860   41.0480 H   0  0  0  0  0  0  0  0  0  0  0  0
   36.6360   33.1570   40.1590 H   0  0  0  0  0  0  0  0  0  0  0  0
   40.4140   34.9740   40.2440 H   0  0  0  0  0  0  0  0  0  0  0  0
   37.3050   28.0150   44.6720 H   0  0  0  0  0  0  0  0  0  0  0  0
   37.6010   28.3620   43.6690 C   0  0  0  0  0  0  0  0  0  0  0  0
   38.4700   27.4260   43.6800 O   0  0  0  0  0  0  0  0  0  0  0  0
   37.1660   29.4150   42.7820 N   0  0  0  0  0  0  0  0  0  0  0  0
   36.4140   29.8380   43.3570 H   0  0  0  0  0  0  0  0  0  0  0  0
  1  6  1  0  0  0  0
  2  3  1  0  0  0  0
  2  7  1  0  0  0  0
  2  1  1  0  0  0  0
  3  4  1  0  0  0  0
  3 10  1  0  0  0  0
  4  5  1  0  0  0  0
  4 11  1  0  0  0  0
  5 13  1  0  0  0  0
  5  6  1  0  0  0  0
  6 14  1  1  0  0  0
  6 27  1  0  0  0  0
  8  2  1  0  0  0  0
  9  3  1  0  0  0  0
 12  5  1  0  0  0  0
 15 21  1  0  0  0  0
 16  1  1  0  0  0  0
 16 15  2  0  0  0  0
 17 16  1  0  0  0  0
 18 17  2  0  0  0  0
 18 19  1  0  0  0  0
 19 20  2  0  0  0  0
 20 15  1  0  0  0  0
 22 17  1  0  0  0  0
 23 19  1  0  0  0  0
 25 26  2  0  0  0  0
 25 24  1  0  0  0  0
 27 28  1  0  0  0  0
 27 25  1  0  0  0  0
M  END
>  <minimizedAffinity>
-4.36162806

$$$$

 OpenBabel03242514533D

 28 29  0  0  1  0  0  0  0  0999 V2000
   37.8990   31.1700   40.7520 N   0  0  0  0  0  0  0  0  0  0  0  0
   36.9300   31.4510   39.7300 C   0  0  0  0  0  0  0  0  0  0  0  0
   37.2590   32.6200   38.8810 C   0  0  0  0  0  0  0  0  0  0  0  0
   37.8490   33.7150   39.5170 N   0  0  0  0  0  0  0  0  0  0  0  0
   38.5400   33.5080   40.7160 C   0  0  0  0  0  0  0  0  0  0  0  0
   39.0130   32.0650   40.8220 C   0  0  2  0  0  0  0  0  0  0  0  0
   36.7430   30.5860   39.0510 H   0  0  0  0  0  0  0  0  0  0  0  0
   35.9580   31.6220   40.2440 H   0  0  0  0  0  0  0  0  0  0  0  0
   36.2860   32.9790   38.4240 H   0  0  0  0  0  0  0  0  0  0  0  0
   37.8410   32.2730   37.9800 H   0  0  0  0  0  0  0  0  0  0  0  0
   38.4490   34.2610   38.8580 H   0  0  0  0  0  0  0  0  0  0  0  0
   37.8330   33.6600   41.5610 H   0  0  0  0  0  0  0  0  0  0  0  0
   39.3960   34.1720   40.8960 H   0  0  0  0  0  0  0  0  0  0  0  0
   39.5740   32.0090   41.7580 H   0  0  0  0  0  0  0  0  0  0  0  0
   36.6070   29.2270   41.2860 C   0  0  0  0  0  0  0  0  0  0  0  0
   37.6800   30.0590   41.5820 C   0  0  0  0  0  0  0  0  0  0  0  0
   38.4680   29.7350   42.6940 C   0  0  0  0  0  0  0  0  0  0  0  0
   38.1430   28.6250   43.4260 N   0  0  0  0  0  0  0  0  0  0  0  0
   37.0920   27.8460   43.1030 C   0  0  0  0  0  0  0  0  0  0  0  0
   36.3240   28.1440   42.0370 N   0  0  0  0  0  0  0  0  0  0  0  0
   35.8960   29.3090   40.4790 H   0  0  0  0  0  0  0  0  0  0  0  0
   39.3040   30.3810   42.9260 H   0  0  0  0  0  0  0  0  0  0  0  0
   36.9700   27.0040   43.7850 H   0  0  0  0  0  0  0  0  0  0  0  0
   42.2530   32.1880   39.3840 H   0  0  0  0  0  0  0  0  0  0  0  0
   41.3150   32.2210   39.9600 C   0  0  0  0  0  0  0  0  0  0  0  0
   41.9910   32.7740   40.8930 O   0  0  0  0  0  0  0  0  0  0  0  0
   39.9530   31.8080   39.7200 N   0  0  0  0  0  0  0  0  0  0  0  0
   40.0470   31.4210   38.7620 H   0  0  0  0  0  0  0  0  0  0  0  0
  1  6  1  0  0  0  0
  1 16  1  0  0  0  0
  2  8  1  0  0  0  0
  2  1  1  0  0  0  0
  3  4  1  0  0  0  0
  3  2  1  0  0  0  0
  4  5  1  0  0  0  0
  5  6  1  0  0  0  0
  5 13  1  0  0  0  0
  5 12  1  0  0  0  0
  6 14  1  1  0  0  0
  7  2  1  0  0  0  0
  9  3  1  0  0  0  0
 10  3  1  0  0  0  0
 11  4  1  0  0  0  0
 15 16  2  0  0  0  0
 15 20  1  0  0  0  0
 16 17  1  0  0  0  0
 17 22  1  0  0  0  0
 17 18  2  0  0  0  0
 19 18  1  0  0  0  0
 19 23  1  0  0  0  0
 20 19  2  0  0  0  0
 21 15  1  0  0  0  0
 24 25  1  0  0  0  0
 25 26  2  0  0  0  0
 27 25  1  0  0  0  0
 27  6  1  0  0  0  0
 28 27  1  0  0  0  0
M  END
>  <minimizedAffinity>
-4.17245913

$$$$

 OpenBabel03242514533D

 28 29  0  0  1  0  0  0  0  0999 V2000
   37.6660   30.8670   40.4300 N   0  0  0  0  0  0  0  0  0  0  0  0
   36.9800   30.7480   39.1740 C   0  0  0  0  0  0  0  0  0  0  0  0
   37.2750   31.8340   38.2110 C   0  0  0  0  0  0  0  0  0  0  0  0
   37.4210   33.1200   38.7360 N   0  0  0  0  0  0  0  0  0  0  0  0
   37.7820   33.2640   40.0800 C   0  0  0  0  0  0  0  0  0  0  0  0
   38.5020   32.0190   40.5790 C   0  0  2  0  0  0  0  0  0  0  0  0
   37.1750   29.7780   38.6570 H   0  0  0  0  0  0  0  0  0  0  0  0
   35.8900   30.7330   39.4020 H   0  0  0  0  0  0  0  0  0  0  0  0
   36.4120   31.8650   37.4770 H   0  0  0  0  0  0  0  0  0  0  0  0
   38.1420   31.5270   37.5590 H   0  0  0  0  0  0  0  0  0  0  0  0
   38.0500   33.7050   38.1410 H   0  0  0  0  0  0  0  0  0  0  0  0
   36.8540   33.3440   40.6880 H   0  0  0  0  0  0  0  0  0  0  0  0
   38.3950   34.1430   40.3200 H   0  0  0  0  0  0  0  0  0  0  0  0
   38.7820   32.2380   41.6140 H   0  0  0  0  0  0  0  0  0  0  0  0
   38.2980   29.8490   42.5020 C   0  0  0  0  0  0  0  0  0  0  0  0
   37.4670   29.8620   41.3900 C   0  0  0  0  0  0  0  0  0  0  0  0
   36.4870   28.8650   41.2980 C   0  0  0  0  0  0  0  0  0  0  0  0
   36.4000   27.9370   42.3010 N   0  0  0  0  0  0  0  0  0  0  0  0
   37.2290   27.9620   43.3620 C   0  0  0  0  0  0  0  0  0  0  0  0
   38.1770   28.9140   43.4660 N   0  0  0  0  0  0  0  0  0  0  0  0
   39.1000   30.5270   42.7480 H   0  0  0  0  0  0  0  0  0  0  0  0
   35.8370   28.8730   40.4330 H   0  0  0  0  0  0  0  0  0  0  0  0
   37.0290   27.1570   44.0690 H   0  0  0  0  0  0  0  0  0  0  0  0
   42.0200   31.6270   40.3520 H   0  0  0  0  0  0  0  0  0  0  0  0
   40.9500   31.7500   40.5840 C   0  0  0  0  0  0  0  0  0  0  0  0
   41.2900   31.7460   41.8160 O   0  0  0  0  0  0  0  0  0  0  0  0
   39.7410   31.8620   39.8030 N   0  0  0  0  0  0  0  0  0  0  0  0
   40.1370   31.7940   38.8460 H   0  0  0  0  0  0  0  0  0  0  0  0
  1  6  1  0  0  0  0
  1 16  1  0  0  0  0
  2  8  1  0  0  0  0
  2  1  1  0  0  0  0
  3  4  1  0  0  0  0
  3  2  1  0  0  0  0
  4  5  1  0  0  0  0
  5 13  1  0  0  0  0
  5  6  1  0  0  0  0
  5 12  1  0  0  0  0
  6 14  1  1  0  0  0
  7  2  1  0  0  0  0
  9  3  1  0  0  0  0
 10  3  1  0  0  0  0
 11  4  1  0  0  0  0
 15 21  1  0  0  0  0
 15 20  1  0  0  0  0
 16 15  2  0  0  0  0
 17 16  1  0  0  0  0
 17 18  2  0  0  0  0
 18 19  1  0  0  0  0
 19 20  2  0  0  0  0
 19 23  1  0  0  0  0
 22 17  1  0  0  0  0
 24 25  1  0  0  0  0
 25 26  2  0  0  0  0
 27  6  1  0  0  0  0
 27 25  1  0  0  0  0
 28 27  1  0  0  0  0
M  END
>  <minimizedAffinity>
-4.05180502

$$$$

 OpenBabel03242514533D

 28 29  0  0  1  0  0  0  0  0999 V2000
   38.4660   30.2030   41.5910 N   0  0  0  0  0  0  0  0  0  0  0  0
   39.7780   29.6320   41.7230 C   0  0  0  0  0  0  0  0  0  0  0  0
   39.7950   28.2680   42.3030 C   0  0  0  0  0  0  0  0  0  0  0  0
   38.8820   28.0070   43.3270 N   0  0  0  0  0  0  0  0  0  0  0  0
   37.7230   28.7860   43.4140 C   0  0  0  0  0  0  0  0  0  0  0  0
   37.3820   29.3950   42.0610 C   0  0  2  0  0  0  0  0  0  0  0  0
   40.3400   29.5940   40.7600 H   0  0  0  0  0  0  0  0  0  0  0  0
   40.3670   30.3220   42.3670 H   0  0  0  0  0  0  0  0  0  0  0  0
   40.8330   28.1050   42.7270 H   0  0  0  0  0  0  0  0  0  0  0  0
   39.7470   27.5100   41.4700 H   0  0  0  0  0  0  0  0  0  0  0  0
   38.6260   26.9940   43.3590 H   0  0  0  0  0  0  0  0  0  0  0  0
   37.9240   29.6430   44.0930 H   0  0  0  0  0  0  0  0  0  0  0  0
   36.8310   28.2760   43.8030 H   0  0  0  0  0  0  0  0  0  0  0  0
   36.4490   29.9440   42.2130 H   0  0  0  0  0  0  0  0  0  0  0  0
   39.4180   32.3620   41.1890 C   0  0  0  0  0  0  0  0  0  0  0  0
   38.3570   31.4810   41.0220 C   0  0  0  0  0  0  0  0  0  0  0  0
   37.2450   31.9320   40.2980 C   0  0  0  0  0  0  0  0  0  0  0  0
   37.2610   33.2060   39.7990 N   0  0  0  0  0  0  0  0  0  0  0  0
   38.3130   34.0270   39.9860 C   0  0  0  0  0  0  0  0  0  0  0  0
   39.3900   33.6090   40.6790 N   0  0  0  0  0  0  0  0  0  0  0  0
   40.3510   32.1980   41.7060 H   0  0  0  0  0  0  0  0  0  0  0  0
   36.4170   31.2480   40.1660 H   0  0  0  0  0  0  0  0  0  0  0  0
   38.1680   35.0040   39.5260 H   0  0  0  0  0  0  0  0  0  0  0  0
   35.3480   27.7900   39.6380 H   0  0  0  0  0  0  0  0  0  0  0  0
   35.8630   28.4020   40.3960 C   0  0  0  0  0  0  0  0  0  0  0  0
   34.8700   29.2020   40.3220 O   0  0  0  0  0  0  0  0  0  0  0  0
   37.1090   28.2990   41.1190 N   0  0  0  0  0  0  0  0  0  0  0  0
   37.4720   27.4090   40.7290 H   0  0  0  0  0  0  0  0  0  0  0  0
  1  2  1  0  0  0  0
  1  6  1  0  0  0  0
  2  3  1  0  0  0  0
  2  8  1  0  0  0  0
  3  9  1  0  0  0  0
  3  4  1  0  0  0  0
  4 11  1  0  0  0  0
  4  5  1  0  0  0  0
  5 13  1  0  0  0  0
  5 12  1  0  0  0  0
  6 14  1  1  0  0  0
  6  5  1  0  0  0  0
  7  2  1  0  0  0  0
 10  3  1  0  0  0  0
 15 21  1  0  0  0  0
 16 15  1  0  0  0  0
 16  1  1  0  0  0  0
 17 16  2  0  0  0  0
 18 19  2  0  0  0  0
 18 17  1  0  0  0  0
 19 20  1  0  0  0  0
 20 15  2  0  0  0  0
 22 17  1  0  0  0  0
 23 19  1  0  0  0  0
 24 25  1  0  0  0  0
 25 27  1  0  0  0  0
 26 25  2  0  0  0  0
 27  6  1  0  0  0  0
 28 27  1  0  0  0  0
M  END
>  <minimizedAffinity>
-4.03747749

$$$$

 OpenBabel03242514533D

 28 29  0  0  1  0  0  0  0  0999 V2000
   37.4390   26.8990   41.5400 N   0  0  0  0  0  0  0  0  0  0  0  0
   37.4480   28.2320   41.0030 C   0  0  0  0  0  0  0  0  0  0  0  0
   37.6800   29.2940   42.0080 C   0  0  0  0  0  0  0  0  0  0  0  0
   37.0890   29.1170   43.2610 N   0  0  0  0  0  0  0  0  0  0  0  0
   36.7660   27.8220   43.6790 C   0  0  0  0  0  0  0  0  0  0  0  0
   37.6240   26.7940   42.9540 C   0  0  2  0  0  0  0  0  0  0  0  0
   38.1960   28.3720   40.1870 H   0  0  0  0  0  0  0  0  0  0  0  0
   36.4610   28.3880   40.5120 H   0  0  0  0  0  0  0  0  0  0  0  0
   37.2670   30.2550   41.5730 H   0  0  0  0  0  0  0  0  0  0  0  0
   38.7850   29.5080   42.0730 H   0  0  0  0  0  0  0  0  0  0  0  0
   37.6330   29.6010   44.0110 H   0  0  0  0  0  0  0  0  0  0  0  0
   35.7160   27.6070   43.3820 H   0  0  0  0  0  0  0  0  0  0  0  0
   36.8340   27.6360   44.7600 H   0  0  0  0  0  0  0  0  0  0  0  0
   37.3360   25.8250   43.3720 H   0  0  0  0  0  0  0  0  0  0  0  0
   36.9110   24.5930   41.1780 C   0  0  0  0  0  0  0  0  0  0  0  0
   37.2550   25.8300   40.6490 C   0  0  0  0  0  0  0  0  0  0  0  0
   37.4020   25.9250   39.2590 C   0  0  0  0  0  0  0  0  0  0  0  0
   37.2000   24.8030   38.5000 N   0  0  0  0  0  0  0  0  0  0  0  0
   36.8680   23.6220   39.0570 C   0  0  0  0  0  0  0  0  0  0  0  0
   36.7230   23.5140   40.3920 N   0  0  0  0  0  0  0  0  0  0  0  0
   36.7530   24.3260   42.2110 H   0  0  0  0  0  0  0  0  0  0  0  0
   37.6700   26.8870   38.8430 H   0  0  0  0  0  0  0  0  0  0  0  0
   36.7430   22.8310   38.3180 H   0  0  0  0  0  0  0  0  0  0  0  0
   40.8900   25.6550   43.7430 H   0  0  0  0  0  0  0  0  0  0  0  0
   39.8370   25.8510   43.4850 C   0  0  0  0  0  0  0  0  0  0  0  0
   39.6910   24.5830   43.4200 O   0  0  0  0  0  0  0  0  0  0  0  0
   39.0310   27.0360   43.3110 N   0  0  0  0  0  0  0  0  0  0  0  0
   39.7390   27.7680   43.5060 H   0  0  0  0  0  0  0  0  0  0  0  0
  1  6  1  0  0  0  0
  2  1  1  0  0  0  0
  2  3  1  0  0  0  0
  3 10  1  0  0  0  0
  3  4  1  0  0  0  0
  4  5  1  0  0  0  0
  4 11  1  0  0  0  0
  5 13  1  0  0  0  0
  6 27  1  0  0  0  0
  6 14  1  1  0  0  0
  6  5  1  0  0  0  0
  7  2  1  0  0  0  0
  8  2  1  0  0  0  0
  9  3  1  0  0  0  0
 12  5  1  0  0  0  0
 15 21  1  0  0  0  0
 16 15  1  0  0  0  0
 16  1  1  0  0  0  0
 17 16  2  0  0  0  0
 18 19  2  0  0  0  0
 18 17  1  0  0  0  0
 19 20  1  0  0  0  0
 20 15  2  0  0  0  0
 22 17  1  0  0  0  0
 23 19  1  0  0  0  0
 25 24  1  0  0  0  0
 26 25  2  0  0  0  0
 27 25  1  0  0  0  0
 27 28  1  0  0  0  0
M  END
>  <minimizedAffinity>
-4.0069623

$$$$

 OpenBabel03242514533D

 28 29  0  0  1  0  0  0  0  0999 V2000
   37.3520   30.5010   40.1850 N   0  0  0  0  0  0  0  0  0  0  0  0
   37.2020   31.9090   40.4300 C   0  0  0  0  0  0  0  0  0  0  0  0
   37.2190   32.7460   39.2080 C   0  0  0  0  0  0  0  0  0  0  0  0
   38.1050   32.3680   38.1960 N   0  0  0  0  0  0  0  0  0  0  0  0
   38.5300   31.0360   38.1330 C   0  0  0  0  0  0  0  0  0  0  0  0
   37.5250   30.1190   38.8170 C   0  0  2  0  0  0  0  0  0  0  0  0
   36.2730   32.1600   40.9950 H   0  0  0  0  0  0  0  0  0  0  0  0
   38.0340   32.2100   41.1040 H   0  0  0  0  0  0  0  0  0  0  0  0
   37.5050   33.7940   39.5320 H   0  0  0  0  0  0  0  0  0  0  0  0
   36.1640   32.8830   38.8360 H   0  0  0  0  0  0  0  0  0  0  0  0
   37.7610   32.6690   37.2560 H   0  0  0  0  0  0  0  0  0  0  0  0
   39.4740   30.9400   38.7130 H   0  0  0  0  0  0  0  0  0  0  0  0
   38.7340   30.6460   37.1280 H   0  0  0  0  0  0  0  0  0  0  0  0
   37.9140   29.1060   38.6810 H   0  0  0  0  0  0  0  0  0  0  0  0
   38.2540   29.8170   42.2940 C   0  0  0  0  0  0  0  0  0  0  0  0
   37.3150   29.6320   41.2870 C   0  0  0  0  0  0  0  0  0  0  0  0
   36.3970   28.5850   41.4370 C   0  0  0  0  0  0  0  0  0  0  0  0
   36.4720   27.8040   42.5590 N   0  0  0  0  0  0  0  0  0  0  0  0
   37.4010   28.0190   43.5110 C   0  0  0  0  0  0  0  0  0  0  0  0
   38.2910   29.0220   43.3820 N   0  0  0  0  0  0  0  0  0  0  0  0
   39.0320   30.5620   42.3580 H   0  0  0  0  0  0  0  0  0  0  0  0
   35.6650   28.4390   40.6550 H   0  0  0  0  0  0  0  0  0  0  0  0
   37.3250   27.3110   44.3370 H   0  0  0  0  0  0  0  0  0  0  0  0
   34.6720   28.6440   37.3110 H   0  0  0  0  0  0  0  0  0  0  0  0
   35.6030   28.9500   37.8150 C   0  0  0  0  0  0  0  0  0  0  0  0
   35.8140   27.7070   38.0240 O   0  0  0  0  0  0  0  0  0  0  0  0
   36.2500   30.2110   38.0900 N   0  0  0  0  0  0  0  0  0  0  0  0
   35.5690   30.8620   37.6560 H   0  0  0  0  0  0  0  0  0  0  0  0
  1  2  1  0  0  0  0
  1 16  1  0  0  0  0
  2  7  1  0  0  0  0
  2  8  1  0  0  0  0
  3  9  1  0  0  0  0
  3  2  1  0  0  0  0
  4  3  1  0  0  0  0
  5  4  1  0  0  0  0
  5 12  1  0  0  0  0
  5  6  1  0  0  0  0
  6 14  1  6  0  0  0
  6  1  1  0  0  0  0
 10  3  1  0  0  0  0
 11  4  1  0  0  0  0
 13  5  1  0  0  0  0
 15 21  1  0  0  0  0
 15 20  1  0  0  0  0
 16 17  1  0  0  0  0
 16 15  2  0  0  0  0
 17 18  2  0  0  0  0
 18 19  1  0  0  0  0
 19 23  1  0  0  0  0
 20 19  2  0  0  0  0
 22 17  1  0  0  0  0
 24 25  1  0  0  0  0
 25 26  2  0  0  0  0
 25 27  1  0  0  0  0
 27  6  1  0  0  0  0
 28 27  1  0  0  0  0
M  END
>  <minimizedAffinity>
-4.00584078

$$$$

 OpenBabel03242514533D

 28 29  0  0  1  0  0  0  0  0999 V2000
   38.5600   31.6950   39.9070 N   0  0  0  0  0  0  0  0  0  0  0  0
   39.3480   31.9220   38.7280 C   0  0  0  0  0  0  0  0  0  0  0  0
   40.3190   33.0350   38.8470 C   0  0  0  0  0  0  0  0  0  0  0  0
   39.9030   34.1610   39.5610 N   0  0  0  0  0  0  0  0  0  0  0  0
   38.8840   34.0220   40.5100 C   0  0  0  0  0  0  0  0  0  0  0  0
   38.8020   32.5840   41.0020 C   0  0  2  0  0  0  0  0  0  0  0  0
   39.9120   31.0190   38.3950 H   0  0  0  0  0  0  0  0  0  0  0  0
   38.6360   32.1320   37.8990 H   0  0  0  0  0  0  0  0  0  0  0  0
   40.5610   33.3740   37.7930 H   0  0  0  0  0  0  0  0  0  0  0  0
   41.3060   32.6290   39.2090 H   0  0  0  0  0  0  0  0  0  0  0  0
   40.7140   34.6610   39.9900 H   0  0  0  0  0  0  0  0  0  0  0  0
   37.9100   34.2310   40.0140 H   0  0  0  0  0  0  0  0  0  0  0  0
   38.9460   34.6880   41.3800 H   0  0  0  0  0  0  0  0  0  0  0  0
   38.0170   32.5790   41.7630 H   0  0  0  0  0  0  0  0  0  0  0  0
   36.4730   30.7770   40.6370 C   0  0  0  0  0  0  0  0  0  0  0  0
   37.6360   30.6380   39.8890 C   0  0  0  0  0  0  0  0  0  0  0  0
   37.8100   29.4480   39.1720 C   0  0  0  0  0  0  0  0  0  0  0  0
   36.8340   28.4910   39.2440 N   0  0  0  0  0  0  0  0  0  0  0  0
   35.7210   28.6680   39.9830 C   0  0  0  0  0  0  0  0  0  0  0  0
   35.5390   29.8070   40.6790 N   0  0  0  0  0  0  0  0  0  0  0  0
   36.1630   31.6120   41.2460 H   0  0  0  0  0  0  0  0  0  0  0  0
   38.7140   29.3370   38.5890 H   0  0  0  0  0  0  0  0  0  0  0  0
   35.0460   27.8140   39.9330 H   0  0  0  0  0  0  0  0  0  0  0  0
   40.7640   30.5790   43.1740 H   0  0  0  0  0  0  0  0  0  0  0  0
   40.0320   31.1010   42.5370 C   0  0  0  0  0  0  0  0  0  0  0  0
   39.1790   30.2340   42.9290 O   0  0  0  0  0  0  0  0  0  0  0  0
   40.0720   32.2520   41.6650 N   0  0  0  0  0  0  0  0  0  0  0  0
   41.0660   32.5270   41.7750 H   0  0  0  0  0  0  0  0  0  0  0  0
  1  6  1  0  0  0  0
  2  3  1  0  0  0  0
  2  1  1  0  0  0  0
  3 10  1  0  0  0  0
  3  4  1  0  0  0  0
  4 11  1  0  0  0  0
  4  5  1  0  0  0  0
  5  6  1  0  0  0  0
  5 13  1  0  0  0  0
  6 27  1  0  0  0  0
  6 14  1  1  0  0  0
  7  2  1  0  0  0  0
  8  2  1  0  0  0  0
  9  3  1  0  0  0  0
 12  5  1  0  0  0  0
 15 20  1  0  0  0  0
 15 21  1  0  0  0  0
 16  1  1  0  0  0  0
 16 15  2  0  0  0  0
 17 18  2  0  0  0  0
 17 16  1  0  0  0  0
 18 19  1  0  0  0  0
 19 20  2  0  0  0  0
 22 17  1  0  0  0  0
 23 19  1  0  0  0  0
 25 26  2  0  0  0  0
 25 24  1  0  0  0  0
 27 28  1  0  0  0  0
 27 25  1  0  0  0  0
M  END
>  <minimizedAffinity>
-3.98212171

$$$$

 OpenBabel03242514533D

 28 29  0  0  1  0  0  0  0  0999 V2000
   38.1480   31.5780   38.7170 N   0  0  0  0  0  0  0  0  0  0  0  0
   39.4530   32.0630   39.0680 C   0  0  0  0  0  0  0  0  0  0  0  0
   39.4480   33.2070   40.0090 C   0  0  0  0  0  0  0  0  0  0  0  0
   38.4400   34.1590   39.8380 N   0  0  0  0  0  0  0  0  0  0  0  0
   37.2570   33.7830   39.1930 C   0  0  0  0  0  0  0  0  0  0  0  0
   37.0430   32.2790   39.2960 C   0  0  2  0  0  0  0  0  0  0  0  0
   40.1140   31.2750   39.5010 H   0  0  0  0  0  0  0  0  0  0  0  0
   39.9530   32.3600   38.1190 H   0  0  0  0  0  0  0  0  0  0  0  0
   40.4400   33.7400   39.8850 H   0  0  0  0  0  0  0  0  0  0  0  0
   39.5070   32.8190   41.0660 H   0  0  0  0  0  0  0  0  0  0  0  0
   38.2090   34.6360   40.7400 H   0  0  0  0  0  0  0  0  0  0  0  0
   37.3630   34.0020   38.1080 H   0  0  0  0  0  0  0  0  0  0  0  0
   36.3440   34.2910   39.5310 H   0  0  0  0  0  0  0  0  0  0  0  0
   36.0840   32.0850   38.8080 H   0  0  0  0  0  0  0  0  0  0  0  0
   39.1260   29.5800   37.8330 C   0  0  0  0  0  0  0  0  0  0  0  0
   38.0640   30.4750   37.8530 C   0  0  0  0  0  0  0  0  0  0  0  0
   36.9800   30.2170   37.0030 C   0  0  0  0  0  0  0  0  0  0  0  0
   37.0240   29.1070   36.2030 N   0  0  0  0  0  0  0  0  0  0  0  0
   38.0770   28.2670   36.2160 C   0  0  0  0  0  0  0  0  0  0  0  0
   39.1260   28.5000   37.0270 N   0  0  0  0  0  0  0  0  0  0  0  0
   40.0370   29.6080   38.4100 H   0  0  0  0  0  0  0  0  0  0  0  0
   36.1510   30.9120   37.0170 H   0  0  0  0  0  0  0  0  0  0  0  0
   37.9550   27.4340   35.5230 H   0  0  0  0  0  0  0  0  0  0  0  0
   35.8860   30.1620   41.8970 H   0  0  0  0  0  0  0  0  0  0  0  0
   36.1760   30.7120   40.9880 C   0  0  0  0  0  0  0  0  0  0  0  0
   35.5890   29.7890   40.3270 O   0  0  0  0  0  0  0  0  0  0  0  0
   36.9000   31.9330   40.7190 N   0  0  0  0  0  0  0  0  0  0  0  0
   37.1220   32.2290   41.6880 H   0  0  0  0  0  0  0  0  0  0  0  0
  1  2  1  0  0  0  0
  1  6  1  0  0  0  0
  2  7  1  0  0  0  0
  2  3  1  0  0  0  0
  3 10  1  0  0  0  0
  4  3  1  0  0  0  0
  4 11  1  0  0  0  0
  5  6  1  0  0  0  0
  5 13  1  0  0  0  0
  5  4  1  0  0  0  0
  6 14  1  6  0  0  0
  6 27  1  0  0  0  0
  8  2  1  0  0  0  0
  9  3  1  0  0  0  0
 12  5  1  0  0  0  0
 15 16  1  0  0  0  0
 15 21  1  0  0  0  0
 16  1  1  0  0  0  0
 17 22  1  0  0  0  0
 17 16  2  0  0  0  0
 18 19  2  0  0  0  0
 18 17  1  0  0  0  0
 19 20  1  0  0  0  0
 20 15  2  0  0  0  0
 23 19  1  0  0  0  0
 25 24  1  0  0  0  0
 26 25  2  0  0  0  0
 27 25  1  0  0  0  0
 27 28  1  0  0  0  0
M  END
>  <minimizedAffinity>
-3.95998645

$$$$
