
 OpenBabel03252509253D

 26 27  0  0  1  0  0  0  0  0999 V2000
   47.0660   35.1700   41.7370 C   0  0  1  0  0  0  0  0  0  0  0  0
   48.5710   35.5470   41.8280 C   0  0  0  0  0  0  0  0  0  0  0  0
   47.9630   34.3480   41.0370 C   0  0  2  0  0  0  0  0  0  0  0  0
   46.4490   35.9540   41.2500 H   0  0  0  0  0  0  0  0  0  0  0  0
   48.8600   36.4170   41.2440 H   0  0  0  0  0  0  0  0  0  0  0  0
   49.1220   35.3390   42.7420 H   0  0  0  0  0  0  0  0  0  0  0  0
   48.2610   33.3640   41.5170 H   0  0  0  0  0  0  0  0  0  0  0  0
   45.0000   34.8510   44.8530 C   0  0  0  0  0  0  0  0  0  0  0  0
   45.4610   35.3570   43.6090 C   0  0  0  0  0  0  0  0  0  0  0  0
   46.5520   34.7420   43.0930 C   0  0  0  0  0  0  0  0  0  0  0  0
   47.1780   33.6990   43.7360 N   0  0  0  0  0  0  0  0  0  0  0  0
   46.7110   33.2430   44.9200 C   0  0  0  0  0  0  0  0  0  0  0  0
   45.6160   33.8240   45.4800 N   0  0  0  0  0  0  0  0  0  0  0  0
   44.1310   35.3010   45.3110 H   0  0  0  0  0  0  0  0  0  0  0  0
   47.2930   32.4240   45.3150 H   0  0  0  0  0  0  0  0  0  0  0  0
   44.8400   36.4500   42.9830 N   0  0  0  0  0  0  0  0  0  0  0  0
   44.7590   37.3070   43.5850 H   0  0  0  0  0  0  0  0  0  0  0  0
   44.5510   36.2530   42.0140 H   0  0  0  0  0  0  0  0  0  0  0  0
   48.0420   34.3670   39.5300 C   0  0  0  0  0  0  0  0  0  0  0  0
   48.5720   35.2880   39.2030 H   0  0  0  0  0  0  0  0  0  0  0  0
   47.0210   34.3120   39.0930 H   0  0  0  0  0  0  0  0  0  0  0  0
   49.6140   32.2080   37.2580 H   0  0  0  0  0  0  0  0  0  0  0  0
   49.0530   33.0410   37.6720 C   0  0  0  0  0  0  0  0  0  0  0  0
   48.5870   33.9200   36.8770 O   0  0  0  0  0  0  0  0  0  0  0  0
   48.8030   33.2200   39.0610 N   0  0  0  0  0  0  0  0  0  0  0  0
   49.2000   32.4770   39.7060 H   0  0  0  0  0  0  0  0  0  0  0  0
  1  4  1  6  0  0  0
  1  2  1  0  0  0  0
  1 10  1  0  0  0  0
  2  6  1  0  0  0  0
  3  7  1  1  0  0  0
  3  1  1  0  0  0  0
  3  2  1  0  0  0  0
  5  2  1  0  0  0  0
  8 14  1  0  0  0  0
  8 13  1  0  0  0  0
  9  8  2  0  0  0  0
 10  9  1  0  0  0  0
 10 11  2  0  0  0  0
 11 12  1  0  0  0  0
 12 15  1  0  0  0  0
 12 13  2  0  0  0  0
 16 17  1  0  0  0  0
 16  9  1  0  0  0  0
 18 16  1  0  0  0  0
 19  3  1  0  0  0  0
 20 19  1  0  0  0  0
 21 19  1  0  0  0  0
 22 23  1  0  0  0  0
 23 25  1  0  0  0  0
 24 23  2  0  0  0  0
 25 19  1  0  0  0  0
 25 26  1  0  0  0  0
M  END
>  <minimizedAffinity>
-4.49944878

>  <minimizedRMSD>
1.69904959

$$$$
