
 OpenBabel03252508303D

 35 37  0  0  1  0  0  0  0  0999 V2000
   39.2410   31.5830   39.7430 N   0  0  0  0  0  0  0  0  0  0  0  0
   37.8880   31.0130   39.7380 C   0  0  2  0  0  0  0  0  0  0  0  0
   36.8470   32.0170   40.0830 C   0  0  0  0  0  0  0  0  0  0  0  0
   37.3480   33.3810   40.1110 N   0  0  0  0  0  0  0  0  0  0  0  0
   38.5900   33.5770   40.7670 C   0  0  0  0  0  0  0  0  0  0  0  0
   39.3110   32.3080   41.0360 C   0  0  2  0  0  0  0  0  0  0  0  0
   39.9090   30.7910   39.8140 H   0  0  0  0  0  0  0  0  0  0  0  0
   37.7580   30.6090   38.7110 H   0  0  0  0  0  0  0  0  0  0  0  0
   36.4120   31.9560   41.0950 H   0  0  0  0  0  0  0  0  0  0  0  0
   36.0690   32.0040   39.2860 H   0  0  0  0  0  0  0  0  0  0  0  0
   37.2350   33.8620   39.1950 H   0  0  0  0  0  0  0  0  0  0  0  0
   39.1600   34.2950   40.1190 H   0  0  0  0  0  0  0  0  0  0  0  0
   38.4660   34.1450   41.7290 H   0  0  0  0  0  0  0  0  0  0  0  0
   38.7060   31.7520   41.7860 H   0  0  0  0  0  0  0  0  0  0  0  0
   38.3030   28.1380   41.8750 C   0  0  0  0  0  0  0  0  0  0  0  0
   37.2190   28.8180   42.4350 C   0  0  0  0  0  0  0  0  0  0  0  0
   36.9460   29.9590   41.6940 C   0  0  0  0  0  0  0  0  0  0  0  0
   37.8540   29.9470   40.7200 N   0  0  0  0  0  0  0  0  0  0  0  0
   38.6450   28.8860   40.8240 N   0  0  0  0  0  0  0  0  0  0  0  0
   36.7530   28.3940   43.3270 H   0  0  0  0  0  0  0  0  0  0  0  0
   36.1000   30.4840   42.1230 H   0  0  0  0  0  0  0  0  0  0  0  0
   40.3280   25.5420   43.6790 C   0  0  0  0  0  0  0  0  0  0  0  0
   39.8960   26.8340   43.2770 C   0  0  0  0  0  0  0  0  0  0  0  0
   38.8590   26.8820   42.3810 C   0  0  0  0  0  0  0  0  0  0  0  0
   38.3100   25.7270   41.9310 N   0  0  0  0  0  0  0  0  0  0  0  0
   38.7440   24.5110   42.3330 C   0  0  0  0  0  0  0  0  0  0  0  0
   39.7450   24.4480   43.1990 N   0  0  0  0  0  0  0  0  0  0  0  0
   41.1470   25.5010   44.3860 H   0  0  0  0  0  0  0  0  0  0  0  0
   40.3240   27.7540   43.6270 H   0  0  0  0  0  0  0  0  0  0  0  0
   38.2110   23.6760   41.8930 H   0  0  0  0  0  0  0  0  0  0  0  0
   42.7240   32.7040   41.5130 H   0  0  0  0  0  0  0  0  0  0  0  0
   41.8240   32.7070   40.9080 C   0  0  0  0  0  0  0  0  0  0  0  0
   41.9370   32.9950   39.6930 O   0  0  0  0  0  0  0  0  0  0  0  0
   40.6130   32.3850   41.5470 N   0  0  0  0  0  0  0  0  0  0  0  0
   40.6130   32.1520   42.5860 H   0  0  0  0  0  0  0  0  0  0  0  0
  1  7  1  0  0  0  0
  1  6  1  0  0  0  0
  2  8  1  6  0  0  0
  2  1  1  0  0  0  0
  2  3  1  0  0  0  0
  2 18  1  0  0  0  0
  3  4  1  0  0  0  0
  3  9  1  0  0  0  0
  4  5  1  0  0  0  0
  5  6  1  0  0  0  0
  5 13  1  0  0  0  0
  6 34  1  0  0  0  0
  6 14  1  1  0  0  0
 10  3  1  0  0  0  0
 11  4  1  0  0  0  0
 12  5  1  0  0  0  0
 15 24  1  0  0  0  0
 15 16  1  0  0  0  0
 16 20  1  0  0  0  0
 17 21  1  0  0  0  0
 17 16  2  0  0  0  0
 18 19  1  0  0  0  0
 18 17  1  0  0  0  0
 19 15  2  0  0  0  0
 22 28  1  0  0  0  0
 23 29  1  0  0  0  0
 23 22  1  0  0  0  0
 24 23  2  0  0  0  0
 25 26  2  0  0  0  0
 25 24  1  0  0  0  0
 26 27  1  0  0  0  0
 27 22  2  0  0  0  0
 30 26  1  0  0  0  0
 32 31  1  0  0  0  0
 32 34  1  0  0  0  0
 33 32  2  0  0  0  0
 34 35  1  0  0  0  0
M  END
>  <minimizedAffinity>
-5.33255959

$$$$

 OpenBabel03252508303D

 35 37  0  0  1  0  0  0  0  0999 V2000
   39.3440   31.8690   39.5980 N   0  0  0  0  0  0  0  0  0  0  0  0
   38.0120   31.7220   38.9970 C   0  0  2  0  0  0  0  0  0  0  0  0
   37.1740   32.9370   39.1710 C   0  0  0  0  0  0  0  0  0  0  0  0
   37.9150   34.0830   39.6720 N   0  0  0  0  0  0  0  0  0  0  0  0
   38.8070   33.8300   40.7450 C   0  0  0  0  0  0  0  0  0  0  0  0
   39.0590   32.3820   40.9600 C   0  0  2  0  0  0  0  0  0  0  0  0
   39.7330   30.9130   39.7200 H   0  0  0  0  0  0  0  0  0  0  0  0
   38.2100   31.4980   37.9270 H   0  0  0  0  0  0  0  0  0  0  0  0
   36.3730   32.8870   39.9280 H   0  0  0  0  0  0  0  0  0  0  0  0
   36.7910   33.2470   38.1720 H   0  0  0  0  0  0  0  0  0  0  0  0
   38.2830   34.6810   38.9040 H   0  0  0  0  0  0  0  0  0  0  0  0
   39.7310   34.4220   40.5110 H   0  0  0  0  0  0  0  0  0  0  0  0
   38.4450   34.2900   41.7040 H   0  0  0  0  0  0  0  0  0  0  0  0
   38.0990   31.9430   41.3110 H   0  0  0  0  0  0  0  0  0  0  0  0
   36.8820   28.6120   40.4310 C   0  0  0  0  0  0  0  0  0  0  0  0
   35.8750   29.5220   40.7670 C   0  0  0  0  0  0  0  0  0  0  0  0
   36.1880   30.7760   40.2620 C   0  0  0  0  0  0  0  0  0  0  0  0
   37.3550   30.6040   39.6450 N   0  0  0  0  0  0  0  0  0  0  0  0
   37.7600   29.3430   39.7420 N   0  0  0  0  0  0  0  0  0  0  0  0
   35.0250   29.1540   41.3460 H   0  0  0  0  0  0  0  0  0  0  0  0
   35.4040   31.4810   40.5160 H   0  0  0  0  0  0  0  0  0  0  0  0
   37.1160   25.3260   42.2310 C   0  0  0  0  0  0  0  0  0  0  0  0
   37.1570   26.7330   42.0420 C   0  0  0  0  0  0  0  0  0  0  0  0
   36.8810   27.1910   40.7800 C   0  0  0  0  0  0  0  0  0  0  0  0
   36.5900   26.3040   39.7970 N   0  0  0  0  0  0  0  0  0  0  0  0
   36.5590   24.9690   40.0080 C   0  0  0  0  0  0  0  0  0  0  0  0
   36.8240   24.5110   41.2230 N   0  0  0  0  0  0  0  0  0  0  0  0
   37.3350   24.9630   43.2280 H   0  0  0  0  0  0  0  0  0  0  0  0
   37.3860   27.4430   42.8150 H   0  0  0  0  0  0  0  0  0  0  0  0
   36.3110   24.3810   39.1310 H   0  0  0  0  0  0  0  0  0  0  0  0
   40.9550   30.8320   43.4160 H   0  0  0  0  0  0  0  0  0  0  0  0
   40.0880   30.9140   42.7700 C   0  0  0  0  0  0  0  0  0  0  0  0
   39.2090   30.0250   42.8550 O   0  0  0  0  0  0  0  0  0  0  0  0
   40.0340   32.0160   41.8960 N   0  0  0  0  0  0  0  0  0  0  0  0
   40.8300   32.7230   41.8930 H   0  0  0  0  0  0  0  0  0  0  0  0
  1  7  1  0  0  0  0
  1  6  1  0  0  0  0
  2  8  1  6  0  0  0
  2  3  1  0  0  0  0
  2  1  1  0  0  0  0
  2 18  1  0  0  0  0
  3  4  1  0  0  0  0
  3  9  1  0  0  0  0
  4  5  1  0  0  0  0
  5  6  1  0  0  0  0
  5 13  1  0  0  0  0
  6 14  1  1  0  0  0
  6 34  1  0  0  0  0
 10  3  1  0  0  0  0
 11  4  1  0  0  0  0
 12  5  1  0  0  0  0
 15 16  1  0  0  0  0
 15 24  1  0  0  0  0
 16 20  1  0  0  0  0
 17 21  1  0  0  0  0
 17 16  2  0  0  0  0
 18 19  1  0  0  0  0
 18 17  1  0  0  0  0
 19 15  2  0  0  0  0
 22 28  1  0  0  0  0
 23 22  1  0  0  0  0
 23 29  1  0  0  0  0
 24 23  2  0  0  0  0
 25 26  2  0  0  0  0
 25 24  1  0  0  0  0
 26 27  1  0  0  0  0
 27 22  2  0  0  0  0
 30 26  1  0  0  0  0
 32 33  2  0  0  0  0
 32 31  1  0  0  0  0
 34 32  1  0  0  0  0
 35 34  1  0  0  0  0
M  END
>  <minimizedAffinity>
-5.27648115

$$$$

 OpenBabel03252508303D

 35 37  0  0  1  0  0  0  0  0999 V2000
   39.5740   33.5080   39.0190 N   0  0  0  0  0  0  0  0  0  0  0  0
   40.3450   33.5260   40.2680 C   0  0  2  0  0  0  0  0  0  0  0  0
   41.8070   33.6590   40.0310 C   0  0  0  0  0  0  0  0  0  0  0  0
   42.1410   33.9850   38.6550 N   0  0  0  0  0  0  0  0  0  0  0  0
   41.4510   33.2550   37.6540 C   0  0  0  0  0  0  0  0  0  0  0  0
   40.2830   32.5070   38.1830 C   0  0  2  0  0  0  0  0  0  0  0  0
   38.6430   33.1010   39.2370 H   0  0  0  0  0  0  0  0  0  0  0  0
   39.9330   34.3840   40.8400 H   0  0  0  0  0  0  0  0  0  0  0  0
   42.4190   32.7500   40.1620 H   0  0  0  0  0  0  0  0  0  0  0  0
   42.1850   34.5130   40.6380 H   0  0  0  0  0  0  0  0  0  0  0  0
   42.2170   35.0110   38.5000 H   0  0  0  0  0  0  0  0  0  0  0  0
   41.1890   34.0070   36.8640 H   0  0  0  0  0  0  0  0  0  0  0  0
   42.1330   32.5440   37.1140 H   0  0  0  0  0  0  0  0  0  0  0  0
   40.6900   31.7140   38.8490 H   0  0  0  0  0  0  0  0  0  0  0  0
   39.1320   30.4900   41.7910 C   0  0  0  0  0  0  0  0  0  0  0  0
   40.4980   30.4940   42.0920 C   0  0  0  0  0  0  0  0  0  0  0  0
   41.0930   31.6300   41.5600 C   0  0  0  0  0  0  0  0  0  0  0  0
   40.0960   32.2760   40.9600 N   0  0  0  0  0  0  0  0  0  0  0  0
   38.9530   31.6140   41.0940 N   0  0  0  0  0  0  0  0  0  0  0  0
   40.8980   29.6580   42.6690 H   0  0  0  0  0  0  0  0  0  0  0  0
   42.1500   31.6370   41.7990 H   0  0  0  0  0  0  0  0  0  0  0  0
   37.2910   27.8070   43.6630 C   0  0  0  0  0  0  0  0  0  0  0  0
   38.2870   28.7840   43.3960 C   0  0  0  0  0  0  0  0  0  0  0  0
   38.1840   29.4560   42.2060 C   0  0  0  0  0  0  0  0  0  0  0  0
   37.1630   29.1660   41.3620 N   0  0  0  0  0  0  0  0  0  0  0  0
   36.2290   28.2300   41.6440 C   0  0  0  0  0  0  0  0  0  0  0  0
   36.3160   27.5720   42.7910 N   0  0  0  0  0  0  0  0  0  0  0  0
   37.3710   27.2740   44.6020 H   0  0  0  0  0  0  0  0  0  0  0  0
   39.0980   29.0210   44.0590 H   0  0  0  0  0  0  0  0  0  0  0  0
   35.4730   28.1060   40.8780 H   0  0  0  0  0  0  0  0  0  0  0  0
   37.6030   31.1280   36.4670 H   0  0  0  0  0  0  0  0  0  0  0  0
   38.0490   31.6570   37.3020 C   0  0  0  0  0  0  0  0  0  0  0  0
   37.2920   32.0360   38.2270 O   0  0  0  0  0  0  0  0  0  0  0  0
   39.4400   31.8680   37.2660 N   0  0  0  0  0  0  0  0  0  0  0  0
   40.0040   31.5100   36.4370 H   0  0  0  0  0  0  0  0  0  0  0  0
  1  7  1  0  0  0  0
  1  2  1  0  0  0  0
  2  8  1  1  0  0  0
  2 18  1  0  0  0  0
  3  9  1  0  0  0  0
  3  2  1  0  0  0  0
  3 10  1  0  0  0  0
  4  3  1  0  0  0  0
  5  6  1  0  0  0  0
  5  4  1  0  0  0  0
  6 14  1  1  0  0  0
  6  1  1  0  0  0  0
 11  4  1  0  0  0  0
 12  5  1  0  0  0  0
 13  5  1  0  0  0  0
 15 16  1  0  0  0  0
 15 24  1  0  0  0  0
 16 20  1  0  0  0  0
 17 21  1  0  0  0  0
 17 16  2  0  0  0  0
 18 19  1  0  0  0  0
 18 17  1  0  0  0  0
 19 15  2  0  0  0  0
 22 28  1  0  0  0  0
 23 22  1  0  0  0  0
 23 29  1  0  0  0  0
 24 23  2  0  0  0  0
 25 26  2  0  0  0  0
 25 24  1  0  0  0  0
 26 27  1  0  0  0  0
 27 22  2  0  0  0  0
 30 26  1  0  0  0  0
 31 32  1  0  0  0  0
 32 33  2  0  0  0  0
 34 32  1  0  0  0  0
 34  6  1  0  0  0  0
 35 34  1  0  0  0  0
M  END
>  <minimizedAffinity>
-5.23466349

$$$$

 OpenBabel03252508303D

 35 37  0  0  1  0  0  0  0  0999 V2000
   37.1400   29.4050   43.0490 N   0  0  0  0  0  0  0  0  0  0  0  0
   38.3320   28.5590   43.1840 C   0  0  2  0  0  0  0  0  0  0  0  0
   39.5180   29.1340   42.4960 C   0  0  0  0  0  0  0  0  0  0  0  0
   39.3190   30.5040   42.0530 N   0  0  0  0  0  0  0  0  0  0  0  0
   38.0820   30.7830   41.4180 C   0  0  0  0  0  0  0  0  0  0  0  0
   37.0820   29.7010   41.5960 C   0  0  2  0  0  0  0  0  0  0  0  0
   36.3140   28.8110   43.2610 H   0  0  0  0  0  0  0  0  0  0  0  0
   38.4870   28.4650   44.2800 H   0  0  0  0  0  0  0  0  0  0  0  0
   39.8150   28.6700   41.5410 H   0  0  0  0  0  0  0  0  0  0  0  0
   40.3590   29.1790   43.2240 H   0  0  0  0  0  0  0  0  0  0  0  0
   39.6340   31.1980   42.7620 H   0  0  0  0  0  0  0  0  0  0  0  0
   37.7550   31.7760   41.8240 H   0  0  0  0  0  0  0  0  0  0  0  0
   38.2160   30.9870   40.3210 H   0  0  0  0  0  0  0  0  0  0  0  0
   37.4680   28.8180   41.0400 H   0  0  0  0  0  0  0  0  0  0  0  0
   38.1400   25.4110   41.4340 C   0  0  0  0  0  0  0  0  0  0  0  0
   36.9550   25.4560   42.1750 C   0  0  0  0  0  0  0  0  0  0  0  0
   36.8990   26.6370   42.9010 C   0  0  0  0  0  0  0  0  0  0  0  0
   38.0290   27.2700   42.5930 N   0  0  0  0  0  0  0  0  0  0  0  0
   38.7530   26.5570   41.7380 N   0  0  0  0  0  0  0  0  0  0  0  0
   36.2680   24.6110   42.0940 H   0  0  0  0  0  0  0  0  0  0  0  0
   35.9770   26.6760   43.4700 H   0  0  0  0  0  0  0  0  0  0  0  0
   38.4930   22.1010   39.6990 C   0  0  0  0  0  0  0  0  0  0  0  0
   38.0220   23.0530   40.6420 C   0  0  0  0  0  0  0  0  0  0  0  0
   38.5290   24.3220   40.5380 C   0  0  0  0  0  0  0  0  0  0  0  0
   39.4330   24.6030   39.5670 N   0  0  0  0  0  0  0  0  0  0  0  0
   39.8630   23.6740   38.6830 C   0  0  0  0  0  0  0  0  0  0  0  0
   39.3820   22.4430   38.7710 N   0  0  0  0  0  0  0  0  0  0  0  0
   38.0940   21.0980   39.7790 H   0  0  0  0  0  0  0  0  0  0  0  0
   37.3060   22.8410   41.4130 H   0  0  0  0  0  0  0  0  0  0  0  0
   40.5850   24.0400   37.9620 H   0  0  0  0  0  0  0  0  0  0  0  0
   34.0120   29.5880   39.9860 H   0  0  0  0  0  0  0  0  0  0  0  0
   35.0150   29.2280   40.1840 C   0  0  0  0  0  0  0  0  0  0  0  0
   35.4100   28.2210   39.5500 O   0  0  0  0  0  0  0  0  0  0  0  0
   35.7780   29.9270   41.1380 N   0  0  0  0  0  0  0  0  0  0  0  0
   35.3580   30.7730   41.6290 H   0  0  0  0  0  0  0  0  0  0  0  0
  1  2  1  0  0  0  0
  1  7  1  0  0  0  0
  2  8  1  1  0  0  0
  3  2  1  0  0  0  0
  3 10  1  0  0  0  0
  4  3  1  0  0  0  0
  4 11  1  0  0  0  0
  5  6  1  0  0  0  0
  5 12  1  0  0  0  0
  5  4  1  0  0  0  0
  6 14  1  6  0  0  0
  6  1  1  0  0  0  0
  9  3  1  0  0  0  0
 13  5  1  0  0  0  0
 15 19  2  0  0  0  0
 15 16  1  0  0  0  0
 16 17  2  0  0  0  0
 17 21  1  0  0  0  0
 18 17  1  0  0  0  0
 18  2  1  0  0  0  0
 19 18  1  0  0  0  0
 20 16  1  0  0  0  0
 22 28  1  0  0  0  0
 22 23  1  0  0  0  0
 23 29  1  0  0  0  0
 24 23  2  0  0  0  0
 24 15  1  0  0  0  0
 25 24  1  0  0  0  0
 26 27  1  0  0  0  0
 26 25  2  0  0  0  0
 27 22  2  0  0  0  0
 30 26  1  0  0  0  0
 31 32  1  0  0  0  0
 32 34  1  0  0  0  0
 33 32  2  0  0  0  0
 34  6  1  0  0  0  0
 34 35  1  0  0  0  0
M  END
>  <minimizedAffinity>
-5.13918257

$$$$

 OpenBabel03252508303D

 35 37  0  0  1  0  0  0  0  0999 V2000
   37.0780   31.8980   38.8070 N   0  0  0  0  0  0  0  0  0  0  0  0
   37.3480   31.9790   40.2480 C   0  0  2  0  0  0  0  0  0  0  0  0
   38.6940   32.5390   40.5420 C   0  0  0  0  0  0  0  0  0  0  0  0
   39.3500   33.1080   39.3770 N   0  0  0  0  0  0  0  0  0  0  0  0
   39.2830   32.3400   38.1850 C   0  0  0  0  0  0  0  0  0  0  0  0
   38.2890   31.2400   38.2590 C   0  0  2  0  0  0  0  0  0  0  0  0
   36.2950   31.2260   38.6780 H   0  0  0  0  0  0  0  0  0  0  0  0
   36.5320   32.6140   40.6520 H   0  0  0  0  0  0  0  0  0  0  0  0
   39.4720   31.8260   40.8650 H   0  0  0  0  0  0  0  0  0  0  0  0
   38.5740   33.3850   41.2560 H   0  0  0  0  0  0  0  0  0  0  0  0
   39.1600   34.1260   39.2740 H   0  0  0  0  0  0  0  0  0  0  0  0
   39.0840   33.0790   37.3650 H   0  0  0  0  0  0  0  0  0  0  0  0
   40.2870   31.9160   37.9080 H   0  0  0  0  0  0  0  0  0  0  0  0
   38.6720   30.5170   39.0130 H   0  0  0  0  0  0  0  0  0  0  0  0
   37.7770   28.7080   41.7070 C   0  0  0  0  0  0  0  0  0  0  0  0
   36.4120   28.7670   41.4100 C   0  0  0  0  0  0  0  0  0  0  0  0
   36.1090   29.9900   40.8290 C   0  0  0  0  0  0  0  0  0  0  0  0
   37.2730   30.6350   40.7880 N   0  0  0  0  0  0  0  0  0  0  0  0
   38.2460   29.8890   41.2990 N   0  0  0  0  0  0  0  0  0  0  0  0
   35.7960   27.8990   41.6560 H   0  0  0  0  0  0  0  0  0  0  0  0
   35.0530   30.0340   40.5910 H   0  0  0  0  0  0  0  0  0  0  0  0
   40.0720   26.4880   43.6800 C   0  0  0  0  0  0  0  0  0  0  0  0
   39.5150   27.6920   43.1720 C   0  0  0  0  0  0  0  0  0  0  0  0
   38.4570   27.5620   42.3100 C   0  0  0  0  0  0  0  0  0  0  0  0
   38.0030   26.3250   41.9900 N   0  0  0  0  0  0  0  0  0  0  0  0
   38.5550   25.1960   42.4900 C   0  0  0  0  0  0  0  0  0  0  0  0
   39.5790   25.3050   43.3250 N   0  0  0  0  0  0  0  0  0  0  0  0
   40.9080   26.5880   44.3600 H   0  0  0  0  0  0  0  0  0  0  0  0
   39.8660   28.6750   43.4200 H   0  0  0  0  0  0  0  0  0  0  0  0
   38.0900   24.2790   42.1490 H   0  0  0  0  0  0  0  0  0  0  0  0
   36.9160   29.2770   35.7500 H   0  0  0  0  0  0  0  0  0  0  0  0
   36.8920   29.7720   36.7150 C   0  0  0  0  0  0  0  0  0  0  0  0
   35.8560   29.6500   37.4090 O   0  0  0  0  0  0  0  0  0  0  0  0
   38.0310   30.5070   37.0940 N   0  0  0  0  0  0  0  0  0  0  0  0
   38.8670   30.5560   36.4370 H   0  0  0  0  0  0  0  0  0  0  0  0
  1  2  1  0  0  0  0
  2  3  1  0  0  0  0
  2  8  1  1  0  0  0
  2 18  1  0  0  0  0
  3  9  1  0  0  0  0
  3 10  1  0  0  0  0
  4  3  1  0  0  0  0
  5  6  1  0  0  0  0
  5  4  1  0  0  0  0
  6  1  1  0  0  0  0
  6 14  1  1  0  0  0
  7  1  1  0  0  0  0
 11  4  1  0  0  0  0
 12  5  1  0  0  0  0
 13  5  1  0  0  0  0
 15 24  1  0  0  0  0
 16 20  1  0  0  0  0
 16 15  1  0  0  0  0
 17 16  2  0  0  0  0
 18 17  1  0  0  0  0
 18 19  1  0  0  0  0
 19 15  2  0  0  0  0
 21 17  1  0  0  0  0
 22 28  1  0  0  0  0
 23 29  1  0  0  0  0
 23 22  2  0  0  0  0
 24 23  1  0  0  0  0
 25 24  2  0  0  0  0
 25 26  1  0  0  0  0
 26 27  2  0  0  0  0
 27 22  1  0  0  0  0
 30 26  1  0  0  0  0
 31 32  1  0  0  0  0
 32 34  1  0  0  0  0
 32 33  2  0  0  0  0
 34  6  1  0  0  0  0
 35 34  1  0  0  0  0
M  END
>  <minimizedAffinity>
-4.89867115

$$$$

 OpenBabel03252508303D

 35 37  0  0  1  0  0  0  0  0999 V2000
   35.4260   28.9790   40.6590 N   0  0  0  0  0  0  0  0  0  0  0  0
   35.7860   29.5030   39.3350 C   0  0  2  0  0  0  0  0  0  0  0  0
   36.3940   28.4650   38.4610 C   0  0  0  0  0  0  0  0  0  0  0  0
   36.2810   27.1190   38.9970 N   0  0  0  0  0  0  0  0  0  0  0  0
   36.5790   26.9690   40.3760 C   0  0  0  0  0  0  0  0  0  0  0  0
   36.6490   28.2640   41.0980 C   0  0  2  0  0  0  0  0  0  0  0  0
   35.3180   29.7940   41.2940 H   0  0  0  0  0  0  0  0  0  0  0  0
   34.8340   29.8960   38.9200 H   0  0  0  0  0  0  0  0  0  0  0  0
   37.4860   28.5160   38.3100 H   0  0  0  0  0  0  0  0  0  0  0  0
   35.8360   28.4460   37.4970 H   0  0  0  0  0  0  0  0  0  0  0  0
   35.4270   26.6300   38.6600 H   0  0  0  0  0  0  0  0  0  0  0  0
   35.7990   26.2680   40.7750 H   0  0  0  0  0  0  0  0  0  0  0  0
   37.5370   26.4030   40.5350 H   0  0  0  0  0  0  0  0  0  0  0  0
   37.5370   28.8020   40.6980 H   0  0  0  0  0  0  0  0  0  0  0  0
   38.4640   31.9180   39.3130 C   0  0  0  0  0  0  0  0  0  0  0  0
   37.6540   32.3250   40.3770 C   0  0  0  0  0  0  0  0  0  0  0  0
   36.5730   31.4640   40.5010 C   0  0  0  0  0  0  0  0  0  0  0  0
   36.7460   30.5720   39.5280 N   0  0  0  0  0  0  0  0  0  0  0  0
   37.8480   30.8340   38.8360 N   0  0  0  0  0  0  0  0  0  0  0  0
   37.9540   33.2120   40.9390 H   0  0  0  0  0  0  0  0  0  0  0  0
   35.9480   31.7740   41.3310 H   0  0  0  0  0  0  0  0  0  0  0  0
   41.4640   34.1610   39.0710 C   0  0  0  0  0  0  0  0  0  0  0  0
   40.2590   33.6210   39.5930 C   0  0  0  0  0  0  0  0  0  0  0  0
   39.7020   32.5790   38.8990 C   0  0  0  0  0  0  0  0  0  0  0  0
   40.3100   32.1230   37.7760 N   0  0  0  0  0  0  0  0  0  0  0  0
   41.4580   32.6580   37.3030 C   0  0  0  0  0  0  0  0  0  0  0  0
   42.0090   33.6670   37.9630 N   0  0  0  0  0  0  0  0  0  0  0  0
   41.9060   34.9850   39.6170 H   0  0  0  0  0  0  0  0  0  0  0  0
   39.7700   33.9740   40.4820 H   0  0  0  0  0  0  0  0  0  0  0  0
   41.8310   32.1940   36.3970 H   0  0  0  0  0  0  0  0  0  0  0  0
   37.6220   28.7360   44.3940 H   0  0  0  0  0  0  0  0  0  0  0  0
   37.6970   28.9150   43.3270 C   0  0  0  0  0  0  0  0  0  0  0  0
   38.5790   29.7110   42.9290 O   0  0  0  0  0  0  0  0  0  0  0  0
   36.7930   28.2350   42.4910 N   0  0  0  0  0  0  0  0  0  0  0  0
   36.0740   27.5760   42.9200 H   0  0  0  0  0  0  0  0  0  0  0  0
  1  6  1  0  0  0  0
  1  7  1  0  0  0  0
  2  8  1  6  0  0  0
  2 18  1  0  0  0  0
  2  1  1  0  0  0  0
  3  4  1  0  0  0  0
  3  2  1  0  0  0  0
  4  5  1  0  0  0  0
  5 13  1  0  0  0  0
  5 12  1  0  0  0  0
  5  6  1  0  0  0  0
  6 14  1  6  0  0  0
  6 34  1  0  0  0  0
  9  3  1  0  0  0  0
 10  3  1  0  0  0  0
 11  4  1  0  0  0  0
 15 16  1  0  0  0  0
 16 17  2  0  0  0  0
 16 20  1  0  0  0  0
 17 21  1  0  0  0  0
 18 17  1  0  0  0  0
 19 15  2  0  0  0  0
 19 18  1  0  0  0  0
 22 23  1  0  0  0  0
 22 28  1  0  0  0  0
 23 29  1  0  0  0  0
 24 15  1  0  0  0  0
 24 23  2  0  0  0  0
 25 24  1  0  0  0  0
 26 25  2  0  0  0  0
 26 27  1  0  0  0  0
 27 22  2  0  0  0  0
 30 26  1  0  0  0  0
 32 31  1  0  0  0  0
 33 32  2  0  0  0  0
 34 35  1  0  0  0  0
 34 32  1  0  0  0  0
M  END
>  <minimizedAffinity>
-4.80699396

$$$$

 OpenBabel03252508303D

 35 37  0  0  1  0  0  0  0  0999 V2000
   40.1780   31.4910   37.0050 N   0  0  0  0  0  0  0  0  0  0  0  0
   40.0900   32.5470   38.0210 C   0  0  2  0  0  0  0  0  0  0  0  0
   41.3390   33.3480   38.1170 C   0  0  0  0  0  0  0  0  0  0  0  0
   42.2780   33.0840   37.0390 N   0  0  0  0  0  0  0  0  0  0  0  0
   42.4810   31.7210   36.7060 C   0  0  0  0  0  0  0  0  0  0  0  0
   41.4650   30.8200   37.3070 C   0  0  2  0  0  0  0  0  0  0  0  0
   39.4300   30.8000   37.2130 H   0  0  0  0  0  0  0  0  0  0  0  0
   39.2200   33.1640   37.7110 H   0  0  0  0  0  0  0  0  0  0  0  0
   41.9920   33.1520   38.9850 H   0  0  0  0  0  0  0  0  0  0  0  0
   41.0750   34.4250   38.0210 H   0  0  0  0  0  0  0  0  0  0  0  0
   42.1510   33.7350   36.2370 H   0  0  0  0  0  0  0  0  0  0  0  0
   42.5120   31.6880   35.5860 H   0  0  0  0  0  0  0  0  0  0  0  0
   43.5080   31.3700   37.0000 H   0  0  0  0  0  0  0  0  0  0  0  0
   41.6290   30.8470   38.4070 H   0  0  0  0  0  0  0  0  0  0  0  0
   39.0380   30.6370   40.8930 C   0  0  0  0  0  0  0  0  0  0  0  0
   40.0780   31.4330   41.3820 C   0  0  0  0  0  0  0  0  0  0  0  0
   40.5760   32.2340   40.3640 C   0  0  0  0  0  0  0  0  0  0  0  0
   39.8430   31.9110   39.3000 N   0  0  0  0  0  0  0  0  0  0  0  0
   38.9460   30.9820   39.6070 N   0  0  0  0  0  0  0  0  0  0  0  0
   40.3490   31.3320   42.4350 H   0  0  0  0  0  0  0  0  0  0  0  0
   41.3770   32.8570   40.7440 H   0  0  0  0  0  0  0  0  0  0  0  0
   37.7210   28.4420   43.6380 C   0  0  0  0  0  0  0  0  0  0  0  0
   38.5620   29.3870   42.9940 C   0  0  0  0  0  0  0  0  0  0  0  0
   38.2650   29.6830   41.6880 C   0  0  0  0  0  0  0  0  0  0  0  0
   37.2120   29.0750   41.0890 N   0  0  0  0  0  0  0  0  0  0  0  0
   36.4290   28.1780   41.7290 C   0  0  0  0  0  0  0  0  0  0  0  0
   36.7030   27.8820   42.9920 N   0  0  0  0  0  0  0  0  0  0  0  0
   37.9540   28.2060   44.6690 H   0  0  0  0  0  0  0  0  0  0  0  0
   39.3970   29.8740   43.4600 H   0  0  0  0  0  0  0  0  0  0  0  0
   35.6240   27.7730   41.1270 H   0  0  0  0  0  0  0  0  0  0  0  0
   40.6810   27.5240   36.5640 H   0  0  0  0  0  0  0  0  0  0  0  0
   40.4340   28.5270   36.8940 C   0  0  0  0  0  0  0  0  0  0  0  0
   39.2460   28.7620   37.2130 O   0  0  0  0  0  0  0  0  0  0  0  0
   41.4780   29.4700   36.9320 N   0  0  0  0  0  0  0  0  0  0  0  0
   42.4600   29.1800   36.6410 H   0  0  0  0  0  0  0  0  0  0  0  0
  1  7  1  0  0  0  0
  1  6  1  0  0  0  0
  1  2  1  0  0  0  0
  2  8  1  6  0  0  0
  2  3  1  0  0  0  0
  2 18  1  0  0  0  0
  3  9  1  0  0  0  0
  4  3  1  0  0  0  0
  5 13  1  0  0  0  0
  5  4  1  0  0  0  0
  5  6  1  0  0  0  0
  6 14  1  1  0  0  0
 10  3  1  0  0  0  0
 11  4  1  0  0  0  0
 12  5  1  0  0  0  0
 15 16  1  0  0  0  0
 15 24  1  0  0  0  0
 16 20  1  0  0  0  0
 17 21  1  0  0  0  0
 17 16  2  0  0  0  0
 18 19  1  0  0  0  0
 18 17  1  0  0  0  0
 19 15  2  0  0  0  0
 22 28  1  0  0  0  0
 23 29  1  0  0  0  0
 23 22  1  0  0  0  0
 24 23  2  0  0  0  0
 25 24  1  0  0  0  0
 25 26  2  0  0  0  0
 26 27  1  0  0  0  0
 27 22  2  0  0  0  0
 30 26  1  0  0  0  0
 31 32  1  0  0  0  0
 32 34  1  0  0  0  0
 32 33  2  0  0  0  0
 34  6  1  0  0  0  0
 35 34  1  0  0  0  0
M  END
>  <minimizedAffinity>
-4.77652502

$$$$

 OpenBabel03252508303D

 35 37  0  0  1  0  0  0  0  0999 V2000
   39.1970   32.6710   38.4300 N   0  0  0  0  0  0  0  0  0  0  0  0
   37.9580   31.8830   38.4590 C   0  0  2  0  0  0  0  0  0  0  0  0
   36.9750   32.4070   39.4430 C   0  0  0  0  0  0  0  0  0  0  0  0
   37.3350   33.7080   39.9830 N   0  0  0  0  0  0  0  0  0  0  0  0
   38.6910   33.8710   40.3670 C   0  0  0  0  0  0  0  0  0  0  0  0
   39.5720   32.7890   39.8600 C   0  0  2  0  0  0  0  0  0  0  0  0
   39.9270   32.0820   37.9830 H   0  0  0  0  0  0  0  0  0  0  0  0
   37.5740   31.9250   37.4180 H   0  0  0  0  0  0  0  0  0  0  0  0
   36.8580   31.8410   40.3830 H   0  0  0  0  0  0  0  0  0  0  0  0
   36.0040   32.5630   38.9210 H   0  0  0  0  0  0  0  0  0  0  0  0
   36.9190   34.4900   39.4380 H   0  0  0  0  0  0  0  0  0  0  0  0
   38.9800   34.8950   40.0130 H   0  0  0  0  0  0  0  0  0  0  0  0
   38.7990   33.9470   41.4830 H   0  0  0  0  0  0  0  0  0  0  0  0
   39.2630   31.8570   40.3850 H   0  0  0  0  0  0  0  0  0  0  0  0
   38.3900   28.5710   39.8210 C   0  0  0  0  0  0  0  0  0  0  0  0
   39.2770   28.6080   38.7420 C   0  0  0  0  0  0  0  0  0  0  0  0
   39.2140   29.8490   38.1240 C   0  0  0  0  0  0  0  0  0  0  0  0
   38.3070   30.5240   38.8260 N   0  0  0  0  0  0  0  0  0  0  0  0
   37.8260   29.7810   39.8160 N   0  0  0  0  0  0  0  0  0  0  0  0
   39.8690   27.7150   38.5340 H   0  0  0  0  0  0  0  0  0  0  0  0
   39.9080   29.8820   37.2910 H   0  0  0  0  0  0  0  0  0  0  0  0
   37.0860   26.1510   42.3770 C   0  0  0  0  0  0  0  0  0  0  0  0
   37.1370   27.3200   41.5720 C   0  0  0  0  0  0  0  0  0  0  0  0
   38.2010   27.4280   40.7140 C   0  0  0  0  0  0  0  0  0  0  0  0
   39.1300   26.4420   40.6750 N   0  0  0  0  0  0  0  0  0  0  0  0
   39.0550   25.3400   41.4550 C   0  0  0  0  0  0  0  0  0  0  0  0
   38.0320   25.2210   42.2900 N   0  0  0  0  0  0  0  0  0  0  0  0
   36.2470   26.0640   43.0560 H   0  0  0  0  0  0  0  0  0  0  0  0
   36.4050   28.1060   41.5950 H   0  0  0  0  0  0  0  0  0  0  0  0
   39.8660   24.6350   41.3170 H   0  0  0  0  0  0  0  0  0  0  0  0
   42.9500   33.5340   39.6160 H   0  0  0  0  0  0  0  0  0  0  0  0
   41.9240   33.5610   39.2640 C   0  0  0  0  0  0  0  0  0  0  0  0
   41.6910   34.1600   38.1880 O   0  0  0  0  0  0  0  0  0  0  0  0
   40.9530   32.9190   40.0530 N   0  0  0  0  0  0  0  0  0  0  0  0
   41.2440   32.4340   40.9550 H   0  0  0  0  0  0  0  0  0  0  0  0
  1  2  1  0  0  0  0
  1  6  1  0  0  0  0
  2  8  1  6  0  0  0
  2 18  1  0  0  0  0
  2  3  1  0  0  0  0
  3  4  1  0  0  0  0
  3  9  1  0  0  0  0
  4  5  1  0  0  0  0
  5 13  1  0  0  0  0
  6 34  1  0  0  0  0
  6  5  1  0  0  0  0
  6 14  1  1  0  0  0
  7  1  1  0  0  0  0
 10  3  1  0  0  0  0
 11  4  1  0  0  0  0
 12  5  1  0  0  0  0
 15 24  1  0  0  0  0
 16 15  1  0  0  0  0
 17 16  2  0  0  0  0
 17 18  1  0  0  0  0
 18 19  1  0  0  0  0
 19 15  2  0  0  0  0
 20 16  1  0  0  0  0
 21 17  1  0  0  0  0
 22 28  1  0  0  0  0
 23 29  1  0  0  0  0
 23 22  2  0  0  0  0
 24 23  1  0  0  0  0
 25 24  2  0  0  0  0
 25 26  1  0  0  0  0
 26 27  2  0  0  0  0
 27 22  1  0  0  0  0
 30 26  1  0  0  0  0
 32 31  1  0  0  0  0
 32 34  1  0  0  0  0
 33 32  2  0  0  0  0
 34 35  1  0  0  0  0
M  END
>  <minimizedAffinity>
-4.74025249

$$$$

 OpenBabel03252508303D

 35 37  0  0  1  0  0  0  0  0999 V2000
   38.7390   31.8730   38.2490 N   0  0  0  0  0  0  0  0  0  0  0  0
   37.4160   32.1040   38.8410 C   0  0  2  0  0  0  0  0  0  0  0  0
   37.3810   33.3210   39.6940 C   0  0  0  0  0  0  0  0  0  0  0  0
   38.5690   34.1480   39.5700 N   0  0  0  0  0  0  0  0  0  0  0  0
   39.8110   33.4630   39.5800 C   0  0  0  0  0  0  0  0  0  0  0  0
   39.6660   31.9960   39.4010 C   0  0  2  0  0  0  0  0  0  0  0  0
   38.7740   30.8780   37.9500 H   0  0  0  0  0  0  0  0  0  0  0  0
   36.7290   32.1810   37.9720 H   0  0  0  0  0  0  0  0  0  0  0  0
   37.3750   33.1650   40.7870 H   0  0  0  0  0  0  0  0  0  0  0  0
   36.5370   33.9640   39.3550 H   0  0  0  0  0  0  0  0  0  0  0  0
   38.4620   34.8870   38.8450 H   0  0  0  0  0  0  0  0  0  0  0  0
   40.4320   33.9580   38.7870 H   0  0  0  0  0  0  0  0  0  0  0  0
   40.3900   33.6660   40.5210 H   0  0  0  0  0  0  0  0  0  0  0  0
   39.1510   31.6160   40.3110 H   0  0  0  0  0  0  0  0  0  0  0  0
   36.8610   28.9030   40.4050 C   0  0  0  0  0  0  0  0  0  0  0  0
   36.3730   29.8210   41.3390 C   0  0  0  0  0  0  0  0  0  0  0  0
   36.5230   31.1120   40.8520 C   0  0  0  0  0  0  0  0  0  0  0  0
   37.0890   30.9510   39.6570 N   0  0  0  0  0  0  0  0  0  0  0  0
   37.2860   29.6650   39.3960 N   0  0  0  0  0  0  0  0  0  0  0  0
   35.9620   29.4330   42.2740 H   0  0  0  0  0  0  0  0  0  0  0  0
   36.1390   31.8250   41.5720 H   0  0  0  0  0  0  0  0  0  0  0  0
   36.5680   25.1990   39.8670 C   0  0  0  0  0  0  0  0  0  0  0  0
   36.5350   26.5840   39.5560 C   0  0  0  0  0  0  0  0  0  0  0  0
   36.8490   27.4490   40.5720 C   0  0  0  0  0  0  0  0  0  0  0  0
   37.1670   26.9550   41.7940 N   0  0  0  0  0  0  0  0  0  0  0  0
   37.1900   25.6300   42.0600 C   0  0  0  0  0  0  0  0  0  0  0  0
   36.8890   24.7820   41.0870 N   0  0  0  0  0  0  0  0  0  0  0  0
   36.3200   24.5140   39.0650 H   0  0  0  0  0  0  0  0  0  0  0  0
   36.2850   26.9840   38.5910 H   0  0  0  0  0  0  0  0  0  0  0  0
   37.4620   25.3810   43.0790 H   0  0  0  0  0  0  0  0  0  0  0  0
   42.5250   30.4100   38.2440 H   0  0  0  0  0  0  0  0  0  0  0  0
   41.6640   31.0590   38.1290 C   0  0  0  0  0  0  0  0  0  0  0  0
   41.4840   31.6000   37.0120 O   0  0  0  0  0  0  0  0  0  0  0  0
   40.8300   31.2320   39.2480 N   0  0  0  0  0  0  0  0  0  0  0  0
   41.0620   30.7320   40.1590 H   0  0  0  0  0  0  0  0  0  0  0  0
  1  2  1  0  0  0  0
  1  6  1  0  0  0  0
  2  8  1  6  0  0  0
  2 18  1  0  0  0  0
  2  3  1  0  0  0  0
  3  9  1  0  0  0  0
  4  5  1  0  0  0  0
  4  3  1  0  0  0  0
  5 13  1  0  0  0  0
  6  5  1  0  0  0  0
  6 14  1  1  0  0  0
  7  1  1  0  0  0  0
 10  3  1  0  0  0  0
 11  4  1  0  0  0  0
 12  5  1  0  0  0  0
 15 24  1  0  0  0  0
 15 16  1  0  0  0  0
 16 20  1  0  0  0  0
 17 16  2  0  0  0  0
 17 21  1  0  0  0  0
 18 17  1  0  0  0  0
 19 18  1  0  0  0  0
 19 15  2  0  0  0  0
 22 27  1  0  0  0  0
 23 22  2  0  0  0  0
 23 24  1  0  0  0  0
 24 25  2  0  0  0  0
 25 26  1  0  0  0  0
 26 30  1  0  0  0  0
 27 26  2  0  0  0  0
 28 22  1  0  0  0  0
 29 23  1  0  0  0  0
 32 31  1  0  0  0  0
 32 34  1  0  0  0  0
 33 32  2  0  0  0  0
 34  6  1  0  0  0  0
 34 35  1  0  0  0  0
M  END
>  <minimizedAffinity>
-4.73421717

$$$$
