
 OpenBabel03252502193D

 29 30  0  0  1  0  0  0  0  0999 V2000
   46.8750   34.6320   42.2730 N   0  0  0  0  0  0  0  0  0  0  0  0
   48.3300   34.7330   42.3340 C   0  0  0  0  0  0  0  0  0  0  0  0
   48.7100   35.4970   41.0560 C   0  0  0  0  0  0  0  0  0  0  0  0
   48.3920   34.6710   39.8560 C   0  0  0  0  0  0  0  0  0  0  0  0
   47.0910   33.9700   39.9240 C   0  0  0  0  0  0  0  0  0  0  0  0
   46.1780   34.3700   41.0470 C   0  0  1  0  0  0  0  0  0  0  0  0
   48.8050   33.7380   42.2170 H   0  0  0  0  0  0  0  0  0  0  0  0
   48.6290   35.2920   43.2200 H   0  0  0  0  0  0  0  0  0  0  0  0
   48.0980   36.4400   40.9980 H   0  0  0  0  0  0  0  0  0  0  0  0
   49.7780   35.7700   41.0680 H   0  0  0  0  0  0  0  0  0  0  0  0
   48.5410   35.3080   38.9540 H   0  0  0  0  0  0  0  0  0  0  0  0
   49.2060   33.9020   39.7860 H   0  0  0  0  0  0  0  0  0  0  0  0
   47.1760   32.8630   39.9370 H   0  0  0  0  0  0  0  0  0  0  0  0
   46.5530   34.1890   38.9590 H   0  0  0  0  0  0  0  0  0  0  0  0
   45.6950   35.3320   40.7400 H   0  0  0  0  0  0  0  0  0  0  0  0
   44.4980   35.9810   44.8190 C   0  0  0  0  0  0  0  0  0  0  0  0
   45.2220   35.8950   43.6190 C   0  0  0  0  0  0  0  0  0  0  0  0
   46.1030   34.7960   43.4580 C   0  0  0  0  0  0  0  0  0  0  0  0
   46.1890   33.8990   44.4750 N   0  0  0  0  0  0  0  0  0  0  0  0
   45.4620   34.0290   45.6230 C   0  0  0  0  0  0  0  0  0  0  0  0
   44.6250   35.0720   45.7780 N   0  0  0  0  0  0  0  0  0  0  0  0
   43.8160   36.7980   44.9870 H   0  0  0  0  0  0  0  0  0  0  0  0
   45.1300   36.6130   42.8450 H   0  0  0  0  0  0  0  0  0  0  0  0
   45.6790   33.2100   46.3020 H   0  0  0  0  0  0  0  0  0  0  0  0
   43.1310   32.8010   41.0490 H   0  0  0  0  0  0  0  0  0  0  0  0
   43.8290   33.6340   40.8730 C   0  0  0  0  0  0  0  0  0  0  0  0
   43.4490   34.7280   40.3980 O   0  0  0  0  0  0  0  0  0  0  0  0
   45.1800   33.3400   41.2380 N   0  0  0  0  0  0  0  0  0  0  0  0
   45.4900   32.4280   41.6340 H   0  0  0  0  0  0  0  0  0  0  0  0
  1  2  1  0  0  0  0
  1 18  1  0  0  0  0
  2  8  1  0  0  0  0
  3 10  1  0  0  0  0
  3  2  1  0  0  0  0
  4  5  1  0  0  0  0
  4  3  1  0  0  0  0
  5 13  1  0  0  0  0
  5  6  1  0  0  0  0
  6 15  1  6  0  0  0
  6 28  1  0  0  0  0
  6  1  1  0  0  0  0
  7  2  1  0  0  0  0
  9  3  1  0  0  0  0
 11  4  1  0  0  0  0
 12  4  1  0  0  0  0
 14  5  1  0  0  0  0
 16 22  1  0  0  0  0
 16 21  1  0  0  0  0
 17 16  2  0  0  0  0
 18 17  1  0  0  0  0
 18 19  2  0  0  0  0
 19 20  1  0  0  0  0
 20 21  2  0  0  0  0
 20 24  1  0  0  0  0
 23 17  1  0  0  0  0
 26 25  1  0  0  0  0
 26 28  1  0  0  0  0
 27 26  2  0  0  0  0
 28 29  1  0  0  0  0
M  END
>  <minimizedAffinity>
-4.98916435

>  <minimizedRMSD>
0.111407787

$$$$
