
 OpenBabel03252500303D

 39 41  0  0  1  0  0  0  0  0999 V2000
   45.8800   32.1950   45.4520 N   0  0  0  0  0  0  0  0  0  0  0  0
   45.8740   32.8260   46.7140 C   0  0  0  0  0  0  0  0  0  0  0  0
   47.1850   32.6300   47.4800 C   0  0  0  0  0  0  0  0  0  0  0  0
   47.2530   31.1570   47.7960 C   0  0  0  0  0  0  0  0  0  0  0  0
   47.3340   30.4480   46.4670 C   0  0  0  0  0  0  0  0  0  0  0  0
   46.3280   30.8600   45.4550 C   0  0  1  0  0  0  0  0  0  0  0  0
   45.1330   32.2120   47.3190 H   0  0  0  0  0  0  0  0  0  0  0  0
   45.4560   33.8150   46.7740 H   0  0  0  0  0  0  0  0  0  0  0  0
   48.0120   32.8130   46.7430 H   0  0  0  0  0  0  0  0  0  0  0  0
   47.2350   33.2900   48.3460 H   0  0  0  0  0  0  0  0  0  0  0  0
   48.1880   30.9010   48.3370 H   0  0  0  0  0  0  0  0  0  0  0  0
   46.3360   30.9000   48.3600 H   0  0  0  0  0  0  0  0  0  0  0  0
   48.3810   30.5030   46.1160 H   0  0  0  0  0  0  0  0  0  0  0  0
   47.1430   29.3690   46.6920 H   0  0  0  0  0  0  0  0  0  0  0  0
   46.8430   30.6990   44.4630 H   0  0  0  0  0  0  0  0  0  0  0  0
   43.6420   28.7520   46.3450 H   0  0  0  0  0  0  0  0  0  0  0  0
   44.4860   29.4070   46.5160 C   0  0  0  0  0  0  0  0  0  0  0  0
   44.9980   29.7900   47.6210 O   0  0  0  0  0  0  0  0  0  0  0  0
   45.1790   29.9660   45.4020 N   0  0  0  0  0  0  0  0  0  0  0  0
   44.8820   29.7490   44.4080 H   0  0  0  0  0  0  0  0  0  0  0  0
   46.3250   33.0110   44.3570 C   0  0  0  0  0  0  0  0  0  0  0  0
   47.4400   33.1220   44.4640 H   0  0  0  0  0  0  0  0  0  0  0  0
   46.0620   32.5560   43.3730 H   0  0  0  0  0  0  0  0  0  0  0  0
   45.7390   35.3290   43.3160 C   0  0  1  0  0  0  0  0  0  0  0  0
   44.5240   34.7090   43.6920 C   0  0  0  0  0  0  0  0  0  0  0  0
   45.7120   34.3490   44.5090 C   0  0  1  0  0  0  0  0  0  0  0  0
   45.9230   36.4030   43.5670 H   0  0  0  0  0  0  0  0  0  0  0  0
   43.7210   35.2910   44.1960 H   0  0  0  0  0  0  0  0  0  0  0  0
   44.0840   33.8670   43.1050 H   0  0  0  0  0  0  0  0  0  0  0  0
   46.0010   34.8850   45.4250 H   0  0  0  0  0  0  0  0  0  0  0  0
   45.9470   34.2430   41.0770 C   0  0  0  0  0  0  0  0  0  0  0  0
   46.5790   34.9390   42.1470 C   0  0  0  0  0  0  0  0  0  0  0  0
   47.9180   35.2200   42.0680 C   0  0  0  0  0  0  0  0  0  0  0  0
   48.5890   34.8100   40.9510 N   0  0  0  0  0  0  0  0  0  0  0  0
   47.9690   34.1430   39.9340 C   0  0  0  0  0  0  0  0  0  0  0  0
   46.6340   33.8490   39.9830 N   0  0  0  0  0  0  0  0  0  0  0  0
   44.8880   34.0410   41.1760 H   0  0  0  0  0  0  0  0  0  0  0  0
   48.4150   35.7450   42.8660 H   0  0  0  0  0  0  0  0  0  0  0  0
   48.5380   33.8350   39.0620 H   0  0  0  0  0  0  0  0  0  0  0  0
  1  6  1  0  0  0  0
  1  2  1  0  0  0  0
  2  8  1  0  0  0  0
  2  7  1  0  0  0  0
  2  3  1  0  0  0  0
  3  4  1  0  0  0  0
  3 10  1  0  0  0  0
  4 11  1  0  0  0  0
  4 12  1  0  0  0  0
  5 14  1  0  0  0  0
  5  4  1  0  0  0  0
  6 15  1  6  0  0  0
  6  5  1  0  0  0  0
  9  3  1  0  0  0  0
 13  5  1  0  0  0  0
 16 17  1  0  0  0  0
 17 18  2  0  0  0  0
 19  6  1  0  0  0  0
 19 17  1  0  0  0  0
 20 19  1  0  0  0  0
 21 22  1  0  0  0  0
 21 26  1  0  0  0  0
 21  1  1  0  0  0  0
 23 21  1  0  0  0  0
 24 27  1  1  0  0  0
 24 25  1  0  0  0  0
 24 26  1  0  0  0  0
 25 28  1  0  0  0  0
 25 26  1  0  0  0  0
 26 30  1  1  0  0  0
 29 25  1  0  0  0  0
 31 37  1  0  0  0  0
 31 32  1  0  0  0  0
 32 24  1  0  0  0  0
 33 32  2  0  0  0  0
 33 38  1  0  0  0  0
 34 33  1  0  0  0  0
 35 36  1  0  0  0  0
 35 34  2  0  0  0  0
 36 31  2  0  0  0  0
 39 35  1  0  0  0  0
M  END
>  <minimizedAffinity>
-4.54660797

>  <minimizedRMSD>
1.99897611

$$$$
