
 OpenBabel03252506163D

 19 19  0  0  0  0  0  0  0  0999 V2000
   44.7840   35.7220   43.6230 C   0  0  0  0  0  0  0  0  0  0  0  0
   44.3260   35.6610   42.2930 C   0  0  0  0  0  0  0  0  0  0  0  0
   44.2120   34.4060   41.6690 C   0  0  0  0  0  0  0  0  0  0  0  0
   44.5540   33.3230   42.3960 N   0  0  0  0  0  0  0  0  0  0  0  0
   44.9940   33.4120   43.6770 C   0  0  0  0  0  0  0  0  0  0  0  0
   45.1060   34.5930   44.2810 N   0  0  0  0  0  0  0  0  0  0  0  0
   44.0610   36.5350   41.7390 H   0  0  0  0  0  0  0  0  0  0  0  0
   43.8720   34.2910   40.6630 H   0  0  0  0  0  0  0  0  0  0  0  0
   46.3130   31.3380   46.0800 H   0  0  0  0  0  0  0  0  0  0  0  0
   46.1030   32.3120   45.6150 C   0  0  0  0  0  0  0  0  0  0  0  0
   46.4320   33.4760   45.9980 O   0  0  0  0  0  0  0  0  0  0  0  0
   45.3420   32.2190   44.3940 N   0  0  0  0  0  0  0  0  0  0  0  0
   45.0350   31.2870   44.0180 H   0  0  0  0  0  0  0  0  0  0  0  0
   44.8930   37.0390   44.2440 C   0  0  0  0  0  0  0  0  0  0  0  0
   45.3070   38.0530   43.4790 C   0  0  0  0  0  0  0  0  0  0  0  0
   45.4290   39.4150   44.0900 C   0  0  0  0  0  0  0  0  0  0  0  0
   46.0100   40.0700   43.4090 H   0  0  0  0  0  0  0  0  0  0  0  0
   44.4400   39.9020   44.2370 H   0  0  0  0  0  0  0  0  0  0  0  0
   45.9590   39.3810   45.0680 H   0  0  0  0  0  0  0  0  0  0  0  0
  1 14  1  0  0  0  0
  1  6  1  0  0  0  0
  2  1  2  0  0  0  0
  3  2  1  0  0  0  0
  3  4  2  0  0  0  0
  4  5  1  0  0  0  0
  5  6  2  0  0  0  0
  5 12  1  0  0  0  0
  7  2  1  0  0  0  0
  8  3  1  0  0  0  0
 10 11  2  0  0  0  0
 10  9  1  0  0  0  0
 12 10  1  0  0  0  0
 13 12  1  0  0  0  0
 15 16  1  0  0  0  0
 15 14  2  0  0  0  0
 16 18  1  0  0  0  0
 16 19  1  0  0  0  0
 17 16  1  0  0  0  0
M  END
>  <minimizedAffinity>
-3.38142753

>  <minimizedRMSD>
0.422071427

$$$$
