
 OpenBabel03242521373D

 40 44  0  0  0  0  0  0  0  0999 V2000
   38.8350   31.5950   37.5200 C   0  0  0  0  0  0  0  0  0  0  0  0
   38.1630   30.7110   38.3840 C   0  0  0  0  0  0  0  0  0  0  0  0
   38.6160   30.5160   39.6630 C   0  0  0  0  0  0  0  0  0  0  0  0
   39.7270   31.1980   40.0670 N   0  0  0  0  0  0  0  0  0  0  0  0
   40.3720   32.0480   39.2330 C   0  0  0  0  0  0  0  0  0  0  0  0
   39.9110   32.2300   37.9710 N   0  0  0  0  0  0  0  0  0  0  0  0
   38.4740   31.7480   36.5050 H   0  0  0  0  0  0  0  0  0  0  0  0
   37.2910   30.1710   38.0730 H   0  0  0  0  0  0  0  0  0  0  0  0
   37.3880   28.4780   40.1600 C   0  0  0  0  0  0  0  0  0  0  0  0
   38.0010   29.6300   40.6350 C   0  0  0  0  0  0  0  0  0  0  0  0
   37.9870   29.8540   41.9880 C   0  0  0  0  0  0  0  0  0  0  0  0
   37.3930   28.9940   42.8960 C   0  0  0  0  0  0  0  0  0  0  0  0
   37.2670   29.0210   44.2320 N   0  0  0  0  0  0  0  0  0  0  0  0
   36.5790   27.8990   44.6170 C   0  0  0  0  0  0  0  0  0  0  0  0
   36.2930   27.1940   43.4830 N   0  0  0  0  0  0  0  0  0  0  0  0
   36.7820   27.8440   42.4220 C   0  0  0  0  0  0  0  0  0  0  0  0
   36.7840   27.5970   41.0640 C   0  0  0  0  0  0  0  0  0  0  0  0
   37.3770   28.2640   39.0990 H   0  0  0  0  0  0  0  0  0  0  0  0
   38.4610   30.7490   42.3750 H   0  0  0  0  0  0  0  0  0  0  0  0
   37.6130   29.7460   44.9000 H   0  0  0  0  0  0  0  0  0  0  0  0
   36.2790   27.5600   45.5850 H   0  0  0  0  0  0  0  0  0  0  0  0
   36.3160   26.7110   40.6510 H   0  0  0  0  0  0  0  0  0  0  0  0
   42.4170   33.3260   38.7640 C   0  0  0  0  0  0  0  0  0  0  0  0
   41.5550   32.7700   39.6690 C   0  0  0  0  0  0  0  0  0  0  0  0
   41.8040   32.8840   41.0320 C   0  0  0  0  0  0  0  0  0  0  0  0
   42.9250   33.5600   41.4650 C   0  0  0  0  0  0  0  0  0  0  0  0
   43.3010   33.7520   42.7390 N   0  0  0  0  0  0  0  0  0  0  0  0
   44.4680   34.4690   42.6350 C   0  0  0  0  0  0  0  0  0  0  0  0
   44.7660   34.6930   41.3350 N   0  0  0  0  0  0  0  0  0  0  0  0
   43.8150   34.1340   40.5660 C   0  0  0  0  0  0  0  0  0  0  0  0
   43.5250   33.9940   39.2270 C   0  0  0  0  0  0  0  0  0  0  0  0
   42.2670   33.2650   37.6950 H   0  0  0  0  0  0  0  0  0  0  0  0
   41.1040   32.4340   41.7090 H   0  0  0  0  0  0  0  0  0  0  0  0
   42.8950   33.4740   43.6370 H   0  0  0  0  0  0  0  0  0  0  0  0
   45.0540   34.8010   43.4900 H   0  0  0  0  0  0  0  0  0  0  0  0
   46.2720   33.8920   37.2420 H   0  0  0  0  0  0  0  0  0  0  0  0
   45.4520   33.6320   37.9220 C   0  0  0  0  0  0  0  0  0  0  0  0
   45.1880   32.5000   38.4540 O   0  0  0  0  0  0  0  0  0  0  0  0
   44.4770   34.6060   38.3450 N   0  0  0  0  0  0  0  0  0  0  0  0
   44.5470   35.6030   37.9950 H   0  0  0  0  0  0  0  0  0  0  0  0
  1  6  2  0  0  0  0
  1  2  1  0  0  0  0
  2  3  2  0  0  0  0
  3  4  1  0  0  0  0
  3 10  1  0  0  0  0
  5 24  1  0  0  0  0
  5  4  2  0  0  0  0
  6  5  1  0  0  0  0
  7  1  1  0  0  0  0
  8  2  1  0  0  0  0
  9 10  2  0  0  0  0
  9 17  1  0  0  0  0
 10 11  1  0  0  0  0
 11 19  1  0  0  0  0
 11 12  2  0  0  0  0
 12 13  1  0  0  0  0
 13 14  1  0  0  0  0
 13 20  1  0  0  0  0
 14 21  1  0  0  0  0
 15 14  2  0  0  0  0
 16 12  1  0  0  0  0
 16 15  1  0  0  0  0
 17 16  2  0  0  0  0
 18  9  1  0  0  0  0
 22 17  1  0  0  0  0
 23 31  2  0  0  0  0
 23 24  1  0  0  0  0
 24 25  2  0  0  0  0
 25 26  1  0  0  0  0
 25 33  1  0  0  0  0
 26 27  1  0  0  0  0
 27 34  1  0  0  0  0
 28 27  1  0  0  0  0
 28 35  1  0  0  0  0
 29 28  2  0  0  0  0
 30 29  1  0  0  0  0
 30 26  2  0  0  0  0
 31 30  1  0  0  0  0
 32 23  1  0  0  0  0
 36 37  1  0  0  0  0
 37 39  1  0  0  0  0
 37 38  2  0  0  0  0
 39 31  1  0  0  0  0
 40 39  1  0  0  0  0
M  END
>  <minimizedAffinity>
-6.98320723

$$$$

 OpenBabel03242521373D

 40 44  0  0  0  0  0  0  0  0999 V2000
   36.8950   27.7830   44.2300 C   0  0  0  0  0  0  0  0  0  0  0  0
   36.8490   26.6190   43.4420 C   0  0  0  0  0  0  0  0  0  0  0  0
   37.2230   26.6620   42.1230 C   0  0  0  0  0  0  0  0  0  0  0  0
   37.6340   27.8560   41.6060 N   0  0  0  0  0  0  0  0  0  0  0  0
   37.6750   28.9750   42.3680 C   0  0  0  0  0  0  0  0  0  0  0  0
   37.3030   28.9160   43.6710 N   0  0  0  0  0  0  0  0  0  0  0  0
   36.5980   27.7460   45.2770 H   0  0  0  0  0  0  0  0  0  0  0  0
   36.5280   25.6780   43.8410 H   0  0  0  0  0  0  0  0  0  0  0  0
   36.6760   25.7090   39.9550 C   0  0  0  0  0  0  0  0  0  0  0  0
   37.2150   25.5240   41.2210 C   0  0  0  0  0  0  0  0  0  0  0  0
   37.7060   24.2830   41.5360 C   0  0  0  0  0  0  0  0  0  0  0  0
   37.6880   23.2120   40.6590 C   0  0  0  0  0  0  0  0  0  0  0  0
   38.1050   21.9410   40.7610 N   0  0  0  0  0  0  0  0  0  0  0  0
   37.8380   21.3090   39.5730 C   0  0  0  0  0  0  0  0  0  0  0  0
   37.2500   22.2280   38.7520 N   0  0  0  0  0  0  0  0  0  0  0  0
   37.1500   23.3960   39.3950 C   0  0  0  0  0  0  0  0  0  0  0  0
   36.6500   24.6380   39.0550 C   0  0  0  0  0  0  0  0  0  0  0  0
   36.2790   26.6740   39.6660 H   0  0  0  0  0  0  0  0  0  0  0  0
   38.1300   24.1220   42.5200 H   0  0  0  0  0  0  0  0  0  0  0  0
   38.5560   21.4710   41.5770 H   0  0  0  0  0  0  0  0  0  0  0  0
   38.0170   20.3030   39.2590 H   0  0  0  0  0  0  0  0  0  0  0  0
   36.2210   24.8240   38.0780 H   0  0  0  0  0  0  0  0  0  0  0  0
   39.3980   30.6780   41.9640 C   0  0  0  0  0  0  0  0  0  0  0  0
   38.1110   30.2440   41.8100 C   0  0  0  0  0  0  0  0  0  0  0  0
   37.1900   31.0210   41.1170 C   0  0  0  0  0  0  0  0  0  0  0  0
   37.5830   32.2310   40.5860 C   0  0  0  0  0  0  0  0  0  0  0  0
   36.8150   33.0890   39.8970 N   0  0  0  0  0  0  0  0  0  0  0  0
   37.6640   34.1270   39.5980 C   0  0  0  0  0  0  0  0  0  0  0  0
   38.8970   33.8810   40.0970 N   0  0  0  0  0  0  0  0  0  0  0  0
   38.8850   32.6940   40.7270 C   0  0  0  0  0  0  0  0  0  0  0  0
   39.7600   31.8890   41.4220 C   0  0  0  0  0  0  0  0  0  0  0  0
   40.1520   30.1110   42.4930 H   0  0  0  0  0  0  0  0  0  0  0  0
   36.1900   30.6450   41.0190 H   0  0  0  0  0  0  0  0  0  0  0  0
   35.8310   33.0740   39.6120 H   0  0  0  0  0  0  0  0  0  0  0  0
   37.3670   35.0120   39.0370 H   0  0  0  0  0  0  0  0  0  0  0  0
   42.9640   32.2020   40.3600 H   0  0  0  0  0  0  0  0  0  0  0  0
   41.9090   31.9200   40.4600 C   0  0  0  0  0  0  0  0  0  0  0  0
   41.2170   31.1530   39.7100 O   0  0  0  0  0  0  0  0  0  0  0  0
   41.0890   32.4160   41.5370 N   0  0  0  0  0  0  0  0  0  0  0  0
   41.5090   33.0710   42.2570 H   0  0  0  0  0  0  0  0  0  0  0  0
  1  7  1  0  0  0  0
  2  8  1  0  0  0  0
  2  1  2  0  0  0  0
  3  2  1  0  0  0  0
  4  3  2  0  0  0  0
  4  5  1  0  0  0  0
  5  6  2  0  0  0  0
  6  1  1  0  0  0  0
  9 10  1  0  0  0  0
 10 11  2  0  0  0  0
 10  3  1  0  0  0  0
 11 19  1  0  0  0  0
 12 13  1  0  0  0  0
 12 11  1  0  0  0  0
 13 20  1  0  0  0  0
 14 13  1  0  0  0  0
 15 16  1  0  0  0  0
 15 14  2  0  0  0  0
 16 12  2  0  0  0  0
 17 16  1  0  0  0  0
 17  9  2  0  0  0  0
 18  9  1  0  0  0  0
 21 14  1  0  0  0  0
 22 17  1  0  0  0  0
 23 32  1  0  0  0  0
 24 23  1  0  0  0  0
 24  5  1  0  0  0  0
 25 24  2  0  0  0  0
 26 30  2  0  0  0  0
 26 25  1  0  0  0  0
 27 26  1  0  0  0  0
 28 27  1  0  0  0  0
 28 29  2  0  0  0  0
 29 30  1  0  0  0  0
 30 31  1  0  0  0  0
 31 39  1  0  0  0  0
 31 23  2  0  0  0  0
 33 25  1  0  0  0  0
 34 27  1  0  0  0  0
 35 28  1  0  0  0  0
 36 37  1  0  0  0  0
 37 39  1  0  0  0  0
 38 37  2  0  0  0  0
 39 40  1  0  0  0  0
M  END
>  <minimizedAffinity>
-6.93681431

$$$$

 OpenBabel03242521373D

 40 44  0  0  0  0  0  0  0  0999 V2000
   37.2790   28.1800   43.9470 C   0  0  0  0  0  0  0  0  0  0  0  0
   37.1370   26.9540   43.2710 C   0  0  0  0  0  0  0  0  0  0  0  0
   37.4070   26.8690   41.9290 C   0  0  0  0  0  0  0  0  0  0  0  0
   37.8110   27.9980   41.2780 N   0  0  0  0  0  0  0  0  0  0  0  0
   37.9450   29.1770   41.9310 C   0  0  0  0  0  0  0  0  0  0  0  0
   37.6750   29.2440   43.2590 N   0  0  0  0  0  0  0  0  0  0  0  0
   37.0640   28.2450   45.0120 H   0  0  0  0  0  0  0  0  0  0  0  0
   36.8210   26.0630   43.7760 H   0  0  0  0  0  0  0  0  0  0  0  0
   36.5990   25.7350   39.9370 C   0  0  0  0  0  0  0  0  0  0  0  0
   37.2950   25.6580   41.1360 C   0  0  0  0  0  0  0  0  0  0  0  0
   37.8320   24.4470   41.4910 C   0  0  0  0  0  0  0  0  0  0  0  0
   37.7120   23.3050   40.7170 C   0  0  0  0  0  0  0  0  0  0  0  0
   38.1500   22.0460   40.8730 N   0  0  0  0  0  0  0  0  0  0  0  0
   37.7400   21.3160   39.7870 C   0  0  0  0  0  0  0  0  0  0  0  0
   37.0460   22.1630   38.9720 N   0  0  0  0  0  0  0  0  0  0  0  0
   37.0170   23.3820   39.5200 C   0  0  0  0  0  0  0  0  0  0  0  0
   36.4690   24.5910   39.1420 C   0  0  0  0  0  0  0  0  0  0  0  0
   36.1600   26.6720   39.6200 H   0  0  0  0  0  0  0  0  0  0  0  0
   38.3780   24.3700   42.4240 H   0  0  0  0  0  0  0  0  0  0  0  0
   38.7040   21.6470   41.6630 H   0  0  0  0  0  0  0  0  0  0  0  0
   37.8860   20.2860   39.5400 H   0  0  0  0  0  0  0  0  0  0  0  0
   35.9170   24.6940   38.2150 H   0  0  0  0  0  0  0  0  0  0  0  0
   37.6990   30.8310   40.1330 C   0  0  0  0  0  0  0  0  0  0  0  0
   38.3720   30.3760   41.2310 C   0  0  0  0  0  0  0  0  0  0  0  0
   39.4910   31.0580   41.6970 C   0  0  0  0  0  0  0  0  0  0  0  0
   39.9160   32.1940   41.0430 C   0  0  0  0  0  0  0  0  0  0  0  0
   40.9730   32.9550   41.3670 N   0  0  0  0  0  0  0  0  0  0  0  0
   40.9690   33.9500   40.4190 C   0  0  0  0  0  0  0  0  0  0  0  0
   39.9360   33.7750   39.5630 N   0  0  0  0  0  0  0  0  0  0  0  0
   39.2490   32.6780   39.9250 C   0  0  0  0  0  0  0  0  0  0  0  0
   38.1460   31.9680   39.5030 C   0  0  0  0  0  0  0  0  0  0  0  0
   36.8230   30.3380   39.7320 H   0  0  0  0  0  0  0  0  0  0  0  0
   39.9920   30.6680   42.5620 H   0  0  0  0  0  0  0  0  0  0  0  0
   41.6740   32.8990   42.1120 H   0  0  0  0  0  0  0  0  0  0  0  0
   41.7010   34.7540   40.3800 H   0  0  0  0  0  0  0  0  0  0  0  0
   37.4940   32.0200   36.1760 H   0  0  0  0  0  0  0  0  0  0  0  0
   37.8790   31.7680   37.1720 C   0  0  0  0  0  0  0  0  0  0  0  0
   38.6890   30.8350   37.4980 O   0  0  0  0  0  0  0  0  0  0  0  0
   37.4970   32.5120   38.3450 N   0  0  0  0  0  0  0  0  0  0  0  0
   36.8250   33.3260   38.2540 H   0  0  0  0  0  0  0  0  0  0  0  0
  1  7  1  0  0  0  0
  2  8  1  0  0  0  0
  2  1  1  0  0  0  0
  3  2  2  0  0  0  0
  4  3  1  0  0  0  0
  4  5  2  0  0  0  0
  5  6  1  0  0  0  0
  6  1  2  0  0  0  0
  9 10  1  0  0  0  0
 10 11  2  0  0  0  0
 10  3  1  0  0  0  0
 11 19  1  0  0  0  0
 12 13  1  0  0  0  0
 12 11  1  0  0  0  0
 13 20  1  0  0  0  0
 14 13  1  0  0  0  0
 15 16  1  0  0  0  0
 15 14  2  0  0  0  0
 16 12  2  0  0  0  0
 17 16  1  0  0  0  0
 17  9  2  0  0  0  0
 18  9  1  0  0  0  0
 21 14  1  0  0  0  0
 22 17  1  0  0  0  0
 23 24  1  0  0  0  0
 24 25  2  0  0  0  0
 24  5  1  0  0  0  0
 25 33  1  0  0  0  0
 26 27  1  0  0  0  0
 26 25  1  0  0  0  0
 27 34  1  0  0  0  0
 28 27  1  0  0  0  0
 29 30  1  0  0  0  0
 29 28  2  0  0  0  0
 30 26  2  0  0  0  0
 31 30  1  0  0  0  0
 31 23  2  0  0  0  0
 32 23  1  0  0  0  0
 35 28  1  0  0  0  0
 36 37  1  0  0  0  0
 37 38  2  0  0  0  0
 37 39  1  0  0  0  0
 39 31  1  0  0  0  0
 40 39  1  0  0  0  0
M  END
>  <minimizedAffinity>
-6.81748056

$$$$

 OpenBabel03242521373D

 40 44  0  0  0  0  0  0  0  0999 V2000
   37.3650   28.5370   43.4960 C   0  0  0  0  0  0  0  0  0  0  0  0
   37.1460   27.2680   42.9290 C   0  0  0  0  0  0  0  0  0  0  0  0
   37.5440   27.0080   41.6430 C   0  0  0  0  0  0  0  0  0  0  0  0
   38.1520   28.0060   40.9390 N   0  0  0  0  0  0  0  0  0  0  0  0
   38.3610   29.2260   41.4870 C   0  0  0  0  0  0  0  0  0  0  0  0
   37.9610   29.4690   42.7600 N   0  0  0  0  0  0  0  0  0  0  0  0
   37.0470   28.7420   44.5160 H   0  0  0  0  0  0  0  0  0  0  0  0
   36.6690   26.4800   43.4760 H   0  0  0  0  0  0  0  0  0  0  0  0
   36.5630   25.7180   39.8320 C   0  0  0  0  0  0  0  0  0  0  0  0
   37.3690   25.7370   40.9620 C   0  0  0  0  0  0  0  0  0  0  0  0
   37.9460   24.5590   41.3600 C   0  0  0  0  0  0  0  0  0  0  0  0
   37.7640   23.3580   40.6940 C   0  0  0  0  0  0  0  0  0  0  0  0
   38.2240   22.1160   40.9080 N   0  0  0  0  0  0  0  0  0  0  0  0
   37.7210   21.3010   39.9260 C   0  0  0  0  0  0  0  0  0  0  0  0
   36.9460   22.0810   39.1150 N   0  0  0  0  0  0  0  0  0  0  0  0
   36.9590   23.3390   39.5650 C   0  0  0  0  0  0  0  0  0  0  0  0
   36.3680   24.5140   39.1460 C   0  0  0  0  0  0  0  0  0  0  0  0
   36.0880   26.6270   39.4840 H   0  0  0  0  0  0  0  0  0  0  0  0
   38.5780   24.5560   42.2410 H   0  0  0  0  0  0  0  0  0  0  0  0
   38.8530   21.7820   41.6710 H   0  0  0  0  0  0  0  0  0  0  0  0
   37.8510   20.2550   39.7490 H   0  0  0  0  0  0  0  0  0  0  0  0
   35.7310   24.5430   38.2690 H   0  0  0  0  0  0  0  0  0  0  0  0
   39.1760   31.5330   41.2650 C   0  0  0  0  0  0  0  0  0  0  0  0
   39.0060   30.2860   40.7310 C   0  0  0  0  0  0  0  0  0  0  0  0
   39.4490   30.0130   39.4420 C   0  0  0  0  0  0  0  0  0  0  0  0
   40.0590   31.0060   38.7070 C   0  0  0  0  0  0  0  0  0  0  0  0
   40.5340   30.8990   37.4560 N   0  0  0  0  0  0  0  0  0  0  0  0
   41.0330   32.1490   37.1820 C   0  0  0  0  0  0  0  0  0  0  0  0
   40.8550   32.9670   38.2460 N   0  0  0  0  0  0  0  0  0  0  0  0
   40.2430   32.2810   39.2270 C   0  0  0  0  0  0  0  0  0  0  0  0
   39.7880   32.5020   40.5080 C   0  0  0  0  0  0  0  0  0  0  0  0
   38.8500   31.7950   42.2630 H   0  0  0  0  0  0  0  0  0  0  0  0
   39.2970   29.0220   39.0590 H   0  0  0  0  0  0  0  0  0  0  0  0
   40.5670   30.1260   36.7840 H   0  0  0  0  0  0  0  0  0  0  0  0
   41.5010   32.4230   36.2390 H   0  0  0  0  0  0  0  0  0  0  0  0
   38.8320   35.7240   40.9540 H   0  0  0  0  0  0  0  0  0  0  0  0
   38.8710   34.6650   40.6720 C   0  0  0  0  0  0  0  0  0  0  0  0
   37.9970   33.9770   40.0450 O   0  0  0  0  0  0  0  0  0  0  0  0
   40.0040   33.8350   40.9940 N   0  0  0  0  0  0  0  0  0  0  0  0
   40.8270   34.2500   41.5180 H   0  0  0  0  0  0  0  0  0  0  0  0
  1  7  1  0  0  0  0
  2  8  1  0  0  0  0
  2  1  1  0  0  0  0
  3  2  2  0  0  0  0
  4  5  2  0  0  0  0
  4  3  1  0  0  0  0
  5  6  1  0  0  0  0
  6  1  2  0  0  0  0
  9 10  1  0  0  0  0
 10 11  2  0  0  0  0
 10  3  1  0  0  0  0
 11 19  1  0  0  0  0
 12 13  1  0  0  0  0
 12 11  1  0  0  0  0
 13 20  1  0  0  0  0
 14 13  1  0  0  0  0
 15 16  1  0  0  0  0
 15 14  2  0  0  0  0
 16 12  2  0  0  0  0
 17 16  1  0  0  0  0
 17  9  2  0  0  0  0
 18  9  1  0  0  0  0
 21 14  1  0  0  0  0
 22 17  1  0  0  0  0
 23 32  1  0  0  0  0
 24 23  1  0  0  0  0
 24  5  1  0  0  0  0
 25 24  2  0  0  0  0
 26 30  2  0  0  0  0
 26 25  1  0  0  0  0
 27 26  1  0  0  0  0
 28 27  1  0  0  0  0
 28 29  2  0  0  0  0
 29 30  1  0  0  0  0
 30 31  1  0  0  0  0
 31 39  1  0  0  0  0
 31 23  2  0  0  0  0
 33 25  1  0  0  0  0
 34 27  1  0  0  0  0
 35 28  1  0  0  0  0
 37 36  1  0  0  0  0
 37 39  1  0  0  0  0
 38 37  2  0  0  0  0
 39 40  1  0  0  0  0
M  END
>  <minimizedAffinity>
-6.76319647

$$$$

 OpenBabel03242521373D

 40 44  0  0  0  0  0  0  0  0999 V2000
   36.2220   31.3050   40.8090 C   0  0  0  0  0  0  0  0  0  0  0  0
   36.3600   29.9400   41.1220 C   0  0  0  0  0  0  0  0  0  0  0  0
   37.5940   29.3450   41.0910 C   0  0  0  0  0  0  0  0  0  0  0  0
   38.6720   30.1080   40.7500 N   0  0  0  0  0  0  0  0  0  0  0  0
   38.5370   31.4210   40.4480 C   0  0  0  0  0  0  0  0  0  0  0  0
   37.3090   31.9960   40.4830 N   0  0  0  0  0  0  0  0  0  0  0  0
   35.2410   31.7760   40.8340 H   0  0  0  0  0  0  0  0  0  0  0  0
   35.5170   29.3340   41.3910 H   0  0  0  0  0  0  0  0  0  0  0  0
   37.0290   26.9990   40.8010 C   0  0  0  0  0  0  0  0  0  0  0  0
   37.8490   27.9480   41.3960 C   0  0  0  0  0  0  0  0  0  0  0  0
   38.8450   27.5070   42.2290 C   0  0  0  0  0  0  0  0  0  0  0  0
   39.0700   26.1680   42.5040 C   0  0  0  0  0  0  0  0  0  0  0  0
   39.9670   25.5320   43.2730 N   0  0  0  0  0  0  0  0  0  0  0  0
   39.7300   24.1840   43.1770 C   0  0  0  0  0  0  0  0  0  0  0  0
   38.6690   24.0220   42.3330 N   0  0  0  0  0  0  0  0  0  0  0  0
   38.2510   25.2200   41.9110 C   0  0  0  0  0  0  0  0  0  0  0  0
   37.2420   25.6410   41.0680 C   0  0  0  0  0  0  0  0  0  0  0  0
   36.2310   27.3050   40.1370 H   0  0  0  0  0  0  0  0  0  0  0  0
   39.4940   28.2350   42.7010 H   0  0  0  0  0  0  0  0  0  0  0  0
   40.7280   25.9460   43.8570 H   0  0  0  0  0  0  0  0  0  0  0  0
   40.2230   23.3530   43.6330 H   0  0  0  0  0  0  0  0  0  0  0  0
   36.5790   24.9330   40.5840 H   0  0  0  0  0  0  0  0  0  0  0  0
   40.4450   32.8520   41.0350 C   0  0  0  0  0  0  0  0  0  0  0  0
   39.6880   32.2280   40.0830 C   0  0  0  0  0  0  0  0  0  0  0  0
   40.0110   32.3630   38.7370 C   0  0  0  0  0  0  0  0  0  0  0  0
   41.0960   33.1290   38.3700 C   0  0  0  0  0  0  0  0  0  0  0  0
   41.5290   33.3550   37.1200 N   0  0  0  0  0  0  0  0  0  0  0  0
   42.6230   34.1700   37.2910 C   0  0  0  0  0  0  0  0  0  0  0  0
   42.8240   34.4120   38.6060 N   0  0  0  0  0  0  0  0  0  0  0  0
   41.8810   33.7720   39.3180 C   0  0  0  0  0  0  0  0  0  0  0  0
   41.5210   33.6090   40.6380 C   0  0  0  0  0  0  0  0  0  0  0  0
   40.2360   32.7780   42.0940 H   0  0  0  0  0  0  0  0  0  0  0  0
   39.3920   31.8570   38.0200 H   0  0  0  0  0  0  0  0  0  0  0  0
   41.2010   33.0480   36.2000 H   0  0  0  0  0  0  0  0  0  0  0  0
   43.2270   34.5540   36.4710 H   0  0  0  0  0  0  0  0  0  0  0  0
   44.1360   33.7240   42.7930 H   0  0  0  0  0  0  0  0  0  0  0  0
   43.3830   33.4000   42.0650 C   0  0  0  0  0  0  0  0  0  0  0  0
   43.2420   32.2500   41.5260 O   0  0  0  0  0  0  0  0  0  0  0  0
   42.3650   34.2940   41.5740 N   0  0  0  0  0  0  0  0  0  0  0  0
   42.3360   35.2960   41.9200 H   0  0  0  0  0  0  0  0  0  0  0  0
  1  7  1  0  0  0  0
  1  2  1  0  0  0  0
  2  8  1  0  0  0  0
  3  2  2  0  0  0  0
  3 10  1  0  0  0  0
  4  3  1  0  0  0  0
  5  6  1  0  0  0  0
  5  4  2  0  0  0  0
  6  1  2  0  0  0  0
  9 17  2  0  0  0  0
  9 10  1  0  0  0  0
 10 11  2  0  0  0  0
 11 12  1  0  0  0  0
 11 19  1  0  0  0  0
 12 13  1  0  0  0  0
 13 20  1  0  0  0  0
 14 13  1  0  0  0  0
 14 21  1  0  0  0  0
 15 14  2  0  0  0  0
 16 15  1  0  0  0  0
 16 12  2  0  0  0  0
 17 16  1  0  0  0  0
 18  9  1  0  0  0  0
 22 17  1  0  0  0  0
 23 32  1  0  0  0  0
 24  5  1  0  0  0  0
 24 23  2  0  0  0  0
 25 24  1  0  0  0  0
 26 25  2  0  0  0  0
 26 30  1  0  0  0  0
 27 28  1  0  0  0  0
 27 26  1  0  0  0  0
 28 29  2  0  0  0  0
 29 30  1  0  0  0  0
 30 31  2  0  0  0  0
 31 23  1  0  0  0  0
 31 39  1  0  0  0  0
 33 25  1  0  0  0  0
 34 27  1  0  0  0  0
 35 28  1  0  0  0  0
 37 36  1  0  0  0  0
 38 37  2  0  0  0  0
 39 40  1  0  0  0  0
 39 37  1  0  0  0  0
M  END
>  <minimizedAffinity>
-6.49204397

$$$$

 OpenBabel03242521373D

 40 44  0  0  0  0  0  0  0  0999 V2000
   37.2890   28.2690   43.7450 C   0  0  0  0  0  0  0  0  0  0  0  0
   37.1140   27.0280   43.1060 C   0  0  0  0  0  0  0  0  0  0  0  0
   37.4760   26.8700   41.7940 C   0  0  0  0  0  0  0  0  0  0  0  0
   38.0060   27.9400   41.1340 N   0  0  0  0  0  0  0  0  0  0  0  0
   38.1730   29.1340   41.7520 C   0  0  0  0  0  0  0  0  0  0  0  0
   37.8090   29.2750   43.0510 N   0  0  0  0  0  0  0  0  0  0  0  0
   37.0010   28.3930   44.7870 H   0  0  0  0  0  0  0  0  0  0  0  0
   36.6980   26.1830   43.6180 H   0  0  0  0  0  0  0  0  0  0  0  0
   36.6210   25.6840   39.8520 C   0  0  0  0  0  0  0  0  0  0  0  0
   37.3400   25.6370   41.0390 C   0  0  0  0  0  0  0  0  0  0  0  0
   37.8740   24.4320   41.4200 C   0  0  0  0  0  0  0  0  0  0  0  0
   37.7300   23.2690   40.6830 C   0  0  0  0  0  0  0  0  0  0  0  0
   38.1610   22.0110   40.8680 N   0  0  0  0  0  0  0  0  0  0  0  0
   37.7250   21.2520   39.8120 C   0  0  0  0  0  0  0  0  0  0  0  0
   37.0210   22.0810   38.9850 N   0  0  0  0  0  0  0  0  0  0  0  0
   37.0130   23.3160   39.4970 C   0  0  0  0  0  0  0  0  0  0  0  0
   36.4660   24.5170   39.0940 C   0  0  0  0  0  0  0  0  0  0  0  0
   36.1830   26.6150   39.5150 H   0  0  0  0  0  0  0  0  0  0  0  0
   38.4370   24.3780   42.3440 H   0  0  0  0  0  0  0  0  0  0  0  0
   38.7280   21.6310   41.6590 H   0  0  0  0  0  0  0  0  0  0  0  0
   37.8580   20.2140   39.5940 H   0  0  0  0  0  0  0  0  0  0  0  0
   35.8980   24.5980   38.1750 H   0  0  0  0  0  0  0  0  0  0  0  0
   39.4850   30.1000   39.9140 C   0  0  0  0  0  0  0  0  0  0  0  0
   38.7350   30.2710   41.0440 C   0  0  0  0  0  0  0  0  0  0  0  0
   38.5010   31.5490   41.5400 C   0  0  0  0  0  0  0  0  0  0  0  0
   39.0310   32.6400   40.8860 C   0  0  0  0  0  0  0  0  0  0  0  0
   38.8960   33.9280   41.2400 N   0  0  0  0  0  0  0  0  0  0  0  0
   39.6030   34.6110   40.2800 C   0  0  0  0  0  0  0  0  0  0  0  0
   40.1350   33.7460   39.3860 N   0  0  0  0  0  0  0  0  0  0  0  0
   39.7950   32.4930   39.7360 C   0  0  0  0  0  0  0  0  0  0  0  0
   39.9990   31.2080   39.2840 C   0  0  0  0  0  0  0  0  0  0  0  0
   39.6940   29.1280   39.4880 H   0  0  0  0  0  0  0  0  0  0  0  0
   37.9080   31.6410   42.4290 H   0  0  0  0  0  0  0  0  0  0  0  0
   38.4130   34.3940   42.0140 H   0  0  0  0  0  0  0  0  0  0  0  0
   39.7070   35.6950   40.2590 H   0  0  0  0  0  0  0  0  0  0  0  0
   42.9580   30.8100   37.6780 H   0  0  0  0  0  0  0  0  0  0  0  0
   42.1780   30.9090   38.4420 C   0  0  0  0  0  0  0  0  0  0  0  0
   42.2990   30.8680   39.7140 O   0  0  0  0  0  0  0  0  0  0  0  0
   40.7940   31.1150   38.0940 N   0  0  0  0  0  0  0  0  0  0  0  0
   40.5140   31.1740   37.0730 H   0  0  0  0  0  0  0  0  0  0  0  0
  1  7  1  0  0  0  0
  2  8  1  0  0  0  0
  2  1  1  0  0  0  0
  3  2  2  0  0  0  0
  4  5  2  0  0  0  0
  4  3  1  0  0  0  0
  5  6  1  0  0  0  0
  6  1  2  0  0  0  0
  9 10  1  0  0  0  0
 10 11  2  0  0  0  0
 10  3  1  0  0  0  0
 11 19  1  0  0  0  0
 12 13  1  0  0  0  0
 12 11  1  0  0  0  0
 13 20  1  0  0  0  0
 14 13  1  0  0  0  0
 15 16  1  0  0  0  0
 15 14  2  0  0  0  0
 16 12  2  0  0  0  0
 17 16  1  0  0  0  0
 17  9  2  0  0  0  0
 18  9  1  0  0  0  0
 21 14  1  0  0  0  0
 22 17  1  0  0  0  0
 23 24  1  0  0  0  0
 24 25  2  0  0  0  0
 24  5  1  0  0  0  0
 25 33  1  0  0  0  0
 26 27  1  0  0  0  0
 26 25  1  0  0  0  0
 27 34  1  0  0  0  0
 28 27  1  0  0  0  0
 29 30  1  0  0  0  0
 29 28  2  0  0  0  0
 30 26  2  0  0  0  0
 31 30  1  0  0  0  0
 31 23  2  0  0  0  0
 32 23  1  0  0  0  0
 35 28  1  0  0  0  0
 36 37  1  0  0  0  0
 37 38  2  0  0  0  0
 39 37  1  0  0  0  0
 39 31  1  0  0  0  0
 40 39  1  0  0  0  0
M  END
>  <minimizedAffinity>
-6.4557066

$$$$

 OpenBabel03242521373D

 40 44  0  0  0  0  0  0  0  0999 V2000
   39.1090   27.2140   43.5370 C   0  0  0  0  0  0  0  0  0  0  0  0
   38.3970   26.2890   42.7510 C   0  0  0  0  0  0  0  0  0  0  0  0
   37.8420   26.6790   41.5590 C   0  0  0  0  0  0  0  0  0  0  0  0
   37.9980   27.9750   41.1650 N   0  0  0  0  0  0  0  0  0  0  0  0
   38.6830   28.8630   41.9250 C   0  0  0  0  0  0  0  0  0  0  0  0
   39.2270   28.4630   43.1010 N   0  0  0  0  0  0  0  0  0  0  0  0
   39.5490   26.9030   44.4830 H   0  0  0  0  0  0  0  0  0  0  0  0
   38.2710   25.2690   43.0540 H   0  0  0  0  0  0  0  0  0  0  0  0
   36.8310   24.5160   41.1040 C   0  0  0  0  0  0  0  0  0  0  0  0
   37.0900   25.8090   40.6720 C   0  0  0  0  0  0  0  0  0  0  0  0
   36.6200   26.1820   39.4390 C   0  0  0  0  0  0  0  0  0  0  0  0
   35.9040   25.3340   38.6090 C   0  0  0  0  0  0  0  0  0  0  0  0
   35.3630   25.4910   37.3910 N   0  0  0  0  0  0  0  0  0  0  0  0
   34.7600   24.3110   37.0380 C   0  0  0  0  0  0  0  0  0  0  0  0
   34.9500   23.4380   38.0720 N   0  0  0  0  0  0  0  0  0  0  0  0
   35.6450   24.0430   39.0400 C   0  0  0  0  0  0  0  0  0  0  0  0
   36.1090   23.6460   40.2790 C   0  0  0  0  0  0  0  0  0  0  0  0
   37.1850   24.1820   42.0710 H   0  0  0  0  0  0  0  0  0  0  0  0
   36.8130   27.1880   39.0860 H   0  0  0  0  0  0  0  0  0  0  0  0
   35.3740   26.3400   36.7830 H   0  0  0  0  0  0  0  0  0  0  0  0
   34.2260   24.0340   36.1550 H   0  0  0  0  0  0  0  0  0  0  0  0
   35.9290   22.6450   40.6530 H   0  0  0  0  0  0  0  0  0  0  0  0
   40.0380   30.8930   41.6460 C   0  0  0  0  0  0  0  0  0  0  0  0
   38.8440   30.2430   41.5010 C   0  0  0  0  0  0  0  0  0  0  0  0
   37.7530   30.9030   40.9450 C   0  0  0  0  0  0  0  0  0  0  0  0
   37.8840   32.2150   40.5430 C   0  0  0  0  0  0  0  0  0  0  0  0
   36.9290   32.9820   39.9940 N   0  0  0  0  0  0  0  0  0  0  0  0
   37.5540   34.1870   39.7810 C   0  0  0  0  0  0  0  0  0  0  0  0
   38.8420   34.1250   40.1920 N   0  0  0  0  0  0  0  0  0  0  0  0
   39.0870   32.8970   40.6780 C   0  0  0  0  0  0  0  0  0  0  0  0
   40.1370   32.2000   41.2350 C   0  0  0  0  0  0  0  0  0  0  0  0
   40.9150   30.4240   42.0720 H   0  0  0  0  0  0  0  0  0  0  0  0
   36.8330   30.3590   40.8490 H   0  0  0  0  0  0  0  0  0  0  0  0
   35.9480   32.8130   39.7540 H   0  0  0  0  0  0  0  0  0  0  0  0
   37.0660   35.0550   39.3420 H   0  0  0  0  0  0  0  0  0  0  0  0
   43.1620   33.2090   40.0810 H   0  0  0  0  0  0  0  0  0  0  0  0
   42.1830   32.7270   40.1940 C   0  0  0  0  0  0  0  0  0  0  0  0
   41.5970   31.9210   39.3950 O   0  0  0  0  0  0  0  0  0  0  0  0
   41.3540   32.9520   41.3510 N   0  0  0  0  0  0  0  0  0  0  0  0
   41.6900   33.6000   42.1190 H   0  0  0  0  0  0  0  0  0  0  0  0
  1  7  1  0  0  0  0
  2  8  1  0  0  0  0
  2  1  2  0  0  0  0
  3  2  1  0  0  0  0
  4  3  2  0  0  0  0
  4  5  1  0  0  0  0
  5  6  2  0  0  0  0
  6  1  1  0  0  0  0
  9 18  1  0  0  0  0
 10  9  1  0  0  0  0
 10  3  1  0  0  0  0
 11 10  2  0  0  0  0
 12 16  2  0  0  0  0
 12 11  1  0  0  0  0
 13 12  1  0  0  0  0
 14 13  1  0  0  0  0
 14 15  2  0  0  0  0
 15 16  1  0  0  0  0
 16 17  1  0  0  0  0
 17 22  1  0  0  0  0
 17  9  2  0  0  0  0
 19 11  1  0  0  0  0
 20 13  1  0  0  0  0
 21 14  1  0  0  0  0
 23 32  1  0  0  0  0
 24 23  1  0  0  0  0
 24  5  1  0  0  0  0
 25 24  2  0  0  0  0
 26 30  2  0  0  0  0
 26 25  1  0  0  0  0
 27 26  1  0  0  0  0
 28 27  1  0  0  0  0
 28 29  2  0  0  0  0
 29 30  1  0  0  0  0
 30 31  1  0  0  0  0
 31 39  1  0  0  0  0
 31 23  2  0  0  0  0
 33 25  1  0  0  0  0
 34 27  1  0  0  0  0
 35 28  1  0  0  0  0
 36 37  1  0  0  0  0
 37 39  1  0  0  0  0
 38 37  2  0  0  0  0
 39 40  1  0  0  0  0
M  END
>  <minimizedAffinity>
-6.45024252

$$$$

 OpenBabel03242521373D

 40 44  0  0  0  0  0  0  0  0999 V2000
   37.5080   27.7060   44.0200 C   0  0  0  0  0  0  0  0  0  0  0  0
   37.7290   29.0000   43.5150 C   0  0  0  0  0  0  0  0  0  0  0  0
   37.7790   29.2150   42.1620 C   0  0  0  0  0  0  0  0  0  0  0  0
   37.6110   28.1470   41.3310 N   0  0  0  0  0  0  0  0  0  0  0  0
   37.3980   26.9020   41.8190 C   0  0  0  0  0  0  0  0  0  0  0  0
   37.3510   26.7050   43.1610 N   0  0  0  0  0  0  0  0  0  0  0  0
   37.4690   27.5370   45.0950 H   0  0  0  0  0  0  0  0  0  0  0  0
   37.8630   29.8440   44.1630 H   0  0  0  0  0  0  0  0  0  0  0  0
   36.9740   31.0320   40.7630 C   0  0  0  0  0  0  0  0  0  0  0  0
   38.0010   30.5060   41.5350 C   0  0  0  0  0  0  0  0  0  0  0  0
   39.1540   31.2380   41.6570 C   0  0  0  0  0  0  0  0  0  0  0  0
   39.3430   32.4680   41.0490 C   0  0  0  0  0  0  0  0  0  0  0  0
   40.3700   33.3320   41.0360 N   0  0  0  0  0  0  0  0  0  0  0  0
   40.0110   34.4070   40.2630 C   0  0  0  0  0  0  0  0  0  0  0  0
   38.7450   34.1710   39.8090 N   0  0  0  0  0  0  0  0  0  0  0  0
   38.3180   32.9940   40.2780 C   0  0  0  0  0  0  0  0  0  0  0  0
   37.1480   32.2740   40.1420 C   0  0  0  0  0  0  0  0  0  0  0  0
   36.0480   30.4870   40.6420 H   0  0  0  0  0  0  0  0  0  0  0  0
   39.9660   30.8410   42.2560 H   0  0  0  0  0  0  0  0  0  0  0  0
   41.2950   33.2460   41.5130 H   0  0  0  0  0  0  0  0  0  0  0  0
   40.5470   35.2960   40.0080 H   0  0  0  0  0  0  0  0  0  0  0  0
   36.3220   32.6490   39.5480 H   0  0  0  0  0  0  0  0  0  0  0  0
   36.5790   25.9040   39.7300 C   0  0  0  0  0  0  0  0  0  0  0  0
   37.2220   25.7680   40.9290 C   0  0  0  0  0  0  0  0  0  0  0  0
   37.7160   24.5280   41.3190 C   0  0  0  0  0  0  0  0  0  0  0  0
   37.5530   23.4390   40.4910 C   0  0  0  0  0  0  0  0  0  0  0  0
   37.9690   22.1850   40.7270 N   0  0  0  0  0  0  0  0  0  0  0  0
   37.5660   21.4870   39.6140 C   0  0  0  0  0  0  0  0  0  0  0  0
   36.9330   22.3110   38.7490 N   0  0  0  0  0  0  0  0  0  0  0  0
   36.9050   23.5510   39.2670 C   0  0  0  0  0  0  0  0  0  0  0  0
   36.4330   24.8000   38.9250 C   0  0  0  0  0  0  0  0  0  0  0  0
   36.1780   26.8460   39.3810 H   0  0  0  0  0  0  0  0  0  0  0  0
   38.2140   24.4630   42.2680 H   0  0  0  0  0  0  0  0  0  0  0  0
   38.4680   21.7490   41.5080 H   0  0  0  0  0  0  0  0  0  0  0  0
   37.7430   20.4230   39.4690 H   0  0  0  0  0  0  0  0  0  0  0  0
   36.4060   25.3700   35.5830 H   0  0  0  0  0  0  0  0  0  0  0  0
   36.7070   25.2620   36.6330 C   0  0  0  0  0  0  0  0  0  0  0  0
   37.8570   25.4540   37.1540 O   0  0  0  0  0  0  0  0  0  0  0  0
   35.7730   24.8570   37.6530 N   0  0  0  0  0  0  0  0  0  0  0  0
   34.7660   24.6560   37.3920 H   0  0  0  0  0  0  0  0  0  0  0  0
  1  7  1  0  0  0  0
  2  1  1  0  0  0  0
  2  8  1  0  0  0  0
  3  2  2  0  0  0  0
  4  5  2  0  0  0  0
  4  3  1  0  0  0  0
  5  6  1  0  0  0  0
  6  1  2  0  0  0  0
  9 10  1  0  0  0  0
 10 11  2  0  0  0  0
 10  3  1  0  0  0  0
 11 19  1  0  0  0  0
 12 11  1  0  0  0  0
 13 12  1  0  0  0  0
 13 20  1  0  0  0  0
 14 13  1  0  0  0  0
 15 14  2  0  0  0  0
 15 16  1  0  0  0  0
 16 12  2  0  0  0  0
 17 16  1  0  0  0  0
 17  9  2  0  0  0  0
 18  9  1  0  0  0  0
 21 14  1  0  0  0  0
 22 17  1  0  0  0  0
 23 24  1  0  0  0  0
 24 25  2  0  0  0  0
 24  5  1  0  0  0  0
 25 33  1  0  0  0  0
 26 27  1  0  0  0  0
 26 25  1  0  0  0  0
 27 34  1  0  0  0  0
 28 27  1  0  0  0  0
 29 30  1  0  0  0  0
 29 28  2  0  0  0  0
 30 26  2  0  0  0  0
 31 30  1  0  0  0  0
 31 23  2  0  0  0  0
 32 23  1  0  0  0  0
 35 28  1  0  0  0  0
 36 37  1  0  0  0  0
 37 38  2  0  0  0  0
 37 39  1  0  0  0  0
 39 31  1  0  0  0  0
 40 39  1  0  0  0  0
M  END
>  <minimizedAffinity>
-6.39606619

$$$$

 OpenBabel03242521373D

 40 44  0  0  0  0  0  0  0  0999 V2000
   35.7440   27.5430   36.0410 C   0  0  0  0  0  0  0  0  0  0  0  0
   34.5210   28.2250   35.9040 C   0  0  0  0  0  0  0  0  0  0  0  0
   33.8530   28.6740   37.0140 C   0  0  0  0  0  0  0  0  0  0  0  0
   34.4040   28.4410   38.2400 N   0  0  0  0  0  0  0  0  0  0  0  0
   35.5810   27.7840   38.3680 C   0  0  0  0  0  0  0  0  0  0  0  0
   36.2310   27.3460   37.2610 N   0  0  0  0  0  0  0  0  0  0  0  0
   36.2730   27.1880   35.1590 H   0  0  0  0  0  0  0  0  0  0  0  0
   34.0820   28.4120   34.9440 H   0  0  0  0  0  0  0  0  0  0  0  0
   32.1150   29.8170   35.7560 C   0  0  0  0  0  0  0  0  0  0  0  0
   32.5880   29.3870   36.9880 C   0  0  0  0  0  0  0  0  0  0  0  0
   31.8310   29.6610   38.0980 C   0  0  0  0  0  0  0  0  0  0  0  0
   30.6260   30.3430   38.0490 C   0  0  0  0  0  0  0  0  0  0  0  0
   29.7450   30.7090   38.9920 N   0  0  0  0  0  0  0  0  0  0  0  0
   28.7130   31.3700   38.3760 C   0  0  0  0  0  0  0  0  0  0  0  0
   28.9920   31.3950   37.0400 N   0  0  0  0  0  0  0  0  0  0  0  0
   30.1540   30.7720   36.8180 C   0  0  0  0  0  0  0  0  0  0  0  0
   30.9000   30.5080   35.6870 C   0  0  0  0  0  0  0  0  0  0  0  0
   32.6830   29.6220   34.8550 H   0  0  0  0  0  0  0  0  0  0  0  0
   32.1850   29.3320   39.0680 H   0  0  0  0  0  0  0  0  0  0  0  0
   29.7930   30.5440   40.0220 H   0  0  0  0  0  0  0  0  0  0  0  0
   27.8270   31.8140   38.7780 H   0  0  0  0  0  0  0  0  0  0  0  0
   30.5680   30.8260   34.7060 H   0  0  0  0  0  0  0  0  0  0  0  0
   36.6080   26.2930   40.0280 C   0  0  0  0  0  0  0  0  0  0  0  0
   36.1620   27.5370   39.6760 C   0  0  0  0  0  0  0  0  0  0  0  0
   36.2530   28.5920   40.5770 C   0  0  0  0  0  0  0  0  0  0  0  0
   36.7960   28.3760   41.8260 C   0  0  0  0  0  0  0  0  0  0  0  0
   36.9490   29.2870   42.7990 N   0  0  0  0  0  0  0  0  0  0  0  0
   37.5250   28.5800   43.8270 C   0  0  0  0  0  0  0  0  0  0  0  0
   37.7050   27.2890   43.4630 N   0  0  0  0  0  0  0  0  0  0  0  0
   37.2570   27.1230   42.2070 C   0  0  0  0  0  0  0  0  0  0  0  0
   37.1450   26.1100   41.2800 C   0  0  0  0  0  0  0  0  0  0  0  0
   36.5600   25.4410   39.3640 H   0  0  0  0  0  0  0  0  0  0  0  0
   35.8910   29.5520   40.2630 H   0  0  0  0  0  0  0  0  0  0  0  0
   36.7260   30.2840   42.8660 H   0  0  0  0  0  0  0  0  0  0  0  0
   37.7910   29.0150   44.7890 H   0  0  0  0  0  0  0  0  0  0  0  0
   39.5750   23.7610   41.5530 H   0  0  0  0  0  0  0  0  0  0  0  0
   39.0070   24.6680   41.3130 C   0  0  0  0  0  0  0  0  0  0  0  0
   39.3920   25.7000   40.6660 O   0  0  0  0  0  0  0  0  0  0  0  0
   37.6360   24.8380   41.7270 N   0  0  0  0  0  0  0  0  0  0  0  0
   37.1560   24.0710   42.2780 H   0  0  0  0  0  0  0  0  0  0  0  0
  1  6  1  0  0  0  0
  2  1  2  0  0  0  0
  2  3  1  0  0  0  0
  3  4  2  0  0  0  0
  4  5  1  0  0  0  0
  5 24  1  0  0  0  0
  6  5  2  0  0  0  0
  7  1  1  0  0  0  0
  8  2  1  0  0  0  0
  9 10  1  0  0  0  0
 10  3  1  0  0  0  0
 10 11  2  0  0  0  0
 11 19  1  0  0  0  0
 12 11  1  0  0  0  0
 12 13  1  0  0  0  0
 13 20  1  0  0  0  0
 14 21  1  0  0  0  0
 14 13  1  0  0  0  0
 15 14  2  0  0  0  0
 16 15  1  0  0  0  0
 16 12  2  0  0  0  0
 17  9  2  0  0  0  0
 17 16  1  0  0  0  0
 18  9  1  0  0  0  0
 22 17  1  0  0  0  0
 23 31  1  0  0  0  0
 24 23  2  0  0  0  0
 24 25  1  0  0  0  0
 25 26  2  0  0  0  0
 26 30  1  0  0  0  0
 26 27  1  0  0  0  0
 27 34  1  0  0  0  0
 27 28  1  0  0  0  0
 28 35  1  0  0  0  0
 29 28  2  0  0  0  0
 30 29  1  0  0  0  0
 31 39  1  0  0  0  0
 31 30  2  0  0  0  0
 32 23  1  0  0  0  0
 33 25  1  0  0  0  0
 37 36  1  0  0  0  0
 37 39  1  0  0  0  0
 38 37  2  0  0  0  0
 39 40  1  0  0  0  0
M  END
>  <minimizedAffinity>
-6.37195015

$$$$
