REMARK  Name = 
REMARK  3 active torsions:
REMARK  status: ('A' for Active; 'I' for Inactive)
REMARK    1  A    between atoms: C_2  and  N_10
REMARK    2  A    between atoms: C_3  and  C_7
REMARK    3  A    between atoms: C_9  and  N_22
REMARK                            x       y       z     vdW  Elec       q    Type
REMARK                         _______ _______ _______ _____ _____    ______ ____
ROOT
ATOM      1  C   UNL     1      46.541  34.962  41.934  0.00  0.00    +0.000 C 
ATOM      2  C   UNL     1      48.048  35.292  41.922  0.00  0.00    +0.000 C 
ATOM      3  C   UNL     1      47.397  33.963  41.411  0.00  0.00    +0.000 C 
ATOM      4  H   UNL     1      45.941  35.665  41.326  0.00  0.00    +0.000 HD
ATOM      5  H   UNL     1      48.403  35.971  41.150  0.00  0.00    +0.000 HD
ATOM      6  H   UNL     1      48.628  35.263  42.835  0.00  0.00    +0.000 HD
ATOM      7  H   UNL     1      47.712  33.089  42.053  0.00  0.00    +0.000 HD
ENDROOT
BRANCH   1  10
ATOM      8  C   UNL     1      44.621  35.460  45.133  0.00  0.00    +0.000 A 
ATOM      9  C   UNL     1      45.097  35.709  43.819  0.00  0.00    +0.000 A 
ATOM     10  C   UNL     1      46.045  34.833  43.353  0.00  0.00    +0.000 A 
ATOM     11  N   UNL     1      46.493  33.784  44.137  0.00  0.00    +0.000 NA
ATOM     12  C   UNL     1      46.009  33.591  45.379  0.00  0.00    +0.000 A 
ATOM     13  N   UNL     1      45.067  34.437  45.876  0.00  0.00    +0.000 NA
ATOM     14  H   UNL     1      43.873  36.155  45.494  0.00  0.00    +0.000 HD
ATOM     15  H   UNL     1      46.349  32.777  46.002  0.00  0.00    +0.000 HD
BRANCH   9  16
ATOM     16  N   UNL     1      44.665  36.810  43.024  0.00  0.00    +0.000 N 
ATOM     17  H   UNL     1      45.062  37.618  43.566  0.00  0.00    +0.000 HD
ATOM     18  H   UNL     1      44.111  36.779  42.155  0.00  0.00    +0.000 HD
ENDBRANCH   9  16
ENDBRANCH   1  10
BRANCH   3  22
ATOM     19  H   UNL     1      48.825  32.972  38.442  0.00  0.00    +0.000 HD
ATOM     20  C   UNL     1      48.828  33.103  39.512  0.00  0.00    +0.000 C 
ATOM     21  O   UNL     1      49.768  32.786  40.285  0.00  0.00    +0.000 OA
ATOM     22  N   UNL     1      47.611  33.697  40.008  0.00  0.00    +0.000 N 
ATOM     23  H   UNL     1      46.815  33.966  39.366  0.00  0.00    +0.000 HD
ENDBRANCH   3  22
TORSDOF 3
