
 OpenBabel03252509213D

 21 22  0  0  0  0  0  0  0  0999 V2000
   37.4050   29.4390   42.4160 C   0  0  0  0  0  0  0  0  0  0  0  0
   36.7570   30.2360   41.4190 C   0  0  0  0  0  0  0  0  0  0  0  0
   37.5530   31.2400   40.8780 C   0  0  0  0  0  0  0  0  0  0  0  0
   38.8640   31.4300   41.2910 N   0  0  0  0  0  0  0  0  0  0  0  0
   39.4090   30.6530   42.2240 C   0  0  0  0  0  0  0  0  0  0  0  0
   38.6850   29.6570   42.7900 N   0  0  0  0  0  0  0  0  0  0  0  0
   36.8420   28.6400   42.8790 H   0  0  0  0  0  0  0  0  0  0  0  0
   40.4190   30.9500   42.4080 H   0  0  0  0  0  0  0  0  0  0  0  0
   36.9460   32.0550   39.7560 C   0  0  0  0  0  0  0  0  0  0  0  0
   37.6160   33.4360   39.6790 C   0  0  0  0  0  0  0  0  0  0  0  0
   37.7900   32.3190   38.6140 C   0  0  0  0  0  0  0  0  0  0  0  0
   35.8580   32.2250   39.8750 H   0  0  0  0  0  0  0  0  0  0  0  0
   37.0150   34.2850   39.3150 H   0  0  0  0  0  0  0  0  0  0  0  0
   38.4590   33.6640   40.3240 H   0  0  0  0  0  0  0  0  0  0  0  0
   37.3440   32.5190   37.6160 H   0  0  0  0  0  0  0  0  0  0  0  0
   38.8220   31.8920   38.6210 H   0  0  0  0  0  0  0  0  0  0  0  0
   33.8380   29.1970   40.0600 H   0  0  0  0  0  0  0  0  0  0  0  0
   34.9260   29.0610   40.1150 C   0  0  0  0  0  0  0  0  0  0  0  0
   35.7090   28.2560   39.5430 O   0  0  0  0  0  0  0  0  0  0  0  0
   35.4330   30.0200   41.0230 N   0  0  0  0  0  0  0  0  0  0  0  0
   34.9430   30.7520   41.5780 H   0  0  0  0  0  0  0  0  0  0  0  0
  1  6  1  0  0  0  0
  1  7  1  0  0  0  0
  2  1  2  0  0  0  0
  3  4  2  0  0  0  0
  3  2  1  0  0  0  0
  4  5  1  0  0  0  0
  5  8  1  0  0  0  0
  5  6  2  0  0  0  0
  9 12  1  0  0  0  0
  9  3  1  0  0  0  0
 10  9  1  0  0  0  0
 10 14  1  0  0  0  0
 11 16  1  0  0  0  0
 11 10  1  0  0  0  0
 11  9  1  0  0  0  0
 13 10  1  0  0  0  0
 15 11  1  0  0  0  0
 17 18  1  0  0  0  0
 18 20  1  0  0  0  0
 19 18  2  0  0  0  0
 20  2  1  0  0  0  0
 20 21  1  0  0  0  0
M  END
>  <minimizedAffinity>
-4.04651976

$$$$

 OpenBabel03252509213D

 21 22  0  0  0  0  0  0  0  0999 V2000
   37.3960   31.4790   40.7060 C   0  0  0  0  0  0  0  0  0  0  0  0
   36.7690   30.3410   41.3080 C   0  0  0  0  0  0  0  0  0  0  0  0
   37.5850   29.6300   42.1820 C   0  0  0  0  0  0  0  0  0  0  0  0
   38.8950   30.0160   42.4310 N   0  0  0  0  0  0  0  0  0  0  0  0
   39.4190   31.0860   41.8390 C   0  0  0  0  0  0  0  0  0  0  0  0
   38.6750   31.8210   40.9760 N   0  0  0  0  0  0  0  0  0  0  0  0
   36.8180   32.0770   40.0160 H   0  0  0  0  0  0  0  0  0  0  0  0
   40.4310   31.2240   42.1530 H   0  0  0  0  0  0  0  0  0  0  0  0
   36.9440   28.4700   42.9130 C   0  0  0  0  0  0  0  0  0  0  0  0
   37.3710   27.1380   42.2740 C   0  0  0  0  0  0  0  0  0  0  0  0
   37.8240   27.6190   43.6800 C   0  0  0  0  0  0  0  0  0  0  0  0
   35.8370   28.4990   42.9010 H   0  0  0  0  0  0  0  0  0  0  0  0
   36.6650   26.2920   42.3180 H   0  0  0  0  0  0  0  0  0  0  0  0
   38.1030   27.1340   41.4730 H   0  0  0  0  0  0  0  0  0  0  0  0
   37.4370   27.0390   44.5460 H   0  0  0  0  0  0  0  0  0  0  0  0
   38.9100   27.8800   43.7020 H   0  0  0  0  0  0  0  0  0  0  0  0
   33.8560   29.1150   40.1040 H   0  0  0  0  0  0  0  0  0  0  0  0
   34.9450   29.1770   39.9850 C   0  0  0  0  0  0  0  0  0  0  0  0
   35.7340   28.6870   39.1330 O   0  0  0  0  0  0  0  0  0  0  0  0
   35.4460   29.9780   41.0380 N   0  0  0  0  0  0  0  0  0  0  0  0
   34.9510   30.4560   41.8180 H   0  0  0  0  0  0  0  0  0  0  0  0
  1  6  2  0  0  0  0
  1  2  1  0  0  0  0
  2  3  2  0  0  0  0
  3  4  1  0  0  0  0
  3  9  1  0  0  0  0
  5  8  1  0  0  0  0
  5  4  2  0  0  0  0
  6  5  1  0  0  0  0
  7  1  1  0  0  0  0
  9 11  1  0  0  0  0
 10 13  1  0  0  0  0
 10  9  1  0  0  0  0
 10 11  1  0  0  0  0
 11 16  1  0  0  0  0
 11 15  1  0  0  0  0
 12  9  1  0  0  0  0
 14 10  1  0  0  0  0
 18 17  1  0  0  0  0
 18 20  1  0  0  0  0
 19 18  2  0  0  0  0
 20  2  1  0  0  0  0
 20 21  1  0  0  0  0
M  END
>  <minimizedAffinity>
-4.00551271

$$$$

 OpenBabel03252509213D

 21 22  0  0  0  0  0  0  0  0999 V2000
   35.8910   28.1410   39.6180 C   0  0  0  0  0  0  0  0  0  0  0  0
   36.1760   28.6480   40.9270 C   0  0  0  0  0  0  0  0  0  0  0  0
   36.8420   27.7540   41.7570 C   0  0  0  0  0  0  0  0  0  0  0  0
   37.1890   26.4800   41.3270 N   0  0  0  0  0  0  0  0  0  0  0  0
   36.8950   26.0690   40.0960 C   0  0  0  0  0  0  0  0  0  0  0  0
   36.2470   26.8940   39.2390 N   0  0  0  0  0  0  0  0  0  0  0  0
   35.3740   28.7850   38.9210 H   0  0  0  0  0  0  0  0  0  0  0  0
   37.2390   25.0680   39.9490 H   0  0  0  0  0  0  0  0  0  0  0  0
   37.2470   28.2700   43.1220 C   0  0  0  0  0  0  0  0  0  0  0  0
   38.4150   27.4400   43.6800 C   0  0  0  0  0  0  0  0  0  0  0  0
   38.5350   28.9180   43.2160 C   0  0  0  0  0  0  0  0  0  0  0  0
   36.4300   28.2280   43.8680 H   0  0  0  0  0  0  0  0  0  0  0  0
   38.4950   27.3260   44.7730 H   0  0  0  0  0  0  0  0  0  0  0  0
   38.8730   26.6720   43.0650 H   0  0  0  0  0  0  0  0  0  0  0  0
   38.7330   29.6670   44.0130 H   0  0  0  0  0  0  0  0  0  0  0  0
   39.1380   29.0150   42.2810 H   0  0  0  0  0  0  0  0  0  0  0  0
   35.8690   31.9630   41.5260 H   0  0  0  0  0  0  0  0  0  0  0  0
   36.4400   31.1690   41.0290 C   0  0  0  0  0  0  0  0  0  0  0  0
   37.4680   31.1930   40.3000 O   0  0  0  0  0  0  0  0  0  0  0  0
   35.8150   29.9370   41.3320 N   0  0  0  0  0  0  0  0  0  0  0  0
   34.9720   29.7300   41.9070 H   0  0  0  0  0  0  0  0  0  0  0  0
  1  2  1  0  0  0  0
  2 20  1  0  0  0  0
  2  3  2  0  0  0  0
  3  9  1  0  0  0  0
  4  3  1  0  0  0  0
  5  4  2  0  0  0  0
  6  1  2  0  0  0  0
  6  5  1  0  0  0  0
  7  1  1  0  0  0  0
  8  5  1  0  0  0  0
  9 11  1  0  0  0  0
  9 10  1  0  0  0  0
  9 12  1  0  0  0  0
 10 13  1  0  0  0  0
 11 10  1  0  0  0  0
 11 15  1  0  0  0  0
 14 10  1  0  0  0  0
 16 11  1  0  0  0  0
 18 20  1  0  0  0  0
 18 17  1  0  0  0  0
 19 18  2  0  0  0  0
 20 21  1  0  0  0  0
M  END
>  <minimizedAffinity>
-3.87768602

$$$$

 OpenBabel03252509213D

 21 22  0  0  0  0  0  0  0  0999 V2000
   36.7540   27.7480   42.5280 C   0  0  0  0  0  0  0  0  0  0  0  0
   37.3240   29.0610   42.4750 C   0  0  0  0  0  0  0  0  0  0  0  0
   38.6850   29.1080   42.7560 C   0  0  0  0  0  0  0  0  0  0  0  0
   39.4050   27.9610   43.0610 N   0  0  0  0  0  0  0  0  0  0  0  0
   38.8150   26.7690   43.0940 C   0  0  0  0  0  0  0  0  0  0  0  0
   37.4910   26.6570   42.8290 N   0  0  0  0  0  0  0  0  0  0  0  0
   35.6990   27.6400   42.3200 H   0  0  0  0  0  0  0  0  0  0  0  0
   39.5260   26.0110   43.3450 H   0  0  0  0  0  0  0  0  0  0  0  0
   39.3570   30.4580   42.6260 C   0  0  0  0  0  0  0  0  0  0  0  0
   40.8850   30.2900   42.5830 C   0  0  0  0  0  0  0  0  0  0  0  0
   40.0200   30.7370   41.3730 C   0  0  0  0  0  0  0  0  0  0  0  0
   39.1260   31.1460   43.4620 H   0  0  0  0  0  0  0  0  0  0  0  0
   41.5070   31.1040   42.9880 H   0  0  0  0  0  0  0  0  0  0  0  0
   41.3180   29.2950   42.5630 H   0  0  0  0  0  0  0  0  0  0  0  0
   40.1600   31.7840   41.0290 H   0  0  0  0  0  0  0  0  0  0  0  0
   39.9780   29.9540   40.5770 H   0  0  0  0  0  0  0  0  0  0  0  0
   35.6230   31.6130   41.0490 H   0  0  0  0  0  0  0  0  0  0  0  0
   36.2150   30.7030   40.8920 C   0  0  0  0  0  0  0  0  0  0  0  0
   36.5860   30.1030   39.8470 O   0  0  0  0  0  0  0  0  0  0  0  0
   36.5730   30.1980   42.1630 N   0  0  0  0  0  0  0  0  0  0  0  0
   36.3590   30.5550   43.1180 H   0  0  0  0  0  0  0  0  0  0  0  0
  1  6  1  0  0  0  0
  2  1  2  0  0  0  0
  2  3  1  0  0  0  0
  3  4  2  0  0  0  0
  4  5  1  0  0  0  0
  5  8  1  0  0  0  0
  6  5  2  0  0  0  0
  7  1  1  0  0  0  0
  9  3  1  0  0  0  0
  9 12  1  0  0  0  0
 10  9  1  0  0  0  0
 10 13  1  0  0  0  0
 11 10  1  0  0  0  0
 11  9  1  0  0  0  0
 14 10  1  0  0  0  0
 15 11  1  0  0  0  0
 16 11  1  0  0  0  0
 18 17  1  0  0  0  0
 18 20  1  0  0  0  0
 19 18  2  0  0  0  0
 20  2  1  0  0  0  0
 20 21  1  0  0  0  0
M  END
>  <minimizedAffinity>
-3.64231753

$$$$

 OpenBabel03252509213D

 21 22  0  0  0  0  0  0  0  0999 V2000
   37.5850   32.0600   37.8220 C   0  0  0  0  0  0  0  0  0  0  0  0
   37.1270   31.9180   39.1710 C   0  0  0  0  0  0  0  0  0  0  0  0
   36.5540   30.6840   39.4570 C   0  0  0  0  0  0  0  0  0  0  0  0
   36.4470   29.6910   38.4930 N   0  0  0  0  0  0  0  0  0  0  0  0
   36.8920   29.8860   37.2550 C   0  0  0  0  0  0  0  0  0  0  0  0
   37.4610   31.0680   36.9140 N   0  0  0  0  0  0  0  0  0  0  0  0
   38.0410   32.9960   37.5310 H   0  0  0  0  0  0  0  0  0  0  0  0
   36.7240   29.0140   36.6600 H   0  0  0  0  0  0  0  0  0  0  0  0
   36.1340   30.4490   40.8920 C   0  0  0  0  0  0  0  0  0  0  0  0
   35.8550   28.9550   41.1270 C   0  0  0  0  0  0  0  0  0  0  0  0
   37.0620   29.7250   41.7310 C   0  0  0  0  0  0  0  0  0  0  0  0
   35.2190   31.0020   41.1790 H   0  0  0  0  0  0  0  0  0  0  0  0
   35.1010   28.6810   41.8820 H   0  0  0  0  0  0  0  0  0  0  0  0
   36.0490   28.2390   40.3350 H   0  0  0  0  0  0  0  0  0  0  0  0
   37.0530   29.8640   42.8340 H   0  0  0  0  0  0  0  0  0  0  0  0
   38.0310   29.4050   41.2770 H   0  0  0  0  0  0  0  0  0  0  0  0
   38.1130   34.2100   41.4550 H   0  0  0  0  0  0  0  0  0  0  0  0
   38.4130   33.3980   40.7810 C   0  0  0  0  0  0  0  0  0  0  0  0
   39.5300   32.8690   40.5350 O   0  0  0  0  0  0  0  0  0  0  0  0
   37.2500   32.9370   40.1210 N   0  0  0  0  0  0  0  0  0  0  0  0
   36.2600   33.2510   40.1970 H   0  0  0  0  0  0  0  0  0  0  0  0
  1  2  1  0  0  0  0
  2  3  2  0  0  0  0
  2 20  1  0  0  0  0
  3  9  1  0  0  0  0
  4  3  1  0  0  0  0
  5  4  2  0  0  0  0
  6  5  1  0  0  0  0
  6  1  2  0  0  0  0
  7  1  1  0  0  0  0
  8  5  1  0  0  0  0
  9 10  1  0  0  0  0
  9 12  1  0  0  0  0
  9 11  1  0  0  0  0
 10 11  1  0  0  0  0
 10 13  1  0  0  0  0
 11 15  1  0  0  0  0
 14 10  1  0  0  0  0
 16 11  1  0  0  0  0
 18 17  1  0  0  0  0
 19 18  2  0  0  0  0
 20 21  1  0  0  0  0
 20 18  1  0  0  0  0
M  END
>  <minimizedAffinity>
-3.63377213

$$$$

 OpenBabel03252509213D

 21 22  0  0  0  0  0  0  0  0999 V2000
   36.2270   29.8040   40.9890 C   0  0  0  0  0  0  0  0  0  0  0  0
   37.2290   29.7770   42.0130 C   0  0  0  0  0  0  0  0  0  0  0  0
   38.4360   30.3630   41.6500 C   0  0  0  0  0  0  0  0  0  0  0  0
   38.6270   30.9190   40.3930 N   0  0  0  0  0  0  0  0  0  0  0  0
   37.6550   30.9130   39.4850 C   0  0  0  0  0  0  0  0  0  0  0  0
   36.4540   30.3560   39.7770 N   0  0  0  0  0  0  0  0  0  0  0  0
   35.2630   29.3650   41.2040 H   0  0  0  0  0  0  0  0  0  0  0  0
   37.9860   31.3830   38.5850 H   0  0  0  0  0  0  0  0  0  0  0  0
   39.5000   30.4410   42.7250 C   0  0  0  0  0  0  0  0  0  0  0  0
   40.5710   29.3620   42.4930 C   0  0  0  0  0  0  0  0  0  0  0  0
   40.8110   30.8860   42.3120 C   0  0  0  0  0  0  0  0  0  0  0  0
   39.1030   30.2930   43.7480 H   0  0  0  0  0  0  0  0  0  0  0  0
   41.0900   28.9490   43.3730 H   0  0  0  0  0  0  0  0  0  0  0  0
   40.5280   28.7420   41.6040 H   0  0  0  0  0  0  0  0  0  0  0  0
   41.5000   31.3650   43.0400 H   0  0  0  0  0  0  0  0  0  0  0  0
   40.9510   31.1630   41.2390 H   0  0  0  0  0  0  0  0  0  0  0  0
   36.8530   27.7950   44.7280 H   0  0  0  0  0  0  0  0  0  0  0  0
   37.0990   27.8530   43.6600 C   0  0  0  0  0  0  0  0  0  0  0  0
   37.4200   26.9740   42.8150 O   0  0  0  0  0  0  0  0  0  0  0  0
   37.0060   29.2100   43.2710 N   0  0  0  0  0  0  0  0  0  0  0  0
   36.7600   30.0560   43.8240 H   0  0  0  0  0  0  0  0  0  0  0  0
  1  7  1  0  0  0  0
  1  2  1  0  0  0  0
  2 20  1  0  0  0  0
  3  2  2  0  0  0  0
  3  9  1  0  0  0  0
  4  3  1  0  0  0  0
  5  6  1  0  0  0  0
  5  4  2  0  0  0  0
  6  1  2  0  0  0  0
  8  5  1  0  0  0  0
  9 12  1  0  0  0  0
 10  9  1  0  0  0  0
 10 13  1  0  0  0  0
 11 10  1  0  0  0  0
 11  9  1  0  0  0  0
 11 15  1  0  0  0  0
 14 10  1  0  0  0  0
 16 11  1  0  0  0  0
 18 17  1  0  0  0  0
 19 18  2  0  0  0  0
 20 18  1  0  0  0  0
 20 21  1  0  0  0  0
M  END
>  <minimizedAffinity>
-3.631217

$$$$

 OpenBabel03252509213D

 21 22  0  0  0  0  0  0  0  0999 V2000
   35.6730   28.6350   40.5350 C   0  0  0  0  0  0  0  0  0  0  0  0
   36.4280   29.7600   40.9990 C   0  0  0  0  0  0  0  0  0  0  0  0
   36.7320   30.6940   40.0160 C   0  0  0  0  0  0  0  0  0  0  0  0
   36.3230   30.5240   38.7000 N   0  0  0  0  0  0  0  0  0  0  0  0
   35.6220   29.4550   38.3320 C   0  0  0  0  0  0  0  0  0  0  0  0
   35.2950   28.5080   39.2440 N   0  0  0  0  0  0  0  0  0  0  0  0
   35.4030   27.8700   41.2490 H   0  0  0  0  0  0  0  0  0  0  0  0
   35.4010   29.4990   37.2880 H   0  0  0  0  0  0  0  0  0  0  0  0
   37.4510   31.9460   40.4700 C   0  0  0  0  0  0  0  0  0  0  0  0
   38.6080   32.2730   39.5100 C   0  0  0  0  0  0  0  0  0  0  0  0
   37.3100   33.1170   39.6350 C   0  0  0  0  0  0  0  0  0  0  0  0
   37.8830   31.8610   41.4860 H   0  0  0  0  0  0  0  0  0  0  0  0
   39.4930   32.7860   39.9200 H   0  0  0  0  0  0  0  0  0  0  0  0
   38.7480   31.6790   38.6120 H   0  0  0  0  0  0  0  0  0  0  0  0
   37.4250   34.1350   40.0660 H   0  0  0  0  0  0  0  0  0  0  0  0
   36.6660   33.0320   38.7250 H   0  0  0  0  0  0  0  0  0  0  0  0
   37.8950   29.6440   44.0450 H   0  0  0  0  0  0  0  0  0  0  0  0
   37.9010   29.2830   43.0090 C   0  0  0  0  0  0  0  0  0  0  0  0
   38.6500   28.4760   42.3960 O   0  0  0  0  0  0  0  0  0  0  0  0
   36.8250   29.9040   42.3320 N   0  0  0  0  0  0  0  0  0  0  0  0
   36.1150   30.5860   42.6730 H   0  0  0  0  0  0  0  0  0  0  0  0
  1  2  1  0  0  0  0
  1  7  1  0  0  0  0
  2 20  1  0  0  0  0
  3  9  1  0  0  0  0
  3  2  2  0  0  0  0
  4  3  1  0  0  0  0
  5  4  2  0  0  0  0
  5  6  1  0  0  0  0
  6  1  2  0  0  0  0
  8  5  1  0  0  0  0
  9 12  1  0  0  0  0
 10 11  1  0  0  0  0
 10 13  1  0  0  0  0
 10  9  1  0  0  0  0
 11 15  1  0  0  0  0
 11  9  1  0  0  0  0
 14 10  1  0  0  0  0
 16 11  1  0  0  0  0
 18 17  1  0  0  0  0
 19 18  2  0  0  0  0
 20 21  1  0  0  0  0
 20 18  1  0  0  0  0
M  END
>  <minimizedAffinity>
-3.59022021

$$$$

 OpenBabel03252509213D

 21 22  0  0  0  0  0  0  0  0999 V2000
   35.6990   28.9560   40.7710 C   0  0  0  0  0  0  0  0  0  0  0  0
   36.4120   28.0240   41.5910 C   0  0  0  0  0  0  0  0  0  0  0  0
   36.8410   26.8810   40.9250 C   0  0  0  0  0  0  0  0  0  0  0  0
   36.5830   26.6870   39.5750 N   0  0  0  0  0  0  0  0  0  0  0  0
   35.9150   27.5930   38.8660 C   0  0  0  0  0  0  0  0  0  0  0  0
   35.4700   28.7280   39.4590 N   0  0  0  0  0  0  0  0  0  0  0  0
   35.3370   29.8670   41.2260 H   0  0  0  0  0  0  0  0  0  0  0  0
   35.8160   27.2710   37.8530 H   0  0  0  0  0  0  0  0  0  0  0  0
   37.6760   25.9050   41.7240 C   0  0  0  0  0  0  0  0  0  0  0  0
   36.8820   24.6140   41.9850 C   0  0  0  0  0  0  0  0  0  0  0  0
   38.1110   24.7090   41.0400 C   0  0  0  0  0  0  0  0  0  0  0  0
   37.9930   26.3000   42.7090 H   0  0  0  0  0  0  0  0  0  0  0  0
   37.0950   24.0520   42.9090 H   0  0  0  0  0  0  0  0  0  0  0  0
   35.9020   24.4840   41.5380 H   0  0  0  0  0  0  0  0  0  0  0  0
   39.0270   24.1710   41.3690 H   0  0  0  0  0  0  0  0  0  0  0  0
   37.8240   24.5900   39.9670 H   0  0  0  0  0  0  0  0  0  0  0  0
   37.5660   28.9310   44.6390 H   0  0  0  0  0  0  0  0  0  0  0  0
   37.7080   28.9770   43.5520 C   0  0  0  0  0  0  0  0  0  0  0  0
   38.5850   29.5310   42.8350 O   0  0  0  0  0  0  0  0  0  0  0  0
   36.6570   28.2480   42.9500 N   0  0  0  0  0  0  0  0  0  0  0  0
   35.8590   27.7340   43.3770 H   0  0  0  0  0  0  0  0  0  0  0  0
  1  7  1  0  0  0  0
  1  2  1  0  0  0  0
  2 20  1  0  0  0  0
  3  2  2  0  0  0  0
  3  9  1  0  0  0  0
  4  3  1  0  0  0  0
  5  6  1  0  0  0  0
  5  4  2  0  0  0  0
  6  1  2  0  0  0  0
  8  5  1  0  0  0  0
  9 10  1  0  0  0  0
  9 12  1  0  0  0  0
 10 13  1  0  0  0  0
 11 15  1  0  0  0  0
 11  9  1  0  0  0  0
 11 10  1  0  0  0  0
 14 10  1  0  0  0  0
 16 11  1  0  0  0  0
 18 17  1  0  0  0  0
 19 18  2  0  0  0  0
 20 21  1  0  0  0  0
 20 18  1  0  0  0  0
M  END
>  <minimizedAffinity>
-3.57341981

$$$$

 OpenBabel03252509213D

 21 22  0  0  0  0  0  0  0  0999 V2000
   37.1470   30.4290   39.5150 C   0  0  0  0  0  0  0  0  0  0  0  0
   37.8320   30.2280   40.7570 C   0  0  0  0  0  0  0  0  0  0  0  0
   37.1640   29.4040   41.6550 C   0  0  0  0  0  0  0  0  0  0  0  0
   35.9350   28.8360   41.3470 N   0  0  0  0  0  0  0  0  0  0  0  0
   35.3500   29.0620   40.1740 C   0  0  0  0  0  0  0  0  0  0  0  0
   35.9510   29.8570   39.2550 N   0  0  0  0  0  0  0  0  0  0  0  0
   37.6100   31.0610   38.7710 H   0  0  0  0  0  0  0  0  0  0  0  0
   34.4180   28.5440   40.1200 H   0  0  0  0  0  0  0  0  0  0  0  0
   37.8850   29.0860   42.9470 C   0  0  0  0  0  0  0  0  0  0  0  0
   37.1830   27.9300   43.6790 C   0  0  0  0  0  0  0  0  0  0  0  0
   38.5810   27.8220   43.0110 C   0  0  0  0  0  0  0  0  0  0  0  0
   37.9260   29.9420   43.6500 H   0  0  0  0  0  0  0  0  0  0  0  0
   37.2320   27.9070   44.7800 H   0  0  0  0  0  0  0  0  0  0  0  0
   36.3490   27.4210   43.2070 H   0  0  0  0  0  0  0  0  0  0  0  0
   39.4440   27.6850   43.6980 H   0  0  0  0  0  0  0  0  0  0  0  0
   38.5610   27.1720   42.1020 H   0  0  0  0  0  0  0  0  0  0  0  0
   40.4680   32.2540   41.3800 H   0  0  0  0  0  0  0  0  0  0  0  0
   39.3980   32.1850   41.1500 C   0  0  0  0  0  0  0  0  0  0  0  0
   38.5070   33.0620   40.9870 O   0  0  0  0  0  0  0  0  0  0  0  0
   39.0700   30.8130   41.0380 N   0  0  0  0  0  0  0  0  0  0  0  0
   39.6660   29.9660   41.1400 H   0  0  0  0  0  0  0  0  0  0  0  0
  1  2  1  0  0  0  0
  2 20  1  0  0  0  0
  2  3  2  0  0  0  0
  3  9  1  0  0  0  0
  4  3  1  0  0  0  0
  5  4  2  0  0  0  0
  6  1  2  0  0  0  0
  6  5  1  0  0  0  0
  7  1  1  0  0  0  0
  8  5  1  0  0  0  0
  9 11  1  0  0  0  0
  9 12  1  0  0  0  0
  9 10  1  0  0  0  0
 10 13  1  0  0  0  0
 11 10  1  0  0  0  0
 11 15  1  0  0  0  0
 14 10  1  0  0  0  0
 16 11  1  0  0  0  0
 18 17  1  0  0  0  0
 19 18  2  0  0  0  0
 20 21  1  0  0  0  0
 20 18  1  0  0  0  0
M  END
>  <minimizedAffinity>
-3.53706169

$$$$
