
 OpenBabel03252507093D

 20 20  0  0  0  0  0  0  0  0999 V2000
   38.4250   27.8220   43.3990 C   0  0  0  0  0  0  0  0  0  0  0  0
   38.5210   29.1410   42.9260 C   0  0  0  0  0  0  0  0  0  0  0  0
   38.1500   29.3610   41.5960 C   0  0  0  0  0  0  0  0  0  0  0  0
   37.7200   28.3130   40.8290 N   0  0  0  0  0  0  0  0  0  0  0  0
   37.6460   27.0580   41.3360 C   0  0  0  0  0  0  0  0  0  0  0  0
   37.9960   26.8250   42.6070 N   0  0  0  0  0  0  0  0  0  0  0  0
   38.6980   27.5880   44.4180 H   0  0  0  0  0  0  0  0  0  0  0  0
   38.8690   29.8960   43.6010 H   0  0  0  0  0  0  0  0  0  0  0  0
   36.4580   23.9190   40.4890 H   0  0  0  0  0  0  0  0  0  0  0  0
   36.8080   24.7540   41.0860 C   0  0  0  0  0  0  0  0  0  0  0  0
   36.8450   24.5440   42.3270 O   0  0  0  0  0  0  0  0  0  0  0  0
   37.1940   25.9920   40.5080 N   0  0  0  0  0  0  0  0  0  0  0  0
   37.1450   26.1170   39.4750 H   0  0  0  0  0  0  0  0  0  0  0  0
   38.2440   30.6710   41.1230 O   0  0  0  0  0  0  0  0  0  0  0  0
   36.7850   31.0060   38.9430 O   0  0  0  0  0  0  0  0  0  0  0  0
   36.8660   31.3950   40.4180 P   0  0  0  0  0  0  0  0  0  0  0  0
   35.5100   30.8850   41.2690 O   0  0  0  0  0  0  0  0  0  0  0  0
   35.2580   30.0000   40.9430 H   0  0  0  0  0  0  0  0  0  0  0  0
   37.0620   33.0690   40.5160 O   0  0  0  0  0  0  0  0  0  0  0  0
   36.3950   33.4840   41.1100 H   0  0  0  0  0  0  0  0  0  0  0  0
  1  7  1  0  0  0  0
  2  1  1  0  0  0  0
  2  8  1  0  0  0  0
  3  2  2  0  0  0  0
  4  5  2  0  0  0  0
  4  3  1  0  0  0  0
  5  6  1  0  0  0  0
  6  1  2  0  0  0  0
  9 10  1  0  0  0  0
 10 11  2  0  0  0  0
 12 10  1  0  0  0  0
 12  5  1  0  0  0  0
 13 12  1  0  0  0  0
 14  3  1  0  0  0  0
 15 16  2  0  0  0  0
 16 19  1  0  0  0  0
 16 14  1  0  0  0  0
 16 17  1  0  0  0  0
 18 17  1  0  0  0  0
 19 20  1  0  0  0  0
M  END
>  <minimizedAffinity>
-4.89818478

$$$$

 OpenBabel03252507093D

 20 20  0  0  0  0  0  0  0  0999 V2000
   35.7760   28.5410   39.7590 C   0  0  0  0  0  0  0  0  0  0  0  0
   36.0950   29.6750   38.9930 C   0  0  0  0  0  0  0  0  0  0  0  0
   36.7930   30.6980   39.6420 C   0  0  0  0  0  0  0  0  0  0  0  0
   37.1280   30.5590   40.9610 N   0  0  0  0  0  0  0  0  0  0  0  0
   36.7960   29.4430   41.6550 C   0  0  0  0  0  0  0  0  0  0  0  0
   36.1280   28.4510   41.0530 N   0  0  0  0  0  0  0  0  0  0  0  0
   35.2370   27.7180   39.3130 H   0  0  0  0  0  0  0  0  0  0  0  0
   35.7900   29.6920   37.9660 H   0  0  0  0  0  0  0  0  0  0  0  0
   37.3840   27.9510   44.7230 H   0  0  0  0  0  0  0  0  0  0  0  0
   37.1130   28.0750   43.6800 C   0  0  0  0  0  0  0  0  0  0  0  0
   36.7530   27.0190   43.0930 O   0  0  0  0  0  0  0  0  0  0  0  0
   37.1620   29.3340   43.0260 N   0  0  0  0  0  0  0  0  0  0  0  0
   37.4670   30.1780   43.5550 H   0  0  0  0  0  0  0  0  0  0  0  0
   37.1120   31.8250   38.8830 O   0  0  0  0  0  0  0  0  0  0  0  0
   39.3900   30.5910   38.3560 O   0  0  0  0  0  0  0  0  0  0  0  0
   38.6250   31.8850   38.0900 P   0  0  0  0  0  0  0  0  0  0  0  0
   38.3500   32.1180   36.4490 O   0  0  0  0  0  0  0  0  0  0  0  0
   38.1330   31.2540   36.0490 H   0  0  0  0  0  0  0  0  0  0  0  0
   39.4990   33.1660   38.7570 O   0  0  0  0  0  0  0  0  0  0  0  0
   39.6570   33.8850   38.1030 H   0  0  0  0  0  0  0  0  0  0  0  0
  1  6  1  0  0  0  0
  2  3  1  0  0  0  0
  2  1  2  0  0  0  0
  3  4  2  0  0  0  0
  4  5  1  0  0  0  0
  5 12  1  0  0  0  0
  6  5  2  0  0  0  0
  7  1  1  0  0  0  0
  8  2  1  0  0  0  0
 10  9  1  0  0  0  0
 11 10  2  0  0  0  0
 12 13  1  0  0  0  0
 12 10  1  0  0  0  0
 14  3  1  0  0  0  0
 16 15  2  0  0  0  0
 16 19  1  0  0  0  0
 16 14  1  0  0  0  0
 17 16  1  0  0  0  0
 18 17  1  0  0  0  0
 20 19  1  0  0  0  0
M  END
>  <minimizedAffinity>
-4.54323101

$$$$

 OpenBabel03252507093D

 20 20  0  0  0  0  0  0  0  0999 V2000
   36.0150   29.3950   39.8620 C   0  0  0  0  0  0  0  0  0  0  0  0
   36.6210   30.5170   39.2710 C   0  0  0  0  0  0  0  0  0  0  0  0
   37.5130   31.2430   40.0670 C   0  0  0  0  0  0  0  0  0  0  0  0
   37.7530   30.8440   41.3540 N   0  0  0  0  0  0  0  0  0  0  0  0
   37.1410   29.7530   41.8750 C   0  0  0  0  0  0  0  0  0  0  0  0
   36.2840   29.0430   41.1300 N   0  0  0  0  0  0  0  0  0  0  0  0
   35.3170   28.7940   39.2970 H   0  0  0  0  0  0  0  0  0  0  0  0
   36.3710   30.7500   38.2570 H   0  0  0  0  0  0  0  0  0  0  0  0
   37.2390   27.7470   44.6950 H   0  0  0  0  0  0  0  0  0  0  0  0
   37.0470   28.0770   43.6790 C   0  0  0  0  0  0  0  0  0  0  0  0
   36.4740   27.2300   42.9430 O   0  0  0  0  0  0  0  0  0  0  0  0
   37.4160   29.3670   43.2170 N   0  0  0  0  0  0  0  0  0  0  0  0
   37.8880   30.0320   43.8660 H   0  0  0  0  0  0  0  0  0  0  0  0
   38.1170   32.3570   39.4830 O   0  0  0  0  0  0  0  0  0  0  0  0
   40.2350   33.9310   39.3120 O   0  0  0  0  0  0  0  0  0  0  0  0
   39.4010   33.1270   40.3070 P   0  0  0  0  0  0  0  0  0  0  0  0
   38.7460   34.1080   41.5040 O   0  0  0  0  0  0  0  0  0  0  0  0
   38.4600   34.9450   41.0910 H   0  0  0  0  0  0  0  0  0  0  0  0
   40.3800   31.9200   40.9680 O   0  0  0  0  0  0  0  0  0  0  0  0
   40.3650   31.9310   41.9520 H   0  0  0  0  0  0  0  0  0  0  0  0
  1  6  1  0  0  0  0
  2  1  2  0  0  0  0
  2  3  1  0  0  0  0
  3  4  2  0  0  0  0
  4  5  1  0  0  0  0
  5 12  1  0  0  0  0
  6  5  2  0  0  0  0
  7  1  1  0  0  0  0
  8  2  1  0  0  0  0
 10  9  1  0  0  0  0
 11 10  2  0  0  0  0
 12 10  1  0  0  0  0
 12 13  1  0  0  0  0
 14  3  1  0  0  0  0
 14 16  1  0  0  0  0
 15 16  2  0  0  0  0
 16 19  1  0  0  0  0
 16 17  1  0  0  0  0
 18 17  1  0  0  0  0
 19 20  1  0  0  0  0
M  END
>  <minimizedAffinity>
-4.50409698

$$$$

 OpenBabel03252507093D

 20 20  0  0  0  0  0  0  0  0999 V2000
   39.7170   27.4740   40.0810 C   0  0  0  0  0  0  0  0  0  0  0  0
   39.5600   28.8680   40.1570 C   0  0  0  0  0  0  0  0  0  0  0  0
   38.4730   29.3400   40.9010 C   0  0  0  0  0  0  0  0  0  0  0  0
   37.6310   28.4500   41.5090 N   0  0  0  0  0  0  0  0  0  0  0  0
   37.8280   27.1130   41.4030 C   0  0  0  0  0  0  0  0  0  0  0  0
   38.8620   26.6400   40.6960 N   0  0  0  0  0  0  0  0  0  0  0  0
   40.5370   27.0500   39.5200 H   0  0  0  0  0  0  0  0  0  0  0  0
   40.2710   29.4850   39.6480 H   0  0  0  0  0  0  0  0  0  0  0  0
   36.6270   24.1400   42.7100 H   0  0  0  0  0  0  0  0  0  0  0  0
   37.2840   24.8530   42.2220 C   0  0  0  0  0  0  0  0  0  0  0  0
   38.3820   24.3810   41.8230 O   0  0  0  0  0  0  0  0  0  0  0  0
   36.9310   26.2170   42.0500 N   0  0  0  0  0  0  0  0  0  0  0  0
   36.0100   26.5600   42.3980 H   0  0  0  0  0  0  0  0  0  0  0  0
   38.3150   30.7240   40.9790 O   0  0  0  0  0  0  0  0  0  0  0  0
   36.6380   30.9910   38.9520 O   0  0  0  0  0  0  0  0  0  0  0  0
   36.8670   31.4230   40.3990 P   0  0  0  0  0  0  0  0  0  0  0  0
   35.6090   30.9340   41.4000 O   0  0  0  0  0  0  0  0  0  0  0  0
   35.3300   30.0390   41.1260 H   0  0  0  0  0  0  0  0  0  0  0  0
   37.0620   33.1000   40.4290 O   0  0  0  0  0  0  0  0  0  0  0  0
   36.4570   33.5300   41.0750 H   0  0  0  0  0  0  0  0  0  0  0  0
  1  2  2  0  0  0  0
  1  6  1  0  0  0  0
  2  3  1  0  0  0  0
  3 14  1  0  0  0  0
  3  4  2  0  0  0  0
  5  4  1  0  0  0  0
  5 12  1  0  0  0  0
  6  5  2  0  0  0  0
  7  1  1  0  0  0  0
  8  2  1  0  0  0  0
 10  9  1  0  0  0  0
 11 10  2  0  0  0  0
 12 10  1  0  0  0  0
 12 13  1  0  0  0  0
 15 16  2  0  0  0  0
 16 19  1  0  0  0  0
 16 14  1  0  0  0  0
 16 17  1  0  0  0  0
 18 17  1  0  0  0  0
 19 20  1  0  0  0  0
M  END
>  <minimizedAffinity>
-4.35889435

$$$$

 OpenBabel03252507093D

 20 20  0  0  0  0  0  0  0  0999 V2000
   40.0140   29.8160   42.4600 C   0  0  0  0  0  0  0  0  0  0  0  0
   40.3080   28.5240   42.9270 C   0  0  0  0  0  0  0  0  0  0  0  0
   39.2370   27.6290   43.0200 C   0  0  0  0  0  0  0  0  0  0  0  0
   37.9810   28.0370   42.6630 N   0  0  0  0  0  0  0  0  0  0  0  0
   37.7520   29.2970   42.2180 C   0  0  0  0  0  0  0  0  0  0  0  0
   38.7630   30.1690   42.1200 N   0  0  0  0  0  0  0  0  0  0  0  0
   40.8000   30.5520   42.3660 H   0  0  0  0  0  0  0  0  0  0  0  0
   41.3230   28.2980   43.1820 H   0  0  0  0  0  0  0  0  0  0  0  0
   35.2260   31.1950   40.8040 H   0  0  0  0  0  0  0  0  0  0  0  0
   36.2170   30.8670   41.1000 C   0  0  0  0  0  0  0  0  0  0  0  0
   37.1600   31.6120   40.7220 O   0  0  0  0  0  0  0  0  0  0  0  0
   36.4310   29.6840   41.8550 N   0  0  0  0  0  0  0  0  0  0  0  0
   35.6170   29.1010   42.1430 H   0  0  0  0  0  0  0  0  0  0  0  0
   39.5250   26.3450   43.4830 O   0  0  0  0  0  0  0  0  0  0  0  0
   39.8220   25.1730   41.1310 O   0  0  0  0  0  0  0  0  0  0  0  0
   39.1470   25.0060   42.4910 P   0  0  0  0  0  0  0  0  0  0  0  0
   39.6620   23.6100   43.2730 O   0  0  0  0  0  0  0  0  0  0  0  0
   40.6200   23.5060   43.1120 H   0  0  0  0  0  0  0  0  0  0  0  0
   37.4750   25.0000   42.2580 O   0  0  0  0  0  0  0  0  0  0  0  0
   37.0470   24.2160   42.6720 H   0  0  0  0  0  0  0  0  0  0  0  0
  1  2  1  0  0  0  0
  2  3  2  0  0  0  0
  2  8  1  0  0  0  0
  3 14  1  0  0  0  0
  4  3  1  0  0  0  0
  5  4  2  0  0  0  0
  6  5  1  0  0  0  0
  6  1  2  0  0  0  0
  7  1  1  0  0  0  0
  9 10  1  0  0  0  0
 10 12  1  0  0  0  0
 11 10  2  0  0  0  0
 12 13  1  0  0  0  0
 12  5  1  0  0  0  0
 15 16  2  0  0  0  0
 16 17  1  0  0  0  0
 16 14  1  0  0  0  0
 18 17  1  0  0  0  0
 19 16  1  0  0  0  0
 19 20  1  0  0  0  0
M  END
>  <minimizedAffinity>
-4.29937887

$$$$

 OpenBabel03252507093D

 20 20  0  0  0  0  0  0  0  0999 V2000
   36.6020   27.3260   40.7210 C   0  0  0  0  0  0  0  0  0  0  0  0
   36.1770   28.6170   40.3670 C   0  0  0  0  0  0  0  0  0  0  0  0
   36.6820   29.6770   41.1270 C   0  0  0  0  0  0  0  0  0  0  0  0
   37.5470   29.4210   42.1560 N   0  0  0  0  0  0  0  0  0  0  0  0
   37.9250   28.1550   42.4550 C   0  0  0  0  0  0  0  0  0  0  0  0
   37.4540   27.1260   41.7410 N   0  0  0  0  0  0  0  0  0  0  0  0
   36.2460   26.4660   40.1710 H   0  0  0  0  0  0  0  0  0  0  0  0
   35.4980   28.7170   39.5450 H   0  0  0  0  0  0  0  0  0  0  0  0
   40.1730   26.4640   44.4730 H   0  0  0  0  0  0  0  0  0  0  0  0
   39.4800   26.6750   43.6660 C   0  0  0  0  0  0  0  0  0  0  0  0
   39.2980   25.7260   42.8570 O   0  0  0  0  0  0  0  0  0  0  0  0
   38.8270   27.9290   43.5330 N   0  0  0  0  0  0  0  0  0  0  0  0
   39.0110   28.6830   44.2280 H   0  0  0  0  0  0  0  0  0  0  0  0
   36.2610   30.9610   40.7770 O   0  0  0  0  0  0  0  0  0  0  0  0
   37.0760   31.5660   38.3350 O   0  0  0  0  0  0  0  0  0  0  0  0
   37.2810   31.9280   39.8050 P   0  0  0  0  0  0  0  0  0  0  0  0
   36.9180   33.5410   40.1030 O   0  0  0  0  0  0  0  0  0  0  0  0
   36.1300   33.7790   39.5790 H   0  0  0  0  0  0  0  0  0  0  0  0
   38.8770   31.5680   40.2240 O   0  0  0  0  0  0  0  0  0  0  0  0
   39.3310   32.3350   40.6400 H   0  0  0  0  0  0  0  0  0  0  0  0
  1  6  1  0  0  0  0
  2  1  2  0  0  0  0
  2  3  1  0  0  0  0
  3  4  2  0  0  0  0
  4  5  1  0  0  0  0
  5 12  1  0  0  0  0
  6  5  2  0  0  0  0
  7  1  1  0  0  0  0
  8  2  1  0  0  0  0
 10  9  1  0  0  0  0
 11 10  2  0  0  0  0
 12 10  1  0  0  0  0
 12 13  1  0  0  0  0
 14  3  1  0  0  0  0
 15 16  2  0  0  0  0
 16 17  1  0  0  0  0
 16 19  1  0  0  0  0
 16 14  1  0  0  0  0
 18 17  1  0  0  0  0
 19 20  1  0  0  0  0
M  END
>  <minimizedAffinity>
-4.28930712

$$$$

 OpenBabel03252507093D

 20 20  0  0  0  0  0  0  0  0999 V2000
   36.1860   26.8970   38.5390 C   0  0  0  0  0  0  0  0  0  0  0  0
   36.4180   28.2650   38.3200 C   0  0  0  0  0  0  0  0  0  0  0  0
   36.8970   29.0050   39.4060 C   0  0  0  0  0  0  0  0  0  0  0  0
   37.1130   28.3840   40.6060 N   0  0  0  0  0  0  0  0  0  0  0  0
   36.8710   27.0600   40.7640 C   0  0  0  0  0  0  0  0  0  0  0  0
   36.4140   26.3330   39.7380 N   0  0  0  0  0  0  0  0  0  0  0  0
   35.8160   26.2730   37.7390 H   0  0  0  0  0  0  0  0  0  0  0  0
   36.2200   28.6600   37.3450 H   0  0  0  0  0  0  0  0  0  0  0  0
   37.3500   24.5330   43.0810 H   0  0  0  0  0  0  0  0  0  0  0  0
   37.1710   25.0350   42.1370 C   0  0  0  0  0  0  0  0  0  0  0  0
   37.0240   24.2710   41.1460 O   0  0  0  0  0  0  0  0  0  0  0  0
   37.1090   26.4490   42.0280 N   0  0  0  0  0  0  0  0  0  0  0  0
   37.2370   27.0390   42.8770 H   0  0  0  0  0  0  0  0  0  0  0  0
   37.1290   30.3640   39.1900 O   0  0  0  0  0  0  0  0  0  0  0  0
   38.2820   31.3860   41.3390 O   0  0  0  0  0  0  0  0  0  0  0  0
   37.0000   31.4420   40.5100 P   0  0  0  0  0  0  0  0  0  0  0  0
   36.7210   32.9850   39.9040 O   0  0  0  0  0  0  0  0  0  0  0  0
   37.5770   33.3650   39.6280 H   0  0  0  0  0  0  0  0  0  0  0  0
   35.7190   30.9180   41.4750 O   0  0  0  0  0  0  0  0  0  0  0  0
   34.9750   31.5620   41.4830 H   0  0  0  0  0  0  0  0  0  0  0  0
  1  6  1  0  0  0  0
  2  1  2  0  0  0  0
  2  3  1  0  0  0  0
  3  4  2  0  0  0  0
  4  5  1  0  0  0  0
  5 12  1  0  0  0  0
  6  5  2  0  0  0  0
  7  1  1  0  0  0  0
  8  2  1  0  0  0  0
 10  9  1  0  0  0  0
 11 10  2  0  0  0  0
 12 10  1  0  0  0  0
 12 13  1  0  0  0  0
 14  3  1  0  0  0  0
 14 16  1  0  0  0  0
 16 15  2  0  0  0  0
 16 19  1  0  0  0  0
 17 16  1  0  0  0  0
 18 17  1  0  0  0  0
 19 20  1  0  0  0  0
M  END
>  <minimizedAffinity>
-4.26870012

$$$$

 OpenBabel03252507093D

 20 20  0  0  0  0  0  0  0  0999 V2000
   38.2100   28.9930   43.3040 C   0  0  0  0  0  0  0  0  0  0  0  0
   37.9640   27.6150   43.4250 C   0  0  0  0  0  0  0  0  0  0  0  0
   37.0550   27.0560   42.5210 C   0  0  0  0  0  0  0  0  0  0  0  0
   36.4580   27.8510   41.5810 N   0  0  0  0  0  0  0  0  0  0  0  0
   36.7320   29.1770   41.5080 C   0  0  0  0  0  0  0  0  0  0  0  0
   37.5990   29.7320   42.3630 N   0  0  0  0  0  0  0  0  0  0  0  0
   38.9030   29.4820   43.9740 H   0  0  0  0  0  0  0  0  0  0  0  0
   38.4800   27.0750   44.1920 H   0  0  0  0  0  0  0  0  0  0  0  0
   36.1250   31.9040   39.4640 H   0  0  0  0  0  0  0  0  0  0  0  0
   36.5850   31.2680   40.2130 C   0  0  0  0  0  0  0  0  0  0  0  0
   37.5890   31.7640   40.7900 O   0  0  0  0  0  0  0  0  0  0  0  0
   36.0920   29.9720   40.5160 N   0  0  0  0  0  0  0  0  0  0  0  0
   35.2580   29.6060   40.0100 H   0  0  0  0  0  0  0  0  0  0  0  0
   36.8080   25.6870   42.6380 O   0  0  0  0  0  0  0  0  0  0  0  0
   36.1280   23.9160   40.7960 O   0  0  0  0  0  0  0  0  0  0  0  0
   37.3320   24.6450   41.3890 P   0  0  0  0  0  0  0  0  0  0  0  0
   38.1310   25.5670   40.2330 O   0  0  0  0  0  0  0  0  0  0  0  0
   37.4610   25.9820   39.6570 H   0  0  0  0  0  0  0  0  0  0  0  0
   38.3600   23.4970   42.0800 O   0  0  0  0  0  0  0  0  0  0  0  0
   39.2840   23.5850   41.7530 H   0  0  0  0  0  0  0  0  0  0  0  0
  1  2  1  0  0  0  0
  1  7  1  0  0  0  0
  2  8  1  0  0  0  0
  3 14  1  0  0  0  0
  3  2  2  0  0  0  0
  4  3  1  0  0  0  0
  5  4  2  0  0  0  0
  5  6  1  0  0  0  0
  6  1  2  0  0  0  0
  9 10  1  0  0  0  0
 10 12  1  0  0  0  0
 10 11  2  0  0  0  0
 12  5  1  0  0  0  0
 13 12  1  0  0  0  0
 15 16  2  0  0  0  0
 16 19  1  0  0  0  0
 16 14  1  0  0  0  0
 17 16  1  0  0  0  0
 18 17  1  0  0  0  0
 20 19  1  0  0  0  0
M  END
>  <minimizedAffinity>
-4.26607418

$$$$

 OpenBabel03252507093D

 20 20  0  0  0  0  0  0  0  0999 V2000
   35.4820   29.4670   39.0490 C   0  0  0  0  0  0  0  0  0  0  0  0
   36.1890   30.2140   40.0070 C   0  0  0  0  0  0  0  0  0  0  0  0
   37.2390   31.0090   39.5360 C   0  0  0  0  0  0  0  0  0  0  0  0
   37.5290   31.0270   38.1990 N   0  0  0  0  0  0  0  0  0  0  0  0
   36.8140   30.2860   37.3170 C   0  0  0  0  0  0  0  0  0  0  0  0
   35.8050   29.5190   37.7460 N   0  0  0  0  0  0  0  0  0  0  0  0
   34.6610   28.8340   39.3520 H   0  0  0  0  0  0  0  0  0  0  0  0
   35.8880   30.1350   41.0310 H   0  0  0  0  0  0  0  0  0  0  0  0
   36.4510   29.8460   33.9020 H   0  0  0  0  0  0  0  0  0  0  0  0
   36.2350   29.8290   34.9650 C   0  0  0  0  0  0  0  0  0  0  0  0
   35.1190   29.3330   35.2760 O   0  0  0  0  0  0  0  0  0  0  0  0
   37.1450   30.3310   35.9330 N   0  0  0  0  0  0  0  0  0  0  0  0
   38.0560   30.7320   35.6260 H   0  0  0  0  0  0  0  0  0  0  0  0
   37.9430   31.7520   40.4850 O   0  0  0  0  0  0  0  0  0  0  0  0
   39.6750   33.3580   39.2960 O   0  0  0  0  0  0  0  0  0  0  0  0
   38.3840   33.3600   40.1110 P   0  0  0  0  0  0  0  0  0  0  0  0
   37.1170   34.0710   39.2660 O   0  0  0  0  0  0  0  0  0  0  0  0
   37.1810   33.7970   38.3310 H   0  0  0  0  0  0  0  0  0  0  0  0
   38.6770   34.1600   41.5690 O   0  0  0  0  0  0  0  0  0  0  0  0
   38.0230   34.8760   41.7350 H   0  0  0  0  0  0  0  0  0  0  0  0
  1  7  1  0  0  0  0
  1  2  1  0  0  0  0
  2  8  1  0  0  0  0
  3  2  2  0  0  0  0
  3 14  1  0  0  0  0
  4  3  1  0  0  0  0
  5  6  1  0  0  0  0
  5  4  2  0  0  0  0
  6  1  2  0  0  0  0
  9 10  1  0  0  0  0
 10 11  2  0  0  0  0
 10 12  1  0  0  0  0
 12  5  1  0  0  0  0
 13 12  1  0  0  0  0
 15 16  2  0  0  0  0
 16 14  1  0  0  0  0
 16 19  1  0  0  0  0
 17 16  1  0  0  0  0
 18 17  1  0  0  0  0
 19 20  1  0  0  0  0
M  END
>  <minimizedAffinity>
-4.20832586

$$$$
