
 OpenBabel03252507393D

 15 15  0  0  0  0  0  0  0  0999 V2000
   46.3250   34.1390   43.9330 C   0  0  0  0  0  0  0  0  0  0  0  0
   45.6900   34.1020   45.1810 C   0  0  0  0  0  0  0  0  0  0  0  0
   44.7500   35.0950   45.4490 C   0  0  0  0  0  0  0  0  0  0  0  0
   44.4980   36.0380   44.4990 N   0  0  0  0  0  0  0  0  0  0  0  0
   45.1420   36.0240   43.3130 C   0  0  0  0  0  0  0  0  0  0  0  0
   46.0620   35.0810   43.0070 N   0  0  0  0  0  0  0  0  0  0  0  0
   44.2470   35.0840   46.4070 H   0  0  0  0  0  0  0  0  0  0  0  0
   44.9480   36.7700   42.5510 H   0  0  0  0  0  0  0  0  0  0  0  0
   49.3190   32.8960   42.7170 H   0  0  0  0  0  0  0  0  0  0  0  0
   48.5090   33.5710   43.0060 C   0  0  0  0  0  0  0  0  0  0  0  0
   48.7990   34.7800   42.7270 O   0  0  0  0  0  0  0  0  0  0  0  0
   47.2940   33.1470   43.6110 N   0  0  0  0  0  0  0  0  0  0  0  0
   47.1460   32.1320   43.8010 H   0  0  0  0  0  0  0  0  0  0  0  0
   46.0640   32.8370   46.3870 S   0  0  0  0  0  0  0  0  0  0  0  0
   46.6970   33.3230   47.5240 H   0  0  0  0  0  0  0  0  0  0  0  0
  1  2  1  0  0  0  0
  2  3  2  0  0  0  0
  2 14  1  0  0  0  0
  3  7  1  0  0  0  0
  4  3  1  0  0  0  0
  5  4  2  0  0  0  0
  6  5  1  0  0  0  0
  6  1  2  0  0  0  0
  8  5  1  0  0  0  0
  9 10  1  0  0  0  0
 10 12  1  0  0  0  0
 11 10  2  0  0  0  0
 12 13  1  0  0  0  0
 12  1  1  0  0  0  0
 14 15  1  0  0  0  0
M  END
>  <minimizedAffinity>
-3.64681625

>  <minimizedRMSD>
4.26097441

$$$$
