
 OpenBabel03252507583D

 23 24  0  0  1  0  0  0  0  0999 V2000
   37.4380   28.1200   43.2940 C   0  0  1  0  0  0  0  0  0  0  0  0
   38.2770   29.3580   43.2760 C   0  0  0  0  0  0  0  0  0  0  0  0
   37.4150   29.0330   42.1050 C   0  0  2  0  0  0  0  0  0  0  0  0
   36.5920   28.1510   43.9820 H   0  0  0  0  0  0  0  0  0  0  0  0
   39.3550   29.1430   43.2430 H   0  0  0  0  0  0  0  0  0  0  0  0
   38.0170   30.1740   43.9520 H   0  0  0  0  0  0  0  0  0  0  0  0
   38.0100   28.7400   41.1910 H   0  0  0  0  0  0  0  0  0  0  0  0
   38.0070   24.7210   42.0240 C   0  0  0  0  0  0  0  0  0  0  0  0
   39.2580   24.3560   42.5880 C   0  0  0  0  0  0  0  0  0  0  0  0
   39.8870   25.3140   43.4020 C   0  0  0  0  0  0  0  0  0  0  0  0
   39.2650   26.5110   43.5950 N   0  0  0  0  0  0  0  0  0  0  0  0
   38.0610   26.7880   43.0160 C   0  0  0  0  0  0  0  0  0  0  0  0
   37.4360   25.9130   42.2440 N   0  0  0  0  0  0  0  0  0  0  0  0
   39.7120   23.3920   42.4060 H   0  0  0  0  0  0  0  0  0  0  0  0
   40.8430   25.0930   43.8600 H   0  0  0  0  0  0  0  0  0  0  0  0
   37.4130   23.6980   41.2140 C   0  0  0  0  0  0  0  0  0  0  0  0
   38.0150   22.6690   40.7800 O   0  0  0  0  0  0  0  0  0  0  0  0
   36.3630   23.8240   40.9560 H   0  0  0  0  0  0  0  0  0  0  0  0
   35.5020   31.5940   40.6390 H   0  0  0  0  0  0  0  0  0  0  0  0
   36.3060   30.9420   40.9260 C   0  0  0  0  0  0  0  0  0  0  0  0
   37.4350   31.2020   40.4140 O   0  0  0  0  0  0  0  0  0  0  0  0
   36.2510   29.8230   41.8090 N   0  0  0  0  0  0  0  0  0  0  0  0
   35.3230   29.6140   42.2250 H   0  0  0  0  0  0  0  0  0  0  0  0
  1  4  1  1  0  0  0
  2  1  1  0  0  0  0
  2  6  1  0  0  0  0
  3  7  1  6  0  0  0
  3  2  1  0  0  0  0
  3  1  1  0  0  0  0
  5  2  1  0  0  0  0
  8 13  2  0  0  0  0
  8  9  1  0  0  0  0
  9 10  2  0  0  0  0
 10 11  1  0  0  0  0
 10 15  1  0  0  0  0
 12  1  1  0  0  0  0
 12 11  2  0  0  0  0
 13 12  1  0  0  0  0
 14  9  1  0  0  0  0
 16  8  1  0  0  0  0
 17 16  2  0  0  0  0
 18 16  1  0  0  0  0
 19 20  1  0  0  0  0
 20 22  1  0  0  0  0
 21 20  2  0  0  0  0
 22  3  1  0  0  0  0
 22 23  1  0  0  0  0
M  END
>  <minimizedAffinity>
-4.31877184

$$$$

 OpenBabel03252507583D

 23 24  0  0  1  0  0  0  0  0999 V2000
   37.4570   28.2120   43.2590 C   0  0  1  0  0  0  0  0  0  0  0  0
   38.3770   29.3910   43.1990 C   0  0  0  0  0  0  0  0  0  0  0  0
   37.4180   29.1440   42.0860 C   0  0  2  0  0  0  0  0  0  0  0  0
   36.6630   28.2900   44.0040 H   0  0  0  0  0  0  0  0  0  0  0  0
   39.4320   29.1030   43.0890 H   0  0  0  0  0  0  0  0  0  0  0  0
   38.2200   30.2110   43.9000 H   0  0  0  0  0  0  0  0  0  0  0  0
   37.9280   28.8260   41.1290 H   0  0  0  0  0  0  0  0  0  0  0  0
   39.6770   25.3260   42.7890 C   0  0  0  0  0  0  0  0  0  0  0  0
   38.8230   24.3270   42.2520 C   0  0  0  0  0  0  0  0  0  0  0  0
   37.4750   24.6810   42.0690 C   0  0  0  0  0  0  0  0  0  0  0  0
   37.0820   25.9400   42.4130 N   0  0  0  0  0  0  0  0  0  0  0  0
   37.9660   26.8450   42.9240 C   0  0  0  0  0  0  0  0  0  0  0  0
   39.2420   26.5510   43.1110 N   0  0  0  0  0  0  0  0  0  0  0  0
   39.1810   23.3400   41.9940 H   0  0  0  0  0  0  0  0  0  0  0  0
   36.7750   23.9620   41.6630 H   0  0  0  0  0  0  0  0  0  0  0  0
   41.0400   24.9050   42.9400 C   0  0  0  0  0  0  0  0  0  0  0  0
   41.9520   25.5770   43.5110 O   0  0  0  0  0  0  0  0  0  0  0  0
   41.3010   23.9320   42.5280 H   0  0  0  0  0  0  0  0  0  0  0  0
   35.5200   31.7250   40.6340 H   0  0  0  0  0  0  0  0  0  0  0  0
   36.3000   31.0260   40.8710 C   0  0  0  0  0  0  0  0  0  0  0  0
   37.3480   31.1110   40.1650 O   0  0  0  0  0  0  0  0  0  0  0  0
   36.2940   30.0170   41.8800 N   0  0  0  0  0  0  0  0  0  0  0  0
   35.4320   29.9510   42.4550 H   0  0  0  0  0  0  0  0  0  0  0  0
  1  4  1  1  0  0  0
  2  1  1  0  0  0  0
  2  6  1  0  0  0  0
  3  7  1  6  0  0  0
  3  2  1  0  0  0  0
  3  1  1  0  0  0  0
  5  2  1  0  0  0  0
  8 16  1  0  0  0  0
  8 13  1  0  0  0  0
  9  8  2  0  0  0  0
 10  9  1  0  0  0  0
 10 11  2  0  0  0  0
 11 12  1  0  0  0  0
 12 13  2  0  0  0  0
 12  1  1  0  0  0  0
 14  9  1  0  0  0  0
 15 10  1  0  0  0  0
 16 17  2  0  0  0  0
 18 16  1  0  0  0  0
 19 20  1  0  0  0  0
 20 22  1  0  0  0  0
 21 20  2  0  0  0  0
 22  3  1  0  0  0  0
 22 23  1  0  0  0  0
M  END
>  <minimizedAffinity>
-4.18362284

$$$$

 OpenBabel03252507583D

 23 24  0  0  1  0  0  0  0  0999 V2000
   37.8040   28.7490   43.3420 C   0  0  1  0  0  0  0  0  0  0  0  0
   37.0490   27.4940   43.6500 C   0  0  0  0  0  0  0  0  0  0  0  0
   38.3780   27.4130   42.9800 C   0  0  2  0  0  0  0  0  0  0  0  0
   38.2100   29.2640   44.2140 H   0  0  0  0  0  0  0  0  0  0  0  0
   36.1280   27.3940   43.0590 H   0  0  0  0  0  0  0  0  0  0  0  0
   36.9310   27.2000   44.6940 H   0  0  0  0  0  0  0  0  0  0  0  0
   38.3060   27.0690   41.9060 H   0  0  0  0  0  0  0  0  0  0  0  0
   37.8190   31.3350   40.7340 C   0  0  0  0  0  0  0  0  0  0  0  0
   36.6350   31.0740   39.9950 C   0  0  0  0  0  0  0  0  0  0  0  0
   35.8510   29.9890   40.4210 C   0  0  0  0  0  0  0  0  0  0  0  0
   36.2700   29.2680   41.4980 N   0  0  0  0  0  0  0  0  0  0  0  0
   37.4240   29.5810   42.1570 C   0  0  0  0  0  0  0  0  0  0  0  0
   38.1890   30.5950   41.7880 N   0  0  0  0  0  0  0  0  0  0  0  0
   36.3430   31.6760   39.1450 H   0  0  0  0  0  0  0  0  0  0  0  0
   34.9360   29.7410   39.8960 H   0  0  0  0  0  0  0  0  0  0  0  0
   38.5670   32.4610   40.2570 C   0  0  0  0  0  0  0  0  0  0  0  0
   38.8020   33.5160   40.9210 O   0  0  0  0  0  0  0  0  0  0  0  0
   38.9590   32.3950   39.2430 H   0  0  0  0  0  0  0  0  0  0  0  0
   40.7410   25.0350   44.0450 H   0  0  0  0  0  0  0  0  0  0  0  0
   39.9100   25.5240   43.5700 C   0  0  0  0  0  0  0  0  0  0  0  0
   39.1960   24.7910   42.8230 O   0  0  0  0  0  0  0  0  0  0  0  0
   39.5210   26.8920   43.6790 N   0  0  0  0  0  0  0  0  0  0  0  0
   40.1100   27.4870   44.2930 H   0  0  0  0  0  0  0  0  0  0  0  0
  1  2  1  0  0  0  0
  1  4  1  1  0  0  0
  2  6  1  0  0  0  0
  3  7  1  6  0  0  0
  3  1  1  0  0  0  0
  3  2  1  0  0  0  0
  3 22  1  0  0  0  0
  5  2  1  0  0  0  0
  8 13  1  0  0  0  0
  9 10  1  0  0  0  0
  9  8  2  0  0  0  0
 10 11  2  0  0  0  0
 11 12  1  0  0  0  0
 12  1  1  0  0  0  0
 13 12  2  0  0  0  0
 14  9  1  0  0  0  0
 15 10  1  0  0  0  0
 16  8  1  0  0  0  0
 16 17  2  0  0  0  0
 18 16  1  0  0  0  0
 20 22  1  0  0  0  0
 20 19  1  0  0  0  0
 21 20  2  0  0  0  0
 22 23  1  0  0  0  0
M  END
>  <minimizedAffinity>
-4.13751459

$$$$

 OpenBabel03252507583D

 23 24  0  0  1  0  0  0  0  0999 V2000
   39.4850   30.8060   42.7030 C   0  0  1  0  0  0  0  0  0  0  0  0
   40.8660   30.6790   42.1400 C   0  0  0  0  0  0  0  0  0  0  0  0
   39.8440   31.4890   41.4180 C   0  0  2  0  0  0  0  0  0  0  0  0
   39.4140   31.4140   43.6060 H   0  0  0  0  0  0  0  0  0  0  0  0
   41.0970   29.6590   41.8030 H   0  0  0  0  0  0  0  0  0  0  0  0
   41.6900   31.1610   42.6680 H   0  0  0  0  0  0  0  0  0  0  0  0
   39.5160   31.0150   40.4470 H   0  0  0  0  0  0  0  0  0  0  0  0
   36.5960   28.8270   41.5970 C   0  0  0  0  0  0  0  0  0  0  0  0
   36.7280   27.6090   42.3140 C   0  0  0  0  0  0  0  0  0  0  0  0
   37.8360   27.4980   43.1720 C   0  0  0  0  0  0  0  0  0  0  0  0
   38.6970   28.5500   43.2590 N   0  0  0  0  0  0  0  0  0  0  0  0
   38.5020   29.6900   42.5360 C   0  0  0  0  0  0  0  0  0  0  0  0
   37.4720   29.8340   41.7170 N   0  0  0  0  0  0  0  0  0  0  0  0
   36.0170   26.8000   42.2120 H   0  0  0  0  0  0  0  0  0  0  0  0
   37.9890   26.5920   43.7460 H   0  0  0  0  0  0  0  0  0  0  0  0
   35.4410   28.8810   40.7490 C   0  0  0  0  0  0  0  0  0  0  0  0
   35.4040   28.4950   39.5410 O   0  0  0  0  0  0  0  0  0  0  0  0
   34.5300   29.2870   41.1860 H   0  0  0  0  0  0  0  0  0  0  0  0
   38.9210   34.7990   40.6670 H   0  0  0  0  0  0  0  0  0  0  0  0
   38.9380   33.7290   40.7660 C   0  0  0  0  0  0  0  0  0  0  0  0
   37.9300   33.1180   40.3010 O   0  0  0  0  0  0  0  0  0  0  0  0
   39.9550   32.9220   41.3550 N   0  0  0  0  0  0  0  0  0  0  0  0
   40.7780   33.4280   41.7350 H   0  0  0  0  0  0  0  0  0  0  0  0
  1  4  1  1  0  0  0
  2  6  1  0  0  0  0
  2  1  1  0  0  0  0
  3  7  1  6  0  0  0
  3  2  1  0  0  0  0
  3  1  1  0  0  0  0
  5  2  1  0  0  0  0
  8 13  2  0  0  0  0
  8  9  1  0  0  0  0
  9 10  2  0  0  0  0
 10 11  1  0  0  0  0
 10 15  1  0  0  0  0
 12  1  1  0  0  0  0
 12 11  2  0  0  0  0
 13 12  1  0  0  0  0
 14  9  1  0  0  0  0
 16 18  1  0  0  0  0
 16  8  1  0  0  0  0
 17 16  2  0  0  0  0
 19 20  1  0  0  0  0
 20 22  1  0  0  0  0
 21 20  2  0  0  0  0
 22  3  1  0  0  0  0
 22 23  1  0  0  0  0
M  END
>  <minimizedAffinity>
-3.97673225

$$$$

 OpenBabel03252507583D

 23 24  0  0  1  0  0  0  0  0999 V2000
   36.0500   30.2300   40.8040 C   0  0  1  0  0  0  0  0  0  0  0  0
   35.2360   29.0010   40.5450 C   0  0  0  0  0  0  0  0  0  0  0  0
   36.4980   28.9010   41.3330 C   0  0  2  0  0  0  0  0  0  0  0  0
   35.6000   30.9370   41.5030 H   0  0  0  0  0  0  0  0  0  0  0  0
   35.2250   28.7110   39.4850 H   0  0  0  0  0  0  0  0  0  0  0  0
   34.2640   28.9070   41.0320 H   0  0  0  0  0  0  0  0  0  0  0  0
   37.3160   28.3500   40.7820 H   0  0  0  0  0  0  0  0  0  0  0  0
   38.7220   32.0620   39.0750 C   0  0  0  0  0  0  0  0  0  0  0  0
   38.4950   31.7730   37.7040 C   0  0  0  0  0  0  0  0  0  0  0  0
   37.4080   30.9340   37.4060 C   0  0  0  0  0  0  0  0  0  0  0  0
   36.6550   30.4580   38.4370 N   0  0  0  0  0  0  0  0  0  0  0  0
   36.9380   30.7800   39.7320 C   0  0  0  0  0  0  0  0  0  0  0  0
   37.9520   31.5680   40.0540 N   0  0  0  0  0  0  0  0  0  0  0  0
   39.1220   32.1760   36.9190 H   0  0  0  0  0  0  0  0  0  0  0  0
   37.1850   30.6790   36.3780 H   0  0  0  0  0  0  0  0  0  0  0  0
   39.8380   32.9320   39.3100 C   0  0  0  0  0  0  0  0  0  0  0  0
   40.4240   33.0830   40.4250 O   0  0  0  0  0  0  0  0  0  0  0  0
   40.2010   33.5030   38.4580 H   0  0  0  0  0  0  0  0  0  0  0  0
   37.7230   28.4630   44.6000 H   0  0  0  0  0  0  0  0  0  0  0  0
   37.6400   28.6530   43.5470 C   0  0  0  0  0  0  0  0  0  0  0  0
   38.7210   28.9390   42.9520 O   0  0  0  0  0  0  0  0  0  0  0  0
   36.4610   28.6230   42.7430 N   0  0  0  0  0  0  0  0  0  0  0  0
   35.5780   28.3880   43.2360 H   0  0  0  0  0  0  0  0  0  0  0  0
  1  3  1  0  0  0  0
  1  4  1  1  0  0  0
  2  1  1  0  0  0  0
  2  6  1  0  0  0  0
  2  3  1  0  0  0  0
  3  7  1  6  0  0  0
  3 22  1  0  0  0  0
  5  2  1  0  0  0  0
  8 16  1  0  0  0  0
  8 13  1  0  0  0  0
  9  8  2  0  0  0  0
 10  9  1  0  0  0  0
 10 11  2  0  0  0  0
 11 12  1  0  0  0  0
 12 13  2  0  0  0  0
 12  1  1  0  0  0  0
 14  9  1  0  0  0  0
 15 10  1  0  0  0  0
 16 17  2  0  0  0  0
 18 16  1  0  0  0  0
 20 19  1  0  0  0  0
 21 20  2  0  0  0  0
 22 23  1  0  0  0  0
 22 20  1  0  0  0  0
M  END
>  <minimizedAffinity>
-3.91496181

$$$$

 OpenBabel03252507583D

 23 24  0  0  1  0  0  0  0  0999 V2000
   36.1340   29.8930   40.5230 C   0  0  1  0  0  0  0  0  0  0  0  0
   36.5560   31.3230   40.6520 C   0  0  0  0  0  0  0  0  0  0  0  0
   37.1260   30.4800   39.5640 C   0  0  2  0  0  0  0  0  0  0  0  0
   35.1090   29.7500   40.1780 H   0  0  0  0  0  0  0  0  0  0  0  0
   37.1410   31.5150   41.5630 H   0  0  0  0  0  0  0  0  0  0  0  0
   35.8270   32.1040   40.4310 H   0  0  0  0  0  0  0  0  0  0  0  0
   38.2210   30.2500   39.7150 H   0  0  0  0  0  0  0  0  0  0  0  0
   37.1700   26.6630   41.9290 C   0  0  0  0  0  0  0  0  0  0  0  0
   37.7770   27.0130   43.1640 C   0  0  0  0  0  0  0  0  0  0  0  0
   37.8190   28.3810   43.4820 C   0  0  0  0  0  0  0  0  0  0  0  0
   37.2830   29.2700   42.5990 N   0  0  0  0  0  0  0  0  0  0  0  0
   36.7160   28.8540   41.4290 C   0  0  0  0  0  0  0  0  0  0  0  0
   36.6560   27.5760   41.0930 N   0  0  0  0  0  0  0  0  0  0  0  0
   38.1900   26.2700   43.8340 H   0  0  0  0  0  0  0  0  0  0  0  0
   38.2700   28.7090   44.4100 H   0  0  0  0  0  0  0  0  0  0  0  0
   37.1480   25.2530   41.6700 C   0  0  0  0  0  0  0  0  0  0  0  0
   37.7470   24.3740   42.3620 O   0  0  0  0  0  0  0  0  0  0  0  0
   36.5720   24.9220   40.8080 H   0  0  0  0  0  0  0  0  0  0  0  0
   37.4760   31.6180   36.2540 H   0  0  0  0  0  0  0  0  0  0  0  0
   37.6440   31.3920   37.2910 C   0  0  0  0  0  0  0  0  0  0  0  0
   38.7540   31.7750   37.7650 O   0  0  0  0  0  0  0  0  0  0  0  0
   36.7680   30.7150   38.1910 N   0  0  0  0  0  0  0  0  0  0  0  0
   35.8600   30.4030   37.7970 H   0  0  0  0  0  0  0  0  0  0  0  0
  1  4  1  6  0  0  0
  1  2  1  0  0  0  0
  1 12  1  0  0  0  0
  2  5  1  0  0  0  0
  3  7  1  1  0  0  0
  3  1  1  0  0  0  0
  3  2  1  0  0  0  0
  6  2  1  0  0  0  0
  8  9  1  0  0  0  0
  9 10  2  0  0  0  0
  9 14  1  0  0  0  0
 10 15  1  0  0  0  0
 11 10  1  0  0  0  0
 12 11  2  0  0  0  0
 13 12  1  0  0  0  0
 13  8  2  0  0  0  0
 16  8  1  0  0  0  0
 16 17  2  0  0  0  0
 18 16  1  0  0  0  0
 19 20  1  0  0  0  0
 20 21  2  0  0  0  0
 20 22  1  0  0  0  0
 22  3  1  0  0  0  0
 23 22  1  0  0  0  0
M  END
>  <minimizedAffinity>
-3.88825822

$$$$

 OpenBabel03252507583D

 23 24  0  0  1  0  0  0  0  0999 V2000
   39.5650   30.7180   42.8860 C   0  0  1  0  0  0  0  0  0  0  0  0
   40.9630   30.8440   42.3670 C   0  0  0  0  0  0  0  0  0  0  0  0
   39.8180   31.2990   41.5280 C   0  0  2  0  0  0  0  0  0  0  0  0
   39.3170   31.4020   43.7000 H   0  0  0  0  0  0  0  0  0  0  0  0
   41.4350   29.8710   42.1720 H   0  0  0  0  0  0  0  0  0  0  0  0
   41.6320   31.5660   42.8390 H   0  0  0  0  0  0  0  0  0  0  0  0
   39.6500   30.6440   40.6230 H   0  0  0  0  0  0  0  0  0  0  0  0
   38.9040   27.1100   43.0610 C   0  0  0  0  0  0  0  0  0  0  0  0
   37.5260   27.0040   42.7390 C   0  0  0  0  0  0  0  0  0  0  0  0
   36.8460   28.2050   42.4700 C   0  0  0  0  0  0  0  0  0  0  0  0
   37.5430   29.3740   42.5360 N   0  0  0  0  0  0  0  0  0  0  0  0
   38.8700   29.3930   42.8540 C   0  0  0  0  0  0  0  0  0  0  0  0
   39.5460   28.2850   43.1120 N   0  0  0  0  0  0  0  0  0  0  0  0
   37.0150   26.0520   42.6990 H   0  0  0  0  0  0  0  0  0  0  0  0
   35.7930   28.1880   42.2190 H   0  0  0  0  0  0  0  0  0  0  0  0
   39.5410   25.8500   43.3120 C   0  0  0  0  0  0  0  0  0  0  0  0
   39.2860   24.7680   42.7010 O   0  0  0  0  0  0  0  0  0  0  0  0
   40.3010   25.8320   44.0910 H   0  0  0  0  0  0  0  0  0  0  0  0
   38.1680   34.1900   40.3920 H   0  0  0  0  0  0  0  0  0  0  0  0
   38.4260   33.1740   40.6260 C   0  0  0  0  0  0  0  0  0  0  0  0
   37.5790   32.2980   40.2820 O   0  0  0  0  0  0  0  0  0  0  0  0
   39.6030   32.6980   41.2770 N   0  0  0  0  0  0  0  0  0  0  0  0
   40.2940   33.4210   41.5570 H   0  0  0  0  0  0  0  0  0  0  0  0
  1  4  1  1  0  0  0
  2  6  1  0  0  0  0
  2  1  1  0  0  0  0
  3  7  1  6  0  0  0
  3  2  1  0  0  0  0
  3  1  1  0  0  0  0
  5  2  1  0  0  0  0
  8 13  1  0  0  0  0
  8 16  1  0  0  0  0
  9  8  2  0  0  0  0
 10 11  2  0  0  0  0
 10  9  1  0  0  0  0
 11 12  1  0  0  0  0
 12  1  1  0  0  0  0
 12 13  2  0  0  0  0
 14  9  1  0  0  0  0
 15 10  1  0  0  0  0
 16 18  1  0  0  0  0
 17 16  2  0  0  0  0
 19 20  1  0  0  0  0
 20 22  1  0  0  0  0
 21 20  2  0  0  0  0
 22  3  1  0  0  0  0
 22 23  1  0  0  0  0
M  END
>  <minimizedAffinity>
-3.87382841

$$$$

 OpenBabel03252507583D

 23 24  0  0  1  0  0  0  0  0999 V2000
   39.2990   25.6100   41.9080 C   0  0  1  0  0  0  0  0  0  0  0  0
   39.6990   24.8040   43.1030 C   0  0  0  0  0  0  0  0  0  0  0  0
   38.4970   24.4120   42.3160 C   0  0  2  0  0  0  0  0  0  0  0  0
   39.9660   25.5140   41.0490 H   0  0  0  0  0  0  0  0  0  0  0  0
   39.5830   25.3540   44.0480 H   0  0  0  0  0  0  0  0  0  0  0  0
   40.6170   24.2160   43.0530 H   0  0  0  0  0  0  0  0  0  0  0  0
   37.5310   24.5770   42.8780 H   0  0  0  0  0  0  0  0  0  0  0  0
   36.8850   28.3500   41.5200 C   0  0  0  0  0  0  0  0  0  0  0  0
   37.3280   29.3230   42.4530 C   0  0  0  0  0  0  0  0  0  0  0  0
   38.4670   29.0010   43.2100 C   0  0  0  0  0  0  0  0  0  0  0  0
   39.0630   27.7930   43.0030 N   0  0  0  0  0  0  0  0  0  0  0  0
   38.5750   26.9080   42.0860 C   0  0  0  0  0  0  0  0  0  0  0  0
   37.5060   27.1740   41.3530 N   0  0  0  0  0  0  0  0  0  0  0  0
   36.8210   30.2700   42.5820 H   0  0  0  0  0  0  0  0  0  0  0  0
   38.8520   29.7030   43.9380 H   0  0  0  0  0  0  0  0  0  0  0  0
   35.7270   28.7450   40.7720 C   0  0  0  0  0  0  0  0  0  0  0  0
   35.4450   29.9350   40.4370 O   0  0  0  0  0  0  0  0  0  0  0  0
   35.0420   27.9530   40.4740 H   0  0  0  0  0  0  0  0  0  0  0  0
   37.3660   22.0740   39.9430 H   0  0  0  0  0  0  0  0  0  0  0  0
   37.4590   22.9300   40.5860 C   0  0  0  0  0  0  0  0  0  0  0  0
   36.5250   23.7820   40.5040 O   0  0  0  0  0  0  0  0  0  0  0  0
   38.5030   23.2180   41.5140 N   0  0  0  0  0  0  0  0  0  0  0  0
   39.2650   22.5160   41.5780 H   0  0  0  0  0  0  0  0  0  0  0  0
  1  4  1  6  0  0  0
  1 12  1  0  0  0  0
  1  3  1  0  0  0  0
  1  2  1  0  0  0  0
  2  5  1  0  0  0  0
  3  7  1  1  0  0  0
  3  2  1  0  0  0  0
  6  2  1  0  0  0  0
  8  9  1  0  0  0  0
  9 14  1  0  0  0  0
  9 10  2  0  0  0  0
 10 15  1  0  0  0  0
 11 10  1  0  0  0  0
 12 11  2  0  0  0  0
 13  8  2  0  0  0  0
 13 12  1  0  0  0  0
 16  8  1  0  0  0  0
 17 16  2  0  0  0  0
 18 16  1  0  0  0  0
 19 20  1  0  0  0  0
 20 22  1  0  0  0  0
 21 20  2  0  0  0  0
 22 23  1  0  0  0  0
 22  3  1  0  0  0  0
M  END
>  <minimizedAffinity>
-3.83440042

$$$$

 OpenBabel03252507583D

 23 24  0  0  1  0  0  0  0  0999 V2000
   38.1780   28.2460   43.4520 C   0  0  1  0  0  0  0  0  0  0  0  0
   37.2810   27.1340   43.0050 C   0  0  0  0  0  0  0  0  0  0  0  0
   38.7570   27.0010   42.8490 C   0  0  2  0  0  0  0  0  0  0  0  0
   38.2450   28.3720   44.5340 H   0  0  0  0  0  0  0  0  0  0  0  0
   36.6580   27.4090   42.1420 H   0  0  0  0  0  0  0  0  0  0  0  0
   36.7450   26.5600   43.7630 H   0  0  0  0  0  0  0  0  0  0  0  0
   39.0870   27.0300   41.7690 H   0  0  0  0  0  0  0  0  0  0  0  0
   37.5870   30.8810   40.9630 C   0  0  0  0  0  0  0  0  0  0  0  0
   38.7520   31.6880   41.0460 C   0  0  0  0  0  0  0  0  0  0  0  0
   39.7270   31.2980   41.9800 C   0  0  0  0  0  0  0  0  0  0  0  0
   39.4950   30.1880   42.7340 N   0  0  0  0  0  0  0  0  0  0  0  0
   38.3470   29.4620   42.5970 C   0  0  0  0  0  0  0  0  0  0  0  0
   37.4060   29.7960   41.7290 N   0  0  0  0  0  0  0  0  0  0  0  0
   38.8920   32.5630   40.4240 H   0  0  0  0  0  0  0  0  0  0  0  0
   40.6370   31.8750   42.0880 H   0  0  0  0  0  0  0  0  0  0  0  0
   36.6380   31.3250   39.9850 C   0  0  0  0  0  0  0  0  0  0  0  0
   36.8880   31.5020   38.7530 O   0  0  0  0  0  0  0  0  0  0  0  0
   35.6280   31.5260   40.3370 H   0  0  0  0  0  0  0  0  0  0  0  0
   40.6280   24.1240   43.6180 H   0  0  0  0  0  0  0  0  0  0  0  0
   40.0610   24.8800   43.1080 C   0  0  0  0  0  0  0  0  0  0  0  0
   39.8720   24.6850   41.8700 O   0  0  0  0  0  0  0  0  0  0  0  0
   39.4990   26.0710   43.6560 N   0  0  0  0  0  0  0  0  0  0  0  0
   39.6570   26.2260   44.6710 H   0  0  0  0  0  0  0  0  0  0  0  0
  1  4  1  1  0  0  0
  2  1  1  0  0  0  0
  2  6  1  0  0  0  0
  3  7  1  6  0  0  0
  3  2  1  0  0  0  0
  3  1  1  0  0  0  0
  3 22  1  0  0  0  0
  5  2  1  0  0  0  0
  8  9  2  0  0  0  0
  8 13  1  0  0  0  0
  9 10  1  0  0  0  0
 10 15  1  0  0  0  0
 10 11  2  0  0  0  0
 12 11  1  0  0  0  0
 12  1  1  0  0  0  0
 13 12  2  0  0  0  0
 14  9  1  0  0  0  0
 16 18  1  0  0  0  0
 16  8  1  0  0  0  0
 17 16  2  0  0  0  0
 20 19  1  0  0  0  0
 20 22  1  0  0  0  0
 21 20  2  0  0  0  0
 22 23  1  0  0  0  0
M  END
>  <minimizedAffinity>
-3.82874393

$$$$
