
 OpenBabel03252504563D

 27 28  0  0  1  0  0  0  0  0999 V2000
   36.6930   28.6740   41.8010 N   0  0  0  0  0  0  0  0  0  0  0  0
   36.0170   28.3690   40.5800 C   0  0  0  0  0  0  0  0  0  0  0  0
   35.6450   29.7500   40.0950 C   0  0  0  0  0  0  0  0  0  0  0  0
   36.2020   30.7790   41.0440 C   0  0  0  0  0  0  0  0  0  0  0  0
   37.2310   29.9480   41.8520 C   0  0  2  0  0  0  0  0  0  0  0  0
   35.7350   27.5500   39.9880 H   0  0  0  0  0  0  0  0  0  0  0  0
   35.0970   30.0040   39.1760 H   0  0  0  0  0  0  0  0  0  0  0  0
   36.8080   31.4670   40.4270 H   0  0  0  0  0  0  0  0  0  0  0  0
   35.4580   31.2540   41.6680 H   0  0  0  0  0  0  0  0  0  0  0  0
   37.3020   30.4680   42.8090 H   0  0  0  0  0  0  0  0  0  0  0  0
   40.6490   30.3240   41.0600 H   0  0  0  0  0  0  0  0  0  0  0  0
   39.7980   30.3870   41.7210 C   0  0  0  0  0  0  0  0  0  0  0  0
   39.8490   30.8060   42.9250 O   0  0  0  0  0  0  0  0  0  0  0  0
   38.5350   29.9810   41.2240 N   0  0  0  0  0  0  0  0  0  0  0  0
   38.4780   29.6330   40.2290 H   0  0  0  0  0  0  0  0  0  0  0  0
   36.6550   27.7510   42.8000 C   0  0  0  0  0  0  0  0  0  0  0  0
   35.7800   27.0390   42.6250 H   0  0  0  0  0  0  0  0  0  0  0  0
   36.4250   28.0990   43.8440 H   0  0  0  0  0  0  0  0  0  0  0  0
   39.9490   26.1260   43.6790 C   0  0  0  0  0  0  0  0  0  0  0  0
   38.9510   27.1300   43.6420 C   0  0  0  0  0  0  0  0  0  0  0  0
   37.8020   26.8580   42.9090 C   0  0  0  0  0  0  0  0  0  0  0  0
   37.7080   25.6680   42.2780 N   0  0  0  0  0  0  0  0  0  0  0  0
   38.6960   24.7090   42.3310 C   0  0  0  0  0  0  0  0  0  0  0  0
   39.8040   24.9620   43.0360 N   0  0  0  0  0  0  0  0  0  0  0  0
   40.8050   26.4210   44.2720 H   0  0  0  0  0  0  0  0  0  0  0  0
   39.0270   28.0820   44.1450 H   0  0  0  0  0  0  0  0  0  0  0  0
   38.5890   23.7690   41.8160 H   0  0  0  0  0  0  0  0  0  0  0  0
  1  5  1  0  0  0  0
  1 16  1  0  0  0  0
  2  1  1  0  0  0  0
  3  2  2  0  0  0  0
  3  4  1  0  0  0  0
  4  9  1  0  0  0  0
  4  5  1  0  0  0  0
  5 10  1  1  0  0  0
  6  2  1  0  0  0  0
  7  3  1  0  0  0  0
  8  4  1  0  0  0  0
 11 12  1  0  0  0  0
 12 13  2  0  0  0  0
 14 12  1  0  0  0  0
 14  5  1  0  0  0  0
 15 14  1  0  0  0  0
 16 21  1  0  0  0  0
 16 18  1  0  0  0  0
 17 16  1  0  0  0  0
 19 25  1  0  0  0  0
 20 19  1  0  0  0  0
 20 26  1  0  0  0  0
 21 20  2  0  0  0  0
 22 23  2  0  0  0  0
 22 21  1  0  0  0  0
 23 24  1  0  0  0  0
 24 19  2  0  0  0  0
 27 23  1  0  0  0  0
M  END
>  <minimizedAffinity>
-4.22866201

$$$$

 OpenBabel03252504563D

 27 28  0  0  1  0  0  0  0  0999 V2000
   38.4830   28.2260   42.5710 N   0  0  0  0  0  0  0  0  0  0  0  0
   37.5990   28.6500   43.6070 C   0  0  0  0  0  0  0  0  0  0  0  0
   36.5770   27.5370   43.5990 C   0  0  0  0  0  0  0  0  0  0  0  0
   36.9880   26.4930   42.5930 C   0  0  0  0  0  0  0  0  0  0  0  0
   38.4690   26.8630   42.3300 C   0  0  2  0  0  0  0  0  0  0  0  0
   37.4670   29.4290   44.2990 H   0  0  0  0  0  0  0  0  0  0  0  0
   35.6910   27.4460   44.2430 H   0  0  0  0  0  0  0  0  0  0  0  0
   37.0230   25.5360   43.1450 H   0  0  0  0  0  0  0  0  0  0  0  0
   36.3860   26.4850   41.6940 H   0  0  0  0  0  0  0  0  0  0  0  0
   38.6630   26.4890   41.3230 H   0  0  0  0  0  0  0  0  0  0  0  0
   40.4910   24.5350   44.0450 H   0  0  0  0  0  0  0  0  0  0  0  0
   39.8310   24.8370   43.2460 C   0  0  0  0  0  0  0  0  0  0  0  0
   39.4510   24.0740   42.2960 O   0  0  0  0  0  0  0  0  0  0  0  0
   39.3500   26.1700   43.2450 N   0  0  0  0  0  0  0  0  0  0  0  0
   39.6560   26.8120   44.0250 H   0  0  0  0  0  0  0  0  0  0  0  0
   39.1570   29.1820   41.8740 C   0  0  0  0  0  0  0  0  0  0  0  0
   39.8720   28.6810   41.1390 H   0  0  0  0  0  0  0  0  0  0  0  0
   39.8720   29.8470   42.4290 H   0  0  0  0  0  0  0  0  0  0  0  0
   36.6850   30.6130   39.4030 C   0  0  0  0  0  0  0  0  0  0  0  0
   37.4070   29.6210   40.1100 C   0  0  0  0  0  0  0  0  0  0  0  0
   38.3580   30.0570   41.0260 C   0  0  0  0  0  0  0  0  0  0  0  0
   38.5360   31.3870   41.1830 N   0  0  0  0  0  0  0  0  0  0  0  0
   37.8190   32.3300   40.4810 C   0  0  0  0  0  0  0  0  0  0  0  0
   36.9010   31.9190   39.5980 N   0  0  0  0  0  0  0  0  0  0  0  0
   35.9680   30.1850   38.7140 H   0  0  0  0  0  0  0  0  0  0  0  0
   37.2650   28.5580   39.9820 H   0  0  0  0  0  0  0  0  0  0  0  0
   37.9870   33.3830   40.6300 H   0  0  0  0  0  0  0  0  0  0  0  0
  1  2  1  0  0  0  0
  2  6  1  0  0  0  0
  3  2  2  0  0  0  0
  3  7  1  0  0  0  0
  4  8  1  0  0  0  0
  4  3  1  0  0  0  0
  5 10  1  6  0  0  0
  5  1  1  0  0  0  0
  5  4  1  0  0  0  0
  5 14  1  0  0  0  0
  9  4  1  0  0  0  0
 12 11  1  0  0  0  0
 13 12  2  0  0  0  0
 14 12  1  0  0  0  0
 14 15  1  0  0  0  0
 16 18  1  0  0  0  0
 16  1  1  0  0  0  0
 17 16  1  0  0  0  0
 19 24  2  0  0  0  0
 19 20  1  0  0  0  0
 20 21  2  0  0  0  0
 21 22  1  0  0  0  0
 21 16  1  0  0  0  0
 23 27  1  0  0  0  0
 23 22  2  0  0  0  0
 24 23  1  0  0  0  0
 25 19  1  0  0  0  0
 26 20  1  0  0  0  0
M  END
>  <minimizedAffinity>
-4.09666109

$$$$

 OpenBabel03252504563D

 27 28  0  0  1  0  0  0  0  0999 V2000
   36.9560   27.6800   41.5930 N   0  0  0  0  0  0  0  0  0  0  0  0
   36.7660   27.1840   42.9190 C   0  0  0  0  0  0  0  0  0  0  0  0
   37.8110   27.9680   43.6800 C   0  0  0  0  0  0  0  0  0  0  0  0
   38.4930   28.9290   42.7420 C   0  0  0  0  0  0  0  0  0  0  0  0
   37.5270   28.9390   41.5310 C   0  0  2  0  0  0  0  0  0  0  0  0
   36.1750   26.5060   43.4580 H   0  0  0  0  0  0  0  0  0  0  0  0
   38.0320   27.9060   44.7550 H   0  0  0  0  0  0  0  0  0  0  0  0
   38.3890   29.9280   43.2020 H   0  0  0  0  0  0  0  0  0  0  0  0
   39.5020   28.6470   42.4770 H   0  0  0  0  0  0  0  0  0  0  0  0
   38.1620   29.2050   40.6840 H   0  0  0  0  0  0  0  0  0  0  0  0
   35.4360   31.7640   41.2130 H   0  0  0  0  0  0  0  0  0  0  0  0
   36.2560   31.1300   40.9110 C   0  0  0  0  0  0  0  0  0  0  0  0
   37.0110   31.3560   39.9070 O   0  0  0  0  0  0  0  0  0  0  0  0
   36.5190   29.9680   41.6770 N   0  0  0  0  0  0  0  0  0  0  0  0
   35.9020   29.7690   42.5110 H   0  0  0  0  0  0  0  0  0  0  0  0
   36.6620   26.8520   40.5540 C   0  0  0  0  0  0  0  0  0  0  0  0
   37.0300   27.3230   39.5810 H   0  0  0  0  0  0  0  0  0  0  0  0
   35.5830   26.6750   40.2960 H   0  0  0  0  0  0  0  0  0  0  0  0
   37.4090   23.1510   40.6400 C   0  0  0  0  0  0  0  0  0  0  0  0
   36.6340   24.3340   40.7100 C   0  0  0  0  0  0  0  0  0  0  0  0
   37.3030   25.5430   40.5590 C   0  0  0  0  0  0  0  0  0  0  0  0
   38.6390   25.5180   40.3600 N   0  0  0  0  0  0  0  0  0  0  0  0
   39.3680   24.3510   40.2980 C   0  0  0  0  0  0  0  0  0  0  0  0
   38.7310   23.1830   40.4410 N   0  0  0  0  0  0  0  0  0  0  0  0
   36.8080   22.2600   40.7670 H   0  0  0  0  0  0  0  0  0  0  0  0
   35.5660   24.3530   40.8710 H   0  0  0  0  0  0  0  0  0  0  0  0
   40.4330   24.3670   40.1380 H   0  0  0  0  0  0  0  0  0  0  0  0
  1  2  1  0  0  0  0
  2  6  1  0  0  0  0
  2  3  2  0  0  0  0
  3  7  1  0  0  0  0
  4  8  1  0  0  0  0
  4  3  1  0  0  0  0
  5 10  1  6  0  0  0
  5  1  1  0  0  0  0
  5 14  1  0  0  0  0
  5  4  1  0  0  0  0
  9  4  1  0  0  0  0
 12 11  1  0  0  0  0
 12 14  1  0  0  0  0
 13 12  2  0  0  0  0
 14 15  1  0  0  0  0
 16 21  1  0  0  0  0
 16  1  1  0  0  0  0
 17 16  1  0  0  0  0
 18 16  1  0  0  0  0
 19 20  1  0  0  0  0
 19 25  1  0  0  0  0
 20 26  1  0  0  0  0
 21 20  2  0  0  0  0
 22 21  1  0  0  0  0
 23 22  2  0  0  0  0
 23 24  1  0  0  0  0
 24 19  2  0  0  0  0
 27 23  1  0  0  0  0
M  END
>  <minimizedAffinity>
-4.09418631

$$$$

 OpenBabel03252504563D

 27 28  0  0  1  0  0  0  0  0999 V2000
   37.1360   30.8030   40.3470 N   0  0  0  0  0  0  0  0  0  0  0  0
   37.1170   30.0590   39.1280 C   0  0  0  0  0  0  0  0  0  0  0  0
   37.1970   31.1670   38.1040 C   0  0  0  0  0  0  0  0  0  0  0  0
   37.3350   32.4900   38.8120 C   0  0  0  0  0  0  0  0  0  0  0  0
   37.7270   32.0510   40.2440 C   0  0  2  0  0  0  0  0  0  0  0  0
   37.0670   29.0720   38.7770 H   0  0  0  0  0  0  0  0  0  0  0  0
   37.2060   31.0590   37.0100 H   0  0  0  0  0  0  0  0  0  0  0  0
   38.2420   32.9650   38.3960 H   0  0  0  0  0  0  0  0  0  0  0  0
   36.4420   33.1000   38.7850 H   0  0  0  0  0  0  0  0  0  0  0  0
   37.3800   32.8680   40.8790 H   0  0  0  0  0  0  0  0  0  0  0  0
   41.1820   32.6350   40.6590 H   0  0  0  0  0  0  0  0  0  0  0  0
   40.1520   32.9480   40.5830 C   0  0  0  0  0  0  0  0  0  0  0  0
   39.7580   34.1590   40.6600 O   0  0  0  0  0  0  0  0  0  0  0  0
   39.1640   31.9520   40.3830 N   0  0  0  0  0  0  0  0  0  0  0  0
   39.4760   30.9450   40.3170 H   0  0  0  0  0  0  0  0  0  0  0  0
   36.5040   30.2740   41.4290 C   0  0  0  0  0  0  0  0  0  0  0  0
   35.5110   29.8160   41.1000 H   0  0  0  0  0  0  0  0  0  0  0  0
   36.1470   30.9690   42.2360 H   0  0  0  0  0  0  0  0  0  0  0  0
   37.4160   26.9620   42.9990 C   0  0  0  0  0  0  0  0  0  0  0  0
   36.5990   27.9380   42.3770 C   0  0  0  0  0  0  0  0  0  0  0  0
   37.1770   29.1720   42.1050 C   0  0  0  0  0  0  0  0  0  0  0  0
   38.4680   29.3670   42.4490 N   0  0  0  0  0  0  0  0  0  0  0  0
   39.2400   28.3990   43.0530 C   0  0  0  0  0  0  0  0  0  0  0  0
   38.6920   27.2070   43.3170 N   0  0  0  0  0  0  0  0  0  0  0  0
   36.8870   26.0340   43.1720 H   0  0  0  0  0  0  0  0  0  0  0  0
   35.5660   27.7820   42.1050 H   0  0  0  0  0  0  0  0  0  0  0  0
   40.2680   28.5880   43.3140 H   0  0  0  0  0  0  0  0  0  0  0  0
  1 16  1  0  0  0  0
  2  1  1  0  0  0  0
  3  4  1  0  0  0  0
  3  2  2  0  0  0  0
  4  5  1  0  0  0  0
  5  1  1  0  0  0  0
  5 14  1  0  0  0  0
  5 10  1  1  0  0  0
  6  2  1  0  0  0  0
  7  3  1  0  0  0  0
  8  4  1  0  0  0  0
  9  4  1  0  0  0  0
 12 11  1  0  0  0  0
 12 13  2  0  0  0  0
 14 12  1  0  0  0  0
 15 14  1  0  0  0  0
 16 21  1  0  0  0  0
 16 18  1  0  0  0  0
 17 16  1  0  0  0  0
 19 25  1  0  0  0  0
 19 24  1  0  0  0  0
 20 19  2  0  0  0  0
 21 20  1  0  0  0  0
 21 22  2  0  0  0  0
 22 23  1  0  0  0  0
 23 27  1  0  0  0  0
 23 24  2  0  0  0  0
 26 20  1  0  0  0  0
M  END
>  <minimizedAffinity>
-4.08421373

$$$$

 OpenBabel03252504563D

 27 28  0  0  1  0  0  0  0  0999 V2000
   36.3530   29.8970   40.7510 N   0  0  0  0  0  0  0  0  0  0  0  0
   35.2990   29.3910   39.9330 C   0  0  0  0  0  0  0  0  0  0  0  0
   35.8420   28.0320   39.5570 C   0  0  0  0  0  0  0  0  0  0  0  0
   37.1600   27.8130   40.2530 C   0  0  0  0  0  0  0  0  0  0  0  0
   37.1410   28.9200   41.3360 C   0  0  2  0  0  0  0  0  0  0  0  0
   34.3570   29.6620   39.5580 H   0  0  0  0  0  0  0  0  0  0  0  0
   35.3580   27.2790   38.9190 H   0  0  0  0  0  0  0  0  0  0  0  0
   37.0560   26.8630   40.8090 H   0  0  0  0  0  0  0  0  0  0  0  0
   38.0200   27.8730   39.6000 H   0  0  0  0  0  0  0  0  0  0  0  0
   38.1960   29.1200   41.5320 H   0  0  0  0  0  0  0  0  0  0  0  0
   36.4480   27.5080   44.4950 H   0  0  0  0  0  0  0  0  0  0  0  0
   37.1030   27.7770   43.6800 C   0  0  0  0  0  0  0  0  0  0  0  0
   38.3560   27.5380   43.6500 O   0  0  0  0  0  0  0  0  0  0  0  0
   36.5380   28.4400   42.5610 N   0  0  0  0  0  0  0  0  0  0  0  0
   35.5020   28.6430   42.5720 H   0  0  0  0  0  0  0  0  0  0  0  0
   36.5390   31.2440   40.7940 C   0  0  0  0  0  0  0  0  0  0  0  0
   36.6360   31.5780   41.8810 H   0  0  0  0  0  0  0  0  0  0  0  0
   35.7040   31.9130   40.4510 H   0  0  0  0  0  0  0  0  0  0  0  0
   39.3380   32.1110   38.4110 C   0  0  0  0  0  0  0  0  0  0  0  0
   38.1510   31.4890   38.8680 C   0  0  0  0  0  0  0  0  0  0  0  0
   37.7550   31.7560   40.1730 C   0  0  0  0  0  0  0  0  0  0  0  0
   38.5200   32.5800   40.9210 N   0  0  0  0  0  0  0  0  0  0  0  0
   39.6720   33.1710   40.4510 C   0  0  0  0  0  0  0  0  0  0  0  0
   40.0590   32.9210   39.1940 N   0  0  0  0  0  0  0  0  0  0  0  0
   39.5690   31.8500   37.3860 H   0  0  0  0  0  0  0  0  0  0  0  0
   37.5410   30.8290   38.2700 H   0  0  0  0  0  0  0  0  0  0  0  0
   40.2590   33.8240   41.0740 H   0  0  0  0  0  0  0  0  0  0  0  0
  1 16  1  0  0  0  0
  1  5  1  0  0  0  0
  2  1  1  0  0  0  0
  3  2  2  0  0  0  0
  3  4  1  0  0  0  0
  4  8  1  0  0  0  0
  4  5  1  0  0  0  0
  5 10  1  1  0  0  0
  5 14  1  0  0  0  0
  6  2  1  0  0  0  0
  7  3  1  0  0  0  0
  9  4  1  0  0  0  0
 12 11  1  0  0  0  0
 13 12  2  0  0  0  0
 14 15  1  0  0  0  0
 14 12  1  0  0  0  0
 16 17  1  0  0  0  0
 18 16  1  0  0  0  0
 19 20  2  0  0  0  0
 19 24  1  0  0  0  0
 20 21  1  0  0  0  0
 21 16  1  0  0  0  0
 21 22  2  0  0  0  0
 23 22  1  0  0  0  0
 23 27  1  0  0  0  0
 24 23  2  0  0  0  0
 25 19  1  0  0  0  0
 26 20  1  0  0  0  0
M  END
>  <minimizedAffinity>
-4.03519726

$$$$

 OpenBabel03252504563D

 27 28  0  0  1  0  0  0  0  0999 V2000
   37.6050   30.2420   41.3450 N   0  0  0  0  0  0  0  0  0  0  0  0
   36.5110   31.0630   40.9360 C   0  0  0  0  0  0  0  0  0  0  0  0
   35.6430   30.0590   40.2130 C   0  0  0  0  0  0  0  0  0  0  0  0
   36.2680   28.6930   40.3190 C   0  0  0  0  0  0  0  0  0  0  0  0
   37.2990   28.8960   41.4560 C   0  0  2  0  0  0  0  0  0  0  0  0
   36.1730   32.0550   40.9860 H   0  0  0  0  0  0  0  0  0  0  0  0
   34.6790   30.2520   39.7190 H   0  0  0  0  0  0  0  0  0  0  0  0
   35.4900   28.0350   40.7480 H   0  0  0  0  0  0  0  0  0  0  0  0
   36.7140   28.3390   39.4000 H   0  0  0  0  0  0  0  0  0  0  0  0
   38.0680   28.1470   41.2580 H   0  0  0  0  0  0  0  0  0  0  0  0
   36.0540   27.4090   44.4040 H   0  0  0  0  0  0  0  0  0  0  0  0
   36.5210   27.3820   43.4320 C   0  0  0  0  0  0  0  0  0  0  0  0
   36.9160   26.3170   42.8500 O   0  0  0  0  0  0  0  0  0  0  0  0
   36.7130   28.6080   42.7480 N   0  0  0  0  0  0  0  0  0  0  0  0
   36.3910   29.4970   43.2180 H   0  0  0  0  0  0  0  0  0  0  0  0
   38.8270   30.8260   41.4820 C   0  0  0  0  0  0  0  0  0  0  0  0
   39.5980   30.0300   41.7570 H   0  0  0  0  0  0  0  0  0  0  0  0
   38.9820   31.5560   42.3210 H   0  0  0  0  0  0  0  0  0  0  0  0
   40.4950   33.1470   39.0130 C   0  0  0  0  0  0  0  0  0  0  0  0
   39.9450   32.7210   40.2460 C   0  0  0  0  0  0  0  0  0  0  0  0
   39.3920   31.4460   40.2900 C   0  0  0  0  0  0  0  0  0  0  0  0
   39.4090   30.6990   39.1650 N   0  0  0  0  0  0  0  0  0  0  0  0
   39.9500   31.1400   37.9770 C   0  0  0  0  0  0  0  0  0  0  0  0
   40.4860   32.3650   37.9270 N   0  0  0  0  0  0  0  0  0  0  0  0
   40.9030   34.1470   39.0700 H   0  0  0  0  0  0  0  0  0  0  0  0
   39.9300   33.3190   41.1440 H   0  0  0  0  0  0  0  0  0  0  0  0
   39.9470   30.5180   37.0980 H   0  0  0  0  0  0  0  0  0  0  0  0
  1  5  1  0  0  0  0
  1 16  1  0  0  0  0
  2  6  1  0  0  0  0
  2  1  1  0  0  0  0
  3  4  1  0  0  0  0
  3  2  2  0  0  0  0
  4  8  1  0  0  0  0
  4  5  1  0  0  0  0
  5 10  1  6  0  0  0
  5 14  1  0  0  0  0
  7  3  1  0  0  0  0
  9  4  1  0  0  0  0
 12 11  1  0  0  0  0
 13 12  2  0  0  0  0
 14 15  1  0  0  0  0
 14 12  1  0  0  0  0
 16 17  1  0  0  0  0
 16 18  1  0  0  0  0
 19 25  1  0  0  0  0
 19 20  1  0  0  0  0
 20 21  2  0  0  0  0
 20 26  1  0  0  0  0
 21 16  1  0  0  0  0
 22 21  1  0  0  0  0
 23 22  2  0  0  0  0
 24 23  1  0  0  0  0
 24 19  2  0  0  0  0
 27 23  1  0  0  0  0
M  END
>  <minimizedAffinity>
-3.99053526

$$$$

 OpenBabel03252504563D

 27 28  0  0  1  0  0  0  0  0999 V2000
   37.1120   28.6410   41.8760 N   0  0  0  0  0  0  0  0  0  0  0  0
   36.6730   27.7340   42.8870 C   0  0  0  0  0  0  0  0  0  0  0  0
   37.8990   26.8690   43.0620 C   0  0  0  0  0  0  0  0  0  0  0  0
   39.0050   27.3890   42.1810 C   0  0  0  0  0  0  0  0  0  0  0  0
   38.4860   28.8000   41.8110 C   0  0  2  0  0  0  0  0  0  0  0  0
   35.8340   27.5190   43.4790 H   0  0  0  0  0  0  0  0  0  0  0  0
   38.0170   26.0190   43.7490 H   0  0  0  0  0  0  0  0  0  0  0  0
   39.8690   27.5640   42.8470 H   0  0  0  0  0  0  0  0  0  0  0  0
   39.2070   26.7710   41.3160 H   0  0  0  0  0  0  0  0  0  0  0  0
   38.9610   29.0170   40.8520 H   0  0  0  0  0  0  0  0  0  0  0  0
   39.9730   31.5260   43.4870 H   0  0  0  0  0  0  0  0  0  0  0  0
   39.7710   30.9220   42.6160 C   0  0  0  0  0  0  0  0  0  0  0  0
   40.2360   31.1560   41.4510 O   0  0  0  0  0  0  0  0  0  0  0  0
   38.9350   29.7880   42.7690 N   0  0  0  0  0  0  0  0  0  0  0  0
   38.5440   29.5810   43.7270 H   0  0  0  0  0  0  0  0  0  0  0  0
   36.1780   29.1650   41.0370 C   0  0  0  0  0  0  0  0  0  0  0  0
   35.3520   29.6570   41.6510 H   0  0  0  0  0  0  0  0  0  0  0  0
   35.5690   28.4630   40.4060 H   0  0  0  0  0  0  0  0  0  0  0  0
   37.2040   31.2530   38.0610 C   0  0  0  0  0  0  0  0  0  0  0  0
   36.8180   30.0950   38.7800 C   0  0  0  0  0  0  0  0  0  0  0  0
   36.6220   30.2330   40.1500 C   0  0  0  0  0  0  0  0  0  0  0  0
   36.8130   31.4480   40.7070 N   0  0  0  0  0  0  0  0  0  0  0  0
   37.1890   32.5580   39.9830 C   0  0  0  0  0  0  0  0  0  0  0  0
   37.3780   32.4340   38.6640 N   0  0  0  0  0  0  0  0  0  0  0  0
   37.3330   31.0550   37.0050 H   0  0  0  0  0  0  0  0  0  0  0  0
   36.6680   29.1240   38.3340 H   0  0  0  0  0  0  0  0  0  0  0  0
   37.3330   33.5120   40.4600 H   0  0  0  0  0  0  0  0  0  0  0  0
  1  2  1  0  0  0  0
  2  3  2  0  0  0  0
  2  6  1  0  0  0  0
  3  7  1  0  0  0  0
  4  8  1  0  0  0  0
  4  3  1  0  0  0  0
  5 10  1  6  0  0  0
  5  1  1  0  0  0  0
  5  4  1  0  0  0  0
  5 14  1  0  0  0  0
  9  4  1  0  0  0  0
 12 14  1  0  0  0  0
 12 11  1  0  0  0  0
 13 12  2  0  0  0  0
 14 15  1  0  0  0  0
 16 17  1  0  0  0  0
 16  1  1  0  0  0  0
 18 16  1  0  0  0  0
 19 24  2  0  0  0  0
 19 20  1  0  0  0  0
 20 21  2  0  0  0  0
 21 22  1  0  0  0  0
 21 16  1  0  0  0  0
 23 27  1  0  0  0  0
 23 22  2  0  0  0  0
 24 23  1  0  0  0  0
 25 19  1  0  0  0  0
 26 20  1  0  0  0  0
M  END
>  <minimizedAffinity>
-3.91557407

$$$$

 OpenBabel03252504563D

 27 28  0  0  1  0  0  0  0  0999 V2000
   37.4910   27.9660   41.4190 N   0  0  0  0  0  0  0  0  0  0  0  0
   36.9380   27.0810   42.3930 C   0  0  0  0  0  0  0  0  0  0  0  0
   37.4140   27.7200   43.6770 C   0  0  0  0  0  0  0  0  0  0  0  0
   38.1580   28.9900   43.3550 C   0  0  0  0  0  0  0  0  0  0  0  0
   37.7400   29.2460   41.8860 C   0  0  2  0  0  0  0  0  0  0  0  0
   36.3590   26.2090   42.4660 H   0  0  0  0  0  0  0  0  0  0  0  0
   37.2240   27.3690   44.7010 H   0  0  0  0  0  0  0  0  0  0  0  0
   37.6640   29.7880   43.9390 H   0  0  0  0  0  0  0  0  0  0  0  0
   39.2290   28.9190   43.4850 H   0  0  0  0  0  0  0  0  0  0  0  0
   38.5670   29.8230   41.4690 H   0  0  0  0  0  0  0  0  0  0  0  0
   35.2210   31.5830   41.0840 H   0  0  0  0  0  0  0  0  0  0  0  0
   36.1830   31.1130   40.9440 C   0  0  0  0  0  0  0  0  0  0  0  0
   37.0230   31.4420   40.0410 O   0  0  0  0  0  0  0  0  0  0  0  0
   36.5440   30.0590   41.8180 N   0  0  0  0  0  0  0  0  0  0  0  0
   35.8590   29.7760   42.5700 H   0  0  0  0  0  0  0  0  0  0  0  0
   37.8040   27.4570   40.1970 C   0  0  0  0  0  0  0  0  0  0  0  0
   37.4560   26.3710   40.1390 H   0  0  0  0  0  0  0  0  0  0  0  0
   38.8880   27.3350   39.9270 H   0  0  0  0  0  0  0  0  0  0  0  0
   35.3370   28.7940   37.6690 C   0  0  0  0  0  0  0  0  0  0  0  0
   35.7930   28.0990   38.8160 C   0  0  0  0  0  0  0  0  0  0  0  0
   37.1630   28.0800   39.0450 C   0  0  0  0  0  0  0  0  0  0  0  0
   37.9710   28.7150   38.1690 N   0  0  0  0  0  0  0  0  0  0  0  0
   37.5000   29.3840   37.0610 C   0  0  0  0  0  0  0  0  0  0  0  0
   36.1810   29.4080   36.8330 N   0  0  0  0  0  0  0  0  0  0  0  0
   34.2600   28.7580   37.5700 H   0  0  0  0  0  0  0  0  0  0  0  0
   35.1470   27.5890   39.5150 H   0  0  0  0  0  0  0  0  0  0  0  0
   38.1720   29.8810   36.3820 H   0  0  0  0  0  0  0  0  0  0  0  0
  1  5  1  0  0  0  0
  1  2  1  0  0  0  0
  2  6  1  0  0  0  0
  2  3  2  0  0  0  0
  3  7  1  0  0  0  0
  4  9  1  0  0  0  0
  4  3  1  0  0  0  0
  4  8  1  0  0  0  0
  5 10  1  6  0  0  0
  5  4  1  0  0  0  0
 12 11  1  0  0  0  0
 12 14  1  0  0  0  0
 13 12  2  0  0  0  0
 14  5  1  0  0  0  0
 14 15  1  0  0  0  0
 16  1  1  0  0  0  0
 17 16  1  0  0  0  0
 18 16  1  0  0  0  0
 19 20  1  0  0  0  0
 20 21  2  0  0  0  0
 20 26  1  0  0  0  0
 21 16  1  0  0  0  0
 22 21  1  0  0  0  0
 23 22  2  0  0  0  0
 24 23  1  0  0  0  0
 24 19  2  0  0  0  0
 25 19  1  0  0  0  0
 27 23  1  0  0  0  0
M  END
>  <minimizedAffinity>
-3.89277101

$$$$

 OpenBabel03252504563D

 27 28  0  0  1  0  0  0  0  0999 V2000
   37.9570   29.3840   41.0230 N   0  0  0  0  0  0  0  0  0  0  0  0
   37.8840   30.8070   41.1180 C   0  0  0  0  0  0  0  0  0  0  0  0
   36.4350   31.0520   40.7690 C   0  0  0  0  0  0  0  0  0  0  0  0
   35.7410   29.7310   40.5650 C   0  0  0  0  0  0  0  0  0  0  0  0
   36.7460   28.7380   41.1990 C   0  0  2  0  0  0  0  0  0  0  0  0
   38.4830   31.6410   41.3360 H   0  0  0  0  0  0  0  0  0  0  0  0
   35.9230   32.0240   40.7110 H   0  0  0  0  0  0  0  0  0  0  0  0
   34.8710   29.7360   41.2460 H   0  0  0  0  0  0  0  0  0  0  0  0
   35.5160   29.5050   39.5310 H   0  0  0  0  0  0  0  0  0  0  0  0
   36.5540   27.7960   40.6810 H   0  0  0  0  0  0  0  0  0  0  0  0
   36.2470   27.4700   44.4540 H   0  0  0  0  0  0  0  0  0  0  0  0
   36.4960   27.3740   43.4080 C   0  0  0  0  0  0  0  0  0  0  0  0
   36.8160   26.2780   42.8390 O   0  0  0  0  0  0  0  0  0  0  0  0
   36.4680   28.5420   42.6060 N   0  0  0  0  0  0  0  0  0  0  0  0
   36.2040   29.4560   43.0640 H   0  0  0  0  0  0  0  0  0  0  0  0
   39.1500   28.8260   40.6790 C   0  0  0  0  0  0  0  0  0  0  0  0
   39.9530   29.6370   40.6520 H   0  0  0  0  0  0  0  0  0  0  0  0
   39.2640   28.3950   39.6480 H   0  0  0  0  0  0  0  0  0  0  0  0
   40.5530   27.0120   43.6800 C   0  0  0  0  0  0  0  0  0  0  0  0
   40.0870   28.1030   42.9070 C   0  0  0  0  0  0  0  0  0  0  0  0
   39.6990   27.8380   41.6000 C   0  0  0  0  0  0  0  0  0  0  0  0
   39.7910   26.5690   41.1470 N   0  0  0  0  0  0  0  0  0  0  0  0
   40.2490   25.5260   41.9200 C   0  0  0  0  0  0  0  0  0  0  0  0
   40.6230   25.7720   43.1810 N   0  0  0  0  0  0  0  0  0  0  0  0
   40.8320   27.3080   44.6820 H   0  0  0  0  0  0  0  0  0  0  0  0
   40.0160   29.1180   43.2700 H   0  0  0  0  0  0  0  0  0  0  0  0
   40.3090   24.5250   41.5270 H   0  0  0  0  0  0  0  0  0  0  0  0
  1  2  1  0  0  0  0
  1  5  1  0  0  0  0
  2  6  1  0  0  0  0
  3  2  2  0  0  0  0
  4  3  1  0  0  0  0
  4  5  1  0  0  0  0
  4  8  1  0  0  0  0
  5 10  1  6  0  0  0
  5 14  1  0  0  0  0
  7  3  1  0  0  0  0
  9  4  1  0  0  0  0
 12 11  1  0  0  0  0
 13 12  2  0  0  0  0
 14 15  1  0  0  0  0
 14 12  1  0  0  0  0
 16  1  1  0  0  0  0
 16 21  1  0  0  0  0
 17 16  1  0  0  0  0
 18 16  1  0  0  0  0
 19 25  1  0  0  0  0
 20 26  1  0  0  0  0
 20 19  2  0  0  0  0
 21 20  1  0  0  0  0
 22 21  2  0  0  0  0
 22 23  1  0  0  0  0
 23 24  2  0  0  0  0
 24 19  1  0  0  0  0
 27 23  1  0  0  0  0
M  END
>  <minimizedAffinity>
-3.89211106

$$$$
