
 OpenBabel03242516023D

 30 32  0  0  0  0  0  0  0  0999 V2000
   45.0410   32.9900   41.1890 Cl  0  0  0  0  0  0  0  0  0  0  0  0
   46.4980   33.9440   41.0190 C   0  0  0  0  0  0  0  0  0  0  0  0
   46.9260   34.7870   41.9980 C   0  0  0  0  0  0  0  0  0  0  0  0
   48.0860   35.4760   41.7350 C   0  0  0  0  0  0  0  0  0  0  0  0
   48.7830   35.3520   40.5930 C   0  0  0  0  0  0  0  0  0  0  0  0
   48.3500   34.5020   39.6070 C   0  0  0  0  0  0  0  0  0  0  0  0
   47.1840   33.7870   39.8310 C   0  0  0  0  0  0  0  0  0  0  0  0
   48.4580   36.1600   42.4990 H   0  0  0  0  0  0  0  0  0  0  0  0
   49.6850   35.9220   40.4490 H   0  0  0  0  0  0  0  0  0  0  0  0
   48.8970   34.3900   38.6820 H   0  0  0  0  0  0  0  0  0  0  0  0
   46.7030   32.8670   38.7790 C   0  0  0  0  0  0  0  0  0  0  0  0
   46.8040   31.4650   38.9010 C   0  0  0  0  0  0  0  0  0  0  0  0
   46.0720   30.8470   37.3530 S   0  0  0  0  0  0  0  0  0  0  0  0
   45.7420   32.6190   36.7800 C   0  0  0  0  0  0  0  0  0  0  0  0
   46.1490   33.1690   37.6550 N   0  0  0  0  0  0  0  0  0  0  0  0
   47.2290   30.8390   39.7410 H   0  0  0  0  0  0  0  0  0  0  0  0
   44.7260   32.8110   33.5660 H   0  0  0  0  0  0  0  0  0  0  0  0
   45.2710   32.2680   34.3500 C   0  0  0  0  0  0  0  0  0  0  0  0
   45.9550   31.2150   34.5430 O   0  0  0  0  0  0  0  0  0  0  0  0
   45.1140   33.0740   35.5150 N   0  0  0  0  0  0  0  0  0  0  0  0
   44.6210   33.9790   35.6840 H   0  0  0  0  0  0  0  0  0  0  0  0
   44.4650   35.9740   44.6160 C   0  0  0  0  0  0  0  0  0  0  0  0
   45.2110   35.8910   43.4300 C   0  0  0  0  0  0  0  0  0  0  0  0
   46.1480   34.8900   43.2090 C   0  0  0  0  0  0  0  0  0  0  0  0
   46.2830   33.9990   44.2320 N   0  0  0  0  0  0  0  0  0  0  0  0
   45.5710   34.0770   45.3630 C   0  0  0  0  0  0  0  0  0  0  0  0
   44.6780   35.0420   45.5610 N   0  0  0  0  0  0  0  0  0  0  0  0
   43.7740   36.7980   44.6590 H   0  0  0  0  0  0  0  0  0  0  0  0
   45.1140   36.5940   42.6070 H   0  0  0  0  0  0  0  0  0  0  0  0
   45.7060   33.3510   46.1550 H   0  0  0  0  0  0  0  0  0  0  0  0
  2  1  1  0  0  0  0
  2  3  1  0  0  0  0
  3 24  1  0  0  0  0
  4  3  2  0  0  0  0
  4  8  1  0  0  0  0
  5  4  1  0  0  0  0
  6  7  1  0  0  0  0
  6  5  2  0  0  0  0
  7  2  2  0  0  0  0
  9  5  1  0  0  0  0
 10  6  1  0  0  0  0
 11 12  2  0  0  0  0
 11  7  1  0  0  0  0
 12 16  1  0  0  0  0
 13 12  1  0  0  0  0
 14 13  1  0  0  0  0
 14 15  2  0  0  0  0
 15 11  1  0  0  0  0
 17 18  1  0  0  0  0
 18 19  2  0  0  0  0
 18 20  1  0  0  0  0
 20 21  1  0  0  0  0
 20 14  1  0  0  0  0
 22 28  1  0  0  0  0
 22 27  1  0  0  0  0
 23 22  2  0  0  0  0
 24 23  1  0  0  0  0
 24 25  2  0  0  0  0
 25 26  1  0  0  0  0
 26 27  2  0  0  0  0
 26 30  1  0  0  0  0
 29 23  1  0  0  0  0
M  END
>  <minimizedAffinity>
-6.41680908

>  <minimizedRMSD>
0.388051897

$$$$
