
 OpenBabel03252505223D

 36 38  0  0  1  0  0  0  0  0999 V2000
   46.7360   33.2100   46.7090 F   0  0  0  0  0  0  0  0  0  0  0  0
   46.9320   32.2740   45.7610 C   0  0  0  0  0  0  0  0  0  0  0  0
   46.6080   32.5610   44.4640 C   0  0  0  0  0  0  0  0  0  0  0  0
   46.8080   31.6090   43.5100 C   0  0  0  0  0  0  0  0  0  0  0  0
   47.3330   30.3820   43.8770 C   0  0  0  0  0  0  0  0  0  0  0  0
   47.6630   30.0750   45.1730 C   0  0  0  0  0  0  0  0  0  0  0  0
   47.4490   31.0700   46.1370 C   0  0  0  0  0  0  0  0  0  0  0  0
   46.5580   31.8180   42.4800 H   0  0  0  0  0  0  0  0  0  0  0  0
   47.4730   29.6580   43.0810 H   0  0  0  0  0  0  0  0  0  0  0  0
   48.0680   29.0930   45.3750 H   0  0  0  0  0  0  0  0  0  0  0  0
   47.8050   30.7120   47.4610 N   0  0  0  0  0  0  0  0  0  0  0  0
   48.4350   29.5180   47.9860 C   0  0  0  0  0  0  0  0  0  0  0  0
   49.5800   30.0940   48.8180 C   0  0  0  0  0  0  0  0  0  0  0  0
   49.0450   31.4440   49.2240 C   0  0  0  0  0  0  0  0  0  0  0  0
   47.6550   31.4250   48.7100 C   0  0  2  0  0  0  0  0  0  0  0  0
   47.7750   28.8940   48.6090 H   0  0  0  0  0  0  0  0  0  0  0  0
   48.8530   28.9170   47.1520 H   0  0  0  0  0  0  0  0  0  0  0  0
   50.4620   30.1520   48.1400 H   0  0  0  0  0  0  0  0  0  0  0  0
   49.8770   29.4370   49.6440 H   0  0  0  0  0  0  0  0  0  0  0  0
   49.1840   31.6760   50.2790 H   0  0  0  0  0  0  0  0  0  0  0  0
   49.6270   32.2010   48.6470 H   0  0  0  0  0  0  0  0  0  0  0  0
   47.3910   32.4720   48.4470 H   0  0  0  0  0  0  0  0  0  0  0  0
   44.4960   30.6550   50.0830 H   0  0  0  0  0  0  0  0  0  0  0  0
   45.2560   31.0380   49.4220 C   0  0  0  0  0  0  0  0  0  0  0  0
   44.6990   31.6050   48.4800 O   0  0  0  0  0  0  0  0  0  0  0  0
   46.6510   30.9230   49.5790 N   0  0  0  0  0  0  0  0  0  0  0  0
   46.8740   30.3890   50.4730 H   0  0  0  0  0  0  0  0  0  0  0  0
   46.0240   35.7360   42.7020 C   0  0  0  0  0  0  0  0  0  0  0  0
   45.0260   36.3570   43.5160 C   0  0  0  0  0  0  0  0  0  0  0  0
   44.5900   35.6460   44.6510 C   0  0  0  0  0  0  0  0  0  0  0  0
   45.1340   34.4230   44.9120 N   0  0  0  0  0  0  0  0  0  0  0  0
   46.0570   33.8790   44.1360 C   0  0  0  0  0  0  0  0  0  0  0  0
   46.5030   34.5330   43.0330 N   0  0  0  0  0  0  0  0  0  0  0  0
   46.3680   36.2660   41.8310 H   0  0  0  0  0  0  0  0  0  0  0  0
   44.6170   37.3190   43.2860 H   0  0  0  0  0  0  0  0  0  0  0  0
   43.8300   36.0740   45.3050 H   0  0  0  0  0  0  0  0  0  0  0  0
  2  7  1  0  0  0  0
  2  1  1  0  0  0  0
  3  2  2  0  0  0  0
  4  5  2  0  0  0  0
  4  3  1  0  0  0  0
  5  6  1  0  0  0  0
  6 10  1  0  0  0  0
  6  7  2  0  0  0  0
  7 11  1  0  0  0  0
  8  4  1  0  0  0  0
  9  5  1  0  0  0  0
 11 12  1  0  0  0  0
 11 15  1  0  0  0  0
 12 16  1  0  0  0  0
 12 13  1  0  0  0  0
 13 14  1  0  0  0  0
 13 19  1  0  0  0  0
 14 20  1  0  0  0  0
 15 22  1  6  0  0  0
 15 14  1  0  0  0  0
 15 26  1  0  0  0  0
 17 12  1  0  0  0  0
 18 13  1  0  0  0  0
 21 14  1  0  0  0  0
 24 26  1  0  0  0  0
 24 23  1  0  0  0  0
 25 24  2  0  0  0  0
 26 27  1  0  0  0  0
 28 33  2  0  0  0  0
 28 29  1  0  0  0  0
 29 30  2  0  0  0  0
 30 31  1  0  0  0  0
 30 36  1  0  0  0  0
 32  3  1  0  0  0  0
 32 31  2  0  0  0  0
 33 32  1  0  0  0  0
 34 28  1  0  0  0  0
 35 29  1  0  0  0  0
M  END
>  <minimizedAffinity>
-5.85701799

>  <minimizedRMSD>
2.93421912

$$$$
