
 OpenBabel03252509223D

 23 24  0  0  1  0  0  0  0  0999 V2000
   46.2920   34.8050   42.0360 C   0  0  1  0  0  0  0  0  0  0  0  0
   47.7950   35.1390   41.9430 C   0  0  0  0  0  0  0  0  0  0  0  0
   47.1290   33.7870   41.5190 C   0  0  2  0  0  0  0  0  0  0  0  0
   45.6620   35.4790   41.4250 H   0  0  0  0  0  0  0  0  0  0  0  0
   48.1130   35.7840   41.1280 H   0  0  0  0  0  0  0  0  0  0  0  0
   48.4150   35.1510   42.8300 H   0  0  0  0  0  0  0  0  0  0  0  0
   47.4760   32.9420   42.1840 H   0  0  0  0  0  0  0  0  0  0  0  0
   44.5870   35.5060   45.3180 C   0  0  0  0  0  0  0  0  0  0  0  0
   45.0160   35.6970   43.9780 C   0  0  0  0  0  0  0  0  0  0  0  0
   45.8590   34.7360   43.4800 C   0  0  0  0  0  0  0  0  0  0  0  0
   46.2530   33.6610   44.2570 N   0  0  0  0  0  0  0  0  0  0  0  0
   45.8180   33.5250   45.5240 C   0  0  0  0  0  0  0  0  0  0  0  0
   44.9800   34.4560   46.0540 N   0  0  0  0  0  0  0  0  0  0  0  0
   43.9220   36.2680   45.7040 H   0  0  0  0  0  0  0  0  0  0  0  0
   46.1170   32.6920   46.1420 H   0  0  0  0  0  0  0  0  0  0  0  0
   44.6410   36.8230   43.1880 N   0  0  0  0  0  0  0  0  0  0  0  0
   45.1340   37.5990   43.6970 H   0  0  0  0  0  0  0  0  0  0  0  0
   44.0430   36.8300   42.3480 H   0  0  0  0  0  0  0  0  0  0  0  0
   48.0920   33.8770   38.2170 H   0  0  0  0  0  0  0  0  0  0  0  0
   48.0840   34.2580   39.2260 C   0  0  0  0  0  0  0  0  0  0  0  0
   48.6920   35.2850   39.6240 O   0  0  0  0  0  0  0  0  0  0  0  0
   47.2820   33.4610   40.1210 N   0  0  0  0  0  0  0  0  0  0  0  0
   46.7680   32.5970   39.7950 H   0  0  0  0  0  0  0  0  0  0  0  0
  1  4  1  6  0  0  0
  1 10  1  0  0  0  0
  2  1  1  0  0  0  0
  2  6  1  0  0  0  0
  3  2  1  0  0  0  0
  3  1  1  0  0  0  0
  3  7  1  1  0  0  0
  5  2  1  0  0  0  0
  8 14  1  0  0  0  0
  8 13  1  0  0  0  0
  9  8  2  0  0  0  0
 10  9  1  0  0  0  0
 10 11  2  0  0  0  0
 11 12  1  0  0  0  0
 12 13  2  0  0  0  0
 12 15  1  0  0  0  0
 16 17  1  0  0  0  0
 16  9  1  0  0  0  0
 18 16  1  0  0  0  0
 19 20  1  0  0  0  0
 20 21  2  0  0  0  0
 20 22  1  0  0  0  0
 22  3  1  0  0  0  0
 23 22  1  0  0  0  0
M  END
>  <minimizedAffinity>
-4.29308653

>  <minimizedRMSD>
0.310457498

$$$$
