
 OpenBabel03252503303D

 33 34  0  0  1  0  0  0  0  0999 V2000
   38.4370   29.4200   41.7890 C   0  0  0  0  0  0  0  0  0  0  0  0
   37.7550   30.2470   40.8440 C   0  0  0  0  0  0  0  0  0  0  0  0
   38.2670   31.5480   40.6850 C   0  0  0  0  0  0  0  0  0  0  0  0
   39.3370   31.9040   41.4210 N   0  0  0  0  0  0  0  0  0  0  0  0
   39.9470   31.0780   42.3060 C   0  0  0  0  0  0  0  0  0  0  0  0
   39.4830   29.8240   42.4830 N   0  0  0  0  0  0  0  0  0  0  0  0
   38.3560   27.2280   40.9410 C   0  0  0  0  0  0  0  0  0  0  0  0
   38.9790   27.7180   39.9530 O   0  0  0  0  0  0  0  0  0  0  0  0
   37.9870   28.0810   42.0150 N   0  0  0  0  0  0  0  0  0  0  0  0
   38.0790   25.8340   40.8760 N   0  0  0  0  0  0  0  0  0  0  0  0
   38.1950   25.0870   39.6420 C   0  0  0  0  0  0  0  0  0  0  0  0
   37.1050   24.0560   39.7960 C   0  0  0  0  0  0  0  0  0  0  0  0
   36.5740   24.1580   41.2130 C   0  0  0  0  0  0  0  0  0  0  0  0
   37.6530   24.9140   41.9310 C   0  0  1  0  0  0  0  0  0  0  0  0
   36.9080   29.8700   40.3030 H   0  0  0  0  0  0  0  0  0  0  0  0
   40.7900   31.5100   42.8170 H   0  0  0  0  0  0  0  0  0  0  0  0
   37.4580   27.6550   42.8060 H   0  0  0  0  0  0  0  0  0  0  0  0
   38.0790   25.7160   38.7440 H   0  0  0  0  0  0  0  0  0  0  0  0
   39.1720   24.5420   39.6840 H   0  0  0  0  0  0  0  0  0  0  0  0
   37.4140   23.0420   39.5330 H   0  0  0  0  0  0  0  0  0  0  0  0
   36.2810   24.3950   39.1040 H   0  0  0  0  0  0  0  0  0  0  0  0
   36.4360   23.1200   41.5720 H   0  0  0  0  0  0  0  0  0  0  0  0
   35.6120   24.6880   41.2620 H   0  0  0  0  0  0  0  0  0  0  0  0
   37.2380   25.4640   42.7990 H   0  0  0  0  0  0  0  0  0  0  0  0
   40.4400   23.5410   43.4000 H   0  0  0  0  0  0  0  0  0  0  0  0
   39.8170   24.4110   43.3050 C   0  0  0  0  0  0  0  0  0  0  0  0
   39.6200   25.6230   43.6610 O   0  0  0  0  0  0  0  0  0  0  0  0
   38.7440   24.1010   42.3930 N   0  0  0  0  0  0  0  0  0  0  0  0
   38.5750   23.1790   41.8890 H   0  0  0  0  0  0  0  0  0  0  0  0
   37.5530   32.3710   39.7150 C   0  0  0  0  0  0  0  0  0  0  0  0
   36.3180   31.7730   39.4530 F   0  0  0  0  0  0  0  0  0  0  0  0
   38.2620   32.2900   38.5120 F   0  0  0  0  0  0  0  0  0  0  0  0
   37.3240   33.6470   40.1360 F   0  0  0  0  0  0  0  0  0  0  0  0
  1  9  1  0  0  0  0
  1  6  1  0  0  0  0
  2  1  2  0  0  0  0
  3  2  1  0  0  0  0
  3  4  2  0  0  0  0
  4  5  1  0  0  0  0
  5  6  2  0  0  0  0
  5 16  1  0  0  0  0
  7  9  1  0  0  0  0
  8  7  2  0  0  0  0
  9 17  1  0  0  0  0
 10  7  1  0  0  0  0
 10 14  1  0  0  0  0
 11 19  1  0  0  0  0
 11 12  1  0  0  0  0
 11 10  1  0  0  0  0
 12 13  1  0  0  0  0
 13 23  1  0  0  0  0
 13 22  1  0  0  0  0
 13 14  1  0  0  0  0
 14 28  1  0  0  0  0
 14 24  1  1  0  0  0
 15  2  1  0  0  0  0
 18 11  1  0  0  0  0
 20 12  1  0  0  0  0
 21 12  1  0  0  0  0
 26 25  1  0  0  0  0
 26 27  2  0  0  0  0
 28 26  1  0  0  0  0
 29 28  1  0  0  0  0
 30 33  1  0  0  0  0
 30  3  1  0  0  0  0
 31 30  1  0  0  0  0
 32 30  1  0  0  0  0
M  END
>  <minimizedAffinity>
-5.38437986

$$$$

 OpenBabel03252503303D

 33 34  0  0  1  0  0  0  0  0999 V2000
   39.4700   27.7640   41.8340 C   0  0  0  0  0  0  0  0  0  0  0  0
   38.5370   26.7670   41.4100 C   0  0  0  0  0  0  0  0  0  0  0  0
   38.4450   25.6260   42.2280 C   0  0  0  0  0  0  0  0  0  0  0  0
   39.2260   25.5640   43.3230 N   0  0  0  0  0  0  0  0  0  0  0  0
   40.0950   26.5400   43.6790 C   0  0  0  0  0  0  0  0  0  0  0  0
   40.2100   27.6480   42.9190 N   0  0  0  0  0  0  0  0  0  0  0  0
   38.5360   29.8430   41.2550 C   0  0  0  0  0  0  0  0  0  0  0  0
   37.5860   29.4900   42.0160 O   0  0  0  0  0  0  0  0  0  0  0  0
   39.6300   28.9580   41.0630 N   0  0  0  0  0  0  0  0  0  0  0  0
   38.4080   31.1250   40.6500 N   0  0  0  0  0  0  0  0  0  0  0  0
   37.1500   31.8390   40.6300 C   0  0  0  0  0  0  0  0  0  0  0  0
   37.2310   32.5780   39.3170 C   0  0  0  0  0  0  0  0  0  0  0  0
   38.6340   32.3920   38.7730 C   0  0  0  0  0  0  0  0  0  0  0  0
   39.4130   31.9440   39.9740 C   0  0  1  0  0  0  0  0  0  0  0  0
   37.9580   26.9090   40.5180 H   0  0  0  0  0  0  0  0  0  0  0  0
   40.6480   26.3430   44.5820 H   0  0  0  0  0  0  0  0  0  0  0  0
   40.3880   29.2660   40.4170 H   0  0  0  0  0  0  0  0  0  0  0  0
   36.2730   31.1740   40.7040 H   0  0  0  0  0  0  0  0  0  0  0  0
   37.2000   32.6070   41.4430 H   0  0  0  0  0  0  0  0  0  0  0  0
   36.9380   33.6280   39.3800 H   0  0  0  0  0  0  0  0  0  0  0  0
   36.5280   32.0270   38.6270 H   0  0  0  0  0  0  0  0  0  0  0  0
   38.9480   33.3750   38.3730 H   0  0  0  0  0  0  0  0  0  0  0  0
   38.6750   31.6450   37.9670 H   0  0  0  0  0  0  0  0  0  0  0  0
   40.2890   31.3360   39.6720 H   0  0  0  0  0  0  0  0  0  0  0  0
   41.0700   34.5050   41.5570 H   0  0  0  0  0  0  0  0  0  0  0  0
   41.0820   33.7990   40.7470 C   0  0  0  0  0  0  0  0  0  0  0  0
   41.7210   33.3520   39.7340 O   0  0  0  0  0  0  0  0  0  0  0  0
   39.8750   33.0120   40.8160 N   0  0  0  0  0  0  0  0  0  0  0  0
   39.0940   33.0970   41.5330 H   0  0  0  0  0  0  0  0  0  0  0  0
   37.4860   24.6250   41.7730 C   0  0  0  0  0  0  0  0  0  0  0  0
   36.9720   25.0340   40.5400 F   0  0  0  0  0  0  0  0  0  0  0  0
   36.4020   24.6680   42.6550 F   0  0  0  0  0  0  0  0  0  0  0  0
   38.0210   23.3810   41.6160 F   0  0  0  0  0  0  0  0  0  0  0  0
  1  6  1  0  0  0  0
  2  1  2  0  0  0  0
  2  3  1  0  0  0  0
  3  4  2  0  0  0  0
  4  5  1  0  0  0  0
  5 16  1  0  0  0  0
  6  5  2  0  0  0  0
  7  8  2  0  0  0  0
  9  7  1  0  0  0  0
  9  1  1  0  0  0  0
 10  7  1  0  0  0  0
 11 10  1  0  0  0  0
 11 18  1  0  0  0  0
 11 19  1  0  0  0  0
 12 20  1  0  0  0  0
 12 11  1  0  0  0  0
 13 12  1  0  0  0  0
 13 14  1  0  0  0  0
 14 24  1  6  0  0  0
 14 10  1  0  0  0  0
 14 28  1  0  0  0  0
 15  2  1  0  0  0  0
 17  9  1  0  0  0  0
 21 12  1  0  0  0  0
 22 13  1  0  0  0  0
 23 13  1  0  0  0  0
 26 28  1  0  0  0  0
 26 25  1  0  0  0  0
 27 26  2  0  0  0  0
 28 29  1  0  0  0  0
 30  3  1  0  0  0  0
 30 32  1  0  0  0  0
 31 30  1  0  0  0  0
 33 30  1  0  0  0  0
M  END
>  <minimizedAffinity>
-5.25854826

$$$$

 OpenBabel03252503303D

 33 34  0  0  1  0  0  0  0  0999 V2000
   38.4180   28.6680   41.9920 C   0  0  0  0  0  0  0  0  0  0  0  0
   39.2100   27.4800   42.0590 C   0  0  0  0  0  0  0  0  0  0  0  0
   38.5620   26.3380   42.5630 C   0  0  0  0  0  0  0  0  0  0  0  0
   37.2720   26.4500   42.9350 N   0  0  0  0  0  0  0  0  0  0  0  0
   36.5660   27.6040   42.8500 C   0  0  0  0  0  0  0  0  0  0  0  0
   37.1560   28.7190   42.3720 N   0  0  0  0  0  0  0  0  0  0  0  0
   39.1260   29.8370   40.0790 C   0  0  0  0  0  0  0  0  0  0  0  0
   38.7670   28.7920   39.4580 O   0  0  0  0  0  0  0  0  0  0  0  0
   38.9940   29.8780   41.4930 N   0  0  0  0  0  0  0  0  0  0  0  0
   39.6400   30.8950   39.2780 N   0  0  0  0  0  0  0  0  0  0  0  0
   40.0400   30.6880   37.9030 C   0  0  0  0  0  0  0  0  0  0  0  0
   41.1860   31.6590   37.7610 C   0  0  0  0  0  0  0  0  0  0  0  0
   41.2250   32.5080   39.0170 C   0  0  0  0  0  0  0  0  0  0  0  0
   39.8660   32.3000   39.6160 C   0  0  1  0  0  0  0  0  0  0  0  0
   40.2340   27.4910   41.7380 H   0  0  0  0  0  0  0  0  0  0  0  0
   35.5460   27.5330   43.1860 H   0  0  0  0  0  0  0  0  0  0  0  0
   39.3150   30.7420   41.9800 H   0  0  0  0  0  0  0  0  0  0  0  0
   40.3230   29.6440   37.6870 H   0  0  0  0  0  0  0  0  0  0  0  0
   39.2050   31.0680   37.2620 H   0  0  0  0  0  0  0  0  0  0  0  0
   41.1490   32.2570   36.8480 H   0  0  0  0  0  0  0  0  0  0  0  0
   42.1150   31.0180   37.7600 H   0  0  0  0  0  0  0  0  0  0  0  0
   41.4180   33.5470   38.6870 H   0  0  0  0  0  0  0  0  0  0  0  0
   42.0210   32.1960   39.7080 H   0  0  0  0  0  0  0  0  0  0  0  0
   39.8920   32.4490   40.7140 H   0  0  0  0  0  0  0  0  0  0  0  0
   37.0270   34.0780   38.8480 H   0  0  0  0  0  0  0  0  0  0  0  0
   37.4890   33.3790   39.5210 C   0  0  0  0  0  0  0  0  0  0  0  0
   37.3480   32.6550   40.5660 O   0  0  0  0  0  0  0  0  0  0  0  0
   38.8390   33.1440   39.0710 N   0  0  0  0  0  0  0  0  0  0  0  0
   39.3180   33.5760   38.2250 H   0  0  0  0  0  0  0  0  0  0  0  0
   39.3920   25.1400   42.6210 C   0  0  0  0  0  0  0  0  0  0  0  0
   40.1480   25.0690   41.4480 F   0  0  0  0  0  0  0  0  0  0  0  0
   38.5280   24.0420   42.5670 F   0  0  0  0  0  0  0  0  0  0  0  0
   40.2510   25.1140   43.6790 F   0  0  0  0  0  0  0  0  0  0  0  0
  1  2  2  0  0  0  0
  1  6  1  0  0  0  0
  2  3  1  0  0  0  0
  3 30  1  0  0  0  0
  3  4  2  0  0  0  0
  5  4  1  0  0  0  0
  5 16  1  0  0  0  0
  6  5  2  0  0  0  0
  7  9  1  0  0  0  0
  8  7  2  0  0  0  0
  9 17  1  0  0  0  0
  9  1  1  0  0  0  0
 10 14  1  0  0  0  0
 10  7  1  0  0  0  0
 11 10  1  0  0  0  0
 12 11  1  0  0  0  0
 12 13  1  0  0  0  0
 13 14  1  0  0  0  0
 13 23  1  0  0  0  0
 14 24  1  1  0  0  0
 15  2  1  0  0  0  0
 18 11  1  0  0  0  0
 19 11  1  0  0  0  0
 20 12  1  0  0  0  0
 21 12  1  0  0  0  0
 22 13  1  0  0  0  0
 25 26  1  0  0  0  0
 26 27  2  0  0  0  0
 28 26  1  0  0  0  0
 28 14  1  0  0  0  0
 29 28  1  0  0  0  0
 30 33  1  0  0  0  0
 31 30  1  0  0  0  0
 32 30  1  0  0  0  0
M  END
>  <minimizedAffinity>
-5.05925035

$$$$

 OpenBabel03252503303D

 33 34  0  0  1  0  0  0  0  0999 V2000
   38.8760   27.3320   39.6620 C   0  0  0  0  0  0  0  0  0  0  0  0
   37.8900   26.7480   40.5170 C   0  0  0  0  0  0  0  0  0  0  0  0
   38.2320   25.5100   41.0910 C   0  0  0  0  0  0  0  0  0  0  0  0
   39.4360   24.9830   40.7960 N   0  0  0  0  0  0  0  0  0  0  0  0
   40.3350   25.5800   39.9760 C   0  0  0  0  0  0  0  0  0  0  0  0
   40.0410   26.7680   39.4080 N   0  0  0  0  0  0  0  0  0  0  0  0
   38.7290   29.6590   39.9630 C   0  0  0  0  0  0  0  0  0  0  0  0
   39.0050   29.3970   41.1710 O   0  0  0  0  0  0  0  0  0  0  0  0
   38.6150   28.5900   39.0340 N   0  0  0  0  0  0  0  0  0  0  0  0
   38.5550   31.0350   39.6460 N   0  0  0  0  0  0  0  0  0  0  0  0
   38.3740   32.0400   40.6720 C   0  0  0  0  0  0  0  0  0  0  0  0
   37.4570   33.0240   39.9880 C   0  0  0  0  0  0  0  0  0  0  0  0
   37.3440   32.6110   38.5330 C   0  0  0  0  0  0  0  0  0  0  0  0
   38.5200   31.6980   38.3420 C   0  0  1  0  0  0  0  0  0  0  0  0
   36.9570   27.2480   40.6900 H   0  0  0  0  0  0  0  0  0  0  0  0
   41.2520   25.0340   39.8400 H   0  0  0  0  0  0  0  0  0  0  0  0
   38.3680   28.8330   38.0510 H   0  0  0  0  0  0  0  0  0  0  0  0
   37.9570   31.6310   41.6080 H   0  0  0  0  0  0  0  0  0  0  0  0
   39.3620   32.5480   40.8050 H   0  0  0  0  0  0  0  0  0  0  0  0
   37.7570   34.0670   40.1090 H   0  0  0  0  0  0  0  0  0  0  0  0
   36.4460   32.8600   40.4630 H   0  0  0  0  0  0  0  0  0  0  0  0
   37.3960   33.5430   37.9380 H   0  0  0  0  0  0  0  0  0  0  0  0
   36.3980   32.0960   38.3160 H   0  0  0  0  0  0  0  0  0  0  0  0
   38.3270   30.9720   37.5280 H   0  0  0  0  0  0  0  0  0  0  0  0
   41.7000   32.6740   37.4790 H   0  0  0  0  0  0  0  0  0  0  0  0
   41.0050   31.8570   37.5550 C   0  0  0  0  0  0  0  0  0  0  0  0
   40.8120   30.6050   37.3850 O   0  0  0  0  0  0  0  0  0  0  0  0
   39.7570   32.3720   38.0610 N   0  0  0  0  0  0  0  0  0  0  0  0
   39.5370   33.3800   38.3220 H   0  0  0  0  0  0  0  0  0  0  0  0
   37.2100   24.9360   41.9590 C   0  0  0  0  0  0  0  0  0  0  0  0
   37.8000   23.9330   42.7320 F   0  0  0  0  0  0  0  0  0  0  0  0
   36.2980   24.2730   41.1320 F   0  0  0  0  0  0  0  0  0  0  0  0
   36.6340   25.8380   42.8040 F   0  0  0  0  0  0  0  0  0  0  0  0
  1  2  1  0  0  0  0
  2 15  1  0  0  0  0
  2  3  2  0  0  0  0
  3 30  1  0  0  0  0
  4  3  1  0  0  0  0
  5  4  2  0  0  0  0
  6  1  2  0  0  0  0
  6  5  1  0  0  0  0
  7  8  2  0  0  0  0
  9  1  1  0  0  0  0
  9  7  1  0  0  0  0
 10  7  1  0  0  0  0
 10 11  1  0  0  0  0
 11 19  1  0  0  0  0
 11 18  1  0  0  0  0
 12 20  1  0  0  0  0
 12 21  1  0  0  0  0
 12 11  1  0  0  0  0
 13 12  1  0  0  0  0
 14 24  1  6  0  0  0
 14 13  1  0  0  0  0
 14 10  1  0  0  0  0
 16  5  1  0  0  0  0
 17  9  1  0  0  0  0
 22 13  1  0  0  0  0
 23 13  1  0  0  0  0
 25 26  1  0  0  0  0
 26 28  1  0  0  0  0
 27 26  2  0  0  0  0
 28 29  1  0  0  0  0
 28 14  1  0  0  0  0
 30 31  1  0  0  0  0
 30 33  1  0  0  0  0
 32 30  1  0  0  0  0
M  END
>  <minimizedAffinity>
-5.00326347

$$$$

 OpenBabel03252503303D

 33 34  0  0  1  0  0  0  0  0999 V2000
   38.0250   26.2710   40.8480 C   0  0  0  0  0  0  0  0  0  0  0  0
   37.0470   25.6280   40.0290 C   0  0  0  0  0  0  0  0  0  0  0  0
   36.6750   24.3300   40.4230 C   0  0  0  0  0  0  0  0  0  0  0  0
   37.2570   23.8060   41.5180 N   0  0  0  0  0  0  0  0  0  0  0  0
   38.1830   24.4610   42.2600 C   0  0  0  0  0  0  0  0  0  0  0  0
   38.5630   25.7080   41.9120 N   0  0  0  0  0  0  0  0  0  0  0  0
   37.4800   28.5580   40.8700 C   0  0  0  0  0  0  0  0  0  0  0  0
   36.3830   28.1670   41.3700 O   0  0  0  0  0  0  0  0  0  0  0  0
   38.4640   27.5940   40.5230 N   0  0  0  0  0  0  0  0  0  0  0  0
   37.6220   29.9640   40.6980 N   0  0  0  0  0  0  0  0  0  0  0  0
   36.4900   30.8620   40.7710 C   0  0  0  0  0  0  0  0  0  0  0  0
   36.8750   31.9330   39.7820 C   0  0  0  0  0  0  0  0  0  0  0  0
   38.3090   31.6750   39.3610 C   0  0  0  0  0  0  0  0  0  0  0  0
   38.8220   30.7580   40.4320 C   0  0  1  0  0  0  0  0  0  0  0  0
   36.6390   26.1300   39.1730 H   0  0  0  0  0  0  0  0  0  0  0  0
   38.5540   23.9090   43.1060 H   0  0  0  0  0  0  0  0  0  0  0  0
   39.3480   27.9420   40.0960 H   0  0  0  0  0  0  0  0  0  0  0  0
   35.5320   30.3700   40.5330 H   0  0  0  0  0  0  0  0  0  0  0  0
   36.5130   31.3300   41.7880 H   0  0  0  0  0  0  0  0  0  0  0  0
   36.7190   32.9510   40.1470 H   0  0  0  0  0  0  0  0  0  0  0  0
   36.2220   31.7470   38.8800 H   0  0  0  0  0  0  0  0  0  0  0  0
   38.8100   32.6610   39.3340 H   0  0  0  0  0  0  0  0  0  0  0  0
   38.3770   31.2080   38.3680 H   0  0  0  0  0  0  0  0  0  0  0  0
   39.6450   30.1240   40.0480 H   0  0  0  0  0  0  0  0  0  0  0  0
   40.2350   31.7430   43.4060 H   0  0  0  0  0  0  0  0  0  0  0  0
   40.1080   30.9450   42.6980 C   0  0  0  0  0  0  0  0  0  0  0  0
   40.3800   29.7310   42.4030 O   0  0  0  0  0  0  0  0  0  0  0  0
   39.2830   31.4260   41.6180 N   0  0  0  0  0  0  0  0  0  0  0  0
   38.8630   32.3980   41.5150 H   0  0  0  0  0  0  0  0  0  0  0  0
   35.6750   23.6950   39.5700 C   0  0  0  0  0  0  0  0  0  0  0  0
   34.6160   23.2680   40.3750 F   0  0  0  0  0  0  0  0  0  0  0  0
   36.2510   22.5240   39.0690 F   0  0  0  0  0  0  0  0  0  0  0  0
   35.1690   24.5170   38.6080 F   0  0  0  0  0  0  0  0  0  0  0  0
  1  6  1  0  0  0  0
  2  3  1  0  0  0  0
  2  1  2  0  0  0  0
  3  4  2  0  0  0  0
  4  5  1  0  0  0  0
  5 16  1  0  0  0  0
  6  5  2  0  0  0  0
  7  8  2  0  0  0  0
  9  1  1  0  0  0  0
  9  7  1  0  0  0  0
 10 11  1  0  0  0  0
 10  7  1  0  0  0  0
 11 19  1  0  0  0  0
 12 20  1  0  0  0  0
 12 11  1  0  0  0  0
 13 12  1  0  0  0  0
 13 14  1  0  0  0  0
 14 24  1  6  0  0  0
 14 10  1  0  0  0  0
 14 28  1  0  0  0  0
 15  2  1  0  0  0  0
 17  9  1  0  0  0  0
 18 11  1  0  0  0  0
 21 12  1  0  0  0  0
 22 13  1  0  0  0  0
 23 13  1  0  0  0  0
 26 25  1  0  0  0  0
 27 26  2  0  0  0  0
 28 26  1  0  0  0  0
 29 28  1  0  0  0  0
 30 31  1  0  0  0  0
 30  3  1  0  0  0  0
 32 30  1  0  0  0  0
 33 30  1  0  0  0  0
M  END
>  <minimizedAffinity>
-4.86102486

$$$$

 OpenBabel03252503303D

 33 34  0  0  1  0  0  0  0  0999 V2000
   38.7800   30.0370   38.0000 C   0  0  0  0  0  0  0  0  0  0  0  0
   37.7650   30.4500   38.9170 C   0  0  0  0  0  0  0  0  0  0  0  0
   36.8620   29.4500   39.3230 C   0  0  0  0  0  0  0  0  0  0  0  0
   37.0220   28.2090   38.8260 N   0  0  0  0  0  0  0  0  0  0  0  0
   38.0050   27.8710   37.9560 C   0  0  0  0  0  0  0  0  0  0  0  0
   38.8880   28.8040   37.5450 N   0  0  0  0  0  0  0  0  0  0  0  0
   40.7070   31.2740   38.5340 C   0  0  0  0  0  0  0  0  0  0  0  0
   40.6030   30.7150   39.6670 O   0  0  0  0  0  0  0  0  0  0  0  0
   39.7420   30.9870   37.5320 N   0  0  0  0  0  0  0  0  0  0  0  0
   41.8100   32.1590   38.3730 N   0  0  0  0  0  0  0  0  0  0  0  0
   42.5690   32.6490   39.5040 C   0  0  0  0  0  0  0  0  0  0  0  0
   42.9630   34.0300   39.0410 C   0  0  0  0  0  0  0  0  0  0  0  0
   42.5710   34.1520   37.5810 C   0  0  0  0  0  0  0  0  0  0  0  0
   42.3830   32.7270   37.1530 C   0  0  1  0  0  0  0  0  0  0  0  0
   37.7200   31.4660   39.2570 H   0  0  0  0  0  0  0  0  0  0  0  0
   38.0000   26.8390   37.6510 H   0  0  0  0  0  0  0  0  0  0  0  0
   39.8410   31.4760   36.6170 H   0  0  0  0  0  0  0  0  0  0  0  0
   41.9910   32.6510   40.4440 H   0  0  0  0  0  0  0  0  0  0  0  0
   43.5060   32.0390   39.5540 H   0  0  0  0  0  0  0  0  0  0  0  0
   44.0120   34.2740   39.2190 H   0  0  0  0  0  0  0  0  0  0  0  0
   42.3020   34.7340   39.6260 H   0  0  0  0  0  0  0  0  0  0  0  0
   43.4100   34.6680   37.0740 H   0  0  0  0  0  0  0  0  0  0  0  0
   41.6510   34.7380   37.4420 H   0  0  0  0  0  0  0  0  0  0  0  0
   41.6720   32.6600   36.3060 H   0  0  0  0  0  0  0  0  0  0  0  0
   44.8490   30.6180   36.0200 H   0  0  0  0  0  0  0  0  0  0  0  0
   43.7920   30.7790   36.1330 C   0  0  0  0  0  0  0  0  0  0  0  0
   42.6180   30.3130   35.9360 O   0  0  0  0  0  0  0  0  0  0  0  0
   43.5960   32.0530   36.7780 N   0  0  0  0  0  0  0  0  0  0  0  0
   44.3480   32.7340   37.0970 H   0  0  0  0  0  0  0  0  0  0  0  0
   35.8360   29.8970   40.2600 C   0  0  0  0  0  0  0  0  0  0  0  0
   35.9780   31.2740   40.4450 F   0  0  0  0  0  0  0  0  0  0  0  0
   36.1410   29.3270   41.5000 F   0  0  0  0  0  0  0  0  0  0  0  0
   34.5630   29.6550   39.8390 F   0  0  0  0  0  0  0  0  0  0  0  0
  1  2  1  0  0  0  0
  2 15  1  0  0  0  0
  2  3  2  0  0  0  0
  3 30  1  0  0  0  0
  4  3  1  0  0  0  0
  5  4  2  0  0  0  0
  6  5  1  0  0  0  0
  6  1  2  0  0  0  0
  7  8  2  0  0  0  0
  9  1  1  0  0  0  0
  9  7  1  0  0  0  0
 10  7  1  0  0  0  0
 10 11  1  0  0  0  0
 11 19  1  0  0  0  0
 11 18  1  0  0  0  0
 12 20  1  0  0  0  0
 12 11  1  0  0  0  0
 12 21  1  0  0  0  0
 13 12  1  0  0  0  0
 14 24  1  6  0  0  0
 14 13  1  0  0  0  0
 14 10  1  0  0  0  0
 16  5  1  0  0  0  0
 17  9  1  0  0  0  0
 22 13  1  0  0  0  0
 23 13  1  0  0  0  0
 25 26  1  0  0  0  0
 26 28  1  0  0  0  0
 27 26  2  0  0  0  0
 28 29  1  0  0  0  0
 28 14  1  0  0  0  0
 30 31  1  0  0  0  0
 30 32  1  0  0  0  0
 33 30  1  0  0  0  0
M  END
>  <minimizedAffinity>
-4.83600616

$$$$

 OpenBabel03252503303D

 33 34  0  0  1  0  0  0  0  0999 V2000
   37.1840   29.3780   38.8810 C   0  0  0  0  0  0  0  0  0  0  0  0
   36.6860   29.1070   37.5690 C   0  0  0  0  0  0  0  0  0  0  0  0
   36.9080   30.1110   36.6090 C   0  0  0  0  0  0  0  0  0  0  0  0
   37.5590   31.2250   36.9930 N   0  0  0  0  0  0  0  0  0  0  0  0
   38.0110   31.4320   38.2530 C   0  0  0  0  0  0  0  0  0  0  0  0
   37.8160   30.4910   39.2000 N   0  0  0  0  0  0  0  0  0  0  0  0
   37.8950   27.3190   39.7650 C   0  0  0  0  0  0  0  0  0  0  0  0
   38.6820   27.3040   38.7720 O   0  0  0  0  0  0  0  0  0  0  0  0
   37.0030   28.4140   39.9210 N   0  0  0  0  0  0  0  0  0  0  0  0
   37.9830   26.2080   40.6490 N   0  0  0  0  0  0  0  0  0  0  0  0
   38.6730   24.9900   40.2810 C   0  0  0  0  0  0  0  0  0  0  0  0
   37.8620   23.9410   41.0010 C   0  0  0  0  0  0  0  0  0  0  0  0
   36.8800   24.6610   41.9050 C   0  0  0  0  0  0  0  0  0  0  0  0
   37.4530   26.0440   42.0030 C   0  0  1  0  0  0  0  0  0  0  0  0
   36.1780   28.1850   37.3600 H   0  0  0  0  0  0  0  0  0  0  0  0
   38.5120   32.3730   38.4030 H   0  0  0  0  0  0  0  0  0  0  0  0
   36.3540   28.3910   40.7360 H   0  0  0  0  0  0  0  0  0  0  0  0
   38.7220   24.8330   39.1900 H   0  0  0  0  0  0  0  0  0  0  0  0
   39.6770   25.0250   40.7740 H   0  0  0  0  0  0  0  0  0  0  0  0
   38.4650   23.2030   41.5340 H   0  0  0  0  0  0  0  0  0  0  0  0
   37.2610   23.4300   40.1930 H   0  0  0  0  0  0  0  0  0  0  0  0
   36.8730   24.1080   42.8630 H   0  0  0  0  0  0  0  0  0  0  0  0
   35.8630   24.6780   41.4890 H   0  0  0  0  0  0  0  0  0  0  0  0
   36.6580   26.7870   42.2140 H   0  0  0  0  0  0  0  0  0  0  0  0
   39.7930   27.0850   44.2940 H   0  0  0  0  0  0  0  0  0  0  0  0
   39.0360   27.3830   43.5920 C   0  0  0  0  0  0  0  0  0  0  0  0
   38.4080   28.3580   43.0540 O   0  0  0  0  0  0  0  0  0  0  0  0
   38.4840   26.1930   42.9930 N   0  0  0  0  0  0  0  0  0  0  0  0
   38.7600   25.1850   43.1940 H   0  0  0  0  0  0  0  0  0  0  0  0
   36.3900   29.8090   35.2780 C   0  0  0  0  0  0  0  0  0  0  0  0
   36.4820   30.9640   34.4970 F   0  0  0  0  0  0  0  0  0  0  0  0
   35.0190   29.5700   35.4190 F   0  0  0  0  0  0  0  0  0  0  0  0
   37.0610   28.8110   34.6380 F   0  0  0  0  0  0  0  0  0  0  0  0
  1  6  1  0  0  0  0
  1  9  1  0  0  0  0
  2  1  2  0  0  0  0
  3  4  2  0  0  0  0
  3  2  1  0  0  0  0
  4  5  1  0  0  0  0
  5 16  1  0  0  0  0
  5  6  2  0  0  0  0
  7  9  1  0  0  0  0
  7 10  1  0  0  0  0
  8  7  2  0  0  0  0
  9 17  1  0  0  0  0
 10 14  1  0  0  0  0
 11 10  1  0  0  0  0
 11 19  1  0  0  0  0
 11 12  1  0  0  0  0
 12 20  1  0  0  0  0
 12 13  1  0  0  0  0
 13 14  1  0  0  0  0
 13 22  1  0  0  0  0
 14 24  1  1  0  0  0
 14 28  1  0  0  0  0
 15  2  1  0  0  0  0
 18 11  1  0  0  0  0
 21 12  1  0  0  0  0
 23 13  1  0  0  0  0
 26 25  1  0  0  0  0
 27 26  2  0  0  0  0
 28 29  1  0  0  0  0
 28 26  1  0  0  0  0
 30 32  1  0  0  0  0
 30  3  1  0  0  0  0
 31 30  1  0  0  0  0
 33 30  1  0  0  0  0
M  END
>  <minimizedAffinity>
-4.81085253

$$$$

 OpenBabel03252503303D

 33 34  0  0  1  0  0  0  0  0999 V2000
   40.0350   31.8090   40.2420 C   0  0  0  0  0  0  0  0  0  0  0  0
   41.3490   31.8880   40.7980 C   0  0  0  0  0  0  0  0  0  0  0  0
   41.9690   33.1490   40.7270 C   0  0  0  0  0  0  0  0  0  0  0  0
   41.2910   34.1610   40.1530 N   0  0  0  0  0  0  0  0  0  0  0  0
   40.0430   34.0300   39.6400 C   0  0  0  0  0  0  0  0  0  0  0  0
   39.4180   32.8350   39.6900 N   0  0  0  0  0  0  0  0  0  0  0  0
   38.8370   30.2850   41.5730 C   0  0  0  0  0  0  0  0  0  0  0  0
   39.0860   31.0980   42.5130 O   0  0  0  0  0  0  0  0  0  0  0  0
   39.3280   30.5660   40.2700 N   0  0  0  0  0  0  0  0  0  0  0  0
   38.0710   29.1380   41.9250 N   0  0  0  0  0  0  0  0  0  0  0  0
   37.8690   28.7470   43.3040 C   0  0  0  0  0  0  0  0  0  0  0  0
   37.8110   27.2440   43.1980 C   0  0  0  0  0  0  0  0  0  0  0  0
   37.7780   26.8900   41.7230 C   0  0  0  0  0  0  0  0  0  0  0  0
   37.3760   28.1780   41.0680 C   0  0  1  0  0  0  0  0  0  0  0  0
   41.8080   31.0230   41.2360 H   0  0  0  0  0  0  0  0  0  0  0  0
   39.6350   34.9300   39.2150 H   0  0  0  0  0  0  0  0  0  0  0  0
   39.1250   29.8700   39.5210 H   0  0  0  0  0  0  0  0  0  0  0  0
   38.6650   29.1080   43.9770 H   0  0  0  0  0  0  0  0  0  0  0  0
   36.8450   29.0960   43.5930 H   0  0  0  0  0  0  0  0  0  0  0  0
   36.9910   26.7910   43.7600 H   0  0  0  0  0  0  0  0  0  0  0  0
   38.7990   26.8830   43.6070 H   0  0  0  0  0  0  0  0  0  0  0  0
   37.0340   26.0770   41.6130 H   0  0  0  0  0  0  0  0  0  0  0  0
   38.7530   26.5390   41.3550 H   0  0  0  0  0  0  0  0  0  0  0  0
   37.7510   28.2250   40.0270 H   0  0  0  0  0  0  0  0  0  0  0  0
   34.1450   29.2080   40.5100 H   0  0  0  0  0  0  0  0  0  0  0  0
   35.1770   29.3090   40.2270 C   0  0  0  0  0  0  0  0  0  0  0  0
   36.0180   29.8920   39.4610 O   0  0  0  0  0  0  0  0  0  0  0  0
   35.9600   28.4190   41.0490 N   0  0  0  0  0  0  0  0  0  0  0  0
   35.6020   27.7660   41.8090 H   0  0  0  0  0  0  0  0  0  0  0  0
   43.3090   33.2040   41.3020 C   0  0  0  0  0  0  0  0  0  0  0  0
   44.0650   34.1260   40.5730 F   0  0  0  0  0  0  0  0  0  0  0  0
   43.9080   31.9640   41.0590 F   0  0  0  0  0  0  0  0  0  0  0  0
   43.3330   33.5810   42.6120 F   0  0  0  0  0  0  0  0  0  0  0  0
  1  9  1  0  0  0  0
  1  2  1  0  0  0  0
  2 15  1  0  0  0  0
  3  2  2  0  0  0  0
  3 30  1  0  0  0  0
  4  3  1  0  0  0  0
  5  6  1  0  0  0  0
  5  4  2  0  0  0  0
  6  1  2  0  0  0  0
  7 10  1  0  0  0  0
  7  8  2  0  0  0  0
  9  7  1  0  0  0  0
 10 11  1  0  0  0  0
 11 19  1  0  0  0  0
 11 18  1  0  0  0  0
 12 11  1  0  0  0  0
 12 21  1  0  0  0  0
 12 20  1  0  0  0  0
 13 12  1  0  0  0  0
 14 24  1  6  0  0  0
 14 13  1  0  0  0  0
 14 10  1  0  0  0  0
 16  5  1  0  0  0  0
 17  9  1  0  0  0  0
 22 13  1  0  0  0  0
 23 13  1  0  0  0  0
 26 25  1  0  0  0  0
 26 28  1  0  0  0  0
 27 26  2  0  0  0  0
 28 14  1  0  0  0  0
 28 29  1  0  0  0  0
 30 33  1  0  0  0  0
 31 30  1  0  0  0  0
 32 30  1  0  0  0  0
M  END
>  <minimizedAffinity>
-4.76953745

$$$$

 OpenBabel03252503303D

 33 34  0  0  1  0  0  0  0  0999 V2000
   38.1300   29.1850   40.7860 C   0  0  0  0  0  0  0  0  0  0  0  0
   38.5470   30.5090   40.4460 C   0  0  0  0  0  0  0  0  0  0  0  0
   37.5210   31.4650   40.3340 C   0  0  0  0  0  0  0  0  0  0  0  0
   36.2530   31.0660   40.5510 N   0  0  0  0  0  0  0  0  0  0  0  0
   35.9120   29.7940   40.8710 C   0  0  0  0  0  0  0  0  0  0  0  0
   36.8700   28.8510   40.9870 N   0  0  0  0  0  0  0  0  0  0  0  0
   39.8240   28.2770   42.1390 C   0  0  0  0  0  0  0  0  0  0  0  0
   39.5610   29.2480   42.9090 O   0  0  0  0  0  0  0  0  0  0  0  0
   39.1050   28.1480   40.9210 N   0  0  0  0  0  0  0  0  0  0  0  0
   40.8440   27.3880   42.5810 N   0  0  0  0  0  0  0  0  0  0  0  0
   41.7470   27.7350   43.6580 C   0  0  0  0  0  0  0  0  0  0  0  0
   43.0170   27.0350   43.2390 C   0  0  0  0  0  0  0  0  0  0  0  0
   42.6850   26.1600   42.0460 C   0  0  0  0  0  0  0  0  0  0  0  0
   41.1900   26.0490   42.1040 C   0  0  1  0  0  0  0  0  0  0  0  0
   39.5850   30.7300   40.2930 H   0  0  0  0  0  0  0  0  0  0  0  0
   34.8580   29.6330   41.0130 H   0  0  0  0  0  0  0  0  0  0  0  0
   39.3570   27.3510   40.2980 H   0  0  0  0  0  0  0  0  0  0  0  0
   41.8700   28.8230   43.7860 H   0  0  0  0  0  0  0  0  0  0  0  0
   41.3720   27.2140   44.5750 H   0  0  0  0  0  0  0  0  0  0  0  0
   43.5050   26.4840   44.0450 H   0  0  0  0  0  0  0  0  0  0  0  0
   43.6970   27.8580   42.8730 H   0  0  0  0  0  0  0  0  0  0  0  0
   43.2150   25.2010   42.2040 H   0  0  0  0  0  0  0  0  0  0  0  0
   43.0170   26.6030   41.0960 H   0  0  0  0  0  0  0  0  0  0  0  0
   40.7690   25.8610   41.0970 H   0  0  0  0  0  0  0  0  0  0  0  0
   39.4660   23.6140   43.8090 H   0  0  0  0  0  0  0  0  0  0  0  0
   39.4670   24.2900   42.9740 C   0  0  0  0  0  0  0  0  0  0  0  0
   38.8270   24.7220   41.9540 O   0  0  0  0  0  0  0  0  0  0  0  0
   40.7030   25.0320   42.9940 N   0  0  0  0  0  0  0  0  0  0  0  0
   41.4930   24.9440   43.7010 H   0  0  0  0  0  0  0  0  0  0  0  0
   37.9720   32.8090   39.9870 C   0  0  0  0  0  0  0  0  0  0  0  0
   36.8810   33.5270   39.4930 F   0  0  0  0  0  0  0  0  0  0  0  0
   38.8470   32.6770   38.9030 F   0  0  0  0  0  0  0  0  0  0  0  0
   38.4950   33.5030   41.0370 F   0  0  0  0  0  0  0  0  0  0  0  0
  1  9  1  0  0  0  0
  1  6  1  0  0  0  0
  2  1  2  0  0  0  0
  3  2  1  0  0  0  0
  3  4  2  0  0  0  0
  4  5  1  0  0  0  0
  5  6  2  0  0  0  0
  5 16  1  0  0  0  0
  7 10  1  0  0  0  0
  7  8  2  0  0  0  0
  9  7  1  0  0  0  0
 10 11  1  0  0  0  0
 11 18  1  0  0  0  0
 11 19  1  0  0  0  0
 12 11  1  0  0  0  0
 12 20  1  0  0  0  0
 13 14  1  0  0  0  0
 13 22  1  0  0  0  0
 13 12  1  0  0  0  0
 14 24  1  6  0  0  0
 14 10  1  0  0  0  0
 14 28  1  0  0  0  0
 15  2  1  0  0  0  0
 17  9  1  0  0  0  0
 21 12  1  0  0  0  0
 23 13  1  0  0  0  0
 26 28  1  0  0  0  0
 26 25  1  0  0  0  0
 27 26  2  0  0  0  0
 28 29  1  0  0  0  0
 30  3  1  0  0  0  0
 30 33  1  0  0  0  0
 31 30  1  0  0  0  0
 32 30  1  0  0  0  0
M  END
>  <minimizedAffinity>
-4.76931238

$$$$
