
     RDKit          3D

 30 31  0  0  0  0  0  0  0  0999 V2000
   43.8582   33.5788   40.6476 C   0  0  0  0  0  0  0  0  0  0  0  0
   40.3775   34.7937   41.4731 C   0  0  0  0  0  0  0  0  0  0  0  0
   41.7493   34.8373   41.1039 C   0  0  0  0  0  0  0  0  0  0  0  0
   42.4170   33.6271   41.0276 C   0  0  0  0  0  0  0  0  0  0  0  0
   41.7296   32.4680   41.3082 N   0  0  0  0  0  0  0  0  0  0  0  0
   40.4332   32.4837   41.6523 C   0  0  0  0  0  0  0  0  0  0  0  0
   39.7528   33.6513   41.7355 N   0  0  0  0  0  0  0  0  0  0  0  0
   44.6764   34.0569   41.8502 C   0  0  0  0  0  0  0  0  0  0  0  0
   46.0467   34.3813   41.4232 C   0  0  0  0  0  0  0  0  0  0  0  0
   46.6307   34.0389   40.2322 C   0  0  0  0  0  0  0  0  0  0  0  0
   47.9245   34.3711   39.8832 C   0  0  0  0  0  0  0  0  0  0  0  0
   48.6687   35.0978   40.8069 C   0  0  0  0  0  0  0  0  0  0  0  0
   48.1083   35.4558   42.0116 C   0  0  0  0  0  0  0  0  0  0  0  0
   46.8243   35.1073   42.3183 C   0  0  0  0  0  0  0  0  0  0  0  0
   44.1574   32.5781   40.3286 H   0  0  0  0  0  0  0  0  0  0  0  0
   44.0001   34.3573   39.8650 H   0  0  0  0  0  0  0  0  0  0  0  0
   39.9491   35.8035   41.5025 H   0  0  0  0  0  0  0  0  0  0  0  0
   42.2706   35.7569   40.8878 H   0  0  0  0  0  0  0  0  0  0  0  0
   39.8778   31.5822   41.8760 H   0  0  0  0  0  0  0  0  0  0  0  0
   44.2010   35.0374   42.1335 H   0  0  0  0  0  0  0  0  0  0  0  0
   44.5934   33.4029   42.7200 H   0  0  0  0  0  0  0  0  0  0  0  0
   46.0233   33.4758   39.5414 H   0  0  0  0  0  0  0  0  0  0  0  0
   48.2822   34.0488   38.9176 H   0  0  0  0  0  0  0  0  0  0  0  0
   49.6895   35.3590   40.5298 H   0  0  0  0  0  0  0  0  0  0  0  0
   48.7280   36.0186   42.6918 H   0  0  0  0  0  0  0  0  0  0  0  0
   45.6851   37.5785   44.3331 H   0  0  0  0  0  0  0  0  0  0  0  0
   46.0662   36.9299   43.5385 C   0  0  0  0  0  0  0  0  0  0  0  0
   46.2796   37.5220   42.4496 O   0  0  0  0  0  0  0  0  0  0  0  0
   46.3424   35.5284   43.5918 N   0  0  0  0  0  0  0  0  0  0  0  0
   46.1501   35.0852   44.5125 H   0  0  0  0  0  0  0  0  0  0  0  0
  1  4  1  0
  1  8  1  0
  2  7  2  0
  3  2  1  0
  4  3  2  0
  4  5  1  0
  5  6  2  0
  6  7  1  0
  9  8  1  0
  9 14  1  0
 10  9  2  0
 11 10  1  0
 11 12  2  0
 12 13  1  0
 13 14  2  0
  1 15  1  0
  1 16  1  0
  2 17  1  0
  3 18  1  0
  6 19  1  0
  8 20  1  0
  8 21  1  0
 10 22  1  0
 11 23  1  0
 12 24  1  0
 13 25  1  0
 26 27  1  0
 27 28  2  0
 27 29  1  0
 29 30  1  0
 14 29  1  0
M  ISO  8  15   8  16   8  17  14  18  14  19  14  20   8  21   8  22  14
M  ISO  4  23  14  24  14  25  14  26   1
M  END
>  <DihAtoms>  (1) 
8,13,28,26

>  <DihDeg>  (1) 
90.00857708181522

$$$$
