
 OpenBabel03252508203D

 30 31  0  0  0  0  0  0  0  0999 V2000
   44.9630   33.3700   41.1570 C   0  0  0  0  0  0  0  0  0  0  0  0
   44.4640   33.8320   42.0530 H   0  0  0  0  0  0  0  0  0  0  0  0
   44.9990   32.2930   41.3360 H   0  0  0  0  0  0  0  0  0  0  0  0
   46.2680   34.0400   41.0300 C   0  0  0  0  0  0  0  0  0  0  0  0
   47.0910   34.0180   39.9350 C   0  0  0  0  0  0  0  0  0  0  0  0
   48.3080   34.6670   39.8710 C   0  0  0  0  0  0  0  0  0  0  0  0
   48.7090   35.3840   40.9940 C   0  0  0  0  0  0  0  0  0  0  0  0
   47.9020   35.4240   42.1080 C   0  0  0  0  0  0  0  0  0  0  0  0
   46.7050   34.7670   42.1300 C   0  0  0  0  0  0  0  0  0  0  0  0
   46.7460   33.4520   39.0840 H   0  0  0  0  0  0  0  0  0  0  0  0
   48.8740   34.5820   38.9580 H   0  0  0  0  0  0  0  0  0  0  0  0
   49.6700   35.8960   40.9420 H   0  0  0  0  0  0  0  0  0  0  0  0
   48.2600   35.9940   42.9510 H   0  0  0  0  0  0  0  0  0  0  0  0
   46.1260   33.7570   45.3100 H   0  0  0  0  0  0  0  0  0  0  0  0
   46.4660   33.9430   44.2870 C   0  0  0  0  0  0  0  0  0  0  0  0
   47.4390   33.2290   43.9310 O   0  0  0  0  0  0  0  0  0  0  0  0
   45.9480   34.8740   43.3340 N   0  0  0  0  0  0  0  0  0  0  0  0
   45.1460   35.4410   43.6760 H   0  0  0  0  0  0  0  0  0  0  0  0
   44.0620   33.7630   39.9830 C   0  0  0  0  0  0  0  0  0  0  0  0
   43.9970   32.9640   39.2410 H   0  0  0  0  0  0  0  0  0  0  0  0
   44.4920   34.7080   39.5840 H   0  0  0  0  0  0  0  0  0  0  0  0
   41.2140   35.5710   41.6830 C   0  0  0  0  0  0  0  0  0  0  0  0
   42.5220   35.3160   41.1880 C   0  0  0  0  0  0  0  0  0  0  0  0
   42.7220   34.1120   40.5340 C   0  0  0  0  0  0  0  0  0  0  0  0
   41.6630   33.2430   40.3990 N   0  0  0  0  0  0  0  0  0  0  0  0
   40.4470   33.5340   40.8860 C   0  0  0  0  0  0  0  0  0  0  0  0
   40.2200   34.7020   41.5310 N   0  0  0  0  0  0  0  0  0  0  0  0
   41.1680   36.5470   42.1800 H   0  0  0  0  0  0  0  0  0  0  0  0
   43.3400   36.0110   41.3040 H   0  0  0  0  0  0  0  0  0  0  0  0
   39.6040   32.8620   40.7890 H   0  0  0  0  0  0  0  0  0  0  0  0
  1  3  1  0  0  0  0
  1  2  1  0  0  0  0
  4  1  1  0  0  0  0
  4  9  1  0  0  0  0
  5  4  2  0  0  0  0
  6  5  1  0  0  0  0
  6  7  2  0  0  0  0
  7  8  1  0  0  0  0
  8  9  2  0  0  0  0
  8 13  1  0  0  0  0
  9 17  1  0  0  0  0
 10  5  1  0  0  0  0
 11  6  1  0  0  0  0
 12  7  1  0  0  0  0
 15 14  1  0  0  0  0
 16 15  2  0  0  0  0
 17 18  1  0  0  0  0
 17 15  1  0  0  0  0
 19 24  1  0  0  0  0
 19  1  1  0  0  0  0
 20 19  1  0  0  0  0
 21 19  1  0  0  0  0
 22 28  1  0  0  0  0
 23 29  1  0  0  0  0
 23 22  2  0  0  0  0
 24 23  1  0  0  0  0
 25 24  2  0  0  0  0
 25 26  1  0  0  0  0
 26 27  2  0  0  0  0
 27 22  1  0  0  0  0
 30 26  1  0  0  0  0
M  END
>  <minimizedAffinity>
-4.67585325

>  <minimizedRMSD>
0.985551298

$$$$
