REMARK  Name = 
REMARK  8 active torsions:
REMARK  status: ('A' for Active; 'I' for Inactive)
REMARK    1  A    between atoms: O_1  and  C_2
REMARK    2  A    between atoms: O_1  and  P_10
REMARK    3  A    between atoms: C_6  and  C_7
REMARK    4  A    between atoms: C_7  and  O_8
REMARK    5  A    between atoms: P_10  and  O_11
REMARK    6  A    between atoms: P_10  and  O_12
REMARK    7  A    between atoms: O_12  and  C_13
REMARK    8  A    between atoms: C_13  and  C_16
REMARK                            x       y       z     vdW  Elec       q    Type
REMARK                         _______ _______ _______ _____ _____    ______ ____
ROOT
ATOM      1  O   UNL     1      44.723  35.346  44.992  0.00  0.00    +0.000 OA
ATOM      2  P   UNL     1      45.579  34.237  44.412  0.00  0.00    +0.000 P 
ENDROOT
BRANCH   2   3
ATOM      3  O   UNL     1      44.605  33.040  43.716  0.00  0.00    +0.000 OA
ATOM      4  H   UNL     1      43.881  33.417  43.149  0.00  0.00    +0.000 HD
ENDBRANCH   2   3
BRANCH   2   5
ATOM      5  O   UNL     1      46.573  34.909  43.248  0.00  0.00    +0.000 OA
BRANCH   5   6
ATOM      6  C   UNL     1      46.802  33.977  42.228  0.00  0.00    +0.000 C 
ATOM      7  C   UNL     1      46.075  34.415  40.954  0.00  0.00    +0.000 C 
ATOM      8  C   UNL     1      46.686  33.480  39.946  0.00  0.00    +0.000 C 
ATOM      9  C   UNL     1      48.072  33.139  40.474  0.00  0.00    +0.000 C 
ATOM     10  C   UNL     1      48.218  33.961  41.745  0.00  0.00    +0.000 C 
ATOM     11  H   UNL     1      46.442  32.976  42.452  0.00  0.00    +0.000 HD
ATOM     12  H   UNL     1      44.962  34.249  41.053  0.00  0.00    +0.000 HD
ATOM     13  H   UNL     1      46.194  35.467  40.713  0.00  0.00    +0.000 HD
ATOM     14  H   UNL     1      46.031  32.599  39.864  0.00  0.00    +0.000 HD
ATOM     15  H   UNL     1      46.755  34.014  38.969  0.00  0.00    +0.000 HD
ATOM     16  H   UNL     1      48.038  32.074  40.782  0.00  0.00    +0.000 HD
ATOM     17  H   UNL     1      48.860  33.366  39.736  0.00  0.00    +0.000 HD
ATOM     18  H   UNL     1      48.816  33.388  42.483  0.00  0.00    +0.000 HD
BRANCH  10  19
ATOM     19  C   UNL     1      48.761  35.332  41.462  0.00  0.00    +0.000 C 
ATOM     20  H   UNL     1      49.322  35.275  40.487  0.00  0.00    +0.000 HD
ATOM     21  H   UNL     1      48.008  36.127  41.370  0.00  0.00    +0.000 HD
BRANCH  19  22
ATOM     22  O   UNL     1      49.658  35.755  42.420  0.00  0.00    +0.000 OA
ATOM     23  H   UNL     1      50.161  36.529  42.104  0.00  0.00    +0.000 HD
ENDBRANCH  19  22
ENDBRANCH  10  19
ENDBRANCH   5   6
ENDBRANCH   2   5
BRANCH   2  24
ATOM     24  O   UNL     1      46.475  33.497  45.607  0.00  0.00    +0.000 OA
BRANCH  24  25
ATOM     25  C   UNL     1      46.241  32.155  45.570  0.00  0.00    +0.000 C 
ATOM     26  H   UNL     1      47.220  31.671  45.286  0.00  0.00    +0.000 HD
ATOM     27  H   UNL     1      45.520  31.780  44.849  0.00  0.00    +0.000 HD
BRANCH  25  30
ATOM     28  C   UNL     1      45.649  31.909  49.240  0.00  0.00    +0.000 A 
ATOM     29  C   UNL     1      45.988  32.453  47.990  0.00  0.00    +0.000 A 
ATOM     30  C   UNL     1      45.889  31.607  46.894  0.00  0.00    +0.000 A 
ATOM     31  N   UNL     1      45.474  30.309  47.074  0.00  0.00    +0.000 NA
ATOM     32  C   UNL     1      45.154  29.814  48.286  0.00  0.00    +0.000 A 
ATOM     33  N   UNL     1      45.243  30.611  49.358  0.00  0.00    +0.000 NA
ATOM     34  H   UNL     1      45.697  32.495  50.149  0.00  0.00    +0.000 HD
ATOM     35  H   UNL     1      46.303  33.466  47.916  0.00  0.00    +0.000 HD
ATOM     36  H   UNL     1      45.590  26.528  49.224  0.00  0.00    +0.000 HD
ATOM     37  C   UNL     1      45.698  27.589  49.013  0.00  0.00    +0.000 C 
ATOM     38  O   UNL     1      46.855  27.992  49.342  0.00  0.00    +0.000 OA
ATOM     39  N   UNL     1      44.727  28.466  48.448  0.00  0.00    +0.000 N 
ATOM     40  H   UNL     1      43.793  28.017  48.212  0.00  0.00    +0.000 HD
ENDBRANCH  25  30
ENDBRANCH  24  25
ENDBRANCH   2  24
TORSDOF 8
