
 OpenBabel03252502543D

 27 28  0  0  0  0  0  0  0  0999 V2000
   37.8890   32.7350   39.9880 Br  0  0  0  0  0  0  0  0  0  0  0  0
   37.3110   31.2980   38.8350 C   0  0  0  0  0  0  0  0  0  0  0  0
   36.4570   30.3900   39.4080 C   0  0  0  0  0  0  0  0  0  0  0  0
   36.0600   29.3600   38.5410 C   0  0  0  0  0  0  0  0  0  0  0  0
   36.4840   29.2630   37.2290 C   0  0  0  0  0  0  0  0  0  0  0  0
   37.3340   30.2100   36.7410 C   0  0  0  0  0  0  0  0  0  0  0  0
   37.7600   31.2460   37.5430 C   0  0  0  0  0  0  0  0  0  0  0  0
   35.3770   28.5660   38.8700 H   0  0  0  0  0  0  0  0  0  0  0  0
   36.1780   28.4780   36.5760 H   0  0  0  0  0  0  0  0  0  0  0  0
   37.7000   30.1960   35.7390 H   0  0  0  0  0  0  0  0  0  0  0  0
   40.8470   32.5080   36.9780 H   0  0  0  0  0  0  0  0  0  0  0  0
   40.0200   31.8450   37.2730 C   0  0  0  0  0  0  0  0  0  0  0  0
   39.9920   30.6750   37.7890 O   0  0  0  0  0  0  0  0  0  0  0  0
   38.6580   32.2780   37.0850 N   0  0  0  0  0  0  0  0  0  0  0  0
   38.4250   33.2250   36.6680 H   0  0  0  0  0  0  0  0  0  0  0  0
   35.9410   30.3900   40.7840 C   0  0  0  0  0  0  0  0  0  0  0  0
   34.9060   29.9900   40.7630 H   0  0  0  0  0  0  0  0  0  0  0  0
   35.8670   31.4090   41.2080 H   0  0  0  0  0  0  0  0  0  0  0  0
   38.5180   29.0060   43.1010 C   0  0  0  0  0  0  0  0  0  0  0  0
   38.0420   27.7230   43.3480 C   0  0  0  0  0  0  0  0  0  0  0  0
   36.8590   27.3540   42.7250 C   0  0  0  0  0  0  0  0  0  0  0  0
   36.2230   28.2500   41.9090 N   0  0  0  0  0  0  0  0  0  0  0  0
   36.7260   29.4990   41.6960 C   0  0  0  0  0  0  0  0  0  0  0  0
   37.8760   29.8450   42.3060 N   0  0  0  0  0  0  0  0  0  0  0  0
   39.4400   29.4090   43.5360 H   0  0  0  0  0  0  0  0  0  0  0  0
   38.6080   27.0770   44.0070 H   0  0  0  0  0  0  0  0  0  0  0  0
   36.4680   26.3620   42.9010 H   0  0  0  0  0  0  0  0  0  0  0  0
  2  3  1  0  0  0  0
  2  1  1  0  0  0  0
  3 16  1  0  0  0  0
  4  8  1  0  0  0  0
  4  3  2  0  0  0  0
  5  4  1  0  0  0  0
  6  5  2  0  0  0  0
  6  7  1  0  0  0  0
  7  2  2  0  0  0  0
  9  5  1  0  0  0  0
 10  6  1  0  0  0  0
 11 12  1  0  0  0  0
 12 13  2  0  0  0  0
 14 12  1  0  0  0  0
 14  7  1  0  0  0  0
 15 14  1  0  0  0  0
 16 18  1  0  0  0  0
 16 23  1  0  0  0  0
 17 16  1  0  0  0  0
 19 20  1  0  0  0  0
 19 25  1  0  0  0  0
 20 26  1  0  0  0  0
 21 27  1  0  0  0  0
 21 20  2  0  0  0  0
 22 21  1  0  0  0  0
 23 22  2  0  0  0  0
 23 24  1  0  0  0  0
 24 19  2  0  0  0  0
M  END
>  <minimizedAffinity>
-4.94561338

$$$$

 OpenBabel03252502543D

 27 28  0  0  0  0  0  0  0  0999 V2000
   36.5450   26.5300   39.1750 Br  0  0  0  0  0  0  0  0  0  0  0  0
   37.1120   27.0080   40.9580 C   0  0  0  0  0  0  0  0  0  0  0  0
   36.5630   28.1600   41.4620 C   0  0  0  0  0  0  0  0  0  0  0  0
   36.9990   28.4750   42.7580 C   0  0  0  0  0  0  0  0  0  0  0  0
   37.8970   27.7030   43.4690 C   0  0  0  0  0  0  0  0  0  0  0  0
   38.3940   26.5730   42.8900 C   0  0  0  0  0  0  0  0  0  0  0  0
   38.0050   26.2090   41.6200 C   0  0  0  0  0  0  0  0  0  0  0  0
   36.6370   29.3700   43.2810 H   0  0  0  0  0  0  0  0  0  0  0  0
   38.2240   27.9480   44.4530 H   0  0  0  0  0  0  0  0  0  0  0  0
   39.0910   25.9310   43.3820 H   0  0  0  0  0  0  0  0  0  0  0  0
   37.9590   22.8900   40.9730 H   0  0  0  0  0  0  0  0  0  0  0  0
   37.7260   23.8850   41.3800 C   0  0  0  0  0  0  0  0  0  0  0  0
   36.8500   24.2920   42.2170 O   0  0  0  0  0  0  0  0  0  0  0  0
   38.4950   25.0270   40.9540 N   0  0  0  0  0  0  0  0  0  0  0  0
   39.2860   24.9390   40.2540 H   0  0  0  0  0  0  0  0  0  0  0  0
   35.6030   29.0570   40.8030 C   0  0  0  0  0  0  0  0  0  0  0  0
   34.9240   29.4650   41.5810 H   0  0  0  0  0  0  0  0  0  0  0  0
   34.9560   28.5280   40.0790 H   0  0  0  0  0  0  0  0  0  0  0  0
   37.2240   32.3570   40.1590 C   0  0  0  0  0  0  0  0  0  0  0  0
   37.4740   32.3060   38.7920 C   0  0  0  0  0  0  0  0  0  0  0  0
   37.0890   31.1570   38.1180 C   0  0  0  0  0  0  0  0  0  0  0  0
   36.4900   30.1410   38.8120 N   0  0  0  0  0  0  0  0  0  0  0  0
   36.2640   30.2330   40.1530 C   0  0  0  0  0  0  0  0  0  0  0  0
   36.6420   31.3550   40.7960 N   0  0  0  0  0  0  0  0  0  0  0  0
   37.4820   33.2100   40.7950 H   0  0  0  0  0  0  0  0  0  0  0  0
   37.9520   33.1550   38.3200 H   0  0  0  0  0  0  0  0  0  0  0  0
   37.2720   31.0930   37.0550 H   0  0  0  0  0  0  0  0  0  0  0  0
  1  2  1  0  0  0  0
  2  3  2  0  0  0  0
  2  7  1  0  0  0  0
  3  4  1  0  0  0  0
  4  8  1  0  0  0  0
  4  5  2  0  0  0  0
  5  9  1  0  0  0  0
  6 10  1  0  0  0  0
  6  5  1  0  0  0  0
  7  6  2  0  0  0  0
 11 12  1  0  0  0  0
 12 13  2  0  0  0  0
 14 12  1  0  0  0  0
 14  7  1  0  0  0  0
 15 14  1  0  0  0  0
 16  3  1  0  0  0  0
 16 17  1  0  0  0  0
 18 16  1  0  0  0  0
 19 25  1  0  0  0  0
 19 24  1  0  0  0  0
 20 19  2  0  0  0  0
 21 20  1  0  0  0  0
 21 22  2  0  0  0  0
 22 23  1  0  0  0  0
 23 24  2  0  0  0  0
 23 16  1  0  0  0  0
 26 20  1  0  0  0  0
 27 21  1  0  0  0  0
M  END
>  <minimizedAffinity>
-4.92183495

$$$$

 OpenBabel03252502543D

 27 28  0  0  0  0  0  0  0  0999 V2000
   37.7880   30.6750   37.6340 Br  0  0  0  0  0  0  0  0  0  0  0  0
   38.6540   31.9520   38.7960 C   0  0  0  0  0  0  0  0  0  0  0  0
   38.0650   32.1250   40.0230 C   0  0  0  0  0  0  0  0  0  0  0  0
   38.7200   33.0600   40.8390 C   0  0  0  0  0  0  0  0  0  0  0  0
   39.8550   33.7470   40.4510 C   0  0  0  0  0  0  0  0  0  0  0  0
   40.3730   33.5120   39.2120 C   0  0  0  0  0  0  0  0  0  0  0  0
   39.7760   32.6060   38.3650 C   0  0  0  0  0  0  0  0  0  0  0  0
   38.3550   33.2950   41.8470 H   0  0  0  0  0  0  0  0  0  0  0  0
   40.3480   34.4550   41.0750 H   0  0  0  0  0  0  0  0  0  0  0  0
   41.2470   34.0070   38.8490 H   0  0  0  0  0  0  0  0  0  0  0  0
   41.9360   31.1160   36.2310 H   0  0  0  0  0  0  0  0  0  0  0  0
   41.4210   31.4450   37.1450 C   0  0  0  0  0  0  0  0  0  0  0  0
   41.6250   31.2110   38.3850 O   0  0  0  0  0  0  0  0  0  0  0  0
   40.2760   32.3150   37.0430 N   0  0  0  0  0  0  0  0  0  0  0  0
   39.9100   32.6500   36.1050 H   0  0  0  0  0  0  0  0  0  0  0  0
   36.8640   31.4550   40.5430 C   0  0  0  0  0  0  0  0  0  0  0  0
   36.2660   31.1020   39.6780 H   0  0  0  0  0  0  0  0  0  0  0  0
   36.2080   32.1420   41.1090 H   0  0  0  0  0  0  0  0  0  0  0  0
   38.4930   29.0200   42.8560 C   0  0  0  0  0  0  0  0  0  0  0  0
   37.6260   27.9340   42.8070 C   0  0  0  0  0  0  0  0  0  0  0  0
   36.5100   28.0490   41.9920 C   0  0  0  0  0  0  0  0  0  0  0  0
   36.3120   29.2030   41.2840 N   0  0  0  0  0  0  0  0  0  0  0  0
   37.1880   30.2440   41.3630 C   0  0  0  0  0  0  0  0  0  0  0  0
   38.2690   30.1200   42.1570 N   0  0  0  0  0  0  0  0  0  0  0  0
   39.4050   29.0470   43.4620 H   0  0  0  0  0  0  0  0  0  0  0  0
   37.8590   27.0580   43.3980 H   0  0  0  0  0  0  0  0  0  0  0  0
   35.8210   27.2180   41.9360 H   0  0  0  0  0  0  0  0  0  0  0  0
  1  2  1  0  0  0  0
  2  3  1  0  0  0  0
  3 16  1  0  0  0  0
  3  4  2  0  0  0  0
  4  8  1  0  0  0  0
  5  4  1  0  0  0  0
  5  9  1  0  0  0  0
  6  5  2  0  0  0  0
  7  2  2  0  0  0  0
  7  6  1  0  0  0  0
 10  6  1  0  0  0  0
 11 12  1  0  0  0  0
 12 13  2  0  0  0  0
 14 12  1  0  0  0  0
 14  7  1  0  0  0  0
 15 14  1  0  0  0  0
 16 18  1  0  0  0  0
 16 23  1  0  0  0  0
 17 16  1  0  0  0  0
 19 25  1  0  0  0  0
 20 19  1  0  0  0  0
 20 26  1  0  0  0  0
 21 20  2  0  0  0  0
 22 23  2  0  0  0  0
 22 21  1  0  0  0  0
 23 24  1  0  0  0  0
 24 19  2  0  0  0  0
 27 21  1  0  0  0  0
M  END
>  <minimizedAffinity>
-4.81473923

$$$$

 OpenBabel03252502543D

 27 28  0  0  0  0  0  0  0  0999 V2000
   40.2370   27.7980   40.6080 Br  0  0  0  0  0  0  0  0  0  0  0  0
   38.7290   27.6280   41.8030 C   0  0  0  0  0  0  0  0  0  0  0  0
   38.4590   28.7310   42.5710 C   0  0  0  0  0  0  0  0  0  0  0  0
   37.3580   28.5700   43.4270 C   0  0  0  0  0  0  0  0  0  0  0  0
   36.6100   27.4110   43.4950 C   0  0  0  0  0  0  0  0  0  0  0  0
   36.9490   26.3610   42.6940 C   0  0  0  0  0  0  0  0  0  0  0  0
   38.0190   26.4580   41.8330 C   0  0  0  0  0  0  0  0  0  0  0  0
   37.0320   29.3760   44.0970 H   0  0  0  0  0  0  0  0  0  0  0  0
   35.7750   27.2950   44.1470 H   0  0  0  0  0  0  0  0  0  0  0  0
   36.4140   25.4370   42.6960 H   0  0  0  0  0  0  0  0  0  0  0  0
   39.5710   23.5160   41.2150 H   0  0  0  0  0  0  0  0  0  0  0  0
   39.1760   24.4110   41.7190 C   0  0  0  0  0  0  0  0  0  0  0  0
   39.2360   24.8190   42.9290 O   0  0  0  0  0  0  0  0  0  0  0  0
   38.4290   25.3830   40.9610 N   0  0  0  0  0  0  0  0  0  0  0  0
   38.2440   25.2620   39.9240 H   0  0  0  0  0  0  0  0  0  0  0  0
   39.1810   30.0120   42.5850 C   0  0  0  0  0  0  0  0  0  0  0  0
   40.2200   29.8240   42.2450 H   0  0  0  0  0  0  0  0  0  0  0  0
   39.2640   30.4400   43.6020 H   0  0  0  0  0  0  0  0  0  0  0  0
   36.9510   31.8100   40.1930 C   0  0  0  0  0  0  0  0  0  0  0  0
   37.6690   32.9710   39.9290 C   0  0  0  0  0  0  0  0  0  0  0  0
   38.8920   33.1210   40.5660 C   0  0  0  0  0  0  0  0  0  0  0  0
   39.3330   32.1390   41.4110 N   0  0  0  0  0  0  0  0  0  0  0  0
   38.5950   31.0160   41.6410 C   0  0  0  0  0  0  0  0  0  0  0  0
   37.4090   30.8820   41.0160 N   0  0  0  0  0  0  0  0  0  0  0  0
   35.9760   31.5810   39.7500 H   0  0  0  0  0  0  0  0  0  0  0  0
   37.2470   33.6980   39.2460 H   0  0  0  0  0  0  0  0  0  0  0  0
   39.4690   34.0150   40.3770 H   0  0  0  0  0  0  0  0  0  0  0  0
  1  2  1  0  0  0  0
  2  7  2  0  0  0  0
  2  3  1  0  0  0  0
  3 16  1  0  0  0  0
  3  4  2  0  0  0  0
  4  5  1  0  0  0  0
  4  8  1  0  0  0  0
  5  9  1  0  0  0  0
  6 10  1  0  0  0  0
  6  5  2  0  0  0  0
  7  6  1  0  0  0  0
 11 12  1  0  0  0  0
 12 13  2  0  0  0  0
 14 12  1  0  0  0  0
 14  7  1  0  0  0  0
 15 14  1  0  0  0  0
 16 18  1  0  0  0  0
 17 16  1  0  0  0  0
 19 24  1  0  0  0  0
 20 19  2  0  0  0  0
 20 21  1  0  0  0  0
 21 22  2  0  0  0  0
 22 23  1  0  0  0  0
 23 16  1  0  0  0  0
 24 23  2  0  0  0  0
 25 19  1  0  0  0  0
 26 20  1  0  0  0  0
 27 21  1  0  0  0  0
M  END
>  <minimizedAffinity>
-4.79249287

$$$$

 OpenBabel03252502543D

 27 28  0  0  0  0  0  0  0  0999 V2000
   38.6430   28.9830   37.3070 Br  0  0  0  0  0  0  0  0  0  0  0  0
   37.9480   30.3910   38.4300 C   0  0  0  0  0  0  0  0  0  0  0  0
   37.1510   29.9790   39.4680 C   0  0  0  0  0  0  0  0  0  0  0  0
   36.6640   31.0290   40.2610 C   0  0  0  0  0  0  0  0  0  0  0  0
   36.9550   32.3590   40.0260 C   0  0  0  0  0  0  0  0  0  0  0  0
   37.7570   32.6800   38.9710 C   0  0  0  0  0  0  0  0  0  0  0  0
   38.2660   31.6940   38.1550 C   0  0  0  0  0  0  0  0  0  0  0  0
   36.0150   30.8390   41.1260 H   0  0  0  0  0  0  0  0  0  0  0  0
   36.5830   33.1520   40.6320 H   0  0  0  0  0  0  0  0  0  0  0  0
   38.0220   33.6860   38.7330 H   0  0  0  0  0  0  0  0  0  0  0  0
   41.2600   32.4070   36.7530 H   0  0  0  0  0  0  0  0  0  0  0  0
   40.4680   32.1830   37.4830 C   0  0  0  0  0  0  0  0  0  0  0  0
   40.4740   32.0590   38.7550 O   0  0  0  0  0  0  0  0  0  0  0  0
   39.1180   31.9690   37.0240 N   0  0  0  0  0  0  0  0  0  0  0  0
   38.8620   32.0210   35.9960 H   0  0  0  0  0  0  0  0  0  0  0  0
   36.7740   28.6010   39.8140 C   0  0  0  0  0  0  0  0  0  0  0  0
   37.2900   27.9160   39.1100 H   0  0  0  0  0  0  0  0  0  0  0  0
   35.6910   28.4130   39.6860 H   0  0  0  0  0  0  0  0  0  0  0  0
   36.8400   27.5840   43.4050 C   0  0  0  0  0  0  0  0  0  0  0  0
   38.2030   27.5070   43.6690 C   0  0  0  0  0  0  0  0  0  0  0  0
   39.0690   27.8000   42.6280 C   0  0  0  0  0  0  0  0  0  0  0  0
   38.5580   28.1480   41.4070 N   0  0  0  0  0  0  0  0  0  0  0  0
   37.2140   28.2100   41.1910 C   0  0  0  0  0  0  0  0  0  0  0  0
   36.3820   27.9230   42.2120 N   0  0  0  0  0  0  0  0  0  0  0  0
   36.0610   27.3750   44.1460 H   0  0  0  0  0  0  0  0  0  0  0  0
   38.5230   27.2250   44.6640 H   0  0  0  0  0  0  0  0  0  0  0  0
   40.1340   27.7470   42.8080 H   0  0  0  0  0  0  0  0  0  0  0  0
  1  2  1  0  0  0  0
  2  3  1  0  0  0  0
  3 16  1  0  0  0  0
  3  4  2  0  0  0  0
  4  8  1  0  0  0  0
  5  4  1  0  0  0  0
  5  9  1  0  0  0  0
  6  5  2  0  0  0  0
  7  2  2  0  0  0  0
  7  6  1  0  0  0  0
 10  6  1  0  0  0  0
 11 12  1  0  0  0  0
 12 13  2  0  0  0  0
 14 12  1  0  0  0  0
 14  7  1  0  0  0  0
 15 14  1  0  0  0  0
 16 23  1  0  0  0  0
 17 16  1  0  0  0  0
 18 16  1  0  0  0  0
 19 20  1  0  0  0  0
 19 25  1  0  0  0  0
 20 26  1  0  0  0  0
 21 27  1  0  0  0  0
 21 20  2  0  0  0  0
 22 21  1  0  0  0  0
 23 22  2  0  0  0  0
 23 24  1  0  0  0  0
 24 19  2  0  0  0  0
M  END
>  <minimizedAffinity>
-4.71149635

$$$$

 OpenBabel03252502543D

 27 28  0  0  0  0  0  0  0  0999 V2000
   35.8030   29.0480   40.8150 Br  0  0  0  0  0  0  0  0  0  0  0  0
   37.4410   29.8970   41.3880 C   0  0  0  0  0  0  0  0  0  0  0  0
   37.9870   29.4040   42.5460 C   0  0  0  0  0  0  0  0  0  0  0  0
   39.1740   30.0450   42.9300 C   0  0  0  0  0  0  0  0  0  0  0  0
   39.7490   31.0770   42.2140 C   0  0  0  0  0  0  0  0  0  0  0  0
   39.1380   31.5050   41.0730 C   0  0  0  0  0  0  0  0  0  0  0  0
   37.9700   30.9160   40.6430 C   0  0  0  0  0  0  0  0  0  0  0  0
   39.7160   29.7490   43.8380 H   0  0  0  0  0  0  0  0  0  0  0  0
   40.6510   31.5600   42.5110 H   0  0  0  0  0  0  0  0  0  0  0  0
   39.5270   32.2970   40.4720 H   0  0  0  0  0  0  0  0  0  0  0  0
   37.5610   30.9880   37.2860 H   0  0  0  0  0  0  0  0  0  0  0  0
   37.9520   30.7790   38.2930 C   0  0  0  0  0  0  0  0  0  0  0  0
   38.9550   30.1060   38.7090 O   0  0  0  0  0  0  0  0  0  0  0  0
   37.2770   31.3230   39.4450 N   0  0  0  0  0  0  0  0  0  0  0  0
   36.4070   31.9230   39.3520 H   0  0  0  0  0  0  0  0  0  0  0  0
   37.4690   28.3150   43.3880 C   0  0  0  0  0  0  0  0  0  0  0  0
   36.4090   28.1410   43.1110 H   0  0  0  0  0  0  0  0  0  0  0  0
   37.4650   28.5770   44.4630 H   0  0  0  0  0  0  0  0  0  0  0  0
   39.9720   25.5480   43.4430 C   0  0  0  0  0  0  0  0  0  0  0  0
   39.3670   24.5800   42.6490 C   0  0  0  0  0  0  0  0  0  0  0  0
   38.1250   24.8850   42.1130 C   0  0  0  0  0  0  0  0  0  0  0  0
   37.5580   26.1010   42.3810 N   0  0  0  0  0  0  0  0  0  0  0  0
   38.1880   27.0210   43.1650 C   0  0  0  0  0  0  0  0  0  0  0  0
   39.3940   26.7130   43.6800 N   0  0  0  0  0  0  0  0  0  0  0  0
   40.9510   25.4220   43.9190 H   0  0  0  0  0  0  0  0  0  0  0  0
   39.8850   23.6430   42.4870 H   0  0  0  0  0  0  0  0  0  0  0  0
   37.6330   24.1490   41.4930 H   0  0  0  0  0  0  0  0  0  0  0  0
  1  2  1  0  0  0  0
  2  3  1  0  0  0  0
  3  4  2  0  0  0  0
  3 16  1  0  0  0  0
  4  8  1  0  0  0  0
  5  9  1  0  0  0  0
  5  4  1  0  0  0  0
  6  5  2  0  0  0  0
  7  6  1  0  0  0  0
  7  2  2  0  0  0  0
 10  6  1  0  0  0  0
 11 12  1  0  0  0  0
 12 13  2  0  0  0  0
 12 14  1  0  0  0  0
 14  7  1  0  0  0  0
 15 14  1  0  0  0  0
 16 18  1  0  0  0  0
 17 16  1  0  0  0  0
 19 24  1  0  0  0  0
 19 25  1  0  0  0  0
 20 19  2  0  0  0  0
 21 22  2  0  0  0  0
 21 20  1  0  0  0  0
 22 23  1  0  0  0  0
 23 16  1  0  0  0  0
 23 24  2  0  0  0  0
 26 20  1  0  0  0  0
 27 21  1  0  0  0  0
M  END
>  <minimizedAffinity>
-4.67306089

$$$$

 OpenBabel03252502543D

 27 28  0  0  0  0  0  0  0  0999 V2000
   36.5910   27.1120   43.0990 Br  0  0  0  0  0  0  0  0  0  0  0  0
   38.2170   28.1330   42.8910 C   0  0  0  0  0  0  0  0  0  0  0  0
   39.3810   27.4190   43.0110 C   0  0  0  0  0  0  0  0  0  0  0  0
   40.5410   28.1940   42.8550 C   0  0  0  0  0  0  0  0  0  0  0  0
   40.5200   29.5520   42.6030 C   0  0  0  0  0  0  0  0  0  0  0  0
   39.3170   30.1840   42.4990 C   0  0  0  0  0  0  0  0  0  0  0  0
   38.1430   29.4780   42.6430 C   0  0  0  0  0  0  0  0  0  0  0  0
   41.5410   27.7480   42.9260 H   0  0  0  0  0  0  0  0  0  0  0  0
   41.4040   30.1360   42.4860 H   0  0  0  0  0  0  0  0  0  0  0  0
   39.2280   31.2300   42.3060 H   0  0  0  0  0  0  0  0  0  0  0  0
   35.5370   30.7280   40.8870 H   0  0  0  0  0  0  0  0  0  0  0  0
   36.5020   30.2730   41.1550 C   0  0  0  0  0  0  0  0  0  0  0  0
   37.4750   29.8320   40.4530 O   0  0  0  0  0  0  0  0  0  0  0  0
   36.8390   30.0880   42.5440 N   0  0  0  0  0  0  0  0  0  0  0  0
   36.1810   30.3780   43.3230 H   0  0  0  0  0  0  0  0  0  0  0  0
   39.5260   25.9800   43.2760 C   0  0  0  0  0  0  0  0  0  0  0  0
   38.7030   25.6710   43.9540 H   0  0  0  0  0  0  0  0  0  0  0  0
   40.4660   25.7400   43.8080 H   0  0  0  0  0  0  0  0  0  0  0  0
   39.9820   24.5240   39.8700 C   0  0  0  0  0  0  0  0  0  0  0  0
   39.0200   23.5210   39.8420 C   0  0  0  0  0  0  0  0  0  0  0  0
   38.2380   23.3590   40.9750 C   0  0  0  0  0  0  0  0  0  0  0  0
   38.4410   24.1770   42.0540 N   0  0  0  0  0  0  0  0  0  0  0  0
   39.3970   25.1480   42.0380 C   0  0  0  0  0  0  0  0  0  0  0  0
   40.1490   25.2960   40.9300 N   0  0  0  0  0  0  0  0  0  0  0  0
   40.6570   24.7460   39.0370 H   0  0  0  0  0  0  0  0  0  0  0  0
   38.9250   22.9180   38.9470 H   0  0  0  0  0  0  0  0  0  0  0  0
   37.4830   22.5850   40.9780 H   0  0  0  0  0  0  0  0  0  0  0  0
  2  3  1  0  0  0  0
  2  1  1  0  0  0  0
  3 16  1  0  0  0  0
  4  8  1  0  0  0  0
  4  3  2  0  0  0  0
  5  4  1  0  0  0  0
  6  5  2  0  0  0  0
  6  7  1  0  0  0  0
  7  2  2  0  0  0  0
  9  5  1  0  0  0  0
 10  6  1  0  0  0  0
 11 12  1  0  0  0  0
 12 14  1  0  0  0  0
 13 12  2  0  0  0  0
 14  7  1  0  0  0  0
 14 15  1  0  0  0  0
 16 18  1  0  0  0  0
 16 17  1  0  0  0  0
 19 24  1  0  0  0  0
 20 19  2  0  0  0  0
 20 21  1  0  0  0  0
 21 27  1  0  0  0  0
 21 22  2  0  0  0  0
 23 22  1  0  0  0  0
 23 16  1  0  0  0  0
 24 23  2  0  0  0  0
 25 19  1  0  0  0  0
 26 20  1  0  0  0  0
M  END
>  <minimizedAffinity>
-4.56351757

$$$$

 OpenBabel03252502543D

 27 28  0  0  0  0  0  0  0  0999 V2000
   39.9830   29.2300   38.8550 Br  0  0  0  0  0  0  0  0  0  0  0  0
   38.9110   30.7930   39.2250 C   0  0  0  0  0  0  0  0  0  0  0  0
   39.0350   31.3060   40.4910 C   0  0  0  0  0  0  0  0  0  0  0  0
   38.2410   32.4400   40.7230 C   0  0  0  0  0  0  0  0  0  0  0  0
   37.4100   32.9960   39.7700 C   0  0  0  0  0  0  0  0  0  0  0  0
   37.3480   32.4210   38.5360 C   0  0  0  0  0  0  0  0  0  0  0  0
   38.1030   31.3060   38.2460 C   0  0  0  0  0  0  0  0  0  0  0  0
   38.2440   32.9510   41.6950 H   0  0  0  0  0  0  0  0  0  0  0  0
   36.8100   33.8580   39.9520 H   0  0  0  0  0  0  0  0  0  0  0  0
   36.7280   32.7990   37.7530 H   0  0  0  0  0  0  0  0  0  0  0  0
   36.7070   29.2680   35.9360 H   0  0  0  0  0  0  0  0  0  0  0  0
   36.8930   29.8430   36.8550 C   0  0  0  0  0  0  0  0  0  0  0  0
   36.2360   29.9680   37.9440 O   0  0  0  0  0  0  0  0  0  0  0  0
   38.0810   30.6520   36.9600 N   0  0  0  0  0  0  0  0  0  0  0  0
   38.7890   30.7110   36.1720 H   0  0  0  0  0  0  0  0  0  0  0  0
   39.8820   30.8030   41.5820 C   0  0  0  0  0  0  0  0  0  0  0  0
   40.0140   31.6220   42.3190 H   0  0  0  0  0  0  0  0  0  0  0  0
   40.8980   30.5320   41.2390 H   0  0  0  0  0  0  0  0  0  0  0  0
   37.4710   28.5560   43.3340 C   0  0  0  0  0  0  0  0  0  0  0  0
   38.2690   27.4710   43.6790 C   0  0  0  0  0  0  0  0  0  0  0  0
   39.6050   27.5230   43.3120 C   0  0  0  0  0  0  0  0  0  0  0  0
   40.0740   28.6180   42.6390 N   0  0  0  0  0  0  0  0  0  0  0  0
   39.2550   29.6610   42.3200 C   0  0  0  0  0  0  0  0  0  0  0  0
   37.9590   29.5990   42.6830 N   0  0  0  0  0  0  0  0  0  0  0  0
   36.4030   28.6290   43.5700 H   0  0  0  0  0  0  0  0  0  0  0  0
   37.8170   26.6440   44.2130 H   0  0  0  0  0  0  0  0  0  0  0  0
   40.2460   26.6910   43.5680 H   0  0  0  0  0  0  0  0  0  0  0  0
  1  2  1  0  0  0  0
  2  3  1  0  0  0  0
  3  4  2  0  0  0  0
  3 16  1  0  0  0  0
  4  8  1  0  0  0  0
  5  9  1  0  0  0  0
  5  4  1  0  0  0  0
  6  5  2  0  0  0  0
  7  6  1  0  0  0  0
  7  2  2  0  0  0  0
 10  6  1  0  0  0  0
 11 12  1  0  0  0  0
 12 14  1  0  0  0  0
 12 13  2  0  0  0  0
 14  7  1  0  0  0  0
 15 14  1  0  0  0  0
 16 17  1  0  0  0  0
 16 23  1  0  0  0  0
 18 16  1  0  0  0  0
 19 25  1  0  0  0  0
 19 20  1  0  0  0  0
 20 26  1  0  0  0  0
 21 27  1  0  0  0  0
 21 20  2  0  0  0  0
 22 21  1  0  0  0  0
 23 22  2  0  0  0  0
 23 24  1  0  0  0  0
 24 19  2  0  0  0  0
M  END
>  <minimizedAffinity>
-4.48736

$$$$

 OpenBabel03252502543D

 27 28  0  0  0  0  0  0  0  0999 V2000
   36.6260   25.3700   40.6470 Br  0  0  0  0  0  0  0  0  0  0  0  0
   38.0430   25.7560   41.9010 C   0  0  0  0  0  0  0  0  0  0  0  0
   37.7890   26.7750   42.7830 C   0  0  0  0  0  0  0  0  0  0  0  0
   38.8400   27.0260   43.6780 C   0  0  0  0  0  0  0  0  0  0  0  0
   40.0260   26.3170   43.6780 C   0  0  0  0  0  0  0  0  0  0  0  0
   40.1950   25.3180   42.7650 C   0  0  0  0  0  0  0  0  0  0  0  0
   39.1990   25.0230   41.8600 C   0  0  0  0  0  0  0  0  0  0  0  0
   38.7690   27.8150   44.4370 H   0  0  0  0  0  0  0  0  0  0  0  0
   40.8210   26.5120   44.3600 H   0  0  0  0  0  0  0  0  0  0  0  0
   41.0850   24.7310   42.7100 H   0  0  0  0  0  0  0  0  0  0  0  0
   40.2030   23.8300   38.8590 H   0  0  0  0  0  0  0  0  0  0  0  0
   40.0190   24.4900   39.7200 C   0  0  0  0  0  0  0  0  0  0  0  0
   40.3120   25.7130   39.9490 O   0  0  0  0  0  0  0  0  0  0  0  0
   39.3180   23.9800   40.8710 N   0  0  0  0  0  0  0  0  0  0  0  0
   38.9710   22.9790   40.9160 H   0  0  0  0  0  0  0  0  0  0  0  0
   36.5720   27.5960   42.8770 C   0  0  0  0  0  0  0  0  0  0  0  0
   36.5590   28.0760   43.8770 H   0  0  0  0  0  0  0  0  0  0  0  0
   35.6480   26.9910   42.8150 H   0  0  0  0  0  0  0  0  0  0  0  0
   35.6810   29.8140   40.0110 C   0  0  0  0  0  0  0  0  0  0  0  0
   36.6400   30.8170   40.0980 C   0  0  0  0  0  0  0  0  0  0  0  0
   37.5670   30.7210   41.1250 C   0  0  0  0  0  0  0  0  0  0  0  0
   37.5020   29.6640   41.9920 N   0  0  0  0  0  0  0  0  0  0  0  0
   36.5430   28.7030   41.8690 C   0  0  0  0  0  0  0  0  0  0  0  0
   35.6490   28.8070   40.8670 N   0  0  0  0  0  0  0  0  0  0  0  0
   34.8990   29.7820   39.2440 H   0  0  0  0  0  0  0  0  0  0  0  0
   36.6210   31.6180   39.3710 H   0  0  0  0  0  0  0  0  0  0  0  0
   38.3230   31.4890   41.2150 H   0  0  0  0  0  0  0  0  0  0  0  0
  1  2  1  0  0  0  0
  2  3  1  0  0  0  0
  3 16  1  0  0  0  0
  3  4  2  0  0  0  0
  4  8  1  0  0  0  0
  5  4  1  0  0  0  0
  5  9  1  0  0  0  0
  6  5  2  0  0  0  0
  7  2  2  0  0  0  0
  7  6  1  0  0  0  0
 10  6  1  0  0  0  0
 11 12  1  0  0  0  0
 12 13  2  0  0  0  0
 12 14  1  0  0  0  0
 14 15  1  0  0  0  0
 14  7  1  0  0  0  0
 16 17  1  0  0  0  0
 18 16  1  0  0  0  0
 19 20  2  0  0  0  0
 19 24  1  0  0  0  0
 20 21  1  0  0  0  0
 21 27  1  0  0  0  0
 21 22  2  0  0  0  0
 23 22  1  0  0  0  0
 23 16  1  0  0  0  0
 24 23  2  0  0  0  0
 25 19  1  0  0  0  0
 26 20  1  0  0  0  0
M  END
>  <minimizedAffinity>
-4.42725992

$$$$
