
 OpenBabel03252509353D

 40 41  0  0  1  0  0  0  0  0999 V2000
   44.7230   35.3890   44.9540 O   0  0  0  0  0  0  0  0  0  0  0  0
   45.5560   34.2680   44.3630 P   0  0  1  0  0  0  0  0  0  0  0  0
   44.5570   33.0920   43.6670 O   0  0  0  0  0  0  0  0  0  0  0  0
   43.8360   33.4840   43.1070 H   0  0  0  0  0  0  0  0  0  0  0  0
   46.5540   34.9290   43.1960 O   0  0  0  0  0  0  0  0  0  0  0  0
   46.8050   33.9800   42.1980 C   0  0  1  0  0  0  0  0  0  0  0  0
   46.0960   34.3890   40.9040 C   0  0  0  0  0  0  0  0  0  0  0  0
   46.7290   33.4390   39.9240 C   0  0  0  0  0  0  0  0  0  0  0  0
   48.1090   33.1170   40.4800 C   0  0  0  0  0  0  0  0  0  0  0  0
   48.2290   33.9640   41.7380 C   0  0  1  0  0  0  0  0  0  0  0  0
   46.4480   32.9810   42.4350 H   0  0  0  0  0  0  0  0  0  0  0  0
   44.9830   34.2170   40.9890 H   0  0  0  0  0  0  0  0  0  0  0  0
   46.2120   35.4370   40.6460 H   0  0  0  0  0  0  0  0  0  0  0  0
   46.0810   32.5530   39.8480 H   0  0  0  0  0  0  0  0  0  0  0  0
   46.8100   33.9550   38.9380 H   0  0  0  0  0  0  0  0  0  0  0  0
   48.0760   32.0580   40.8080 H   0  0  0  0  0  0  0  0  0  0  0  0
   48.9070   33.3360   39.7510 H   0  0  0  0  0  0  0  0  0  0  0  0
   48.8190   33.4090   42.4960 H   0  0  0  0  0  0  0  0  0  0  0  0
   48.7680   35.3330   41.4380 C   0  0  0  0  0  0  0  0  0  0  0  0
   49.3510   35.2600   40.4770 H   0  0  0  0  0  0  0  0  0  0  0  0
   48.0110   36.1200   41.3120 H   0  0  0  0  0  0  0  0  0  0  0  0
   49.6390   35.7840   42.4070 O   0  0  0  0  0  0  0  0  0  0  0  0
   50.1430   36.5550   42.0860 H   0  0  0  0  0  0  0  0  0  0  0  0
   46.4460   33.5070   45.5490 O   0  0  0  0  0  0  0  0  0  0  0  0
   46.1670   32.1730   45.5260 C   0  0  0  0  0  0  0  0  0  0  0  0
   47.1100   31.6580   45.1800 H   0  0  0  0  0  0  0  0  0  0  0  0
   45.3900   31.8240   44.8520 H   0  0  0  0  0  0  0  0  0  0  0  0
   45.6430   31.9780   49.2090 C   0  0  0  0  0  0  0  0  0  0  0  0
   45.9170   32.5150   47.9400 C   0  0  0  0  0  0  0  0  0  0  0  0
   45.8820   31.6330   46.8690 C   0  0  0  0  0  0  0  0  0  0  0  0
   45.5880   30.3090   47.0900 N   0  0  0  0  0  0  0  0  0  0  0  0
   45.3280   29.8210   48.3190 C   0  0  0  0  0  0  0  0  0  0  0  0
   45.3570   30.6530   49.3680 N   0  0  0  0  0  0  0  0  0  0  0  0
   45.6490   32.5920   50.1010 H   0  0  0  0  0  0  0  0  0  0  0  0
   46.1380   33.5500   47.8340 H   0  0  0  0  0  0  0  0  0  0  0  0
   44.8180   26.5830   47.2640 H   0  0  0  0  0  0  0  0  0  0  0  0
   45.0210   27.6470   47.3430 C   0  0  0  0  0  0  0  0  0  0  0  0
   45.2680   28.1380   46.2000 O   0  0  0  0  0  0  0  0  0  0  0  0
   45.0260   28.4460   48.5240 N   0  0  0  0  0  0  0  0  0  0  0  0
   44.8040   27.9260   49.4230 H   0  0  0  0  0  0  0  0  0  0  0  0
  2  1  2  1  0  0  0
  2 24  1  0  0  0  0
  3  2  1  0  0  0  0
  4  3  1  0  0  0  0
  5  2  1  0  0  0  0
  6 11  1  1  0  0  0
  6  5  1  0  0  0  0
  7 12  1  0  0  0  0
  7  6  1  0  0  0  0
  8  9  1  0  0  0  0
  8  7  1  0  0  0  0
  9 16  1  0  0  0  0
  9 10  1  0  0  0  0
 10  6  1  0  0  0  0
 10 18  1  1  0  0  0
 13  7  1  0  0  0  0
 14  8  1  0  0  0  0
 15  8  1  0  0  0  0
 17  9  1  0  0  0  0
 19 10  1  0  0  0  0
 19 22  1  0  0  0  0
 20 19  1  0  0  0  0
 21 19  1  0  0  0  0
 23 22  1  0  0  0  0
 25 24  1  0  0  0  0
 25 30  1  0  0  0  0
 26 25  1  0  0  0  0
 27 25  1  0  0  0  0
 28 33  1  0  0  0  0
 28 34  1  0  0  0  0
 29 28  2  0  0  0  0
 30 31  2  0  0  0  0
 30 29  1  0  0  0  0
 31 32  1  0  0  0  0
 32 39  1  0  0  0  0
 32 33  2  0  0  0  0
 35 29  1  0  0  0  0
 36 37  1  0  0  0  0
 37 39  1  0  0  0  0
 38 37  2  0  0  0  0
 39 40  1  0  0  0  0
M  END
>  <minimizedAffinity>
-5.4794631

>  <minimizedRMSD>
0.143251151

$$$$
