
 OpenBabel03252502333D

 20 20  0  0  0  0  0  0  0  0999 V2000
   35.9050   28.5450   39.4950 C   0  0  0  0  0  0  0  0  0  0  0  0
   35.9480   29.9450   39.4680 C   0  0  0  0  0  0  0  0  0  0  0  0
   36.3780   30.6160   40.6390 C   0  0  0  0  0  0  0  0  0  0  0  0
   36.7250   29.8490   41.7180 N   0  0  0  0  0  0  0  0  0  0  0  0
   36.6690   28.5160   41.6980 C   0  0  0  0  0  0  0  0  0  0  0  0
   36.2600   27.8670   40.5890 N   0  0  0  0  0  0  0  0  0  0  0  0
   35.6720   30.5440   38.6100 H   0  0  0  0  0  0  0  0  0  0  0  0
   38.0480   33.5290   40.2400 H   0  0  0  0  0  0  0  0  0  0  0  0
   37.7580   32.4710   40.2730 C   0  0  0  0  0  0  0  0  0  0  0  0
   38.5640   31.5580   39.9270 O   0  0  0  0  0  0  0  0  0  0  0  0
   36.4540   32.0340   40.7060 N   0  0  0  0  0  0  0  0  0  0  0  0
   35.7470   32.7570   41.0050 H   0  0  0  0  0  0  0  0  0  0  0  0
   35.4490   27.8730   38.2520 C   0  0  0  0  0  0  0  0  0  0  0  0
   36.1180   28.3030   37.1450 F   0  0  0  0  0  0  0  0  0  0  0  0
   35.6070   26.4880   38.4170 F   0  0  0  0  0  0  0  0  0  0  0  0
   34.0650   28.0640   38.1050 F   0  0  0  0  0  0  0  0  0  0  0  0
   37.0540   27.7120   42.8950 C   0  0  0  0  0  0  0  0  0  0  0  0
   37.9490   28.3770   43.6780 F   0  0  0  0  0  0  0  0  0  0  0  0
   37.5530   26.4610   42.5130 F   0  0  0  0  0  0  0  0  0  0  0  0
   35.9470   27.4260   43.6730 F   0  0  0  0  0  0  0  0  0  0  0  0
  1  6  1  0  0  0  0
  2  1  2  0  0  0  0
  2  3  1  0  0  0  0
  3 11  1  0  0  0  0
  3  4  2  0  0  0  0
  5  4  1  0  0  0  0
  5 17  1  0  0  0  0
  6  5  2  0  0  0  0
  7  2  1  0  0  0  0
  8  9  1  0  0  0  0
  9 11  1  0  0  0  0
 10  9  2  0  0  0  0
 11 12  1  0  0  0  0
 13 15  1  0  0  0  0
 13  1  1  0  0  0  0
 14 13  1  0  0  0  0
 16 13  1  0  0  0  0
 17 20  1  0  0  0  0
 17 18  1  0  0  0  0
 19 17  1  0  0  0  0
M  END
>  <minimizedAffinity>
-4.88418388

$$$$

 OpenBabel03252502333D

 20 20  0  0  0  0  0  0  0  0999 V2000
   36.6160   28.7100   41.5890 C   0  0  0  0  0  0  0  0  0  0  0  0
   36.9290   30.0720   41.6850 C   0  0  0  0  0  0  0  0  0  0  0  0
   36.5260   30.9190   40.6240 C   0  0  0  0  0  0  0  0  0  0  0  0
   35.8560   30.3490   39.5760 N   0  0  0  0  0  0  0  0  0  0  0  0
   35.5790   29.0450   39.5280 C   0  0  0  0  0  0  0  0  0  0  0  0
   35.9590   28.2280   40.5320 N   0  0  0  0  0  0  0  0  0  0  0  0
   37.4600   30.5150   42.5170 H   0  0  0  0  0  0  0  0  0  0  0  0
   38.4740   33.5760   39.8600 H   0  0  0  0  0  0  0  0  0  0  0  0
   38.0570   32.5670   39.9740 C   0  0  0  0  0  0  0  0  0  0  0  0
   38.6640   31.5510   39.5270 O   0  0  0  0  0  0  0  0  0  0  0  0
   36.8000   32.3150   40.6330 N   0  0  0  0  0  0  0  0  0  0  0  0
   36.2550   33.1300   41.0230 H   0  0  0  0  0  0  0  0  0  0  0  0
   37.0540   27.8490   42.7180 C   0  0  0  0  0  0  0  0  0  0  0  0
   37.7550   26.7570   42.3040 F   0  0  0  0  0  0  0  0  0  0  0  0
   37.8250   28.6290   43.5920 F   0  0  0  0  0  0  0  0  0  0  0  0
   35.9300   27.4670   43.4690 F   0  0  0  0  0  0  0  0  0  0  0  0
   34.8460   28.4570   38.3680 C   0  0  0  0  0  0  0  0  0  0  0  0
   35.0760   27.1180   38.2560 F   0  0  0  0  0  0  0  0  0  0  0  0
   35.1740   29.1240   37.1830 F   0  0  0  0  0  0  0  0  0  0  0  0
   33.4810   28.6380   38.5060 F   0  0  0  0  0  0  0  0  0  0  0  0
  1  2  1  0  0  0  0
  1 13  1  0  0  0  0
  2  7  1  0  0  0  0
  3 11  1  0  0  0  0
  3  2  2  0  0  0  0
  4  3  1  0  0  0  0
  5  4  2  0  0  0  0
  5  6  1  0  0  0  0
  6  1  2  0  0  0  0
  8  9  1  0  0  0  0
  9 11  1  0  0  0  0
 10  9  2  0  0  0  0
 11 12  1  0  0  0  0
 13 16  1  0  0  0  0
 13 15  1  0  0  0  0
 14 13  1  0  0  0  0
 17 20  1  0  0  0  0
 17  5  1  0  0  0  0
 18 17  1  0  0  0  0
 19 17  1  0  0  0  0
M  END
>  <minimizedAffinity>
-4.88324594

$$$$

 OpenBabel03252502333D

 20 20  0  0  0  0  0  0  0  0999 V2000
   35.8070   28.8710   39.5720 C   0  0  0  0  0  0  0  0  0  0  0  0
   36.0010   30.2580   39.5210 C   0  0  0  0  0  0  0  0  0  0  0  0
   36.6040   30.8820   40.6390 C   0  0  0  0  0  0  0  0  0  0  0  0
   36.9590   30.0880   41.6950 N   0  0  0  0  0  0  0  0  0  0  0  0
   36.7550   28.7690   41.7000 C   0  0  0  0  0  0  0  0  0  0  0  0
   36.1810   28.1640   40.6400 N   0  0  0  0  0  0  0  0  0  0  0  0
   35.7170   30.8790   38.6810 H   0  0  0  0  0  0  0  0  0  0  0  0
   38.5810   33.5820   40.1490 H   0  0  0  0  0  0  0  0  0  0  0  0
   38.1750   32.5640   40.2080 C   0  0  0  0  0  0  0  0  0  0  0  0
   38.8640   31.5610   39.8620 O   0  0  0  0  0  0  0  0  0  0  0  0
   36.8410   32.2840   40.6780 N   0  0  0  0  0  0  0  0  0  0  0  0
   36.2270   33.0870   40.9790 H   0  0  0  0  0  0  0  0  0  0  0  0
   35.1710   28.2470   38.3840 C   0  0  0  0  0  0  0  0  0  0  0  0
   35.3780   26.9020   38.3220 F   0  0  0  0  0  0  0  0  0  0  0  0
   33.7980   28.5340   38.4190 F   0  0  0  0  0  0  0  0  0  0  0  0
   35.6440   28.8800   37.2220 F   0  0  0  0  0  0  0  0  0  0  0  0
   37.1550   27.9330   42.8700 C   0  0  0  0  0  0  0  0  0  0  0  0
   36.0720   27.5280   43.5900 F   0  0  0  0  0  0  0  0  0  0  0  0
   38.0700   28.6170   43.6800 F   0  0  0  0  0  0  0  0  0  0  0  0
   37.8320   26.8000   42.4560 F   0  0  0  0  0  0  0  0  0  0  0  0
  1  6  1  0  0  0  0
  2  1  2  0  0  0  0
  2  3  1  0  0  0  0
  3 11  1  0  0  0  0
  3  4  2  0  0  0  0
  4  5  1  0  0  0  0
  5 17  1  0  0  0  0
  6  5  2  0  0  0  0
  7  2  1  0  0  0  0
  8  9  1  0  0  0  0
  9 11  1  0  0  0  0
 10  9  2  0  0  0  0
 11 12  1  0  0  0  0
 13 15  1  0  0  0  0
 13  1  1  0  0  0  0
 14 13  1  0  0  0  0
 16 13  1  0  0  0  0
 17 18  1  0  0  0  0
 17 19  1  0  0  0  0
 20 17  1  0  0  0  0
M  END
>  <minimizedAffinity>
-4.87792349

$$$$

 OpenBabel03252502333D

 20 20  0  0  0  0  0  0  0  0999 V2000
   35.7500   29.6990   39.7040 C   0  0  0  0  0  0  0  0  0  0  0  0
   35.9930   29.1280   40.9610 C   0  0  0  0  0  0  0  0  0  0  0  0
   36.8790   29.8050   41.8340 C   0  0  0  0  0  0  0  0  0  0  0  0
   37.4380   30.9720   41.3910 N   0  0  0  0  0  0  0  0  0  0  0  0
   37.1770   31.4790   40.1850 C   0  0  0  0  0  0  0  0  0  0  0  0
   36.3350   30.8430   39.3440 N   0  0  0  0  0  0  0  0  0  0  0  0
   35.5460   28.2040   41.3030 H   0  0  0  0  0  0  0  0  0  0  0  0
   38.8030   27.9930   43.9440 H   0  0  0  0  0  0  0  0  0  0  0  0
   38.3750   28.4880   43.0630 C   0  0  0  0  0  0  0  0  0  0  0  0
   38.9060   28.3720   41.9210 O   0  0  0  0  0  0  0  0  0  0  0  0
   37.1860   29.3020   43.1280 N   0  0  0  0  0  0  0  0  0  0  0  0
   36.7050   29.4290   44.0580 H   0  0  0  0  0  0  0  0  0  0  0  0
   34.8160   28.9640   38.8130 C   0  0  0  0  0  0  0  0  0  0  0  0
   35.1260   27.6420   38.7030 F   0  0  0  0  0  0  0  0  0  0  0  0
   33.5140   29.1270   39.3090 F   0  0  0  0  0  0  0  0  0  0  0  0
   34.8020   29.5810   37.5510 F   0  0  0  0  0  0  0  0  0  0  0  0
   37.8060   32.7560   39.7350 C   0  0  0  0  0  0  0  0  0  0  0  0
   38.7400   32.5400   38.7660 F   0  0  0  0  0  0  0  0  0  0  0  0
   38.3570   33.4480   40.8190 F   0  0  0  0  0  0  0  0  0  0  0  0
   36.8550   33.6160   39.2160 F   0  0  0  0  0  0  0  0  0  0  0  0
  1  2  1  0  0  0  0
  2  7  1  0  0  0  0
  2  3  2  0  0  0  0
  3 11  1  0  0  0  0
  4  3  1  0  0  0  0
  5  4  2  0  0  0  0
  6  1  2  0  0  0  0
  6  5  1  0  0  0  0
  9 11  1  0  0  0  0
  9  8  1  0  0  0  0
 10  9  2  0  0  0  0
 11 12  1  0  0  0  0
 13 15  1  0  0  0  0
 13  1  1  0  0  0  0
 14 13  1  0  0  0  0
 16 13  1  0  0  0  0
 17  5  1  0  0  0  0
 17 19  1  0  0  0  0
 18 17  1  0  0  0  0
 20 17  1  0  0  0  0
M  END
>  <minimizedAffinity>
-4.8611021

$$$$

 OpenBabel03252502333D

 20 20  0  0  0  0  0  0  0  0999 V2000
   36.7780   30.1070   38.5710 C   0  0  0  0  0  0  0  0  0  0  0  0
   36.9030   31.4880   38.7680 C   0  0  0  0  0  0  0  0  0  0  0  0
   37.1320   31.9500   40.0880 C   0  0  0  0  0  0  0  0  0  0  0  0
   37.2160   31.0130   41.0810 N   0  0  0  0  0  0  0  0  0  0  0  0
   37.0900   29.7060   40.8460 C   0  0  0  0  0  0  0  0  0  0  0  0
   36.8720   29.2550   39.5940 N   0  0  0  0  0  0  0  0  0  0  0  0
   36.8350   32.2230   37.9760 H   0  0  0  0  0  0  0  0  0  0  0  0
   39.0190   34.7140   40.5690 H   0  0  0  0  0  0  0  0  0  0  0  0
   38.6680   33.6930   40.3680 C   0  0  0  0  0  0  0  0  0  0  0  0
   39.4800   32.7590   40.1050 O   0  0  0  0  0  0  0  0  0  0  0  0
   37.2720   33.3330   40.3850 N   0  0  0  0  0  0  0  0  0  0  0  0
   36.5560   34.0770   40.5990 H   0  0  0  0  0  0  0  0  0  0  0  0
   36.5370   29.6570   37.1760 C   0  0  0  0  0  0  0  0  0  0  0  0
   37.0390   30.5210   36.2510 F   0  0  0  0  0  0  0  0  0  0  0  0
   37.1060   28.3830   37.0210 F   0  0  0  0  0  0  0  0  0  0  0  0
   35.1590   29.4640   36.9850 F   0  0  0  0  0  0  0  0  0  0  0  0
   37.1880   28.7120   41.9560 C   0  0  0  0  0  0  0  0  0  0  0  0
   38.1900   27.8150   41.7390 F   0  0  0  0  0  0  0  0  0  0  0  0
   35.9640   28.0610   42.1490 F   0  0  0  0  0  0  0  0  0  0  0  0
   37.4440   29.3430   43.1600 F   0  0  0  0  0  0  0  0  0  0  0  0
  1  2  2  0  0  0  0
  1  6  1  0  0  0  0
  2  3  1  0  0  0  0
  3 11  1  0  0  0  0
  3  4  2  0  0  0  0
  5  4  1  0  0  0  0
  5 17  1  0  0  0  0
  6  5  2  0  0  0  0
  7  2  1  0  0  0  0
  9 11  1  0  0  0  0
  9  8  1  0  0  0  0
 10  9  2  0  0  0  0
 11 12  1  0  0  0  0
 13  1  1  0  0  0  0
 14 13  1  0  0  0  0
 15 13  1  0  0  0  0
 16 13  1  0  0  0  0
 17 19  1  0  0  0  0
 17 20  1  0  0  0  0
 18 17  1  0  0  0  0
M  END
>  <minimizedAffinity>
-4.72211742

$$$$

 OpenBabel03252502333D

 20 20  0  0  0  0  0  0  0  0999 V2000
   37.1410   31.5820   40.0970 C   0  0  0  0  0  0  0  0  0  0  0  0
   37.4630   31.1000   41.3720 C   0  0  0  0  0  0  0  0  0  0  0  0
   36.8810   29.8750   41.7820 C   0  0  0  0  0  0  0  0  0  0  0  0
   36.0450   29.2450   40.9020 N   0  0  0  0  0  0  0  0  0  0  0  0
   35.7670   29.7410   39.6960 C   0  0  0  0  0  0  0  0  0  0  0  0
   36.3140   30.9070   39.2950 N   0  0  0  0  0  0  0  0  0  0  0  0
   38.1260   31.6050   42.0620 H   0  0  0  0  0  0  0  0  0  0  0  0
   38.6780   27.8760   43.8340 H   0  0  0  0  0  0  0  0  0  0  0  0
   38.2870   28.4280   42.9690 C   0  0  0  0  0  0  0  0  0  0  0  0
   38.8190   28.3210   41.8260 O   0  0  0  0  0  0  0  0  0  0  0  0
   37.1480   29.3080   43.0590 N   0  0  0  0  0  0  0  0  0  0  0  0
   36.6690   29.4300   43.9900 H   0  0  0  0  0  0  0  0  0  0  0  0
   37.7670   32.8690   39.6980 C   0  0  0  0  0  0  0  0  0  0  0  0
   36.8720   33.7430   39.1570 F   0  0  0  0  0  0  0  0  0  0  0  0
   38.3800   33.4280   40.8290 F   0  0  0  0  0  0  0  0  0  0  0  0
   38.8200   32.6130   38.8050 F   0  0  0  0  0  0  0  0  0  0  0  0
   34.8490   29.0250   38.7620 C   0  0  0  0  0  0  0  0  0  0  0  0
   34.9390   29.5180   37.4950 F   0  0  0  0  0  0  0  0  0  0  0  0
   33.5300   29.0730   39.2270 F   0  0  0  0  0  0  0  0  0  0  0  0
   35.1540   27.6770   38.7100 F   0  0  0  0  0  0  0  0  0  0  0  0
  1  2  1  0  0  0  0
  2  3  2  0  0  0  0
  2  7  1  0  0  0  0
  3 11  1  0  0  0  0
  4  3  1  0  0  0  0
  5  4  2  0  0  0  0
  6  5  1  0  0  0  0
  6  1  2  0  0  0  0
  9 11  1  0  0  0  0
  9  8  1  0  0  0  0
 10  9  2  0  0  0  0
 11 12  1  0  0  0  0
 13  1  1  0  0  0  0
 13 15  1  0  0  0  0
 14 13  1  0  0  0  0
 16 13  1  0  0  0  0
 17 19  1  0  0  0  0
 17  5  1  0  0  0  0
 18 17  1  0  0  0  0
 20 17  1  0  0  0  0
M  END
>  <minimizedAffinity>
-4.67173862

$$$$

 OpenBabel03252502333D

 20 20  0  0  0  0  0  0  0  0999 V2000
   35.9720   27.5820   39.1720 C   0  0  0  0  0  0  0  0  0  0  0  0
   35.6620   28.9210   39.4460 C   0  0  0  0  0  0  0  0  0  0  0  0
   35.9480   29.4140   40.7420 C   0  0  0  0  0  0  0  0  0  0  0  0
   36.5110   28.5480   41.6400 N   0  0  0  0  0  0  0  0  0  0  0  0
   36.7890   27.2800   41.3340 C   0  0  0  0  0  0  0  0  0  0  0  0
   36.5200   26.7990   40.1030 N   0  0  0  0  0  0  0  0  0  0  0  0
   35.2170   29.5990   38.7290 H   0  0  0  0  0  0  0  0  0  0  0  0
   36.7930   32.6820   40.9450 H   0  0  0  0  0  0  0  0  0  0  0  0
   36.7830   31.6010   40.7540 C   0  0  0  0  0  0  0  0  0  0  0  0
   37.7640   31.0220   40.2030 O   0  0  0  0  0  0  0  0  0  0  0  0
   35.6690   30.7590   41.1120 N   0  0  0  0  0  0  0  0  0  0  0  0
   34.8270   31.1940   41.5750 H   0  0  0  0  0  0  0  0  0  0  0  0
   35.6580   27.0970   37.8040 C   0  0  0  0  0  0  0  0  0  0  0  0
   34.5330   26.3280   37.7640 F   0  0  0  0  0  0  0  0  0  0  0  0
   35.5240   28.2110   36.9610 F   0  0  0  0  0  0  0  0  0  0  0  0
   36.7630   26.3920   37.2990 F   0  0  0  0  0  0  0  0  0  0  0  0
   37.4030   26.3640   42.3400 C   0  0  0  0  0  0  0  0  0  0  0  0
   36.5940   25.3000   42.6080 F   0  0  0  0  0  0  0  0  0  0  0  0
   37.7260   27.0570   43.5120 F   0  0  0  0  0  0  0  0  0  0  0  0
   38.6100   25.8670   41.8810 F   0  0  0  0  0  0  0  0  0  0  0  0
  1  2  2  0  0  0  0
  1  6  1  0  0  0  0
  2  3  1  0  0  0  0
  3 11  1  0  0  0  0
  3  4  2  0  0  0  0
  5  4  1  0  0  0  0
  5 17  1  0  0  0  0
  6  5  2  0  0  0  0
  7  2  1  0  0  0  0
  9  8  1  0  0  0  0
  9 11  1  0  0  0  0
 10  9  2  0  0  0  0
 11 12  1  0  0  0  0
 13  1  1  0  0  0  0
 14 13  1  0  0  0  0
 15 13  1  0  0  0  0
 16 13  1  0  0  0  0
 17 18  1  0  0  0  0
 17 19  1  0  0  0  0
 20 17  1  0  0  0  0
M  END
>  <minimizedAffinity>
-4.52055836

$$$$

 OpenBabel03252502333D

 20 20  0  0  0  0  0  0  0  0999 V2000
   35.6250   29.3470   39.1380 C   0  0  0  0  0  0  0  0  0  0  0  0
   35.7530   28.9690   40.4810 C   0  0  0  0  0  0  0  0  0  0  0  0
   36.5430   29.7860   41.3250 C   0  0  0  0  0  0  0  0  0  0  0  0
   37.1280   30.8920   40.7710 N   0  0  0  0  0  0  0  0  0  0  0  0
   36.9780   31.2140   39.4850 C   0  0  0  0  0  0  0  0  0  0  0  0
   36.2280   30.4430   38.6720 N   0  0  0  0  0  0  0  0  0  0  0  0
   35.2870   28.0920   40.9110 H   0  0  0  0  0  0  0  0  0  0  0  0
   38.4220   28.6330   43.8900 H   0  0  0  0  0  0  0  0  0  0  0  0
   38.0520   28.9410   42.9030 C   0  0  0  0  0  0  0  0  0  0  0  0
   38.7740   28.8370   41.8690 O   0  0  0  0  0  0  0  0  0  0  0  0
   36.7310   29.4820   42.7020 N   0  0  0  0  0  0  0  0  0  0  0  0
   36.0910   29.5890   43.5330 H   0  0  0  0  0  0  0  0  0  0  0  0
   34.7900   28.4690   38.2800 C   0  0  0  0  0  0  0  0  0  0  0  0
   33.4550   28.6740   38.4580 F   0  0  0  0  0  0  0  0  0  0  0  0
   35.1490   28.6920   36.9420 F   0  0  0  0  0  0  0  0  0  0  0  0
   35.1270   27.1280   38.5260 F   0  0  0  0  0  0  0  0  0  0  0  0
   37.6320   32.4290   38.9150 C   0  0  0  0  0  0  0  0  0  0  0  0
   38.8740   32.6230   39.4410 F   0  0  0  0  0  0  0  0  0  0  0  0
   36.8270   33.5590   39.0990 F   0  0  0  0  0  0  0  0  0  0  0  0
   37.7700   32.3150   37.5430 F   0  0  0  0  0  0  0  0  0  0  0  0
  1  2  1  0  0  0  0
  2  7  1  0  0  0  0
  2  3  2  0  0  0  0
  3 11  1  0  0  0  0
  4  3  1  0  0  0  0
  5  4  2  0  0  0  0
  6  1  2  0  0  0  0
  6  5  1  0  0  0  0
  9  8  1  0  0  0  0
 10  9  2  0  0  0  0
 11  9  1  0  0  0  0
 11 12  1  0  0  0  0
 13 14  1  0  0  0  0
 13 16  1  0  0  0  0
 13  1  1  0  0  0  0
 15 13  1  0  0  0  0
 17 19  1  0  0  0  0
 17 18  1  0  0  0  0
 17  5  1  0  0  0  0
 20 17  1  0  0  0  0
M  END
>  <minimizedAffinity>
-4.5063858

$$$$

 OpenBabel03252502333D

 20 20  0  0  0  0  0  0  0  0999 V2000
   36.6470   30.2320   37.7740 C   0  0  0  0  0  0  0  0  0  0  0  0
   35.9860   29.4260   38.7110 C   0  0  0  0  0  0  0  0  0  0  0  0
   35.9590   29.8640   40.0570 C   0  0  0  0  0  0  0  0  0  0  0  0
   36.5800   31.0470   40.3520 N   0  0  0  0  0  0  0  0  0  0  0  0
   37.1980   31.7820   39.4260 C   0  0  0  0  0  0  0  0  0  0  0  0
   37.2310   31.3750   38.1410 N   0  0  0  0  0  0  0  0  0  0  0  0
   35.4970   28.4920   38.4690 H   0  0  0  0  0  0  0  0  0  0  0  0
   35.9970   27.5770   42.5480 H   0  0  0  0  0  0  0  0  0  0  0  0
   36.2690   28.2520   41.7260 C   0  0  0  0  0  0  0  0  0  0  0  0
   37.4560   28.3140   41.2920 O   0  0  0  0  0  0  0  0  0  0  0  0
   35.3120   29.1140   41.0780 N   0  0  0  0  0  0  0  0  0  0  0  0
   34.3090   29.0980   41.4030 H   0  0  0  0  0  0  0  0  0  0  0  0
   36.6580   29.7440   36.3720 C   0  0  0  0  0  0  0  0  0  0  0  0
   37.5830   28.7660   36.1620 F   0  0  0  0  0  0  0  0  0  0  0  0
   35.3710   29.2800   36.0580 F   0  0  0  0  0  0  0  0  0  0  0  0
   36.8720   30.8290   35.5070 F   0  0  0  0  0  0  0  0  0  0  0  0
   37.8650   33.0680   39.7850 C   0  0  0  0  0  0  0  0  0  0  0  0
   38.1900   33.1130   41.1080 F   0  0  0  0  0  0  0  0  0  0  0  0
   37.0660   34.1600   39.4270 F   0  0  0  0  0  0  0  0  0  0  0  0
   39.0330   33.2350   39.0610 F   0  0  0  0  0  0  0  0  0  0  0  0
  1  6  2  0  0  0  0
  1  2  1  0  0  0  0
  2  3  2  0  0  0  0
  3  4  1  0  0  0  0
  3 11  1  0  0  0  0
  5 17  1  0  0  0  0
  5  4  2  0  0  0  0
  6  5  1  0  0  0  0
  7  2  1  0  0  0  0
  9  8  1  0  0  0  0
 10  9  2  0  0  0  0
 11 12  1  0  0  0  0
 11  9  1  0  0  0  0
 13  1  1  0  0  0  0
 14 13  1  0  0  0  0
 15 13  1  0  0  0  0
 16 13  1  0  0  0  0
 17 18  1  0  0  0  0
 19 17  1  0  0  0  0
 20 17  1  0  0  0  0
M  END
>  <minimizedAffinity>
-4.45419312

$$$$
