
 OpenBabel03242519153D

 38 40  0  0  1  0  0  0  0  0999 V2000
   48.4420   34.1160   40.9410 C   0  0  0  0  0  0  0  0  0  0  0  0
   48.0180   34.3320   39.6480 C   0  0  0  0  0  0  0  0  0  0  0  0
   48.3280   33.4690   38.5840 C   0  0  0  0  0  0  0  0  0  0  0  0
   49.0830   32.3950   38.9150 N   0  0  0  0  0  0  0  0  0  0  0  0
   49.4960   32.1850   40.1720 C   0  0  0  0  0  0  0  0  0  0  0  0
   49.1810   33.0310   41.1590 N   0  0  0  0  0  0  0  0  0  0  0  0
   47.4200   35.2080   39.4550 H   0  0  0  0  0  0  0  0  0  0  0  0
   47.9820   33.6630   37.5820 H   0  0  0  0  0  0  0  0  0  0  0  0
   50.3110   30.9840   40.5530 C   0  0  2  0  0  0  0  0  0  0  0  0
   51.4580   31.1860   41.4930 C   0  0  0  0  0  0  0  0  0  0  0  0
   51.7040   30.9400   40.0220 C   0  0  2  0  0  0  0  0  0  0  0  0
   49.7250   30.0370   40.5650 H   0  0  0  0  0  0  0  0  0  0  0  0
   51.7020   30.3910   42.2130 H   0  0  0  0  0  0  0  0  0  0  0  0
   51.5580   32.2050   41.9120 H   0  0  0  0  0  0  0  0  0  0  0  0
   52.0880   29.9240   39.8010 H   0  0  0  0  0  0  0  0  0  0  0  0
   52.7450   32.6100   37.2050 H   0  0  0  0  0  0  0  0  0  0  0  0
   52.4980   31.7110   37.7910 C   0  0  0  0  0  0  0  0  0  0  0  0
   52.5940   30.5500   37.3050 O   0  0  0  0  0  0  0  0  0  0  0  0
   52.0680   31.9600   39.1080 N   0  0  0  0  0  0  0  0  0  0  0  0
   51.9970   32.9500   39.4870 H   0  0  0  0  0  0  0  0  0  0  0  0
   48.1020   35.0090   42.0160 C   0  0  0  0  0  0  0  0  0  0  0  0
   48.3170   36.0630   41.6970 H   0  0  0  0  0  0  0  0  0  0  0  0
   48.6780   34.7690   42.9350 H   0  0  0  0  0  0  0  0  0  0  0  0
   46.6390   34.9230   42.3140 C   0  0  0  0  0  0  0  0  0  0  0  0
   46.1260   35.8950   42.2320 H   0  0  0  0  0  0  0  0  0  0  0  0
   46.1310   34.2420   41.6000 H   0  0  0  0  0  0  0  0  0  0  0  0
   44.6570   36.4190   43.9680 Cl  0  0  0  0  0  0  0  0  0  0  0  0
   45.4540   34.9690   44.5250 C   0  0  0  0  0  0  0  0  0  0  0  0
   46.3470   34.3720   43.6660 C   0  0  0  0  0  0  0  0  0  0  0  0
   46.9840   33.2140   44.1030 C   0  0  0  0  0  0  0  0  0  0  0  0
   46.7280   32.6860   45.3550 C   0  0  0  0  0  0  0  0  0  0  0  0
   45.8090   33.3190   46.2100 C   0  0  0  0  0  0  0  0  0  0  0  0
   45.1830   34.4660   45.7670 C   0  0  0  0  0  0  0  0  0  0  0  0
   47.7000   32.6840   43.4900 H   0  0  0  0  0  0  0  0  0  0  0  0
   47.2290   31.7880   45.6810 H   0  0  0  0  0  0  0  0  0  0  0  0
   45.5950   32.9210   47.1950 H   0  0  0  0  0  0  0  0  0  0  0  0
   44.2590   35.1570   46.5540 O   0  0  0  0  0  0  0  0  0  0  0  0
   43.7920   34.6220   47.2740 H   0  0  0  0  0  0  0  0  0  0  0  0
  1  6  1  0  0  0  0
  1 21  1  0  0  0  0
  2  1  2  0  0  0  0
  3  4  2  0  0  0  0
  3  2  1  0  0  0  0
  4  5  1  0  0  0  0
  5  9  1  0  0  0  0
  5  6  2  0  0  0  0
  7  2  1  0  0  0  0
  8  3  1  0  0  0  0
  9 12  1  1  0  0  0
  9 10  1  0  0  0  0
 10 14  1  0  0  0  0
 10 13  1  0  0  0  0
 11 15  1  6  0  0  0
 11  9  1  0  0  0  0
 11 10  1  0  0  0  0
 16 17  1  0  0  0  0
 17 19  1  0  0  0  0
 18 17  2  0  0  0  0
 19 20  1  0  0  0  0
 19 11  1  0  0  0  0
 21 24  1  0  0  0  0
 21 23  1  0  0  0  0
 22 21  1  0  0  0  0
 24 29  1  0  0  0  0
 25 24  1  0  0  0  0
 26 24  1  0  0  0  0
 27 28  1  0  0  0  0
 28 33  1  0  0  0  0
 29 30  1  0  0  0  0
 29 28  2  0  0  0  0
 30 31  2  0  0  0  0
 31 35  1  0  0  0  0
 31 32  1  0  0  0  0
 32 36  1  0  0  0  0
 33 32  2  0  0  0  0
 33 37  1  0  0  0  0
 34 30  1  0  0  0  0
 37 38  1  0  0  0  0
M  END
>  <minimizedAffinity>
-5.94831753

>  <minimizedRMSD>
0.797352791

$$$$
