
 OpenBabel03242510103D

 24 25  0  0  0  0  0  0  0  0999 V2000
   37.5640   28.7270   42.6780 Br  0  0  0  0  0  0  0  0  0  0  0  0
   36.6490   28.4820   41.0210 C   0  0  0  0  0  0  0  0  0  0  0  0
   36.7540   27.2870   40.3450 C   0  0  0  0  0  0  0  0  0  0  0  0
   36.0860   27.0990   39.1290 C   0  0  0  0  0  0  0  0  0  0  0  0
   35.3330   28.1230   38.6370 C   0  0  0  0  0  0  0  0  0  0  0  0
   35.2520   29.2950   39.3380 C   0  0  0  0  0  0  0  0  0  0  0  0
   35.8830   29.5080   40.5110 C   0  0  0  0  0  0  0  0  0  0  0  0
   36.2240   26.1330   38.6690 H   0  0  0  0  0  0  0  0  0  0  0  0
   34.8290   27.9380   37.6910 H   0  0  0  0  0  0  0  0  0  0  0  0
   34.6460   30.0900   38.9210 H   0  0  0  0  0  0  0  0  0  0  0  0
   37.7120   24.3000   42.2190 C   0  0  0  0  0  0  0  0  0  0  0  0
   39.0970   24.2010   42.0120 C   0  0  0  0  0  0  0  0  0  0  0  0
   39.6920   25.1940   41.2080 C   0  0  0  0  0  0  0  0  0  0  0  0
   38.9080   26.1730   40.6870 N   0  0  0  0  0  0  0  0  0  0  0  0
   37.5730   26.2240   40.9170 C   0  0  0  0  0  0  0  0  0  0  0  0
   36.9960   25.2840   41.6820 N   0  0  0  0  0  0  0  0  0  0  0  0
   37.3000   23.5160   42.8430 H   0  0  0  0  0  0  0  0  0  0  0  0
   39.7250   23.4280   42.4210 H   0  0  0  0  0  0  0  0  0  0  0  0
   40.7560   25.1940   40.9960 H   0  0  0  0  0  0  0  0  0  0  0  0
   36.8300   32.7140   41.0300 H   0  0  0  0  0  0  0  0  0  0  0  0
   36.7270   31.6950   40.6860 C   0  0  0  0  0  0  0  0  0  0  0  0
   37.4510   31.1500   39.7940 O   0  0  0  0  0  0  0  0  0  0  0  0
   35.7440   30.7680   41.1800 N   0  0  0  0  0  0  0  0  0  0  0  0
   35.0770   31.1050   41.9310 H   0  0  0  0  0  0  0  0  0  0  0  0
  2  1  1  0  0  0  0
  3 15  1  0  0  0  0
  3  2  2  0  0  0  0
  4  3  1  0  0  0  0
  5  4  2  0  0  0  0
  5  6  1  0  0  0  0
  6  7  2  0  0  0  0
  7  2  1  0  0  0  0
  7 23  1  0  0  0  0
  8  4  1  0  0  0  0
  9  5  1  0  0  0  0
 10  6  1  0  0  0  0
 11 17  1  0  0  0  0
 12 11  1  0  0  0  0
 12 18  1  0  0  0  0
 13 12  2  0  0  0  0
 14 15  2  0  0  0  0
 14 13  1  0  0  0  0
 15 16  1  0  0  0  0
 16 11  2  0  0  0  0
 19 13  1  0  0  0  0
 21 20  1  0  0  0  0
 21 23  1  0  0  0  0
 22 21  2  0  0  0  0
 23 24  1  0  0  0  0
M  END
>  <minimizedAffinity>
-4.73053932

$$$$

 OpenBabel03242510103D

 24 25  0  0  0  0  0  0  0  0999 V2000
   40.3250   31.1390   42.5550 Br  0  0  0  0  0  0  0  0  0  0  0  0
   38.9430   31.6640   41.3480 C   0  0  0  0  0  0  0  0  0  0  0  0
   37.9150   30.7950   41.0560 C   0  0  0  0  0  0  0  0  0  0  0  0
   36.8970   31.1730   40.1710 C   0  0  0  0  0  0  0  0  0  0  0  0
   36.9490   32.4160   39.6130 C   0  0  0  0  0  0  0  0  0  0  0  0
   37.9850   33.2510   39.9300 C   0  0  0  0  0  0  0  0  0  0  0  0
   38.9810   32.9180   40.7760 C   0  0  0  0  0  0  0  0  0  0  0  0
   36.1330   30.4300   40.0000 H   0  0  0  0  0  0  0  0  0  0  0  0
   36.1400   32.6720   38.9330 H   0  0  0  0  0  0  0  0  0  0  0  0
   37.9980   34.2320   39.4700 H   0  0  0  0  0  0  0  0  0  0  0  0
   38.4790   27.2230   41.5760 C   0  0  0  0  0  0  0  0  0  0  0  0
   37.9110   26.9710   42.8360 C   0  0  0  0  0  0  0  0  0  0  0  0
   37.3270   28.0690   43.5000 C   0  0  0  0  0  0  0  0  0  0  0  0
   37.3460   29.2860   42.8980 N   0  0  0  0  0  0  0  0  0  0  0  0
   37.9080   29.4780   41.6800 C   0  0  0  0  0  0  0  0  0  0  0  0
   38.4670   28.4390   41.0370 N   0  0  0  0  0  0  0  0  0  0  0  0
   38.9160   26.3510   41.1040 H   0  0  0  0  0  0  0  0  0  0  0  0
   37.8920   26.0100   43.3190 H   0  0  0  0  0  0  0  0  0  0  0  0
   36.8650   27.9640   44.4760 H   0  0  0  0  0  0  0  0  0  0  0  0
   41.9100   34.4140   39.9840 H   0  0  0  0  0  0  0  0  0  0  0  0
   41.0180   33.8030   40.0090 C   0  0  0  0  0  0  0  0  0  0  0  0
   40.6990   32.9440   39.1280 O   0  0  0  0  0  0  0  0  0  0  0  0
   40.0300   33.8550   41.0520 N   0  0  0  0  0  0  0  0  0  0  0  0
   40.1830   34.5370   41.8490 H   0  0  0  0  0  0  0  0  0  0  0  0
  2  1  1  0  0  0  0
  3  2  1  0  0  0  0
  3 15  1  0  0  0  0
  4  3  2  0  0  0  0
  5  6  2  0  0  0  0
  5  4  1  0  0  0  0
  6  7  1  0  0  0  0
  7 23  1  0  0  0  0
  7  2  2  0  0  0  0
  8  4  1  0  0  0  0
  9  5  1  0  0  0  0
 10  6  1  0  0  0  0
 11 12  1  0  0  0  0
 12 18  1  0  0  0  0
 12 13  2  0  0  0  0
 13 19  1  0  0  0  0
 14 13  1  0  0  0  0
 15 14  2  0  0  0  0
 16 11  2  0  0  0  0
 16 15  1  0  0  0  0
 17 11  1  0  0  0  0
 20 21  1  0  0  0  0
 21 23  1  0  0  0  0
 22 21  2  0  0  0  0
 23 24  1  0  0  0  0
M  END
>  <minimizedAffinity>
-4.69109154

$$$$

 OpenBabel03242510103D

 24 25  0  0  0  0  0  0  0  0999 V2000
   39.3790   30.2880   42.5770 Br  0  0  0  0  0  0  0  0  0  0  0  0
   37.8070   30.0420   41.5220 C   0  0  0  0  0  0  0  0  0  0  0  0
   37.5530   30.8790   40.4590 C   0  0  0  0  0  0  0  0  0  0  0  0
   36.4020   30.7050   39.6800 C   0  0  0  0  0  0  0  0  0  0  0  0
   35.5480   29.6910   39.9990 C   0  0  0  0  0  0  0  0  0  0  0  0
   35.8370   28.8800   41.0610 C   0  0  0  0  0  0  0  0  0  0  0  0
   36.9350   29.0200   41.8320 C   0  0  0  0  0  0  0  0  0  0  0  0
   36.2820   31.4060   38.8680 H   0  0  0  0  0  0  0  0  0  0  0  0
   34.6670   29.5890   39.3700 H   0  0  0  0  0  0  0  0  0  0  0  0
   35.1390   28.0830   41.2900 H   0  0  0  0  0  0  0  0  0  0  0  0
   39.1850   34.1470   40.4940 C   0  0  0  0  0  0  0  0  0  0  0  0
   40.2730   33.9910   39.6190 C   0  0  0  0  0  0  0  0  0  0  0  0
   40.4270   32.7260   39.0170 C   0  0  0  0  0  0  0  0  0  0  0  0
   39.5330   31.7460   39.3090 N   0  0  0  0  0  0  0  0  0  0  0  0
   38.4990   31.9480   40.1620 C   0  0  0  0  0  0  0  0  0  0  0  0
   38.3410   33.1490   40.7410 N   0  0  0  0  0  0  0  0  0  0  0  0
   39.1070   35.1350   40.9320 H   0  0  0  0  0  0  0  0  0  0  0  0
   40.9860   34.7620   39.3830 H   0  0  0  0  0  0  0  0  0  0  0  0
   41.2400   32.5180   38.3290 H   0  0  0  0  0  0  0  0  0  0  0  0
   38.0720   26.0930   43.0890 H   0  0  0  0  0  0  0  0  0  0  0  0
   37.7970   26.9250   42.4570 C   0  0  0  0  0  0  0  0  0  0  0  0
   37.9870   26.9800   41.2010 O   0  0  0  0  0  0  0  0  0  0  0  0
   37.1600   28.1250   42.9280 N   0  0  0  0  0  0  0  0  0  0  0  0
   36.9460   28.2010   43.9640 H   0  0  0  0  0  0  0  0  0  0  0  0
  2  7  1  0  0  0  0
  2  1  1  0  0  0  0
  3  2  2  0  0  0  0
  4  5  2  0  0  0  0
  4  3  1  0  0  0  0
  5  6  1  0  0  0  0
  6 10  1  0  0  0  0
  6  7  2  0  0  0  0
  7 23  1  0  0  0  0
  8  4  1  0  0  0  0
  9  5  1  0  0  0  0
 11 16  1  0  0  0  0
 11 17  1  0  0  0  0
 12 11  2  0  0  0  0
 13 14  2  0  0  0  0
 13 12  1  0  0  0  0
 14 15  1  0  0  0  0
 15  3  1  0  0  0  0
 15 16  2  0  0  0  0
 18 12  1  0  0  0  0
 19 13  1  0  0  0  0
 21 23  1  0  0  0  0
 21 20  1  0  0  0  0
 22 21  2  0  0  0  0
 23 24  1  0  0  0  0
M  END
>  <minimizedAffinity>
-4.48416567

$$$$

 OpenBabel03242510103D

 24 25  0  0  0  0  0  0  0  0999 V2000
   37.4860   27.0540   39.4870 Br  0  0  0  0  0  0  0  0  0  0  0  0
   38.3130   26.9740   41.2050 C   0  0  0  0  0  0  0  0  0  0  0  0
   38.4810   28.1230   41.9440 C   0  0  0  0  0  0  0  0  0  0  0  0
   39.0870   28.0730   43.2060 C   0  0  0  0  0  0  0  0  0  0  0  0
   39.5010   26.8630   43.6800 C   0  0  0  0  0  0  0  0  0  0  0  0
   39.3150   25.7440   42.9160 C   0  0  0  0  0  0  0  0  0  0  0  0
   38.7360   25.7580   41.6980 C   0  0  0  0  0  0  0  0  0  0  0  0
   39.1780   29.0200   43.7140 H   0  0  0  0  0  0  0  0  0  0  0  0
   39.9650   26.8660   44.6630 H   0  0  0  0  0  0  0  0  0  0  0  0
   39.6540   24.7980   43.3210 H   0  0  0  0  0  0  0  0  0  0  0  0
   36.2800   30.8980   41.0480 C   0  0  0  0  0  0  0  0  0  0  0  0
   37.1180   31.7840   40.3510 C   0  0  0  0  0  0  0  0  0  0  0  0
   38.4650   31.3960   40.1990 C   0  0  0  0  0  0  0  0  0  0  0  0
   38.8700   30.2110   40.7240 N   0  0  0  0  0  0  0  0  0  0  0  0
   38.0200   29.3910   41.3900 C   0  0  0  0  0  0  0  0  0  0  0  0
   36.7350   29.7490   41.5400 N   0  0  0  0  0  0  0  0  0  0  0  0
   35.2550   31.2380   41.1400 H   0  0  0  0  0  0  0  0  0  0  0  0
   36.8050   32.7240   39.9320 H   0  0  0  0  0  0  0  0  0  0  0  0
   39.1810   32.0190   39.6750 H   0  0  0  0  0  0  0  0  0  0  0  0
   37.0170   22.9420   40.9490 H   0  0  0  0  0  0  0  0  0  0  0  0
   37.3630   23.8820   41.3570 C   0  0  0  0  0  0  0  0  0  0  0  0
   36.7540   24.5580   42.2440 O   0  0  0  0  0  0  0  0  0  0  0  0
   38.5810   24.5360   40.9650 N   0  0  0  0  0  0  0  0  0  0  0  0
   39.1820   24.0690   40.2270 H   0  0  0  0  0  0  0  0  0  0  0  0
  1  2  1  0  0  0  0
  2  7  2  0  0  0  0
  2  3  1  0  0  0  0
  3  4  2  0  0  0  0
  4  5  1  0  0  0  0
  4  8  1  0  0  0  0
  5  9  1  0  0  0  0
  6 10  1  0  0  0  0
  6  5  2  0  0  0  0
  7  6  1  0  0  0  0
 11 17  1  0  0  0  0
 11 16  1  0  0  0  0
 12 11  2  0  0  0  0
 13 12  1  0  0  0  0
 13 14  2  0  0  0  0
 14 15  1  0  0  0  0
 15 16  2  0  0  0  0
 15  3  1  0  0  0  0
 18 12  1  0  0  0  0
 19 13  1  0  0  0  0
 20 21  1  0  0  0  0
 21 22  2  0  0  0  0
 23 21  1  0  0  0  0
 23  7  1  0  0  0  0
 24 23  1  0  0  0  0
M  END
>  <minimizedAffinity>
-4.42333937

$$$$

 OpenBabel03242510103D

 24 25  0  0  0  0  0  0  0  0999 V2000
   36.2060   27.4160   39.4340 Br  0  0  0  0  0  0  0  0  0  0  0  0
   36.9620   27.6170   41.1750 C   0  0  0  0  0  0  0  0  0  0  0  0
   37.7550   26.6210   41.7020 C   0  0  0  0  0  0  0  0  0  0  0  0
   38.3130   26.7600   42.9780 C   0  0  0  0  0  0  0  0  0  0  0  0
   38.0550   27.9010   43.6790 C   0  0  0  0  0  0  0  0  0  0  0  0
   37.2650   28.8670   43.1210 C   0  0  0  0  0  0  0  0  0  0  0  0
   36.7110   28.7640   41.8950 C   0  0  0  0  0  0  0  0  0  0  0  0
   38.9200   25.9320   43.3110 H   0  0  0  0  0  0  0  0  0  0  0  0
   38.5070   27.9710   44.6660 H   0  0  0  0  0  0  0  0  0  0  0  0
   37.0780   29.7620   43.7030 H   0  0  0  0  0  0  0  0  0  0  0  0
   39.3050   24.3040   39.3400 C   0  0  0  0  0  0  0  0  0  0  0  0
   38.4850   23.1650   39.3960 C   0  0  0  0  0  0  0  0  0  0  0  0
   37.3810   23.2190   40.2710 C   0  0  0  0  0  0  0  0  0  0  0  0
   37.1760   24.3480   40.9990 N   0  0  0  0  0  0  0  0  0  0  0  0
   37.9980   25.4210   40.9090 C   0  0  0  0  0  0  0  0  0  0  0  0
   39.0520   25.3810   40.0780 N   0  0  0  0  0  0  0  0  0  0  0  0
   40.1400   24.2160   38.6550 H   0  0  0  0  0  0  0  0  0  0  0  0
   38.6420   22.2680   38.8230 H   0  0  0  0  0  0  0  0  0  0  0  0
   36.6970   22.3850   40.3760 H   0  0  0  0  0  0  0  0  0  0  0  0
   36.3500   31.7810   40.4080 H   0  0  0  0  0  0  0  0  0  0  0  0
   36.7260   30.8700   40.8520 C   0  0  0  0  0  0  0  0  0  0  0  0
   37.9560   30.5720   40.9730 O   0  0  0  0  0  0  0  0  0  0  0  0
   35.8940   29.8260   41.3870 N   0  0  0  0  0  0  0  0  0  0  0  0
   34.8430   29.9570   41.3450 H   0  0  0  0  0  0  0  0  0  0  0  0
  1  2  1  0  0  0  0
  2  3  2  0  0  0  0
  2  7  1  0  0  0  0
  3  4  1  0  0  0  0
  4  8  1  0  0  0  0
  4  5  2  0  0  0  0
  5  9  1  0  0  0  0
  6  5  1  0  0  0  0
  6 10  1  0  0  0  0
  7  6  2  0  0  0  0
 11 12  2  0  0  0  0
 11 16  1  0  0  0  0
 12 13  1  0  0  0  0
 13 19  1  0  0  0  0
 13 14  2  0  0  0  0
 15 14  1  0  0  0  0
 15  3  1  0  0  0  0
 16 15  2  0  0  0  0
 17 11  1  0  0  0  0
 18 12  1  0  0  0  0
 20 21  1  0  0  0  0
 21 22  2  0  0  0  0
 21 23  1  0  0  0  0
 23  7  1  0  0  0  0
 24 23  1  0  0  0  0
M  END
>  <minimizedAffinity>
-4.39613438

$$$$

 OpenBabel03242510103D

 24 25  0  0  0  0  0  0  0  0999 V2000
   38.4130   27.8800   38.9040 Br  0  0  0  0  0  0  0  0  0  0  0  0
   37.8490   29.6880   39.1450 C   0  0  0  0  0  0  0  0  0  0  0  0
   37.5430   30.1530   40.4040 C   0  0  0  0  0  0  0  0  0  0  0  0
   37.1290   31.4780   40.5900 C   0  0  0  0  0  0  0  0  0  0  0  0
   37.0390   32.2890   39.4970 C   0  0  0  0  0  0  0  0  0  0  0  0
   37.3530   31.7900   38.2630 C   0  0  0  0  0  0  0  0  0  0  0  0
   37.7540   30.5200   38.0500 C   0  0  0  0  0  0  0  0  0  0  0  0
   36.9100   31.7560   41.6090 H   0  0  0  0  0  0  0  0  0  0  0  0
   36.7150   33.3100   39.6820 H   0  0  0  0  0  0  0  0  0  0  0  0
   37.2710   32.4600   37.4150 H   0  0  0  0  0  0  0  0  0  0  0  0
   36.6530   27.6870   42.9480 C   0  0  0  0  0  0  0  0  0  0  0  0
   37.8390   27.5120   43.6800 C   0  0  0  0  0  0  0  0  0  0  0  0
   38.9550   28.2690   43.2700 C   0  0  0  0  0  0  0  0  0  0  0  0
   38.8250   29.1100   42.2120 N   0  0  0  0  0  0  0  0  0  0  0  0
   37.6560   29.2430   41.5380 C   0  0  0  0  0  0  0  0  0  0  0  0
   36.5860   28.5270   41.9190 N   0  0  0  0  0  0  0  0  0  0  0  0
   35.8230   27.0850   43.2990 H   0  0  0  0  0  0  0  0  0  0  0  0
   37.9500   26.8470   44.5190 H   0  0  0  0  0  0  0  0  0  0  0  0
   39.9110   28.1950   43.7790 H   0  0  0  0  0  0  0  0  0  0  0  0
   36.8460   29.1740   35.0830 H   0  0  0  0  0  0  0  0  0  0  0  0
   36.8780   29.5680   36.0890 C   0  0  0  0  0  0  0  0  0  0  0  0
   35.8800   29.6420   36.8730 O   0  0  0  0  0  0  0  0  0  0  0  0
   38.0630   30.0800   36.7220 N   0  0  0  0  0  0  0  0  0  0  0  0
   38.9660   30.0720   36.1670 H   0  0  0  0  0  0  0  0  0  0  0  0
  1  2  1  0  0  0  0
  2  3  1  0  0  0  0
  3  4  2  0  0  0  0
  3 15  1  0  0  0  0
  4  8  1  0  0  0  0
  5  9  1  0  0  0  0
  5  4  1  0  0  0  0
  6  5  2  0  0  0  0
  7  6  1  0  0  0  0
  7  2  2  0  0  0  0
 10  6  1  0  0  0  0
 11 17  1  0  0  0  0
 11 12  1  0  0  0  0
 12 18  1  0  0  0  0
 13 12  2  0  0  0  0
 13 19  1  0  0  0  0
 14 13  1  0  0  0  0
 15 16  1  0  0  0  0
 15 14  2  0  0  0  0
 16 11  2  0  0  0  0
 20 21  1  0  0  0  0
 21 23  1  0  0  0  0
 21 22  2  0  0  0  0
 23  7  1  0  0  0  0
 24 23  1  0  0  0  0
M  END
>  <minimizedAffinity>
-4.37840128

$$$$

 OpenBabel03242510103D

 24 25  0  0  0  0  0  0  0  0999 V2000
   39.5960   28.5730   39.5030 Br  0  0  0  0  0  0  0  0  0  0  0  0
   38.5700   30.1780   39.3800 C   0  0  0  0  0  0  0  0  0  0  0  0
   37.6300   30.4710   40.3430 C   0  0  0  0  0  0  0  0  0  0  0  0
   36.8720   31.6460   40.2610 C   0  0  0  0  0  0  0  0  0  0  0  0
   37.0910   32.4860   39.2100 C   0  0  0  0  0  0  0  0  0  0  0  0
   38.0340   32.1610   38.2740 C   0  0  0  0  0  0  0  0  0  0  0  0
   38.7790   31.0380   38.3240 C   0  0  0  0  0  0  0  0  0  0  0  0
   36.1600   31.7950   41.0570 H   0  0  0  0  0  0  0  0  0  0  0  0
   36.4840   33.3890   39.1820 H   0  0  0  0  0  0  0  0  0  0  0  0
   38.1840   32.8500   37.4510 H   0  0  0  0  0  0  0  0  0  0  0  0
   36.3200   27.6890   42.3160 C   0  0  0  0  0  0  0  0  0  0  0  0
   37.0480   27.7520   43.5160 C   0  0  0  0  0  0  0  0  0  0  0  0
   38.0040   28.7830   43.6250 C   0  0  0  0  0  0  0  0  0  0  0  0
   38.1650   29.6410   42.5840 N   0  0  0  0  0  0  0  0  0  0  0  0
   37.4370   29.5360   41.4460 C   0  0  0  0  0  0  0  0  0  0  0  0
   36.5230   28.5590   41.3310 N   0  0  0  0  0  0  0  0  0  0  0  0
   35.5980   26.8820   42.2780 H   0  0  0  0  0  0  0  0  0  0  0  0
   36.9260   27.0760   44.3440 H   0  0  0  0  0  0  0  0  0  0  0  0
   38.6100   28.9050   44.5160 H   0  0  0  0  0  0  0  0  0  0  0  0
   41.8550   31.4330   36.9730 H   0  0  0  0  0  0  0  0  0  0  0  0
   40.9710   31.4690   37.5940 C   0  0  0  0  0  0  0  0  0  0  0  0
   40.8670   32.1270   38.6760 O   0  0  0  0  0  0  0  0  0  0  0  0
   39.7460   30.7750   37.3000 N   0  0  0  0  0  0  0  0  0  0  0  0
   39.7060   30.1880   36.4180 H   0  0  0  0  0  0  0  0  0  0  0  0
  2  1  1  0  0  0  0
  2  3  1  0  0  0  0
  3 15  1  0  0  0  0
  4  3  2  0  0  0  0
  4  8  1  0  0  0  0
  5  4  1  0  0  0  0
  6  7  1  0  0  0  0
  6  5  2  0  0  0  0
  7  2  2  0  0  0  0
  9  5  1  0  0  0  0
 10  6  1  0  0  0  0
 11 12  1  0  0  0  0
 12 13  2  0  0  0  0
 12 18  1  0  0  0  0
 13 19  1  0  0  0  0
 14 13  1  0  0  0  0
 15 14  2  0  0  0  0
 16 15  1  0  0  0  0
 16 11  2  0  0  0  0
 17 11  1  0  0  0  0
 20 21  1  0  0  0  0
 21 22  2  0  0  0  0
 23 21  1  0  0  0  0
 23  7  1  0  0  0  0
 24 23  1  0  0  0  0
M  END
>  <minimizedAffinity>
-4.36423969

$$$$

 OpenBabel03242510103D

 24 25  0  0  0  0  0  0  0  0999 V2000
   36.5030   31.0240   40.4250 Br  0  0  0  0  0  0  0  0  0  0  0  0
   38.4110   30.9560   40.4110 C   0  0  0  0  0  0  0  0  0  0  0  0
   39.0690   29.9260   41.0470 C   0  0  0  0  0  0  0  0  0  0  0  0
   40.4680   29.8680   41.0420 C   0  0  0  0  0  0  0  0  0  0  0  0
   41.1560   30.8500   40.3930 C   0  0  0  0  0  0  0  0  0  0  0  0
   40.4670   31.8550   39.7720 C   0  0  0  0  0  0  0  0  0  0  0  0
   39.1210   31.9410   39.7590 C   0  0  0  0  0  0  0  0  0  0  0  0
   40.8990   29.0280   41.5640 H   0  0  0  0  0  0  0  0  0  0  0  0
   42.2400   30.7700   40.4100 H   0  0  0  0  0  0  0  0  0  0  0  0
   41.0420   32.6210   39.2650 H   0  0  0  0  0  0  0  0  0  0  0  0
   37.2720   28.1390   43.6790 C   0  0  0  0  0  0  0  0  0  0  0  0
   36.8000   26.9810   43.0390 C   0  0  0  0  0  0  0  0  0  0  0  0
   37.1190   26.8340   41.6740 C   0  0  0  0  0  0  0  0  0  0  0  0
   37.8510   27.8020   41.0640 N   0  0  0  0  0  0  0  0  0  0  0  0
   38.2840   28.9020   41.7260 C   0  0  0  0  0  0  0  0  0  0  0  0
   37.9860   29.0520   43.0270 N   0  0  0  0  0  0  0  0  0  0  0  0
   37.0030   28.2080   44.7260 H   0  0  0  0  0  0  0  0  0  0  0  0
   36.2190   26.2110   43.5160 H   0  0  0  0  0  0  0  0  0  0  0  0
   36.7940   25.9710   41.1030 H   0  0  0  0  0  0  0  0  0  0  0  0
   37.9180   35.1020   39.6990 H   0  0  0  0  0  0  0  0  0  0  0  0
   38.3660   34.1560   39.9700 C   0  0  0  0  0  0  0  0  0  0  0  0
   38.8620   33.8850   41.1080 O   0  0  0  0  0  0  0  0  0  0  0  0
   38.4790   33.0300   39.0840 N   0  0  0  0  0  0  0  0  0  0  0  0
   38.0990   33.1310   38.0990 H   0  0  0  0  0  0  0  0  0  0  0  0
  2  1  1  0  0  0  0
  2  3  1  0  0  0  0
  3 15  1  0  0  0  0
  4  3  2  0  0  0  0
  4  8  1  0  0  0  0
  5  9  1  0  0  0  0
  5  4  1  0  0  0  0
  6  5  2  0  0  0  0
  7  6  1  0  0  0  0
  7  2  2  0  0  0  0
 10  6  1  0  0  0  0
 11 17  1  0  0  0  0
 12 18  1  0  0  0  0
 12 11  1  0  0  0  0
 13 12  2  0  0  0  0
 14 13  1  0  0  0  0
 14 15  2  0  0  0  0
 15 16  1  0  0  0  0
 16 11  2  0  0  0  0
 19 13  1  0  0  0  0
 20 21  1  0  0  0  0
 21 22  2  0  0  0  0
 23  7  1  0  0  0  0
 23 21  1  0  0  0  0
 24 23  1  0  0  0  0
M  END
>  <minimizedAffinity>
-4.34699678

$$$$

 OpenBabel03242510103D

 24 25  0  0  0  0  0  0  0  0999 V2000
   38.4900   28.2600   39.2870 Br  0  0  0  0  0  0  0  0  0  0  0  0
   37.8880   27.9810   41.0760 C   0  0  0  0  0  0  0  0  0  0  0  0
   37.7730   29.0480   41.9390 C   0  0  0  0  0  0  0  0  0  0  0  0
   37.3320   28.8530   43.2540 C   0  0  0  0  0  0  0  0  0  0  0  0
   37.0200   27.5870   43.6530 C   0  0  0  0  0  0  0  0  0  0  0  0
   37.1460   26.5530   42.7660 C   0  0  0  0  0  0  0  0  0  0  0  0
   37.5680   26.7070   41.4940 C   0  0  0  0  0  0  0  0  0  0  0  0
   37.2720   29.7440   43.8600 H   0  0  0  0  0  0  0  0  0  0  0  0
   36.6800   27.4760   44.6800 H   0  0  0  0  0  0  0  0  0  0  0  0
   36.8900   25.5590   43.1130 H   0  0  0  0  0  0  0  0  0  0  0  0
   37.4660   32.3500   40.4060 C   0  0  0  0  0  0  0  0  0  0  0  0
   38.7480   32.9080   40.5450 C   0  0  0  0  0  0  0  0  0  0  0  0
   39.7210   32.1120   41.1830 C   0  0  0  0  0  0  0  0  0  0  0  0
   39.3730   30.8740   41.6200 N   0  0  0  0  0  0  0  0  0  0  0  0
   38.1200   30.3810   41.4610 C   0  0  0  0  0  0  0  0  0  0  0  0
   37.1850   31.1300   40.8540 N   0  0  0  0  0  0  0  0  0  0  0  0
   36.7520   32.9970   39.9090 H   0  0  0  0  0  0  0  0  0  0  0  0
   39.0300   33.8880   40.2020 H   0  0  0  0  0  0  0  0  0  0  0  0
   40.7350   32.4650   41.3330 H   0  0  0  0  0  0  0  0  0  0  0  0
   39.2350   24.0020   40.3370 H   0  0  0  0  0  0  0  0  0  0  0  0
   38.9190   24.8910   40.8620 C   0  0  0  0  0  0  0  0  0  0  0  0
   39.5910   25.4830   41.7640 O   0  0  0  0  0  0  0  0  0  0  0  0
   37.6710   25.5680   40.6310 N   0  0  0  0  0  0  0  0  0  0  0  0
   37.0180   25.1700   39.8980 H   0  0  0  0  0  0  0  0  0  0  0  0
  1  2  1  0  0  0  0
  2  7  2  0  0  0  0
  2  3  1  0  0  0  0
  3  4  2  0  0  0  0
  4  5  1  0  0  0  0
  4  8  1  0  0  0  0
  5  9  1  0  0  0  0
  6 10  1  0  0  0  0
  6  5  2  0  0  0  0
  7  6  1  0  0  0  0
 11 12  2  0  0  0  0
 11 16  1  0  0  0  0
 12 13  1  0  0  0  0
 13 19  1  0  0  0  0
 13 14  2  0  0  0  0
 15 14  1  0  0  0  0
 15  3  1  0  0  0  0
 16 15  2  0  0  0  0
 17 11  1  0  0  0  0
 18 12  1  0  0  0  0
 20 21  1  0  0  0  0
 21 22  2  0  0  0  0
 23 21  1  0  0  0  0
 23  7  1  0  0  0  0
 24 23  1  0  0  0  0
M  END
>  <minimizedAffinity>
-4.29900885

$$$$
