
 OpenBabel03242521223D

 32 34  0  0  0  0  0  0  0  0999 V2000
   37.4930   30.4280   39.1740 C   0  0  0  0  0  0  0  0  0  0  0  0
   36.5610   30.4800   38.2030 C   0  0  0  0  0  0  0  0  0  0  0  0
   35.6740   29.4550   37.9280 C   0  0  0  0  0  0  0  0  0  0  0  0
   35.7840   28.3520   38.7040 N   0  0  0  0  0  0  0  0  0  0  0  0
   36.7150   28.2970   39.6780 C   0  0  0  0  0  0  0  0  0  0  0  0
   37.5770   29.3060   39.9370 N   0  0  0  0  0  0  0  0  0  0  0  0
   36.5290   31.3920   37.6210 H   0  0  0  0  0  0  0  0  0  0  0  0
   34.9570   29.5620   37.1390 H   0  0  0  0  0  0  0  0  0  0  0  0
   36.8230   27.0910   40.5140 C   0  0  0  0  0  0  0  0  0  0  0  0
   36.9190   25.8530   39.9130 C   0  0  0  0  0  0  0  0  0  0  0  0
   37.0230   24.6690   40.6240 C   0  0  0  0  0  0  0  0  0  0  0  0
   37.0300   24.7380   42.0140 C   0  0  0  0  0  0  0  0  0  0  0  0
   36.9350   25.9590   42.5950 C   0  0  0  0  0  0  0  0  0  0  0  0
   36.8320   27.1360   41.8830 C   0  0  0  0  0  0  0  0  0  0  0  0
   36.9120   25.8240   38.8200 H   0  0  0  0  0  0  0  0  0  0  0  0
   37.0960   23.7320   40.0900 H   0  0  0  0  0  0  0  0  0  0  0  0
   37.1120   23.8120   42.5740 H   0  0  0  0  0  0  0  0  0  0  0  0
   36.9400   26.0200   43.6890 H   0  0  0  0  0  0  0  0  0  0  0  0
   37.5410   30.0540   43.6860 H   0  0  0  0  0  0  0  0  0  0  0  0
   37.7690   29.1120   43.2170 C   0  0  0  0  0  0  0  0  0  0  0  0
   38.9460   28.6390   43.2420 O   0  0  0  0  0  0  0  0  0  0  0  0
   36.7350   28.3840   42.5560 N   0  0  0  0  0  0  0  0  0  0  0  0
   35.7450   28.7470   42.5150 H   0  0  0  0  0  0  0  0  0  0  0  0
   39.0220   33.3780   40.7360 C   0  0  0  0  0  0  0  0  0  0  0  0
   40.1210   33.6030   39.9160 C   0  0  0  0  0  0  0  0  0  0  0  0
   40.3410   32.7610   38.8410 C   0  0  0  0  0  0  0  0  0  0  0  0
   39.4660   31.7250   38.6160 N   0  0  0  0  0  0  0  0  0  0  0  0
   38.4110   31.5360   39.4310 C   0  0  0  0  0  0  0  0  0  0  0  0
   38.1980   32.3430   40.4630 N   0  0  0  0  0  0  0  0  0  0  0  0
   38.8990   34.0570   41.5480 H   0  0  0  0  0  0  0  0  0  0  0  0
   40.8520   34.3790   40.0120 H   0  0  0  0  0  0  0  0  0  0  0  0
   41.1580   32.8150   38.1150 H   0  0  0  0  0  0  0  0  0  0  0  0
  1 28  1  0  0  0  0
  1  6  1  0  0  0  0
  2  1  2  0  0  0  0
  3  2  1  0  0  0  0
  3  4  2  0  0  0  0
  4  5  1  0  0  0  0
  5  6  2  0  0  0  0
  5  9  1  0  0  0  0
  7  2  1  0  0  0  0
  8  3  1  0  0  0  0
  9 14  1  0  0  0  0
 10  9  2  0  0  0  0
 10 11  1  0  0  0  0
 11 12  2  0  0  0  0
 12 17  1  0  0  0  0
 12 13  1  0  0  0  0
 13 18  1  0  0  0  0
 14 22  1  0  0  0  0
 14 13  2  0  0  0  0
 15 10  1  0  0  0  0
 16 11  1  0  0  0  0
 20 21  2  0  0  0  0
 20 19  1  0  0  0  0
 22 20  1  0  0  0  0
 23 22  1  0  0  0  0
 24 30  1  0  0  0  0
 25 31  1  0  0  0  0
 25 24  2  0  0  0  0
 26 25  1  0  0  0  0
 27 26  2  0  0  0  0
 27 28  1  0  0  0  0
 28 29  2  0  0  0  0
 29 24  1  0  0  0  0
 32 26  1  0  0  0  0
M  END
>  <minimizedAffinity>
-5.46199894

$$$$

 OpenBabel03242521223D

 32 34  0  0  0  0  0  0  0  0999 V2000
   37.3810   30.4330   40.8660 C   0  0  0  0  0  0  0  0  0  0  0  0
   36.0690   30.2230   40.6460 C   0  0  0  0  0  0  0  0  0  0  0  0
   35.4350   29.0110   40.8510 C   0  0  0  0  0  0  0  0  0  0  0  0
   36.2180   28.0020   41.2980 N   0  0  0  0  0  0  0  0  0  0  0  0
   37.5320   28.2080   41.5200 C   0  0  0  0  0  0  0  0  0  0  0  0
   38.1400   29.3990   41.3160 N   0  0  0  0  0  0  0  0  0  0  0  0
   35.5040   31.0750   40.2880 H   0  0  0  0  0  0  0  0  0  0  0  0
   34.3860   28.9140   40.6550 H   0  0  0  0  0  0  0  0  0  0  0  0
   38.3700   27.1010   42.0070 C   0  0  0  0  0  0  0  0  0  0  0  0
   39.1190   27.2680   43.1530 C   0  0  0  0  0  0  0  0  0  0  0  0
   39.9340   26.2800   43.6800 C   0  0  0  0  0  0  0  0  0  0  0  0
   39.9940   25.0580   43.0150 C   0  0  0  0  0  0  0  0  0  0  0  0
   39.2540   24.9040   41.8910 C   0  0  0  0  0  0  0  0  0  0  0  0
   38.4440   25.8910   41.3700 C   0  0  0  0  0  0  0  0  0  0  0  0
   39.0560   28.2370   43.6570 H   0  0  0  0  0  0  0  0  0  0  0  0
   40.4960   26.4770   44.5820 H   0  0  0  0  0  0  0  0  0  0  0  0
   40.6310   24.2810   43.4260 H   0  0  0  0  0  0  0  0  0  0  0  0
   39.2960   23.9440   41.3640 H   0  0  0  0  0  0  0  0  0  0  0  0
   36.1370   24.6880   39.0240 H   0  0  0  0  0  0  0  0  0  0  0  0
   36.6130   24.7500   39.9880 C   0  0  0  0  0  0  0  0  0  0  0  0
   36.2270   24.0230   40.9540 O   0  0  0  0  0  0  0  0  0  0  0  0
   37.6920   25.6620   40.1850 N   0  0  0  0  0  0  0  0  0  0  0  0
   38.0390   26.2820   39.4050 H   0  0  0  0  0  0  0  0  0  0  0  0
   37.8480   33.9360   39.8710 C   0  0  0  0  0  0  0  0  0  0  0  0
   39.1790   34.1570   40.2060 C   0  0  0  0  0  0  0  0  0  0  0  0
   39.9120   33.1260   40.7640 C   0  0  0  0  0  0  0  0  0  0  0  0
   39.3020   31.9110   40.9730 N   0  0  0  0  0  0  0  0  0  0  0  0
   38.0110   31.7320   40.6360 C   0  0  0  0  0  0  0  0  0  0  0  0
   37.3060   32.7200   40.0990 N   0  0  0  0  0  0  0  0  0  0  0  0
   37.3300   34.7630   39.4430 H   0  0  0  0  0  0  0  0  0  0  0  0
   39.7360   35.0630   40.0820 H   0  0  0  0  0  0  0  0  0  0  0  0
   40.9600   33.1530   41.0760 H   0  0  0  0  0  0  0  0  0  0  0  0
  1  6  1  0  0  0  0
  2  3  1  0  0  0  0
  2  1  2  0  0  0  0
  3  4  2  0  0  0  0
  4  5  1  0  0  0  0
  5  9  1  0  0  0  0
  6  5  2  0  0  0  0
  7  2  1  0  0  0  0
  8  3  1  0  0  0  0
  9 10  1  0  0  0  0
 10 15  1  0  0  0  0
 10 11  2  0  0  0  0
 11 16  1  0  0  0  0
 12 17  1  0  0  0  0
 12 11  1  0  0  0  0
 13 12  2  0  0  0  0
 14 13  1  0  0  0  0
 14  9  2  0  0  0  0
 18 13  1  0  0  0  0
 19 20  1  0  0  0  0
 20 22  1  0  0  0  0
 20 21  2  0  0  0  0
 22 14  1  0  0  0  0
 23 22  1  0  0  0  0
 24 29  2  0  0  0  0
 24 25  1  0  0  0  0
 25 26  2  0  0  0  0
 26 27  1  0  0  0  0
 26 32  1  0  0  0  0
 28  1  1  0  0  0  0
 28 27  2  0  0  0  0
 29 28  1  0  0  0  0
 30 24  1  0  0  0  0
 31 25  1  0  0  0  0
M  END
>  <minimizedAffinity>
-5.43208504

$$$$

 OpenBabel03242521223D

 32 34  0  0  0  0  0  0  0  0999 V2000
   39.3490   31.7650   39.2080 C   0  0  0  0  0  0  0  0  0  0  0  0
   38.4770   32.7920   39.1950 C   0  0  0  0  0  0  0  0  0  0  0  0
   37.3380   32.8480   39.9780 C   0  0  0  0  0  0  0  0  0  0  0  0
   37.1250   31.7870   40.7900 N   0  0  0  0  0  0  0  0  0  0  0  0
   37.9950   30.7580   40.8060 C   0  0  0  0  0  0  0  0  0  0  0  0
   39.1060   30.7150   40.0360 N   0  0  0  0  0  0  0  0  0  0  0  0
   38.7110   33.6070   38.5220 H   0  0  0  0  0  0  0  0  0  0  0  0
   36.6860   33.6970   39.9170 H   0  0  0  0  0  0  0  0  0  0  0  0
   37.7500   29.6110   41.6950 C   0  0  0  0  0  0  0  0  0  0  0  0
   38.7730   29.1320   42.4860 C   0  0  0  0  0  0  0  0  0  0  0  0
   38.6280   28.0590   43.3490 C   0  0  0  0  0  0  0  0  0  0  0  0
   37.3840   27.4370   43.4170 C   0  0  0  0  0  0  0  0  0  0  0  0
   36.3860   27.9150   42.6360 C   0  0  0  0  0  0  0  0  0  0  0  0
   36.5350   28.9840   41.7780 C   0  0  0  0  0  0  0  0  0  0  0  0
   39.7400   29.6370   42.4150 H   0  0  0  0  0  0  0  0  0  0  0  0
   39.4710   27.7340   43.9420 H   0  0  0  0  0  0  0  0  0  0  0  0
   37.2670   26.5960   44.0930 H   0  0  0  0  0  0  0  0  0  0  0  0
   35.4050   27.4300   42.6850 H   0  0  0  0  0  0  0  0  0  0  0  0
   34.1710   29.4050   39.2270 H   0  0  0  0  0  0  0  0  0  0  0  0
   35.0250   28.9590   39.7080 C   0  0  0  0  0  0  0  0  0  0  0  0
   35.6660   28.0130   39.1550 O   0  0  0  0  0  0  0  0  0  0  0  0
   35.4440   29.4350   40.9850 N   0  0  0  0  0  0  0  0  0  0  0  0
   34.9350   30.2200   41.4750 H   0  0  0  0  0  0  0  0  0  0  0  0
   42.1320   30.5260   37.1590 C   0  0  0  0  0  0  0  0  0  0  0  0
   42.7660   31.7060   36.7870 C   0  0  0  0  0  0  0  0  0  0  0  0
   42.2530   32.9120   37.2280 C   0  0  0  0  0  0  0  0  0  0  0  0
   41.1300   32.9080   38.0220 N   0  0  0  0  0  0  0  0  0  0  0  0
   40.5420   31.7470   38.3630 C   0  0  0  0  0  0  0  0  0  0  0  0
   41.0330   30.5880   37.9410 N   0  0  0  0  0  0  0  0  0  0  0  0
   42.5690   29.6260   36.7930 H   0  0  0  0  0  0  0  0  0  0  0  0
   43.6390   31.8070   36.1760 H   0  0  0  0  0  0  0  0  0  0  0  0
   42.6420   33.9130   37.0170 H   0  0  0  0  0  0  0  0  0  0  0  0
  1  6  1  0  0  0  0
  2  1  2  0  0  0  0
  2  3  1  0  0  0  0
  3  4  2  0  0  0  0
  4  5  1  0  0  0  0
  5  9  1  0  0  0  0
  6  5  2  0  0  0  0
  7  2  1  0  0  0  0
  8  3  1  0  0  0  0
  9 14  2  0  0  0  0
  9 10  1  0  0  0  0
 10 11  2  0  0  0  0
 11 12  1  0  0  0  0
 11 16  1  0  0  0  0
 12 17  1  0  0  0  0
 13 18  1  0  0  0  0
 13 12  2  0  0  0  0
 14 13  1  0  0  0  0
 15 10  1  0  0  0  0
 19 20  1  0  0  0  0
 20 22  1  0  0  0  0
 21 20  2  0  0  0  0
 22 23  1  0  0  0  0
 22 14  1  0  0  0  0
 24 29  1  0  0  0  0
 25 24  2  0  0  0  0
 25 26  1  0  0  0  0
 26 27  2  0  0  0  0
 27 28  1  0  0  0  0
 28  1  1  0  0  0  0
 29 28  2  0  0  0  0
 30 24  1  0  0  0  0
 31 25  1  0  0  0  0
 32 26  1  0  0  0  0
M  END
>  <minimizedAffinity>
-5.37013674

$$$$

 OpenBabel03242521223D

 32 34  0  0  0  0  0  0  0  0999 V2000
   39.6890   32.4090   40.6630 C   0  0  0  0  0  0  0  0  0  0  0  0
   38.7400   33.1830   40.1030 C   0  0  0  0  0  0  0  0  0  0  0  0
   37.4020   32.8390   40.0360 C   0  0  0  0  0  0  0  0  0  0  0  0
   37.0700   31.6440   40.5780 N   0  0  0  0  0  0  0  0  0  0  0  0
   38.0170   30.8670   41.1410 C   0  0  0  0  0  0  0  0  0  0  0  0
   39.3220   31.2150   41.2000 N   0  0  0  0  0  0  0  0  0  0  0  0
   39.0760   34.1260   39.6880 H   0  0  0  0  0  0  0  0  0  0  0  0
   36.6980   33.5040   39.5750 H   0  0  0  0  0  0  0  0  0  0  0  0
   37.6410   29.5710   41.7260 C   0  0  0  0  0  0  0  0  0  0  0  0
   37.9380   29.3090   43.0470 C   0  0  0  0  0  0  0  0  0  0  0  0
   37.6210   28.1170   43.6770 C   0  0  0  0  0  0  0  0  0  0  0  0
   36.9680   27.1380   42.9330 C   0  0  0  0  0  0  0  0  0  0  0  0
   36.6800   27.4050   41.6370 C   0  0  0  0  0  0  0  0  0  0  0  0
   36.9980   28.5940   41.0140 C   0  0  0  0  0  0  0  0  0  0  0  0
   38.4520   30.0930   43.6110 H   0  0  0  0  0  0  0  0  0  0  0  0
   37.8830   27.9760   44.7160 H   0  0  0  0  0  0  0  0  0  0  0  0
   36.7170   26.2030   43.4230 H   0  0  0  0  0  0  0  0  0  0  0  0
   36.1650   26.6390   41.0460 H   0  0  0  0  0  0  0  0  0  0  0  0
   35.2880   29.2220   38.0220 H   0  0  0  0  0  0  0  0  0  0  0  0
   35.3840   29.0810   39.0850 C   0  0  0  0  0  0  0  0  0  0  0  0
   34.3700   29.1530   39.8460 O   0  0  0  0  0  0  0  0  0  0  0  0
   36.6650   28.8090   39.6480 N   0  0  0  0  0  0  0  0  0  0  0  0
   37.5290   28.7420   39.0460 H   0  0  0  0  0  0  0  0  0  0  0  0
   42.8260   34.1580   39.9010 C   0  0  0  0  0  0  0  0  0  0  0  0
   43.7110   33.5690   40.7980 C   0  0  0  0  0  0  0  0  0  0  0  0
   43.2460   32.5870   41.6540 C   0  0  0  0  0  0  0  0  0  0  0  0
   41.9220   32.2220   41.5930 N   0  0  0  0  0  0  0  0  0  0  0  0
   41.0930   32.8120   40.7120 C   0  0  0  0  0  0  0  0  0  0  0  0
   41.5370   33.7550   39.8890 N   0  0  0  0  0  0  0  0  0  0  0  0
   43.2360   34.9070   39.2650 H   0  0  0  0  0  0  0  0  0  0  0  0
   44.7520   33.7880   40.9180 H   0  0  0  0  0  0  0  0  0  0  0  0
   43.8210   32.0400   42.4070 H   0  0  0  0  0  0  0  0  0  0  0  0
  1 28  1  0  0  0  0
  1  6  1  0  0  0  0
  2  1  2  0  0  0  0
  3  2  1  0  0  0  0
  3  4  2  0  0  0  0
  4  5  1  0  0  0  0
  5  6  2  0  0  0  0
  5  9  1  0  0  0  0
  7  2  1  0  0  0  0
  8  3  1  0  0  0  0
  9 10  1  0  0  0  0
 10 15  1  0  0  0  0
 10 11  2  0  0  0  0
 11 16  1  0  0  0  0
 12 17  1  0  0  0  0
 12 11  1  0  0  0  0
 13 12  2  0  0  0  0
 14 13  1  0  0  0  0
 14  9  2  0  0  0  0
 18 13  1  0  0  0  0
 19 20  1  0  0  0  0
 20 22  1  0  0  0  0
 20 21  2  0  0  0  0
 22 14  1  0  0  0  0
 23 22  1  0  0  0  0
 24 25  1  0  0  0  0
 25 31  1  0  0  0  0
 25 26  2  0  0  0  0
 26 32  1  0  0  0  0
 27 26  1  0  0  0  0
 28 27  2  0  0  0  0
 29 24  2  0  0  0  0
 29 28  1  0  0  0  0
 30 24  1  0  0  0  0
M  END
>  <minimizedAffinity>
-5.35298347

$$$$

 OpenBabel03242521223D

 32 34  0  0  0  0  0  0  0  0999 V2000
   40.0840   32.0870   39.1180 C   0  0  0  0  0  0  0  0  0  0  0  0
   39.9490   33.0720   40.0260 C   0  0  0  0  0  0  0  0  0  0  0  0
   38.8020   33.2870   40.7690 C   0  0  0  0  0  0  0  0  0  0  0  0
   37.7790   32.4330   40.5380 N   0  0  0  0  0  0  0  0  0  0  0  0
   37.9110   31.4440   39.6310 C   0  0  0  0  0  0  0  0  0  0  0  0
   39.0380   31.2450   38.9110 N   0  0  0  0  0  0  0  0  0  0  0  0
   40.8080   33.7190   40.1590 H   0  0  0  0  0  0  0  0  0  0  0  0
   38.7630   34.0920   41.4750 H   0  0  0  0  0  0  0  0  0  0  0  0
   36.7890   30.5230   39.3910 C   0  0  0  0  0  0  0  0  0  0  0  0
   36.3860   30.2640   38.0980 C   0  0  0  0  0  0  0  0  0  0  0  0
   35.3400   29.4110   37.7840 C   0  0  0  0  0  0  0  0  0  0  0  0
   34.6670   28.7870   38.8300 C   0  0  0  0  0  0  0  0  0  0  0  0
   35.0710   29.0480   40.0970 C   0  0  0  0  0  0  0  0  0  0  0  0
   36.1120   29.8980   40.4060 C   0  0  0  0  0  0  0  0  0  0  0  0
   36.9290   30.7650   37.2930 H   0  0  0  0  0  0  0  0  0  0  0  0
   35.0750   29.2520   36.7480 H   0  0  0  0  0  0  0  0  0  0  0  0
   33.8470   28.1180   38.5880 H   0  0  0  0  0  0  0  0  0  0  0  0
   34.5450   28.5600   40.9250 H   0  0  0  0  0  0  0  0  0  0  0  0
   37.5880   29.6860   43.5750 H   0  0  0  0  0  0  0  0  0  0  0  0
   37.4080   29.3880   42.5560 C   0  0  0  0  0  0  0  0  0  0  0  0
   38.0060   28.3880   42.0530 O   0  0  0  0  0  0  0  0  0  0  0  0
   36.4850   30.1270   41.7580 N   0  0  0  0  0  0  0  0  0  0  0  0
   35.9700   30.9640   42.1440 H   0  0  0  0  0  0  0  0  0  0  0  0
   43.5560   32.4530   37.9840 C   0  0  0  0  0  0  0  0  0  0  0  0
   43.6160   31.5440   36.9340 C   0  0  0  0  0  0  0  0  0  0  0  0
   42.4860   30.8130   36.6130 C   0  0  0  0  0  0  0  0  0  0  0  0
   41.3370   31.0070   37.3440 N   0  0  0  0  0  0  0  0  0  0  0  0
   41.3150   31.8960   38.3540 C   0  0  0  0  0  0  0  0  0  0  0  0
   42.3990   32.5990   38.6630 N   0  0  0  0  0  0  0  0  0  0  0  0
   44.4540   32.9900   38.1870 H   0  0  0  0  0  0  0  0  0  0  0  0
   44.4600   31.3260   36.3120 H   0  0  0  0  0  0  0  0  0  0  0  0
   42.3840   30.0670   35.8190 H   0  0  0  0  0  0  0  0  0  0  0  0
  1  2  1  0  0  0  0
  2  7  1  0  0  0  0
  2  3  2  0  0  0  0
  3  8  1  0  0  0  0
  4  3  1  0  0  0  0
  5  4  2  0  0  0  0
  6  1  2  0  0  0  0
  6  5  1  0  0  0  0
  9  5  1  0  0  0  0
  9 14  1  0  0  0  0
 10  9  2  0  0  0  0
 11 10  1  0  0  0  0
 11 12  2  0  0  0  0
 12 13  1  0  0  0  0
 13 14  2  0  0  0  0
 13 18  1  0  0  0  0
 14 22  1  0  0  0  0
 15 10  1  0  0  0  0
 16 11  1  0  0  0  0
 17 12  1  0  0  0  0
 20 19  1  0  0  0  0
 21 20  2  0  0  0  0
 22 23  1  0  0  0  0
 22 20  1  0  0  0  0
 24 30  1  0  0  0  0
 24 29  1  0  0  0  0
 25 24  2  0  0  0  0
 26 25  1  0  0  0  0
 26 27  2  0  0  0  0
 27 28  1  0  0  0  0
 28 29  2  0  0  0  0
 28  1  1  0  0  0  0
 31 25  1  0  0  0  0
 32 26  1  0  0  0  0
M  END
>  <minimizedAffinity>
-5.31019163

$$$$

 OpenBabel03242521223D

 32 34  0  0  0  0  0  0  0  0999 V2000
   39.4740   30.4090   41.5400 C   0  0  0  0  0  0  0  0  0  0  0  0
   40.6390   30.5790   42.1940 C   0  0  0  0  0  0  0  0  0  0  0  0
   41.3150   29.5630   42.8450 C   0  0  0  0  0  0  0  0  0  0  0  0
   40.7350   28.3410   42.7980 N   0  0  0  0  0  0  0  0  0  0  0  0
   39.5690   28.1680   42.1440 C   0  0  0  0  0  0  0  0  0  0  0  0
   38.9180   29.1700   41.5110 N   0  0  0  0  0  0  0  0  0  0  0  0
   41.0460   31.5830   42.1910 H   0  0  0  0  0  0  0  0  0  0  0  0
   42.2400   29.7680   43.3470 H   0  0  0  0  0  0  0  0  0  0  0  0
   38.9510   26.8330   42.1020 C   0  0  0  0  0  0  0  0  0  0  0  0
   39.7480   25.7190   41.9440 C   0  0  0  0  0  0  0  0  0  0  0  0
   39.2500   24.4280   41.8940 C   0  0  0  0  0  0  0  0  0  0  0  0
   37.8730   24.2520   42.0080 C   0  0  0  0  0  0  0  0  0  0  0  0
   37.0990   25.3530   42.1620 C   0  0  0  0  0  0  0  0  0  0  0  0
   37.5990   26.6370   42.2120 C   0  0  0  0  0  0  0  0  0  0  0  0
   40.8260   25.8810   41.8570 H   0  0  0  0  0  0  0  0  0  0  0  0
   39.9300   23.5980   41.7690 H   0  0  0  0  0  0  0  0  0  0  0  0
   37.4790   23.2420   41.9700 H   0  0  0  0  0  0  0  0  0  0  0  0
   36.0140   25.2220   42.2540 H   0  0  0  0  0  0  0  0  0  0  0  0
   35.3110   29.2330   41.6690 H   0  0  0  0  0  0  0  0  0  0  0  0
   35.9250   28.3930   41.3900 C   0  0  0  0  0  0  0  0  0  0  0  0
   35.9440   27.9670   40.1950 O   0  0  0  0  0  0  0  0  0  0  0  0
   36.7290   27.7500   42.3770 N   0  0  0  0  0  0  0  0  0  0  0  0
   36.7380   28.0770   43.3800 H   0  0  0  0  0  0  0  0  0  0  0  0
   38.5990   33.8080   40.4620 C   0  0  0  0  0  0  0  0  0  0  0  0
   37.5290   33.5750   39.6070 C   0  0  0  0  0  0  0  0  0  0  0  0
   37.1080   32.2740   39.3970 C   0  0  0  0  0  0  0  0  0  0  0  0
   37.7610   31.2500   40.0420 N   0  0  0  0  0  0  0  0  0  0  0  0
   38.7940   31.5130   40.8640 C   0  0  0  0  0  0  0  0  0  0  0  0
   39.1990   32.7610   41.0670 N   0  0  0  0  0  0  0  0  0  0  0  0
   38.8820   34.8280   40.5890 H   0  0  0  0  0  0  0  0  0  0  0  0
   36.9630   34.3030   39.0640 H   0  0  0  0  0  0  0  0  0  0  0  0
   36.2860   31.9400   38.7560 H   0  0  0  0  0  0  0  0  0  0  0  0
  1  2  1  0  0  0  0
  2  3  2  0  0  0  0
  3  8  1  0  0  0  0
  4  3  1  0  0  0  0
  5  4  2  0  0  0  0
  6  1  2  0  0  0  0
  6  5  1  0  0  0  0
  7  2  1  0  0  0  0
  9  5  1  0  0  0  0
  9 14  1  0  0  0  0
 10  9  2  0  0  0  0
 11 10  1  0  0  0  0
 11 12  2  0  0  0  0
 12 13  1  0  0  0  0
 13 14  2  0  0  0  0
 13 18  1  0  0  0  0
 14 22  1  0  0  0  0
 15 10  1  0  0  0  0
 16 11  1  0  0  0  0
 17 12  1  0  0  0  0
 20 19  1  0  0  0  0
 20 22  1  0  0  0  0
 21 20  2  0  0  0  0
 22 23  1  0  0  0  0
 24 30  1  0  0  0  0
 24 29  1  0  0  0  0
 25 24  2  0  0  0  0
 26 25  1  0  0  0  0
 26 27  2  0  0  0  0
 27 28  1  0  0  0  0
 28 29  2  0  0  0  0
 28  1  1  0  0  0  0
 31 25  1  0  0  0  0
 32 26  1  0  0  0  0
M  END
>  <minimizedAffinity>
-5.20975494

$$$$

 OpenBabel03242521223D

 32 34  0  0  0  0  0  0  0  0999 V2000
   37.2760   27.3590   41.5040 C   0  0  0  0  0  0  0  0  0  0  0  0
   37.4380   27.2300   42.8350 C   0  0  0  0  0  0  0  0  0  0  0  0
   37.7650   28.2760   43.6790 C   0  0  0  0  0  0  0  0  0  0  0  0
   37.9220   29.4840   43.0910 N   0  0  0  0  0  0  0  0  0  0  0  0
   37.7600   29.6180   41.7590 C   0  0  0  0  0  0  0  0  0  0  0  0
   37.4400   28.5870   40.9440 N   0  0  0  0  0  0  0  0  0  0  0  0
   37.2970   26.2350   43.2380 H   0  0  0  0  0  0  0  0  0  0  0  0
   37.8790   28.1020   44.7310 H   0  0  0  0  0  0  0  0  0  0  0  0
   37.9340   30.9390   41.1340 C   0  0  0  0  0  0  0  0  0  0  0  0
   37.0080   31.3820   40.2130 C   0  0  0  0  0  0  0  0  0  0  0  0
   37.0960   32.6100   39.5780 C   0  0  0  0  0  0  0  0  0  0  0  0
   38.1750   33.4330   39.8900 C   0  0  0  0  0  0  0  0  0  0  0  0
   39.0780   32.9880   40.7960 C   0  0  0  0  0  0  0  0  0  0  0  0
   38.9870   31.7650   41.4260 C   0  0  0  0  0  0  0  0  0  0  0  0
   36.1700   30.7190   39.9840 H   0  0  0  0  0  0  0  0  0  0  0  0
   36.3360   32.8970   38.8650 H   0  0  0  0  0  0  0  0  0  0  0  0
   38.2460   34.3960   39.3940 H   0  0  0  0  0  0  0  0  0  0  0  0
   39.9290   33.6310   41.0460 H   0  0  0  0  0  0  0  0  0  0  0  0
   41.8720   30.4830   42.9430 H   0  0  0  0  0  0  0  0  0  0  0  0
   41.2280   30.7330   42.1170 C   0  0  0  0  0  0  0  0  0  0  0  0
   41.5700   30.4790   40.9220 O   0  0  0  0  0  0  0  0  0  0  0  0
   39.9710   31.3590   42.3690 N   0  0  0  0  0  0  0  0  0  0  0  0
   39.6540   31.5850   43.3500 H   0  0  0  0  0  0  0  0  0  0  0  0
   36.6840   23.9160   40.3770 C   0  0  0  0  0  0  0  0  0  0  0  0
   36.2870   24.1070   39.0580 C   0  0  0  0  0  0  0  0  0  0  0  0
   36.2220   25.3930   38.5560 C   0  0  0  0  0  0  0  0  0  0  0  0
   36.5510   26.4470   39.3760 N   0  0  0  0  0  0  0  0  0  0  0  0
   36.9310   26.2260   40.6490 C   0  0  0  0  0  0  0  0  0  0  0  0
   36.9940   24.9910   41.1330 N   0  0  0  0  0  0  0  0  0  0  0  0
   36.7180   22.9050   40.7130 H   0  0  0  0  0  0  0  0  0  0  0  0
   36.0140   23.3530   38.3490 H   0  0  0  0  0  0  0  0  0  0  0  0
   35.9290   25.6950   37.5450 H   0  0  0  0  0  0  0  0  0  0  0  0
  1  2  1  0  0  0  0
  2  7  1  0  0  0  0
  2  3  2  0  0  0  0
  3  8  1  0  0  0  0
  4  3  1  0  0  0  0
  5  4  2  0  0  0  0
  6  1  2  0  0  0  0
  6  5  1  0  0  0  0
  9 14  1  0  0  0  0
  9  5  1  0  0  0  0
 10  9  2  0  0  0  0
 11 12  2  0  0  0  0
 11 10  1  0  0  0  0
 12 13  1  0  0  0  0
 13 18  1  0  0  0  0
 13 14  2  0  0  0  0
 14 22  1  0  0  0  0
 15 10  1  0  0  0  0
 16 11  1  0  0  0  0
 17 12  1  0  0  0  0
 20 22  1  0  0  0  0
 20 19  1  0  0  0  0
 21 20  2  0  0  0  0
 22 23  1  0  0  0  0
 24 30  1  0  0  0  0
 24 29  1  0  0  0  0
 25 24  2  0  0  0  0
 26 25  1  0  0  0  0
 26 27  2  0  0  0  0
 27 28  1  0  0  0  0
 28 29  2  0  0  0  0
 28  1  1  0  0  0  0
 31 25  1  0  0  0  0
 32 26  1  0  0  0  0
M  END
>  <minimizedAffinity>
-5.1840148

$$$$

 OpenBabel03242521223D

 32 34  0  0  0  0  0  0  0  0999 V2000
   37.3900   29.0370   41.3250 C   0  0  0  0  0  0  0  0  0  0  0  0
   37.4220   29.2050   42.6610 C   0  0  0  0  0  0  0  0  0  0  0  0
   37.4540   28.1640   43.5710 C   0  0  0  0  0  0  0  0  0  0  0  0
   37.4510   26.9170   43.0440 N   0  0  0  0  0  0  0  0  0  0  0  0
   37.4200   26.7450   41.7070 C   0  0  0  0  0  0  0  0  0  0  0  0
   37.3900   27.7720   40.8280 N   0  0  0  0  0  0  0  0  0  0  0  0
   37.4220   30.2300   43.0130 H   0  0  0  0  0  0  0  0  0  0  0  0
   37.4770   28.3700   44.6230 H   0  0  0  0  0  0  0  0  0  0  0  0
   37.4180   25.3830   41.1500 C   0  0  0  0  0  0  0  0  0  0  0  0
   36.5060   25.0510   40.1700 C   0  0  0  0  0  0  0  0  0  0  0  0
   36.4350   23.7940   39.5920 C   0  0  0  0  0  0  0  0  0  0  0  0
   37.3320   22.8220   40.0260 C   0  0  0  0  0  0  0  0  0  0  0  0
   38.2240   23.1580   40.9890 C   0  0  0  0  0  0  0  0  0  0  0  0
   38.2910   24.4110   41.5620 C   0  0  0  0  0  0  0  0  0  0  0  0
   35.8120   25.8310   39.8450 H   0  0  0  0  0  0  0  0  0  0  0  0
   35.6960   23.6000   38.8280 H   0  0  0  0  0  0  0  0  0  0  0  0
   37.2790   21.8360   39.5750 H   0  0  0  0  0  0  0  0  0  0  0  0
   38.9330   22.3980   41.3350 H   0  0  0  0  0  0  0  0  0  0  0  0
   41.2330   25.2490   43.2700 H   0  0  0  0  0  0  0  0  0  0  0  0
   40.6220   25.0610   42.4030 C   0  0  0  0  0  0  0  0  0  0  0  0
   41.1040   25.1570   41.2320 O   0  0  0  0  0  0  0  0  0  0  0  0
   39.2530   24.6980   42.5690 N   0  0  0  0  0  0  0  0  0  0  0  0
   38.8190   24.6080   43.5270 H   0  0  0  0  0  0  0  0  0  0  0  0
   37.3790   32.4790   40.0500 C   0  0  0  0  0  0  0  0  0  0  0  0
   37.2970   32.2800   38.6770 C   0  0  0  0  0  0  0  0  0  0  0  0
   37.2450   30.9870   38.1880 C   0  0  0  0  0  0  0  0  0  0  0  0
   37.2770   29.9370   39.0750 N   0  0  0  0  0  0  0  0  0  0  0  0
   37.3570   30.1670   40.3990 C   0  0  0  0  0  0  0  0  0  0  0  0
   37.4060   31.4070   40.8700 N   0  0  0  0  0  0  0  0  0  0  0  0
   37.4150   33.4950   40.3730 H   0  0  0  0  0  0  0  0  0  0  0  0
   37.2670   33.0300   37.9140 H   0  0  0  0  0  0  0  0  0  0  0  0
   37.1800   30.6780   37.1400 H   0  0  0  0  0  0  0  0  0  0  0  0
  1  2  1  0  0  0  0
  2  7  1  0  0  0  0
  2  3  2  0  0  0  0
  3  8  1  0  0  0  0
  4  3  1  0  0  0  0
  5  4  2  0  0  0  0
  6  1  2  0  0  0  0
  6  5  1  0  0  0  0
  9 14  1  0  0  0  0
  9  5  1  0  0  0  0
 10  9  2  0  0  0  0
 11 12  2  0  0  0  0
 11 10  1  0  0  0  0
 12 13  1  0  0  0  0
 13 18  1  0  0  0  0
 13 14  2  0  0  0  0
 14 22  1  0  0  0  0
 15 10  1  0  0  0  0
 16 11  1  0  0  0  0
 17 12  1  0  0  0  0
 20 22  1  0  0  0  0
 20 19  1  0  0  0  0
 21 20  2  0  0  0  0
 22 23  1  0  0  0  0
 24 30  1  0  0  0  0
 24 29  1  0  0  0  0
 25 24  2  0  0  0  0
 26 25  1  0  0  0  0
 26 27  2  0  0  0  0
 27 28  1  0  0  0  0
 28 29  2  0  0  0  0
 28  1  1  0  0  0  0
 31 25  1  0  0  0  0
 32 26  1  0  0  0  0
M  END
>  <minimizedAffinity>
-5.17469788

$$$$

 OpenBabel03242521223D

 32 34  0  0  0  0  0  0  0  0999 V2000
   38.6060   31.1510   38.6680 C   0  0  0  0  0  0  0  0  0  0  0  0
   37.6280   31.0010   37.7550 C   0  0  0  0  0  0  0  0  0  0  0  0
   36.5470   30.1520   37.9120 C   0  0  0  0  0  0  0  0  0  0  0  0
   36.5100   29.4500   39.0680 N   0  0  0  0  0  0  0  0  0  0  0  0
   37.4870   29.5980   39.9850 C   0  0  0  0  0  0  0  0  0  0  0  0
   38.5380   30.4310   39.8190 N   0  0  0  0  0  0  0  0  0  0  0  0
   37.7220   31.5940   36.8540 H   0  0  0  0  0  0  0  0  0  0  0  0
   35.8040   30.0810   37.1430 H   0  0  0  0  0  0  0  0  0  0  0  0
   37.4310   28.8270   41.2370 C   0  0  0  0  0  0  0  0  0  0  0  0
   37.7150   29.4520   42.4340 C   0  0  0  0  0  0  0  0  0  0  0  0
   37.6870   28.8020   43.6570 C   0  0  0  0  0  0  0  0  0  0  0  0
   37.3540   27.4500   43.6720 C   0  0  0  0  0  0  0  0  0  0  0  0
   37.0770   26.8460   42.4910 C   0  0  0  0  0  0  0  0  0  0  0  0
   37.1070   27.4970   41.2760 C   0  0  0  0  0  0  0  0  0  0  0  0
   37.9730   30.5140   42.3970 H   0  0  0  0  0  0  0  0  0  0  0  0
   37.9200   29.3510   44.5580 H   0  0  0  0  0  0  0  0  0  0  0  0
   37.3310   26.9380   44.6280 H   0  0  0  0  0  0  0  0  0  0  0  0
   36.8150   25.7820   42.4970 H   0  0  0  0  0  0  0  0  0  0  0  0
   37.2500   25.4220   38.4570 H   0  0  0  0  0  0  0  0  0  0  0  0
   37.6200   25.8720   39.3640 C   0  0  0  0  0  0  0  0  0  0  0  0
   38.7730   25.5850   39.8100 O   0  0  0  0  0  0  0  0  0  0  0  0
   36.8040   26.8020   40.0730 N   0  0  0  0  0  0  0  0  0  0  0  0
   35.8410   27.0630   39.7310 H   0  0  0  0  0  0  0  0  0  0  0  0
   40.9050   33.9820   39.0920 C   0  0  0  0  0  0  0  0  0  0  0  0
   41.8300   33.7580   38.0790 C   0  0  0  0  0  0  0  0  0  0  0  0
   41.6750   32.6560   37.2590 C   0  0  0  0  0  0  0  0  0  0  0  0
   40.6090   31.8120   37.4700 N   0  0  0  0  0  0  0  0  0  0  0  0
   39.7320   32.0600   38.4610 C   0  0  0  0  0  0  0  0  0  0  0  0
   39.8790   33.1180   39.2490 N   0  0  0  0  0  0  0  0  0  0  0  0
   41.0710   34.8460   39.6930 H   0  0  0  0  0  0  0  0  0  0  0  0
   42.6860   34.3550   37.8400 H   0  0  0  0  0  0  0  0  0  0  0  0
   42.3190   32.3530   36.4270 H   0  0  0  0  0  0  0  0  0  0  0  0
  1  6  1  0  0  0  0
  2  3  1  0  0  0  0
  2  1  2  0  0  0  0
  3  4  2  0  0  0  0
  4  5  1  0  0  0  0
  5  9  1  0  0  0  0
  6  5  2  0  0  0  0
  7  2  1  0  0  0  0
  8  3  1  0  0  0  0
  9 14  2  0  0  0  0
  9 10  1  0  0  0  0
 10 11  2  0  0  0  0
 11 12  1  0  0  0  0
 11 16  1  0  0  0  0
 12 17  1  0  0  0  0
 13 18  1  0  0  0  0
 13 12  2  0  0  0  0
 14 13  1  0  0  0  0
 15 10  1  0  0  0  0
 19 20  1  0  0  0  0
 20 21  2  0  0  0  0
 20 22  1  0  0  0  0
 22 14  1  0  0  0  0
 23 22  1  0  0  0  0
 24 29  1  0  0  0  0
 24 30  1  0  0  0  0
 25 24  2  0  0  0  0
 26 27  2  0  0  0  0
 26 25  1  0  0  0  0
 27 28  1  0  0  0  0
 28  1  1  0  0  0  0
 28 29  2  0  0  0  0
 31 25  1  0  0  0  0
 32 26  1  0  0  0  0
M  END
>  <minimizedAffinity>
-5.17265654

$$$$
