
 OpenBabel03252508203D

 30 31  0  0  0  0  0  0  0  0999 V2000
   44.8690   33.4780   41.1490 C   0  0  0  0  0  0  0  0  0  0  0  0
   44.3270   34.0560   41.9470 H   0  0  0  0  0  0  0  0  0  0  0  0
   44.8590   32.4300   41.4560 H   0  0  0  0  0  0  0  0  0  0  0  0
   46.2000   34.0970   41.0350 C   0  0  0  0  0  0  0  0  0  0  0  0
   47.0360   34.0360   39.9510 C   0  0  0  0  0  0  0  0  0  0  0  0
   48.2780   34.6380   39.9000 C   0  0  0  0  0  0  0  0  0  0  0  0
   48.6910   35.3460   41.0240 C   0  0  0  0  0  0  0  0  0  0  0  0
   47.8720   35.4240   42.1270 C   0  0  0  0  0  0  0  0  0  0  0  0
   46.6510   34.8140   42.1370 C   0  0  0  0  0  0  0  0  0  0  0  0
   46.6810   33.4790   39.0990 H   0  0  0  0  0  0  0  0  0  0  0  0
   48.8520   34.5250   38.9940 H   0  0  0  0  0  0  0  0  0  0  0  0
   49.6720   35.8200   40.9810 H   0  0  0  0  0  0  0  0  0  0  0  0
   48.2410   35.9850   42.9710 H   0  0  0  0  0  0  0  0  0  0  0  0
   45.9880   33.8430   45.3120 H   0  0  0  0  0  0  0  0  0  0  0  0
   46.3480   34.0090   44.2930 C   0  0  0  0  0  0  0  0  0  0  0  0
   47.2950   33.2540   43.9530 O   0  0  0  0  0  0  0  0  0  0  0  0
   45.8830   34.9570   43.3300 N   0  0  0  0  0  0  0  0  0  0  0  0
   45.1000   35.5580   43.6580 H   0  0  0  0  0  0  0  0  0  0  0  0
   44.0620   33.7480   39.8770 C   0  0  0  0  0  0  0  0  0  0  0  0
   44.0010   32.8620   39.2410 H   0  0  0  0  0  0  0  0  0  0  0  0
   44.5610   34.6140   39.3880 H   0  0  0  0  0  0  0  0  0  0  0  0
   41.2430   35.5440   41.6390 C   0  0  0  0  0  0  0  0  0  0  0  0
   42.5670   35.1440   41.3110 C   0  0  0  0  0  0  0  0  0  0  0  0
   42.7090   34.2230   40.2880 C   0  0  0  0  0  0  0  0  0  0  0  0
   41.5820   33.7520   39.6540 N   0  0  0  0  0  0  0  0  0  0  0  0
   40.3540   34.1630   40.0040 C   0  0  0  0  0  0  0  0  0  0  0  0
   40.1820   35.0620   41.0010 N   0  0  0  0  0  0  0  0  0  0  0  0
   41.2470   36.2730   42.4590 H   0  0  0  0  0  0  0  0  0  0  0  0
   43.4390   35.5260   41.8200 H   0  0  0  0  0  0  0  0  0  0  0  0
   39.4570   33.8020   39.5170 H   0  0  0  0  0  0  0  0  0  0  0  0
  1  3  1  0  0  0  0
  1  2  1  0  0  0  0
  4  1  1  0  0  0  0
  4  9  1  0  0  0  0
  5  4  2  0  0  0  0
  6  5  1  0  0  0  0
  6  7  2  0  0  0  0
  7  8  1  0  0  0  0
  8  9  2  0  0  0  0
  8 13  1  0  0  0  0
  9 17  1  0  0  0  0
 10  5  1  0  0  0  0
 11  6  1  0  0  0  0
 12  7  1  0  0  0  0
 15 14  1  0  0  0  0
 16 15  2  0  0  0  0
 17 18  1  0  0  0  0
 17 15  1  0  0  0  0
 19 24  1  0  0  0  0
 19  1  1  0  0  0  0
 20 19  1  0  0  0  0
 21 19  1  0  0  0  0
 22 28  1  0  0  0  0
 23 22  1  0  0  0  0
 23 29  1  0  0  0  0
 24 23  2  0  0  0  0
 25 26  2  0  0  0  0
 25 24  1  0  0  0  0
 26 27  1  0  0  0  0
 27 22  2  0  0  0  0
 30 26  1  0  0  0  0
M  END
>  <minimizedAffinity>
-4.64393711

>  <minimizedRMSD>
1.09552896

$$$$
