
 OpenBabel03252508203D

 30 31  0  0  0  0  0  0  0  0999 V2000
   43.7530   34.1270   41.5570 C   0  0  0  0  0  0  0  0  0  0  0  0
   43.2900   35.0240   42.0550 H   0  0  0  0  0  0  0  0  0  0  0  0
   43.3000   33.2440   42.0110 H   0  0  0  0  0  0  0  0  0  0  0  0
   45.2070   34.2670   41.7450 C   0  0  0  0  0  0  0  0  0  0  0  0
   46.1560   34.3030   40.7580 C   0  0  0  0  0  0  0  0  0  0  0  0
   47.5100   34.4370   40.9930 C   0  0  0  0  0  0  0  0  0  0  0  0
   47.9200   34.5420   42.3180 C   0  0  0  0  0  0  0  0  0  0  0  0
   46.9890   34.5090   43.3310 C   0  0  0  0  0  0  0  0  0  0  0  0
   45.6580   34.3750   43.0550 C   0  0  0  0  0  0  0  0  0  0  0  0
   45.7990   34.2200   39.7430 H   0  0  0  0  0  0  0  0  0  0  0  0
   48.1670   34.4540   40.1390 H   0  0  0  0  0  0  0  0  0  0  0  0
   48.9890   34.6470   42.5020 H   0  0  0  0  0  0  0  0  0  0  0  0
   47.3610   34.5940   44.3400 H   0  0  0  0  0  0  0  0  0  0  0  0
   43.8670   36.0510   45.3890 H   0  0  0  0  0  0  0  0  0  0  0  0
   44.5000   35.6980   44.5700 C   0  0  0  0  0  0  0  0  0  0  0  0
   45.0390   36.6200   43.9050 O   0  0  0  0  0  0  0  0  0  0  0  0
   44.7800   34.3520   44.1780 N   0  0  0  0  0  0  0  0  0  0  0  0
   44.3120   33.6280   44.7590 H   0  0  0  0  0  0  0  0  0  0  0  0
   43.4030   34.2990   40.0770 C   0  0  0  0  0  0  0  0  0  0  0  0
   43.6830   33.4200   39.4920 H   0  0  0  0  0  0  0  0  0  0  0  0
   43.9210   35.2310   39.7570 H   0  0  0  0  0  0  0  0  0  0  0  0
   39.9800   35.8280   40.5450 C   0  0  0  0  0  0  0  0  0  0  0  0
   41.3800   35.6290   40.6910 C   0  0  0  0  0  0  0  0  0  0  0  0
   41.9420   34.5800   39.9830 C   0  0  0  0  0  0  0  0  0  0  0  0
   41.1310   33.8020   39.1900 N   0  0  0  0  0  0  0  0  0  0  0  0
   39.8130   34.0340   39.0880 C   0  0  0  0  0  0  0  0  0  0  0  0
   39.2340   35.0500   39.7680 N   0  0  0  0  0  0  0  0  0  0  0  0
   39.6430   36.6800   41.1470 H   0  0  0  0  0  0  0  0  0  0  0  0
   42.0000   36.2510   41.3190 H   0  0  0  0  0  0  0  0  0  0  0  0
   39.1610   33.4310   38.4690 H   0  0  0  0  0  0  0  0  0  0  0  0
  1  4  1  0  0  0  0
  1  3  1  0  0  0  0
  1  2  1  0  0  0  0
  4  9  1  0  0  0  0
  5  6  1  0  0  0  0
  5  4  2  0  0  0  0
  6  7  2  0  0  0  0
  7 12  1  0  0  0  0
  7  8  1  0  0  0  0
  8 13  1  0  0  0  0
  9  8  2  0  0  0  0
  9 17  1  0  0  0  0
 10  5  1  0  0  0  0
 11  6  1  0  0  0  0
 15 14  1  0  0  0  0
 16 15  2  0  0  0  0
 17 15  1  0  0  0  0
 17 18  1  0  0  0  0
 19  1  1  0  0  0  0
 20 19  1  0  0  0  0
 21 19  1  0  0  0  0
 22 23  1  0  0  0  0
 22 28  1  0  0  0  0
 23 29  1  0  0  0  0
 24 19  1  0  0  0  0
 24 23  2  0  0  0  0
 25 24  1  0  0  0  0
 26 25  2  0  0  0  0
 26 27  1  0  0  0  0
 27 22  2  0  0  0  0
 30 26  1  0  0  0  0
M  END
>  <minimizedAffinity>
-4.9274416

>  <minimizedRMSD>
1.83909094

$$$$
