
 OpenBabel03252505453D

 21 22  0  0  1  0  0  0  0  0999 V2000
   36.7980   29.4350   40.1390 C   0  0  1  0  0  0  0  0  0  0  0  0
   36.4420   28.7250   41.4620 C   0  0  2  0  0  0  0  0  0  0  0  0
   35.4180   29.2940   40.5470 C   0  0  0  0  0  0  0  0  0  0  0  0
   37.2090   28.8000   39.3330 H   0  0  0  0  0  0  0  0  0  0  0  0
   36.7170   27.6590   41.4430 H   0  0  0  0  0  0  0  0  0  0  0  0
   34.8000   28.5180   40.0110 H   0  0  0  0  0  0  0  0  0  0  0  0
   34.7760   30.1130   40.9190 H   0  0  0  0  0  0  0  0  0  0  0  0
   37.5770   30.6750   40.3410 C   0  0  0  0  0  0  0  0  0  0  0  0
   36.9790   31.9110   39.9560 C   0  0  0  0  0  0  0  0  0  0  0  0
   37.6840   33.0930   40.1430 C   0  0  0  0  0  0  0  0  0  0  0  0
   38.9330   32.9850   40.6980 N   0  0  0  0  0  0  0  0  0  0  0  0
   39.4720   31.7990   41.0530 C   0  0  0  0  0  0  0  0  0  0  0  0
   38.7990   30.6640   40.8740 N   0  0  0  0  0  0  0  0  0  0  0  0
   35.9770   31.9180   39.5190 H   0  0  0  0  0  0  0  0  0  0  0  0
   37.2680   34.0530   39.8650 H   0  0  0  0  0  0  0  0  0  0  0  0
   40.4820   31.8680   41.4850 H   0  0  0  0  0  0  0  0  0  0  0  0
   37.8120   29.2060   44.5750 H   0  0  0  0  0  0  0  0  0  0  0  0
   37.5610   28.6690   43.6730 C   0  0  0  0  0  0  0  0  0  0  0  0
   37.8900   27.4740   43.4580 O   0  0  0  0  0  0  0  0  0  0  0  0
   36.8080   29.3810   42.6830 N   0  0  0  0  0  0  0  0  0  0  0  0
   36.5140   30.3900   42.8340 H   0  0  0  0  0  0  0  0  0  0  0  0
  1  4  1  6  0  0  0
  1  8  1  0  0  0  0
  1  3  1  0  0  0  0
  1  2  1  0  0  0  0
  2  5  1  6  0  0  0
  2 20  1  0  0  0  0
  3  7  1  0  0  0  0
  3  2  1  0  0  0  0
  6  3  1  0  0  0  0
  8 13  1  0  0  0  0
  9 10  1  0  0  0  0
  9  8  2  0  0  0  0
 10 11  2  0  0  0  0
 11 12  1  0  0  0  0
 12 16  1  0  0  0  0
 13 12  2  0  0  0  0
 14  9  1  0  0  0  0
 15 10  1  0  0  0  0
 18 17  1  0  0  0  0
 19 18  2  0  0  0  0
 20 21  1  0  0  0  0
 20 18  1  0  0  0  0
M  END
>  <minimizedAffinity>
-3.80590773

$$$$

 OpenBabel03252505453D

 21 22  0  0  1  0  0  0  0  0999 V2000
   37.4830   28.4420   43.4950 C   0  0  1  0  0  0  0  0  0  0  0  0
   37.1620   27.0920   42.8210 C   0  0  2  0  0  0  0  0  0  0  0  0
   38.3760   27.3160   43.6470 C   0  0  0  0  0  0  0  0  0  0  0  0
   36.8230   28.7480   44.3280 H   0  0  0  0  0  0  0  0  0  0  0  0
   36.2490   26.6340   43.2320 H   0  0  0  0  0  0  0  0  0  0  0  0
   38.3620   26.7780   44.6380 H   0  0  0  0  0  0  0  0  0  0  0  0
   39.3660   27.2180   43.1670 H   0  0  0  0  0  0  0  0  0  0  0  0
   37.7160   29.5320   42.5240 C   0  0  0  0  0  0  0  0  0  0  0  0
   39.0280   30.0820   42.4370 C   0  0  0  0  0  0  0  0  0  0  0  0
   39.2780   31.1010   41.5260 C   0  0  0  0  0  0  0  0  0  0  0  0
   38.2210   31.5140   40.7570 N   0  0  0  0  0  0  0  0  0  0  0  0
   36.9890   30.9720   40.8630 C   0  0  0  0  0  0  0  0  0  0  0  0
   36.7450   29.9960   41.7350 N   0  0  0  0  0  0  0  0  0  0  0  0
   39.8220   29.7000   43.0840 H   0  0  0  0  0  0  0  0  0  0  0  0
   40.2590   31.5460   41.4280 H   0  0  0  0  0  0  0  0  0  0  0  0
   36.2400   31.4050   40.1810 H   0  0  0  0  0  0  0  0  0  0  0  0
   37.0870   25.7970   39.6400 H   0  0  0  0  0  0  0  0  0  0  0  0
   37.0300   25.7860   40.7180 C   0  0  0  0  0  0  0  0  0  0  0  0
   36.8060   24.7500   41.3940 O   0  0  0  0  0  0  0  0  0  0  0  0
   37.2250   27.0370   41.3900 N   0  0  0  0  0  0  0  0  0  0  0  0
   37.4150   27.9300   40.8480 H   0  0  0  0  0  0  0  0  0  0  0  0
  1  3  1  0  0  0  0
  1  4  1  1  0  0  0
  2  5  1  1  0  0  0
  2  1  1  0  0  0  0
  2  3  1  0  0  0  0
  3  6  1  0  0  0  0
  7  3  1  0  0  0  0
  8  1  1  0  0  0  0
  9  8  1  0  0  0  0
  9 14  1  0  0  0  0
 10  9  2  0  0  0  0
 11 12  2  0  0  0  0
 11 10  1  0  0  0  0
 12 13  1  0  0  0  0
 13  8  2  0  0  0  0
 15 10  1  0  0  0  0
 16 12  1  0  0  0  0
 17 18  1  0  0  0  0
 18 20  1  0  0  0  0
 18 19  2  0  0  0  0
 20  2  1  0  0  0  0
 21 20  1  0  0  0  0
M  END
>  <minimizedAffinity>
-3.69252682

$$$$

 OpenBabel03252505453D

 21 22  0  0  1  0  0  0  0  0999 V2000
   36.6990   27.5590   42.2550 C   0  0  1  0  0  0  0  0  0  0  0  0
   38.1050   27.3930   42.8680 C   0  0  2  0  0  0  0  0  0  0  0  0
   36.9010   27.7160   43.6770 C   0  0  0  0  0  0  0  0  0  0  0  0
   36.2230   26.6440   41.8560 H   0  0  0  0  0  0  0  0  0  0  0  0
   38.4800   26.3630   42.7620 H   0  0  0  0  0  0  0  0  0  0  0  0
   36.5550   26.8740   44.3420 H   0  0  0  0  0  0  0  0  0  0  0  0
   36.8750   28.6770   44.2220 H   0  0  0  0  0  0  0  0  0  0  0  0
   36.6080   28.7020   41.3200 C   0  0  0  0  0  0  0  0  0  0  0  0
   36.4260   28.4200   39.9340 C   0  0  0  0  0  0  0  0  0  0  0  0
   36.3270   29.4740   39.0350 C   0  0  0  0  0  0  0  0  0  0  0  0
   36.4130   30.7390   39.5560 N   0  0  0  0  0  0  0  0  0  0  0  0
   36.5850   30.9730   40.8750 C   0  0  0  0  0  0  0  0  0  0  0  0
   36.6810   29.9660   41.7390 N   0  0  0  0  0  0  0  0  0  0  0  0
   36.3670   27.3830   39.5940 H   0  0  0  0  0  0  0  0  0  0  0  0
   36.1900   29.3050   37.9750 H   0  0  0  0  0  0  0  0  0  0  0  0
   36.6360   32.0390   41.1460 H   0  0  0  0  0  0  0  0  0  0  0  0
   41.1380   28.9990   42.7360 H   0  0  0  0  0  0  0  0  0  0  0  0
   40.4360   28.2230   43.0020 C   0  0  0  0  0  0  0  0  0  0  0  0
   40.7430   27.2070   43.6770 O   0  0  0  0  0  0  0  0  0  0  0  0
   39.0870   28.3870   42.5490 N   0  0  0  0  0  0  0  0  0  0  0  0
   38.7960   29.2340   41.9780 H   0  0  0  0  0  0  0  0  0  0  0  0
  1  4  1  6  0  0  0
  1  2  1  0  0  0  0
  1  3  1  0  0  0  0
  2  5  1  1  0  0  0
  2  3  1  0  0  0  0
  3  7  1  0  0  0  0
  3  6  1  0  0  0  0
  8 13  1  0  0  0  0
  8  1  1  0  0  0  0
  9  8  2  0  0  0  0
 10 11  2  0  0  0  0
 10  9  1  0  0  0  0
 11 12  1  0  0  0  0
 12 16  1  0  0  0  0
 12 13  2  0  0  0  0
 14  9  1  0  0  0  0
 15 10  1  0  0  0  0
 17 18  1  0  0  0  0
 18 19  2  0  0  0  0
 20  2  1  0  0  0  0
 20 18  1  0  0  0  0
 21 20  1  0  0  0  0
M  END
>  <minimizedAffinity>
-3.58545876

$$$$

 OpenBabel03252505453D

 21 22  0  0  1  0  0  0  0  0999 V2000
   39.8370   25.8080   43.6800 C   0  0  1  0  0  0  0  0  0  0  0  0
   39.3870   24.8010   42.6010 C   0  0  2  0  0  0  0  0  0  0  0  0
   40.8150   25.1110   42.8750 C   0  0  0  0  0  0  0  0  0  0  0  0
   39.6670   25.5130   44.7320 H   0  0  0  0  0  0  0  0  0  0  0  0
   38.8830   23.9270   43.0400 H   0  0  0  0  0  0  0  0  0  0  0  0
   41.3800   24.2700   43.3670 H   0  0  0  0  0  0  0  0  0  0  0  0
   41.4190   25.5660   42.0700 H   0  0  0  0  0  0  0  0  0  0  0  0
   39.3970   27.1920   43.3980 C   0  0  0  0  0  0  0  0  0  0  0  0
   40.3570   28.1060   42.8730 C   0  0  0  0  0  0  0  0  0  0  0  0
   39.9690   29.4090   42.5900 C   0  0  0  0  0  0  0  0  0  0  0  0
   38.6600   29.7310   42.8400 N   0  0  0  0  0  0  0  0  0  0  0  0
   37.7740   28.8410   43.3360 C   0  0  0  0  0  0  0  0  0  0  0  0
   38.1420   27.5920   43.6100 N   0  0  0  0  0  0  0  0  0  0  0  0
   41.3840   27.7750   42.7000 H   0  0  0  0  0  0  0  0  0  0  0  0
   40.6660   30.1340   42.1910 H   0  0  0  0  0  0  0  0  0  0  0  0
   36.7600   29.2430   43.4850 H   0  0  0  0  0  0  0  0  0  0  0  0
   36.8440   25.5040   40.4020 H   0  0  0  0  0  0  0  0  0  0  0  0
   37.3070   25.0900   41.2840 C   0  0  0  0  0  0  0  0  0  0  0  0
   36.6850   24.4260   42.1530 O   0  0  0  0  0  0  0  0  0  0  0  0
   38.7110   25.3240   41.4500 N   0  0  0  0  0  0  0  0  0  0  0  0
   39.2650   25.8800   40.7350 H   0  0  0  0  0  0  0  0  0  0  0  0
  1  4  1  1  0  0  0
  2  3  1  0  0  0  0
  2  5  1  1  0  0  0
  2  1  1  0  0  0  0
  3  6  1  0  0  0  0
  3  1  1  0  0  0  0
  7  3  1  0  0  0  0
  8 13  1  0  0  0  0
  8  1  1  0  0  0  0
  9  8  2  0  0  0  0
 10 11  2  0  0  0  0
 10  9  1  0  0  0  0
 11 12  1  0  0  0  0
 12 16  1  0  0  0  0
 12 13  2  0  0  0  0
 14  9  1  0  0  0  0
 15 10  1  0  0  0  0
 17 18  1  0  0  0  0
 18 20  1  0  0  0  0
 18 19  2  0  0  0  0
 20  2  1  0  0  0  0
 21 20  1  0  0  0  0
M  END
>  <minimizedAffinity>
-3.52355695

$$$$

 OpenBabel03252505453D

 21 22  0  0  1  0  0  0  0  0999 V2000
   35.8330   28.9840   41.0110 C   0  0  1  0  0  0  0  0  0  0  0  0
   36.0240   30.4860   40.7110 C   0  0  2  0  0  0  0  0  0  0  0  0
   35.8090   29.4680   39.6490 C   0  0  0  0  0  0  0  0  0  0  0  0
   34.8930   28.6980   41.5190 H   0  0  0  0  0  0  0  0  0  0  0  0
   35.2010   31.0940   41.1150 H   0  0  0  0  0  0  0  0  0  0  0  0
   34.8030   29.5370   39.1460 H   0  0  0  0  0  0  0  0  0  0  0  0
   36.6070   29.3090   38.9020 H   0  0  0  0  0  0  0  0  0  0  0  0
   37.0240   28.3610   41.6260 C   0  0  0  0  0  0  0  0  0  0  0  0
   36.9920   28.0940   43.0270 C   0  0  0  0  0  0  0  0  0  0  0  0
   38.0930   27.5010   43.6300 C   0  0  0  0  0  0  0  0  0  0  0  0
   39.1580   27.2060   42.8170 N   0  0  0  0  0  0  0  0  0  0  0  0
   39.1570   27.4710   41.4930 C   0  0  0  0  0  0  0  0  0  0  0  0
   38.1040   28.0410   40.9120 N   0  0  0  0  0  0  0  0  0  0  0  0
   36.1060   28.3580   43.6100 H   0  0  0  0  0  0  0  0  0  0  0  0
   38.1110   27.2810   44.6890 H   0  0  0  0  0  0  0  0  0  0  0  0
   40.0810   27.1800   40.9700 H   0  0  0  0  0  0  0  0  0  0  0  0
   38.7130   32.6100   40.4770 H   0  0  0  0  0  0  0  0  0  0  0  0
   37.7310   32.2240   40.2530 C   0  0  0  0  0  0  0  0  0  0  0  0
   36.9500   32.7470   39.4160 O   0  0  0  0  0  0  0  0  0  0  0  0
   37.3190   31.0490   40.9610 N   0  0  0  0  0  0  0  0  0  0  0  0
   37.9540   30.5840   41.6740 H   0  0  0  0  0  0  0  0  0  0  0  0
  1  4  1  1  0  0  0
  1  8  1  0  0  0  0
  2 20  1  0  0  0  0
  2  1  1  0  0  0  0
  2  5  1  1  0  0  0
  3  2  1  0  0  0  0
  3  1  1  0  0  0  0
  6  3  1  0  0  0  0
  7  3  1  0  0  0  0
  8  9  1  0  0  0  0
  9 14  1  0  0  0  0
  9 10  2  0  0  0  0
 10 15  1  0  0  0  0
 11 10  1  0  0  0  0
 12 11  2  0  0  0  0
 13 12  1  0  0  0  0
 13  8  2  0  0  0  0
 16 12  1  0  0  0  0
 18 17  1  0  0  0  0
 18 20  1  0  0  0  0
 19 18  2  0  0  0  0
 20 21  1  0  0  0  0
M  END
>  <minimizedAffinity>
-3.52043223

$$$$

 OpenBabel03252505453D

 21 22  0  0  1  0  0  0  0  0999 V2000
   35.6730   28.9850   40.9890 C   0  0  1  0  0  0  0  0  0  0  0  0
   36.1050   30.4380   40.7000 C   0  0  2  0  0  0  0  0  0  0  0  0
   35.7870   29.4590   39.6280 C   0  0  0  0  0  0  0  0  0  0  0  0
   34.6780   28.8480   41.4520 H   0  0  0  0  0  0  0  0  0  0  0  0
   35.3650   31.1670   41.0670 H   0  0  0  0  0  0  0  0  0  0  0  0
   34.8270   29.6770   39.0790 H   0  0  0  0  0  0  0  0  0  0  0  0
   36.5840   29.1760   38.9190 H   0  0  0  0  0  0  0  0  0  0  0  0
   36.7270   28.1920   41.6590 C   0  0  0  0  0  0  0  0  0  0  0  0
   37.3520   27.1480   40.9160 C   0  0  0  0  0  0  0  0  0  0  0  0
   38.3520   26.3930   41.5160 C   0  0  0  0  0  0  0  0  0  0  0  0
   38.6740   26.7140   42.8100 N   0  0  0  0  0  0  0  0  0  0  0  0
   38.0640   27.7100   43.4860 C   0  0  0  0  0  0  0  0  0  0  0  0
   37.1050   28.4350   42.9140 N   0  0  0  0  0  0  0  0  0  0  0  0
   37.0400   26.9510   39.8870 H   0  0  0  0  0  0  0  0  0  0  0  0
   38.8510   25.5910   40.9890 H   0  0  0  0  0  0  0  0  0  0  0  0
   38.4270   27.8510   44.5160 H   0  0  0  0  0  0  0  0  0  0  0  0
   38.9840   32.3040   40.8630 H   0  0  0  0  0  0  0  0  0  0  0  0
   37.9610   32.0780   40.6040 C   0  0  0  0  0  0  0  0  0  0  0  0
   37.2100   32.8680   39.9760 O   0  0  0  0  0  0  0  0  0  0  0  0
   37.4560   30.8010   41.0120 N   0  0  0  0  0  0  0  0  0  0  0  0
   38.0650   30.1110   41.5430 H   0  0  0  0  0  0  0  0  0  0  0  0
  1  4  1  1  0  0  0
  1  8  1  0  0  0  0
  2  1  1  0  0  0  0
  2 20  1  0  0  0  0
  2  5  1  1  0  0  0
  3  2  1  0  0  0  0
  3  1  1  0  0  0  0
  6  3  1  0  0  0  0
  7  3  1  0  0  0  0
  8 13  1  0  0  0  0
  9 10  1  0  0  0  0
  9  8  2  0  0  0  0
 10 11  2  0  0  0  0
 11 12  1  0  0  0  0
 12 16  1  0  0  0  0
 13 12  2  0  0  0  0
 14  9  1  0  0  0  0
 15 10  1  0  0  0  0
 18 17  1  0  0  0  0
 18 20  1  0  0  0  0
 19 18  2  0  0  0  0
 20 21  1  0  0  0  0
M  END
>  <minimizedAffinity>
-3.51719713

$$$$

 OpenBabel03252505453D

 21 22  0  0  1  0  0  0  0  0999 V2000
   37.3760   28.0820   43.4400 C   0  0  1  0  0  0  0  0  0  0  0  0
   36.4330   27.9900   42.2220 C   0  0  2  0  0  0  0  0  0  0  0  0
   36.9810   26.7950   42.9130 C   0  0  0  0  0  0  0  0  0  0  0  0
   36.9330   28.4610   44.3800 H   0  0  0  0  0  0  0  0  0  0  0  0
   35.4320   28.3900   42.4460 H   0  0  0  0  0  0  0  0  0  0  0  0
   36.2140   26.2130   43.5000 H   0  0  0  0  0  0  0  0  0  0  0  0
   37.6360   26.1110   42.3450 H   0  0  0  0  0  0  0  0  0  0  0  0
   38.6700   28.7230   43.1220 C   0  0  0  0  0  0  0  0  0  0  0  0
   39.8400   27.9070   43.1270 C   0  0  0  0  0  0  0  0  0  0  0  0
   41.0680   28.4790   42.8220 C   0  0  0  0  0  0  0  0  0  0  0  0
   41.0680   29.8190   42.5320 N   0  0  0  0  0  0  0  0  0  0  0  0
   39.9420   30.5650   42.5340 C   0  0  0  0  0  0  0  0  0  0  0  0
   38.7640   30.0200   42.8270 N   0  0  0  0  0  0  0  0  0  0  0  0
   39.7600   26.8440   43.3700 H   0  0  0  0  0  0  0  0  0  0  0  0
   41.9790   27.8970   42.8150 H   0  0  0  0  0  0  0  0  0  0  0  0
   40.0980   31.6260   42.2820 H   0  0  0  0  0  0  0  0  0  0  0  0
   36.4920   29.3340   39.0610 H   0  0  0  0  0  0  0  0  0  0  0  0
   36.0590   29.0210   39.9980 C   0  0  0  0  0  0  0  0  0  0  0  0
   34.8400   29.1480   40.2810 O   0  0  0  0  0  0  0  0  0  0  0  0
   36.9450   28.4280   40.9560 N   0  0  0  0  0  0  0  0  0  0  0  0
   37.9790   28.3060   40.7490 H   0  0  0  0  0  0  0  0  0  0  0  0
  1  4  1  1  0  0  0
  2  5  1  1  0  0  0
  2  3  1  0  0  0  0
  2  1  1  0  0  0  0
  3  1  1  0  0  0  0
  3  6  1  0  0  0  0
  7  3  1  0  0  0  0
  8  9  1  0  0  0  0
  8  1  1  0  0  0  0
  9 14  1  0  0  0  0
 10  9  2  0  0  0  0
 11 12  2  0  0  0  0
 11 10  1  0  0  0  0
 12 13  1  0  0  0  0
 13  8  2  0  0  0  0
 15 10  1  0  0  0  0
 16 12  1  0  0  0  0
 17 18  1  0  0  0  0
 18 19  2  0  0  0  0
 18 20  1  0  0  0  0
 20  2  1  0  0  0  0
 21 20  1  0  0  0  0
M  END
>  <minimizedAffinity>
-3.51435566

$$$$

 OpenBabel03252505453D

 21 22  0  0  1  0  0  0  0  0999 V2000
   36.9180   27.9230   42.8320 C   0  0  1  0  0  0  0  0  0  0  0  0
   37.4500   29.1160   42.0100 C   0  0  2  0  0  0  0  0  0  0  0  0
   36.2730   28.3090   41.5970 C   0  0  0  0  0  0  0  0  0  0  0  0
   36.4510   28.1630   43.8050 H   0  0  0  0  0  0  0  0  0  0  0  0
   37.3470   30.0680   42.5530 H   0  0  0  0  0  0  0  0  0  0  0  0
   35.2910   28.8550   41.6790 H   0  0  0  0  0  0  0  0  0  0  0  0
   36.3270   27.7470   40.6470 H   0  0  0  0  0  0  0  0  0  0  0  0
   37.8860   26.8080   42.9240 C   0  0  0  0  0  0  0  0  0  0  0  0
   37.5850   25.6020   42.2260 C   0  0  0  0  0  0  0  0  0  0  0  0
   38.4790   24.5420   42.2870 C   0  0  0  0  0  0  0  0  0  0  0  0
   39.6150   24.7350   43.0310 N   0  0  0  0  0  0  0  0  0  0  0  0
   39.8720   25.8910   43.6800 C   0  0  0  0  0  0  0  0  0  0  0  0
   39.0160   26.9090   43.6240 N   0  0  0  0  0  0  0  0  0  0  0  0
   36.6570   25.5220   41.6530 H   0  0  0  0  0  0  0  0  0  0  0  0
   38.2900   23.6080   41.7730 H   0  0  0  0  0  0  0  0  0  0  0  0
   40.8220   25.9000   44.2360 H   0  0  0  0  0  0  0  0  0  0  0  0
   40.5850   29.9070   40.8490 H   0  0  0  0  0  0  0  0  0  0  0  0
   39.6360   30.0710   41.3370 C   0  0  0  0  0  0  0  0  0  0  0  0
   39.3010   31.1650   41.8600 O   0  0  0  0  0  0  0  0  0  0  0  0
   38.7270   28.9650   41.3760 N   0  0  0  0  0  0  0  0  0  0  0  0
   38.9800   28.0280   40.9440 H   0  0  0  0  0  0  0  0  0  0  0  0
  1  8  1  0  0  0  0
  1  4  1  1  0  0  0
  2  5  1  1  0  0  0
  2  1  1  0  0  0  0
  3  6  1  0  0  0  0
  3  2  1  0  0  0  0
  3  1  1  0  0  0  0
  7  3  1  0  0  0  0
  8 13  1  0  0  0  0
  9 10  1  0  0  0  0
  9  8  2  0  0  0  0
 10 11  2  0  0  0  0
 11 12  1  0  0  0  0
 12 16  1  0  0  0  0
 13 12  2  0  0  0  0
 14  9  1  0  0  0  0
 15 10  1  0  0  0  0
 17 18  1  0  0  0  0
 18 20  1  0  0  0  0
 18 19  2  0  0  0  0
 20  2  1  0  0  0  0
 21 20  1  0  0  0  0
M  END
>  <minimizedAffinity>
-3.51016593

$$$$

 OpenBabel03252505453D

 21 22  0  0  1  0  0  0  0  0999 V2000
   37.3430   28.7110   43.1040 C   0  0  1  0  0  0  0  0  0  0  0  0
   37.0210   27.2220   42.8600 C   0  0  2  0  0  0  0  0  0  0  0  0
   38.2510   27.6810   43.5570 C   0  0  0  0  0  0  0  0  0  0  0  0
   36.6980   29.2440   43.8270 H   0  0  0  0  0  0  0  0  0  0  0  0
   36.1220   26.9010   43.4070 H   0  0  0  0  0  0  0  0  0  0  0  0
   38.2620   27.4550   44.6620 H   0  0  0  0  0  0  0  0  0  0  0  0
   39.2310   27.4500   43.1030 H   0  0  0  0  0  0  0  0  0  0  0  0
   37.5450   29.4720   41.8520 C   0  0  0  0  0  0  0  0  0  0  0  0
   36.4930   30.3270   41.4120 C   0  0  0  0  0  0  0  0  0  0  0  0
   36.6580   31.0610   40.2450 C   0  0  0  0  0  0  0  0  0  0  0  0
   37.8490   30.9080   39.5830 N   0  0  0  0  0  0  0  0  0  0  0  0
   38.8280   30.0900   40.0270 C   0  0  0  0  0  0  0  0  0  0  0  0
   38.6720   29.3840   41.1450 N   0  0  0  0  0  0  0  0  0  0  0  0
   35.5700   30.3970   41.9930 H   0  0  0  0  0  0  0  0  0  0  0  0
   35.8850   31.7220   39.8750 H   0  0  0  0  0  0  0  0  0  0  0  0
   39.7270   30.0690   39.3920 H   0  0  0  0  0  0  0  0  0  0  0  0
   37.0870   25.0420   40.2070 H   0  0  0  0  0  0  0  0  0  0  0  0
   37.0610   25.3440   41.2420 C   0  0  0  0  0  0  0  0  0  0  0  0
   37.0390   24.5360   42.2050 O   0  0  0  0  0  0  0  0  0  0  0  0
   37.0540   26.7530   41.5060 N   0  0  0  0  0  0  0  0  0  0  0  0
   37.0730   27.4620   40.7150 H   0  0  0  0  0  0  0  0  0  0  0  0
  1  3  1  0  0  0  0
  1  4  1  1  0  0  0
  2  1  1  0  0  0  0
  2  5  1  1  0  0  0
  2  3  1  0  0  0  0
  3  6  1  0  0  0  0
  7  3  1  0  0  0  0
  8  1  1  0  0  0  0
  9  8  1  0  0  0  0
  9 14  1  0  0  0  0
 10  9  2  0  0  0  0
 11 12  2  0  0  0  0
 11 10  1  0  0  0  0
 12 13  1  0  0  0  0
 13  8  2  0  0  0  0
 15 10  1  0  0  0  0
 16 12  1  0  0  0  0
 17 18  1  0  0  0  0
 18 20  1  0  0  0  0
 18 19  2  0  0  0  0
 20  2  1  0  0  0  0
 21 20  1  0  0  0  0
M  END
>  <minimizedAffinity>
-3.47643566

$$$$
