
 OpenBabel03242517093D

 30 31  0  0  1  0  0  0  0  0999 V2000
   36.6830   30.4350   40.8200 C   0  0  2  0  0  0  0  0  0  0  0  0
   37.2430   29.1440   41.2730 C   0  0  2  0  0  0  0  0  0  0  0  0
   37.2220   28.0800   40.2350 C   0  0  0  0  0  0  0  0  0  0  0  0
   35.8670   27.8710   39.6000 C   0  0  0  0  0  0  0  0  0  0  0  0
   35.1180   29.1490   39.3360 C   0  0  0  0  0  0  0  0  0  0  0  0
   36.0080   30.3620   39.4550 C   0  0  0  0  0  0  0  0  0  0  0  0
   35.8540   30.7360   41.5140 H   0  0  0  0  0  0  0  0  0  0  0  0
   38.3240   29.2980   41.5360 H   0  0  0  0  0  0  0  0  0  0  0  0
   37.9530   28.1250   39.4420 H   0  0  0  0  0  0  0  0  0  0  0  0
   37.4290   27.1100   40.7760 H   0  0  0  0  0  0  0  0  0  0  0  0
   36.0090   27.2500   38.6910 H   0  0  0  0  0  0  0  0  0  0  0  0
   35.2340   27.2730   40.2900 H   0  0  0  0  0  0  0  0  0  0  0  0
   34.2370   29.2870   40.0000 H   0  0  0  0  0  0  0  0  0  0  0  0
   34.7270   29.1450   38.3060 H   0  0  0  0  0  0  0  0  0  0  0  0
   35.3850   31.2540   39.3190 H   0  0  0  0  0  0  0  0  0  0  0  0
   36.8120   30.3480   38.6940 H   0  0  0  0  0  0  0  0  0  0  0  0
   37.7140   31.4880   40.7350 C   0  0  0  0  0  0  0  0  0  0  0  0
   37.3160   32.6950   40.0880 C   0  0  0  0  0  0  0  0  0  0  0  0
   38.2300   33.7410   39.9710 C   0  0  0  0  0  0  0  0  0  0  0  0
   39.4820   33.5350   40.4960 N   0  0  0  0  0  0  0  0  0  0  0  0
   39.8350   32.3760   41.1090 C   0  0  0  0  0  0  0  0  0  0  0  0
   38.9490   31.3690   41.2200 N   0  0  0  0  0  0  0  0  0  0  0  0
   36.3520   32.9100   39.6570 H   0  0  0  0  0  0  0  0  0  0  0  0
   37.9740   34.6720   39.4880 H   0  0  0  0  0  0  0  0  0  0  0  0
   40.8180   32.2370   41.5130 H   0  0  0  0  0  0  0  0  0  0  0  0
   36.5250   27.9010   44.3730 H   0  0  0  0  0  0  0  0  0  0  0  0
   37.3080   28.1570   43.6760 C   0  0  0  0  0  0  0  0  0  0  0  0
   38.5590   28.1860   43.4930 O   0  0  0  0  0  0  0  0  0  0  0  0
   36.6380   28.6600   42.5100 N   0  0  0  0  0  0  0  0  0  0  0  0
   35.6040   28.7820   42.3060 H   0  0  0  0  0  0  0  0  0  0  0  0
  1  2  1  0  0  0  0
  1  7  1  1  0  0  0
  2  8  1  1  0  0  0
  2 29  1  0  0  0  0
  3 10  1  0  0  0  0
  3  2  1  0  0  0  0
  4  3  1  0  0  0  0
  4 12  1  0  0  0  0
  5  6  1  0  0  0  0
  5  4  1  0  0  0  0
  5 13  1  0  0  0  0
  6  1  1  0  0  0  0
  9  3  1  0  0  0  0
 11  4  1  0  0  0  0
 14  5  1  0  0  0  0
 15  6  1  0  0  0  0
 16  6  1  0  0  0  0
 17  1  1  0  0  0  0
 17 22  1  0  0  0  0
 18 17  2  0  0  0  0
 19 18  1  0  0  0  0
 19 20  2  0  0  0  0
 20 21  1  0  0  0  0
 21 22  2  0  0  0  0
 21 25  1  0  0  0  0
 23 18  1  0  0  0  0
 24 19  1  0  0  0  0
 27 26  1  0  0  0  0
 28 27  2  0  0  0  0
 29 27  1  0  0  0  0
 30 29  1  0  0  0  0
M  END
>  <minimizedAffinity>
-4.4244523

$$$$

 OpenBabel03242517093D

 30 31  0  0  1  0  0  0  0  0999 V2000
   36.4570   30.3950   40.2310 C   0  0  2  0  0  0  0  0  0  0  0  0
   36.7150   29.7750   38.9140 C   0  0  2  0  0  0  0  0  0  0  0  0
   37.7940   30.4400   38.1360 C   0  0  0  0  0  0  0  0  0  0  0  0
   37.6110   31.9320   37.9880 C   0  0  0  0  0  0  0  0  0  0  0  0
   37.1010   32.6060   39.2330 C   0  0  0  0  0  0  0  0  0  0  0  0
   37.1980   31.7100   40.4420 C   0  0  0  0  0  0  0  0  0  0  0  0
   35.3740   30.6820   40.2920 H   0  0  0  0  0  0  0  0  0  0  0  0
   37.0600   28.7180   39.0800 H   0  0  0  0  0  0  0  0  0  0  0  0
   38.8180   30.2620   38.4270 H   0  0  0  0  0  0  0  0  0  0  0  0
   37.7100   30.0420   37.0810 H   0  0  0  0  0  0  0  0  0  0  0  0
   38.5680   32.3570   37.6180 H   0  0  0  0  0  0  0  0  0  0  0  0
   36.8570   32.1250   37.1950 H   0  0  0  0  0  0  0  0  0  0  0  0
   36.0530   32.9660   39.1390 H   0  0  0  0  0  0  0  0  0  0  0  0
   37.7120   33.4960   39.4500 H   0  0  0  0  0  0  0  0  0  0  0  0
   36.7490   32.2380   41.2920 H   0  0  0  0  0  0  0  0  0  0  0  0
   38.2500   31.4580   40.6740 H   0  0  0  0  0  0  0  0  0  0  0  0
   36.8340   29.5040   41.3470 C   0  0  0  0  0  0  0  0  0  0  0  0
   37.9570   29.9210   42.1210 C   0  0  0  0  0  0  0  0  0  0  0  0
   38.3740   29.1380   43.1960 C   0  0  0  0  0  0  0  0  0  0  0  0
   37.6620   27.9910   43.4440 N   0  0  0  0  0  0  0  0  0  0  0  0
   36.5950   27.6180   42.6920 C   0  0  0  0  0  0  0  0  0  0  0  0
   36.1950   28.3770   41.6550 N   0  0  0  0  0  0  0  0  0  0  0  0
   38.5520   30.8070   41.9710 H   0  0  0  0  0  0  0  0  0  0  0  0
   39.2200   29.4140   43.8090 H   0  0  0  0  0  0  0  0  0  0  0  0
   36.0520   26.7180   42.9050 H   0  0  0  0  0  0  0  0  0  0  0  0
   33.9580   28.7390   37.1850 H   0  0  0  0  0  0  0  0  0  0  0  0
   34.7790   28.4360   37.8140 C   0  0  0  0  0  0  0  0  0  0  0  0
   35.3340   27.4530   38.3860 O   0  0  0  0  0  0  0  0  0  0  0  0
   35.5120   29.6370   38.1000 N   0  0  0  0  0  0  0  0  0  0  0  0
   35.3430   30.6380   37.7950 H   0  0  0  0  0  0  0  0  0  0  0  0
  1  7  1  1  0  0  0
  1  6  1  0  0  0  0
  1 17  1  0  0  0  0
  2  8  1  1  0  0  0
  2  1  1  0  0  0  0
  3  9  1  0  0  0  0
  3  2  1  0  0  0  0
  4  3  1  0  0  0  0
  4  5  1  0  0  0  0
  5 14  1  0  0  0  0
  5  6  1  0  0  0  0
  6 16  1  0  0  0  0
  6 15  1  0  0  0  0
 10  3  1  0  0  0  0
 11  4  1  0  0  0  0
 12  4  1  0  0  0  0
 13  5  1  0  0  0  0
 17 22  2  0  0  0  0
 17 18  1  0  0  0  0
 18 19  2  0  0  0  0
 19 20  1  0  0  0  0
 19 24  1  0  0  0  0
 21 25  1  0  0  0  0
 21 20  2  0  0  0  0
 22 21  1  0  0  0  0
 23 18  1  0  0  0  0
 26 27  1  0  0  0  0
 27 29  1  0  0  0  0
 27 28  2  0  0  0  0
 29  2  1  0  0  0  0
 30 29  1  0  0  0  0
M  END
>  <minimizedAffinity>
-4.33068895

$$$$

 OpenBabel03242517093D

 30 31  0  0  1  0  0  0  0  0999 V2000
   38.3610   29.5200   41.3590 C   0  0  2  0  0  0  0  0  0  0  0  0
   37.3070   28.6910   40.7360 C   0  0  2  0  0  0  0  0  0  0  0  0
   36.2860   28.1920   41.6950 C   0  0  0  0  0  0  0  0  0  0  0  0
   36.8690   27.4850   42.8970 C   0  0  0  0  0  0  0  0  0  0  0  0
   38.1100   28.1390   43.4410 C   0  0  0  0  0  0  0  0  0  0  0  0
   38.3100   29.5260   42.8830 C   0  0  0  0  0  0  0  0  0  0  0  0
   39.3620   29.0720   41.1250 H   0  0  0  0  0  0  0  0  0  0  0  0
   36.7500   29.3240   39.9930 H   0  0  0  0  0  0  0  0  0  0  0  0
   35.5390   28.8840   42.0520 H   0  0  0  0  0  0  0  0  0  0  0  0
   35.7110   27.3860   41.1500 H   0  0  0  0  0  0  0  0  0  0  0  0
   36.0630   27.3750   43.6520 H   0  0  0  0  0  0  0  0  0  0  0  0
   37.1620   26.4550   42.6010 H   0  0  0  0  0  0  0  0  0  0  0  0
   39.0340   27.5470   43.2620 H   0  0  0  0  0  0  0  0  0  0  0  0
   38.0230   28.2490   44.5330 H   0  0  0  0  0  0  0  0  0  0  0  0
   39.2620   29.9130   43.2680 H   0  0  0  0  0  0  0  0  0  0  0  0
   37.4860   30.2030   43.1790 H   0  0  0  0  0  0  0  0  0  0  0  0
   38.2910   30.9280   40.9200 C   0  0  0  0  0  0  0  0  0  0  0  0
   37.2690   31.2330   39.9740 C   0  0  0  0  0  0  0  0  0  0  0  0
   37.1330   32.5420   39.5130 C   0  0  0  0  0  0  0  0  0  0  0  0
   38.0130   33.4710   40.0100 N   0  0  0  0  0  0  0  0  0  0  0  0
   38.9770   33.1540   40.9110 C   0  0  0  0  0  0  0  0  0  0  0  0
   39.1050   31.8890   41.3540 N   0  0  0  0  0  0  0  0  0  0  0  0
   36.5540   30.5470   39.5500 H   0  0  0  0  0  0  0  0  0  0  0  0
   36.3740   32.8190   38.7960 H   0  0  0  0  0  0  0  0  0  0  0  0
   39.6540   33.8960   41.2870 H   0  0  0  0  0  0  0  0  0  0  0  0
   38.2040   26.4470   38.3220 H   0  0  0  0  0  0  0  0  0  0  0  0
   37.6610   27.3540   38.5370 C   0  0  0  0  0  0  0  0  0  0  0  0
   36.9430   28.2690   38.0400 O   0  0  0  0  0  0  0  0  0  0  0  0
   37.8400   27.5890   39.9410 N   0  0  0  0  0  0  0  0  0  0  0  0
   38.3760   27.0370   40.6710 H   0  0  0  0  0  0  0  0  0  0  0  0
  1  7  1  6  0  0  0
  1  6  1  0  0  0  0
  2  8  1  6  0  0  0
  2  1  1  0  0  0  0
  2  3  1  0  0  0  0
  3  9  1  0  0  0  0
  3  4  1  0  0  0  0
  4  5  1  0  0  0  0
  4 11  1  0  0  0  0
  5 14  1  0  0  0  0
  6 16  1  0  0  0  0
  6 15  1  0  0  0  0
  6  5  1  0  0  0  0
 10  3  1  0  0  0  0
 12  4  1  0  0  0  0
 13  5  1  0  0  0  0
 17 22  1  0  0  0  0
 17  1  1  0  0  0  0
 18 17  2  0  0  0  0
 19 18  1  0  0  0  0
 19 20  2  0  0  0  0
 20 21  1  0  0  0  0
 21 25  1  0  0  0  0
 21 22  2  0  0  0  0
 23 18  1  0  0  0  0
 24 19  1  0  0  0  0
 26 27  1  0  0  0  0
 27 29  1  0  0  0  0
 28 27  2  0  0  0  0
 29 30  1  0  0  0  0
 29  2  1  0  0  0  0
M  END
>  <minimizedAffinity>
-4.28038359

$$$$

 OpenBabel03242517093D

 30 31  0  0  1  0  0  0  0  0999 V2000
   37.0890   29.2190   41.7430 C   0  0  2  0  0  0  0  0  0  0  0  0
   38.5680   29.2110   41.7400 C   0  0  2  0  0  0  0  0  0  0  0  0
   39.1650   27.9200   42.1710 C   0  0  0  0  0  0  0  0  0  0  0  0
   38.6400   27.4150   43.4950 C   0  0  0  0  0  0  0  0  0  0  0  0
   37.1610   27.6210   43.6780 C   0  0  0  0  0  0  0  0  0  0  0  0
   36.4750   27.9800   42.3830 C   0  0  0  0  0  0  0  0  0  0  0  0
   36.7310   30.0620   42.3910 H   0  0  0  0  0  0  0  0  0  0  0  0
   38.9210   29.3790   40.6870 H   0  0  0  0  0  0  0  0  0  0  0  0
   39.1540   27.0940   41.4760 H   0  0  0  0  0  0  0  0  0  0  0  0
   40.2580   28.1300   42.3670 H   0  0  0  0  0  0  0  0  0  0  0  0
   38.9530   26.3550   43.6030 H   0  0  0  0  0  0  0  0  0  0  0  0
   39.1390   27.9720   44.3160 H   0  0  0  0  0  0  0  0  0  0  0  0
   36.9160   28.3950   44.4380 H   0  0  0  0  0  0  0  0  0  0  0  0
   36.6970   26.6870   44.0320 H   0  0  0  0  0  0  0  0  0  0  0  0
   35.4190   28.1810   42.6030 H   0  0  0  0  0  0  0  0  0  0  0  0
   36.5520   27.1590   41.6450 H   0  0  0  0  0  0  0  0  0  0  0  0
   36.5320   29.3210   40.3800 C   0  0  0  0  0  0  0  0  0  0  0  0
   35.1580   28.9640   40.2430 C   0  0  0  0  0  0  0  0  0  0  0  0
   34.5540   29.0380   38.9890 C   0  0  0  0  0  0  0  0  0  0  0  0
   35.3390   29.4580   37.9440 N   0  0  0  0  0  0  0  0  0  0  0  0
   36.6450   29.7940   38.1020 C   0  0  0  0  0  0  0  0  0  0  0  0
   37.2250   29.7210   39.3150 N   0  0  0  0  0  0  0  0  0  0  0  0
   34.4970   28.6280   41.0250 H   0  0  0  0  0  0  0  0  0  0  0  0
   33.5170   28.7770   38.8380 H   0  0  0  0  0  0  0  0  0  0  0  0
   37.2400   30.1200   37.2720 H   0  0  0  0  0  0  0  0  0  0  0  0
   40.1100   32.0540   42.8400 H   0  0  0  0  0  0  0  0  0  0  0  0
   39.8330   31.4680   41.9770 C   0  0  0  0  0  0  0  0  0  0  0  0
   39.8760   31.4060   40.7150 O   0  0  0  0  0  0  0  0  0  0  0  0
   39.1480   30.3180   42.4940 N   0  0  0  0  0  0  0  0  0  0  0  0
   38.9260   30.0370   43.4920 H   0  0  0  0  0  0  0  0  0  0  0  0
  1  6  1  0  0  0  0
  1  7  1  1  0  0  0
  2  8  1  6  0  0  0
  2  1  1  0  0  0  0
  2  3  1  0  0  0  0
  2 29  1  0  0  0  0
  3 10  1  0  0  0  0
  3  4  1  0  0  0  0
  4 11  1  0  0  0  0
  4  5  1  0  0  0  0
  4 12  1  0  0  0  0
  5 14  1  0  0  0  0
  5 13  1  0  0  0  0
  6 15  1  0  0  0  0
  6  5  1  0  0  0  0
  9  3  1  0  0  0  0
 16  6  1  0  0  0  0
 17  1  1  0  0  0  0
 18 17  1  0  0  0  0
 18 23  1  0  0  0  0
 19 18  2  0  0  0  0
 20 21  2  0  0  0  0
 20 19  1  0  0  0  0
 21 22  1  0  0  0  0
 22 17  2  0  0  0  0
 24 19  1  0  0  0  0
 25 21  1  0  0  0  0
 27 29  1  0  0  0  0
 27 26  1  0  0  0  0
 28 27  2  0  0  0  0
 29 30  1  0  0  0  0
M  END
>  <minimizedAffinity>
-4.25605297

$$$$

 OpenBabel03242517093D

 30 31  0  0  1  0  0  0  0  0999 V2000
   37.2770   27.7520   40.8330 C   0  0  2  0  0  0  0  0  0  0  0  0
   36.9300   26.8110   41.9200 C   0  0  2  0  0  0  0  0  0  0  0  0
   36.5470   27.4770   43.1940 C   0  0  0  0  0  0  0  0  0  0  0  0
   37.5530   28.4940   43.6790 C   0  0  0  0  0  0  0  0  0  0  0  0
   38.1470   29.3310   42.5790 C   0  0  0  0  0  0  0  0  0  0  0  0
   37.3750   29.2030   41.2900 C   0  0  0  0  0  0  0  0  0  0  0  0
   38.3090   27.5150   40.4630 H   0  0  0  0  0  0  0  0  0  0  0  0
   36.0330   26.2150   41.6010 H   0  0  0  0  0  0  0  0  0  0  0  0
   35.5670   27.9260   43.2610 H   0  0  0  0  0  0  0  0  0  0  0  0
   36.5610   26.6700   43.9850 H   0  0  0  0  0  0  0  0  0  0  0  0
   37.0710   29.0950   44.4780 H   0  0  0  0  0  0  0  0  0  0  0  0
   38.4010   27.9600   44.1600 H   0  0  0  0  0  0  0  0  0  0  0  0
   39.2160   29.0990   42.3790 H   0  0  0  0  0  0  0  0  0  0  0  0
   38.1130   30.3950   42.8630 H   0  0  0  0  0  0  0  0  0  0  0  0
   37.9010   29.7820   40.5210 H   0  0  0  0  0  0  0  0  0  0  0  0
   36.3410   29.5810   41.4000 H   0  0  0  0  0  0  0  0  0  0  0  0
   36.2950   27.7130   39.7310 C   0  0  0  0  0  0  0  0  0  0  0  0
   35.3910   28.8140   39.6670 C   0  0  0  0  0  0  0  0  0  0  0  0
   34.4360   28.8550   38.6520 C   0  0  0  0  0  0  0  0  0  0  0  0
   34.4270   27.8100   37.7620 N   0  0  0  0  0  0  0  0  0  0  0  0
   35.3010   26.7740   37.8450 C   0  0  0  0  0  0  0  0  0  0  0  0
   36.2210   26.7380   38.8260 N   0  0  0  0  0  0  0  0  0  0  0  0
   35.3510   29.6570   40.3360 H   0  0  0  0  0  0  0  0  0  0  0  0
   33.7300   29.6680   38.5650 H   0  0  0  0  0  0  0  0  0  0  0  0
   35.2770   25.9680   37.1390 H   0  0  0  0  0  0  0  0  0  0  0  0
   38.8340   23.9930   42.2340 H   0  0  0  0  0  0  0  0  0  0  0  0
   37.8760   24.3920   41.9400 C   0  0  0  0  0  0  0  0  0  0  0  0
   36.7320   24.1000   41.4850 O   0  0  0  0  0  0  0  0  0  0  0  0
   37.9610   25.8080   42.1600 N   0  0  0  0  0  0  0  0  0  0  0  0
   38.7580   26.4030   42.5290 H   0  0  0  0  0  0  0  0  0  0  0  0
  1  7  1  6  0  0  0
  1  6  1  0  0  0  0
  1  2  1  0  0  0  0
  2  8  1  6  0  0  0
  2 29  1  0  0  0  0
  2  3  1  0  0  0  0
  3  9  1  0  0  0  0
  3  4  1  0  0  0  0
  3 10  1  0  0  0  0
  4 12  1  0  0  0  0
  4 11  1  0  0  0  0
  5 14  1  0  0  0  0
  5  4  1  0  0  0  0
  6 16  1  0  0  0  0
  6  5  1  0  0  0  0
 13  5  1  0  0  0  0
 15  6  1  0  0  0  0
 17  1  1  0  0  0  0
 18 17  1  0  0  0  0
 18 23  1  0  0  0  0
 19 18  2  0  0  0  0
 20 21  2  0  0  0  0
 20 19  1  0  0  0  0
 21 22  1  0  0  0  0
 22 17  2  0  0  0  0
 24 19  1  0  0  0  0
 25 21  1  0  0  0  0
 27 29  1  0  0  0  0
 27 26  1  0  0  0  0
 28 27  2  0  0  0  0
 29 30  1  0  0  0  0
M  END
>  <minimizedAffinity>
-4.20635843

$$$$

 OpenBabel03242517093D

 30 31  0  0  1  0  0  0  0  0999 V2000
   38.7940   29.3380   41.4570 C   0  0  2  0  0  0  0  0  0  0  0  0
   37.4740   29.2010   42.1110 C   0  0  2  0  0  0  0  0  0  0  0  0
   37.5440   28.7120   43.5130 C   0  0  0  0  0  0  0  0  0  0  0  0
   38.3470   27.4430   43.6790 C   0  0  0  0  0  0  0  0  0  0  0  0
   39.5950   27.4020   42.8400 C   0  0  0  0  0  0  0  0  0  0  0  0
   39.9420   28.7560   42.2740 C   0  0  0  0  0  0  0  0  0  0  0  0
   38.7980   28.7290   40.5150 H   0  0  0  0  0  0  0  0  0  0  0  0
   36.9960   30.2160   42.1600 H   0  0  0  0  0  0  0  0  0  0  0  0
   37.8590   29.4030   44.2800 H   0  0  0  0  0  0  0  0  0  0  0  0
   36.4910   28.4140   43.7940 H   0  0  0  0  0  0  0  0  0  0  0  0
   38.5420   27.3030   44.7640 H   0  0  0  0  0  0  0  0  0  0  0  0
   37.7260   26.5790   43.3610 H   0  0  0  0  0  0  0  0  0  0  0  0
   39.5380   26.6700   42.0040 H   0  0  0  0  0  0  0  0  0  0  0  0
   40.4500   27.0910   43.4600 H   0  0  0  0  0  0  0  0  0  0  0  0
   40.8160   28.6380   41.6220 H   0  0  0  0  0  0  0  0  0  0  0  0
   40.1720   29.4820   43.0770 H   0  0  0  0  0  0  0  0  0  0  0  0
   39.1330   30.7480   41.1810 C   0  0  0  0  0  0  0  0  0  0  0  0
   40.5230   31.0670   41.1970 C   0  0  0  0  0  0  0  0  0  0  0  0
   40.9260   32.3760   40.9410 C   0  0  0  0  0  0  0  0  0  0  0  0
   39.9380   33.2940   40.6850 N   0  0  0  0  0  0  0  0  0  0  0  0
   38.6210   32.9630   40.6750 C   0  0  0  0  0  0  0  0  0  0  0  0
   38.2350   31.6980   40.9230 N   0  0  0  0  0  0  0  0  0  0  0  0
   41.3390   30.3900   41.3920 H   0  0  0  0  0  0  0  0  0  0  0  0
   41.9680   32.6630   40.9430 H   0  0  0  0  0  0  0  0  0  0  0  0
   37.8650   33.6960   40.4720 H   0  0  0  0  0  0  0  0  0  0  0  0
   34.9930   27.9740   40.1090 H   0  0  0  0  0  0  0  0  0  0  0  0
   35.4570   28.8620   40.5100 C   0  0  0  0  0  0  0  0  0  0  0  0
   35.4190   30.1260   40.5310 O   0  0  0  0  0  0  0  0  0  0  0  0
   36.5330   28.3970   41.3370 N   0  0  0  0  0  0  0  0  0  0  0  0
   36.8620   27.4130   41.5550 H   0  0  0  0  0  0  0  0  0  0  0  0
  1  7  1  6  0  0  0
  1  2  1  0  0  0  0
  1  6  1  0  0  0  0
  2  8  1  1  0  0  0
  2  3  1  0  0  0  0
  3  4  1  0  0  0  0
  3 10  1  0  0  0  0
  3  9  1  0  0  0  0
  4 11  1  0  0  0  0
  5 14  1  0  0  0  0
  5  4  1  0  0  0  0
  6  5  1  0  0  0  0
  6 16  1  0  0  0  0
 12  4  1  0  0  0  0
 13  5  1  0  0  0  0
 15  6  1  0  0  0  0
 17 18  1  0  0  0  0
 17  1  1  0  0  0  0
 18 23  1  0  0  0  0
 19 24  1  0  0  0  0
 19 18  2  0  0  0  0
 20 19  1  0  0  0  0
 21 20  2  0  0  0  0
 21 22  1  0  0  0  0
 22 17  2  0  0  0  0
 25 21  1  0  0  0  0
 26 27  1  0  0  0  0
 27 28  2  0  0  0  0
 27 29  1  0  0  0  0
 29 30  1  0  0  0  0
 29  2  1  0  0  0  0
M  END
>  <minimizedAffinity>
-4.18396235

$$$$

 OpenBabel03242517093D

 30 31  0  0  1  0  0  0  0  0999 V2000
   36.9080   27.0850   42.0110 C   0  0  2  0  0  0  0  0  0  0  0  0
   36.8600   28.2220   41.0670 C   0  0  2  0  0  0  0  0  0  0  0  0
   37.9900   29.1770   41.2150 C   0  0  0  0  0  0  0  0  0  0  0  0
   38.1890   29.6750   42.6270 C   0  0  0  0  0  0  0  0  0  0  0  0
   38.0020   28.6130   43.6760 C   0  0  0  0  0  0  0  0  0  0  0  0
   37.9850   27.2270   43.0810 C   0  0  0  0  0  0  0  0  0  0  0  0
   35.9500   27.0560   42.5950 H   0  0  0  0  0  0  0  0  0  0  0  0
   36.9310   27.8170   40.0210 H   0  0  0  0  0  0  0  0  0  0  0  0
   38.9560   28.8890   40.8280 H   0  0  0  0  0  0  0  0  0  0  0  0
   37.6980   30.0990   40.6320 H   0  0  0  0  0  0  0  0  0  0  0  0
   39.1810   30.1710   42.6760 H   0  0  0  0  0  0  0  0  0  0  0  0
   37.4350   30.4630   42.8400 H   0  0  0  0  0  0  0  0  0  0  0  0
   37.0810   28.7520   44.2830 H   0  0  0  0  0  0  0  0  0  0  0  0
   38.8430   28.6400   44.3860 H   0  0  0  0  0  0  0  0  0  0  0  0
   37.7780   26.5140   43.8890 H   0  0  0  0  0  0  0  0  0  0  0  0
   38.9530   26.9800   42.6050 H   0  0  0  0  0  0  0  0  0  0  0  0
   37.1510   25.8010   41.3230 C   0  0  0  0  0  0  0  0  0  0  0  0
   38.0570   24.9110   41.9730 C   0  0  0  0  0  0  0  0  0  0  0  0
   38.3360   23.6760   41.3910 C   0  0  0  0  0  0  0  0  0  0  0  0
   37.7080   23.3910   40.2030 N   0  0  0  0  0  0  0  0  0  0  0  0
   36.8490   24.2570   39.6060 C   0  0  0  0  0  0  0  0  0  0  0  0
   36.5820   25.4480   40.1720 N   0  0  0  0  0  0  0  0  0  0  0  0
   38.5770   25.0820   42.9010 H   0  0  0  0  0  0  0  0  0  0  0  0
   39.0150   22.9700   41.8460 H   0  0  0  0  0  0  0  0  0  0  0  0
   36.3690   24.0140   38.6790 H   0  0  0  0  0  0  0  0  0  0  0  0
   33.8880   29.7660   40.3970 H   0  0  0  0  0  0  0  0  0  0  0  0
   34.7280   29.2340   39.9800 C   0  0  0  0  0  0  0  0  0  0  0  0
   35.2390   28.7830   38.9140 O   0  0  0  0  0  0  0  0  0  0  0  0
   35.5860   28.9320   41.0910 N   0  0  0  0  0  0  0  0  0  0  0  0
   35.4820   29.1510   42.1230 H   0  0  0  0  0  0  0  0  0  0  0  0
  1  7  1  1  0  0  0
  1  6  1  0  0  0  0
  2  8  1  6  0  0  0
  2 29  1  0  0  0  0
  2  3  1  0  0  0  0
  2  1  1  0  0  0  0
  3  4  1  0  0  0  0
  4 11  1  0  0  0  0
  4 12  1  0  0  0  0
  4  5  1  0  0  0  0
  5 13  1  0  0  0  0
  5 14  1  0  0  0  0
  6  5  1  0  0  0  0
  6 15  1  0  0  0  0
  9  3  1  0  0  0  0
 10  3  1  0  0  0  0
 16  6  1  0  0  0  0
 17 18  1  0  0  0  0
 17  1  1  0  0  0  0
 18 23  1  0  0  0  0
 19 24  1  0  0  0  0
 19 18  2  0  0  0  0
 20 19  1  0  0  0  0
 21 22  1  0  0  0  0
 21 20  2  0  0  0  0
 22 17  2  0  0  0  0
 25 21  1  0  0  0  0
 27 26  1  0  0  0  0
 27 29  1  0  0  0  0
 28 27  2  0  0  0  0
 29 30  1  0  0  0  0
M  END
>  <minimizedAffinity>
-4.16429901

$$$$

 OpenBabel03242517093D

 30 31  0  0  1  0  0  0  0  0999 V2000
   38.2700   28.2300   41.3800 C   0  0  2  0  0  0  0  0  0  0  0  0
   37.6100   29.1750   42.3060 C   0  0  2  0  0  0  0  0  0  0  0  0
   37.3180   28.6010   43.6460 C   0  0  0  0  0  0  0  0  0  0  0  0
   36.5620   27.2940   43.6010 C   0  0  0  0  0  0  0  0  0  0  0  0
   37.0170   26.3690   42.5050 C   0  0  0  0  0  0  0  0  0  0  0  0
   38.3330   26.8020   41.9080 C   0  0  0  0  0  0  0  0  0  0  0  0
   37.6540   28.1450   40.4460 H   0  0  0  0  0  0  0  0  0  0  0  0
   38.3030   30.0410   42.4840 H   0  0  0  0  0  0  0  0  0  0  0  0
   38.1370   28.4830   44.3410 H   0  0  0  0  0  0  0  0  0  0  0  0
   36.6040   29.3200   44.1460 H   0  0  0  0  0  0  0  0  0  0  0  0
   36.6130   26.8360   44.6120 H   0  0  0  0  0  0  0  0  0  0  0  0
   35.4890   27.5060   43.4080 H   0  0  0  0  0  0  0  0  0  0  0  0
   36.2730   26.2590   41.6860 H   0  0  0  0  0  0  0  0  0  0  0  0
   37.1730   25.3580   42.9130 H   0  0  0  0  0  0  0  0  0  0  0  0
   38.5670   26.1260   41.0770 H   0  0  0  0  0  0  0  0  0  0  0  0
   39.1470   26.7660   42.6570 H   0  0  0  0  0  0  0  0  0  0  0  0
   39.6550   28.6350   41.0680 C   0  0  0  0  0  0  0  0  0  0  0  0
   40.6370   28.2890   42.0440 C   0  0  0  0  0  0  0  0  0  0  0  0
   41.9700   28.6320   41.8220 C   0  0  0  0  0  0  0  0  0  0  0  0
   42.2570   29.2950   40.6550 N   0  0  0  0  0  0  0  0  0  0  0  0
   41.3030   29.6110   39.7420 C   0  0  0  0  0  0  0  0  0  0  0  0
   40.0170   29.2790   39.9590 N   0  0  0  0  0  0  0  0  0  0  0  0
   40.4690   27.7730   42.9750 H   0  0  0  0  0  0  0  0  0  0  0  0
   42.7470   28.3910   42.5330 H   0  0  0  0  0  0  0  0  0  0  0  0
   41.5500   30.1290   38.8360 H   0  0  0  0  0  0  0  0  0  0  0  0
   35.2720   31.1170   40.7470 H   0  0  0  0  0  0  0  0  0  0  0  0
   36.3180   31.0020   40.9860 C   0  0  0  0  0  0  0  0  0  0  0  0
   37.4680   31.5120   40.8580 O   0  0  0  0  0  0  0  0  0  0  0  0
   36.4100   29.7850   41.7420 N   0  0  0  0  0  0  0  0  0  0  0  0
   35.6590   29.0980   42.0400 H   0  0  0  0  0  0  0  0  0  0  0  0
  1  7  1  6  0  0  0
  1  6  1  0  0  0  0
  1  2  1  0  0  0  0
  2  8  1  1  0  0  0
  2  3  1  0  0  0  0
  3 10  1  0  0  0  0
  3  9  1  0  0  0  0
  4  3  1  0  0  0  0
  4 11  1  0  0  0  0
  5 14  1  0  0  0  0
  5  4  1  0  0  0  0
  6  5  1  0  0  0  0
  6 16  1  0  0  0  0
 12  4  1  0  0  0  0
 13  5  1  0  0  0  0
 15  6  1  0  0  0  0
 17  1  1  0  0  0  0
 17 18  1  0  0  0  0
 18 23  1  0  0  0  0
 19 18  2  0  0  0  0
 19 24  1  0  0  0  0
 20 19  1  0  0  0  0
 21 22  1  0  0  0  0
 21 20  2  0  0  0  0
 22 17  2  0  0  0  0
 25 21  1  0  0  0  0
 26 27  1  0  0  0  0
 27 29  1  0  0  0  0
 28 27  2  0  0  0  0
 29 30  1  0  0  0  0
 29  2  1  0  0  0  0
M  END
>  <minimizedAffinity>
-4.16246128

$$$$

 OpenBabel03242517093D

 30 31  0  0  1  0  0  0  0  0999 V2000
   38.0160   28.2180   42.5190 C   0  0  2  0  0  0  0  0  0  0  0  0
   37.5110   28.7050   41.2170 C   0  0  2  0  0  0  0  0  0  0  0  0
   38.4780   29.5600   40.4770 C   0  0  0  0  0  0  0  0  0  0  0  0
   39.0260   30.7080   41.2910 C   0  0  0  0  0  0  0  0  0  0  0  0
   39.3310   30.3470   42.7190 C   0  0  0  0  0  0  0  0  0  0  0  0
   39.3360   28.8540   42.9370 C   0  0  0  0  0  0  0  0  0  0  0  0
   37.3000   28.5280   43.3250 H   0  0  0  0  0  0  0  0  0  0  0  0
   37.3160   27.8170   40.5570 H   0  0  0  0  0  0  0  0  0  0  0  0
   39.3090   29.0800   39.9820 H   0  0  0  0  0  0  0  0  0  0  0  0
   37.8870   30.0580   39.6530 H   0  0  0  0  0  0  0  0  0  0  0  0
   39.9000   31.1240   40.7460 H   0  0  0  0  0  0  0  0  0  0  0  0
   38.2680   31.5180   41.3270 H   0  0  0  0  0  0  0  0  0  0  0  0
   38.6320   30.8110   43.4480 H   0  0  0  0  0  0  0  0  0  0  0  0
   40.3370   30.7080   42.9870 H   0  0  0  0  0  0  0  0  0  0  0  0
   39.4960   28.6680   44.0060 H   0  0  0  0  0  0  0  0  0  0  0  0
   40.1360   28.3640   42.3500 H   0  0  0  0  0  0  0  0  0  0  0  0
   38.2220   26.7560   42.5230 C   0  0  0  0  0  0  0  0  0  0  0  0
   37.1210   25.9730   42.0660 C   0  0  0  0  0  0  0  0  0  0  0  0
   37.2370   24.5850   42.0340 C   0  0  0  0  0  0  0  0  0  0  0  0
   38.4290   24.0500   42.4550 N   0  0  0  0  0  0  0  0  0  0  0  0
   39.4620   24.8180   42.8840 C   0  0  0  0  0  0  0  0  0  0  0  0
   39.3470   26.1590   42.9130 N   0  0  0  0  0  0  0  0  0  0  0  0
   36.1650   26.3380   41.7270 H   0  0  0  0  0  0  0  0  0  0  0  0
   36.4290   23.9520   41.6970 H   0  0  0  0  0  0  0  0  0  0  0  0
   40.3860   24.3790   43.2070 H   0  0  0  0  0  0  0  0  0  0  0  0
   34.3200   29.8670   40.8510 H   0  0  0  0  0  0  0  0  0  0  0  0
   35.0810   29.2130   40.4530 C   0  0  0  0  0  0  0  0  0  0  0  0
   35.3520   28.3800   39.5410 O   0  0  0  0  0  0  0  0  0  0  0  0
   36.2160   29.3700   41.3170 N   0  0  0  0  0  0  0  0  0  0  0  0
   36.3520   29.9770   42.1760 H   0  0  0  0  0  0  0  0  0  0  0  0
  1 17  1  0  0  0  0
  1  6  1  0  0  0  0
  1  7  1  1  0  0  0
  2  8  1  6  0  0  0
  2 29  1  0  0  0  0
  2  1  1  0  0  0  0
  3  2  1  0  0  0  0
  3  4  1  0  0  0  0
  4 12  1  0  0  0  0
  4  5  1  0  0  0  0
  5  6  1  0  0  0  0
  5 14  1  0  0  0  0
  5 13  1  0  0  0  0
  6 15  1  0  0  0  0
  9  3  1  0  0  0  0
 10  3  1  0  0  0  0
 11  4  1  0  0  0  0
 16  6  1  0  0  0  0
 17 22  1  0  0  0  0
 18 17  2  0  0  0  0
 19 18  1  0  0  0  0
 19 20  2  0  0  0  0
 20 21  1  0  0  0  0
 21 22  2  0  0  0  0
 21 25  1  0  0  0  0
 23 18  1  0  0  0  0
 24 19  1  0  0  0  0
 27 26  1  0  0  0  0
 27 29  1  0  0  0  0
 28 27  2  0  0  0  0
 29 30  1  0  0  0  0
M  END
>  <minimizedAffinity>
-4.14555359

$$$$
