
 OpenBabel03252502233D

 31 33  0  0  1  0  0  0  0  0999 V2000
   46.8770   34.6220   42.2910 N   0  0  0  0  0  0  0  0  0  0  0  0
   48.3240   34.6400   42.3560 C   0  0  0  0  0  0  0  0  0  0  0  0
   48.7580   35.4260   41.1260 C   0  0  0  0  0  0  0  0  0  0  0  0
   48.3620   34.6980   39.8670 C   0  0  0  0  0  0  0  0  0  0  0  0
   47.0290   34.0530   39.9160 C   0  0  0  0  0  0  0  0  0  0  0  0
   46.1560   34.4360   41.0620 C   0  0  1  0  0  0  0  0  0  0  0  0
   48.6910   35.1750   43.2540 H   0  0  0  0  0  0  0  0  0  0  0  0
   48.7090   33.6300   42.2460 H   0  0  0  0  0  0  0  0  0  0  0  0
   49.8730   35.4840   41.1780 H   0  0  0  0  0  0  0  0  0  0  0  0
   48.2860   36.4170   41.2100 H   0  0  0  0  0  0  0  0  0  0  0  0
   48.3910   35.4530   39.0520 H   0  0  0  0  0  0  0  0  0  0  0  0
   49.1680   33.9610   39.5820 H   0  0  0  0  0  0  0  0  0  0  0  0
   46.4910   34.2350   38.9590 H   0  0  0  0  0  0  0  0  0  0  0  0
   47.2030   32.9400   40.0110 H   0  0  0  0  0  0  0  0  0  0  0  0
   45.6160   35.3760   40.7850 H   0  0  0  0  0  0  0  0  0  0  0  0
   44.4650   35.9420   44.8360 C   0  0  0  0  0  0  0  0  0  0  0  0
   45.1870   35.8670   43.6290 C   0  0  0  0  0  0  0  0  0  0  0  0
   46.0920   34.7940   43.4780 C   0  0  0  0  0  0  0  0  0  0  0  0
   46.2110   33.9000   44.5060 N   0  0  0  0  0  0  0  0  0  0  0  0
   45.4860   34.0270   45.6430 C   0  0  0  0  0  0  0  0  0  0  0  0
   44.6100   35.0570   45.8020 N   0  0  0  0  0  0  0  0  0  0  0  0
   43.7960   36.7930   44.8680 H   0  0  0  0  0  0  0  0  0  0  0  0
   45.1020   36.5680   42.8090 H   0  0  0  0  0  0  0  0  0  0  0  0
   45.5770   33.3270   46.4510 H   0  0  0  0  0  0  0  0  0  0  0  0
   45.1930   33.4290   41.2320 O   0  0  0  0  0  0  0  0  0  0  0  0
   42.9550   31.8810   39.9020 H   0  0  0  0  0  0  0  0  0  0  0  0
   43.2000   32.5040   40.6970 N   0  0  0  0  0  0  0  0  0  0  0  0
   42.0670   33.1040   41.3340 C   0  0  0  0  0  2  0  0  0  0  0  0
   41.9100   34.4140   40.5930 C   0  0  0  0  0  2  0  0  0  0  0  0
   43.3680   34.8640   40.5250 C   0  0  0  0  0  2  0  0  0  0  0  0
   44.1360   33.5630   40.3440 C   0  0  1  0  0  3  0  0  0  0  0  0
  1  2  1  0  0  0  0
  1 18  1  0  0  0  0
  2  7  1  0  0  0  0
  3  9  1  0  0  0  0
  3 10  1  0  0  0  0
  3  2  1  0  0  0  0
  4  5  1  0  0  0  0
  4  3  1  0  0  0  0
  5 14  1  0  0  0  0
  5  6  1  0  0  0  0
  6 15  1  6  0  0  0
  6 25  1  0  0  0  0
  6  1  1  0  0  0  0
  8  2  1  0  0  0  0
 11  4  1  0  0  0  0
 12  4  1  0  0  0  0
 13  5  1  0  0  0  0
 16 22  1  0  0  0  0
 16 21  1  0  0  0  0
 17 16  2  0  0  0  0
 18 17  1  0  0  0  0
 18 19  2  0  0  0  0
 19 20  1  0  0  0  0
 20 21  2  0  0  0  0
 20 24  1  0  0  0  0
 23 17  1  0  0  0  0
 26 27  1  0  0  0  0
 27 28  1  0  0  0  0
 29 28  1  0  0  0  0
 30 29  1  0  0  0  0
 31 30  1  0  0  0  0
 31 27  1  0  0  0  0
 31 25  1  1  0  0  0
M  END
>  <minimizedAffinity>
-5.32763577

>  <minimizedRMSD>
0.95693469

$$$$
