
 OpenBabel03242519123D

 44 47  0  0  1  0  0  0  0  0999 V2000
   40.2800   33.4100   38.8410 N   0  0  0  0  0  0  0  0  0  0  0  0
   40.2700   33.2690   37.7870 H   0  0  0  0  0  0  0  0  0  0  0  0
   42.1780   35.1120   41.3130 N   0  0  0  0  0  0  0  0  0  0  0  0
   41.6100   33.8590   40.8390 C   0  0  0  0  0  0  0  0  0  0  0  0
   41.2160   34.3010   39.4590 C   0  0  2  0  0  0  0  0  0  0  0  0
   40.4780   35.5890   39.7560 C   0  0  0  0  0  0  0  0  0  0  0  0
   41.2640   36.1410   40.9210 C   0  0  0  0  0  0  0  0  0  0  0  0
   42.3660   33.0540   40.8430 H   0  0  0  0  0  0  0  0  0  0  0  0
   40.7010   33.6120   41.4160 H   0  0  0  0  0  0  0  0  0  0  0  0
   42.0770   34.5280   38.8300 H   0  0  0  0  0  0  0  0  0  0  0  0
   39.4070   35.4150   39.9870 H   0  0  0  0  0  0  0  0  0  0  0  0
   40.6050   36.2850   38.9010 H   0  0  0  0  0  0  0  0  0  0  0  0
   41.7810   37.0870   40.6610 H   0  0  0  0  0  0  0  0  0  0  0  0
   40.5180   36.2990   41.7410 H   0  0  0  0  0  0  0  0  0  0  0  0
   45.7530   35.2390   42.3930 C   0  0  0  0  0  0  0  0  0  0  0  0
   44.6350   34.9300   41.6290 C   0  0  0  0  0  0  0  0  0  0  0  0
   43.3730   35.3740   42.0210 C   0  0  0  0  0  0  0  0  0  0  0  0
   43.3100   36.1050   43.1610 N   0  0  0  0  0  0  0  0  0  0  0  0
   44.3840   36.4110   43.9070 C   0  0  0  0  0  0  0  0  0  0  0  0
   45.6010   35.9670   43.5070 N   0  0  0  0  0  0  0  0  0  0  0  0
   46.7200   34.9050   42.1050 H   0  0  0  0  0  0  0  0  0  0  0  0
   44.7030   34.3410   40.7190 H   0  0  0  0  0  0  0  0  0  0  0  0
   44.1600   37.0010   44.7840 H   0  0  0  0  0  0  0  0  0  0  0  0
   39.4280   31.2350   39.7230 C   0  0  0  0  0  0  0  0  0  0  0  0
   39.2650   32.5900   39.3610 C   0  0  0  0  0  0  0  0  0  0  0  0
   37.9920   33.0550   39.5680 C   0  0  0  0  0  0  0  0  0  0  0  0
   36.9340   32.3400   40.0680 C   0  0  0  0  0  0  0  0  0  0  0  0
   37.1470   31.0170   40.4060 C   0  0  0  0  0  0  0  0  0  0  0  0
   38.4020   30.4910   40.2240 C   0  0  0  0  0  0  0  0  0  0  0  0
   37.7970   34.0940   39.3080 H   0  0  0  0  0  0  0  0  0  0  0  0
   35.9630   32.8030   40.1920 H   0  0  0  0  0  0  0  0  0  0  0  0
   36.3010   30.4790   40.7960 H   0  0  0  0  0  0  0  0  0  0  0  0
   38.8350   28.8010   41.9540 C   0  0  0  0  0  0  0  0  0  0  0  0
   38.9850   29.7370   42.8160 O   0  0  0  0  0  0  0  0  0  0  0  0
   38.5670   29.1220   40.5890 N   0  0  0  0  0  0  0  0  0  0  0  0
   38.4900   28.3830   39.8490 H   0  0  0  0  0  0  0  0  0  0  0  0
   38.9340   27.4180   42.3550 N   0  0  0  0  0  0  0  0  0  0  0  0
   39.0930   26.2000   41.5510 C   0  0  0  0  0  2  0  0  0  0  0  0
   40.2020   25.5040   42.3350 C   0  0  0  0  0  2  0  0  0  0  0  0
   40.0290   25.9680   43.7660 C   0  0  0  0  0  2  0  0  0  0  0  0
   38.8900   26.9640   43.7260 C   0  0  0  0  0  3  0  0  0  0  0  0
   39.0330   27.8040   44.4350 H   0  0  0  0  0  0  0  0  0  0  0  0
   41.8060   30.2300   39.4000 N   0  0  0  0  0  0  0  0  0  0  0  0
   40.7450   30.6730   39.5340 C   0  0  0  0  0  0  0  0  0  0  0  0
  1 25  1  0  0  0  0
  1  5  1  0  0  0  0
  2  1  1  0  0  0  0
  3 17  1  0  0  0  0
  4  8  1  0  0  0  0
  4  3  1  0  0  0  0
  4  9  1  0  0  0  0
  5 10  1  6  0  0  0
  5  6  1  0  0  0  0
  5  4  1  0  0  0  0
  6 11  1  0  0  0  0
  6  7  1  0  0  0  0
  7  3  1  0  0  0  0
  7 14  1  0  0  0  0
 12  6  1  0  0  0  0
 13  7  1  0  0  0  0
 15 20  1  0  0  0  0
 16 17  1  0  0  0  0
 16 15  2  0  0  0  0
 17 18  2  0  0  0  0
 18 19  1  0  0  0  0
 19 23  1  0  0  0  0
 20 19  2  0  0  0  0
 21 15  1  0  0  0  0
 22 16  1  0  0  0  0
 24 29  1  0  0  0  0
 25 26  1  0  0  0  0
 25 24  2  0  0  0  0
 26 27  2  0  0  0  0
 27 31  1  0  0  0  0
 27 28  1  0  0  0  0
 28 32  1  0  0  0  0
 29 28  2  0  0  0  0
 29 35  1  0  0  0  0
 30 26  1  0  0  0  0
 33 37  1  0  0  0  0
 33 34  2  0  0  0  0
 35 33  1  0  0  0  0
 36 35  1  0  0  0  0
 37 41  1  0  0  0  0
 38 39  1  0  0  0  0
 38 37  1  0  0  0  0
 39 40  1  0  0  0  0
 41 40  1  0  0  0  0
 41 42  1  0  0  0  0
 43 44  3  0  0  0  0
 44 24  1  0  0  0  0
M  END
>  <minimizedAffinity>
-6.4988327

$$$$

 OpenBabel03242519123D

 44 47  0  0  1  0  0  0  0  0999 V2000
   39.9620   32.7940   38.9400 N   0  0  0  0  0  0  0  0  0  0  0  0
   39.9710   32.4740   37.9260 H   0  0  0  0  0  0  0  0  0  0  0  0
   42.0000   34.7210   41.1180 N   0  0  0  0  0  0  0  0  0  0  0  0
   41.4710   33.4140   40.7560 C   0  0  0  0  0  0  0  0  0  0  0  0
   40.8960   33.7710   39.4160 C   0  0  2  0  0  0  0  0  0  0  0  0
   40.1070   35.0190   39.7510 C   0  0  0  0  0  0  0  0  0  0  0  0
   40.9780   35.6700   40.7990 C   0  0  0  0  0  0  0  0  0  0  0  0
   42.2780   32.6620   40.7020 H   0  0  0  0  0  0  0  0  0  0  0  0
   40.6520   33.1320   41.4420 H   0  0  0  0  0  0  0  0  0  0  0  0
   41.6630   34.0270   38.6850 H   0  0  0  0  0  0  0  0  0  0  0  0
   39.0830   34.7840   40.1090 H   0  0  0  0  0  0  0  0  0  0  0  0
   40.0890   35.6850   38.8630 H   0  0  0  0  0  0  0  0  0  0  0  0
   41.3950   36.6360   40.4480 H   0  0  0  0  0  0  0  0  0  0  0  0
   40.3180   35.8120   41.6930 H   0  0  0  0  0  0  0  0  0  0  0  0
   44.6700   36.2940   43.2050 C   0  0  0  0  0  0  0  0  0  0  0  0
   43.4020   35.9940   42.7250 C   0  0  0  0  0  0  0  0  0  0  0  0
   43.2450   35.0900   41.6760 C   0  0  0  0  0  0  0  0  0  0  0  0
   44.3760   34.5390   41.1710 N   0  0  0  0  0  0  0  0  0  0  0  0
   45.6080   34.8210   41.6270 C   0  0  0  0  0  0  0  0  0  0  0  0
   45.7360   35.7040   42.6470 N   0  0  0  0  0  0  0  0  0  0  0  0
   44.8030   36.9830   44.0040 H   0  0  0  0  0  0  0  0  0  0  0  0
   42.5060   36.4460   43.1400 H   0  0  0  0  0  0  0  0  0  0  0  0
   46.4010   34.2950   41.1140 H   0  0  0  0  0  0  0  0  0  0  0  0
   39.0210   30.7510   40.0240 C   0  0  0  0  0  0  0  0  0  0  0  0
   38.9260   32.0850   39.5710 C   0  0  0  0  0  0  0  0  0  0  0  0
   37.6990   32.6500   39.8070 C   0  0  0  0  0  0  0  0  0  0  0  0
   36.6270   32.0470   40.4120 C   0  0  0  0  0  0  0  0  0  0  0  0
   36.7730   30.7400   40.8370 C   0  0  0  0  0  0  0  0  0  0  0  0
   37.9790   30.1170   40.6310 C   0  0  0  0  0  0  0  0  0  0  0  0
   37.5580   33.6790   39.4800 H   0  0  0  0  0  0  0  0  0  0  0  0
   35.6970   32.5830   40.5510 H   0  0  0  0  0  0  0  0  0  0  0  0
   35.9170   30.2900   41.3090 H   0  0  0  0  0  0  0  0  0  0  0  0
   37.5570   27.7240   40.2670 C   0  0  0  0  0  0  0  0  0  0  0  0
   36.9600   28.0070   39.1690 O   0  0  0  0  0  0  0  0  0  0  0  0
   38.0760   28.7690   41.0890 N   0  0  0  0  0  0  0  0  0  0  0  0
   38.5240   28.5760   42.0160 H   0  0  0  0  0  0  0  0  0  0  0  0
   37.7110   26.3500   40.6790 N   0  0  0  0  0  0  0  0  0  0  0  0
   38.0750   25.7800   41.9820 C   0  0  0  0  0  2  0  0  0  0  0  0
   37.0150   24.6880   42.1030 C   0  0  0  0  0  2  0  0  0  0  0  0
   36.6930   24.2870   40.6800 C   0  0  0  0  0  2  0  0  0  0  0  0
   37.5150   25.2130   39.8090 C   0  0  0  0  0  3  0  0  0  0  0  0
   36.9880   25.5020   38.8780 H   0  0  0  0  0  0  0  0  0  0  0  0
   41.2980   29.5590   39.6220 N   0  0  0  0  0  0  0  0  0  0  0  0
   40.2870   30.0880   39.8120 C   0  0  0  0  0  0  0  0  0  0  0  0
  1  5  1  0  0  0  0
  1 25  1  0  0  0  0
  2  1  1  0  0  0  0
  3 17  1  0  0  0  0
  4  3  1  0  0  0  0
  4  9  1  0  0  0  0
  5 10  1  6  0  0  0
  5  6  1  0  0  0  0
  5  4  1  0  0  0  0
  6 11  1  0  0  0  0
  6  7  1  0  0  0  0
  7  3  1  0  0  0  0
  7 14  1  0  0  0  0
  8  4  1  0  0  0  0
 12  6  1  0  0  0  0
 13  7  1  0  0  0  0
 15 21  1  0  0  0  0
 16 22  1  0  0  0  0
 16 15  1  0  0  0  0
 17 16  2  0  0  0  0
 18 19  2  0  0  0  0
 18 17  1  0  0  0  0
 19 20  1  0  0  0  0
 20 15  2  0  0  0  0
 23 19  1  0  0  0  0
 24 29  1  0  0  0  0
 25 26  1  0  0  0  0
 25 24  2  0  0  0  0
 26 27  2  0  0  0  0
 27 31  1  0  0  0  0
 27 28  1  0  0  0  0
 28 32  1  0  0  0  0
 29 28  2  0  0  0  0
 29 35  1  0  0  0  0
 30 26  1  0  0  0  0
 33 37  1  0  0  0  0
 33 35  1  0  0  0  0
 34 33  2  0  0  0  0
 35 36  1  0  0  0  0
 37 38  1  0  0  0  0
 38 39  1  0  0  0  0
 40 39  1  0  0  0  0
 41 37  1  0  0  0  0
 41 40  1  0  0  0  0
 42 41  1  0  0  0  0
 43 44  3  0  0  0  0
 44 24  1  0  0  0  0
M  END
>  <minimizedAffinity>
-6.1077261

$$$$

 OpenBabel03242519123D

 44 47  0  0  1  0  0  0  0  0999 V2000
   36.5140   29.2610   40.1790 N   0  0  0  0  0  0  0  0  0  0  0  0
   35.4690   29.2950   39.9870 H   0  0  0  0  0  0  0  0  0  0  0  0
   37.9000   32.4720   39.5670 N   0  0  0  0  0  0  0  0  0  0  0  0
   37.2530   31.5650   40.5020 C   0  0  0  0  0  0  0  0  0  0  0  0
   37.3870   30.2970   39.7110 C   0  0  2  0  0  0  0  0  0  0  0  0
   36.8750   30.7330   38.3550 C   0  0  0  0  0  0  0  0  0  0  0  0
   37.3760   32.1560   38.2730 C   0  0  0  0  0  0  0  0  0  0  0  0
   37.7910   31.5400   41.4670 H   0  0  0  0  0  0  0  0  0  0  0  0
   36.1830   31.8220   40.6020 H   0  0  0  0  0  0  0  0  0  0  0  0
   38.4230   29.9740   39.6070 H   0  0  0  0  0  0  0  0  0  0  0  0
   35.7720   30.6470   38.2750 H   0  0  0  0  0  0  0  0  0  0  0  0
   37.3910   30.1460   37.5670 H   0  0  0  0  0  0  0  0  0  0  0  0
   38.1300   32.2830   37.4700 H   0  0  0  0  0  0  0  0  0  0  0  0
   36.4690   32.7850   38.0820 H   0  0  0  0  0  0  0  0  0  0  0  0
   39.5700   35.7100   40.3980 C   0  0  0  0  0  0  0  0  0  0  0  0
   38.5560   34.7780   40.2170 C   0  0  0  0  0  0  0  0  0  0  0  0
   38.8580   33.4890   39.7800 C   0  0  0  0  0  0  0  0  0  0  0  0
   40.1660   33.2140   39.5510 N   0  0  0  0  0  0  0  0  0  0  0  0
   41.1550   34.1070   39.7230 C   0  0  0  0  0  0  0  0  0  0  0  0
   40.8360   35.3540   40.1480 N   0  0  0  0  0  0  0  0  0  0  0  0
   39.3510   36.6960   40.7300 H   0  0  0  0  0  0  0  0  0  0  0  0
   37.5130   35.0160   40.4040 H   0  0  0  0  0  0  0  0  0  0  0  0
   42.1400   33.7250   39.4960 H   0  0  0  0  0  0  0  0  0  0  0  0
   37.1930   26.8640   40.3540 C   0  0  0  0  0  0  0  0  0  0  0  0
   36.7450   28.0830   40.9090 C   0  0  0  0  0  0  0  0  0  0  0  0
   36.5500   28.0200   42.2650 C   0  0  0  0  0  0  0  0  0  0  0  0
   36.7460   26.9250   43.0660 C   0  0  0  0  0  0  0  0  0  0  0  0
   37.1840   25.7570   42.4730 C   0  0  0  0  0  0  0  0  0  0  0  0
   37.3990   25.7540   41.1170 C   0  0  0  0  0  0  0  0  0  0  0  0
   36.2030   28.9270   42.7570 H   0  0  0  0  0  0  0  0  0  0  0  0
   36.5610   26.9800   44.1320 H   0  0  0  0  0  0  0  0  0  0  0  0
   37.3300   24.9120   43.1240 H   0  0  0  0  0  0  0  0  0  0  0  0
   36.8850   23.5460   40.1700 C   0  0  0  0  0  0  0  0  0  0  0  0
   35.6390   23.7550   40.3890 O   0  0  0  0  0  0  0  0  0  0  0  0
   37.8520   24.5230   40.5550 N   0  0  0  0  0  0  0  0  0  0  0  0
   38.8810   24.3630   40.4380 H   0  0  0  0  0  0  0  0  0  0  0  0
   37.3190   22.3260   39.5340 N   0  0  0  0  0  0  0  0  0  0  0  0
   38.6540   21.7230   39.4380 C   0  0  0  0  0  2  0  0  0  0  0  0
   38.3240   20.2780   39.8020 C   0  0  0  0  0  2  0  0  0  0  0  0
   36.8920   20.0720   39.3550 C   0  0  0  0  0  2  0  0  0  0  0  0
   36.4420   21.4190   38.8300 C   0  0  0  0  0  3  0  0  0  0  0  0
   35.3770   21.6290   39.0560 H   0  0  0  0  0  0  0  0  0  0  0  0
   37.6160   26.8610   37.7870 N   0  0  0  0  0  0  0  0  0  0  0  0
   37.4220   26.8530   38.9280 C   0  0  0  0  0  0  0  0  0  0  0  0
  1 25  1  0  0  0  0
  2  1  1  0  0  0  0
  3 17  1  0  0  0  0
  3  4  1  0  0  0  0
  4  9  1  0  0  0  0
  4  8  1  0  0  0  0
  5 10  1  6  0  0  0
  5  1  1  0  0  0  0
  5  4  1  0  0  0  0
  6  5  1  0  0  0  0
  7  6  1  0  0  0  0
  7  3  1  0  0  0  0
 11  6  1  0  0  0  0
 12  6  1  0  0  0  0
 13  7  1  0  0  0  0
 14  7  1  0  0  0  0
 15 21  1  0  0  0  0
 16 15  1  0  0  0  0
 16 22  1  0  0  0  0
 17 16  2  0  0  0  0
 18 19  2  0  0  0  0
 18 17  1  0  0  0  0
 19 20  1  0  0  0  0
 20 15  2  0  0  0  0
 23 19  1  0  0  0  0
 24 25  2  0  0  0  0
 24 29  1  0  0  0  0
 25 26  1  0  0  0  0
 26 30  1  0  0  0  0
 26 27  2  0  0  0  0
 27 31  1  0  0  0  0
 28 27  1  0  0  0  0
 28 32  1  0  0  0  0
 29 28  2  0  0  0  0
 33 34  2  0  0  0  0
 33 35  1  0  0  0  0
 35 29  1  0  0  0  0
 36 35  1  0  0  0  0
 37 33  1  0  0  0  0
 38 37  1  0  0  0  0
 38 39  1  0  0  0  0
 40 39  1  0  0  0  0
 41 42  1  0  0  0  0
 41 40  1  0  0  0  0
 41 37  1  0  0  0  0
 43 44  3  0  0  0  0
 44 24  1  0  0  0  0
M  END
>  <minimizedAffinity>
-6.03041697

$$$$

 OpenBabel03242519123D

 44 47  0  0  1  0  0  0  0  0999 V2000
   41.1360   33.9660   38.1820 N   0  0  0  0  0  0  0  0  0  0  0  0
   40.5830   34.4490   37.4130 H   0  0  0  0  0  0  0  0  0  0  0  0
   42.2830   35.0390   41.3670 N   0  0  0  0  0  0  0  0  0  0  0  0
   42.0040   33.9330   40.4640 C   0  0  0  0  0  0  0  0  0  0  0  0
   41.8010   34.7210   39.2030 C   0  0  2  0  0  0  0  0  0  0  0  0
   40.8340   35.7890   39.6690 C   0  0  0  0  0  0  0  0  0  0  0  0
   41.3070   36.0460   41.0810 C   0  0  0  0  0  0  0  0  0  0  0  0
   42.8620   33.2370   40.4130 H   0  0  0  0  0  0  0  0  0  0  0  0
   41.0560   33.4410   40.7450 H   0  0  0  0  0  0  0  0  0  0  0  0
   42.7150   35.2030   38.8570 H   0  0  0  0  0  0  0  0  0  0  0  0
   39.7780   35.4540   39.6110 H   0  0  0  0  0  0  0  0  0  0  0  0
   41.0050   36.7140   39.0810 H   0  0  0  0  0  0  0  0  0  0  0  0
   41.7130   37.0710   41.2000 H   0  0  0  0  0  0  0  0  0  0  0  0
   40.4120   35.8840   41.7330 H   0  0  0  0  0  0  0  0  0  0  0  0
   44.4830   36.4090   44.0580 C   0  0  0  0  0  0  0  0  0  0  0  0
   43.4750   36.3540   43.1040 C   0  0  0  0  0  0  0  0  0  0  0  0
   43.2790   35.1930   42.3580 C   0  0  0  0  0  0  0  0  0  0  0  0
   44.1100   34.1540   42.6160 N   0  0  0  0  0  0  0  0  0  0  0  0
   45.0880   34.1950   43.5360 C   0  0  0  0  0  0  0  0  0  0  0  0
   45.2600   35.3350   44.2490 N   0  0  0  0  0  0  0  0  0  0  0  0
   44.6440   37.2890   44.6330 H   0  0  0  0  0  0  0  0  0  0  0  0
   42.8190   37.1970   42.9090 H   0  0  0  0  0  0  0  0  0  0  0  0
   45.6590   33.2810   43.6170 H   0  0  0  0  0  0  0  0  0  0  0  0
   39.9580   31.7700   38.3430 C   0  0  0  0  0  0  0  0  0  0  0  0
   41.0360   32.5860   37.9360 C   0  0  0  0  0  0  0  0  0  0  0  0
   42.0100   31.8980   37.2580 C   0  0  0  0  0  0  0  0  0  0  0  0
   42.0080   30.5580   36.9680 C   0  0  0  0  0  0  0  0  0  0  0  0
   40.9290   29.8050   37.3890 C   0  0  0  0  0  0  0  0  0  0  0  0
   39.9190   30.4350   38.0730 C   0  0  0  0  0  0  0  0  0  0  0  0
   42.8710   32.4690   36.9170 H   0  0  0  0  0  0  0  0  0  0  0  0
   42.8300   30.1090   36.4250 H   0  0  0  0  0  0  0  0  0  0  0  0
   40.9520   28.7560   37.1480 H   0  0  0  0  0  0  0  0  0  0  0  0
   38.9130   28.9340   39.7370 C   0  0  0  0  0  0  0  0  0  0  0  0
   39.9790   29.0200   40.4440 O   0  0  0  0  0  0  0  0  0  0  0  0
   38.8290   29.6110   38.4840 N   0  0  0  0  0  0  0  0  0  0  0  0
   37.9930   29.5210   37.8580 H   0  0  0  0  0  0  0  0  0  0  0  0
   37.7910   28.1550   40.2030 N   0  0  0  0  0  0  0  0  0  0  0  0
   36.6080   27.6630   39.4860 C   0  0  0  0  0  2  0  0  0  0  0  0
   36.5790   26.2180   39.9770 C   0  0  0  0  0  2  0  0  0  0  0  0
   37.2030   26.2520   41.3550 C   0  0  0  0  0  2  0  0  0  0  0  0
   37.6320   27.6890   41.5610 C   0  0  0  0  0  3  0  0  0  0  0  0
   38.5790   27.7730   42.1310 H   0  0  0  0  0  0  0  0  0  0  0  0
   38.0290   32.9560   39.6230 N   0  0  0  0  0  0  0  0  0  0  0  0
   38.8920   32.4250   39.0630 C   0  0  0  0  0  0  0  0  0  0  0  0
  1  5  1  0  0  0  0
  2  1  1  0  0  0  0
  3 17  1  0  0  0  0
  4  9  1  0  0  0  0
  4  3  1  0  0  0  0
  5 10  1  6  0  0  0
  5  6  1  0  0  0  0
  5  4  1  0  0  0  0
  6  7  1  0  0  0  0
  7 13  1  0  0  0  0
  7  3  1  0  0  0  0
  7 14  1  0  0  0  0
  8  4  1  0  0  0  0
 11  6  1  0  0  0  0
 12  6  1  0  0  0  0
 15 20  1  0  0  0  0
 15 21  1  0  0  0  0
 16 15  2  0  0  0  0
 17 18  2  0  0  0  0
 17 16  1  0  0  0  0
 18 19  1  0  0  0  0
 19 23  1  0  0  0  0
 19 20  2  0  0  0  0
 22 16  1  0  0  0  0
 24 44  1  0  0  0  0
 25  1  1  0  0  0  0
 25 24  2  0  0  0  0
 26 25  1  0  0  0  0
 27 26  2  0  0  0  0
 27 28  1  0  0  0  0
 28 29  2  0  0  0  0
 29 24  1  0  0  0  0
 29 35  1  0  0  0  0
 30 26  1  0  0  0  0
 31 27  1  0  0  0  0
 32 28  1  0  0  0  0
 33 37  1  0  0  0  0
 33 34  2  0  0  0  0
 35 33  1  0  0  0  0
 36 35  1  0  0  0  0
 37 41  1  0  0  0  0
 38 39  1  0  0  0  0
 38 37  1  0  0  0  0
 39 40  1  0  0  0  0
 40 41  1  0  0  0  0
 41 42  1  0  0  0  0
 44 43  3  0  0  0  0
M  END
>  <minimizedAffinity>
-5.97545242

$$$$

 OpenBabel03242519123D

 44 47  0  0  1  0  0  0  0  0999 V2000
   37.3280   29.6310   41.1440 N   0  0  0  0  0  0  0  0  0  0  0  0
   36.3110   29.6610   41.4530 H   0  0  0  0  0  0  0  0  0  0  0  0
   38.2430   32.8950   40.0840 N   0  0  0  0  0  0  0  0  0  0  0  0
   38.0620   31.9600   41.1830 C   0  0  0  0  0  0  0  0  0  0  0  0
   37.9020   30.7010   40.3810 C   0  0  2  0  0  0  0  0  0  0  0  0
   36.8680   31.1260   39.3600 C   0  0  0  0  0  0  0  0  0  0  0  0
   37.2480   32.5660   39.1100 C   0  0  0  0  0  0  0  0  0  0  0  0
   38.9470   31.9490   41.8450 H   0  0  0  0  0  0  0  0  0  0  0  0
   37.1180   32.1770   41.7160 H   0  0  0  0  0  0  0  0  0  0  0  0
   38.8150   30.4170   39.8590 H   0  0  0  0  0  0  0  0  0  0  0  0
   35.8310   31.0000   39.7340 H   0  0  0  0  0  0  0  0  0  0  0  0
   37.0370   30.5620   38.4180 H   0  0  0  0  0  0  0  0  0  0  0  0
   37.6050   32.7250   38.0720 H   0  0  0  0  0  0  0  0  0  0  0  0
   36.3230   33.1620   39.3170 H   0  0  0  0  0  0  0  0  0  0  0  0
   41.3160   34.8720   39.3020 C   0  0  0  0  0  0  0  0  0  0  0  0
   40.4750   33.7760   39.4400 C   0  0  0  0  0  0  0  0  0  0  0  0
   39.1730   33.9450   39.9090 C   0  0  0  0  0  0  0  0  0  0  0  0
   38.7930   35.2110   40.2110 N   0  0  0  0  0  0  0  0  0  0  0  0
   39.5970   36.2790   40.0810 C   0  0  0  0  0  0  0  0  0  0  0  0
   40.8590   36.0900   39.6240 N   0  0  0  0  0  0  0  0  0  0  0  0
   42.3110   34.7560   38.9470 H   0  0  0  0  0  0  0  0  0  0  0  0
   40.7960   32.7680   39.1950 H   0  0  0  0  0  0  0  0  0  0  0  0
   39.1380   37.2150   40.3650 H   0  0  0  0  0  0  0  0  0  0  0  0
   38.0280   27.2520   40.8550 C   0  0  0  0  0  0  0  0  0  0  0  0
   37.8550   28.4220   41.6270 C   0  0  0  0  0  0  0  0  0  0  0  0
   38.2570   28.2750   42.9290 C   0  0  0  0  0  0  0  0  0  0  0  0
   38.7810   27.1430   43.4970 C   0  0  0  0  0  0  0  0  0  0  0  0
   38.9300   26.0250   42.6980 C   0  0  0  0  0  0  0  0  0  0  0  0
   38.5460   26.1070   41.3830 C   0  0  0  0  0  0  0  0  0  0  0  0
   38.1490   29.1400   43.5800 H   0  0  0  0  0  0  0  0  0  0  0  0
   39.0690   27.1300   44.5410 H   0  0  0  0  0  0  0  0  0  0  0  0
   39.3440   25.1500   43.1680 H   0  0  0  0  0  0  0  0  0  0  0  0
   37.6510   23.9840   40.5290 C   0  0  0  0  0  0  0  0  0  0  0  0
   36.5800   24.1760   41.2070 O   0  0  0  0  0  0  0  0  0  0  0  0
   38.7210   24.9260   40.6020 N   0  0  0  0  0  0  0  0  0  0  0  0
   39.6290   24.7750   40.1020 H   0  0  0  0  0  0  0  0  0  0  0  0
   37.7820   22.8200   39.6870 N   0  0  0  0  0  0  0  0  0  0  0  0
   38.9680   22.2250   39.0590 C   0  0  0  0  0  2  0  0  0  0  0  0
   38.7500   20.7560   39.4100 C   0  0  0  0  0  2  0  0  0  0  0  0
   37.2490   20.5890   39.5080 C   0  0  0  0  0  2  0  0  0  0  0  0
   36.6790   21.9750   39.2910 C   0  0  0  0  0  3  0  0  0  0  0  0
   35.7790   22.1670   39.9090 H   0  0  0  0  0  0  0  0  0  0  0  0
   37.2880   27.4010   38.3660 N   0  0  0  0  0  0  0  0  0  0  0  0
   37.6270   27.3300   39.4700 C   0  0  0  0  0  0  0  0  0  0  0  0
  1  2  1  0  0  0  0
  1 25  1  0  0  0  0
  3  4  1  0  0  0  0
  4  9  1  0  0  0  0
  4  8  1  0  0  0  0
  5 10  1  6  0  0  0
  5  1  1  0  0  0  0
  5  4  1  0  0  0  0
  6 11  1  0  0  0  0
  6  5  1  0  0  0  0
  7 14  1  0  0  0  0
  7  6  1  0  0  0  0
  7  3  1  0  0  0  0
 12  6  1  0  0  0  0
 13  7  1  0  0  0  0
 15 16  2  0  0  0  0
 15 20  1  0  0  0  0
 16 17  1  0  0  0  0
 17  3  1  0  0  0  0
 17 18  2  0  0  0  0
 19 18  1  0  0  0  0
 19 23  1  0  0  0  0
 20 19  2  0  0  0  0
 21 15  1  0  0  0  0
 22 16  1  0  0  0  0
 24 29  2  0  0  0  0
 24 25  1  0  0  0  0
 25 26  2  0  0  0  0
 26 27  1  0  0  0  0
 26 30  1  0  0  0  0
 27 31  1  0  0  0  0
 28 32  1  0  0  0  0
 28 27  2  0  0  0  0
 29 28  1  0  0  0  0
 33 35  1  0  0  0  0
 33 34  2  0  0  0  0
 35 29  1  0  0  0  0
 36 35  1  0  0  0  0
 37 33  1  0  0  0  0
 38 39  1  0  0  0  0
 38 37  1  0  0  0  0
 39 40  1  0  0  0  0
 41 40  1  0  0  0  0
 41 37  1  0  0  0  0
 41 42  1  0  0  0  0
 43 44  3  0  0  0  0
 44 24  1  0  0  0  0
M  END
>  <minimizedAffinity>
-5.96420956

$$$$

 OpenBabel03242519123D

 44 47  0  0  1  0  0  0  0  0999 V2000
   38.5730   29.5400   42.8320 N   0  0  0  0  0  0  0  0  0  0  0  0
   37.7620   29.7830   43.4740 H   0  0  0  0  0  0  0  0  0  0  0  0
   39.4800   32.1750   40.6320 N   0  0  0  0  0  0  0  0  0  0  0  0
   38.4690   31.5770   41.4900 C   0  0  0  0  0  0  0  0  0  0  0  0
   39.3360   30.5640   42.1800 C   0  0  2  0  0  0  0  0  0  0  0  0
   40.0380   29.9180   41.0050 C   0  0  0  0  0  0  0  0  0  0  0  0
   40.2220   31.0890   40.0680 C   0  0  0  0  0  0  0  0  0  0  0  0
   38.0390   32.3280   42.1780 H   0  0  0  0  0  0  0  0  0  0  0  0
   37.7120   31.0550   40.8790 H   0  0  0  0  0  0  0  0  0  0  0  0
   40.0840   31.0220   42.8270 H   0  0  0  0  0  0  0  0  0  0  0  0
   39.4460   29.0890   40.5660 H   0  0  0  0  0  0  0  0  0  0  0  0
   41.0440   29.5790   41.3260 H   0  0  0  0  0  0  0  0  0  0  0  0
   41.2920   31.3390   39.9250 H   0  0  0  0  0  0  0  0  0  0  0  0
   39.7440   30.7810   39.1030 H   0  0  0  0  0  0  0  0  0  0  0  0
   39.1990   35.8660   40.1170 C   0  0  0  0  0  0  0  0  0  0  0  0
   38.8280   34.5630   40.4240 C   0  0  0  0  0  0  0  0  0  0  0  0
   39.7600   33.5300   40.3410 C   0  0  0  0  0  0  0  0  0  0  0  0
   41.0140   33.8690   39.9540 N   0  0  0  0  0  0  0  0  0  0  0  0
   41.3850   35.1250   39.6550 C   0  0  0  0  0  0  0  0  0  0  0  0
   40.4610   36.1130   39.7420 N   0  0  0  0  0  0  0  0  0  0  0  0
   38.4970   36.6620   40.1760 H   0  0  0  0  0  0  0  0  0  0  0  0
   37.8180   34.3080   40.7310 H   0  0  0  0  0  0  0  0  0  0  0  0
   42.4210   35.2230   39.3650 H   0  0  0  0  0  0  0  0  0  0  0  0
   37.7660   27.2830   42.1310 C   0  0  0  0  0  0  0  0  0  0  0  0
   38.6590   28.1370   42.8150 C   0  0  0  0  0  0  0  0  0  0  0  0
   39.6490   27.4630   43.4820 C   0  0  0  0  0  0  0  0  0  0  0  0
   39.8200   26.1030   43.5280 C   0  0  0  0  0  0  0  0  0  0  0  0
   38.9180   25.3120   42.8410 C   0  0  0  0  0  0  0  0  0  0  0  0
   37.9030   25.9270   42.1520 C   0  0  0  0  0  0  0  0  0  0  0  0
   40.3710   28.0630   44.0320 H   0  0  0  0  0  0  0  0  0  0  0  0
   40.6380   25.6670   44.0870 H   0  0  0  0  0  0  0  0  0  0  0  0
   39.0750   24.2490   42.8940 H   0  0  0  0  0  0  0  0  0  0  0  0
   37.3540   24.6010   40.1570 C   0  0  0  0  0  0  0  0  0  0  0  0
   38.4340   25.0100   39.6020 O   0  0  0  0  0  0  0  0  0  0  0  0
   37.0010   25.0650   41.4610 N   0  0  0  0  0  0  0  0  0  0  0  0
   36.1010   24.7910   41.9220 H   0  0  0  0  0  0  0  0  0  0  0  0
   36.4890   23.6720   39.4720 N   0  0  0  0  0  0  0  0  0  0  0  0
   35.0980   23.2860   39.7420 C   0  0  0  0  0  2  0  0  0  0  0  0
   34.5170   23.3720   38.3340 C   0  0  0  0  0  2  0  0  0  0  0  0
   35.6750   23.0690   37.4070 C   0  0  0  0  0  2  0  0  0  0  0  0
   36.8770   22.9040   38.3120 C   0  0  0  0  0  3  0  0  0  0  0  0
   37.8090   23.2970   37.8590 H   0  0  0  0  0  0  0  0  0  0  0  0
   35.8370   28.4490   40.8320 N   0  0  0  0  0  0  0  0  0  0  0  0
   36.6950   27.9220   41.4030 C   0  0  0  0  0  0  0  0  0  0  0  0
  1  2  1  0  0  0  0
  3  4  1  0  0  0  0
  4  8  1  0  0  0  0
  4  5  1  0  0  0  0
  5 10  1  1  0  0  0
  5  1  1  0  0  0  0
  6 12  1  0  0  0  0
  6  5  1  0  0  0  0
  7  3  1  0  0  0  0
  7  6  1  0  0  0  0
  9  4  1  0  0  0  0
 11  6  1  0  0  0  0
 13  7  1  0  0  0  0
 14  7  1  0  0  0  0
 15 21  1  0  0  0  0
 15 16  1  0  0  0  0
 16 22  1  0  0  0  0
 17 16  2  0  0  0  0
 17  3  1  0  0  0  0
 18 17  1  0  0  0  0
 19 20  1  0  0  0  0
 19 18  2  0  0  0  0
 20 15  2  0  0  0  0
 23 19  1  0  0  0  0
 24 29  2  0  0  0  0
 24 25  1  0  0  0  0
 25  1  1  0  0  0  0
 25 26  2  0  0  0  0
 26 27  1  0  0  0  0
 26 30  1  0  0  0  0
 27 31  1  0  0  0  0
 28 32  1  0  0  0  0
 28 27  2  0  0  0  0
 29 28  1  0  0  0  0
 33 35  1  0  0  0  0
 34 33  2  0  0  0  0
 35 36  1  0  0  0  0
 35 29  1  0  0  0  0
 37 38  1  0  0  0  0
 37 33  1  0  0  0  0
 39 38  1  0  0  0  0
 40 41  1  0  0  0  0
 40 39  1  0  0  0  0
 41 37  1  0  0  0  0
 42 41  1  0  0  0  0
 43 44  3  0  0  0  0
 44 24  1  0  0  0  0
M  END
>  <minimizedAffinity>
-5.91291571

$$$$

 OpenBabel03242519123D

 44 47  0  0  1  0  0  0  0  0999 V2000
   39.1360   31.9600   38.7300 N   0  0  0  0  0  0  0  0  0  0  0  0
   38.8230   32.0640   37.7200 H   0  0  0  0  0  0  0  0  0  0  0  0
   41.5700   34.2800   39.8720 N   0  0  0  0  0  0  0  0  0  0  0  0
   40.1980   33.7990   39.9340 C   0  0  0  0  0  0  0  0  0  0  0  0
   40.3790   32.5130   39.1820 C   0  0  2  0  0  0  0  0  0  0  0  0
   41.1290   32.9850   37.9550 C   0  0  0  0  0  0  0  0  0  0  0  0
   42.0060   34.0760   38.5240 C   0  0  0  0  0  0  0  0  0  0  0  0
   39.8760   33.6550   40.9810 H   0  0  0  0  0  0  0  0  0  0  0  0
   39.5340   34.4690   39.3590 H   0  0  0  0  0  0  0  0  0  0  0  0
   41.0000   31.7970   39.7190 H   0  0  0  0  0  0  0  0  0  0  0  0
   40.4460   33.3380   37.1550 H   0  0  0  0  0  0  0  0  0  0  0  0
   41.7920   32.1690   37.5990 H   0  0  0  0  0  0  0  0  0  0  0  0
   43.0820   33.8150   38.4640 H   0  0  0  0  0  0  0  0  0  0  0  0
   41.7750   34.9920   37.9230 H   0  0  0  0  0  0  0  0  0  0  0  0
   42.9120   36.4090   42.6340 C   0  0  0  0  0  0  0  0  0  0  0  0
   42.0300   35.9200   41.6790 C   0  0  0  0  0  0  0  0  0  0  0  0
   42.3960   34.8470   40.8690 C   0  0  0  0  0  0  0  0  0  0  0  0
   43.6320   34.3260   41.0680 N   0  0  0  0  0  0  0  0  0  0  0  0
   44.4940   34.7890   41.9880 C   0  0  0  0  0  0  0  0  0  0  0  0
   44.1160   35.8350   42.7640 N   0  0  0  0  0  0  0  0  0  0  0  0
   42.6450   37.2280   43.2570 H   0  0  0  0  0  0  0  0  0  0  0  0
   41.0430   36.3500   41.5320 H   0  0  0  0  0  0  0  0  0  0  0  0
   45.4360   34.2620   42.0170 H   0  0  0  0  0  0  0  0  0  0  0  0
   37.9370   29.8370   39.2720 C   0  0  0  0  0  0  0  0  0  0  0  0
   38.1280   31.2320   39.3850 C   0  0  0  0  0  0  0  0  0  0  0  0
   37.2180   31.8370   40.2130 C   0  0  0  0  0  0  0  0  0  0  0  0
   36.2010   31.2200   40.8950 C   0  0  0  0  0  0  0  0  0  0  0  0
   36.0580   29.8540   40.7500 C   0  0  0  0  0  0  0  0  0  0  0  0
   36.9380   29.1880   39.9340 C   0  0  0  0  0  0  0  0  0  0  0  0
   37.3080   32.9140   40.3440 H   0  0  0  0  0  0  0  0  0  0  0  0
   35.5330   31.7920   41.5270 H   0  0  0  0  0  0  0  0  0  0  0  0
   35.2520   29.3940   41.2970 H   0  0  0  0  0  0  0  0  0  0  0  0
   37.2560   26.9290   40.8480 C   0  0  0  0  0  0  0  0  0  0  0  0
   37.9280   27.4290   41.8190 O   0  0  0  0  0  0  0  0  0  0  0  0
   36.7470   27.7790   39.8200 N   0  0  0  0  0  0  0  0  0  0  0  0
   36.2380   27.3980   38.9870 H   0  0  0  0  0  0  0  0  0  0  0  0
   37.0090   25.5090   40.7870 N   0  0  0  0  0  0  0  0  0  0  0  0
   36.5430   24.6690   39.6770 C   0  0  0  0  0  2  0  0  0  0  0  0
   37.5370   23.5150   39.7780 C   0  0  0  0  0  2  0  0  0  0  0  0
   37.9180   23.4450   41.2420 C   0  0  0  0  0  2  0  0  0  0  0  0
   37.1950   24.6030   41.8960 C   0  0  0  0  0  3  0  0  0  0  0  0
   37.7880   25.0720   42.7070 H   0  0  0  0  0  0  0  0  0  0  0  0
   39.6090   28.5580   37.7450 N   0  0  0  0  0  0  0  0  0  0  0  0
   38.8590   29.1290   38.4150 C   0  0  0  0  0  0  0  0  0  0  0  0
  1  5  1  0  0  0  0
  1 25  1  0  0  0  0
  2  1  1  0  0  0  0
  3  4  1  0  0  0  0
  3 17  1  0  0  0  0
  4  8  1  0  0  0  0
  5 10  1  1  0  0  0
  5  4  1  0  0  0  0
  6  7  1  0  0  0  0
  6  5  1  0  0  0  0
  7  3  1  0  0  0  0
  9  4  1  0  0  0  0
 11  6  1  0  0  0  0
 12  6  1  0  0  0  0
 13  7  1  0  0  0  0
 14  7  1  0  0  0  0
 15 20  1  0  0  0  0
 15 21  1  0  0  0  0
 16 15  2  0  0  0  0
 17 18  2  0  0  0  0
 17 16  1  0  0  0  0
 18 19  1  0  0  0  0
 19 23  1  0  0  0  0
 19 20  2  0  0  0  0
 22 16  1  0  0  0  0
 24 25  2  0  0  0  0
 24 29  1  0  0  0  0
 25 26  1  0  0  0  0
 26 30  1  0  0  0  0
 26 27  2  0  0  0  0
 27 31  1  0  0  0  0
 28 27  1  0  0  0  0
 28 32  1  0  0  0  0
 29 28  2  0  0  0  0
 33 34  2  0  0  0  0
 35 29  1  0  0  0  0
 35 33  1  0  0  0  0
 36 35  1  0  0  0  0
 37 33  1  0  0  0  0
 37 41  1  0  0  0  0
 38 39  1  0  0  0  0
 38 37  1  0  0  0  0
 39 40  1  0  0  0  0
 40 41  1  0  0  0  0
 41 42  1  0  0  0  0
 43 44  3  0  0  0  0
 44 24  1  0  0  0  0
M  END
>  <minimizedAffinity>
-5.89830208

$$$$

 OpenBabel03242519123D

 44 47  0  0  1  0  0  0  0  0999 V2000
   37.2140   29.8100   41.6740 N   0  0  0  0  0  0  0  0  0  0  0  0
   36.4350   30.0620   42.3520 H   0  0  0  0  0  0  0  0  0  0  0  0
   37.2120   26.2770   41.3200 N   0  0  0  0  0  0  0  0  0  0  0  0
   36.6330   27.5560   40.9380 C   0  0  0  0  0  0  0  0  0  0  0  0
   37.6710   28.4580   41.5400 C   0  0  2  0  0  0  0  0  0  0  0  0
   37.7910   27.8870   42.9370 C   0  0  0  0  0  0  0  0  0  0  0  0
   37.6090   26.4080   42.6880 C   0  0  0  0  0  0  0  0  0  0  0  0
   36.5580   27.6440   39.8390 H   0  0  0  0  0  0  0  0  0  0  0  0
   35.6700   27.7080   41.4580 H   0  0  0  0  0  0  0  0  0  0  0  0
   38.6370   28.3760   41.0430 H   0  0  0  0  0  0  0  0  0  0  0  0
   37.0400   28.3150   43.6320 H   0  0  0  0  0  0  0  0  0  0  0  0
   38.8270   28.0440   43.3040 H   0  0  0  0  0  0  0  0  0  0  0  0
   38.5290   25.8340   42.9170 H   0  0  0  0  0  0  0  0  0  0  0  0
   36.7600   26.0940   43.3470 H   0  0  0  0  0  0  0  0  0  0  0  0
   36.7360   22.9180   39.7530 C   0  0  0  0  0  0  0  0  0  0  0  0
   36.4660   24.0500   40.5110 C   0  0  0  0  0  0  0  0  0  0  0  0
   37.3940   25.0880   40.5780 C   0  0  0  0  0  0  0  0  0  0  0  0
   38.5420   24.9250   39.8750 N   0  0  0  0  0  0  0  0  0  0  0  0
   38.8150   23.8360   39.1380 C   0  0  0  0  0  0  0  0  0  0  0  0
   37.8970   22.8390   39.0890 N   0  0  0  0  0  0  0  0  0  0  0  0
   36.0370   22.1190   39.6960 H   0  0  0  0  0  0  0  0  0  0  0  0
   35.5420   24.1630   41.0700 H   0  0  0  0  0  0  0  0  0  0  0  0
   39.7730   23.8660   38.6400 H   0  0  0  0  0  0  0  0  0  0  0  0
   38.8000   31.7050   41.3160 C   0  0  0  0  0  0  0  0  0  0  0  0
   37.6010   31.0080   41.0500 C   0  0  0  0  0  0  0  0  0  0  0  0
   36.8210   31.6170   40.1020 C   0  0  0  0  0  0  0  0  0  0  0  0
   37.1060   32.7820   39.4370 C   0  0  0  0  0  0  0  0  0  0  0  0
   38.2930   33.4250   39.7350 C   0  0  0  0  0  0  0  0  0  0  0  0
   39.1200   32.8650   40.6770 C   0  0  0  0  0  0  0  0  0  0  0  0
   35.8800   31.1320   39.8500 H   0  0  0  0  0  0  0  0  0  0  0  0
   36.4190   33.1820   38.7020 H   0  0  0  0  0  0  0  0  0  0  0  0
   38.4930   34.3370   39.1990 H   0  0  0  0  0  0  0  0  0  0  0  0
   41.4900   33.2680   40.1670 C   0  0  0  0  0  0  0  0  0  0  0  0
   41.4480   32.3360   39.2880 O   0  0  0  0  0  0  0  0  0  0  0  0
   40.3320   33.5680   40.9460 N   0  0  0  0  0  0  0  0  0  0  0  0
   40.3460   34.2880   41.7070 H   0  0  0  0  0  0  0  0  0  0  0  0
   42.7040   34.0190   40.3750 N   0  0  0  0  0  0  0  0  0  0  0  0
   43.1020   34.9030   41.4780 C   0  0  0  0  0  2  0  0  0  0  0  0
   44.5160   34.3920   41.7360 C   0  0  0  0  0  2  0  0  0  0  0  0
   45.0000   33.8670   40.4010 C   0  0  0  0  0  2  0  0  0  0  0  0
   43.8230   34.0260   39.4620 C   0  0  0  0  0  3  0  0  0  0  0  0
   43.7500   33.1990   38.7270 H   0  0  0  0  0  0  0  0  0  0  0  0
   40.3830   30.6420   43.0860 N   0  0  0  0  0  0  0  0  0  0  0  0
   39.6760   31.1230   42.3060 C   0  0  0  0  0  0  0  0  0  0  0  0
  1  2  1  0  0  0  0
  3  7  1  0  0  0  0
  4  3  1  0  0  0  0
  4  9  1  0  0  0  0
  4  5  1  0  0  0  0
  5 10  1  6  0  0  0
  5  1  1  0  0  0  0
  5  6  1  0  0  0  0
  6 12  1  0  0  0  0
  6 11  1  0  0  0  0
  7 13  1  0  0  0  0
  7  6  1  0  0  0  0
  7 14  1  0  0  0  0
  8  4  1  0  0  0  0
 15 16  1  0  0  0  0
 16 17  2  0  0  0  0
 16 22  1  0  0  0  0
 17  3  1  0  0  0  0
 18 17  1  0  0  0  0
 19 18  2  0  0  0  0
 20 19  1  0  0  0  0
 20 15  2  0  0  0  0
 21 15  1  0  0  0  0
 23 19  1  0  0  0  0
 24 44  1  0  0  0  0
 25 24  1  0  0  0  0
 25  1  1  0  0  0  0
 26 25  2  0  0  0  0
 27 28  2  0  0  0  0
 27 26  1  0  0  0  0
 28 29  1  0  0  0  0
 29 35  1  0  0  0  0
 29 24  2  0  0  0  0
 30 26  1  0  0  0  0
 31 27  1  0  0  0  0
 32 28  1  0  0  0  0
 33 37  1  0  0  0  0
 33 35  1  0  0  0  0
 34 33  2  0  0  0  0
 35 36  1  0  0  0  0
 37 38  1  0  0  0  0
 38 39  1  0  0  0  0
 40 39  1  0  0  0  0
 41 37  1  0  0  0  0
 41 40  1  0  0  0  0
 42 41  1  0  0  0  0
 44 43  3  0  0  0  0
M  END
>  <minimizedAffinity>
-5.7892499

$$$$

 OpenBabel03242519123D

 44 47  0  0  1  0  0  0  0  0999 V2000
   37.6120   29.4880   40.4510 N   0  0  0  0  0  0  0  0  0  0  0  0
   36.7980   28.9390   40.0430 H   0  0  0  0  0  0  0  0  0  0  0  0
   38.3510   32.9330   40.0050 N   0  0  0  0  0  0  0  0  0  0  0  0
   38.3670   31.7710   40.8790 C   0  0  0  0  0  0  0  0  0  0  0  0
   38.0460   30.7190   39.8580 C   0  0  2  0  0  0  0  0  0  0  0  0
   36.8450   31.3290   39.1660 C   0  0  0  0  0  0  0  0  0  0  0  0
   37.1880   32.8000   39.1820 C   0  0  0  0  0  0  0  0  0  0  0  0
   39.3600   31.6400   41.3470 H   0  0  0  0  0  0  0  0  0  0  0  0
   37.5420   31.8340   41.6110 H   0  0  0  0  0  0  0  0  0  0  0  0
   38.8430   30.5870   39.1260 H   0  0  0  0  0  0  0  0  0  0  0  0
   35.8950   31.0900   39.6860 H   0  0  0  0  0  0  0  0  0  0  0  0
   36.8290   30.9950   38.1080 H   0  0  0  0  0  0  0  0  0  0  0  0
   37.3470   33.1980   38.1590 H   0  0  0  0  0  0  0  0  0  0  0  0
   36.3240   33.3050   39.6840 H   0  0  0  0  0  0  0  0  0  0  0  0
   41.3810   35.0500   39.4540 C   0  0  0  0  0  0  0  0  0  0  0  0
   40.5810   33.9170   39.5240 C   0  0  0  0  0  0  0  0  0  0  0  0
   39.2430   34.0240   39.9030 C   0  0  0  0  0  0  0  0  0  0  0  0
   38.7890   35.2690   40.1880 N   0  0  0  0  0  0  0  0  0  0  0  0
   39.5520   36.3720   40.1230 C   0  0  0  0  0  0  0  0  0  0  0  0
   40.8500   36.2420   39.7530 N   0  0  0  0  0  0  0  0  0  0  0  0
   42.4020   34.9800   39.1670 H   0  0  0  0  0  0  0  0  0  0  0  0
   40.9620   32.9260   39.2940 H   0  0  0  0  0  0  0  0  0  0  0  0
   39.0350   37.2850   40.3820 H   0  0  0  0  0  0  0  0  0  0  0  0
   39.3120   28.1100   41.6540 C   0  0  0  0  0  0  0  0  0  0  0  0
   38.0620   28.7620   41.5670 C   0  0  0  0  0  0  0  0  0  0  0  0
   37.3000   28.6240   42.6980 C   0  0  0  0  0  0  0  0  0  0  0  0
   37.6460   27.9400   43.8350 C   0  0  0  0  0  0  0  0  0  0  0  0
   38.8810   27.3190   43.8680 C   0  0  0  0  0  0  0  0  0  0  0  0
   39.6920   27.4210   42.7660 C   0  0  0  0  0  0  0  0  0  0  0  0
   36.3230   29.1020   42.6970 H   0  0  0  0  0  0  0  0  0  0  0  0
   36.9690   27.8900   44.6780 H   0  0  0  0  0  0  0  0  0  0  0  0
   39.1280   26.7890   44.7720 H   0  0  0  0  0  0  0  0  0  0  0  0
   42.0860   27.5000   43.3160 C   0  0  0  0  0  0  0  0  0  0  0  0
   41.9710   28.7490   43.5850 O   0  0  0  0  0  0  0  0  0  0  0  0
   40.9550   26.7620   42.8530 N   0  0  0  0  0  0  0  0  0  0  0  0
   41.0260   25.7540   42.5760 H   0  0  0  0  0  0  0  0  0  0  0  0
   43.3550   26.8340   43.4800 N   0  0  0  0  0  0  0  0  0  0  0  0
   43.8200   25.5330   42.9820 C   0  0  0  0  0  2  0  0  0  0  0  0
   45.1910   25.9280   42.4390 C   0  0  0  0  0  2  0  0  0  0  0  0
   45.6320   27.1020   43.2880 C   0  0  0  0  0  2  0  0  0  0  0  0
   44.4700   27.3780   44.2190 C   0  0  0  0  0  3  0  0  0  0  0  0
   44.3330   28.4590   44.4210 H   0  0  0  0  0  0  0  0  0  0  0  0
   40.8710   28.3090   39.5810 N   0  0  0  0  0  0  0  0  0  0  0  0
   40.1720   28.2120   40.4980 C   0  0  0  0  0  0  0  0  0  0  0  0
  1 25  1  0  0  0  0
  2  1  1  0  0  0  0
  3  4  1  0  0  0  0
  4  8  1  0  0  0  0
  4  9  1  0  0  0  0
  5 10  1  6  0  0  0
  5  1  1  0  0  0  0
  5  4  1  0  0  0  0
  6  7  1  0  0  0  0
  6 11  1  0  0  0  0
  6  5  1  0  0  0  0
  7 14  1  0  0  0  0
  7  3  1  0  0  0  0
 12  6  1  0  0  0  0
 13  7  1  0  0  0  0
 15 16  2  0  0  0  0
 15 20  1  0  0  0  0
 16 17  1  0  0  0  0
 17  3  1  0  0  0  0
 17 18  2  0  0  0  0
 19 18  1  0  0  0  0
 19 23  1  0  0  0  0
 20 19  2  0  0  0  0
 21 15  1  0  0  0  0
 22 16  1  0  0  0  0
 24 29  1  0  0  0  0
 25 24  2  0  0  0  0
 25 26  1  0  0  0  0
 26 27  2  0  0  0  0
 27 28  1  0  0  0  0
 27 31  1  0  0  0  0
 28 32  1  0  0  0  0
 29 35  1  0  0  0  0
 29 28  2  0  0  0  0
 30 26  1  0  0  0  0
 33 37  1  0  0  0  0
 33 34  2  0  0  0  0
 35 33  1  0  0  0  0
 36 35  1  0  0  0  0
 37 41  1  0  0  0  0
 38 37  1  0  0  0  0
 39 38  1  0  0  0  0
 39 40  1  0  0  0  0
 40 41  1  0  0  0  0
 41 42  1  0  0  0  0
 43 44  3  0  0  0  0
 44 24  1  0  0  0  0
M  END
>  <minimizedAffinity>
-5.78711462

$$$$
