
 OpenBabel03252508493D

 25 27  0  0  0  0  0  0  0  0999 V2000
   45.9770   34.1260   41.0560 C   0  0  0  0  0  0  0  0  0  0  0  0
   46.5450   34.8170   42.1470 C   0  0  0  0  0  0  0  0  0  0  0  0
   47.8680   35.2460   42.0080 C   0  0  0  0  0  0  0  0  0  0  0  0
   48.5200   34.9700   40.8330 N   0  0  0  0  0  0  0  0  0  0  0  0
   47.9380   34.3130   39.8320 C   0  0  0  0  0  0  0  0  0  0  0  0
   46.6630   33.8890   39.9410 N   0  0  0  0  0  0  0  0  0  0  0  0
   48.3330   35.7800   42.8290 H   0  0  0  0  0  0  0  0  0  0  0  0
   48.4470   34.0910   38.9020 H   0  0  0  0  0  0  0  0  0  0  0  0
   45.7620   35.0560   43.3460 C   0  0  0  0  0  0  0  0  0  0  0  0
   45.0440   36.2070   43.5670 C   0  0  0  0  0  0  0  0  0  0  0  0
   44.4730   35.9930   44.8070 C   0  0  0  0  0  0  0  0  0  0  0  0
   44.8240   34.7830   45.3070 N   0  0  0  0  0  0  0  0  0  0  0  0
   45.6030   34.2390   44.4030 N   0  0  0  0  0  0  0  0  0  0  0  0
   44.9260   37.0960   42.9440 H   0  0  0  0  0  0  0  0  0  0  0  0
   43.8180   36.7010   45.3320 H   0  0  0  0  0  0  0  0  0  0  0  0
   44.5040   34.4170   46.2360 H   0  0  0  0  0  0  0  0  0  0  0  0
   44.6750   33.7000   41.1830 O   0  0  0  0  0  0  0  0  0  0  0  0
   43.5750   34.2940   40.6210 C   0  0  0  0  0  0  0  0  0  0  0  0
   43.2830   35.5320   40.5720 O   0  0  0  0  0  0  0  0  0  0  0  0
   42.4180   33.8220   39.9290 N   0  0  0  0  0  0  0  0  0  0  0  0
   41.2490   33.4980   40.7240 C   0  0  0  0  0  2  0  0  0  0  0  0
   40.6100   32.4260   39.8370 C   0  0  0  0  0  2  0  0  0  0  0  0
   40.7210   33.1690   38.4990 C   0  0  0  0  0  2  0  0  0  0  0  0
   42.1720   33.5960   38.5380 C   0  0  0  0  0  3  0  0  0  0  0  0
   42.3850   34.4900   37.9130 H   0  0  0  0  0  0  0  0  0  0  0  0
  1 17  1  0  0  0  0
  1  2  1  0  0  0  0
  2  9  1  0  0  0  0
  3  2  2  0  0  0  0
  3  7  1  0  0  0  0
  4  3  1  0  0  0  0
  5  6  1  0  0  0  0
  5  4  2  0  0  0  0
  6  1  2  0  0  0  0
  8  5  1  0  0  0  0
  9 10  1  0  0  0  0
  9 13  2  0  0  0  0
 10 11  2  0  0  0  0
 11 12  1  0  0  0  0
 11 15  1  0  0  0  0
 12 16  1  0  0  0  0
 13 12  1  0  0  0  0
 14 10  1  0  0  0  0
 18 17  1  0  0  0  0
 19 18  2  0  0  0  0
 20 18  1  0  0  0  0
 20 21  1  0  0  0  0
 22 21  1  0  0  0  0
 23 24  1  0  0  0  0
 23 22  1  0  0  0  0
 24 20  1  0  0  0  0
 25 24  1  0  0  0  0
M  END
>  <minimizedAffinity>
-5.33354902

>  <minimizedRMSD>
0.431140572

$$$$
