
     RDKit          3D

 41 43  0  0  0  0  0  0  0  0999 V2000
   47.3155   32.6933   47.5163 O   0  0  0  0  0  0  0  0  0  0  0  0
   46.0066   32.3300   46.8711 P   0  0  2  0  0  0  0  0  0  0  0  0
   46.3055   31.2120   45.6330 O   0  0  0  0  0  0  0  0  0  0  0  0
   45.3256   33.7639   46.2358 O   0  0  0  0  0  0  0  0  0  0  0  0
   45.2152   35.8269   43.3341 C   0  0  0  0  0  0  0  0  0  0  0  0
   46.2720   35.3372   42.5120 C   0  0  0  0  0  0  0  0  0  0  0  0
   47.0217   34.2545   43.0213 C   0  0  0  0  0  0  0  0  0  0  0  0
   46.6908   33.7638   44.2352 N   0  0  0  0  0  0  0  0  0  0  0  0
   45.6781   34.2640   44.9766 C   0  0  0  0  0  0  0  0  0  0  0  0
   44.9487   35.2947   44.5149 N   0  0  0  0  0  0  0  0  0  0  0  0
   44.4916   36.8842   42.8271 O   0  0  0  0  0  0  0  0  0  0  0  0
   45.0321   31.6271   48.0224 O   0  0  0  0  0  0  0  0  0  0  0  0
   46.7789   29.9999   48.0697 C   0  0  2  0  0  0  0  0  0  0  0  0
   45.3316   30.2913   48.1560 C   0  0  2  0  0  0  0  0  0  0  0  0
   44.7460   29.4637   47.0682 C   0  0  0  0  0  0  0  0  0  0  0  0
   45.5435   28.3431   46.9167 O   0  0  0  0  0  0  0  0  0  0  0  0
   46.6759   28.5137   47.6432 C   0  0  0  0  0  0  0  0  0  0  0  0
   47.4688   30.1246   49.2425 O   0  0  0  0  0  0  0  0  0  0  0  0
   45.8254   31.4852   44.8119 H   0  0  0  0  0  0  0  0  0  0  0  0
   46.5155   35.7437   41.5511 H   0  0  0  0  0  0  0  0  0  0  0  0
   47.8397   33.8260   42.4588 H   0  0  0  0  0  0  0  0  0  0  0  0
   45.0480   37.6735   42.4631 H   0  0  0  0  0  0  0  0  0  0  0  0
   47.4531   30.3751   47.3597 H   0  0  0  0  0  0  0  0  0  0  0  0
   45.0307   29.9174   49.1731 H   0  0  0  0  0  0  0  0  0  0  0  0
   43.7849   29.0372   47.4918 H   0  0  0  0  0  0  0  0  0  0  0  0
   44.4072   29.9549   46.1633 H   0  0  0  0  0  0  0  0  0  0  0  0
   46.5258   27.9839   48.6265 H   0  0  0  0  0  0  0  0  0  0  0  0
   47.5977   28.1422   47.1998 H   0  0  0  0  0  0  0  0  0  0  0  0
   49.2091   32.5262   48.8424 H   0  0  0  0  0  0  0  0  0  0  0  0
   48.7281   31.9775   49.5864 N   0  0  0  0  0  0  0  0  0  0  0  0
   49.2375   32.2088   50.9015 C   0  0  0  0  0  0  0  0  0  0  0  0
   50.0277   30.9872   51.3034 C   0  0  0  0  0  0  0  0  0  0  0  0
   49.3767   29.8742   50.5195 C   0  0  0  0  0  0  0  0  0  0  0  0
   48.7097   30.5646   49.3220 C   0  0  1  0  0  0  0  0  0  0  0  0
   49.8791   33.0923   50.9337 H   0  0  0  0  0  0  0  0  0  0  0  0
   48.4103   32.3463   51.6488 H   0  0  0  0  0  0  0  0  0  0  0  0
   51.0984   31.1004   51.0923 H   0  0  0  0  0  0  0  0  0  0  0  0
   49.9111   30.8006   52.3874 H   0  0  0  0  0  0  0  0  0  0  0  0
   50.1481   29.1541   50.2178 H   0  0  0  0  0  0  0  0  0  0  0  0
   48.6321   29.3141   51.1354 H   0  0  0  0  0  0  0  0  0  0  0  0
   49.4009   30.3932   48.4868 H   0  0  0  0  0  0  0  0  0  0  0  0
  2  1  2  0
  2 12  1  1
  3  2  1  0
  4  2  1  0
  5 10  2  0
  6  7  2  0
  6  5  1  0
  7  8  1  0
  8  9  2  0
  9  4  1  0
 10  9  1  0
 11  5  1  0
 13 14  1  0
 13 18  1  0
 14 12  1  0
 15 14  1  0
 16 15  1  0
 16 17  1  0
 17 13  1  0
  3 19  1  0
  6 20  1  0
  7 21  1  0
 11 22  1  0
 13 23  1  6
 14 24  1  1
 15 25  1  0
 15 26  1  0
 17 27  1  0
 17 28  1  0
 29 30  1  0
 30 31  1  0
 31 32  1  0
 32 33  1  0
 33 34  1  0
 34 30  1  0
 31 35  1  0
 31 36  1  0
 32 37  1  0
 32 38  1  0
 33 39  1  0
 33 40  1  0
 34 41  1  6
 18 34  1  0
M  ISO  8  19   3  20  14  21  14  22   3  23  13  24  13  25  13  26  13
M  ISO  3  27  13  28  13  29   5
M  END
>  <DihAtoms>  (1) 
12,17,33,32

>  <DihDeg>  (1) 
-119.00342662024764

$$$$
