
 OpenBabel03242521573D

 45 49  0  0  1  0  0  0  0  0999 V2000
   36.6240   26.9240   39.8740 C   0  0  0  0  0  0  0  0  0  0  0  0
   36.6400   25.5310   39.8600 C   0  0  0  0  0  0  0  0  0  0  0  0
   36.8830   24.7600   41.0040 C   0  0  0  0  0  0  0  0  0  0  0  0
   37.1210   25.3600   42.2090 C   0  0  0  0  0  0  0  0  0  0  0  0
   37.1170   26.7670   42.2500 C   0  0  0  0  0  0  0  0  0  0  0  0
   37.4070   27.3270   43.4540 C   0  0  0  0  0  0  0  0  0  0  0  0
   37.4830   28.7200   43.5140 C   0  0  0  0  0  0  0  0  0  0  0  0
   37.2600   29.4730   42.3080 C   0  0  0  0  0  0  0  0  0  0  0  0
   36.9770   28.7570   41.1670 C   0  0  0  0  0  0  0  0  0  0  0  0
   36.8710   27.4420   41.0530 C   0  0  0  0  0  0  0  0  0  0  0  0
   36.4490   25.0340   38.8940 H   0  0  0  0  0  0  0  0  0  0  0  0
   36.8660   23.6870   40.8380 H   0  0  0  0  0  0  0  0  0  0  0  0
   37.2990   24.7330   43.0730 H   0  0  0  0  0  0  0  0  0  0  0  0
   37.5730   26.7110   44.3300 H   0  0  0  0  0  0  0  0  0  0  0  0
   37.7100   29.0910   44.5000 H   0  0  0  0  0  0  0  0  0  0  0  0
   37.3790   30.4900   42.6500 H   0  0  0  0  0  0  0  0  0  0  0  0
   38.6750   29.9340   40.0840 C   0  0  0  0  0  0  0  0  0  0  0  0
   37.2450   29.8930   40.3090 C   0  0  0  0  0  0  0  0  0  0  0  0
   36.6580   30.9690   39.7910 C   0  0  0  0  0  0  0  0  0  0  0  0
   37.2970   31.9970   39.1290 C   0  0  0  0  0  0  0  0  0  0  0  0
   38.6510   32.0140   38.9330 C   0  0  0  0  0  0  0  0  0  0  0  0
   39.3420   30.9480   39.4300 C   0  0  0  0  0  0  0  0  0  0  0  0
   35.5810   30.8490   40.0050 H   0  0  0  0  0  0  0  0  0  0  0  0
   36.5890   32.7630   38.8000 H   0  0  0  0  0  0  0  0  0  0  0  0
   38.9520   32.8970   38.4000 H   0  0  0  0  0  0  0  0  0  0  0  0
   39.6200   28.9520   40.4890 O   0  0  0  0  0  0  0  0  0  0  0  0
   40.2180   29.1350   41.3010 H   0  0  0  0  0  0  0  0  0  0  0  0
   40.7020   31.0220   39.2110 O   0  0  0  0  0  0  0  0  0  0  0  0
   40.1130   29.9930   36.9780 H   0  0  0  0  0  0  0  0  0  0  0  0
   40.7570   29.3500   37.5290 N   0  0  0  0  0  0  0  0  0  0  0  0
   41.7930   28.9950   36.5470 C   0  0  0  0  0  2  0  0  0  0  0  0
   42.5790   30.2480   36.3070 C   0  0  0  0  0  2  0  0  0  0  0  0
   42.0190   31.2230   37.2980 C   0  0  0  0  0  2  0  0  0  0  0  0
   41.5070   30.2760   38.3980 C   0  0  1  0  0  3  0  0  0  0  0  0
   34.7660   28.9430   37.3440 C   0  0  0  0  0  0  0  0  0  0  0  0
   35.7960   29.1530   36.3970 C   0  0  0  0  0  0  0  0  0  0  0  0
   37.0140   28.5740   36.6860 C   0  0  0  0  0  0  0  0  0  0  0  0
   37.0640   27.8900   37.8260 N   0  0  0  0  0  0  0  0  0  0  0  0
   36.1200   27.6740   38.7360 C   0  0  0  0  0  0  0  0  0  0  0  0
   34.9790   28.2220   38.4480 N   0  0  0  0  0  0  0  0  0  0  0  0
   33.8080   29.3970   37.1160 H   0  0  0  0  0  0  0  0  0  0  0  0
   35.6540   29.7260   35.5060 H   0  0  0  0  0  0  0  0  0  0  0  0
   38.1190   28.6500   35.8010 N   0  0  0  0  0  0  0  0  0  0  0  0
   38.2970   27.7580   35.2890 H   0  0  0  0  0  0  0  0  0  0  0  0
   38.6510   29.5350   35.7210 H   0  0  0  0  0  0  0  0  0  0  0  0
  1 10  1  0  0  0  0
  2  1  2  0  0  0  0
  2  3  1  0  0  0  0
  3  4  2  0  0  0  0
  4  5  1  0  0  0  0
  4 13  1  0  0  0  0
  5  6  1  0  0  0  0
  6  7  2  0  0  0  0
  6 14  1  0  0  0  0
  7 15  1  0  0  0  0
  8 16  1  0  0  0  0
  8  7  1  0  0  0  0
  9  8  2  0  0  0  0
 10  9  1  0  0  0  0
 10  5  2  0  0  0  0
 11  2  1  0  0  0  0
 12  3  1  0  0  0  0
 17 18  1  0  0  0  0
 17 26  1  0  0  0  0
 18  9  1  0  0  0  0
 19 23  1  0  0  0  0
 19 18  2  0  0  0  0
 20 19  1  0  0  0  0
 21 20  2  0  0  0  0
 21 22  1  0  0  0  0
 22 17  2  0  0  0  0
 24 20  1  0  0  0  0
 25 21  1  0  0  0  0
 26 27  1  0  0  0  0
 28 22  1  0  0  0  0
 29 30  1  0  0  0  0
 30 34  1  0  0  0  0
 31 30  1  0  0  0  0
 32 31  1  0  0  0  0
 32 33  1  0  0  0  0
 33 34  1  0  0  0  0
 34 28  1  1  0  0  0
 35 40  1  0  0  0  0
 36 37  1  0  0  0  0
 36 35  2  0  0  0  0
 37 38  2  0  0  0  0
 38 39  1  0  0  0  0
 39  1  1  0  0  0  0
 40 39  2  0  0  0  0
 41 35  1  0  0  0  0
 42 36  1  0  0  0  0
 43 37  1  0  0  0  0
 44 43  1  0  0  0  0
 45 43  1  0  0  0  0
M  END
>  <minimizedAffinity>
-7.02079439

$$$$

 OpenBabel03242521573D

 45 49  0  0  1  0  0  0  0  0999 V2000
   36.7410   27.0420   39.7780 C   0  0  0  0  0  0  0  0  0  0  0  0
   36.7560   25.6490   39.7930 C   0  0  0  0  0  0  0  0  0  0  0  0
   36.9580   24.9010   40.9600 C   0  0  0  0  0  0  0  0  0  0  0  0
   37.1540   25.5250   42.1600 C   0  0  0  0  0  0  0  0  0  0  0  0
   37.1510   26.9320   42.1730 C   0  0  0  0  0  0  0  0  0  0  0  0
   37.3990   27.5170   43.3740 C   0  0  0  0  0  0  0  0  0  0  0  0
   37.4740   28.9110   43.4080 C   0  0  0  0  0  0  0  0  0  0  0  0
   37.2940   29.6390   42.1800 C   0  0  0  0  0  0  0  0  0  0  0  0
   37.0500   28.9000   41.0450 C   0  0  0  0  0  0  0  0  0  0  0  0
   36.9470   27.5840   40.9540 C   0  0  0  0  0  0  0  0  0  0  0  0
   36.5990   25.1320   38.8300 H   0  0  0  0  0  0  0  0  0  0  0  0
   36.9450   23.8250   40.8150 H   0  0  0  0  0  0  0  0  0  0  0  0
   37.3010   24.9160   43.0420 H   0  0  0  0  0  0  0  0  0  0  0  0
   37.5330   26.9190   44.2680 H   0  0  0  0  0  0  0  0  0  0  0  0
   37.6670   29.3020   44.3940 H   0  0  0  0  0  0  0  0  0  0  0  0
   37.4030   30.6630   42.5050 H   0  0  0  0  0  0  0  0  0  0  0  0
   38.7750   29.9950   39.9190 C   0  0  0  0  0  0  0  0  0  0  0  0
   37.3490   30.0190   40.1740 C   0  0  0  0  0  0  0  0  0  0  0  0
   36.8000   31.1160   39.6610 C   0  0  0  0  0  0  0  0  0  0  0  0
   37.4680   32.1120   38.9790 C   0  0  0  0  0  0  0  0  0  0  0  0
   38.8170   32.0680   38.7540 C   0  0  0  0  0  0  0  0  0  0  0  0
   39.4710   30.9750   39.2430 C   0  0  0  0  0  0  0  0  0  0  0  0
   35.7240   31.0450   39.8990 H   0  0  0  0  0  0  0  0  0  0  0  0
   36.7880   32.9060   38.6600 H   0  0  0  0  0  0  0  0  0  0  0  0
   39.1450   32.9330   38.2090 H   0  0  0  0  0  0  0  0  0  0  0  0
   39.6850   28.9750   40.3090 O   0  0  0  0  0  0  0  0  0  0  0  0
   40.3080   29.1360   41.1080 H   0  0  0  0  0  0  0  0  0  0  0  0
   40.8290   30.9880   38.9950 O   0  0  0  0  0  0  0  0  0  0  0  0
   43.2950   30.6160   38.5820 H   0  0  0  0  0  0  0  0  0  0  0  0
   42.9390   31.4370   38.0080 N   0  0  0  0  0  0  0  0  0  0  0  0
   43.4600   31.1560   36.6620 C   0  0  0  0  0  2  0  0  0  0  0  0
   42.7030   29.9590   36.1700 C   0  0  0  0  0  2  0  0  0  0  0  0
   41.6750   29.7180   37.2330 C   0  0  0  0  0  2  0  0  0  0  0  0
   41.5090   31.1320   37.8190 C   0  0  1  0  0  3  0  0  0  0  0  0
   36.1770   28.7540   36.5090 C   0  0  0  0  0  0  0  0  0  0  0  0
   34.7940   29.0330   36.6180 C   0  0  0  0  0  0  0  0  0  0  0  0
   34.1850   28.6420   37.7920 C   0  0  0  0  0  0  0  0  0  0  0  0
   34.9810   28.0470   38.6760 N   0  0  0  0  0  0  0  0  0  0  0  0
   36.2780   27.7680   38.6070 C   0  0  0  0  0  0  0  0  0  0  0  0
   36.8380   28.1450   37.4980 N   0  0  0  0  0  0  0  0  0  0  0  0
   36.6550   29.0620   35.5870 H   0  0  0  0  0  0  0  0  0  0  0  0
   34.2400   29.5180   35.8420 H   0  0  0  0  0  0  0  0  0  0  0  0
   32.8190   28.9100   38.0640 N   0  0  0  0  0  0  0  0  0  0  0  0
   32.6820   29.6850   38.7500 H   0  0  0  0  0  0  0  0  0  0  0  0
   32.0850   28.3530   37.5930 H   0  0  0  0  0  0  0  0  0  0  0  0
  1  2  2  0  0  0  0
  1 10  1  0  0  0  0
  2  3  1  0  0  0  0
  3  4  2  0  0  0  0
  4  5  1  0  0  0  0
  4 13  1  0  0  0  0
  5  6  1  0  0  0  0
  6  7  2  0  0  0  0
  6 14  1  0  0  0  0
  7 15  1  0  0  0  0
  8 16  1  0  0  0  0
  8  7  1  0  0  0  0
  9  8  2  0  0  0  0
 10  9  1  0  0  0  0
 10  5  2  0  0  0  0
 11  2  1  0  0  0  0
 12  3  1  0  0  0  0
 17 18  1  0  0  0  0
 17 26  1  0  0  0  0
 18  9  1  0  0  0  0
 19 23  1  0  0  0  0
 19 18  2  0  0  0  0
 20 19  1  0  0  0  0
 21 20  2  0  0  0  0
 21 22  1  0  0  0  0
 22 17  2  0  0  0  0
 24 20  1  0  0  0  0
 25 21  1  0  0  0  0
 26 27  1  0  0  0  0
 28 22  1  0  0  0  0
 30 29  1  0  0  0  0
 31 30  1  0  0  0  0
 32 31  1  0  0  0  0
 32 33  1  0  0  0  0
 33 34  1  0  0  0  0
 34 30  1  0  0  0  0
 34 28  1  1  0  0  0
 35 36  2  0  0  0  0
 35 40  1  0  0  0  0
 36 37  1  0  0  0  0
 37 43  1  0  0  0  0
 37 38  2  0  0  0  0
 39 38  1  0  0  0  0
 39  1  1  0  0  0  0
 40 39  2  0  0  0  0
 41 35  1  0  0  0  0
 42 36  1  0  0  0  0
 43 44  1  0  0  0  0
 45 43  1  0  0  0  0
M  END
>  <minimizedAffinity>
-6.87632561

$$$$

 OpenBabel03242521573D

 45 49  0  0  1  0  0  0  0  0999 V2000
   36.2830   26.3910   38.7090 C   0  0  0  0  0  0  0  0  0  0  0  0
   36.2750   25.0010   38.6230 C   0  0  0  0  0  0  0  0  0  0  0  0
   35.3360   24.2880   37.8670 C   0  0  0  0  0  0  0  0  0  0  0  0
   34.3650   24.9470   37.1640 C   0  0  0  0  0  0  0  0  0  0  0  0
   34.3460   26.3530   37.2390 C   0  0  0  0  0  0  0  0  0  0  0  0
   33.3370   26.9700   36.5690 C   0  0  0  0  0  0  0  0  0  0  0  0
   33.2460   28.3580   36.6810 C   0  0  0  0  0  0  0  0  0  0  0  0
   34.2110   29.0480   37.4960 C   0  0  0  0  0  0  0  0  0  0  0  0
   35.1720   28.2780   38.1110 C   0  0  0  0  0  0  0  0  0  0  0  0
   35.3230   26.9660   38.0270 C   0  0  0  0  0  0  0  0  0  0  0  0
   37.0540   24.4560   39.1850 H   0  0  0  0  0  0  0  0  0  0  0  0
   35.4550   23.2090   37.8970 H   0  0  0  0  0  0  0  0  0  0  0  0
   33.6600   24.3650   36.5860 H   0  0  0  0  0  0  0  0  0  0  0  0
   32.6330   26.4000   35.9740 H   0  0  0  0  0  0  0  0  0  0  0  0
   32.4260   28.7770   36.1190 H   0  0  0  0  0  0  0  0  0  0  0  0
   33.8990   30.0770   37.3960 H   0  0  0  0  0  0  0  0  0  0  0  0
   36.5050   30.1800   38.3300 C   0  0  0  0  0  0  0  0  0  0  0  0
   35.5400   29.3470   39.0170 C   0  0  0  0  0  0  0  0  0  0  0  0
   35.4080   29.7320   40.2840 C   0  0  0  0  0  0  0  0  0  0  0  0
   36.0840   30.7720   40.8870 C   0  0  0  0  0  0  0  0  0  0  0  0
   36.9950   31.5420   40.2170 C   0  0  0  0  0  0  0  0  0  0  0  0
   37.1990   31.2240   38.9060 C   0  0  0  0  0  0  0  0  0  0  0  0
   34.6570   29.0510   40.7220 H   0  0  0  0  0  0  0  0  0  0  0  0
   35.7960   30.8830   41.9360 H   0  0  0  0  0  0  0  0  0  0  0  0
   37.4100   32.2950   40.8600 H   0  0  0  0  0  0  0  0  0  0  0  0
   36.8960   30.0700   36.9670 O   0  0  0  0  0  0  0  0  0  0  0  0
   37.8010   29.6470   36.7360 H   0  0  0  0  0  0  0  0  0  0  0  0
   38.1330   32.0270   38.2820 O   0  0  0  0  0  0  0  0  0  0  0  0
   39.7220   33.3570   36.8350 H   0  0  0  0  0  0  0  0  0  0  0  0
   40.0370   32.3440   36.9030 N   0  0  0  0  0  0  0  0  0  0  0  0
   41.4650   32.4590   37.2340 C   0  0  0  0  0  2  0  0  0  0  0  0
   41.5220   32.9960   38.6320 C   0  0  0  0  0  2  0  0  0  0  0  0
   40.0890   33.0180   39.0710 C   0  0  0  0  0  2  0  0  0  0  0  0
   39.4900   31.9000   38.1990 C   0  0  1  0  0  3  0  0  0  0  0  0
   39.3190   28.3950   39.5460 C   0  0  0  0  0  0  0  0  0  0  0  0
   39.2310   28.3900   40.9580 C   0  0  0  0  0  0  0  0  0  0  0  0
   38.1720   27.6900   41.4990 C   0  0  0  0  0  0  0  0  0  0  0  0
   37.3630   27.1090   40.6170 N   0  0  0  0  0  0  0  0  0  0  0  0
   37.4150   27.0940   39.2890 C   0  0  0  0  0  0  0  0  0  0  0  0
   38.4180   27.7540   38.7950 N   0  0  0  0  0  0  0  0  0  0  0  0
   40.1510   28.9440   39.1220 H   0  0  0  0  0  0  0  0  0  0  0  0
   39.9360   28.8950   41.5830 H   0  0  0  0  0  0  0  0  0  0  0  0
   37.9920   27.5480   42.8980 N   0  0  0  0  0  0  0  0  0  0  0  0
   38.2460   26.5990   43.2500 H   0  0  0  0  0  0  0  0  0  0  0  0
   37.6400   28.3490   43.4520 H   0  0  0  0  0  0  0  0  0  0  0  0
  1 39  1  0  0  0  0
  2  1  1  0  0  0  0
  2 11  1  0  0  0  0
  3 12  1  0  0  0  0
  3  2  2  0  0  0  0
  4  5  2  0  0  0  0
  4  3  1  0  0  0  0
  5 10  1  0  0  0  0
  6  7  2  0  0  0  0
  6  5  1  0  0  0  0
  7  8  1  0  0  0  0
  8  9  2  0  0  0  0
  9 18  1  0  0  0  0
 10  9  1  0  0  0  0
 10  1  2  0  0  0  0
 13  4  1  0  0  0  0
 14  6  1  0  0  0  0
 15  7  1  0  0  0  0
 16  8  1  0  0  0  0
 17 22  2  0  0  0  0
 17 18  1  0  0  0  0
 18 19  2  0  0  0  0
 19 23  1  0  0  0  0
 19 20  1  0  0  0  0
 20 24  1  0  0  0  0
 21 25  1  0  0  0  0
 21 20  2  0  0  0  0
 22 21  1  0  0  0  0
 26 17  1  0  0  0  0
 27 26  1  0  0  0  0
 28 22  1  0  0  0  0
 29 30  1  0  0  0  0
 30 31  1  0  0  0  0
 30 34  1  0  0  0  0
 31 32  1  0  0  0  0
 32 33  1  0  0  0  0
 34 28  1  6  0  0  0
 34 33  1  0  0  0  0
 35 36  1  0  0  0  0
 36 37  2  0  0  0  0
 36 42  1  0  0  0  0
 37 43  1  0  0  0  0
 38 37  1  0  0  0  0
 39 38  2  0  0  0  0
 40 39  1  0  0  0  0
 40 35  2  0  0  0  0
 41 35  1  0  0  0  0
 43 44  1  0  0  0  0
 43 45  1  0  0  0  0
M  END
>  <minimizedAffinity>
-6.82913637

$$$$

 OpenBabel03242521573D

 45 49  0  0  1  0  0  0  0  0999 V2000
   38.1020   31.4760   40.6290 C   0  0  0  0  0  0  0  0  0  0  0  0
   38.0370   32.7470   40.0640 C   0  0  0  0  0  0  0  0  0  0  0  0
   39.1120   33.6450   40.0820 C   0  0  0  0  0  0  0  0  0  0  0  0
   40.2970   33.2990   40.6690 C   0  0  0  0  0  0  0  0  0  0  0  0
   40.3880   32.0230   41.2550 C   0  0  0  0  0  0  0  0  0  0  0  0
   41.5630   31.7340   41.8740 C   0  0  0  0  0  0  0  0  0  0  0  0
   41.6610   30.5040   42.5260 C   0  0  0  0  0  0  0  0  0  0  0  0
   40.5210   29.6260   42.5130 C   0  0  0  0  0  0  0  0  0  0  0  0
   39.4020   30.0640   41.8420 C   0  0  0  0  0  0  0  0  0  0  0  0
   39.2560   31.2060   41.1890 C   0  0  0  0  0  0  0  0  0  0  0  0
   37.0860   33.0390   39.5860 H   0  0  0  0  0  0  0  0  0  0  0  0
   38.9120   34.5990   39.6030 H   0  0  0  0  0  0  0  0  0  0  0  0
   41.1080   34.0160   40.6590 H   0  0  0  0  0  0  0  0  0  0  0  0
   42.3880   32.4370   41.8580 H   0  0  0  0  0  0  0  0  0  0  0  0
   42.6220   30.3430   42.9880 H   0  0  0  0  0  0  0  0  0  0  0  0
   40.8800   28.7790   43.0790 H   0  0  0  0  0  0  0  0  0  0  0  0
   38.5330   27.9140   41.5920 C   0  0  0  0  0  0  0  0  0  0  0  0
   38.5570   29.0670   42.4680 C   0  0  0  0  0  0  0  0  0  0  0  0
   37.7020   28.9090   43.4750 C   0  0  0  0  0  0  0  0  0  0  0  0
   36.8900   27.8120   43.6800 C   0  0  0  0  0  0  0  0  0  0  0  0
   36.8830   26.7370   42.8350 C   0  0  0  0  0  0  0  0  0  0  0  0
   37.7320   26.8060   41.7690 C   0  0  0  0  0  0  0  0  0  0  0  0
   37.7910   29.8250   44.0840 H   0  0  0  0  0  0  0  0  0  0  0  0
   36.2790   27.9280   44.5790 H   0  0  0  0  0  0  0  0  0  0  0  0
   36.1840   25.9910   43.1660 H   0  0  0  0  0  0  0  0  0  0  0  0
   39.3200   27.7260   40.4230 O   0  0  0  0  0  0  0  0  0  0  0  0
   38.8860   27.8450   39.5010 H   0  0  0  0  0  0  0  0  0  0  0  0
   37.6770   25.6980   40.9480 O   0  0  0  0  0  0  0  0  0  0  0  0
   37.9360   24.5240   38.7230 H   0  0  0  0  0  0  0  0  0  0  0  0
   37.1100   25.1940   38.7000 N   0  0  0  0  0  0  0  0  0  0  0  0
   36.0300   24.3730   38.1320 C   0  0  0  0  0  2  0  0  0  0  0  0
   35.6960   23.3540   39.1790 C   0  0  0  0  0  2  0  0  0  0  0  0
   36.5260   23.7590   40.3590 C   0  0  0  0  0  2  0  0  0  0  0  0
   36.6870   25.2690   40.1100 C   0  0  1  0  0  3  0  0  0  0  0  0
   35.0920   29.2740   40.4640 C   0  0  0  0  0  0  0  0  0  0  0  0
   35.3860   28.5500   39.2850 C   0  0  0  0  0  0  0  0  0  0  0  0
   36.5830   28.8510   38.6690 C   0  0  0  0  0  0  0  0  0  0  0  0
   37.3100   29.7920   39.2650 N   0  0  0  0  0  0  0  0  0  0  0  0
   37.0650   30.4920   40.3680 C   0  0  0  0  0  0  0  0  0  0  0  0
   35.9370   30.1940   40.9390 N   0  0  0  0  0  0  0  0  0  0  0  0
   34.1530   29.0360   40.9490 H   0  0  0  0  0  0  0  0  0  0  0  0
   34.7280   27.8090   38.8830 H   0  0  0  0  0  0  0  0  0  0  0  0
   37.0360   28.1640   37.5140 N   0  0  0  0  0  0  0  0  0  0  0  0
   37.8010   27.4830   37.7160 H   0  0  0  0  0  0  0  0  0  0  0  0
   36.6050   28.3680   36.5960 H   0  0  0  0  0  0  0  0  0  0  0  0
  1 10  1  0  0  0  0
  2  3  1  0  0  0  0
  2  1  2  0  0  0  0
  3  4  2  0  0  0  0
  4  5  1  0  0  0  0
  5  6  1  0  0  0  0
  6  7  2  0  0  0  0
  7 15  1  0  0  0  0
  8  7  1  0  0  0  0
  8 16  1  0  0  0  0
  9 18  1  0  0  0  0
  9  8  2  0  0  0  0
 10  5  2  0  0  0  0
 10  9  1  0  0  0  0
 11  2  1  0  0  0  0
 12  3  1  0  0  0  0
 13  4  1  0  0  0  0
 14  6  1  0  0  0  0
 17 22  2  0  0  0  0
 17 18  1  0  0  0  0
 18 19  2  0  0  0  0
 19 20  1  0  0  0  0
 19 23  1  0  0  0  0
 20 24  1  0  0  0  0
 21 25  1  0  0  0  0
 21 20  2  0  0  0  0
 22 21  1  0  0  0  0
 26 17  1  0  0  0  0
 27 26  1  0  0  0  0
 28 22  1  0  0  0  0
 30 29  1  0  0  0  0
 30 34  1  0  0  0  0
 31 30  1  0  0  0  0
 31 32  1  0  0  0  0
 32 33  1  0  0  0  0
 34 33  1  0  0  0  0
 34 28  1  1  0  0  0
 35 40  1  0  0  0  0
 35 41  1  0  0  0  0
 36 35  2  0  0  0  0
 37 38  2  0  0  0  0
 37 36  1  0  0  0  0
 38 39  1  0  0  0  0
 39  1  1  0  0  0  0
 39 40  2  0  0  0  0
 42 36  1  0  0  0  0
 43 44  1  0  0  0  0
 43 37  1  0  0  0  0
 45 43  1  0  0  0  0
M  END
>  <minimizedAffinity>
-6.74403334

$$$$

 OpenBabel03242521573D

 45 49  0  0  1  0  0  0  0  0999 V2000
   37.4230   27.3100   38.9290 C   0  0  0  0  0  0  0  0  0  0  0  0
   37.1440   27.3170   37.5650 C   0  0  0  0  0  0  0  0  0  0  0  0
   36.5030   26.2560   36.9120 C   0  0  0  0  0  0  0  0  0  0  0  0
   36.1160   25.1430   37.6080 C   0  0  0  0  0  0  0  0  0  0  0  0
   36.3920   25.1070   38.9870 C   0  0  0  0  0  0  0  0  0  0  0  0
   36.0390   23.9660   39.6350 C   0  0  0  0  0  0  0  0  0  0  0  0
   36.3640   23.8680   40.9890 C   0  0  0  0  0  0  0  0  0  0  0  0
   37.0530   24.9660   41.6120 C   0  0  0  0  0  0  0  0  0  0  0  0
   37.3410   26.0540   40.8190 C   0  0  0  0  0  0  0  0  0  0  0  0
   37.0420   26.2140   39.5400 C   0  0  0  0  0  0  0  0  0  0  0  0
   37.4500   28.2080   36.9920 H   0  0  0  0  0  0  0  0  0  0  0  0
   36.3540   26.4040   35.8470 H   0  0  0  0  0  0  0  0  0  0  0  0
   35.6180   24.3460   37.0720 H   0  0  0  0  0  0  0  0  0  0  0  0
   35.5270   23.1660   39.1130 H   0  0  0  0  0  0  0  0  0  0  0  0
   36.0480   22.9390   41.4350 H   0  0  0  0  0  0  0  0  0  0  0  0
   37.1670   24.6170   42.6270 H   0  0  0  0  0  0  0  0  0  0  0  0
   39.5700   25.9480   41.5000 C   0  0  0  0  0  0  0  0  0  0  0  0
   38.2960   26.5790   41.7740 C   0  0  0  0  0  0  0  0  0  0  0  0
   38.3660   27.3140   42.8810 C   0  0  0  0  0  0  0  0  0  0  0  0
   39.4810   27.4700   43.6790 C   0  0  0  0  0  0  0  0  0  0  0  0
   40.6720   26.8580   43.4000 C   0  0  0  0  0  0  0  0  0  0  0  0
   40.7000   26.0810   42.2790 C   0  0  0  0  0  0  0  0  0  0  0  0
   37.3610   27.7550   43.0060 H   0  0  0  0  0  0  0  0  0  0  0  0
   39.2770   28.1250   44.5290 H   0  0  0  0  0  0  0  0  0  0  0  0
   41.4130   27.1040   44.1380 H   0  0  0  0  0  0  0  0  0  0  0  0
   39.8720   25.0990   40.4000 O   0  0  0  0  0  0  0  0  0  0  0  0
   39.9350   24.0870   40.5490 H   0  0  0  0  0  0  0  0  0  0  0  0
   41.9240   25.4840   42.0520 O   0  0  0  0  0  0  0  0  0  0  0  0
   43.7100   23.8850   42.8550 H   0  0  0  0  0  0  0  0  0  0  0  0
   43.6980   24.7640   43.4530 N   0  0  0  0  0  0  0  0  0  0  0  0
   45.1150   25.1540   43.5010 C   0  0  0  0  0  2  0  0  0  0  0  0
   45.4630   25.6100   42.1160 C   0  0  0  0  0  2  0  0  0  0  0  0
   44.1550   25.5870   41.3860 C   0  0  0  0  0  2  0  0  0  0  0  0
   43.1600   25.7930   42.5430 C   0  0  1  0  0  3  0  0  0  0  0  0
   39.1460   30.2800   40.3920 C   0  0  0  0  0  0  0  0  0  0  0  0
   38.0290   30.9820   40.9010 C   0  0  0  0  0  0  0  0  0  0  0  0
   36.8010   30.3790   40.7280 C   0  0  0  0  0  0  0  0  0  0  0  0
   36.8260   29.2070   40.0980 N   0  0  0  0  0  0  0  0  0  0  0  0
   37.8530   28.5210   39.6070 C   0  0  0  0  0  0  0  0  0  0  0  0
   39.0020   29.1010   39.7810 N   0  0  0  0  0  0  0  0  0  0  0  0
   40.1110   30.7540   40.5300 H   0  0  0  0  0  0  0  0  0  0  0  0
   38.1150   31.9270   41.3940 H   0  0  0  0  0  0  0  0  0  0  0  0
   35.6010   30.9370   41.2390 N   0  0  0  0  0  0  0  0  0  0  0  0
   35.2480   30.4420   42.0870 H   0  0  0  0  0  0  0  0  0  0  0  0
   35.1760   31.7530   40.7660 H   0  0  0  0  0  0  0  0  0  0  0  0
  1 10  1  0  0  0  0
  1 39  1  0  0  0  0
  2  1  2  0  0  0  0
  3  2  1  0  0  0  0
  3  4  2  0  0  0  0
  4  5  1  0  0  0  0
  5 10  2  0  0  0  0
  5  6  1  0  0  0  0
  6  7  2  0  0  0  0
  7 15  1  0  0  0  0
  7  8  1  0  0  0  0
  8 16  1  0  0  0  0
  9  8  2  0  0  0  0
  9 18  1  0  0  0  0
 10  9  1  0  0  0  0
 11  2  1  0  0  0  0
 12  3  1  0  0  0  0
 13  4  1  0  0  0  0
 14  6  1  0  0  0  0
 17 18  2  0  0  0  0
 17 22  1  0  0  0  0
 18 19  1  0  0  0  0
 19 23  1  0  0  0  0
 19 20  2  0  0  0  0
 20 24  1  0  0  0  0
 21 20  1  0  0  0  0
 21 25  1  0  0  0  0
 22 21  2  0  0  0  0
 26 27  1  0  0  0  0
 26 17  1  0  0  0  0
 28 22  1  0  0  0  0
 29 30  1  0  0  0  0
 30 31  1  0  0  0  0
 32 31  1  0  0  0  0
 33 32  1  0  0  0  0
 33 34  1  0  0  0  0
 34 28  1  6  0  0  0
 34 30  1  0  0  0  0
 35 41  1  0  0  0  0
 35 36  1  0  0  0  0
 36 42  1  0  0  0  0
 37 36  2  0  0  0  0
 37 43  1  0  0  0  0
 38 37  1  0  0  0  0
 39 40  1  0  0  0  0
 39 38  2  0  0  0  0
 40 35  2  0  0  0  0
 43 44  1  0  0  0  0
 45 43  1  0  0  0  0
M  END
>  <minimizedAffinity>
-6.71432734

$$$$

 OpenBabel03242521573D

 45 49  0  0  1  0  0  0  0  0999 V2000
   36.8300   27.0720   39.8180 C   0  0  0  0  0  0  0  0  0  0  0  0
   36.9030   25.6830   39.7420 C   0  0  0  0  0  0  0  0  0  0  0  0
   37.0940   24.8670   40.8650 C   0  0  0  0  0  0  0  0  0  0  0  0
   37.2180   25.4170   42.1110 C   0  0  0  0  0  0  0  0  0  0  0  0
   37.1550   26.8190   42.2150 C   0  0  0  0  0  0  0  0  0  0  0  0
   37.3330   27.3310   43.4610 C   0  0  0  0  0  0  0  0  0  0  0  0
   37.3480   28.7210   43.5890 C   0  0  0  0  0  0  0  0  0  0  0  0
   37.1830   29.5220   42.4050 C   0  0  0  0  0  0  0  0  0  0  0  0
   37.0130   28.8520   41.2150 C   0  0  0  0  0  0  0  0  0  0  0  0
   36.9690   27.5410   41.0340 C   0  0  0  0  0  0  0  0  0  0  0  0
   36.8030   25.2260   38.7430 H   0  0  0  0  0  0  0  0  0  0  0  0
   37.1320   23.8030   40.6500 H   0  0  0  0  0  0  0  0  0  0  0  0
   37.3580   24.7560   42.9560 H   0  0  0  0  0  0  0  0  0  0  0  0
   37.4600   26.6800   44.3180 H   0  0  0  0  0  0  0  0  0  0  0  0
   37.4880   29.0530   44.6050 H   0  0  0  0  0  0  0  0  0  0  0  0
   37.2360   30.5260   42.8000 H   0  0  0  0  0  0  0  0  0  0  0  0
   38.7350   30.1320   40.3010 C   0  0  0  0  0  0  0  0  0  0  0  0
   37.2960   30.0370   40.4320 C   0  0  0  0  0  0  0  0  0  0  0  0
   36.7080   31.1190   39.9290 C   0  0  0  0  0  0  0  0  0  0  0  0
   37.3520   32.1980   39.3600 C   0  0  0  0  0  0  0  0  0  0  0  0
   38.7140   32.2660   39.2520 C   0  0  0  0  0  0  0  0  0  0  0  0
   39.4080   31.1970   39.7410 C   0  0  0  0  0  0  0  0  0  0  0  0
   35.6240   30.9570   40.0670 H   0  0  0  0  0  0  0  0  0  0  0  0
   36.6420   32.9580   39.0230 H   0  0  0  0  0  0  0  0  0  0  0  0
   39.0190   33.1830   38.7830 H   0  0  0  0  0  0  0  0  0  0  0  0
   39.6860   29.1610   40.7180 O   0  0  0  0  0  0  0  0  0  0  0  0
   40.2250   29.3200   41.5750 H   0  0  0  0  0  0  0  0  0  0  0  0
   40.7770   31.3230   39.6130 O   0  0  0  0  0  0  0  0  0  0  0  0
   41.4810   30.7650   41.9760 H   0  0  0  0  0  0  0  0  0  0  0  0
   41.4330   31.8180   41.8390 N   0  0  0  0  0  0  0  0  0  0  0  0
   42.7120   32.2860   42.3910 C   0  0  0  0  0  2  0  0  0  0  0  0
   43.7700   31.8020   41.4460 C   0  0  0  0  0  2  0  0  0  0  0  0
   42.9960   31.1990   40.3130 C   0  0  0  0  0  2  0  0  0  0  0  0
   41.6770   31.9890   40.3940 C   0  0  1  0  0  3  0  0  0  0  0  0
   36.3180   28.9840   36.6540 C   0  0  0  0  0  0  0  0  0  0  0  0
   34.9180   29.1820   36.7140 C   0  0  0  0  0  0  0  0  0  0  0  0
   34.2800   28.6750   37.8260 C   0  0  0  0  0  0  0  0  0  0  0  0
   35.0670   28.0600   38.7050 N   0  0  0  0  0  0  0  0  0  0  0  0
   36.3800   27.8560   38.6800 C   0  0  0  0  0  0  0  0  0  0  0  0
   36.9670   28.3410   37.6280 N   0  0  0  0  0  0  0  0  0  0  0  0
   36.8190   29.3840   35.7800 H   0  0  0  0  0  0  0  0  0  0  0  0
   34.3730   29.6920   35.9480 H   0  0  0  0  0  0  0  0  0  0  0  0
   32.8910   28.8510   38.0500 N   0  0  0  0  0  0  0  0  0  0  0  0
   32.6800   29.5660   38.7810 H   0  0  0  0  0  0  0  0  0  0  0  0
   32.2100   28.2910   37.5060 H   0  0  0  0  0  0  0  0  0  0  0  0
  1 10  1  0  0  0  0
  2  1  2  0  0  0  0
  2  3  1  0  0  0  0
  3  4  2  0  0  0  0
  4  5  1  0  0  0  0
  4 13  1  0  0  0  0
  5  6  1  0  0  0  0
  6  7  2  0  0  0  0
  6 14  1  0  0  0  0
  7 15  1  0  0  0  0
  8 16  1  0  0  0  0
  8  7  1  0  0  0  0
  9  8  2  0  0  0  0
 10  9  1  0  0  0  0
 10  5  2  0  0  0  0
 11  2  1  0  0  0  0
 12  3  1  0  0  0  0
 17 18  1  0  0  0  0
 17 26  1  0  0  0  0
 18  9  1  0  0  0  0
 19 23  1  0  0  0  0
 19 18  2  0  0  0  0
 20 19  1  0  0  0  0
 21 20  2  0  0  0  0
 21 22  1  0  0  0  0
 22 17  2  0  0  0  0
 24 20  1  0  0  0  0
 25 21  1  0  0  0  0
 26 27  1  0  0  0  0
 28 22  1  0  0  0  0
 30 29  1  0  0  0  0
 30 31  1  0  0  0  0
 32 31  1  0  0  0  0
 33 34  1  0  0  0  0
 33 32  1  0  0  0  0
 34 28  1  6  0  0  0
 34 30  1  0  0  0  0
 35 36  2  0  0  0  0
 35 40  1  0  0  0  0
 36 37  1  0  0  0  0
 37 43  1  0  0  0  0
 37 38  2  0  0  0  0
 39 38  1  0  0  0  0
 39  1  1  0  0  0  0
 40 39  2  0  0  0  0
 41 35  1  0  0  0  0
 42 36  1  0  0  0  0
 43 44  1  0  0  0  0
 45 43  1  0  0  0  0
M  END
>  <minimizedAffinity>
-6.68540525

$$$$

 OpenBabel03242521573D

 45 49  0  0  1  0  0  0  0  0999 V2000
   39.6820   30.5270   39.8930 C   0  0  0  0  0  0  0  0  0  0  0  0
   39.8970   31.4770   38.8970 C   0  0  0  0  0  0  0  0  0  0  0  0
   41.0340   32.2930   38.8540 C   0  0  0  0  0  0  0  0  0  0  0  0
   42.0030   32.1870   39.8130 C   0  0  0  0  0  0  0  0  0  0  0  0
   41.8080   31.2400   40.8350 C   0  0  0  0  0  0  0  0  0  0  0  0
   42.7670   31.1980   41.7980 C   0  0  0  0  0  0  0  0  0  0  0  0
   42.5700   30.3200   42.8650 C   0  0  0  0  0  0  0  0  0  0  0  0
   41.3710   29.5240   42.8880 C   0  0  0  0  0  0  0  0  0  0  0  0
   40.4960   29.6820   41.8370 C   0  0  0  0  0  0  0  0  0  0  0  0
   40.6370   30.4800   40.7910 C   0  0  0  0  0  0  0  0  0  0  0  0
   39.1230   31.5720   38.1160 H   0  0  0  0  0  0  0  0  0  0  0  0
   41.0610   32.9870   38.0190 H   0  0  0  0  0  0  0  0  0  0  0  0
   42.8700   32.8300   39.7450 H   0  0  0  0  0  0  0  0  0  0  0  0
   43.6480   31.8260   41.7340 H   0  0  0  0  0  0  0  0  0  0  0  0
   43.3720   30.3380   43.5840 H   0  0  0  0  0  0  0  0  0  0  0  0
   41.4900   28.9610   43.8010 H   0  0  0  0  0  0  0  0  0  0  0  0
   39.5290   27.6050   42.2740 C   0  0  0  0  0  0  0  0  0  0  0  0
   39.4200   29.0220   42.5500 C   0  0  0  0  0  0  0  0  0  0  0  0
   38.3100   29.2830   43.2340 C   0  0  0  0  0  0  0  0  0  0  0  0
   37.3720   28.3540   43.6360 C   0  0  0  0  0  0  0  0  0  0  0  0
   37.4960   27.0200   43.3590 C   0  0  0  0  0  0  0  0  0  0  0  0
   38.6080   26.6530   42.6590 C   0  0  0  0  0  0  0  0  0  0  0  0
   38.3150   30.3740   43.4000 H   0  0  0  0  0  0  0  0  0  0  0  0
   36.5510   28.8240   44.1840 H   0  0  0  0  0  0  0  0  0  0  0  0
   36.6650   26.4660   43.7550 H   0  0  0  0  0  0  0  0  0  0  0  0
   40.5850   26.9600   41.5740 O   0  0  0  0  0  0  0  0  0  0  0  0
   40.4350   26.6580   40.6050 H   0  0  0  0  0  0  0  0  0  0  0  0
   38.6760   25.2990   42.4010 O   0  0  0  0  0  0  0  0  0  0  0  0
   38.0320   22.8570   42.2770 H   0  0  0  0  0  0  0  0  0  0  0  0
   38.5720   23.1470   41.4080 N   0  0  0  0  0  0  0  0  0  0  0  0
   37.7450   22.6240   40.3110 C   0  0  0  0  0  2  0  0  0  0  0  0
   36.4950   23.4530   40.3070 C   0  0  0  0  0  2  0  0  0  0  0  0
   36.7590   24.5120   41.3330 C   0  0  0  0  0  2  0  0  0  0  0  0
   38.2960   24.5920   41.2960 C   0  0  1  0  0  3  0  0  0  0  0  0
   37.4940   27.5440   39.3960 C   0  0  0  0  0  0  0  0  0  0  0  0
   36.2700   28.0580   39.8860 C   0  0  0  0  0  0  0  0  0  0  0  0
   36.2880   29.3690   40.3140 C   0  0  0  0  0  0  0  0  0  0  0  0
   37.4630   29.9850   40.2130 N   0  0  0  0  0  0  0  0  0  0  0  0
   38.6290   29.5350   39.7610 C   0  0  0  0  0  0  0  0  0  0  0  0
   38.5940   28.3010   39.3590 N   0  0  0  0  0  0  0  0  0  0  0  0
   37.4780   26.5150   39.0590 H   0  0  0  0  0  0  0  0  0  0  0  0
   35.3740   27.4750   39.9280 H   0  0  0  0  0  0  0  0  0  0  0  0
   35.1230   30.0340   40.7720 N   0  0  0  0  0  0  0  0  0  0  0  0
   34.7380   30.7130   40.0790 H   0  0  0  0  0  0  0  0  0  0  0  0
   34.7470   29.8180   41.7120 H   0  0  0  0  0  0  0  0  0  0  0  0
  1 10  1  0  0  0  0
  2  1  2  0  0  0  0
  3  2  1  0  0  0  0
  3  4  2  0  0  0  0
  4  5  1  0  0  0  0
  5  6  1  0  0  0  0
  6  7  2  0  0  0  0
  7  8  1  0  0  0  0
  7 15  1  0  0  0  0
  8 16  1  0  0  0  0
  9 18  1  0  0  0  0
  9  8  2  0  0  0  0
 10  5  2  0  0  0  0
 10  9  1  0  0  0  0
 11  2  1  0  0  0  0
 12  3  1  0  0  0  0
 13  4  1  0  0  0  0
 14  6  1  0  0  0  0
 17 18  2  0  0  0  0
 17 22  1  0  0  0  0
 18 19  1  0  0  0  0
 19 23  1  0  0  0  0
 19 20  2  0  0  0  0
 20 24  1  0  0  0  0
 21 20  1  0  0  0  0
 21 25  1  0  0  0  0
 22 21  2  0  0  0  0
 26 17  1  0  0  0  0
 27 26  1  0  0  0  0
 28 22  1  0  0  0  0
 30 29  1  0  0  0  0
 31 30  1  0  0  0  0
 32 31  1  0  0  0  0
 32 33  1  0  0  0  0
 34 33  1  0  0  0  0
 34 30  1  0  0  0  0
 34 28  1  1  0  0  0
 35 36  1  0  0  0  0
 36 42  1  0  0  0  0
 36 37  2  0  0  0  0
 37 43  1  0  0  0  0
 38 37  1  0  0  0  0
 39  1  1  0  0  0  0
 39 38  2  0  0  0  0
 40 35  2  0  0  0  0
 40 39  1  0  0  0  0
 41 35  1  0  0  0  0
 43 45  1  0  0  0  0
 44 43  1  0  0  0  0
M  END
>  <minimizedAffinity>
-6.53030252

$$$$

 OpenBabel03242521573D

 45 49  0  0  1  0  0  0  0  0999 V2000
   37.5080   26.1730   41.3720 C   0  0  0  0  0  0  0  0  0  0  0  0
   37.6700   24.9350   41.9910 C   0  0  0  0  0  0  0  0  0  0  0  0
   37.2150   23.7360   41.4280 C   0  0  0  0  0  0  0  0  0  0  0  0
   36.5780   23.7340   40.2180 C   0  0  0  0  0  0  0  0  0  0  0  0
   36.3950   24.9720   39.5740 C   0  0  0  0  0  0  0  0  0  0  0  0
   35.7130   24.9360   38.3980 C   0  0  0  0  0  0  0  0  0  0  0  0
   35.4510   26.1540   37.7700 C   0  0  0  0  0  0  0  0  0  0  0  0
   35.9070   27.3650   38.3990 C   0  0  0  0  0  0  0  0  0  0  0  0
   36.5830   27.2340   39.5910 C   0  0  0  0  0  0  0  0  0  0  0  0
   36.8790   26.1100   40.2230 C   0  0  0  0  0  0  0  0  0  0  0  0
   38.1830   24.9230   42.9680 H   0  0  0  0  0  0  0  0  0  0  0  0
   37.4110   22.8520   42.0270 H   0  0  0  0  0  0  0  0  0  0  0  0
   36.2450   22.7880   39.8100 H   0  0  0  0  0  0  0  0  0  0  0  0
   35.3880   23.9940   37.9720 H   0  0  0  0  0  0  0  0  0  0  0  0
   34.9130   26.0460   36.8420 H   0  0  0  0  0  0  0  0  0  0  0  0
   35.5710   28.1220   37.7060 H   0  0  0  0  0  0  0  0  0  0  0  0
   37.5850   29.3300   39.3830 C   0  0  0  0  0  0  0  0  0  0  0  0
   36.4260   28.6380   39.9090 C   0  0  0  0  0  0  0  0  0  0  0  0
   35.6730   29.4660   40.6280 C   0  0  0  0  0  0  0  0  0  0  0  0
   35.9350   30.8010   40.8610 C   0  0  0  0  0  0  0  0  0  0  0  0
   37.0390   31.4300   40.3560 C   0  0  0  0  0  0  0  0  0  0  0  0
   37.8750   30.6610   39.6000 C   0  0  0  0  0  0  0  0  0  0  0  0
   34.8210   28.8580   40.9810 H   0  0  0  0  0  0  0  0  0  0  0  0
   35.1610   31.2590   41.4830 H   0  0  0  0  0  0  0  0  0  0  0  0
   37.0620   32.4630   40.6490 H   0  0  0  0  0  0  0  0  0  0  0  0
   38.6030   28.7690   38.5650 O   0  0  0  0  0  0  0  0  0  0  0  0
   39.5130   28.5420   38.9790 H   0  0  0  0  0  0  0  0  0  0  0  0
   38.9750   31.3450   39.1240 O   0  0  0  0  0  0  0  0  0  0  0  0
   41.3780   31.2860   38.3400 H   0  0  0  0  0  0  0  0  0  0  0  0
   41.3220   31.1180   39.3890 N   0  0  0  0  0  0  0  0  0  0  0  0
   42.3310   32.0400   39.9300 C   0  0  0  0  0  2  0  0  0  0  0  0
   41.7860   33.4190   39.7110 C   0  0  0  0  0  2  0  0  0  0  0  0
   40.4060   33.1850   39.1770 C   0  0  0  0  0  2  0  0  0  0  0  0
   40.0790   31.8070   39.7820 C   0  0  1  0  0  3  0  0  0  0  0  0
   38.7920   29.2340   43.0790 C   0  0  0  0  0  0  0  0  0  0  0  0
   40.0800   29.3120   42.4990 C   0  0  0  0  0  0  0  0  0  0  0  0
   40.3880   28.3430   41.5680 C   0  0  0  0  0  0  0  0  0  0  0  0
   39.4280   27.4510   41.3360 N   0  0  0  0  0  0  0  0  0  0  0  0
   38.2120   27.3470   41.8610 C   0  0  0  0  0  0  0  0  0  0  0  0
   37.9360   28.2680   42.7330 N   0  0  0  0  0  0  0  0  0  0  0  0
   38.5500   29.9970   43.8100 H   0  0  0  0  0  0  0  0  0  0  0  0
   40.7850   30.0740   42.7590 H   0  0  0  0  0  0  0  0  0  0  0  0
   41.6170   28.3320   40.8620 N   0  0  0  0  0  0  0  0  0  0  0  0
   41.5250   28.6490   39.8720 H   0  0  0  0  0  0  0  0  0  0  0  0
   42.4810   28.0270   41.3440 H   0  0  0  0  0  0  0  0  0  0  0  0
  1 39  1  0  0  0  0
  1  2  1  0  0  0  0
  2 11  1  0  0  0  0
  3  2  2  0  0  0  0
  3 12  1  0  0  0  0
  4  3  1  0  0  0  0
  5  4  2  0  0  0  0
  5 10  1  0  0  0  0
  6  5  1  0  0  0  0
  7  6  2  0  0  0  0
  7  8  1  0  0  0  0
  8  9  2  0  0  0  0
  9 18  1  0  0  0  0
  9 10  1  0  0  0  0
 10  1  2  0  0  0  0
 13  4  1  0  0  0  0
 14  6  1  0  0  0  0
 15  7  1  0  0  0  0
 16  8  1  0  0  0  0
 17 22  2  0  0  0  0
 17 18  1  0  0  0  0
 18 19  2  0  0  0  0
 19 20  1  0  0  0  0
 19 23  1  0  0  0  0
 20 24  1  0  0  0  0
 21 25  1  0  0  0  0
 21 20  2  0  0  0  0
 22 21  1  0  0  0  0
 26 27  1  0  0  0  0
 26 17  1  0  0  0  0
 28 22  1  0  0  0  0
 29 30  1  0  0  0  0
 30 34  1  0  0  0  0
 30 31  1  0  0  0  0
 32 31  1  0  0  0  0
 33 32  1  0  0  0  0
 33 34  1  0  0  0  0
 34 28  1  6  0  0  0
 35 41  1  0  0  0  0
 36 42  1  0  0  0  0
 36 35  2  0  0  0  0
 37 36  1  0  0  0  0
 38 37  2  0  0  0  0
 38 39  1  0  0  0  0
 39 40  2  0  0  0  0
 40 35  1  0  0  0  0
 43 45  1  0  0  0  0
 43 37  1  0  0  0  0
 44 43  1  0  0  0  0
M  END
>  <minimizedAffinity>
-6.42691422

$$$$

 OpenBabel03242521573D

 45 49  0  0  1  0  0  0  0  0999 V2000
   37.4920   29.5830   37.7730 C   0  0  0  0  0  0  0  0  0  0  0  0
   37.6510   29.4670   36.3940 C   0  0  0  0  0  0  0  0  0  0  0  0
   36.5810   29.2460   35.5180 C   0  0  0  0  0  0  0  0  0  0  0  0
   35.3040   29.1330   35.9950 C   0  0  0  0  0  0  0  0  0  0  0  0
   35.1150   29.2390   37.3860 C   0  0  0  0  0  0  0  0  0  0  0  0
   33.8410   29.0710   37.8280 C   0  0  0  0  0  0  0  0  0  0  0  0
   33.6300   29.0990   39.2070 C   0  0  0  0  0  0  0  0  0  0  0  0
   34.7620   29.2950   40.0730 C   0  0  0  0  0  0  0  0  0  0  0  0
   35.9900   29.4500   39.4700 C   0  0  0  0  0  0  0  0  0  0  0  0
   36.2500   29.4530   38.1720 C   0  0  0  0  0  0  0  0  0  0  0  0
   38.6760   29.5570   35.9950 H   0  0  0  0  0  0  0  0  0  0  0  0
   36.8600   29.1750   34.4710 H   0  0  0  0  0  0  0  0  0  0  0  0
   34.5010   28.9680   35.2900 H   0  0  0  0  0  0  0  0  0  0  0  0
   33.0250   28.9200   37.1310 H   0  0  0  0  0  0  0  0  0  0  0  0
   32.5960   28.9650   39.4820 H   0  0  0  0  0  0  0  0  0  0  0  0
   34.3070   29.2720   41.0520 H   0  0  0  0  0  0  0  0  0  0  0  0
   36.8680   27.7740   40.8350 C   0  0  0  0  0  0  0  0  0  0  0  0
   36.7010   29.2070   40.7090 C   0  0  0  0  0  0  0  0  0  0  0  0
   37.1130   29.8260   41.8130 C   0  0  0  0  0  0  0  0  0  0  0  0
   37.6290   29.2140   42.9370 C   0  0  0  0  0  0  0  0  0  0  0  0
   37.7730   27.8570   43.0330 C   0  0  0  0  0  0  0  0  0  0  0  0
   37.3770   27.1340   41.9450 C   0  0  0  0  0  0  0  0  0  0  0  0
   36.9530   30.9020   41.6240 H   0  0  0  0  0  0  0  0  0  0  0  0
   37.8920   29.9450   43.7060 H   0  0  0  0  0  0  0  0  0  0  0  0
   38.1890   27.5800   43.9830 H   0  0  0  0  0  0  0  0  0  0  0  0
   36.5460   26.7980   39.8530 O   0  0  0  0  0  0  0  0  0  0  0  0
   35.6970   26.2340   39.9640 H   0  0  0  0  0  0  0  0  0  0  0  0
   37.5380   25.7720   42.1010 O   0  0  0  0  0  0  0  0  0  0  0  0
   38.0390   25.3270   39.6640 H   0  0  0  0  0  0  0  0  0  0  0  0
   38.1410   24.4360   40.2360 N   0  0  0  0  0  0  0  0  0  0  0  0
   39.4430   23.9090   39.8020 C   0  0  0  0  0  2  0  0  0  0  0  0
   40.4710   24.8570   40.3400 C   0  0  0  0  0  2  0  0  0  0  0  0
   39.6810   25.8070   41.1870 C   0  0  0  0  0  2  0  0  0  0  0  0
   38.4800   24.9300   41.5840 C   0  0  1  0  0  3  0  0  0  0  0  0
   40.4980   30.1540   39.9110 C   0  0  0  0  0  0  0  0  0  0  0  0
   40.4980   31.5680   39.9560 C   0  0  0  0  0  0  0  0  0  0  0  0
   39.4720   32.1980   39.2840 C   0  0  0  0  0  0  0  0  0  0  0  0
   38.6090   31.3900   38.6730 N   0  0  0  0  0  0  0  0  0  0  0  0
   38.5790   30.0630   38.6100 C   0  0  0  0  0  0  0  0  0  0  0  0
   39.5490   29.4840   39.2500 N   0  0  0  0  0  0  0  0  0  0  0  0
   41.3030   29.6590   40.4400 H   0  0  0  0  0  0  0  0  0  0  0  0
   41.2450   32.1290   40.4760 H   0  0  0  0  0  0  0  0  0  0  0  0
   39.3110   33.6070   39.2920 N   0  0  0  0  0  0  0  0  0  0  0  0
   38.5330   33.9270   39.9100 H   0  0  0  0  0  0  0  0  0  0  0  0
   39.9400   34.1970   38.7190 H   0  0  0  0  0  0  0  0  0  0  0  0
  1 10  1  0  0  0  0
  1 39  1  0  0  0  0
  2  1  2  0  0  0  0
  3  4  2  0  0  0  0
  3  2  1  0  0  0  0
  4  5  1  0  0  0  0
  5  6  2  0  0  0  0
  5 10  1  0  0  0  0
  6  7  1  0  0  0  0
  7 15  1  0  0  0  0
  7  8  2  0  0  0  0
  8 16  1  0  0  0  0
  9  8  1  0  0  0  0
  9 18  1  0  0  0  0
 10  9  2  0  0  0  0
 11  2  1  0  0  0  0
 12  3  1  0  0  0  0
 13  4  1  0  0  0  0
 14  6  1  0  0  0  0
 17 22  1  0  0  0  0
 18 17  2  0  0  0  0
 18 19  1  0  0  0  0
 19 20  2  0  0  0  0
 20 21  1  0  0  0  0
 20 24  1  0  0  0  0
 21 25  1  0  0  0  0
 22 28  1  0  0  0  0
 22 21  2  0  0  0  0
 23 19  1  0  0  0  0
 26 27  1  0  0  0  0
 26 17  1  0  0  0  0
 29 30  1  0  0  0  0
 30 34  1  0  0  0  0
 31 30  1  0  0  0  0
 31 32  1  0  0  0  0
 32 33  1  0  0  0  0
 33 34  1  0  0  0  0
 34 28  1  6  0  0  0
 35 36  1  0  0  0  0
 35 41  1  0  0  0  0
 36 42  1  0  0  0  0
 37 43  1  0  0  0  0
 37 36  2  0  0  0  0
 38 37  1  0  0  0  0
 39 38  2  0  0  0  0
 39 40  1  0  0  0  0
 40 35  2  0  0  0  0
 43 44  1  0  0  0  0
 45 43  1  0  0  0  0
M  END
>  <minimizedAffinity>
-6.42166567

$$$$
