
 OpenBabel03252507103D

 33 35  0  0  1  0  0  0  0  0999 V2000
   44.5160   35.6870   44.8720 C   0  0  0  0  0  0  0  0  0  0  0  0
   45.0610   35.8800   43.5900 C   0  0  0  0  0  0  0  0  0  0  0  0
   46.0880   35.0170   43.2040 C   0  0  0  0  0  0  0  0  0  0  0  0
   46.5020   34.0590   44.0570 N   0  0  0  0  0  0  0  0  0  0  0  0
   45.9680   33.8950   45.2710 C   0  0  0  0  0  0  0  0  0  0  0  0
   44.9670   34.7170   45.6810 N   0  0  0  0  0  0  0  0  0  0  0  0
   43.7090   36.3550   45.1940 H   0  0  0  0  0  0  0  0  0  0  0  0
   44.7150   36.6550   42.9180 H   0  0  0  0  0  0  0  0  0  0  0  0
   45.3740   32.5380   47.2980 C   0  0  1  0  0  0  0  0  0  0  0  0
   46.3880   32.8760   46.2480 C   0  0  1  0  0  0  0  0  0  0  0  0
   46.4780   31.5010   45.5550 C   0  0  0  0  0  0  0  0  0  0  0  0
   46.2310   30.5630   46.5030 O   0  0  0  0  0  0  0  0  0  0  0  0
   45.9240   31.1760   47.7150 C   0  0  0  0  0  0  0  0  0  0  0  0
   44.4120   32.3360   46.7780 H   0  0  0  0  0  0  0  0  0  0  0  0
   47.3600   33.1070   46.7220 H   0  0  0  0  0  0  0  0  0  0  0  0
   47.5430   31.4130   45.2270 H   0  0  0  0  0  0  0  0  0  0  0  0
   45.8640   31.4620   44.6390 H   0  0  0  0  0  0  0  0  0  0  0  0
   46.7650   31.2640   48.4020 H   0  0  0  0  0  0  0  0  0  0  0  0
   45.0480   30.6140   48.1440 H   0  0  0  0  0  0  0  0  0  0  0  0
   45.2740   33.4440   48.3120 O   0  0  0  0  0  0  0  0  0  0  0  0
   44.3230   33.7200   48.3740 H   0  0  0  0  0  0  0  0  0  0  0  0
   46.6130   35.2160   41.9400 O   0  0  0  0  0  0  0  0  0  0  0  0
   47.3230   32.8000   41.0840 O   0  0  0  0  0  0  0  0  0  0  0  0
   47.8740   34.2040   41.3710 P   0  0  1  0  0  0  0  0  0  0  0  0
   48.5280   34.8950   40.0070 O   0  0  0  0  0  0  0  0  0  0  0  0
   48.2090   34.3640   39.2100 H   0  0  0  0  0  0  0  0  0  0  0  0
   48.9980   34.0790   42.6230 O   0  0  0  0  0  0  0  0  0  0  0  0
   48.1630   31.7680   42.5550 H   0  0  0  0  0  0  0  0  0  0  0  0
   49.1640   31.7420   42.8710 N   0  0  0  0  0  0  0  0  0  0  0  0
   49.8500   30.6790   42.1690 C   0  0  0  0  0  0  0  0  0  0  0  0
   50.4690   31.2690   40.9280 C   0  0  0  0  0  0  0  0  0  0  0  0
   49.8370   32.6660   40.8760 C   0  0  0  0  0  0  0  0  0  0  0  0
   49.7860   32.9590   42.3820 C   0  0  1  0  0  0  0  0  0  0  0  0
  1  7  1  0  0  0  0
  1  6  1  0  0  0  0
  2  1  2  0  0  0  0
  3  2  1  0  0  0  0
  3  4  2  0  0  0  0
  4  5  1  0  0  0  0
  5  6  2  0  0  0  0
  5 10  1  0  0  0  0
  8  2  1  0  0  0  0
  9 14  1  6  0  0  0
  9 13  1  0  0  0  0
  9 20  1  0  0  0  0
 10 15  1  1  0  0  0
 10  9  1  0  0  0  0
 11 10  1  0  0  0  0
 11 12  1  0  0  0  0
 12 13  1  0  0  0  0
 13 19  1  0  0  0  0
 13 18  1  0  0  0  0
 16 11  1  0  0  0  0
 17 11  1  0  0  0  0
 20 21  1  0  0  0  0
 22  3  1  0  0  0  0
 24 23  2  6  0  0  0
 24 22  1  0  0  0  0
 24 27  1  0  0  0  0
 25 24  1  0  0  0  0
 26 25  1  0  0  0  0
 28 29  1  0  0  0  0
 30 29  1  0  0  0  0
 31 30  1  0  0  0  0
 32 31  1  0  0  0  0
 32 33  1  0  0  0  0
 33 27  1  6  0  0  0
 33 29  1  0  0  0  0
M  END
>  <minimizedAffinity>
-5.4750247

>  <minimizedRMSD>
1.71588671

$$$$
