
 OpenBabel03252507153D

 26 28  0  0  0  0  0  0  0  0999 V2000
   45.3250   36.1870   43.1630 C   0  0  0  0  0  0  0  0  0  0  0  0
   45.9360   34.9300   42.9210 C   0  0  0  0  0  0  0  0  0  0  0  0
   45.8520   33.9780   43.9260 C   0  0  0  0  0  0  0  0  0  0  0  0
   45.2090   34.2690   45.0680 N   0  0  0  0  0  0  0  0  0  0  0  0
   44.6260   35.4900   45.2790 C   0  0  0  0  0  0  0  0  0  0  0  0
   44.6970   36.4130   44.3300 N   0  0  0  0  0  0  0  0  0  0  0  0
   45.3910   36.9330   42.3740 H   0  0  0  0  0  0  0  0  0  0  0  0
   44.1320   35.6130   46.2470 H   0  0  0  0  0  0  0  0  0  0  0  0
   46.4750   32.6800   43.6920 C   0  0  0  0  0  0  0  0  0  0  0  0
   45.6680   31.5690   43.4640 C   0  0  0  0  0  0  0  0  0  0  0  0
   46.2960   30.3580   43.2460 C   0  0  0  0  0  0  0  0  0  0  0  0
   47.6900   30.1960   43.2440 C   0  0  0  0  0  0  0  0  0  0  0  0
   48.4170   31.3600   43.4810 C   0  0  0  0  0  0  0  0  0  0  0  0
   47.7980   32.5370   43.6930 N   0  0  0  0  0  0  0  0  0  0  0  0
   44.5840   31.6230   43.4510 H   0  0  0  0  0  0  0  0  0  0  0  0
   45.6760   29.4890   43.0690 H   0  0  0  0  0  0  0  0  0  0  0  0
   48.1270   29.2390   43.0720 H   0  0  0  0  0  0  0  0  0  0  0  0
   49.4960   31.2740   43.4880 H   0  0  0  0  0  0  0  0  0  0  0  0
   46.5990   34.6920   41.6900 C   0  0  0  0  0  0  0  0  0  0  0  0
   47.7750   35.1380   41.5650 O   0  0  0  0  0  0  0  0  0  0  0  0
   46.1580   34.0110   40.5190 N   0  0  0  0  0  0  0  0  0  0  0  0
   44.7570   33.7000   40.3070 C   0  0  0  0  0  0  0  0  0  0  0  0
   44.7180   32.1960   40.1110 C   0  0  0  0  0  0  0  0  0  0  0  0
   45.9930   31.9780   39.3260 C   0  0  0  0  0  0  0  0  0  0  0  0
   46.5260   33.3960   39.2570 C   0  0  0  0  0  0  0  0  0  0  0  0
   46.1110   33.9240   38.3760 H   0  0  0  0  0  0  0  0  0  0  0  0
  1  6  1  0  0  0  0
  2  1  2  0  0  0  0
  2  3  1  0  0  0  0
  3  4  2  0  0  0  0
  4  5  1  0  0  0  0
  5  8  1  0  0  0  0
  6  5  2  0  0  0  0
  7  1  1  0  0  0  0
  9 14  1  0  0  0  0
  9  3  1  0  0  0  0
 10  9  2  0  0  0  0
 11 10  1  0  0  0  0
 12 11  2  0  0  0  0
 12 13  1  0  0  0  0
 13 18  1  0  0  0  0
 13 14  2  0  0  0  0
 15 10  1  0  0  0  0
 16 11  1  0  0  0  0
 17 12  1  0  0  0  0
 19  2  1  0  0  0  0
 20 19  2  0  0  0  0
 21 19  1  0  0  0  0
 22 21  1  0  0  0  0
 23 22  1  0  0  0  0
 24 23  1  0  0  0  0
 25 24  1  0  0  0  0
 25 21  1  0  0  0  0
 26 25  1  0  0  0  0
M  END
>  <minimizedAffinity>
-4.3465023

>  <minimizedRMSD>
0.131099895

$$$$
