
 OpenBabel03252500253D

 34 36  0  0  1  0  0  0  0  0999 V2000
   46.8190   30.1170   48.0890 C   0  0  2  0  0  0  0  0  0  0  0  0
   45.3760   30.4380   48.1250 C   0  0  2  0  0  0  0  0  0  0  0  0
   44.8150   29.6390   47.0020 C   0  0  0  0  0  0  0  0  0  0  0  0
   45.5950   28.5040   46.8640 O   0  0  0  0  0  0  0  0  0  0  0  0
   46.7010   28.6400   47.6350 C   0  0  0  0  0  0  0  0  0  0  0  0
   47.5270   30.4880   47.4110 H   0  0  0  0  0  0  0  0  0  0  0  0
   45.0280   30.0550   49.1230 H   0  0  0  0  0  0  0  0  0  0  0  0
   43.8300   29.2260   47.3830 H   0  0  0  0  0  0  0  0  0  0  0  0
   44.5210   30.1510   46.0930 H   0  0  0  0  0  0  0  0  0  0  0  0
   46.5030   28.0990   48.6050 H   0  0  0  0  0  0  0  0  0  0  0  0
   47.6320   28.2550   47.2220 H   0  0  0  0  0  0  0  0  0  0  0  0
   45.1090   31.7810   48.0000 O   0  0  0  0  0  0  0  0  0  0  0  0
   47.3650   32.8570   47.4000 O   0  0  0  0  0  0  0  0  0  0  0  0
   46.0470   32.4530   46.8000 P   0  0  1  0  0  0  0  0  0  0  0  0
   46.3320   31.2920   45.5990 O   0  0  0  0  0  0  0  0  0  0  0  0
   45.8280   31.5280   44.7800 H   0  0  0  0  0  0  0  0  0  0  0  0
   45.3310   33.8530   46.1280 O   0  0  0  0  0  0  0  0  0  0  0  0
   45.1860   35.8450   43.1790 C   0  0  0  0  0  0  0  0  0  0  0  0
   46.2630   35.3680   42.3770 C   0  0  0  0  0  0  0  0  0  0  0  0
   47.0400   34.3200   42.9160 C   0  0  0  0  0  0  0  0  0  0  0  0
   46.7130   33.8470   44.1390 N   0  0  0  0  0  0  0  0  0  0  0  0
   45.6790   34.3340   44.8610 C   0  0  0  0  0  0  0  0  0  0  0  0
   44.9250   35.3330   44.3700 N   0  0  0  0  0  0  0  0  0  0  0  0
   46.5040   35.7600   41.4090 H   0  0  0  0  0  0  0  0  0  0  0  0
   47.8750   33.9020   42.3710 H   0  0  0  0  0  0  0  0  0  0  0  0
   44.4370   36.8690   42.6420 O   0  0  0  0  0  0  0  0  0  0  0  0
   44.9730   37.6650   42.2650 H   0  0  0  0  0  0  0  0  0  0  0  0
   47.4660   30.2100   49.2880 O   0  0  0  0  0  0  0  0  0  0  0  0
   49.4860   31.1130   51.3030 H   0  0  0  0  0  0  0  0  0  0  0  0
   49.2370   30.3010   50.7000 N   0  0  0  0  0  0  0  0  0  0  0  0
   50.3100   29.3790   50.4920 C   0  0  0  0  0  2  0  0  0  0  0  0
   50.7920   29.5580   49.0730 C   0  0  0  0  0  2  0  0  0  0  0  0
   49.5680   30.0560   48.3450 C   0  0  0  0  0  2  0  0  0  0  0  0
   48.6860   30.6900   49.4300 C   0  0  1  0  0  3  0  0  0  0  0  0
  1  6  1  6  0  0  0
  1  2  1  0  0  0  0
  1 28  1  0  0  0  0
  2  7  1  1  0  0  0
  3  8  1  0  0  0  0
  3  2  1  0  0  0  0
  4  3  1  0  0  0  0
  4  5  1  0  0  0  0
  5  1  1  0  0  0  0
  5 10  1  0  0  0  0
  9  3  1  0  0  0  0
 11  5  1  0  0  0  0
 12  2  1  0  0  0  0
 14 13  2  1  0  0  0
 14 12  1  0  0  0  0
 15 14  1  0  0  0  0
 16 15  1  0  0  0  0
 17 14  1  0  0  0  0
 18 23  1  0  0  0  0
 19 20  1  0  0  0  0
 19 18  2  0  0  0  0
 20 21  2  0  0  0  0
 21 22  1  0  0  0  0
 22 17  1  0  0  0  0
 23 22  2  0  0  0  0
 24 19  1  0  0  0  0
 25 20  1  0  0  0  0
 26 18  1  0  0  0  0
 27 26  1  0  0  0  0
 30 29  1  0  0  0  0
 31 30  1  0  0  0  0
 32 31  1  0  0  0  0
 33 32  1  0  0  0  0
 33 34  1  0  0  0  0
 34 28  1  1  0  0  0
 34 30  1  0  0  0  0
M  END
>  <minimizedAffinity>
-5.10807133

>  <minimizedRMSD>
0.169821173

$$$$
