
 OpenBabel03252508493D

 25 27  0  0  0  0  0  0  0  0999 V2000
   45.9100   34.1120   41.0200 C   0  0  0  0  0  0  0  0  0  0  0  0
   46.5070   34.7840   42.1070 C   0  0  0  0  0  0  0  0  0  0  0  0
   47.8400   35.1760   41.9570 C   0  0  0  0  0  0  0  0  0  0  0  0
   48.4740   34.8850   40.7760 N   0  0  0  0  0  0  0  0  0  0  0  0
   47.8650   34.2470   39.7780 C   0  0  0  0  0  0  0  0  0  0  0  0
   46.5800   33.8590   39.8980 N   0  0  0  0  0  0  0  0  0  0  0  0
   48.3270   35.6950   42.7750 H   0  0  0  0  0  0  0  0  0  0  0  0
   48.3590   34.0140   38.8440 H   0  0  0  0  0  0  0  0  0  0  0  0
   45.7410   35.0410   43.3140 C   0  0  0  0  0  0  0  0  0  0  0  0
   45.0540   36.2090   43.5420 C   0  0  0  0  0  0  0  0  0  0  0  0
   44.4900   36.0080   44.7870 C   0  0  0  0  0  0  0  0  0  0  0  0
   44.8160   34.7890   45.2830 N   0  0  0  0  0  0  0  0  0  0  0  0
   45.5730   34.2270   44.3720 N   0  0  0  0  0  0  0  0  0  0  0  0
   44.9530   37.1010   42.9200 H   0  0  0  0  0  0  0  0  0  0  0  0
   43.8570   36.7320   45.3180 H   0  0  0  0  0  0  0  0  0  0  0  0
   44.4950   34.4310   46.2150 H   0  0  0  0  0  0  0  0  0  0  0  0
   44.5990   33.7220   41.1570 O   0  0  0  0  0  0  0  0  0  0  0  0
   43.5070   34.3690   40.6380 C   0  0  0  0  0  0  0  0  0  0  0  0
   43.2990   35.6220   40.5510 O   0  0  0  0  0  0  0  0  0  0  0  0
   42.2770   33.9530   40.0420 N   0  0  0  0  0  0  0  0  0  0  0  0
   42.3390   32.8960   39.0500 C   0  0  0  0  0  2  0  0  0  0  0  0
   41.1190   33.2560   38.1990 C   0  0  0  0  0  2  0  0  0  0  0  0
   40.1230   33.4810   39.3450 C   0  0  0  0  0  2  0  0  0  0  0  0
   40.9310   34.3950   40.2400 C   0  0  0  0  0  3  0  0  0  0  0  0
   40.6190   34.3570   41.3060 H   0  0  0  0  0  0  0  0  0  0  0  0
  1 17  1  0  0  0  0
  1  2  1  0  0  0  0
  2  9  1  0  0  0  0
  3  2  2  0  0  0  0
  3  7  1  0  0  0  0
  4  3  1  0  0  0  0
  5  6  1  0  0  0  0
  5  4  2  0  0  0  0
  6  1  2  0  0  0  0
  8  5  1  0  0  0  0
  9 10  1  0  0  0  0
  9 13  2  0  0  0  0
 10 11  2  0  0  0  0
 11 12  1  0  0  0  0
 11 15  1  0  0  0  0
 12 16  1  0  0  0  0
 13 12  1  0  0  0  0
 14 10  1  0  0  0  0
 18 17  1  0  0  0  0
 19 18  2  0  0  0  0
 20 24  1  0  0  0  0
 20 18  1  0  0  0  0
 21 20  1  0  0  0  0
 22 21  1  0  0  0  0
 22 23  1  0  0  0  0
 23 24  1  0  0  0  0
 24 25  1  0  0  0  0
M  END
>  <minimizedAffinity>
-5.3504715

>  <minimizedRMSD>
0.598732591

$$$$
