
 OpenBabel03252508493D

 25 27  0  0  0  0  0  0  0  0999 V2000
   45.9070   34.1670   41.0000 C   0  0  0  0  0  0  0  0  0  0  0  0
   46.5120   34.8010   42.1060 C   0  0  0  0  0  0  0  0  0  0  0  0
   47.8560   35.1610   41.9760 C   0  0  0  0  0  0  0  0  0  0  0  0
   48.4930   34.8770   40.7950 N   0  0  0  0  0  0  0  0  0  0  0  0
   47.8770   34.2760   39.7790 C   0  0  0  0  0  0  0  0  0  0  0  0
   46.5810   33.9200   39.8800 N   0  0  0  0  0  0  0  0  0  0  0  0
   48.3490   35.6500   42.8090 H   0  0  0  0  0  0  0  0  0  0  0  0
   48.3730   34.0490   38.8440 H   0  0  0  0  0  0  0  0  0  0  0  0
   45.7420   35.0540   43.3120 C   0  0  0  0  0  0  0  0  0  0  0  0
   45.0650   36.2270   43.5480 C   0  0  0  0  0  0  0  0  0  0  0  0
   44.4920   36.0200   44.7870 C   0  0  0  0  0  0  0  0  0  0  0  0
   44.8030   34.7930   45.2730 N   0  0  0  0  0  0  0  0  0  0  0  0
   45.5590   34.2320   44.3600 N   0  0  0  0  0  0  0  0  0  0  0  0
   44.9770   37.1260   42.9340 H   0  0  0  0  0  0  0  0  0  0  0  0
   43.8640   36.7440   45.3230 H   0  0  0  0  0  0  0  0  0  0  0  0
   44.4730   34.4280   46.1990 H   0  0  0  0  0  0  0  0  0  0  0  0
   44.5840   33.8100   41.1180 O   0  0  0  0  0  0  0  0  0  0  0  0
   43.5210   34.4550   40.5420 C   0  0  0  0  0  0  0  0  0  0  0  0
   43.1160   35.6450   40.7410 O   0  0  0  0  0  0  0  0  0  0  0  0
   42.5270   34.0990   39.5790 N   0  0  0  0  0  0  0  0  0  0  0  0
   42.2380   35.0600   38.5320 C   0  0  0  0  0  0  0  0  0  0  0  0
   40.7780   34.7060   38.2390 C   0  0  0  0  0  0  0  0  0  0  0  0
   40.9430   33.1820   38.1660 C   0  0  0  0  0  0  0  0  0  0  0  0
   41.7220   32.9260   39.4380 C   0  0  0  0  0  0  0  0  0  0  0  0
   42.3240   31.9920   39.4040 H   0  0  0  0  0  0  0  0  0  0  0  0
  1 17  1  0  0  0  0
  1  2  1  0  0  0  0
  2  9  1  0  0  0  0
  3  2  2  0  0  0  0
  3  7  1  0  0  0  0
  4  3  1  0  0  0  0
  5  6  1  0  0  0  0
  5  4  2  0  0  0  0
  6  1  2  0  0  0  0
  8  5  1  0  0  0  0
  9 10  1  0  0  0  0
  9 13  2  0  0  0  0
 10 11  2  0  0  0  0
 11 12  1  0  0  0  0
 11 15  1  0  0  0  0
 12 16  1  0  0  0  0
 13 12  1  0  0  0  0
 14 10  1  0  0  0  0
 18 19  2  0  0  0  0
 18 17  1  0  0  0  0
 20 18  1  0  0  0  0
 21 20  1  0  0  0  0
 22 21  1  0  0  0  0
 23 22  1  0  0  0  0
 23 24  1  0  0  0  0
 24 20  1  0  0  0  0
 25 24  1  0  0  0  0
M  END
>  <minimizedAffinity>
-5.61427259

>  <minimizedRMSD>
0.378416657

$$$$
