
 OpenBabel03242511063D

 24 26  0  0  1  0  0  0  0  0999 V2000
   46.0130   32.0160   45.3140 C   0  0  1  0  0  0  0  0  0  0  0  0
   45.4630   33.3380   44.8620 C   0  0  0  0  0  0  0  0  0  0  0  0
   46.9690   33.0770   44.9730 C   0  0  2  0  0  0  0  0  0  0  0  0
   45.9110   31.1500   44.6300 H   0  0  0  0  0  0  0  0  0  0  0  0
   44.9910   33.9190   45.6800 H   0  0  0  0  0  0  0  0  0  0  0  0
   44.9700   33.3150   43.8940 H   0  0  0  0  0  0  0  0  0  0  0  0
   47.4420   33.5490   45.8630 H   0  0  0  0  0  0  0  0  0  0  0  0
   45.2260   29.9750   48.3150 C   0  0  0  0  0  0  0  0  0  0  0  0
   45.4480   30.9320   49.3650 C   0  0  0  0  0  0  0  0  0  0  0  0
   45.8710   32.2500   49.0030 C   0  0  0  0  0  0  0  0  0  0  0  0
   46.0410   32.5400   47.7090 N   0  0  0  0  0  0  0  0  0  0  0  0
   45.8230   31.6080   46.7350 C   0  0  0  0  0  0  0  0  0  0  0  0
   45.4200   30.3420   47.0450 N   0  0  0  0  0  0  0  0  0  0  0  0
   44.9080   28.9890   48.6180 H   0  0  0  0  0  0  0  0  0  0  0  0
   45.3080   30.6920   50.4080 H   0  0  0  0  0  0  0  0  0  0  0  0
   46.0250   32.9340   49.8240 H   0  0  0  0  0  0  0  0  0  0  0  0
   47.7340   33.1090   43.7940 N   0  0  0  0  0  0  0  0  0  0  0  0
   47.6200   32.3470   43.1320 H   0  0  0  0  0  0  0  0  0  0  0  0
   50.0790   34.1330   43.9180 H   0  0  0  0  0  0  0  0  0  0  0  0
   49.4990   34.6940   43.2900 N   0  0  0  0  0  0  0  0  0  0  0  0
   49.9640   34.8810   41.9560 C   0  0  0  0  0  2  0  0  0  0  0  0
   48.7350   35.5090   41.2880 C   0  0  0  0  0  2  0  0  0  0  0  0
   47.6330   34.6310   41.8500 C   0  0  0  0  0  2  0  0  0  0  0  0
   48.1010   34.3470   43.2350 C   0  0  1  0  0  3  0  0  0  0  0  0
  1  4  1  6  0  0  0
  1 12  1  0  0  0  0
  2  3  1  0  0  0  0
  2  1  1  0  0  0  0
  2  5  1  0  0  0  0
  3  1  1  0  0  0  0
  3  7  1  1  0  0  0
  6  2  1  0  0  0  0
  8 14  1  0  0  0  0
  8  9  1  0  0  0  0
  9 15  1  0  0  0  0
 10  9  2  0  0  0  0
 10 16  1  0  0  0  0
 11 10  1  0  0  0  0
 12 13  1  0  0  0  0
 12 11  2  0  0  0  0
 13  8  2  0  0  0  0
 17  3  1  0  0  0  0
 18 17  1  0  0  0  0
 20 19  1  0  0  0  0
 21 20  1  0  0  0  0
 22 23  1  0  0  0  0
 22 21  1  0  0  0  0
 23 24  1  0  0  0  0
 24 20  1  0  0  0  0
 24 17  1  6  0  0  0
M  END
>  <minimizedAffinity>
-4.57967281

>  <minimizedRMSD>
7.15472031

$$$$
