
 OpenBabel03252508493D

 25 27  0  0  0  0  0  0  0  0999 V2000
   45.8990   34.1930   41.0140 C   0  0  0  0  0  0  0  0  0  0  0  0
   46.5100   34.8080   42.1270 C   0  0  0  0  0  0  0  0  0  0  0  0
   47.8580   35.1520   42.0020 C   0  0  0  0  0  0  0  0  0  0  0  0
   48.4930   34.8720   40.8200 N   0  0  0  0  0  0  0  0  0  0  0  0
   47.8710   34.2870   39.7970 C   0  0  0  0  0  0  0  0  0  0  0  0
   46.5710   33.9470   39.8920 N   0  0  0  0  0  0  0  0  0  0  0  0
   48.3560   35.6270   42.8400 H   0  0  0  0  0  0  0  0  0  0  0  0
   48.3660   34.0620   38.8610 H   0  0  0  0  0  0  0  0  0  0  0  0
   45.7410   35.0600   43.3330 C   0  0  0  0  0  0  0  0  0  0  0  0
   45.1000   36.2490   43.5910 C   0  0  0  0  0  0  0  0  0  0  0  0
   44.5140   36.0330   44.8230 C   0  0  0  0  0  0  0  0  0  0  0  0
   44.7830   34.7870   45.2840 N   0  0  0  0  0  0  0  0  0  0  0  0
   45.5260   34.2220   44.3630 N   0  0  0  0  0  0  0  0  0  0  0  0
   45.0440   37.1630   42.9970 H   0  0  0  0  0  0  0  0  0  0  0  0
   43.9060   36.7660   45.3710 H   0  0  0  0  0  0  0  0  0  0  0  0
   44.4360   34.4130   46.2000 H   0  0  0  0  0  0  0  0  0  0  0  0
   44.5710   33.8510   41.1270 O   0  0  0  0  0  0  0  0  0  0  0  0
   43.5100   34.5740   40.6490 C   0  0  0  0  0  0  0  0  0  0  0  0
   43.2320   35.8000   40.8530 O   0  0  0  0  0  0  0  0  0  0  0  0
   42.3880   34.2870   39.8120 N   0  0  0  0  0  0  0  0  0  0  0  0
   42.4260   34.7850   38.4500 C   0  0  0  0  0  2  0  0  0  0  0  0
   40.9280   34.9460   38.1820 C   0  0  0  0  0  2  0  0  0  0  0  0
   40.4710   33.5860   38.7250 C   0  0  0  0  0  2  0  0  0  0  0  0
   41.1770   33.5700   40.0630 C   0  0  0  0  0  3  0  0  0  0  0  0
   41.3560   32.5460   40.4550 H   0  0  0  0  0  0  0  0  0  0  0  0
  1 17  1  0  0  0  0
  1  2  1  0  0  0  0
  2  9  1  0  0  0  0
  3  2  2  0  0  0  0
  3  7  1  0  0  0  0
  4  3  1  0  0  0  0
  5  6  1  0  0  0  0
  5  4  2  0  0  0  0
  6  1  2  0  0  0  0
  8  5  1  0  0  0  0
  9 10  1  0  0  0  0
  9 13  2  0  0  0  0
 10 11  2  0  0  0  0
 11 12  1  0  0  0  0
 11 15  1  0  0  0  0
 12 16  1  0  0  0  0
 13 12  1  0  0  0  0
 14 10  1  0  0  0  0
 18 19  2  0  0  0  0
 18 17  1  0  0  0  0
 20 24  1  0  0  0  0
 20 18  1  0  0  0  0
 21 20  1  0  0  0  0
 22 21  1  0  0  0  0
 22 23  1  0  0  0  0
 23 24  1  0  0  0  0
 24 25  1  0  0  0  0
M  END
>  <minimizedAffinity>
-5.56612921

>  <minimizedRMSD>
0.57577306

$$$$
