
 OpenBabel03252500253D

 34 36  0  0  1  0  0  0  0  0999 V2000
   46.8910   30.4980   48.2950 C   0  0  2  0  0  0  0  0  0  0  0  0
   45.4390   30.7670   48.3570 C   0  0  2  0  0  0  0  0  0  0  0  0
   44.8630   29.7900   47.3950 C   0  0  0  0  0  0  0  0  0  0  0  0
   45.6840   28.6760   47.3860 O   0  0  0  0  0  0  0  0  0  0  0  0
   46.8180   28.9660   48.0710 C   0  0  0  0  0  0  0  0  0  0  0  0
   47.5510   30.7890   47.5340 H   0  0  0  0  0  0  0  0  0  0  0  0
   45.1540   30.5250   49.4180 H   0  0  0  0  0  0  0  0  0  0  0  0
   43.9150   29.4030   47.8830 H   0  0  0  0  0  0  0  0  0  0  0  0
   44.5060   30.1490   46.4370 H   0  0  0  0  0  0  0  0  0  0  0  0
   46.6880   28.5690   49.1180 H   0  0  0  0  0  0  0  0  0  0  0  0
   47.7440   28.5580   47.6710 H   0  0  0  0  0  0  0  0  0  0  0  0
   45.1080   32.0670   48.0500 O   0  0  0  0  0  0  0  0  0  0  0  0
   47.3650   32.9240   47.1690 O   0  0  0  0  0  0  0  0  0  0  0  0
   45.9680   32.5890   46.7250 P   0  0  1  0  0  0  0  0  0  0  0  0
   46.0490   31.3390   45.5830 O   0  0  0  0  0  0  0  0  0  0  0  0
   45.4850   31.5640   44.8010 H   0  0  0  0  0  0  0  0  0  0  0  0
   45.2930   33.9970   46.0300 O   0  0  0  0  0  0  0  0  0  0  0  0
   44.9020   35.6690   42.9090 C   0  0  0  0  0  0  0  0  0  0  0  0
   46.0220   35.2430   42.1370 C   0  0  0  0  0  0  0  0  0  0  0  0
   46.9180   34.3470   42.7600 C   0  0  0  0  0  0  0  0  0  0  0  0
   46.6540   33.9590   44.0270 N   0  0  0  0  0  0  0  0  0  0  0  0
   45.5760   34.3920   44.7170 C   0  0  0  0  0  0  0  0  0  0  0  0
   44.7090   35.2470   44.1470 N   0  0  0  0  0  0  0  0  0  0  0  0
   46.2100   35.5660   41.1330 H   0  0  0  0  0  0  0  0  0  0  0  0
   47.7920   33.9770   42.2430 H   0  0  0  0  0  0  0  0  0  0  0  0
   44.0370   36.5450   42.2910 O   0  0  0  0  0  0  0  0  0  0  0  0
   44.4750   37.3580   41.8310 H   0  0  0  0  0  0  0  0  0  0  0  0
   47.5870   30.7920   49.4330 O   0  0  0  0  0  0  0  0  0  0  0  0
   49.2870   28.3690   48.9940 H   0  0  0  0  0  0  0  0  0  0  0  0
   49.1930   29.3670   48.7070 N   0  0  0  0  0  0  0  0  0  0  0  0
   50.3800   29.9250   48.1400 C   0  0  0  0  0  2  0  0  0  0  0  0
   50.9720   30.8650   49.1610 C   0  0  0  0  0  2  0  0  0  0  0  0
   49.7730   31.3210   49.9560 C   0  0  0  0  0  2  0  0  0  0  0  0
   48.7250   30.2160   49.7690 C   0  0  1  0  0  3  0  0  0  0  0  0
  1  6  1  6  0  0  0
  1  2  1  0  0  0  0
  1 28  1  0  0  0  0
  2  7  1  1  0  0  0
  3  8  1  0  0  0  0
  3  2  1  0  0  0  0
  4  3  1  0  0  0  0
  4  5  1  0  0  0  0
  5  1  1  0  0  0  0
  5 10  1  0  0  0  0
  9  3  1  0  0  0  0
 11  5  1  0  0  0  0
 12  2  1  0  0  0  0
 14 13  2  1  0  0  0
 14 12  1  0  0  0  0
 15 14  1  0  0  0  0
 16 15  1  0  0  0  0
 17 14  1  0  0  0  0
 18 23  1  0  0  0  0
 19 20  1  0  0  0  0
 19 18  2  0  0  0  0
 20 21  2  0  0  0  0
 21 22  1  0  0  0  0
 22 17  1  0  0  0  0
 23 22  2  0  0  0  0
 24 19  1  0  0  0  0
 25 20  1  0  0  0  0
 26 18  1  0  0  0  0
 27 26  1  0  0  0  0
 30 29  1  0  0  0  0
 30 34  1  0  0  0  0
 31 30  1  0  0  0  0
 31 32  1  0  0  0  0
 32 33  1  0  0  0  0
 34 28  1  6  0  0  0
 34 33  1  0  0  0  0
M  END
>  <minimizedAffinity>
-4.75693607

>  <minimizedRMSD>
0.80687952

$$$$
