
 OpenBabel03252508493D

 25 27  0  0  0  0  0  0  0  0999 V2000
   45.8910   34.1860   41.0050 C   0  0  0  0  0  0  0  0  0  0  0  0
   46.5050   34.7990   42.1170 C   0  0  0  0  0  0  0  0  0  0  0  0
   47.8550   35.1370   41.9910 C   0  0  0  0  0  0  0  0  0  0  0  0
   48.4880   34.8530   40.8090 N   0  0  0  0  0  0  0  0  0  0  0  0
   47.8630   34.2700   39.7870 C   0  0  0  0  0  0  0  0  0  0  0  0
   46.5610   33.9360   39.8830 N   0  0  0  0  0  0  0  0  0  0  0  0
   48.3550   35.6110   42.8290 H   0  0  0  0  0  0  0  0  0  0  0  0
   48.3560   34.0420   38.8510 H   0  0  0  0  0  0  0  0  0  0  0  0
   45.7380   35.0550   43.3230 C   0  0  0  0  0  0  0  0  0  0  0  0
   45.0880   36.2410   43.5730 C   0  0  0  0  0  0  0  0  0  0  0  0
   44.5070   36.0320   44.8080 C   0  0  0  0  0  0  0  0  0  0  0  0
   44.7880   34.7920   45.2790 N   0  0  0  0  0  0  0  0  0  0  0  0
   45.5330   34.2250   44.3610 N   0  0  0  0  0  0  0  0  0  0  0  0
   45.0220   37.1490   42.9700 H   0  0  0  0  0  0  0  0  0  0  0  0
   43.8950   36.7640   45.3510 H   0  0  0  0  0  0  0  0  0  0  0  0
   44.4470   34.4240   46.2000 H   0  0  0  0  0  0  0  0  0  0  0  0
   44.5620   33.8500   41.1190 O   0  0  0  0  0  0  0  0  0  0  0  0
   43.5060   34.5570   40.6060 C   0  0  0  0  0  0  0  0  0  0  0  0
   43.1840   35.7690   40.8270 O   0  0  0  0  0  0  0  0  0  0  0  0
   42.4370   34.2620   39.7050 N   0  0  0  0  0  0  0  0  0  0  0  0
   41.9520   32.8960   39.6660 C   0  0  0  0  0  2  0  0  0  0  0  0
   41.4490   32.8300   38.2230 C   0  0  0  0  0  2  0  0  0  0  0  0
   40.6740   34.1560   38.2120 C   0  0  0  0  0  2  0  0  0  0  0  0
   41.7150   35.0900   38.7900 C   0  0  0  0  0  3  0  0  0  0  0  0
   41.2770   35.9890   39.2740 H   0  0  0  0  0  0  0  0  0  0  0  0
  1 17  1  0  0  0  0
  1  2  1  0  0  0  0
  2  9  1  0  0  0  0
  3  2  2  0  0  0  0
  3  7  1  0  0  0  0
  4  3  1  0  0  0  0
  5  6  1  0  0  0  0
  5  4  2  0  0  0  0
  6  1  2  0  0  0  0
  8  5  1  0  0  0  0
  9 10  1  0  0  0  0
  9 13  2  0  0  0  0
 10 11  2  0  0  0  0
 11 12  1  0  0  0  0
 11 15  1  0  0  0  0
 12 16  1  0  0  0  0
 13 12  1  0  0  0  0
 14 10  1  0  0  0  0
 18 19  2  0  0  0  0
 18 17  1  0  0  0  0
 20 18  1  0  0  0  0
 21 20  1  0  0  0  0
 22 21  1  0  0  0  0
 23 22  1  0  0  0  0
 23 24  1  0  0  0  0
 24 25  1  0  0  0  0
 24 20  1  0  0  0  0
M  END
>  <minimizedAffinity>
-5.53805208

>  <minimizedRMSD>
0.521687031

$$$$
