
 OpenBabel03252508493D

 25 27  0  0  0  0  0  0  0  0999 V2000
   46.0220   34.2040   41.0060 C   0  0  0  0  0  0  0  0  0  0  0  0
   46.5920   34.8310   42.1340 C   0  0  0  0  0  0  0  0  0  0  0  0
   47.9360   35.2010   42.0430 C   0  0  0  0  0  0  0  0  0  0  0  0
   48.6060   34.9350   40.8770 N   0  0  0  0  0  0  0  0  0  0  0  0
   48.0220   34.3400   39.8390 C   0  0  0  0  0  0  0  0  0  0  0  0
   46.7270   33.9730   39.9010 N   0  0  0  0  0  0  0  0  0  0  0  0
   48.4030   35.6860   42.8940 H   0  0  0  0  0  0  0  0  0  0  0  0
   48.5440   34.1250   38.9150 H   0  0  0  0  0  0  0  0  0  0  0  0
   45.7880   35.0660   43.3210 C   0  0  0  0  0  0  0  0  0  0  0  0
   45.0840   36.2250   43.5430 C   0  0  0  0  0  0  0  0  0  0  0  0
   44.4850   36.0040   44.7680 C   0  0  0  0  0  0  0  0  0  0  0  0
   44.8070   34.7820   45.2580 N   0  0  0  0  0  0  0  0  0  0  0  0
   45.5960   34.2380   44.3630 N   0  0  0  0  0  0  0  0  0  0  0  0
   44.9930   37.1240   42.9300 H   0  0  0  0  0  0  0  0  0  0  0  0
   43.8300   36.7150   45.2890 H   0  0  0  0  0  0  0  0  0  0  0  0
   44.4620   34.4080   46.1750 H   0  0  0  0  0  0  0  0  0  0  0  0
   44.6990   33.8360   41.0850 O   0  0  0  0  0  0  0  0  0  0  0  0
   43.6460   34.4840   40.4930 C   0  0  0  0  0  0  0  0  0  0  0  0
   43.2910   35.7000   40.6240 O   0  0  0  0  0  0  0  0  0  0  0  0
   42.6130   34.1070   39.5810 N   0  0  0  0  0  0  0  0  0  0  0  0
   42.1010   35.1310   38.6910 C   0  0  0  0  0  2  0  0  0  0  0  0
   40.6770   34.6160   38.4790 C   0  0  0  0  0  2  0  0  0  0  0  0
   41.0250   33.1470   38.2010 C   0  0  0  0  0  2  0  0  0  0  0  0
   41.9520   32.8580   39.3600 C   0  0  0  0  0  3  0  0  0  0  0  0
   42.6630   32.0260   39.1590 H   0  0  0  0  0  0  0  0  0  0  0  0
  1 17  1  0  0  0  0
  1  2  1  0  0  0  0
  2  9  1  0  0  0  0
  3  2  2  0  0  0  0
  3  7  1  0  0  0  0
  4  3  1  0  0  0  0
  5  6  1  0  0  0  0
  5  4  2  0  0  0  0
  6  1  2  0  0  0  0
  8  5  1  0  0  0  0
  9 10  1  0  0  0  0
  9 13  2  0  0  0  0
 10 11  2  0  0  0  0
 11 12  1  0  0  0  0
 11 15  1  0  0  0  0
 12 16  1  0  0  0  0
 13 12  1  0  0  0  0
 14 10  1  0  0  0  0
 18 19  2  0  0  0  0
 18 17  1  0  0  0  0
 20 18  1  0  0  0  0
 21 20  1  0  0  0  0
 22 21  1  0  0  0  0
 23 22  1  0  0  0  0
 23 24  1  0  0  0  0
 24 20  1  0  0  0  0
 25 24  1  0  0  0  0
M  END
>  <minimizedAffinity>
-5.599648

>  <minimizedRMSD>
0.345423877

$$$$
