
 OpenBabel03252508493D

 25 27  0  0  0  0  0  0  0  0999 V2000
   45.9270   34.1240   41.0290 C   0  0  0  0  0  0  0  0  0  0  0  0
   46.5180   34.7960   42.1190 C   0  0  0  0  0  0  0  0  0  0  0  0
   47.8490   35.1930   41.9750 C   0  0  0  0  0  0  0  0  0  0  0  0
   48.4880   34.9080   40.7960 N   0  0  0  0  0  0  0  0  0  0  0  0
   47.8860   34.2700   39.7940 C   0  0  0  0  0  0  0  0  0  0  0  0
   46.6020   33.8770   39.9090 N   0  0  0  0  0  0  0  0  0  0  0  0
   48.3320   35.7120   42.7960 H   0  0  0  0  0  0  0  0  0  0  0  0
   48.3830   34.0410   38.8600 H   0  0  0  0  0  0  0  0  0  0  0  0
   45.7470   35.0470   43.3250 C   0  0  0  0  0  0  0  0  0  0  0  0
   45.0520   36.2110   43.5520 C   0  0  0  0  0  0  0  0  0  0  0  0
   44.4860   36.0050   44.7950 C   0  0  0  0  0  0  0  0  0  0  0  0
   44.8170   34.7880   45.2910 N   0  0  0  0  0  0  0  0  0  0  0  0
   45.5800   34.2310   44.3810 N   0  0  0  0  0  0  0  0  0  0  0  0
   44.9480   37.1030   42.9320 H   0  0  0  0  0  0  0  0  0  0  0  0
   43.8470   36.7240   45.3260 H   0  0  0  0  0  0  0  0  0  0  0  0
   44.4960   34.4260   46.2210 H   0  0  0  0  0  0  0  0  0  0  0  0
   44.6160   33.7290   41.1610 O   0  0  0  0  0  0  0  0  0  0  0  0
   43.5250   34.3690   40.6340 C   0  0  0  0  0  0  0  0  0  0  0  0
   43.2970   35.6200   40.5690 O   0  0  0  0  0  0  0  0  0  0  0  0
   42.3140   33.9460   40.0050 N   0  0  0  0  0  0  0  0  0  0  0  0
   42.3490   32.7070   39.2500 C   0  0  0  0  0  2  0  0  0  0  0  0
   41.2520   32.9870   38.2220 C   0  0  0  0  0  2  0  0  0  0  0  0
   40.1900   33.5270   39.1900 C   0  0  0  0  0  2  0  0  0  0  0  0
   41.0100   34.5320   39.9690 C   0  0  0  0  0  3  0  0  0  0  0  0
   40.6040   34.7400   40.9830 H   0  0  0  0  0  0  0  0  0  0  0  0
  1 17  1  0  0  0  0
  1  2  1  0  0  0  0
  2  9  1  0  0  0  0
  3  2  2  0  0  0  0
  3  7  1  0  0  0  0
  4  3  1  0  0  0  0
  5  6  1  0  0  0  0
  5  4  2  0  0  0  0
  6  1  2  0  0  0  0
  8  5  1  0  0  0  0
  9 10  1  0  0  0  0
  9 13  2  0  0  0  0
 10 11  2  0  0  0  0
 11 12  1  0  0  0  0
 11 15  1  0  0  0  0
 12 16  1  0  0  0  0
 13 12  1  0  0  0  0
 14 10  1  0  0  0  0
 18 17  1  0  0  0  0
 19 18  2  0  0  0  0
 20 18  1  0  0  0  0
 21 20  1  0  0  0  0
 22 23  1  0  0  0  0
 22 21  1  0  0  0  0
 23 24  1  0  0  0  0
 24 20  1  0  0  0  0
 24 25  1  0  0  0  0
M  END
>  <minimizedAffinity>
-5.36410427

>  <minimizedRMSD>
0.553454041

$$$$
