
 OpenBabel03252508493D

 25 27  0  0  0  0  0  0  0  0999 V2000
   45.9310   34.1440   41.0180 C   0  0  0  0  0  0  0  0  0  0  0  0
   46.5230   34.8000   42.1180 C   0  0  0  0  0  0  0  0  0  0  0  0
   47.8600   35.1820   41.9850 C   0  0  0  0  0  0  0  0  0  0  0  0
   48.5040   34.8980   40.8080 N   0  0  0  0  0  0  0  0  0  0  0  0
   47.9000   34.2750   39.7980 C   0  0  0  0  0  0  0  0  0  0  0  0
   46.6100   33.8970   39.9010 N   0  0  0  0  0  0  0  0  0  0  0  0
   48.3440   35.6890   42.8130 H   0  0  0  0  0  0  0  0  0  0  0  0
   48.4010   34.0470   38.8650 H   0  0  0  0  0  0  0  0  0  0  0  0
   45.7470   35.0520   43.3200 C   0  0  0  0  0  0  0  0  0  0  0  0
   45.0440   36.2120   43.5400 C   0  0  0  0  0  0  0  0  0  0  0  0
   44.4760   36.0080   44.7820 C   0  0  0  0  0  0  0  0  0  0  0  0
   44.8140   34.7960   45.2850 N   0  0  0  0  0  0  0  0  0  0  0  0
   45.5830   34.2400   44.3790 N   0  0  0  0  0  0  0  0  0  0  0  0
   44.9350   37.1000   42.9150 H   0  0  0  0  0  0  0  0  0  0  0  0
   43.8310   36.7260   45.3080 H   0  0  0  0  0  0  0  0  0  0  0  0
   44.4930   34.4360   46.2160 H   0  0  0  0  0  0  0  0  0  0  0  0
   44.6150   33.7640   41.1390 O   0  0  0  0  0  0  0  0  0  0  0  0
   43.5440   34.3670   40.5320 C   0  0  0  0  0  0  0  0  0  0  0  0
   43.2210   35.5980   40.5380 O   0  0  0  0  0  0  0  0  0  0  0  0
   42.4550   33.9130   39.7250 N   0  0  0  0  0  0  0  0  0  0  0  0
   42.3900   32.4950   39.4260 C   0  0  0  0  0  2  0  0  0  0  0  0
   41.6630   32.5390   38.0800 C   0  0  0  0  0  2  0  0  0  0  0  0
   40.5500   33.5200   38.4750 C   0  0  0  0  0  2  0  0  0  0  0  0
   41.3650   34.6170   39.1240 C   0  0  0  0  0  3  0  0  0  0  0  0
   40.7860   35.2200   39.8570 H   0  0  0  0  0  0  0  0  0  0  0  0
  1 17  1  0  0  0  0
  1  2  1  0  0  0  0
  2  9  1  0  0  0  0
  3  2  2  0  0  0  0
  3  7  1  0  0  0  0
  4  3  1  0  0  0  0
  5  6  1  0  0  0  0
  5  4  2  0  0  0  0
  6  1  2  0  0  0  0
  8  5  1  0  0  0  0
  9 10  1  0  0  0  0
  9 13  2  0  0  0  0
 10 11  2  0  0  0  0
 11 12  1  0  0  0  0
 11 15  1  0  0  0  0
 12 16  1  0  0  0  0
 13 12  1  0  0  0  0
 14 10  1  0  0  0  0
 18 19  2  0  0  0  0
 18 17  1  0  0  0  0
 20 18  1  0  0  0  0
 21 20  1  0  0  0  0
 22 23  1  0  0  0  0
 22 21  1  0  0  0  0
 23 24  1  0  0  0  0
 24 20  1  0  0  0  0
 24 25  1  0  0  0  0
M  END
>  <minimizedAffinity>
-5.36299849

>  <minimizedRMSD>
0.321397513

$$$$
