
 OpenBabel03252503073D

 24 26  0  0  0  0  0  0  0  0999 V2000
   45.2260   36.1720   43.4450 C   0  0  0  0  0  0  0  0  0  0  0  0
   45.9550   35.0310   43.0630 C   0  0  0  0  0  0  0  0  0  0  0  0
   45.9810   34.0080   44.0080 C   0  0  0  0  0  0  0  0  0  0  0  0
   45.3500   34.1120   45.1960 N   0  0  0  0  0  0  0  0  0  0  0  0
   44.6540   35.2440   45.5170 C   0  0  0  0  0  0  0  0  0  0  0  0
   44.5990   36.2610   44.6390 N   0  0  0  0  0  0  0  0  0  0  0  0
   45.1420   37.0240   42.7860 H   0  0  0  0  0  0  0  0  0  0  0  0
   44.1720   35.2690   46.4780 H   0  0  0  0  0  0  0  0  0  0  0  0
   46.6780   32.8410   43.7180 C   0  0  0  0  0  0  0  0  0  0  0  0
   47.9990   32.5280   43.5080 C   0  0  0  0  0  0  0  0  0  0  0  0
   48.4580   31.3280   43.2350 C   0  0  0  0  0  0  0  0  0  0  0  0
   47.5130   30.3370   43.1670 C   0  0  0  0  0  0  0  0  0  0  0  0
   45.9360   31.2490   43.5180 S   0  0  0  0  0  0  0  0  0  0  0  0
   48.8610   33.1760   43.5610 H   0  0  0  0  0  0  0  0  0  0  0  0
   49.3400   30.7780   43.0330 H   0  0  0  0  0  0  0  0  0  0  0  0
   47.2790   29.2140   42.9880 H   0  0  0  0  0  0  0  0  0  0  0  0
   46.5850   34.9650   41.8010 C   0  0  0  0  0  0  0  0  0  0  0  0
   47.7870   35.4160   41.7820 O   0  0  0  0  0  0  0  0  0  0  0  0
   45.5410   34.3760   40.9740 N   0  0  0  0  0  0  0  0  0  0  0  0
   45.2540   33.3870   39.9620 C   0  0  0  0  0  0  0  0  0  0  0  0
   44.1210   32.5950   40.6150 C   0  0  0  0  0  0  0  0  0  0  0  0
   43.4830   33.5910   41.5920 C   0  0  0  0  0  0  0  0  0  0  0  0
   44.1620   34.8750   41.0920 C   0  0  0  0  0  0  0  0  0  0  0  0
   44.0490   35.6930   41.7970 H   0  0  0  0  0  0  0  0  0  0  0  0
  1  6  1  0  0  0  0
  2  1  2  0  0  0  0
  2  3  1  0  0  0  0
  3  4  2  0  0  0  0
  4  5  1  0  0  0  0
  5  8  1  0  0  0  0
  6  5  2  0  0  0  0
  7  1  1  0  0  0  0
  9  3  1  0  0  0  0
 10 14  1  0  0  0  0
 10  9  2  0  0  0  0
 11 10  1  0  0  0  0
 12 11  2  0  0  0  0
 12 13  1  0  0  0  0
 13  9  1  0  0  0  0
 15 11  1  0  0  0  0
 16 12  1  0  0  0  0
 17  2  1  0  0  0  0
 18 17  2  0  0  0  0
 19 23  1  0  0  0  0
 19 17  1  0  0  0  0
 20 21  1  0  0  0  0
 20 19  1  0  0  0  0
 21 22  1  0  0  0  0
 23 22  1  0  0  0  0
 23 24  1  0  0  0  0
M  END
>  <minimizedAffinity>
-4.60507011

>  <minimizedRMSD>
1.02111673

$$$$
