
 OpenBabel03252502233D

 31 33  0  0  1  0  0  0  0  0999 V2000
   46.8750   34.6200   42.2750 N   0  0  0  0  0  0  0  0  0  0  0  0
   48.3200   34.6980   42.3270 C   0  0  0  0  0  0  0  0  0  0  0  0
   48.7140   35.4570   41.0650 C   0  0  0  0  0  0  0  0  0  0  0  0
   48.3380   34.6690   39.8370 C   0  0  0  0  0  0  0  0  0  0  0  0
   47.0330   33.9720   39.9210 C   0  0  0  0  0  0  0  0  0  0  0  0
   46.1530   34.3610   41.0600 C   0  0  1  0  0  0  0  0  0  0  0  0
   48.6720   35.2800   43.2020 H   0  0  0  0  0  0  0  0  0  0  0  0
   48.7460   33.7010   42.2490 H   0  0  0  0  0  0  0  0  0  0  0  0
   49.8260   35.5610   41.1050 H   0  0  0  0  0  0  0  0  0  0  0  0
   48.2020   36.4300   41.1180 H   0  0  0  0  0  0  0  0  0  0  0  0
   48.3310   35.3940   38.9950 H   0  0  0  0  0  0  0  0  0  0  0  0
   49.1710   33.9540   39.5710 H   0  0  0  0  0  0  0  0  0  0  0  0
   46.4810   34.0980   38.9620 H   0  0  0  0  0  0  0  0  0  0  0  0
   47.2530   32.8720   40.0530 H   0  0  0  0  0  0  0  0  0  0  0  0
   45.5740   35.2680   40.7540 H   0  0  0  0  0  0  0  0  0  0  0  0
   44.4890   35.9790   44.8230 C   0  0  0  0  0  0  0  0  0  0  0  0
   45.2110   35.8940   43.6180 C   0  0  0  0  0  0  0  0  0  0  0  0
   46.0920   34.8030   43.4620 C   0  0  0  0  0  0  0  0  0  0  0  0
   46.1900   33.9010   44.4850 N   0  0  0  0  0  0  0  0  0  0  0  0
   45.4670   34.0380   45.6220 C   0  0  0  0  0  0  0  0  0  0  0  0
   44.6130   35.0860   45.7860 N   0  0  0  0  0  0  0  0  0  0  0  0
   43.8390   36.8440   44.8600 H   0  0  0  0  0  0  0  0  0  0  0  0
   45.1420   36.6020   42.8010 H   0  0  0  0  0  0  0  0  0  0  0  0
   45.5400   33.3320   46.4260 H   0  0  0  0  0  0  0  0  0  0  0  0
   45.2330   33.3230   41.2740 O   0  0  0  0  0  0  0  0  0  0  0  0
   43.5250   35.5600   40.1550 H   0  0  0  0  0  0  0  0  0  0  0  0
   43.8930   34.6050   39.9790 N   0  0  0  0  0  0  0  0  0  0  0  0
   43.2020   33.8980   38.9430 C   0  0  0  0  0  2  0  0  0  0  0  0
   42.1270   33.1470   39.6990 C   0  0  0  0  0  2  0  0  0  0  0  0
   42.9400   32.6290   40.8850 C   0  0  0  0  0  2  0  0  0  0  0  0
   43.9210   33.7580   41.1660 C   0  0  1  0  0  3  0  0  0  0  0  0
  1  2  1  0  0  0  0
  1 18  1  0  0  0  0
  2  7  1  0  0  0  0
  3  9  1  0  0  0  0
  3 10  1  0  0  0  0
  3  2  1  0  0  0  0
  4  5  1  0  0  0  0
  4  3  1  0  0  0  0
  5 14  1  0  0  0  0
  5  6  1  0  0  0  0
  6 15  1  6  0  0  0
  6 25  1  0  0  0  0
  6  1  1  0  0  0  0
  8  2  1  0  0  0  0
 11  4  1  0  0  0  0
 12  4  1  0  0  0  0
 13  5  1  0  0  0  0
 16 22  1  0  0  0  0
 16 21  1  0  0  0  0
 17 16  2  0  0  0  0
 18 17  1  0  0  0  0
 18 19  2  0  0  0  0
 19 20  1  0  0  0  0
 20 21  2  0  0  0  0
 20 24  1  0  0  0  0
 23 17  1  0  0  0  0
 27 26  1  0  0  0  0
 27 31  1  0  0  0  0
 28 29  1  0  0  0  0
 28 27  1  0  0  0  0
 29 30  1  0  0  0  0
 30 31  1  0  0  0  0
 31 25  1  6  0  0  0
M  END
>  <minimizedAffinity>
-5.42295218

>  <minimizedRMSD>
0.38199085

$$$$
