
 OpenBabel03252502233D

 31 33  0  0  1  0  0  0  0  0999 V2000
   46.7720   34.5950   42.2260 N   0  0  0  0  0  0  0  0  0  0  0  0
   48.2200   34.6100   42.2550 C   0  0  0  0  0  0  0  0  0  0  0  0
   48.6270   35.3370   40.9790 C   0  0  0  0  0  0  0  0  0  0  0  0
   48.1980   34.5530   39.7650 C   0  0  0  0  0  0  0  0  0  0  0  0
   46.8650   33.9160   39.8780 C   0  0  0  0  0  0  0  0  0  0  0  0
   46.0210   34.3560   41.0250 C   0  0  1  0  0  0  0  0  0  0  0  0
   48.6110   35.1850   43.1180 H   0  0  0  0  0  0  0  0  0  0  0  0
   48.6000   33.5940   42.1820 H   0  0  0  0  0  0  0  0  0  0  0  0
   49.7430   35.3920   41.0010 H   0  0  0  0  0  0  0  0  0  0  0  0
   48.1600   36.3330   41.0280 H   0  0  0  0  0  0  0  0  0  0  0  0
   48.2090   35.2690   38.9160 H   0  0  0  0  0  0  0  0  0  0  0  0
   48.9940   33.8000   39.4950 H   0  0  0  0  0  0  0  0  0  0  0  0
   46.3030   34.0560   38.9260 H   0  0  0  0  0  0  0  0  0  0  0  0
   47.0370   32.8080   40.0190 H   0  0  0  0  0  0  0  0  0  0  0  0
   45.4770   35.2850   40.7180 H   0  0  0  0  0  0  0  0  0  0  0  0
   44.4890   36.0860   44.7950 C   0  0  0  0  0  0  0  0  0  0  0  0
   45.1880   35.9570   43.5790 C   0  0  0  0  0  0  0  0  0  0  0  0
   46.0170   34.8260   43.4230 C   0  0  0  0  0  0  0  0  0  0  0  0
   46.0920   33.9320   44.4550 N   0  0  0  0  0  0  0  0  0  0  0  0
   45.3940   34.1130   45.6010 C   0  0  0  0  0  0  0  0  0  0  0  0
   44.5890   35.1990   45.7660 N   0  0  0  0  0  0  0  0  0  0  0  0
   43.8780   36.9800   44.8310 H   0  0  0  0  0  0  0  0  0  0  0  0
   45.1370   36.6570   42.7560 H   0  0  0  0  0  0  0  0  0  0  0  0
   45.4490   33.4130   46.4120 H   0  0  0  0  0  0  0  0  0  0  0  0
   45.0590   33.3620   41.2650 O   0  0  0  0  0  0  0  0  0  0  0  0
   43.4290   35.7590   40.3880 H   0  0  0  0  0  0  0  0  0  0  0  0
   43.7390   34.8030   40.1260 N   0  0  0  0  0  0  0  0  0  0  0  0
   42.9730   34.2120   39.0720 C   0  0  0  0  0  2  0  0  0  0  0  0
   41.8900   33.4600   39.8150 C   0  0  0  0  0  2  0  0  0  0  0  0
   42.7190   32.8150   40.9240 C   0  0  0  0  0  2  0  0  0  0  0  0
   43.7690   33.8690   41.2450 C   0  0  1  0  0  3  0  0  0  0  0  0
  1  2  1  0  0  0  0
  1 18  1  0  0  0  0
  2  7  1  0  0  0  0
  3  9  1  0  0  0  0
  3 10  1  0  0  0  0
  3  2  1  0  0  0  0
  4  5  1  0  0  0  0
  4  3  1  0  0  0  0
  5 14  1  0  0  0  0
  5  6  1  0  0  0  0
  6 15  1  6  0  0  0
  6 25  1  0  0  0  0
  6  1  1  0  0  0  0
  8  2  1  0  0  0  0
 11  4  1  0  0  0  0
 12  4  1  0  0  0  0
 13  5  1  0  0  0  0
 16 22  1  0  0  0  0
 16 21  1  0  0  0  0
 17 16  2  0  0  0  0
 18 17  1  0  0  0  0
 18 19  2  0  0  0  0
 19 20  1  0  0  0  0
 20 21  2  0  0  0  0
 20 24  1  0  0  0  0
 23 17  1  0  0  0  0
 27 26  1  0  0  0  0
 27 31  1  0  0  0  0
 28 29  1  0  0  0  0
 28 27  1  0  0  0  0
 29 30  1  0  0  0  0
 30 31  1  0  0  0  0
 31 25  1  6  0  0  0
M  END
>  <minimizedAffinity>
-5.43780613

>  <minimizedRMSD>
0.680920303

$$$$
