
 OpenBabel03252506463D

 39 42  0  0  1  0  0  0  0  0999 V2000
   49.7540   33.5650   41.3420 N   0  0  1  0  0  0  0  0  0  0  0  0
   50.6750   32.8240   42.2050 C   0  0  0  0  0  0  0  0  0  0  0  0
   51.1410   31.5330   41.5990 C   0  0  0  0  0  0  0  0  0  0  0  0
   49.9470   30.5800   41.5210 C   0  0  0  0  0  0  0  0  0  0  0  0
   48.6960   31.3370   41.1700 C   0  0  0  0  0  0  0  0  0  0  0  0
   49.0690   32.6340   40.5070 C   0  0  2  0  0  0  0  0  0  0  0  0
   50.1250   32.5700   43.1490 H   0  0  0  0  0  0  0  0  0  0  0  0
   51.5360   33.4360   42.4810 H   0  0  0  0  0  0  0  0  0  0  0  0
   51.5980   31.6970   40.6030 H   0  0  0  0  0  0  0  0  0  0  0  0
   51.9260   31.1350   42.2450 H   0  0  0  0  0  0  0  0  0  0  0  0
   50.1860   29.8350   40.7400 H   0  0  0  0  0  0  0  0  0  0  0  0
   49.8330   30.0600   42.4880 H   0  0  0  0  0  0  0  0  0  0  0  0
   48.2000   31.6030   42.1320 H   0  0  0  0  0  0  0  0  0  0  0  0
   47.9650   30.7970   40.5810 H   0  0  0  0  0  0  0  0  0  0  0  0
   48.0930   33.1280   40.2290 H   0  0  0  0  0  0  0  0  0  0  0  0
   47.5080   34.6830   41.9120 C   0  0  1  0  0  0  0  0  0  0  0  0
   48.5720   35.7040   41.7340 C   0  0  0  0  0  0  0  0  0  0  0  0
   48.9280   34.3460   42.1850 C   0  0  2  0  0  0  0  0  0  0  0  0
   47.0040   34.4090   40.9500 H   0  0  0  0  0  0  0  0  0  0  0  0
   48.9010   36.0360   40.7240 H   0  0  0  0  0  0  0  0  0  0  0  0
   48.6100   36.5190   42.5030 H   0  0  0  0  0  0  0  0  0  0  0  0
   49.1430   34.2050   43.2810 H   0  0  0  0  0  0  0  0  0  0  0  0
   45.6010   35.8520   43.0220 C   0  0  0  0  0  0  0  0  0  0  0  0
   46.5580   34.8320   43.0170 C   0  0  0  0  0  0  0  0  0  0  0  0
   46.5650   33.9290   44.1060 C   0  0  0  0  0  0  0  0  0  0  0  0
   45.6530   34.1010   45.0860 N   0  0  0  0  0  0  0  0  0  0  0  0
   44.7370   35.0920   45.0710 C   0  0  0  0  0  0  0  0  0  0  0  0
   44.7040   35.9740   44.0420 N   0  0  0  0  0  0  0  0  0  0  0  0
   45.6030   36.5390   42.1860 H   0  0  0  0  0  0  0  0  0  0  0  0
   47.2950   33.1390   44.1190 H   0  0  0  0  0  0  0  0  0  0  0  0
   44.0040   35.2300   45.8590 H   0  0  0  0  0  0  0  0  0  0  0  0
   49.7520   32.3790   39.2650 N   0  0  0  0  0  0  0  0  0  0  0  0
   50.6230   32.9830   39.2970 H   0  0  0  0  0  0  0  0  0  0  0  0
   48.4700   31.6000   36.4740 H   0  0  0  0  0  0  0  0  0  0  0  0
   48.2820   31.5990   37.5130 N   0  0  0  0  0  0  0  0  0  0  0  0
   46.8710   31.8900   37.6410 C   0  0  0  0  0  2  0  0  0  0  0  0
   46.8590   33.3890   37.4290 C   0  0  0  0  0  2  0  0  0  0  0  0
   47.9980   33.8210   38.3300 C   0  0  0  0  0  2  0  0  0  0  0  0
   48.9990   32.6990   38.1020 C   0  0  1  0  0  3  0  0  0  0  0  0
  1 18  1  0  0  0  0
  1  2  1  1  0  0  0
  2  8  1  0  0  0  0
  2  7  1  0  0  0  0
  3  2  1  0  0  0  0
  3 10  1  0  0  0  0
  4  3  1  0  0  0  0
  4 12  1  0  0  0  0
  5  4  1  0  0  0  0
  5 13  1  0  0  0  0
  6 15  1  6  0  0  0
  6  5  1  0  0  0  0
  6  1  1  0  0  0  0
  9  3  1  0  0  0  0
 11  4  1  0  0  0  0
 14  5  1  0  0  0  0
 16 19  1  6  0  0  0
 16 18  1  0  0  0  0
 16 24  1  0  0  0  0
 17 16  1  0  0  0  0
 17 18  1  0  0  0  0
 17 21  1  0  0  0  0
 18 22  1  1  0  0  0
 20 17  1  0  0  0  0
 23 28  1  0  0  0  0
 24 23  2  0  0  0  0
 24 25  1  0  0  0  0
 25 30  1  0  0  0  0
 25 26  2  0  0  0  0
 27 26  1  0  0  0  0
 27 31  1  0  0  0  0
 28 27  2  0  0  0  0
 29 23  1  0  0  0  0
 32 33  1  0  0  0  0
 32  6  1  0  0  0  0
 34 35  1  0  0  0  0
 35 36  1  0  0  0  0
 35 39  1  0  0  0  0
 37 36  1  0  0  0  0
 37 38  1  0  0  0  0
 39 38  1  0  0  0  0
 39 32  1  1  0  0  0
M  END
>  <minimizedAffinity>
-5.08110952

>  <minimizedRMSD>
2.40539598

$$$$
