REMARK  Name = 
REMARK  5 active torsions:
REMARK  status: ('A' for Active; 'I' for Inactive)
REMARK    1  A    between atoms: C_1  and  C_14
REMARK    2  A    between atoms: C_5  and  C_9
REMARK    3  A    between atoms: C_15  and  C_16
REMARK    4  A    between atoms: C_16  and  N_17
REMARK    5  A    between atoms: N_17  and  C_34
REMARK                            x       y       z     vdW  Elec       q    Type
REMARK                         _______ _______ _______ _____ _____    ______ ____
ROOT
ATOM      1  C   UNL     1      45.134  36.013  43.046  0.00  0.00    +0.000 A 
ATOM      2  C   UNL     1      44.151  35.800  42.091  0.00  0.00    +0.000 A 
ATOM      3  C   UNL     1      44.380  34.804  41.136  0.00  0.00    +0.000 A 
ATOM      4  N   UNL     1      45.537  34.101  41.187  0.00  0.00    +0.000 NA
ATOM      5  C   UNL     1      46.467  34.343  42.138  0.00  0.00    +0.000 A 
ATOM      6  N   UNL     1      46.268  35.291  43.058  0.00  0.00    +0.000 NA
ATOM      7  H   UNL     1      43.274  36.405  42.134  0.00  0.00    +0.000 HD
ATOM      8  H   UNL     1      43.601  34.651  40.396  0.00  0.00    +0.000 HD
ENDROOT
BRANCH   5  11
ATOM      9 CL   UNL     1      48.968  35.802  41.248  0.00  0.00    +0.000 Cl
ATOM     10  C   UNL     1      48.874  34.141  41.706  0.00  0.00    +0.000 A 
ATOM     11  C   UNL     1      47.687  33.523  42.108  0.00  0.00    +0.000 A 
ATOM     12  C   UNL     1      47.584  32.200  42.482  0.00  0.00    +0.000 A 
ATOM     13  C   UNL     1      48.751  31.474  42.443  0.00  0.00    +0.000 A 
ATOM     14  C   UNL     1      49.982  31.968  42.065  0.00  0.00    +0.000 A 
ATOM     15  C   UNL     1      49.977  33.316  41.706  0.00  0.00    +0.000 A 
ATOM     16  H   UNL     1      46.628  31.788  42.779  0.00  0.00    +0.000 HD
ATOM     17  H   UNL     1      48.642  30.422  42.744  0.00  0.00    +0.000 HD
ATOM     18  H   UNL     1      50.858  31.362  42.058  0.00  0.00    +0.000 HD
ATOM     19  H   UNL     1      50.925  33.732  41.394  0.00  0.00    +0.000 HD
ENDBRANCH   5  11
BRANCH   1  20
ATOM     20  C   UNL     1      44.923  37.056  44.070  0.00  0.00    +0.000 C 
ATOM     21  C   UNL     1      45.498  38.244  43.874  0.00  0.00    +0.000 C 
BRANCH  21  22
ATOM     22  C   UNL     1      45.230  39.260  44.952  0.00  0.00    +0.000 C 
ATOM     23  H   UNL     1      46.248  39.539  45.352  0.00  0.00    +0.000 HD
ATOM     24  H   UNL     1      44.531  38.922  45.707  0.00  0.00    +0.000 HD
BRANCH  22  25
ATOM     25  N   UNL     1      44.749  40.449  44.257  0.00  0.00    +0.000 NA
ATOM     26  H   UNL     1      43.961  40.147  43.645  0.00  0.00    +0.000 HD
BRANCH  25  32
ATOM     27  H   UNL     1      44.100  41.208  47.322  0.00  0.00    +0.000 HD
ATOM     28  N   UNL     1      44.751  40.906  46.555  0.00  0.00    +0.000 NA
ATOM     29  C   UNL     1      46.060  41.477  46.682  0.00  0.00    +0.000 C 
ATOM     30  C   UNL     1      46.214  42.515  45.615  0.00  0.00    +0.000 C 
ATOM     31  C   UNL     1      44.788  42.740  45.153  0.00  0.00    +0.000 C 
ATOM     32  C   UNL     1      44.239  41.334  45.282  0.00  0.00    +0.000 C 
ENDBRANCH  25  32
ENDBRANCH  22  25
ENDBRANCH  21  22
ENDBRANCH   1  20
TORSDOF 5
