
 OpenBabel03252506463D

 39 42  0  0  1  0  0  0  0  0999 V2000
   49.4880   33.4460   41.3400 N   0  0  1  0  0  0  0  0  0  0  0  0
   50.6590   32.9890   42.0890 C   0  0  0  0  0  0  0  0  0  0  0  0
   51.1910   31.6730   41.6030 C   0  0  0  0  0  0  0  0  0  0  0  0
   50.1640   30.5890   41.9330 C   0  0  0  0  0  0  0  0  0  0  0  0
   48.7680   31.1160   41.7460 C   0  0  0  0  0  0  0  0  0  0  0  0
   48.8060   32.3060   40.8260 C   0  0  2  0  0  0  0  0  0  0  0  0
   50.3460   32.8500   43.1560 H   0  0  0  0  0  0  0  0  0  0  0  0
   51.4540   33.7380   42.0740 H   0  0  0  0  0  0  0  0  0  0  0  0
   51.4190   31.7050   40.5200 H   0  0  0  0  0  0  0  0  0  0  0  0
   52.1370   31.4940   42.1190 H   0  0  0  0  0  0  0  0  0  0  0  0
   50.3590   29.7460   41.2430 H   0  0  0  0  0  0  0  0  0  0  0  0
   50.3180   30.2450   42.9700 H   0  0  0  0  0  0  0  0  0  0  0  0
   48.4320   31.4940   42.7400 H   0  0  0  0  0  0  0  0  0  0  0  0
   48.0290   30.3970   41.4190 H   0  0  0  0  0  0  0  0  0  0  0  0
   47.7300   32.6220   40.6920 H   0  0  0  0  0  0  0  0  0  0  0  0
   47.3340   34.7070   41.9650 C   0  0  1  0  0  0  0  0  0  0  0  0
   48.4640   35.6550   41.7900 C   0  0  0  0  0  0  0  0  0  0  0  0
   48.7300   34.2660   42.2100 C   0  0  2  0  0  0  0  0  0  0  0  0
   46.7980   34.4870   41.0050 H   0  0  0  0  0  0  0  0  0  0  0  0
   48.8010   35.9830   40.7810 H   0  0  0  0  0  0  0  0  0  0  0  0
   48.5690   36.4500   42.5730 H   0  0  0  0  0  0  0  0  0  0  0  0
   48.9500   34.0890   43.2990 H   0  0  0  0  0  0  0  0  0  0  0  0
   45.4870   35.9490   43.0980 C   0  0  0  0  0  0  0  0  0  0  0  0
   46.4120   34.8990   43.0870 C   0  0  0  0  0  0  0  0  0  0  0  0
   46.4130   34.0100   44.1870 C   0  0  0  0  0  0  0  0  0  0  0  0
   45.5260   34.2230   45.1830 N   0  0  0  0  0  0  0  0  0  0  0  0
   44.6420   35.2420   45.1730 C   0  0  0  0  0  0  0  0  0  0  0  0
   44.6160   36.1120   44.1330 N   0  0  0  0  0  0  0  0  0  0  0  0
   45.4930   36.6250   42.2530 H   0  0  0  0  0  0  0  0  0  0  0  0
   47.1170   33.1980   44.1960 H   0  0  0  0  0  0  0  0  0  0  0  0
   43.9300   35.4140   45.9740 H   0  0  0  0  0  0  0  0  0  0  0  0
   49.2680   31.9100   39.5210 N   0  0  0  0  0  0  0  0  0  0  0  0
   50.3220   31.8410   39.6090 H   0  0  0  0  0  0  0  0  0  0  0  0
   49.7570   33.1470   36.6440 H   0  0  0  0  0  0  0  0  0  0  0  0
   49.2530   32.3670   37.1490 N   0  0  0  0  0  0  0  0  0  0  0  0
   48.0000   32.2120   36.4430 C   0  0  0  0  0  2  0  0  0  0  0  0
   47.2030   33.3710   37.0010 C   0  0  0  0  0  2  0  0  0  0  0  0
   47.4750   33.2270   38.4850 C   0  0  0  0  0  2  0  0  0  0  0  0
   48.9390   32.8190   38.4790 C   0  0  1  0  0  3  0  0  0  0  0  0
  1  2  1  1  0  0  0
  1 18  1  0  0  0  0
  2  7  1  0  0  0  0
  3  4  1  0  0  0  0
  3  2  1  0  0  0  0
  3 10  1  0  0  0  0
  4 12  1  0  0  0  0
  5  4  1  0  0  0  0
  5 13  1  0  0  0  0
  6 15  1  6  0  0  0
  6  1  1  0  0  0  0
  6  5  1  0  0  0  0
  8  2  1  0  0  0  0
  9  3  1  0  0  0  0
 11  4  1  0  0  0  0
 14  5  1  0  0  0  0
 16 19  1  6  0  0  0
 16 18  1  0  0  0  0
 16 24  1  0  0  0  0
 17 16  1  0  0  0  0
 17 18  1  0  0  0  0
 17 21  1  0  0  0  0
 18 22  1  1  0  0  0
 20 17  1  0  0  0  0
 23 28  1  0  0  0  0
 24 23  2  0  0  0  0
 24 25  1  0  0  0  0
 25 30  1  0  0  0  0
 25 26  2  0  0  0  0
 27 26  1  0  0  0  0
 27 31  1  0  0  0  0
 28 27  2  0  0  0  0
 29 23  1  0  0  0  0
 32 33  1  0  0  0  0
 32  6  1  0  0  0  0
 34 35  1  0  0  0  0
 35 39  1  0  0  0  0
 36 37  1  0  0  0  0
 36 35  1  0  0  0  0
 37 38  1  0  0  0  0
 39 38  1  0  0  0  0
 39 32  1  1  0  0  0
M  END
>  <minimizedAffinity>
-4.99629164

>  <minimizedRMSD>
2.41988611

$$$$
