
 OpenBabel03242515483D

 40 43  0  0  1  0  0  0  0  0999 V2000
   37.0650   28.1470   40.2530 C   0  0  0  0  0  0  0  0  0  0  0  0
   36.8600   28.7880   41.4780 C   0  0  0  0  0  0  0  0  0  0  0  0
   36.8000   30.1620   41.5480 C   0  0  0  0  0  0  0  0  0  0  0  0
   36.9360   30.9340   40.4380 C   0  0  0  0  0  0  0  0  0  0  0  0
   37.1380   30.3180   39.2260 C   0  0  0  0  0  0  0  0  0  0  0  0
   37.2040   28.9530   39.1190 C   0  0  0  0  0  0  0  0  0  0  0  0
   37.2450   31.3330   38.2570 O   0  0  0  0  0  0  0  0  0  0  0  0
   37.3390   32.5390   38.9010 C   0  0  1  0  0  0  0  0  0  0  0  0
   36.9170   32.3170   40.2250 O   0  0  0  0  0  0  0  0  0  0  0  0
   37.1240   27.0980   40.1100 H   0  0  0  0  0  0  0  0  0  0  0  0
   36.6400   30.5580   42.5310 H   0  0  0  0  0  0  0  0  0  0  0  0
   37.3630   28.4830   38.1570 H   0  0  0  0  0  0  0  0  0  0  0  0
   36.7040   33.3050   38.3880 H   0  0  0  0  0  0  0  0  0  0  0  0
   38.7010   33.0250   38.8420 N   0  0  0  0  0  0  0  0  0  0  0  0
   38.7000   33.8500   38.1960 H   0  0  0  0  0  0  0  0  0  0  0  0
   39.8250   31.8680   36.1120 H   0  0  0  0  0  0  0  0  0  0  0  0
   40.0340   32.4760   36.9210 N   0  0  0  0  0  0  0  0  0  0  0  0
   41.4810   32.5200   37.1200 C   0  0  0  0  0  2  0  0  0  0  0  0
   41.6750   31.2500   37.9440 C   0  0  0  0  0  2  0  0  0  0  0  0
   40.6140   31.4970   39.0190 C   0  0  0  0  0  2  0  0  0  0  0  0
   39.4700   31.9850   38.1640 C   0  0  1  0  0  3  0  0  0  0  0  0
   36.6980   27.6340   42.8460 S   0  0  0  0  0  0  0  0  0  0  0  0
   37.6070   26.0990   42.4370 C   0  0  0  0  0  0  0  0  0  0  0  0
   38.8870   26.0300   42.8790 C   0  0  0  0  0  0  0  0  0  0  0  0
   39.5560   24.8670   42.5480 C   0  0  0  0  0  0  0  0  0  0  0  0
   38.9810   23.8780   41.8440 N   0  0  0  0  0  0  0  0  0  0  0  0
   37.7030   23.9910   41.4250 C   0  0  0  0  0  0  0  0  0  0  0  0
   37.0500   25.1130   41.7390 N   0  0  0  0  0  0  0  0  0  0  0  0
   40.9240   24.6900   42.9550 N   0  0  0  0  0  0  0  0  0  0  0  0
   41.1960   24.4740   43.9390 H   0  0  0  0  0  0  0  0  0  0  0  0
   41.5660   24.8100   42.1340 H   0  0  0  0  0  0  0  0  0  0  0  0
   39.7710   26.9380   43.6770 C   0  0  0  0  0  0  0  0  0  0  0  0
   40.5810   27.2640   42.9860 H   0  0  0  0  0  0  0  0  0  0  0  0
   40.2720   26.3690   44.4950 H   0  0  0  0  0  0  0  0  0  0  0  0
   39.2320   27.8060   44.0630 H   0  0  0  0  0  0  0  0  0  0  0  0
   37.0110   23.0420   40.6970 O   0  0  0  0  0  0  0  0  0  0  0  0
   36.6710   23.3800   39.3560 C   0  0  0  0  0  0  0  0  0  0  0  0
   35.5560   24.1490   39.3120 F   0  0  0  0  0  0  0  0  0  0  0  0
   37.7910   24.0200   38.8000 F   0  0  0  0  0  0  0  0  0  0  0  0
   36.4010   22.1940   38.6710 F   0  0  0  0  0  0  0  0  0  0  0  0
  1  2  1  0  0  0  0
  2  3  2  0  0  0  0
  2 22  1  0  0  0  0
  3 11  1  0  0  0  0
  4  3  1  0  0  0  0
  5  4  2  0  0  0  0
  6  5  1  0  0  0  0
  6  1  2  0  0  0  0
  7  8  1  0  0  0  0
  7  5  1  0  0  0  0
  8 13  1  6  0  0  0
  8  9  1  0  0  0  0
  9  4  1  0  0  0  0
 10  1  1  0  0  0  0
 12  6  1  0  0  0  0
 14  8  1  0  0  0  0
 15 14  1  0  0  0  0
 16 17  1  0  0  0  0
 17 18  1  0  0  0  0
 17 21  1  0  0  0  0
 18 19  1  0  0  0  0
 19 20  1  0  0  0  0
 21 14  1  1  0  0  0
 21 20  1  0  0  0  0
 23 22  1  0  0  0  0
 23 24  1  0  0  0  0
 24 32  1  0  0  0  0
 25 24  2  0  0  0  0
 25 29  1  0  0  0  0
 26 25  1  0  0  0  0
 27 28  1  0  0  0  0
 27 26  2  0  0  0  0
 28 23  2  0  0  0  0
 29 30  1  0  0  0  0
 31 29  1  0  0  0  0
 32 35  1  0  0  0  0
 32 34  1  0  0  0  0
 33 32  1  0  0  0  0
 36 27  1  0  0  0  0
 37 36  1  0  0  0  0
 38 37  1  0  0  0  0
 39 37  1  0  0  0  0
 40 37  1  0  0  0  0
M  END
>  <minimizedAffinity>
-6.41317272

$$$$

 OpenBabel03242515483D

 40 43  0  0  1  0  0  0  0  0999 V2000
   41.4540   29.2620   42.2760 C   0  0  0  0  0  0  0  0  0  0  0  0
   40.6760   30.4190   42.1780 C   0  0  0  0  0  0  0  0  0  0  0  0
   39.3550   30.4100   42.5670 C   0  0  0  0  0  0  0  0  0  0  0  0
   38.7680   29.2840   43.0530 C   0  0  0  0  0  0  0  0  0  0  0  0
   39.5210   28.1380   43.1550 C   0  0  0  0  0  0  0  0  0  0  0  0
   40.8390   28.1120   42.7780 C   0  0  0  0  0  0  0  0  0  0  0  0
   38.6830   27.1370   43.6800 O   0  0  0  0  0  0  0  0  0  0  0  0
   37.3950   27.6040   43.6750 C   0  0  1  0  0  0  0  0  0  0  0  0
   37.4780   28.9990   43.5100 O   0  0  0  0  0  0  0  0  0  0  0  0
   42.4750   29.1830   42.0000 H   0  0  0  0  0  0  0  0  0  0  0  0
   38.8440   31.3450   42.4530 H   0  0  0  0  0  0  0  0  0  0  0  0
   41.4180   27.2020   42.8640 H   0  0  0  0  0  0  0  0  0  0  0  0
   36.8800   27.3310   44.6310 H   0  0  0  0  0  0  0  0  0  0  0  0
   36.6460   26.9760   42.6090 N   0  0  0  0  0  0  0  0  0  0  0  0
   35.8450   26.4690   43.0570 H   0  0  0  0  0  0  0  0  0  0  0  0
   37.6440   23.9690   42.7240 H   0  0  0  0  0  0  0  0  0  0  0  0
   36.9700   24.6180   42.2860 N   0  0  0  0  0  0  0  0  0  0  0  0
   36.5970   24.1010   40.9720 C   0  0  0  0  0  2  0  0  0  0  0  0
   37.7550   24.6390   40.1360 C   0  0  0  0  0  2  0  0  0  0  0  0
   37.7020   26.1060   40.5700 C   0  0  0  0  0  2  0  0  0  0  0  0
   37.5180   25.9410   42.0590 C   0  0  1  0  0  3  0  0  0  0  0  0
   41.5930   31.8180   41.5210 S   0  0  0  0  0  0  0  0  0  0  0  0
   41.1880   32.0100   39.7460 C   0  0  0  0  0  0  0  0  0  0  0  0
   41.9310   32.9150   39.0610 C   0  0  0  0  0  0  0  0  0  0  0  0
   41.5980   33.0490   37.7260 C   0  0  0  0  0  0  0  0  0  0  0  0
   40.6160   32.3370   37.1500 N   0  0  0  0  0  0  0  0  0  0  0  0
   39.9030   31.4460   37.8730 C   0  0  0  0  0  0  0  0  0  0  0  0
   40.2170   31.3110   39.1640 N   0  0  0  0  0  0  0  0  0  0  0  0
   42.3120   33.9900   36.9050 N   0  0  0  0  0  0  0  0  0  0  0  0
   43.2840   33.8180   36.5650 H   0  0  0  0  0  0  0  0  0  0  0  0
   41.7170   34.8340   36.7180 H   0  0  0  0  0  0  0  0  0  0  0  0
   43.0690   33.8210   39.4160 C   0  0  0  0  0  0  0  0  0  0  0  0
   42.6750   34.8590   39.3250 H   0  0  0  0  0  0  0  0  0  0  0  0
   43.8840   33.7320   38.6590 H   0  0  0  0  0  0  0  0  0  0  0  0
   43.4380   33.6440   40.4280 H   0  0  0  0  0  0  0  0  0  0  0  0
   38.8750   30.6610   37.3880 O   0  0  0  0  0  0  0  0  0  0  0  0
   37.5520   31.0220   37.7740 C   0  0  0  0  0  0  0  0  0  0  0  0
   37.4280   32.3650   37.9020 F   0  0  0  0  0  0  0  0  0  0  0  0
   36.6860   30.4890   36.8060 F   0  0  0  0  0  0  0  0  0  0  0  0
   37.2980   30.4460   39.0200 F   0  0  0  0  0  0  0  0  0  0  0  0
  1  6  1  0  0  0  0
  2  1  2  0  0  0  0
  2  3  1  0  0  0  0
  3  4  2  0  0  0  0
  4  5  1  0  0  0  0
  4  9  1  0  0  0  0
  5  7  1  0  0  0  0
  6 12  1  0  0  0  0
  6  5  2  0  0  0  0
  8  7  1  0  0  0  0
  8 13  1  1  0  0  0
  9  8  1  0  0  0  0
 10  1  1  0  0  0  0
 11  3  1  0  0  0  0
 14 15  1  0  0  0  0
 14  8  1  0  0  0  0
 17 16  1  0  0  0  0
 18 17  1  0  0  0  0
 19 20  1  0  0  0  0
 19 18  1  0  0  0  0
 20 21  1  0  0  0  0
 21 17  1  0  0  0  0
 21 14  1  6  0  0  0
 22  2  1  0  0  0  0
 23 22  1  0  0  0  0
 24 32  1  0  0  0  0
 24 23  2  0  0  0  0
 25 24  1  0  0  0  0
 26 25  2  0  0  0  0
 26 27  1  0  0  0  0
 27 28  2  0  0  0  0
 28 23  1  0  0  0  0
 29 25  1  0  0  0  0
 30 29  1  0  0  0  0
 31 29  1  0  0  0  0
 32 35  1  0  0  0  0
 33 32  1  0  0  0  0
 34 32  1  0  0  0  0
 36 37  1  0  0  0  0
 36 27  1  0  0  0  0
 37 38  1  0  0  0  0
 37 40  1  0  0  0  0
 39 37  1  0  0  0  0
M  END
>  <minimizedAffinity>
-6.39318991

$$$$

 OpenBabel03242515483D

 40 43  0  0  1  0  0  0  0  0999 V2000
   36.6450   29.1640   35.9990 C   0  0  0  0  0  0  0  0  0  0  0  0
   36.5070   29.1590   37.3900 C   0  0  0  0  0  0  0  0  0  0  0  0
   35.2590   29.1120   37.9710 C   0  0  0  0  0  0  0  0  0  0  0  0
   34.1290   29.0690   37.2160 C   0  0  0  0  0  0  0  0  0  0  0  0
   34.2490   29.0730   35.8470 C   0  0  0  0  0  0  0  0  0  0  0  0
   35.4750   29.1190   35.2350 C   0  0  0  0  0  0  0  0  0  0  0  0
   32.9460   29.0230   35.3160 O   0  0  0  0  0  0  0  0  0  0  0  0
   32.0540   29.2210   36.3380 C   0  0  1  0  0  0  0  0  0  0  0  0
   32.7680   29.0160   37.5340 O   0  0  0  0  0  0  0  0  0  0  0  0
   37.5650   29.1990   35.4730 H   0  0  0  0  0  0  0  0  0  0  0  0
   35.2590   29.1120   39.0420 H   0  0  0  0  0  0  0  0  0  0  0  0
   35.5520   29.1220   34.1560 H   0  0  0  0  0  0  0  0  0  0  0  0
   31.1930   28.5120   36.2450 H   0  0  0  0  0  0  0  0  0  0  0  0
   31.5010   30.5550   36.2600 N   0  0  0  0  0  0  0  0  0  0  0  0
   32.0130   31.1380   36.9630 H   0  0  0  0  0  0  0  0  0  0  0  0
   29.2150   28.7210   37.4710 H   0  0  0  0  0  0  0  0  0  0  0  0
   29.9910   29.3650   37.6990 N   0  0  0  0  0  0  0  0  0  0  0  0
   29.7250   29.9870   38.9930 C   0  0  0  0  0  2  0  0  0  0  0  0
   28.8180   31.1340   38.5560 C   0  0  0  0  0  2  0  0  0  0  0  0
   29.6900   31.7180   37.4420 C   0  0  0  0  0  2  0  0  0  0  0  0
   30.1280   30.4510   36.7480 C   0  0  1  0  0  3  0  0  0  0  0  0
   38.0870   29.2170   38.2440 S   0  0  0  0  0  0  0  0  0  0  0  0
   37.9110   28.4000   39.8730 C   0  0  0  0  0  0  0  0  0  0  0  0
   37.5800   29.2080   40.9110 C   0  0  0  0  0  0  0  0  0  0  0  0
   37.4640   28.5700   42.1310 C   0  0  0  0  0  0  0  0  0  0  0  0
   37.6610   27.2490   42.2780 N   0  0  0  0  0  0  0  0  0  0  0  0
   37.9880   26.4840   41.2150 C   0  0  0  0  0  0  0  0  0  0  0  0
   38.1040   27.0930   40.0320 N   0  0  0  0  0  0  0  0  0  0  0  0
   37.1290   29.3300   43.3040 N   0  0  0  0  0  0  0  0  0  0  0  0
   36.1660   29.6890   43.4880 H   0  0  0  0  0  0  0  0  0  0  0  0
   37.9760   29.4560   43.9110 H   0  0  0  0  0  0  0  0  0  0  0  0
   37.2890   30.6710   41.0500 C   0  0  0  0  0  0  0  0  0  0  0  0
   38.1150   31.0900   41.6690 H   0  0  0  0  0  0  0  0  0  0  0  0
   36.3530   30.8240   41.6370 H   0  0  0  0  0  0  0  0  0  0  0  0
   37.2470   31.1770   40.0840 H   0  0  0  0  0  0  0  0  0  0  0  0
   38.2130   25.1210   41.2470 O   0  0  0  0  0  0  0  0  0  0  0  0
   37.0660   24.2800   41.3090 C   0  0  0  0  0  0  0  0  0  0  0  0
   36.1740   24.5950   40.3380 F   0  0  0  0  0  0  0  0  0  0  0  0
   37.5250   22.9560   41.2120 F   0  0  0  0  0  0  0  0  0  0  0  0
   36.4480   24.4900   42.5440 F   0  0  0  0  0  0  0  0  0  0  0  0
  1  2  1  0  0  0  0
  2  3  2  0  0  0  0
  2 22  1  0  0  0  0
  3 11  1  0  0  0  0
  4  9  1  0  0  0  0
  4  3  1  0  0  0  0
  5  4  2  0  0  0  0
  6  5  1  0  0  0  0
  6  1  2  0  0  0  0
  7  5  1  0  0  0  0
  7  8  1  0  0  0  0
  8 13  1  6  0  0  0
  8  9  1  0  0  0  0
 10  1  1  0  0  0  0
 12  6  1  0  0  0  0
 14  8  1  0  0  0  0
 14 15  1  0  0  0  0
 16 17  1  0  0  0  0
 17 18  1  0  0  0  0
 19 18  1  0  0  0  0
 20 19  1  0  0  0  0
 21 14  1  1  0  0  0
 21 20  1  0  0  0  0
 21 17  1  0  0  0  0
 22 23  1  0  0  0  0
 23 28  2  0  0  0  0
 23 24  1  0  0  0  0
 24 32  1  0  0  0  0
 24 25  2  0  0  0  0
 25 26  1  0  0  0  0
 25 29  1  0  0  0  0
 27 36  1  0  0  0  0
 27 26  2  0  0  0  0
 28 27  1  0  0  0  0
 29 30  1  0  0  0  0
 29 31  1  0  0  0  0
 32 34  1  0  0  0  0
 32 33  1  0  0  0  0
 35 32  1  0  0  0  0
 36 37  1  0  0  0  0
 37 40  1  0  0  0  0
 38 37  1  0  0  0  0
 39 37  1  0  0  0  0
M  END
>  <minimizedAffinity>
-6.2213788

$$$$

 OpenBabel03242515483D

 40 43  0  0  1  0  0  0  0  0999 V2000
   36.4540   29.2800   36.0020 C   0  0  0  0  0  0  0  0  0  0  0  0
   36.3150   29.2540   37.3920 C   0  0  0  0  0  0  0  0  0  0  0  0
   35.0670   29.1900   37.9710 C   0  0  0  0  0  0  0  0  0  0  0  0
   33.9380   29.1490   37.2150 C   0  0  0  0  0  0  0  0  0  0  0  0
   34.0590   29.1730   35.8460 C   0  0  0  0  0  0  0  0  0  0  0  0
   35.2850   29.2360   35.2360 C   0  0  0  0  0  0  0  0  0  0  0  0
   32.7570   29.1200   35.3130 O   0  0  0  0  0  0  0  0  0  0  0  0
   31.8630   29.2970   36.3370 C   0  0  1  0  0  0  0  0  0  0  0  0
   32.5770   29.0820   37.5300 O   0  0  0  0  0  0  0  0  0  0  0  0
   37.3740   29.3280   35.4770 H   0  0  0  0  0  0  0  0  0  0  0  0
   35.0660   29.1750   39.0420 H   0  0  0  0  0  0  0  0  0  0  0  0
   35.3640   29.2540   34.1570 H   0  0  0  0  0  0  0  0  0  0  0  0
   31.0070   28.5830   36.2330 H   0  0  0  0  0  0  0  0  0  0  0  0
   31.3000   30.6290   36.2760 N   0  0  0  0  0  0  0  0  0  0  0  0
   30.4410   30.6230   36.8760 H   0  0  0  0  0  0  0  0  0  0  0  0
   28.9840   30.1870   34.1550 H   0  0  0  0  0  0  0  0  0  0  0  0
   29.3820   30.8440   34.8470 N   0  0  0  0  0  0  0  0  0  0  0  0
   29.0260   32.2080   34.4630 C   0  0  0  0  0  2  0  0  0  0  0  0
   30.1350   32.4980   33.4560 C   0  0  0  0  0  2  0  0  0  0  0  0
   31.3430   32.0920   34.3040 C   0  0  0  0  0  2  0  0  0  0  0  0
   30.8300   30.8040   34.9040 C   0  0  1  0  0  3  0  0  0  0  0  0
   37.8940   29.3130   38.2480 S   0  0  0  0  0  0  0  0  0  0  0  0
   37.7310   28.4440   39.8520 C   0  0  0  0  0  0  0  0  0  0  0  0
   37.3640   29.2100   40.9090 C   0  0  0  0  0  0  0  0  0  0  0  0
   37.2590   28.5330   42.1100 C   0  0  0  0  0  0  0  0  0  0  0  0
   37.4990   27.2160   42.2200 N   0  0  0  0  0  0  0  0  0  0  0  0
   37.8610   26.4930   41.1390 C   0  0  0  0  0  0  0  0  0  0  0  0
   37.9670   27.1400   39.9760 N   0  0  0  0  0  0  0  0  0  0  0  0
   36.8880   29.2480   43.3010 N   0  0  0  0  0  0  0  0  0  0  0  0
   35.9130   29.5690   43.4850 H   0  0  0  0  0  0  0  0  0  0  0  0
   37.7260   29.3840   43.9190 H   0  0  0  0  0  0  0  0  0  0  0  0
   37.0240   30.6580   41.0870 C   0  0  0  0  0  0  0  0  0  0  0  0
   37.8290   31.0860   41.7250 H   0  0  0  0  0  0  0  0  0  0  0  0
   36.0780   30.7630   41.6690 H   0  0  0  0  0  0  0  0  0  0  0  0
   36.9720   31.1900   40.1350 H   0  0  0  0  0  0  0  0  0  0  0  0
   38.1310   25.1390   41.1350 O   0  0  0  0  0  0  0  0  0  0  0  0
   37.0200   24.2590   41.2780 C   0  0  0  0  0  0  0  0  0  0  0  0
   36.0820   24.4960   40.3300 F   0  0  0  0  0  0  0  0  0  0  0  0
   37.5260   22.9500   41.2230 F   0  0  0  0  0  0  0  0  0  0  0  0
   36.4410   24.5020   42.5250 F   0  0  0  0  0  0  0  0  0  0  0  0
  1  2  1  0  0  0  0
  2  3  2  0  0  0  0
  2 22  1  0  0  0  0
  3 11  1  0  0  0  0
  4  9  1  0  0  0  0
  4  3  1  0  0  0  0
  5  4  2  0  0  0  0
  6  5  1  0  0  0  0
  6  1  2  0  0  0  0
  7  5  1  0  0  0  0
  7  8  1  0  0  0  0
  8 13  1  6  0  0  0
  8  9  1  0  0  0  0
 10  1  1  0  0  0  0
 12  6  1  0  0  0  0
 14  8  1  0  0  0  0
 14 15  1  0  0  0  0
 16 17  1  0  0  0  0
 17 21  1  0  0  0  0
 18 17  1  0  0  0  0
 19 20  1  0  0  0  0
 19 18  1  0  0  0  0
 20 21  1  0  0  0  0
 21 14  1  1  0  0  0
 22 23  1  0  0  0  0
 23 28  2  0  0  0  0
 23 24  1  0  0  0  0
 24 32  1  0  0  0  0
 24 25  2  0  0  0  0
 25 26  1  0  0  0  0
 25 29  1  0  0  0  0
 27 26  2  0  0  0  0
 28 27  1  0  0  0  0
 29 30  1  0  0  0  0
 29 31  1  0  0  0  0
 32 34  1  0  0  0  0
 32 33  1  0  0  0  0
 35 32  1  0  0  0  0
 36 27  1  0  0  0  0
 36 37  1  0  0  0  0
 37 40  1  0  0  0  0
 38 37  1  0  0  0  0
 39 37  1  0  0  0  0
M  END
>  <minimizedAffinity>
-6.05377865

$$$$

 OpenBabel03242515483D

 40 43  0  0  1  0  0  0  0  0999 V2000
   36.9670   30.4090   36.6590 C   0  0  0  0  0  0  0  0  0  0  0  0
   35.8870   29.5360   36.8170 C   0  0  0  0  0  0  0  0  0  0  0  0
   35.3450   29.3100   38.0620 C   0  0  0  0  0  0  0  0  0  0  0  0
   35.8370   29.9240   39.1710 C   0  0  0  0  0  0  0  0  0  0  0  0
   36.8990   30.7850   39.0310 C   0  0  0  0  0  0  0  0  0  0  0  0
   37.4640   31.0340   37.8070 C   0  0  0  0  0  0  0  0  0  0  0  0
   37.2060   31.2760   40.3140 O   0  0  0  0  0  0  0  0  0  0  0  0
   36.4990   30.5500   41.2370 C   0  0  1  0  0  0  0  0  0  0  0  0
   35.4870   29.8790   40.5240 O   0  0  0  0  0  0  0  0  0  0  0  0
   37.4430   30.6390   35.7400 H   0  0  0  0  0  0  0  0  0  0  0  0
   34.5210   28.6250   38.0780 H   0  0  0  0  0  0  0  0  0  0  0  0
   38.2990   31.7150   37.7140 H   0  0  0  0  0  0  0  0  0  0  0  0
   36.0730   31.2260   42.0200 H   0  0  0  0  0  0  0  0  0  0  0  0
   37.3800   29.6290   41.9210 N   0  0  0  0  0  0  0  0  0  0  0  0
   38.2290   29.5160   41.3170 H   0  0  0  0  0  0  0  0  0  0  0  0
   36.6010   27.0280   40.2820 H   0  0  0  0  0  0  0  0  0  0  0  0
   37.2950   27.4450   40.9250 N   0  0  0  0  0  0  0  0  0  0  0  0
   37.9400   26.3760   41.6840 C   0  0  0  0  0  2  0  0  0  0  0  0
   36.9190   26.1920   42.8030 C   0  0  0  0  0  2  0  0  0  0  0  0
   36.7830   27.6500   43.2470 C   0  0  0  0  0  2  0  0  0  0  0  0
   36.7020   28.3350   41.9040 C   0  0  1  0  0  3  0  0  0  0  0  0
   35.3520   28.8080   35.2630 S   0  0  0  0  0  0  0  0  0  0  0  0
   33.5240   28.8680   35.1800 C   0  0  0  0  0  0  0  0  0  0  0  0
   32.8680   27.8250   35.7480 C   0  0  0  0  0  0  0  0  0  0  0  0
   31.4900   27.8880   35.6630 C   0  0  0  0  0  0  0  0  0  0  0  0
   30.8490   28.9060   35.0640 N   0  0  0  0  0  0  0  0  0  0  0  0
   31.5440   29.9230   34.5140 C   0  0  0  0  0  0  0  0  0  0  0  0
   32.8760   29.8690   34.5900 N   0  0  0  0  0  0  0  0  0  0  0  0
   30.6920   26.8300   36.2200 N   0  0  0  0  0  0  0  0  0  0  0  0
   30.5450   26.7150   37.2470 H   0  0  0  0  0  0  0  0  0  0  0  0
   30.3050   26.2250   35.4550 H   0  0  0  0  0  0  0  0  0  0  0  0
   33.2960   26.5900   36.4800 C   0  0  0  0  0  0  0  0  0  0  0  0
   33.0140   25.7340   35.8270 H   0  0  0  0  0  0  0  0  0  0  0  0
   32.7050   26.4730   37.4180 H   0  0  0  0  0  0  0  0  0  0  0  0
   34.3700   26.5770   36.6760 H   0  0  0  0  0  0  0  0  0  0  0  0
   30.9930   31.0180   33.8760 O   0  0  0  0  0  0  0  0  0  0  0  0
   30.9260   32.2300   34.6190 C   0  0  0  0  0  0  0  0  0  0  0  0
   31.0420   31.9970   35.9490 F   0  0  0  0  0  0  0  0  0  0  0  0
   31.9400   33.0680   34.1260 F   0  0  0  0  0  0  0  0  0  0  0  0
   29.6720   32.8020   34.3920 F   0  0  0  0  0  0  0  0  0  0  0  0
  1  2  2  0  0  0  0
  1  6  1  0  0  0  0
  2  3  1  0  0  0  0
  3 11  1  0  0  0  0
  3  4  2  0  0  0  0
  4  9  1  0  0  0  0
  5  4  1  0  0  0  0
  5  7  1  0  0  0  0
  6  5  2  0  0  0  0
  7  8  1  0  0  0  0
  8 14  1  0  0  0  0
  8 13  1  1  0  0  0
  9  8  1  0  0  0  0
 10  1  1  0  0  0  0
 12  6  1  0  0  0  0
 15 14  1  0  0  0  0
 16 17  1  0  0  0  0
 17 18  1  0  0  0  0
 17 21  1  0  0  0  0
 18 19  1  0  0  0  0
 19 20  1  0  0  0  0
 21 14  1  1  0  0  0
 21 20  1  0  0  0  0
 22  2  1  0  0  0  0
 23 22  1  0  0  0  0
 23 24  1  0  0  0  0
 24 32  1  0  0  0  0
 25 24  2  0  0  0  0
 25 29  1  0  0  0  0
 26 25  1  0  0  0  0
 27 28  1  0  0  0  0
 27 26  2  0  0  0  0
 28 23  2  0  0  0  0
 29 30  1  0  0  0  0
 31 29  1  0  0  0  0
 32 35  1  0  0  0  0
 32 34  1  0  0  0  0
 33 32  1  0  0  0  0
 36 27  1  0  0  0  0
 36 37  1  0  0  0  0
 37 38  1  0  0  0  0
 39 37  1  0  0  0  0
 40 37  1  0  0  0  0
M  END
>  <minimizedAffinity>
-6.01891518

$$$$

 OpenBabel03242515483D

 40 43  0  0  1  0  0  0  0  0999 V2000
   38.5920   29.2490   42.3430 C   0  0  0  0  0  0  0  0  0  0  0  0
   37.3220   29.1270   41.7730 C   0  0  0  0  0  0  0  0  0  0  0  0
   36.7260   27.8920   41.6460 C   0  0  0  0  0  0  0  0  0  0  0  0
   37.3480   26.7600   42.0680 C   0  0  0  0  0  0  0  0  0  0  0  0
   38.5980   26.8640   42.6310 C   0  0  0  0  0  0  0  0  0  0  0  0
   39.2210   28.0770   42.7730 C   0  0  0  0  0  0  0  0  0  0  0  0
   39.0070   25.5620   42.9750 O   0  0  0  0  0  0  0  0  0  0  0  0
   38.1270   24.6700   42.4200 C   0  0  1  0  0  0  0  0  0  0  0  0
   36.9840   25.4090   42.0620 O   0  0  0  0  0  0  0  0  0  0  0  0
   39.1200   30.1580   42.4780 H   0  0  0  0  0  0  0  0  0  0  0  0
   35.7530   27.9040   41.1970 H   0  0  0  0  0  0  0  0  0  0  0  0
   40.2050   28.1420   43.2180 H   0  0  0  0  0  0  0  0  0  0  0  0
   37.8820   23.8590   43.1530 H   0  0  0  0  0  0  0  0  0  0  0  0
   38.7330   24.0240   41.2770 N   0  0  0  0  0  0  0  0  0  0  0  0
   39.0020   24.7820   40.6060 H   0  0  0  0  0  0  0  0  0  0  0  0
   36.1130   24.0860   39.4920 H   0  0  0  0  0  0  0  0  0  0  0  0
   37.1420   23.9910   39.4780 N   0  0  0  0  0  0  0  0  0  0  0  0
   37.5310   23.2170   38.3020 C   0  0  0  0  0  2  0  0  0  0  0  0
   37.3440   21.8020   38.8410 C   0  0  0  0  0  2  0  0  0  0  0  0
   38.1490   21.9290   40.1350 C   0  0  0  0  0  2  0  0  0  0  0  0
   37.6640   23.2720   40.6250 C   0  0  1  0  0  3  0  0  0  0  0  0
   36.6330   30.7090   41.2690 S   0  0  0  0  0  0  0  0  0  0  0  0
   37.8730   31.6000   40.2600 C   0  0  0  0  0  0  0  0  0  0  0  0
   37.8300   31.3700   38.9240 C   0  0  0  0  0  0  0  0  0  0  0  0
   38.7830   32.0460   38.1850 C   0  0  0  0  0  0  0  0  0  0  0  0
   39.6830   32.8700   38.7480 N   0  0  0  0  0  0  0  0  0  0  0  0
   39.6870   33.0690   40.0820 C   0  0  0  0  0  0  0  0  0  0  0  0
   38.7710   32.4180   40.8040 N   0  0  0  0  0  0  0  0  0  0  0  0
   38.8380   31.8680   36.7590 N   0  0  0  0  0  0  0  0  0  0  0  0
   38.1430   32.2970   36.1100 H   0  0  0  0  0  0  0  0  0  0  0  0
   39.6550   31.2620   36.5000 H   0  0  0  0  0  0  0  0  0  0  0  0
   36.9580   30.5420   38.0300 C   0  0  0  0  0  0  0  0  0  0  0  0
   37.6140   29.7430   37.6170 H   0  0  0  0  0  0  0  0  0  0  0  0
   36.6160   31.1460   37.1570 H   0  0  0  0  0  0  0  0  0  0  0  0
   36.1170   30.1000   38.5680 H   0  0  0  0  0  0  0  0  0  0  0  0
   40.5620   33.8900   40.7670 O   0  0  0  0  0  0  0  0  0  0  0  0
   41.9400   33.5290   40.7410 C   0  0  0  0  0  0  0  0  0  0  0  0
   42.6050   34.0530   41.7980 F   0  0  0  0  0  0  0  0  0  0  0  0
   41.9930   32.1260   40.7100 F   0  0  0  0  0  0  0  0  0  0  0  0
   42.4980   34.0600   39.5760 F   0  0  0  0  0  0  0  0  0  0  0  0
  1 10  1  0  0  0  0
  1  6  1  0  0  0  0
  2  1  2  0  0  0  0
  3  2  1  0  0  0  0
  3  4  2  0  0  0  0
  4  5  1  0  0  0  0
  5  6  2  0  0  0  0
  5  7  1  0  0  0  0
  6 12  1  0  0  0  0
  8  7  1  0  0  0  0
  8 13  1  1  0  0  0
  9  4  1  0  0  0  0
  9  8  1  0  0  0  0
 11  3  1  0  0  0  0
 14  8  1  0  0  0  0
 15 14  1  0  0  0  0
 17 16  1  0  0  0  0
 17 21  1  0  0  0  0
 18 19  1  0  0  0  0
 18 17  1  0  0  0  0
 19 20  1  0  0  0  0
 20 21  1  0  0  0  0
 21 14  1  6  0  0  0
 22  2  1  0  0  0  0
 23 28  1  0  0  0  0
 23 22  1  0  0  0  0
 24 23  2  0  0  0  0
 25 26  2  0  0  0  0
 25 24  1  0  0  0  0
 26 27  1  0  0  0  0
 27 36  1  0  0  0  0
 27 28  2  0  0  0  0
 29 25  1  0  0  0  0
 30 29  1  0  0  0  0
 31 29  1  0  0  0  0
 32 35  1  0  0  0  0
 32 24  1  0  0  0  0
 33 32  1  0  0  0  0
 34 32  1  0  0  0  0
 37 36  1  0  0  0  0
 37 38  1  0  0  0  0
 39 37  1  0  0  0  0
 40 37  1  0  0  0  0
M  END
>  <minimizedAffinity>
-5.96797943

$$$$

 OpenBabel03242515483D

 40 43  0  0  1  0  0  0  0  0999 V2000
   36.4620   29.4990   35.1920 C   0  0  0  0  0  0  0  0  0  0  0  0
   36.4090   29.1510   36.5450 C   0  0  0  0  0  0  0  0  0  0  0  0
   35.2010   28.9090   37.1600 C   0  0  0  0  0  0  0  0  0  0  0  0
   34.0290   29.0010   36.4770 C   0  0  0  0  0  0  0  0  0  0  0  0
   34.0650   29.3430   35.1460 C   0  0  0  0  0  0  0  0  0  0  0  0
   35.2490   29.5900   34.5020 C   0  0  0  0  0  0  0  0  0  0  0  0
   32.7340   29.3670   34.6880 O   0  0  0  0  0  0  0  0  0  0  0  0
   31.9010   29.2710   35.7720 C   0  0  1  0  0  0  0  0  0  0  0  0
   32.6920   28.8140   36.8430 O   0  0  0  0  0  0  0  0  0  0  0  0
   37.3470   29.7000   34.6440 H   0  0  0  0  0  0  0  0  0  0  0  0
   35.2660   28.6490   38.1970 H   0  0  0  0  0  0  0  0  0  0  0  0
   35.2610   29.8580   33.4540 H   0  0  0  0  0  0  0  0  0  0  0  0
   31.0570   28.5690   35.5520 H   0  0  0  0  0  0  0  0  0  0  0  0
   31.3040   30.5600   36.0510 N   0  0  0  0  0  0  0  0  0  0  0  0
   31.8820   31.0050   36.8030 H   0  0  0  0  0  0  0  0  0  0  0  0
   29.4660   28.5180   37.6340 H   0  0  0  0  0  0  0  0  0  0  0  0
   30.1240   29.3100   37.7280 N   0  0  0  0  0  0  0  0  0  0  0  0
   29.8250   30.0300   38.9630 C   0  0  0  0  0  2  0  0  0  0  0  0
   28.7000   30.9390   38.4750 C   0  0  0  0  0  2  0  0  0  0  0  0
   29.3840   31.5260   37.2380 C   0  0  0  0  0  2  0  0  0  0  0  0
   30.0050   30.2790   36.6560 C   0  0  1  0  0  3  0  0  0  0  0  0
   38.0360   29.0690   37.3040 S   0  0  0  0  0  0  0  0  0  0  0  0
   37.9270   29.7240   39.0100 C   0  0  0  0  0  0  0  0  0  0  0  0
   37.7850   31.0680   39.1230 C   0  0  0  0  0  0  0  0  0  0  0  0
   37.7170   31.5390   40.4200 C   0  0  0  0  0  0  0  0  0  0  0  0
   37.7830   30.7270   41.4890 N   0  0  0  0  0  0  0  0  0  0  0  0
   37.9240   29.3950   41.3270 C   0  0  0  0  0  0  0  0  0  0  0  0
   37.9930   28.9310   40.0760 N   0  0  0  0  0  0  0  0  0  0  0  0
   37.5780   32.9500   40.6600 N   0  0  0  0  0  0  0  0  0  0  0  0
   36.6820   33.4630   40.5090 H   0  0  0  0  0  0  0  0  0  0  0  0
   38.4880   33.3530   40.9940 H   0  0  0  0  0  0  0  0  0  0  0  0
   37.6680   32.1960   38.1440 C   0  0  0  0  0  0  0  0  0  0  0  0
   38.5890   32.8090   38.2720 H   0  0  0  0  0  0  0  0  0  0  0  0
   36.8140   32.8590   38.4190 H   0  0  0  0  0  0  0  0  0  0  0  0
   37.5890   31.8430   37.1140 H   0  0  0  0  0  0  0  0  0  0  0  0
   38.0030   28.4680   42.3480 O   0  0  0  0  0  0  0  0  0  0  0  0
   37.0250   27.4330   42.3560 C   0  0  0  0  0  0  0  0  0  0  0  0
   35.9350   27.7830   41.6320 F   0  0  0  0  0  0  0  0  0  0  0  0
   37.6510   26.2760   41.8660 F   0  0  0  0  0  0  0  0  0  0  0  0
   36.6180   27.2400   43.6780 F   0  0  0  0  0  0  0  0  0  0  0  0
  1  2  1  0  0  0  0
  2  3  2  0  0  0  0
  2 22  1  0  0  0  0
  3 11  1  0  0  0  0
  4  9  1  0  0  0  0
  4  3  1  0  0  0  0
  5  4  2  0  0  0  0
  6  5  1  0  0  0  0
  6  1  2  0  0  0  0
  7  5  1  0  0  0  0
  7  8  1  0  0  0  0
  8 13  1  6  0  0  0
  8 14  1  0  0  0  0
  8  9  1  0  0  0  0
 10  1  1  0  0  0  0
 12  6  1  0  0  0  0
 14 15  1  0  0  0  0
 16 17  1  0  0  0  0
 17 18  1  0  0  0  0
 19 18  1  0  0  0  0
 20 19  1  0  0  0  0
 21 14  1  1  0  0  0
 21 20  1  0  0  0  0
 21 17  1  0  0  0  0
 22 23  1  0  0  0  0
 23 24  2  0  0  0  0
 23 28  1  0  0  0  0
 24 25  1  0  0  0  0
 25 29  1  0  0  0  0
 25 26  2  0  0  0  0
 27 26  1  0  0  0  0
 27 36  1  0  0  0  0
 28 27  2  0  0  0  0
 29 31  1  0  0  0  0
 30 29  1  0  0  0  0
 32 33  1  0  0  0  0
 32 34  1  0  0  0  0
 32 24  1  0  0  0  0
 35 32  1  0  0  0  0
 36 37  1  0  0  0  0
 37 40  1  0  0  0  0
 38 37  1  0  0  0  0
 39 37  1  0  0  0  0
M  END
>  <minimizedAffinity>
-5.9254179

$$$$

 OpenBabel03242515483D

 40 43  0  0  1  0  0  0  0  0999 V2000
   36.3370   29.4820   41.3730 C   0  0  0  0  0  0  0  0  0  0  0  0
   37.4310   29.6020   42.2350 C   0  0  0  0  0  0  0  0  0  0  0  0
   38.4010   30.5520   42.0060 C   0  0  0  0  0  0  0  0  0  0  0  0
   38.3270   31.3980   40.9450 C   0  0  0  0  0  0  0  0  0  0  0  0
   37.2560   31.2920   40.0890 C   0  0  0  0  0  0  0  0  0  0  0  0
   36.2730   30.3580   40.2860 C   0  0  0  0  0  0  0  0  0  0  0  0
   37.4240   32.2710   39.0920 O   0  0  0  0  0  0  0  0  0  0  0  0
   38.6830   32.7990   39.2100 C   0  0  1  0  0  0  0  0  0  0  0  0
   39.1510   32.4310   40.4850 O   0  0  0  0  0  0  0  0  0  0  0  0
   35.5480   28.7800   41.4760 H   0  0  0  0  0  0  0  0  0  0  0  0
   39.1990   30.5650   42.7220 H   0  0  0  0  0  0  0  0  0  0  0  0
   35.4360   30.2870   39.6040 H   0  0  0  0  0  0  0  0  0  0  0  0
   38.6510   33.9110   39.0860 H   0  0  0  0  0  0  0  0  0  0  0  0
   39.5320   32.2910   38.1550 N   0  0  0  0  0  0  0  0  0  0  0  0
   39.5080   31.2460   38.2230 H   0  0  0  0  0  0  0  0  0  0  0  0
   41.9890   31.9690   40.1330 H   0  0  0  0  0  0  0  0  0  0  0  0
   41.5660   31.6350   39.2510 N   0  0  0  0  0  0  0  0  0  0  0  0
   42.6240   31.1330   38.3780 C   0  0  0  0  0  2  0  0  0  0  0  0
   43.0820   32.4390   37.7370 C   0  0  0  0  0  2  0  0  0  0  0  0
   41.7230   32.9750   37.2820 C   0  0  0  0  0  2  0  0  0  0  0  0
   40.8940   32.6840   38.5090 C   0  0  1  0  0  3  0  0  0  0  0  0
   37.3840   28.4180   43.5860 S   0  0  0  0  0  0  0  0  0  0  0  0
   37.8940   26.7770   42.9540 C   0  0  0  0  0  0  0  0  0  0  0  0
   39.2070   26.4690   43.0900 C   0  0  0  0  0  0  0  0  0  0  0  0
   39.5690   25.2300   42.5950 C   0  0  0  0  0  0  0  0  0  0  0  0
   38.6850   24.3940   42.0250 N   0  0  0  0  0  0  0  0  0  0  0  0
   37.3870   24.7440   41.9120 C   0  0  0  0  0  0  0  0  0  0  0  0
   37.0290   25.9400   42.3860 N   0  0  0  0  0  0  0  0  0  0  0  0
   40.9390   24.8030   42.6750 N   0  0  0  0  0  0  0  0  0  0  0  0
   41.3820   24.4900   43.5660 H   0  0  0  0  0  0  0  0  0  0  0  0
   41.3930   24.8600   41.7300 H   0  0  0  0  0  0  0  0  0  0  0  0
   40.3930   27.1690   43.6790 C   0  0  0  0  0  0  0  0  0  0  0  0
   41.0730   27.3920   42.8260 H   0  0  0  0  0  0  0  0  0  0  0  0
   40.9550   26.4780   44.3500 H   0  0  0  0  0  0  0  0  0  0  0  0
   40.1150   28.0920   44.1920 H   0  0  0  0  0  0  0  0  0  0  0  0
   36.3940   23.9670   41.3460 O   0  0  0  0  0  0  0  0  0  0  0  0
   36.2590   24.0260   39.9300 C   0  0  0  0  0  0  0  0  0  0  0  0
   36.3880   25.2960   39.4770 F   0  0  0  0  0  0  0  0  0  0  0  0
   37.2240   23.1590   39.3920 F   0  0  0  0  0  0  0  0  0  0  0  0
   34.9750   23.5820   39.6040 F   0  0  0  0  0  0  0  0  0  0  0  0
  1 10  1  0  0  0  0
  1  2  1  0  0  0  0
  2 22  1  0  0  0  0
  3  2  2  0  0  0  0
  3 11  1  0  0  0  0
  4  3  1  0  0  0  0
  5  6  1  0  0  0  0
  5  4  2  0  0  0  0
  6  1  2  0  0  0  0
  7  8  1  0  0  0  0
  7  5  1  0  0  0  0
  8 13  1  6  0  0  0
  8  9  1  0  0  0  0
  9  4  1  0  0  0  0
 12  6  1  0  0  0  0
 14 15  1  0  0  0  0
 14  8  1  0  0  0  0
 17 16  1  0  0  0  0
 18 17  1  0  0  0  0
 19 18  1  0  0  0  0
 20 19  1  0  0  0  0
 20 21  1  0  0  0  0
 21 14  1  6  0  0  0
 21 17  1  0  0  0  0
 23 24  1  0  0  0  0
 23 22  1  0  0  0  0
 24 32  1  0  0  0  0
 25 29  1  0  0  0  0
 25 24  2  0  0  0  0
 26 25  1  0  0  0  0
 27 26  2  0  0  0  0
 27 28  1  0  0  0  0
 28 23  2  0  0  0  0
 29 30  1  0  0  0  0
 31 29  1  0  0  0  0
 32 35  1  0  0  0  0
 32 34  1  0  0  0  0
 33 32  1  0  0  0  0
 36 27  1  0  0  0  0
 37 36  1  0  0  0  0
 38 37  1  0  0  0  0
 39 37  1  0  0  0  0
 40 37  1  0  0  0  0
M  END
>  <minimizedAffinity>
-5.87132978

$$$$

 OpenBabel03242515483D

 40 43  0  0  1  0  0  0  0  0999 V2000
   38.6670   28.8550   42.1500 C   0  0  0  0  0  0  0  0  0  0  0  0
   37.4190   28.7300   41.5310 C   0  0  0  0  0  0  0  0  0  0  0  0
   36.8020   27.5030   41.4410 C   0  0  0  0  0  0  0  0  0  0  0  0
   37.3800   26.3810   41.9480 C   0  0  0  0  0  0  0  0  0  0  0  0
   38.6060   26.4890   42.5590 C   0  0  0  0  0  0  0  0  0  0  0  0
   39.2490   27.6950   42.6660 C   0  0  0  0  0  0  0  0  0  0  0  0
   38.9710   25.1990   42.9870 O   0  0  0  0  0  0  0  0  0  0  0  0
   38.0960   24.2970   42.4410 C   0  0  1  0  0  0  0  0  0  0  0  0
   36.9860   25.0400   41.9950 O   0  0  0  0  0  0  0  0  0  0  0  0
   39.2090   29.7600   42.2610 H   0  0  0  0  0  0  0  0  0  0  0  0
   35.8500   27.5110   40.9500 H   0  0  0  0  0  0  0  0  0  0  0  0
   40.2150   27.7630   43.1510 H   0  0  0  0  0  0  0  0  0  0  0  0
   37.8010   23.5310   43.2020 H   0  0  0  0  0  0  0  0  0  0  0  0
   38.7360   23.5800   41.3600 N   0  0  0  0  0  0  0  0  0  0  0  0
   39.2170   24.2950   40.7640 H   0  0  0  0  0  0  0  0  0  0  0  0
   36.5010   24.1060   39.1720 H   0  0  0  0  0  0  0  0  0  0  0  0
   37.4790   23.8080   39.3260 N   0  0  0  0  0  0  0  0  0  0  0  0
   37.8870   22.9360   38.2270 C   0  0  0  0  0  2  0  0  0  0  0  0
   37.3350   21.6030   38.7270 C   0  0  0  0  0  2  0  0  0  0  0  0
   37.9320   21.6080   40.1350 C   0  0  0  0  0  2  0  0  0  0  0  0
   37.6550   23.0360   40.5410 C   0  0  1  0  0  3  0  0  0  0  0  0
   36.7890   30.2970   40.9170 S   0  0  0  0  0  0  0  0  0  0  0  0
   36.8570   30.2870   39.0880 C   0  0  0  0  0  0  0  0  0  0  0  0
   37.5760   31.2830   38.5130 C   0  0  0  0  0  0  0  0  0  0  0  0
   37.6030   31.2600   37.1320 C   0  0  0  0  0  0  0  0  0  0  0  0
   36.9670   30.3200   36.4120 N   0  0  0  0  0  0  0  0  0  0  0  0
   36.2630   29.3470   37.0280 C   0  0  0  0  0  0  0  0  0  0  0  0
   36.2310   29.3630   38.3630 N   0  0  0  0  0  0  0  0  0  0  0  0
   38.3260   32.2750   36.4150 N   0  0  0  0  0  0  0  0  0  0  0  0
   39.3680   32.2920   36.3580 H   0  0  0  0  0  0  0  0  0  0  0  0
   37.6580   32.9610   35.9850 H   0  0  0  0  0  0  0  0  0  0  0  0
   38.3840   32.4300   39.0380 C   0  0  0  0  0  0  0  0  0  0  0  0
   37.8430   33.3530   38.7290 H   0  0  0  0  0  0  0  0  0  0  0  0
   39.3770   32.4670   38.5300 H   0  0  0  0  0  0  0  0  0  0  0  0
   38.4890   32.3990   40.1240 H   0  0  0  0  0  0  0  0  0  0  0  0
   35.5720   28.3330   36.3920 O   0  0  0  0  0  0  0  0  0  0  0  0
   34.2270   28.6090   36.0160 C   0  0  0  0  0  0  0  0  0  0  0  0
   33.4940   27.4710   35.9460 F   0  0  0  0  0  0  0  0  0  0  0  0
   33.7190   29.5220   36.9540 F   0  0  0  0  0  0  0  0  0  0  0  0
   34.2490   29.1840   34.7430 F   0  0  0  0  0  0  0  0  0  0  0  0
  1 10  1  0  0  0  0
  1  6  1  0  0  0  0
  2  1  2  0  0  0  0
  3  2  1  0  0  0  0
  3  4  2  0  0  0  0
  4  9  1  0  0  0  0
  4  5  1  0  0  0  0
  5  6  2  0  0  0  0
  5  7  1  0  0  0  0
  6 12  1  0  0  0  0
  8  7  1  0  0  0  0
  8 13  1  1  0  0  0
  9  8  1  0  0  0  0
 11  3  1  0  0  0  0
 14  8  1  0  0  0  0
 15 14  1  0  0  0  0
 16 17  1  0  0  0  0
 17 21  1  0  0  0  0
 18 19  1  0  0  0  0
 18 17  1  0  0  0  0
 19 20  1  0  0  0  0
 20 21  1  0  0  0  0
 21 14  1  6  0  0  0
 22  2  1  0  0  0  0
 23 22  1  0  0  0  0
 24 32  1  0  0  0  0
 24 23  1  0  0  0  0
 25 24  2  0  0  0  0
 26 27  2  0  0  0  0
 26 25  1  0  0  0  0
 27 28  1  0  0  0  0
 28 23  2  0  0  0  0
 29 25  1  0  0  0  0
 30 29  1  0  0  0  0
 31 29  1  0  0  0  0
 32 35  1  0  0  0  0
 33 32  1  0  0  0  0
 34 32  1  0  0  0  0
 36 27  1  0  0  0  0
 37 36  1  0  0  0  0
 37 39  1  0  0  0  0
 38 37  1  0  0  0  0
 40 37  1  0  0  0  0
M  END
>  <minimizedAffinity>
-5.8458457

$$$$
