
 OpenBabel03242515483D

 40 43  0  0  1  0  0  0  0  0999 V2000
   40.5560   33.1880   41.4810 C   0  0  0  0  0  0  0  0  0  0  0  0
   41.9300   32.9390   41.5440 C   0  0  0  0  0  0  0  0  0  0  0  0
   42.4020   31.6830   41.8520 C   0  0  0  0  0  0  0  0  0  0  0  0
   41.5540   30.6510   42.1040 C   0  0  0  0  0  0  0  0  0  0  0  0
   40.1990   30.8800   42.0470 C   0  0  0  0  0  0  0  0  0  0  0  0
   39.6950   32.1180   41.7420 C   0  0  0  0  0  0  0  0  0  0  0  0
   39.5600   29.6620   42.3440 O   0  0  0  0  0  0  0  0  0  0  0  0
   40.5020   28.7780   42.8010 C   0  0  1  0  0  0  0  0  0  0  0  0
   41.7540   29.3060   42.4340 O   0  0  0  0  0  0  0  0  0  0  0  0
   40.1110   34.1220   41.2510 H   0  0  0  0  0  0  0  0  0  0  0  0
   43.4700   31.5940   41.8750 H   0  0  0  0  0  0  0  0  0  0  0  0
   38.6260   32.2820   41.7010 H   0  0  0  0  0  0  0  0  0  0  0  0
   40.3330   27.7660   42.3530 H   0  0  0  0  0  0  0  0  0  0  0  0
   40.3790   28.6210   44.2340 N   0  0  0  0  0  0  0  0  0  0  0  0
   40.9780   29.3600   44.6720 H   0  0  0  0  0  0  0  0  0  0  0  0
   42.8620   26.6890   43.8440 H   0  0  0  0  0  0  0  0  0  0  0  0
   42.4580   27.4360   44.4340 N   0  0  0  0  0  0  0  0  0  0  0  0
   42.9900   27.3110   45.7880 C   0  0  0  0  0  2  0  0  0  0  0  0
   42.0360   26.2620   46.3530 C   0  0  0  0  0  2  0  0  0  0  0  0
   40.7060   26.9140   45.9680 C   0  0  0  0  0  2  0  0  0  0  0  0
   41.0170   27.3460   44.5550 C   0  0  1  0  0  3  0  0  0  0  0  0
   42.9160   34.3980   41.1840 S   0  0  0  0  0  0  0  0  0  0  0  0
   44.5080   33.8710   40.4490 C   0  0  0  0  0  0  0  0  0  0  0  0
   44.4390   33.3290   39.2080 C   0  0  0  0  0  0  0  0  0  0  0  0
   45.6520   32.9290   38.6790 C   0  0  0  0  0  0  0  0  0  0  0  0
   46.8110   33.0690   39.3430 N   0  0  0  0  0  0  0  0  0  0  0  0
   46.8310   33.6160   40.5770 C   0  0  0  0  0  0  0  0  0  0  0  0
   45.6630   34.0040   41.0960 N   0  0  0  0  0  0  0  0  0  0  0  0
   45.6970   32.3280   37.3730 N   0  0  0  0  0  0  0  0  0  0  0  0
   45.5840   32.8800   36.4950 H   0  0  0  0  0  0  0  0  0  0  0  0
   45.8540   31.2940   37.4540 H   0  0  0  0  0  0  0  0  0  0  0  0
   43.3280   33.0640   38.2390 C   0  0  0  0  0  0  0  0  0  0  0  0
   43.2500   31.9560   38.1580 H   0  0  0  0  0  0  0  0  0  0  0  0
   43.6050   33.4310   37.2230 H   0  0  0  0  0  0  0  0  0  0  0  0
   42.3780   33.4860   38.5740 H   0  0  0  0  0  0  0  0  0  0  0  0
   47.9590   33.8090   41.3500 O   0  0  0  0  0  0  0  0  0  0  0  0
   48.5500   35.1050   41.3150 C   0  0  0  0  0  0  0  0  0  0  0  0
   49.7920   35.0920   41.8560 F   0  0  0  0  0  0  0  0  0  0  0  0
   48.5500   35.5170   39.9720 F   0  0  0  0  0  0  0  0  0  0  0  0
   47.7550   35.9580   42.0840 F   0  0  0  0  0  0  0  0  0  0  0  0
  1  2  2  0  0  0  0
  1  6  1  0  0  0  0
  2  3  1  0  0  0  0
  3 11  1  0  0  0  0
  3  4  2  0  0  0  0
  4  9  1  0  0  0  0
  5  4  1  0  0  0  0
  5  7  1  0  0  0  0
  6  5  2  0  0  0  0
  7  8  1  0  0  0  0
  8 13  1  6  0  0  0
  8 14  1  0  0  0  0
  9  8  1  0  0  0  0
 10  1  1  0  0  0  0
 12  6  1  0  0  0  0
 14 15  1  0  0  0  0
 16 17  1  0  0  0  0
 17 21  1  0  0  0  0
 17 18  1  0  0  0  0
 18 19  1  0  0  0  0
 20 19  1  0  0  0  0
 21 14  1  1  0  0  0
 21 20  1  0  0  0  0
 22  2  1  0  0  0  0
 23 28  1  0  0  0  0
 23 22  1  0  0  0  0
 24 23  2  0  0  0  0
 25 24  1  0  0  0  0
 25 26  2  0  0  0  0
 26 27  1  0  0  0  0
 27 28  2  0  0  0  0
 27 36  1  0  0  0  0
 29 31  1  0  0  0  0
 29 25  1  0  0  0  0
 30 29  1  0  0  0  0
 32 35  1  0  0  0  0
 32 24  1  0  0  0  0
 33 32  1  0  0  0  0
 34 32  1  0  0  0  0
 37 36  1  0  0  0  0
 37 38  1  0  0  0  0
 37 40  1  0  0  0  0
 39 37  1  0  0  0  0
M  END
>  <minimizedAffinity>
-5.43412542

>  <minimizedRMSD>
2.57137156

$$$$
