
 OpenBabel03242515483D

 40 43  0  0  1  0  0  0  0  0999 V2000
   40.9420   33.6210   41.2870 C   0  0  0  0  0  0  0  0  0  0  0  0
   42.3020   33.3020   41.2390 C   0  0  0  0  0  0  0  0  0  0  0  0
   42.7520   32.0810   41.6870 C   0  0  0  0  0  0  0  0  0  0  0  0
   41.8950   31.1510   42.1880 C   0  0  0  0  0  0  0  0  0  0  0  0
   40.5550   31.4500   42.2420 C   0  0  0  0  0  0  0  0  0  0  0  0
   40.0720   32.6560   41.8040 C   0  0  0  0  0  0  0  0  0  0  0  0
   39.9030   30.3320   42.7940 O   0  0  0  0  0  0  0  0  0  0  0  0
   40.8530   29.4710   43.2780 C   0  0  1  0  0  0  0  0  0  0  0  0
   42.0750   29.8620   42.7000 O   0  0  0  0  0  0  0  0  0  0  0  0
   40.5130   34.5350   40.9630 H   0  0  0  0  0  0  0  0  0  0  0  0
   43.8110   31.9320   41.6080 H   0  0  0  0  0  0  0  0  0  0  0  0
   39.0140   32.8760   41.8530 H   0  0  0  0  0  0  0  0  0  0  0  0
   40.5900   28.4150   43.0150 H   0  0  0  0  0  0  0  0  0  0  0  0
   40.8910   29.5400   44.7230 N   0  0  0  0  0  0  0  0  0  0  0  0
   41.8340   29.9130   44.9840 H   0  0  0  0  0  0  0  0  0  0  0  0
   39.7090   26.6170   44.3900 H   0  0  0  0  0  0  0  0  0  0  0  0
   40.4830   27.2500   44.1270 N   0  0  0  0  0  0  0  0  0  0  0  0
   41.6680   26.4500   43.8310 C   0  0  0  0  0  2  0  0  0  0  0  0
   42.2210   26.2590   45.2420 C   0  0  0  0  0  2  0  0  0  0  0  0
   42.2150   27.7180   45.7020 C   0  0  0  0  0  2  0  0  0  0  0  0
   40.8630   28.1570   45.1920 C   0  0  1  0  0  3  0  0  0  0  0  0
   43.3010   34.6290   40.5510 S   0  0  0  0  0  0  0  0  0  0  0  0
   44.9600   33.9700   40.1430 C   0  0  0  0  0  0  0  0  0  0  0  0
   45.0430   33.2280   39.0110 C   0  0  0  0  0  0  0  0  0  0  0  0
   46.3020   32.7330   38.7300 C   0  0  0  0  0  0  0  0  0  0  0  0
   47.3640   32.9720   39.5180 N   0  0  0  0  0  0  0  0  0  0  0  0
   47.2340   33.7170   40.6350 C   0  0  0  0  0  0  0  0  0  0  0  0
   46.0190   34.1980   40.9150 N   0  0  0  0  0  0  0  0  0  0  0  0
   46.5060   31.9220   37.5610 N   0  0  0  0  0  0  0  0  0  0  0  0
   46.5320   32.3200   36.5960 H   0  0  0  0  0  0  0  0  0  0  0  0
   46.6160   30.9140   37.8320 H   0  0  0  0  0  0  0  0  0  0  0  0
   44.0660   32.8160   37.9530 C   0  0  0  0  0  0  0  0  0  0  0  0
   43.9630   31.7110   38.0450 H   0  0  0  0  0  0  0  0  0  0  0  0
   44.4910   33.0040   36.9400 H   0  0  0  0  0  0  0  0  0  0  0  0
   43.0940   33.2970   38.0780 H   0  0  0  0  0  0  0  0  0  0  0  0
   48.2520   34.0260   41.5160 O   0  0  0  0  0  0  0  0  0  0  0  0
   48.7240   35.3700   41.5090 C   0  0  0  0  0  0  0  0  0  0  0  0
   49.9250   35.4710   42.1290 F   0  0  0  0  0  0  0  0  0  0  0  0
   48.7740   35.7780   40.1660 F   0  0  0  0  0  0  0  0  0  0  0  0
   47.8070   36.1490   42.2180 F   0  0  0  0  0  0  0  0  0  0  0  0
  1  6  1  0  0  0  0
  2  1  2  0  0  0  0
  2  3  1  0  0  0  0
  3  4  2  0  0  0  0
  4  5  1  0  0  0  0
  4  9  1  0  0  0  0
  5  7  1  0  0  0  0
  6 12  1  0  0  0  0
  6  5  2  0  0  0  0
  7  8  1  0  0  0  0
  8 13  1  6  0  0  0
  8 14  1  0  0  0  0
  9  8  1  0  0  0  0
 10  1  1  0  0  0  0
 11  3  1  0  0  0  0
 14 15  1  0  0  0  0
 17 16  1  0  0  0  0
 17 21  1  0  0  0  0
 18 17  1  0  0  0  0
 18 19  1  0  0  0  0
 19 20  1  0  0  0  0
 21 14  1  6  0  0  0
 21 20  1  0  0  0  0
 22  2  1  0  0  0  0
 23 22  1  0  0  0  0
 23 28  1  0  0  0  0
 24 23  2  0  0  0  0
 25 24  1  0  0  0  0
 25 26  2  0  0  0  0
 26 27  1  0  0  0  0
 27 28  2  0  0  0  0
 27 36  1  0  0  0  0
 29 31  1  0  0  0  0
 29 25  1  0  0  0  0
 30 29  1  0  0  0  0
 32 33  1  0  0  0  0
 32 35  1  0  0  0  0
 32 24  1  0  0  0  0
 34 32  1  0  0  0  0
 37 36  1  0  0  0  0
 37 38  1  0  0  0  0
 37 40  1  0  0  0  0
 39 37  1  0  0  0  0
M  END
>  <minimizedAffinity>
-5.79630947

>  <minimizedRMSD>
2.76130152

$$$$
