
 OpenBabel03252506473D

 39 42  0  0  1  0  0  0  0  0999 V2000
   49.7510   33.5640   41.3430 N   0  0  1  0  0  0  0  0  0  0  0  0
   50.6700   32.8230   42.2090 C   0  0  0  0  0  0  0  0  0  0  0  0
   51.1350   31.5310   41.6040 C   0  0  0  0  0  0  0  0  0  0  0  0
   49.9400   30.5790   41.5260 C   0  0  0  0  0  0  0  0  0  0  0  0
   48.6900   31.3380   41.1720 C   0  0  0  0  0  0  0  0  0  0  0  0
   49.0670   32.6340   40.5080 C   0  0  2  0  0  0  0  0  0  0  0  0
   50.1180   32.5710   43.1520 H   0  0  0  0  0  0  0  0  0  0  0  0
   51.5310   33.4340   42.4850 H   0  0  0  0  0  0  0  0  0  0  0  0
   51.5940   31.6930   40.6090 H   0  0  0  0  0  0  0  0  0  0  0  0
   51.9180   31.1320   42.2520 H   0  0  0  0  0  0  0  0  0  0  0  0
   50.1780   29.8330   40.7450 H   0  0  0  0  0  0  0  0  0  0  0  0
   49.8230   30.0610   42.4930 H   0  0  0  0  0  0  0  0  0  0  0  0
   48.1930   31.6050   42.1340 H   0  0  0  0  0  0  0  0  0  0  0  0
   47.9590   30.7990   40.5830 H   0  0  0  0  0  0  0  0  0  0  0  0
   48.0910   33.1290   40.2290 H   0  0  0  0  0  0  0  0  0  0  0  0
   47.5070   34.6870   41.9090 C   0  0  1  0  0  0  0  0  0  0  0  0
   48.5730   35.7060   41.7310 C   0  0  0  0  0  0  0  0  0  0  0  0
   48.9250   34.3470   42.1840 C   0  0  2  0  0  0  0  0  0  0  0  0
   47.0030   34.4120   40.9460 H   0  0  0  0  0  0  0  0  0  0  0  0
   48.9030   36.0360   40.7220 H   0  0  0  0  0  0  0  0  0  0  0  0
   48.6110   36.5220   42.5000 H   0  0  0  0  0  0  0  0  0  0  0  0
   49.1390   34.2070   43.2810 H   0  0  0  0  0  0  0  0  0  0  0  0
   45.6020   35.8620   43.0180 C   0  0  0  0  0  0  0  0  0  0  0  0
   46.5560   34.8380   43.0130 C   0  0  0  0  0  0  0  0  0  0  0  0
   46.5570   33.9340   44.1010 C   0  0  0  0  0  0  0  0  0  0  0  0
   45.6440   34.1090   45.0800 N   0  0  0  0  0  0  0  0  0  0  0  0
   44.7320   35.1030   45.0640 C   0  0  0  0  0  0  0  0  0  0  0  0
   44.7040   35.9860   44.0360 N   0  0  0  0  0  0  0  0  0  0  0  0
   45.6080   36.5500   42.1820 H   0  0  0  0  0  0  0  0  0  0  0  0
   47.2840   33.1410   44.1140 H   0  0  0  0  0  0  0  0  0  0  0  0
   43.9980   35.2430   45.8510 H   0  0  0  0  0  0  0  0  0  0  0  0
   49.7500   32.3770   39.2680 N   0  0  0  0  0  0  0  0  0  0  0  0
   50.6220   32.9790   39.3010 H   0  0  0  0  0  0  0  0  0  0  0  0
   48.4700   31.5960   36.4760 H   0  0  0  0  0  0  0  0  0  0  0  0
   48.2810   31.5970   37.5160 N   0  0  0  0  0  0  0  0  0  0  0  0
   46.8700   31.8920   37.6410 C   0  0  0  0  0  2  0  0  0  0  0  0
   46.8620   33.3900   37.4260 C   0  0  0  0  0  2  0  0  0  0  0  0
   48.0010   33.8210   38.3290 C   0  0  0  0  0  2  0  0  0  0  0  0
   48.9990   32.6970   38.1040 C   0  0  1  0  0  3  0  0  0  0  0  0
  1 18  1  0  0  0  0
  1  2  1  1  0  0  0
  2  8  1  0  0  0  0
  2  7  1  0  0  0  0
  3  2  1  0  0  0  0
  3 10  1  0  0  0  0
  4  3  1  0  0  0  0
  4 12  1  0  0  0  0
  5  4  1  0  0  0  0
  5 13  1  0  0  0  0
  6 15  1  6  0  0  0
  6  5  1  0  0  0  0
  6  1  1  0  0  0  0
  9  3  1  0  0  0  0
 11  4  1  0  0  0  0
 14  5  1  0  0  0  0
 16 19  1  6  0  0  0
 16 18  1  0  0  0  0
 16 24  1  0  0  0  0
 17 16  1  0  0  0  0
 17 18  1  0  0  0  0
 17 21  1  0  0  0  0
 18 22  1  1  0  0  0
 20 17  1  0  0  0  0
 23 28  1  0  0  0  0
 24 23  2  0  0  0  0
 24 25  1  0  0  0  0
 25 30  1  0  0  0  0
 25 26  2  0  0  0  0
 27 26  1  0  0  0  0
 27 31  1  0  0  0  0
 28 27  2  0  0  0  0
 29 23  1  0  0  0  0
 32 33  1  0  0  0  0
 32  6  1  0  0  0  0
 34 35  1  0  0  0  0
 35 36  1  0  0  0  0
 35 39  1  0  0  0  0
 37 36  1  0  0  0  0
 37 38  1  0  0  0  0
 39 38  1  0  0  0  0
 39 32  1  1  0  0  0
M  END
>  <minimizedAffinity>
-5.08441544

>  <minimizedRMSD>
2.46592832

$$$$
