
 OpenBabel03242515483D

 40 43  0  0  1  0  0  0  0  0999 V2000
   39.0440   33.6530   40.4210 C   0  0  0  0  0  0  0  0  0  0  0  0
   40.2210   33.1870   41.0150 C   0  0  0  0  0  0  0  0  0  0  0  0
   40.4410   31.8360   41.1680 C   0  0  0  0  0  0  0  0  0  0  0  0
   39.5300   30.9190   40.7480 C   0  0  0  0  0  0  0  0  0  0  0  0
   38.3690   31.3620   40.1610 C   0  0  0  0  0  0  0  0  0  0  0  0
   38.1160   32.6990   39.9940 C   0  0  0  0  0  0  0  0  0  0  0  0
   37.6130   30.2230   39.8250 O   0  0  0  0  0  0  0  0  0  0  0  0
   38.1980   29.1280   40.4070 C   0  0  1  0  0  0  0  0  0  0  0  0
   39.4980   29.5210   40.7770 O   0  0  0  0  0  0  0  0  0  0  0  0
   38.7960   34.6720   40.2650 H   0  0  0  0  0  0  0  0  0  0  0  0
   41.3720   31.5800   41.6340 H   0  0  0  0  0  0  0  0  0  0  0  0
   37.1970   33.0320   39.5300 H   0  0  0  0  0  0  0  0  0  0  0  0
   38.2140   28.2690   39.6880 H   0  0  0  0  0  0  0  0  0  0  0  0
   37.4170   28.6980   41.5460 N   0  0  0  0  0  0  0  0  0  0  0  0
   38.0870   28.5690   42.3420 H   0  0  0  0  0  0  0  0  0  0  0  0
   35.4010   26.9240   39.8620 H   0  0  0  0  0  0  0  0  0  0  0  0
   36.3500   27.3320   39.8850 N   0  0  0  0  0  0  0  0  0  0  0  0
   37.2410   26.5040   39.0760 C   0  0  0  0  0  2  0  0  0  0  0  0
   37.6090   25.4320   40.0990 C   0  0  0  0  0  2  0  0  0  0  0  0
   38.0320   26.3380   41.2570 C   0  0  0  0  0  2  0  0  0  0  0  0
   36.9240   27.3640   41.2170 C   0  0  1  0  0  3  0  0  0  0  0  0
   41.3210   34.5180   41.5120 S   0  0  0  0  0  0  0  0  0  0  0  0
   42.9930   34.1830   40.8470 C   0  0  0  0  0  0  0  0  0  0  0  0
   43.0870   34.0750   39.4990 C   0  0  0  0  0  0  0  0  0  0  0  0
   44.3570   33.8110   39.0220 C   0  0  0  0  0  0  0  0  0  0  0  0
   45.4190   33.6750   39.8330 N   0  0  0  0  0  0  0  0  0  0  0  0
   45.2780   33.7920   41.1700 C   0  0  0  0  0  0  0  0  0  0  0  0
   44.0540   34.0450   41.6390 N   0  0  0  0  0  0  0  0  0  0  0  0
   44.5720   33.6640   37.6080 N   0  0  0  0  0  0  0  0  0  0  0  0
   44.5780   34.4750   36.9510 H   0  0  0  0  0  0  0  0  0  0  0  0
   44.7130   32.6530   37.3650 H   0  0  0  0  0  0  0  0  0  0  0  0
   42.1120   34.1900   38.3670 C   0  0  0  0  0  0  0  0  0  0  0  0
   42.0410   33.1730   37.9190 H   0  0  0  0  0  0  0  0  0  0  0  0
   42.5230   34.8530   37.5700 H   0  0  0  0  0  0  0  0  0  0  0  0
   41.1280   34.5250   38.7020 H   0  0  0  0  0  0  0  0  0  0  0  0
   46.2960   33.6710   42.0970 O   0  0  0  0  0  0  0  0  0  0  0  0
   47.0770   34.8350   42.3510 C   0  0  0  0  0  0  0  0  0  0  0  0
   47.9420   34.6320   43.3740 F   0  0  0  0  0  0  0  0  0  0  0  0
   47.7280   35.1590   41.1490 F   0  0  0  0  0  0  0  0  0  0  0  0
   46.2060   35.8620   42.7220 F   0  0  0  0  0  0  0  0  0  0  0  0
  1  2  1  0  0  0  0
  2  3  2  0  0  0  0
  2 22  1  0  0  0  0
  3 11  1  0  0  0  0
  4  9  1  0  0  0  0
  4  3  1  0  0  0  0
  5  4  2  0  0  0  0
  6  5  1  0  0  0  0
  6  1  2  0  0  0  0
  7  5  1  0  0  0  0
  7  8  1  0  0  0  0
  8 13  1  6  0  0  0
  8  9  1  0  0  0  0
  8 14  1  0  0  0  0
 10  1  1  0  0  0  0
 12  6  1  0  0  0  0
 14 15  1  0  0  0  0
 16 17  1  0  0  0  0
 17 21  1  0  0  0  0
 18 17  1  0  0  0  0
 18 19  1  0  0  0  0
 19 20  1  0  0  0  0
 21 20  1  0  0  0  0
 21 14  1  6  0  0  0
 23 22  1  0  0  0  0
 23 28  1  0  0  0  0
 24 23  2  0  0  0  0
 25 24  1  0  0  0  0
 25 26  2  0  0  0  0
 26 27  1  0  0  0  0
 27 28  2  0  0  0  0
 27 36  1  0  0  0  0
 29 25  1  0  0  0  0
 30 29  1  0  0  0  0
 31 29  1  0  0  0  0
 32 35  1  0  0  0  0
 32 24  1  0  0  0  0
 33 32  1  0  0  0  0
 34 32  1  0  0  0  0
 36 37  1  0  0  0  0
 37 40  1  0  0  0  0
 37 38  1  0  0  0  0
 39 37  1  0  0  0  0
M  END
>  <minimizedAffinity>
-5.1876688

>  <minimizedRMSD>
1.83362281

$$$$
