
 OpenBabel03252508023D

 39 42  0  0  1  0  0  0  0  0999 V2000
   44.2440   34.3690   41.5480 C   0  0  0  0  0  0  0  0  0  0  0  0
   45.1240   34.2650   40.6260 O   0  0  0  0  0  0  0  0  0  0  0  0
   42.0390   33.2480   41.1890 C   0  0  0  0  0  0  0  0  0  0  0  0
   42.7990   34.3940   41.3170 C   0  0  0  0  0  0  0  0  0  0  0  0
   42.1600   35.6310   41.2300 C   0  0  0  0  0  0  0  0  0  0  0  0
   40.7930   35.7310   41.0210 C   0  0  0  0  0  0  0  0  0  0  0  0
   40.0370   34.5950   40.8930 C   0  0  0  0  0  0  0  0  0  0  0  0
   40.6770   33.3880   40.9810 C   0  0  0  0  0  0  0  0  0  0  0  0
   42.6630   36.5830   41.3120 H   0  0  0  0  0  0  0  0  0  0  0  0
   40.3060   36.6690   40.9530 H   0  0  0  0  0  0  0  0  0  0  0  0
   38.9840   34.6150   40.7320 H   0  0  0  0  0  0  0  0  0  0  0  0
   40.0690   32.4810   40.8790 H   0  0  0  0  0  0  0  0  0  0  0  0
   42.7350   31.7220   41.2140 S   0  0  0  0  0  0  0  0  0  0  0  0
   41.7330   30.8710   40.4840 O   0  0  0  0  0  0  0  0  0  0  0  0
   42.8220   31.2480   42.6860 O   0  0  0  0  0  0  0  0  0  0  0  0
   45.8350   29.9660   40.9890 H   0  0  0  0  0  0  0  0  0  0  0  0
   44.9460   30.2270   41.5040 N   0  0  0  0  0  0  0  0  0  0  0  0
   44.2370   29.0490   41.9240 C   0  0  0  0  0  2  0  0  0  0  0  0
   43.2940   28.7260   40.8170 C   0  0  0  0  0  2  0  0  0  0  0  0
   43.7500   29.7110   39.7780 C   0  0  0  0  0  2  0  0  0  0  0  0
   44.1040   31.0220   40.6310 C   0  0  1  0  0  3  0  0  0  0  0  0
   44.5820   34.4730   42.9410 C   0  0  0  0  0  0  0  0  0  0  0  0
   44.3030   35.7130   43.5820 C   0  0  0  0  0  0  0  0  0  0  0  0
   44.6230   35.8080   44.9310 C   0  0  0  0  0  0  0  0  0  0  0  0
   45.1740   34.7300   45.5470 N   0  0  0  0  0  0  0  0  0  0  0  0
   45.4260   33.5550   44.8860 C   0  0  0  0  0  0  0  0  0  0  0  0
   45.1220   33.4930   43.6430 N   0  0  0  0  0  0  0  0  0  0  0  0
   43.8720   36.5870   43.1440 H   0  0  0  0  0  0  0  0  0  0  0  0
   44.4590   36.6900   45.5170 H   0  0  0  0  0  0  0  0  0  0  0  0
   46.0220   32.4320   45.6340 C   0  0  1  0  0  0  0  0  0  0  0  0
   46.9720   32.7350   46.7730 C   0  0  0  0  0  0  0  0  0  0  0  0
   45.5590   32.3140   47.0420 C   0  0  1  0  0  0  0  0  0  0  0  0
   46.2830   31.5250   45.0830 H   0  0  0  0  0  0  0  0  0  0  0  0
   47.2970   33.7850   46.9050 H   0  0  0  0  0  0  0  0  0  0  0  0
   47.7520   31.9960   47.0280 H   0  0  0  0  0  0  0  0  0  0  0  0
   45.3770   31.2970   47.4450 H   0  0  0  0  0  0  0  0  0  0  0  0
   44.7820   33.3780   47.6430 N   0  0  0  0  0  0  0  0  0  0  0  0
   45.3800   34.0560   48.1630 H   0  0  0  0  0  0  0  0  0  0  0  0
   44.0440   32.9580   48.2750 H   0  0  0  0  0  0  0  0  0  0  0  0
  1 22  1  0  0  0  0
  2  1  2  0  0  0  0
  3 13  1  0  0  0  0
  3  4  1  0  0  0  0
  4  1  1  0  0  0  0
  5  9  1  0  0  0  0
  5  4  2  0  0  0  0
  6  5  1  0  0  0  0
  7  8  1  0  0  0  0
  7  6  2  0  0  0  0
  8  3  2  0  0  0  0
 10  6  1  0  0  0  0
 11  7  1  0  0  0  0
 12  8  1  0  0  0  0
 13 15  2  0  0  0  0
 14 13  2  0  0  0  0
 16 17  1  0  0  0  0
 17 18  1  0  0  0  0
 19 18  1  0  0  0  0
 20 21  1  0  0  0  0
 20 19  1  0  0  0  0
 21 13  1  1  0  0  0
 21 17  1  0  0  0  0
 22 23  2  0  0  0  0
 22 27  1  0  0  0  0
 23 24  1  0  0  0  0
 24 29  1  0  0  0  0
 24 25  2  0  0  0  0
 26 25  1  0  0  0  0
 26 30  1  0  0  0  0
 27 26  2  0  0  0  0
 28 23  1  0  0  0  0
 30 33  1  6  0  0  0
 30 31  1  0  0  0  0
 30 32  1  0  0  0  0
 31 34  1  0  0  0  0
 31 35  1  0  0  0  0
 31 32  1  0  0  0  0
 32 36  1  1  0  0  0
 32 37  1  0  0  0  0
 37 38  1  0  0  0  0
 37 39  1  0  0  0  0
M  END
>  <minimizedAffinity>
-5.58250427

>  <minimizedRMSD>
0.982314527

$$$$
