
 OpenBabel03252501593D

 31 34  0  0  0  0  0  0  0  0999 V2000
   47.3380   32.3060   47.9520 C   0  0  0  0  0  0  0  0  0  0  0  0
   46.8580   31.0150   48.0180 C   0  0  0  0  0  0  0  0  0  0  0  0
   45.9830   30.6440   47.0410 C   0  0  0  0  0  0  0  0  0  0  0  0
   45.6250   31.5090   46.0780 N   0  0  0  0  0  0  0  0  0  0  0  0
   46.0920   32.7510   46.0220 C   0  0  0  0  0  0  0  0  0  0  0  0
   46.9480   33.1180   46.9760 N   0  0  0  0  0  0  0  0  0  0  0  0
   48.0390   32.6070   48.7340 H   0  0  0  0  0  0  0  0  0  0  0  0
   45.4280   29.3610   46.9990 N   0  0  0  0  0  0  0  0  0  0  0  0
   44.2620   28.9650   46.1930 C   0  0  0  0  0  0  0  0  0  0  0  0
   44.1430   27.4710   46.3760 C   0  0  0  0  0  0  0  0  0  0  0  0
   44.7420   27.2600   47.7690 C   0  0  0  0  0  0  0  0  0  0  0  0
   45.9060   28.2100   47.7410 C   0  0  0  0  0  0  0  0  0  0  0  0
   46.7460   27.7650   47.1330 H   0  0  0  0  0  0  0  0  0  0  0  0
   45.8370   33.8520   45.0690 C   0  0  0  0  0  0  0  0  0  0  0  0
   44.8760   34.7910   45.2520 N   0  0  0  0  0  0  0  0  0  0  0  0
   44.6230   35.7910   44.4170 C   0  0  0  0  0  0  0  0  0  0  0  0
   45.3510   35.9240   43.2840 N   0  0  0  0  0  0  0  0  0  0  0  0
   46.3320   35.0530   42.9910 C   0  0  0  0  0  0  0  0  0  0  0  0
   47.0680   35.1960   41.8370 C   0  0  0  0  0  0  0  0  0  0  0  0
   48.0680   34.3160   41.5290 C   0  0  0  0  0  0  0  0  0  0  0  0
   48.3100   33.2860   42.4170 C   0  0  0  0  0  0  0  0  0  0  0  0
   47.5500   33.1810   43.5590 C   0  0  0  0  0  0  0  0  0  0  0  0
   46.5400   34.0400   43.9040 C   0  0  0  0  0  0  0  0  0  0  0  0
   43.8270   36.4820   44.6740 H   0  0  0  0  0  0  0  0  0  0  0  0
   46.8710   36.0080   41.1460 H   0  0  0  0  0  0  0  0  0  0  0  0
   48.6360   34.4420   40.6180 H   0  0  0  0  0  0  0  0  0  0  0  0
   49.0910   32.5630   42.2200 H   0  0  0  0  0  0  0  0  0  0  0  0
   47.7820   32.3480   44.2270 H   0  0  0  0  0  0  0  0  0  0  0  0
   47.2650   30.1480   49.0470 N   0  0  0  0  0  0  0  0  0  0  0  0
   48.0820   29.5260   48.8420 H   0  0  0  0  0  0  0  0  0  0  0  0
   46.7960   30.0920   49.9970 H   0  0  0  0  0  0  0  0  0  0  0  0
  1  2  1  0  0  0  0
  1  7  1  0  0  0  0
  2 29  1  0  0  0  0
  3  2  2  0  0  0  0
  4  3  1  0  0  0  0
  5  4  2  0  0  0  0
  5  6  1  0  0  0  0
  6  1  2  0  0  0  0
  8  3  1  0  0  0  0
  8 12  1  0  0  0  0
  9 10  1  0  0  0  0
  9  8  1  0  0  0  0
 10 11  1  0  0  0  0
 12 11  1  0  0  0  0
 13 12  1  0  0  0  0
 14 15  1  0  0  0  0
 14  5  1  0  0  0  0
 16 24  1  0  0  0  0
 16 15  2  0  0  0  0
 17 16  1  0  0  0  0
 18 17  2  0  0  0  0
 18 23  1  0  0  0  0
 19 18  1  0  0  0  0
 20 19  2  0  0  0  0
 20 21  1  0  0  0  0
 21 22  2  0  0  0  0
 22 23  1  0  0  0  0
 22 28  1  0  0  0  0
 23 14  2  0  0  0  0
 25 19  1  0  0  0  0
 26 20  1  0  0  0  0
 27 21  1  0  0  0  0
 29 31  1  0  0  0  0
 30 29  1  0  0  0  0
M  END
>  <minimizedAffinity>
-6.46010828

>  <minimizedRMSD>
0.499881536

$$$$
