REMARK  Name = 
REMARK  2 active torsions:
REMARK  status: ('A' for Active; 'I' for Inactive)
REMARK    1  A    between atoms: C_1  and  C_15
REMARK    2  A    between atoms: C_12  and  N_17
REMARK                            x       y       z     vdW  Elec       q    Type
REMARK                         _______ _______ _______ _____ _____    ______ ____
ROOT
ATOM      1  C   UNL     1      47.666  32.286  48.197  0.00  0.00    +0.000 A 
ATOM      2  C   UNL     1      47.283  30.965  48.288  0.00  0.00    +0.000 A 
ATOM      3  C   UNL     1      46.381  30.531  47.362  0.00  0.00    +0.000 A 
ATOM      4  N   UNL     1      45.908  31.367  46.424  0.00  0.00    +0.000 NA
ATOM      5  C   UNL     1      46.282  32.639  46.343  0.00  0.00    +0.000 A 
ATOM      6  N   UNL     1      47.164  33.067  47.247  0.00  0.00    +0.000 NA
ATOM      7  H   UNL     1      48.389  32.637  48.937  0.00  0.00    +0.000 HD
ATOM      8  N   UNL     1      45.916  29.212  47.350  0.00  0.00    +0.000 N 
ATOM      9  C   UNL     1      46.681  28.046  46.883  0.00  0.00    +0.000 C 
ATOM     10  C   UNL     1      45.814  26.851  47.201  0.00  0.00    +0.000 C 
ATOM     11  C   UNL     1      44.402  27.440  47.138  0.00  0.00    +0.000 C 
ATOM     12  C   UNL     1      44.605  28.776  47.795  0.00  0.00    +0.000 C 
ATOM     13  H   UNL     1      44.677  28.642  48.913  0.00  0.00    +0.000 HD
ENDROOT
BRANCH   5  14
ATOM     14  C   UNL     1      45.896  33.717  45.409  0.00  0.00    +0.000 A 
ATOM     15  N   UNL     1      44.918  34.619  45.672  0.00  0.00    +0.000 NA
ATOM     16  C   UNL     1      44.548  35.598  44.856  0.00  0.00    +0.000 A 
ATOM     17  N   UNL     1      45.163  35.747  43.660  0.00  0.00    +0.000 NA
ATOM     18  C   UNL     1      46.149  34.913  43.285  0.00  0.00    +0.000 A 
ATOM     19  C   UNL     1      46.769  35.072  42.067  0.00  0.00    +0.000 A 
ATOM     20  C   UNL     1      47.773  34.229  41.675  0.00  0.00    +0.000 A 
ATOM     21  C   UNL     1      48.137  33.221  42.545  0.00  0.00    +0.000 A 
ATOM     22  C   UNL     1      47.490  33.098  43.753  0.00  0.00    +0.000 A 
ATOM     23  C   UNL     1      46.481  33.920  44.183  0.00  0.00    +0.000 A 
ATOM     24  H   UNL     1      43.751  36.259  45.179  0.00  0.00    +0.000 HD
ATOM     25  H   UNL     1      46.477  35.867  41.390  0.00  0.00    +0.000 HD
ATOM     26  H   UNL     1      48.249  34.368  40.715  0.00  0.00    +0.000 HD
ATOM     27  H   UNL     1      48.926  32.527  42.283  0.00  0.00    +0.000 HD
ATOM     28  H   UNL     1      47.816  32.283  44.404  0.00  0.00    +0.000 HD
ENDBRANCH   5  14
BRANCH   2  29
ATOM     29  N   UNL     1      47.809  30.130  49.290  0.00  0.00    +0.000 N 
ATOM     30  H   UNL     1      48.654  29.567  49.036  0.00  0.00    +0.000 HD
ATOM     31  H   UNL     1      47.401  30.044  50.265  0.00  0.00    +0.000 HD
ENDBRANCH   2  29
TORSDOF 2
