
 OpenBabel03252507373D

 35 39  0  0  0  0  0  0  0  0999 V2000
   45.5410   34.7040   43.5010 C   0  0  0  0  0  0  0  0  0  0  0  0
   46.2380   33.6490   44.1220 C   0  0  0  0  0  0  0  0  0  0  0  0
   46.0700   33.4590   45.4760 C   0  0  0  0  0  0  0  0  0  0  0  0
   45.2570   34.2760   46.1430 N   0  0  0  0  0  0  0  0  0  0  0  0
   44.5860   35.2920   45.5420 C   0  0  0  0  0  0  0  0  0  0  0  0
   44.7330   35.4930   44.2370 N   0  0  0  0  0  0  0  0  0  0  0  0
   46.8950   32.9930   43.5780 H   0  0  0  0  0  0  0  0  0  0  0  0
   43.9360   35.9470   46.0830 H   0  0  0  0  0  0  0  0  0  0  0  0
   47.0490   32.6750   47.5720 C   0  0  0  0  0  0  0  0  0  0  0  0
   46.7470   32.4030   46.2310 C   0  0  0  0  0  0  0  0  0  0  0  0
   47.0990   31.1840   45.7300 C   0  0  0  0  0  0  0  0  0  0  0  0
   47.7330   30.2220   46.4790 C   0  0  0  0  0  0  0  0  0  0  0  0
   48.1670   28.9760   46.1960 N   0  0  0  0  0  0  0  0  0  0  0  0
   48.7380   28.4670   47.3580 C   0  0  0  0  0  0  0  0  0  0  0  0
   48.6400   29.4040   48.3090 N   0  0  0  0  0  0  0  0  0  0  0  0
   48.0330   30.4790   47.7920 C   0  0  0  0  0  0  0  0  0  0  0  0
   47.6860   31.7120   48.3340 C   0  0  0  0  0  0  0  0  0  0  0  0
   46.7800   33.6410   47.9930 H   0  0  0  0  0  0  0  0  0  0  0  0
   46.8560   30.9860   44.6750 H   0  0  0  0  0  0  0  0  0  0  0  0
   48.0910   28.4760   45.2780 H   0  0  0  0  0  0  0  0  0  0  0  0
   49.1680   27.4780   47.4240 H   0  0  0  0  0  0  0  0  0  0  0  0
   47.9060   31.9430   49.3680 H   0  0  0  0  0  0  0  0  0  0  0  0
   45.7050   34.9000   42.1350 O   0  0  0  0  0  0  0  0  0  0  0  0
   44.6840   34.5670   41.2490 C   0  0  0  0  0  0  0  0  0  0  0  0
   45.4060   33.8120   40.3760 C   0  0  0  0  0  0  0  0  0  0  0  0
   44.0230   33.3300   39.1380 S   0  0  0  0  0  0  0  0  0  0  0  0
   42.7660   34.3130   40.1570 C   0  0  0  0  0  0  0  0  0  0  0  0
   43.3950   34.6970   40.9670 N   0  0  0  0  0  0  0  0  0  0  0  0
   46.3730   33.3190   39.9910 H   0  0  0  0  0  0  0  0  0  0  0  0
   41.4930   34.1950   39.5240 N   0  0  0  0  0  0  0  0  0  0  0  0
   40.5240   33.1920   39.1710 C   0  0  0  0  0  2  0  0  0  0  0  0
   39.3320   33.6960   40.0080 C   0  0  0  0  0  2  0  0  0  0  0  0
   39.4790   35.2120   39.8470 C   0  0  0  0  0  2  0  0  0  0  0  0
   40.7600   35.3710   39.0210 C   0  0  0  0  0  3  0  0  0  0  0  0
   41.2830   36.2830   39.3070 H   0  0  0  0  0  0  0  0  0  0  0  0
  1  2  2  0  0  0  0
  1  6  1  0  0  0  0
  2  3  1  0  0  0  0
  3  4  2  0  0  0  0
  3 10  1  0  0  0  0
  5  8  1  0  0  0  0
  5  4  1  0  0  0  0
  6  5  2  0  0  0  0
  7  2  1  0  0  0  0
  9 18  1  0  0  0  0
  9 17  1  0  0  0  0
 10  9  2  0  0  0  0
 11 10  1  0  0  0  0
 11 12  2  0  0  0  0
 12 16  1  0  0  0  0
 13 12  1  0  0  0  0
 13 14  1  0  0  0  0
 14 21  1  0  0  0  0
 14 15  2  0  0  0  0
 16 15  1  0  0  0  0
 16 17  2  0  0  0  0
 17 22  1  0  0  0  0
 19 11  1  0  0  0  0
 20 13  1  0  0  0  0
 23  1  1  0  0  0  0
 24 23  1  0  0  0  0
 25 24  2  0  0  0  0
 26 27  1  0  0  0  0
 26 25  1  0  0  0  0
 27 28  2  0  0  0  0
 28 24  1  0  0  0  0
 29 25  1  0  0  0  0
 30 27  1  0  0  0  0
 31 30  1  0  0  0  0
 31 32  1  0  0  0  0
 33 32  1  0  0  0  0
 34 35  1  0  0  0  0
 34 30  1  0  0  0  0
 34 33  1  0  0  0  0
M  END
>  <minimizedAffinity>
-6.55583143

>  <minimizedRMSD>
0.713026762

$$$$
