
 OpenBabel03252507373D

 35 39  0  0  0  0  0  0  0  0999 V2000
   45.6290   34.7240   43.4900 C   0  0  0  0  0  0  0  0  0  0  0  0
   46.3210   33.6680   44.1130 C   0  0  0  0  0  0  0  0  0  0  0  0
   46.1210   33.4560   45.4600 C   0  0  0  0  0  0  0  0  0  0  0  0
   45.2810   34.2540   46.1170 N   0  0  0  0  0  0  0  0  0  0  0  0
   44.6150   35.2720   45.5130 C   0  0  0  0  0  0  0  0  0  0  0  0
   44.7930   35.4940   44.2160 N   0  0  0  0  0  0  0  0  0  0  0  0
   46.9980   33.0270   43.5770 H   0  0  0  0  0  0  0  0  0  0  0  0
   43.9430   35.9110   46.0470 H   0  0  0  0  0  0  0  0  0  0  0  0
   47.0340   32.6430   47.5740 C   0  0  0  0  0  0  0  0  0  0  0  0
   46.7890   32.3960   46.2170 C   0  0  0  0  0  0  0  0  0  0  0  0
   47.1850   31.1960   45.7020 C   0  0  0  0  0  0  0  0  0  0  0  0
   47.8100   30.2290   46.4530 C   0  0  0  0  0  0  0  0  0  0  0  0
   48.2790   28.9990   46.1590 N   0  0  0  0  0  0  0  0  0  0  0  0
   48.8150   28.4750   47.3310 C   0  0  0  0  0  0  0  0  0  0  0  0
   48.6620   29.3880   48.2980 N   0  0  0  0  0  0  0  0  0  0  0  0
   48.0530   30.4620   47.7820 C   0  0  0  0  0  0  0  0  0  0  0  0
   47.6610   31.6750   48.3370 C   0  0  0  0  0  0  0  0  0  0  0  0
   46.7300   33.5940   48.0050 H   0  0  0  0  0  0  0  0  0  0  0  0
   46.9860   31.0180   44.6340 H   0  0  0  0  0  0  0  0  0  0  0  0
   48.2480   28.5190   45.2280 H   0  0  0  0  0  0  0  0  0  0  0  0
   49.2630   27.4930   47.3910 H   0  0  0  0  0  0  0  0  0  0  0  0
   47.8370   31.8870   49.3850 H   0  0  0  0  0  0  0  0  0  0  0  0
   45.8250   34.9430   42.1310 O   0  0  0  0  0  0  0  0  0  0  0  0
   44.8710   34.5260   41.2070 C   0  0  0  0  0  0  0  0  0  0  0  0
   45.6800   33.7960   40.3900 C   0  0  0  0  0  0  0  0  0  0  0  0
   44.3920   33.2000   39.1010 S   0  0  0  0  0  0  0  0  0  0  0  0
   43.0290   34.1290   40.0300 C   0  0  0  0  0  0  0  0  0  0  0  0
   43.5930   34.5700   40.8590 N   0  0  0  0  0  0  0  0  0  0  0  0
   46.6920   33.3530   40.0660 H   0  0  0  0  0  0  0  0  0  0  0  0
   41.7980   33.9190   39.3410 N   0  0  0  0  0  0  0  0  0  0  0  0
   40.6710   33.0260   39.3420 C   0  0  0  0  0  2  0  0  0  0  0  0
   39.5550   34.0370   39.6740 C   0  0  0  0  0  2  0  0  0  0  0  0
   40.0140   35.2560   38.8670 C   0  0  0  0  0  2  0  0  0  0  0  0
   41.3480   34.8120   38.2580 C   0  0  0  0  0  3  0  0  0  0  0  0
   42.0250   35.6610   38.1720 H   0  0  0  0  0  0  0  0  0  0  0  0
  1  2  2  0  0  0  0
  1  6  1  0  0  0  0
  2  3  1  0  0  0  0
  3  4  2  0  0  0  0
  3 10  1  0  0  0  0
  5  8  1  0  0  0  0
  5  4  1  0  0  0  0
  6  5  2  0  0  0  0
  7  2  1  0  0  0  0
  9 18  1  0  0  0  0
  9 17  1  0  0  0  0
 10  9  2  0  0  0  0
 11 10  1  0  0  0  0
 11 12  2  0  0  0  0
 12 16  1  0  0  0  0
 13 12  1  0  0  0  0
 13 14  1  0  0  0  0
 14 21  1  0  0  0  0
 14 15  2  0  0  0  0
 16 15  1  0  0  0  0
 16 17  2  0  0  0  0
 17 22  1  0  0  0  0
 19 11  1  0  0  0  0
 20 13  1  0  0  0  0
 23  1  1  0  0  0  0
 24 23  1  0  0  0  0
 25 24  2  0  0  0  0
 26 27  1  0  0  0  0
 26 25  1  0  0  0  0
 27 28  2  0  0  0  0
 28 24  1  0  0  0  0
 29 25  1  0  0  0  0
 30 31  1  0  0  0  0
 30 27  1  0  0  0  0
 31 32  1  0  0  0  0
 33 32  1  0  0  0  0
 34 33  1  0  0  0  0
 34 30  1  0  0  0  0
 35 34  1  0  0  0  0
M  END
>  <minimizedAffinity>
-6.38758659

>  <minimizedRMSD>
0.866721094

$$$$
