
 OpenBabel03252507373D

 35 39  0  0  0  0  0  0  0  0999 V2000
   45.2850   34.5980   43.6410 C   0  0  0  0  0  0  0  0  0  0  0  0
   46.0160   33.5450   44.2270 C   0  0  0  0  0  0  0  0  0  0  0  0
   45.9680   33.3970   45.5960 C   0  0  0  0  0  0  0  0  0  0  0  0
   45.2350   34.2500   46.3100 N   0  0  0  0  0  0  0  0  0  0  0  0
   44.5320   35.2630   45.7420 C   0  0  0  0  0  0  0  0  0  0  0  0
   44.5630   35.4250   44.4240 N   0  0  0  0  0  0  0  0  0  0  0  0
   46.6070   32.8610   43.6450 H   0  0  0  0  0  0  0  0  0  0  0  0
   43.9460   35.9460   46.3210 H   0  0  0  0  0  0  0  0  0  0  0  0
   47.0730   32.6310   47.6350 C   0  0  0  0  0  0  0  0  0  0  0  0
   46.6900   32.3470   46.3170 C   0  0  0  0  0  0  0  0  0  0  0  0
   47.0130   31.1240   45.8050 C   0  0  0  0  0  0  0  0  0  0  0  0
   47.6920   30.1690   46.5220 C   0  0  0  0  0  0  0  0  0  0  0  0
   48.1100   28.9200   46.2230 N   0  0  0  0  0  0  0  0  0  0  0  0
   48.7500   28.4220   47.3530 C   0  0  0  0  0  0  0  0  0  0  0  0
   48.7090   29.3670   48.3000 N   0  0  0  0  0  0  0  0  0  0  0  0
   48.0710   30.4370   47.8120 C   0  0  0  0  0  0  0  0  0  0  0  0
   47.7560   31.6740   48.3640 C   0  0  0  0  0  0  0  0  0  0  0  0
   46.8290   33.6000   48.0640 H   0  0  0  0  0  0  0  0  0  0  0  0
   46.7060   30.9180   44.7690 H   0  0  0  0  0  0  0  0  0  0  0  0
   47.9780   28.4140   45.3160 H   0  0  0  0  0  0  0  0  0  0  0  0
   49.1850   27.4340   47.4000 H   0  0  0  0  0  0  0  0  0  0  0  0
   48.0390   31.9140   49.3810 H   0  0  0  0  0  0  0  0  0  0  0  0
   45.3270   34.7530   42.2610 O   0  0  0  0  0  0  0  0  0  0  0  0
   44.2350   34.3880   41.4780 C   0  0  0  0  0  0  0  0  0  0  0  0
   44.9020   34.0390   40.3430 C   0  0  0  0  0  0  0  0  0  0  0  0
   43.4210   33.5240   39.2390 S   0  0  0  0  0  0  0  0  0  0  0  0
   42.2260   33.9270   40.6500 C   0  0  0  0  0  0  0  0  0  0  0  0
   42.9160   34.2630   41.4310 N   0  0  0  0  0  0  0  0  0  0  0  0
   45.8500   33.8900   39.7070 H   0  0  0  0  0  0  0  0  0  0  0  0
   40.9000   33.6490   40.2030 N   0  0  0  0  0  0  0  0  0  0  0  0
   39.5340   33.9390   40.5470 C   0  0  0  0  0  2  0  0  0  0  0  0
   39.1080   34.6820   39.2660 C   0  0  0  0  0  2  0  0  0  0  0  0
   39.8410   33.8650   38.1960 C   0  0  0  0  0  2  0  0  0  0  0  0
   40.6380   32.8330   39.0030 C   0  0  0  0  0  3  0  0  0  0  0  0
   41.5740   32.6030   38.5000 H   0  0  0  0  0  0  0  0  0  0  0  0
  1  2  2  0  0  0  0
  1  6  1  0  0  0  0
  2  3  1  0  0  0  0
  3  4  2  0  0  0  0
  3 10  1  0  0  0  0
  5  4  1  0  0  0  0
  5  8  1  0  0  0  0
  6  5  2  0  0  0  0
  7  2  1  0  0  0  0
  9 18  1  0  0  0  0
  9 17  1  0  0  0  0
 10  9  2  0  0  0  0
 11 10  1  0  0  0  0
 11 12  2  0  0  0  0
 12 16  1  0  0  0  0
 13 12  1  0  0  0  0
 13 14  1  0  0  0  0
 14 21  1  0  0  0  0
 14 15  2  0  0  0  0
 16 15  1  0  0  0  0
 16 17  2  0  0  0  0
 17 22  1  0  0  0  0
 19 11  1  0  0  0  0
 20 13  1  0  0  0  0
 23  1  1  0  0  0  0
 24 23  1  0  0  0  0
 25 24  2  0  0  0  0
 26 25  1  0  0  0  0
 26 27  1  0  0  0  0
 27 28  2  0  0  0  0
 28 24  1  0  0  0  0
 29 25  1  0  0  0  0
 30 31  1  0  0  0  0
 30 27  1  0  0  0  0
 32 31  1  0  0  0  0
 33 34  1  0  0  0  0
 33 32  1  0  0  0  0
 34 30  1  0  0  0  0
 35 34  1  0  0  0  0
M  END
>  <minimizedAffinity>
-6.37320042

>  <minimizedRMSD>
1.05927885

$$$$
