
 OpenBabel03242523043D

 29 31  0  0  0  0  0  0  0  0999 V2000
   38.1490   31.3350   39.8010 N   0  0  0  0  0  0  0  0  0  0  0  0
   37.7450   32.6170   40.1800 C   0  0  0  0  0  0  0  0  0  0  0  0
   38.8230   33.5240   40.6800 C   0  0  0  0  0  0  0  0  0  0  0  0
   39.8660   32.9420   41.4130 N   0  0  0  0  0  0  0  0  0  0  0  0
   40.2480   31.6400   41.0700 C   0  0  0  0  0  0  0  0  0  0  0  0
   39.5670   31.1820   39.7870 C   0  0  0  0  0  0  0  0  0  0  0  0
   37.0050   32.5760   40.9680 H   0  0  0  0  0  0  0  0  0  0  0  0
   37.4170   33.1410   39.2280 H   0  0  0  0  0  0  0  0  0  0  0  0
   38.3420   34.3080   41.3370 H   0  0  0  0  0  0  0  0  0  0  0  0
   39.2970   34.1520   39.8640 H   0  0  0  0  0  0  0  0  0  0  0  0
   40.7010   33.5670   41.4100 H   0  0  0  0  0  0  0  0  0  0  0  0
   39.8800   30.9210   41.8600 H   0  0  0  0  0  0  0  0  0  0  0  0
   41.3150   31.4200   40.9560 H   0  0  0  0  0  0  0  0  0  0  0  0
   39.9490   31.9170   39.0020 H   0  0  0  0  0  0  0  0  0  0  0  0
   39.9580   30.2220   39.4610 H   0  0  0  0  0  0  0  0  0  0  0  0
   36.5730   30.4130   38.2400 C   0  0  0  0  0  0  0  0  0  0  0  0
   37.2430   30.3350   39.4500 C   0  0  0  0  0  0  0  0  0  0  0  0
   36.9420   29.2500   40.2270 C   0  0  0  0  0  0  0  0  0  0  0  0
   36.0510   28.2990   39.8640 N   0  0  0  0  0  0  0  0  0  0  0  0
   35.4160   28.4160   38.6640 C   0  0  0  0  0  0  0  0  0  0  0  0
   35.6830   29.4520   37.8890 N   0  0  0  0  0  0  0  0  0  0  0  0
   36.6630   31.1750   37.4890 H   0  0  0  0  0  0  0  0  0  0  0  0
   34.6880   27.6790   38.3200 H   0  0  0  0  0  0  0  0  0  0  0  0
   37.4580   28.9280   41.4980 N   0  0  0  0  0  0  0  0  0  0  0  0
   37.7010   29.2210   42.9280 C   0  0  0  0  0  2  0  0  0  0  0  0
   37.1880   28.0200   43.6800 C   0  0  0  0  0  2  0  0  0  0  0  0
   37.3260   26.8890   42.6650 C   0  0  0  0  0  2  0  0  0  0  0  0
   38.1560   27.6280   41.6370 C   0  0  0  0  0  3  0  0  0  0  0  0
   38.1840   27.0540   40.7140 H   0  0  0  0  0  0  0  0  0  0  0  0
  1  2  1  0  0  0  0
  2  3  1  0  0  0  0
  2  7  1  0  0  0  0
  3  9  1  0  0  0  0
  3  4  1  0  0  0  0
  5  4  1  0  0  0  0
  5 12  1  0  0  0  0
  6  1  1  0  0  0  0
  6  5  1  0  0  0  0
  8  2  1  0  0  0  0
 10  3  1  0  0  0  0
 11  4  1  0  0  0  0
 13  5  1  0  0  0  0
 14  6  1  0  0  0  0
 15  6  1  0  0  0  0
 16 17  1  0  0  0  0
 17  1  1  0  0  0  0
 17 18  2  0  0  0  0
 18 24  1  0  0  0  0
 19 18  1  0  0  0  0
 20 19  2  0  0  0  0
 21 16  2  0  0  0  0
 21 20  1  0  0  0  0
 22 16  1  0  0  0  0
 23 20  1  0  0  0  0
 24 28  1  0  0  0  0
 24 25  1  0  0  0  0
 25 26  1  0  0  0  0
 27 26  1  0  0  0  0
 28 27  1  0  0  0  0
 29 28  1  0  0  0  0
M  END
>  <minimizedAffinity>
-4.62075853

$$$$

 OpenBabel03242523043D

 29 31  0  0  0  0  0  0  0  0999 V2000
   37.8220   30.8680   40.4470 N   0  0  0  0  0  0  0  0  0  0  0  0
   36.9980   31.9900   40.3370 C   0  0  0  0  0  0  0  0  0  0  0  0
   37.4500   33.0460   39.3790 C   0  0  0  0  0  0  0  0  0  0  0  0
   38.8300   33.2560   39.2580 N   0  0  0  0  0  0  0  0  0  0  0  0
   39.6680   32.1450   39.4120 C   0  0  0  0  0  0  0  0  0  0  0  0
   38.8670   30.8510   39.4770 C   0  0  0  0  0  0  0  0  0  0  0  0
   36.8830   32.4860   41.2910 H   0  0  0  0  0  0  0  0  0  0  0  0
   36.0350   31.6300   39.8540 H   0  0  0  0  0  0  0  0  0  0  0  0
   36.9840   34.0260   39.6960 H   0  0  0  0  0  0  0  0  0  0  0  0
   37.0380   32.9100   38.3320 H   0  0  0  0  0  0  0  0  0  0  0  0
   39.0430   33.7350   38.3570 H   0  0  0  0  0  0  0  0  0  0  0  0
   40.1910   32.2070   40.4110 H   0  0  0  0  0  0  0  0  0  0  0  0
   40.4660   31.9850   38.6780 H   0  0  0  0  0  0  0  0  0  0  0  0
   38.3470   30.8040   38.4630 H   0  0  0  0  0  0  0  0  0  0  0  0
   39.5260   29.9860   39.4740 H   0  0  0  0  0  0  0  0  0  0  0  0
   38.3930   29.8300   42.5370 C   0  0  0  0  0  0  0  0  0  0  0  0
   37.6080   29.8700   41.3960 C   0  0  0  0  0  0  0  0  0  0  0  0
   36.6610   28.8870   41.2930 C   0  0  0  0  0  0  0  0  0  0  0  0
   36.4820   27.9260   42.2270 N   0  0  0  0  0  0  0  0  0  0  0  0
   37.2780   27.9260   43.3340 C   0  0  0  0  0  0  0  0  0  0  0  0
   38.2030   28.8600   43.4650 N   0  0  0  0  0  0  0  0  0  0  0  0
   39.1860   30.5020   42.8110 H   0  0  0  0  0  0  0  0  0  0  0  0
   37.1780   27.1750   44.1190 H   0  0  0  0  0  0  0  0  0  0  0  0
   35.7440   28.6790   40.2440 N   0  0  0  0  0  0  0  0  0  0  0  0
   34.5030   28.9980   39.5050 C   0  0  0  0  0  2  0  0  0  0  0  0
   34.9240   29.1860   38.0710 C   0  0  0  0  0  2  0  0  0  0  0  0
   36.1780   28.3240   37.9590 C   0  0  0  0  0  2  0  0  0  0  0  0
   36.0500   27.5950   39.2810 C   0  0  0  0  0  3  0  0  0  0  0  0
   36.9800   27.0760   39.4990 H   0  0  0  0  0  0  0  0  0  0  0  0
  1 17  1  0  0  0  0
  2  1  1  0  0  0  0
  2  7  1  0  0  0  0
  3  9  1  0  0  0  0
  3  2  1  0  0  0  0
  4  3  1  0  0  0  0
  4  5  1  0  0  0  0
  5  6  1  0  0  0  0
  5 12  1  0  0  0  0
  6  1  1  0  0  0  0
  8  2  1  0  0  0  0
 10  3  1  0  0  0  0
 11  4  1  0  0  0  0
 13  5  1  0  0  0  0
 14  6  1  0  0  0  0
 15  6  1  0  0  0  0
 16 22  1  0  0  0  0
 16 21  1  0  0  0  0
 17 16  2  0  0  0  0
 18 17  1  0  0  0  0
 18 19  2  0  0  0  0
 19 20  1  0  0  0  0
 20 21  2  0  0  0  0
 20 23  1  0  0  0  0
 24 18  1  0  0  0  0
 25 24  1  0  0  0  0
 26 25  1  0  0  0  0
 27 26  1  0  0  0  0
 27 28  1  0  0  0  0
 28 29  1  0  0  0  0
 28 24  1  0  0  0  0
M  END
>  <minimizedAffinity>
-4.56573725

$$$$

 OpenBabel03242523043D

 29 31  0  0  0  0  0  0  0  0999 V2000
   37.5240   28.5330   41.3790 N   0  0  0  0  0  0  0  0  0  0  0  0
   36.1610   28.2440   41.2810 C   0  0  0  0  0  0  0  0  0  0  0  0
   35.3040   29.3140   40.6820 C   0  0  0  0  0  0  0  0  0  0  0  0
   35.6560   30.6440   40.9460 N   0  0  0  0  0  0  0  0  0  0  0  0
   37.0180   30.9350   41.0910 C   0  0  0  0  0  0  0  0  0  0  0  0
   37.8830   29.7410   40.7120 C   0  0  0  0  0  0  0  0  0  0  0  0
   35.7350   28.0360   42.2530 H   0  0  0  0  0  0  0  0  0  0  0  0
   36.0670   27.4100   40.5170 H   0  0  0  0  0  0  0  0  0  0  0  0
   34.2470   29.1610   41.0520 H   0  0  0  0  0  0  0  0  0  0  0  0
   35.1830   29.2160   39.5580 H   0  0  0  0  0  0  0  0  0  0  0  0
   35.2350   31.2770   40.2320 H   0  0  0  0  0  0  0  0  0  0  0  0
   37.2480   31.1180   42.1810 H   0  0  0  0  0  0  0  0  0  0  0  0
   37.4270   31.8010   40.5600 H   0  0  0  0  0  0  0  0  0  0  0  0
   37.6400   29.5690   39.6100 H   0  0  0  0  0  0  0  0  0  0  0  0
   38.9370   30.0100   40.7080 H   0  0  0  0  0  0  0  0  0  0  0  0
   39.2370   28.2170   43.0330 C   0  0  0  0  0  0  0  0  0  0  0  0
   38.4230   27.6970   42.0400 C   0  0  0  0  0  0  0  0  0  0  0  0
   38.5800   26.3630   41.7810 C   0  0  0  0  0  0  0  0  0  0  0  0
   39.4670   25.5780   42.4350 N   0  0  0  0  0  0  0  0  0  0  0  0
   40.2480   26.1330   43.4050 C   0  0  0  0  0  0  0  0  0  0  0  0
   40.1220   27.4190   43.6800 N   0  0  0  0  0  0  0  0  0  0  0  0
   39.2720   29.2310   43.3880 H   0  0  0  0  0  0  0  0  0  0  0  0
   40.9800   25.5480   43.9630 H   0  0  0  0  0  0  0  0  0  0  0  0
   37.9010   25.5830   40.8250 N   0  0  0  0  0  0  0  0  0  0  0  0
   37.5920   25.1900   39.4330 C   0  0  0  0  0  2  0  0  0  0  0  0
   37.7950   23.6980   39.3790 C   0  0  0  0  0  2  0  0  0  0  0  0
   37.5340   23.2580   40.8160 C   0  0  0  0  0  2  0  0  0  0  0  0
   36.9560   24.5600   41.3330 C   0  0  0  0  0  3  0  0  0  0  0  0
   36.9020   24.5250   42.4180 H   0  0  0  0  0  0  0  0  0  0  0  0
  1 17  1  0  0  0  0
  2  1  1  0  0  0  0
  2  7  1  0  0  0  0
  3  4  1  0  0  0  0
  3  9  1  0  0  0  0
  3  2  1  0  0  0  0
  4  5  1  0  0  0  0
  5 12  1  0  0  0  0
  6  5  1  0  0  0  0
  6  1  1  0  0  0  0
  8  2  1  0  0  0  0
 10  3  1  0  0  0  0
 11  4  1  0  0  0  0
 13  5  1  0  0  0  0
 14  6  1  0  0  0  0
 15  6  1  0  0  0  0
 16 22  1  0  0  0  0
 16 21  1  0  0  0  0
 17 16  2  0  0  0  0
 18 17  1  0  0  0  0
 18 19  2  0  0  0  0
 19 20  1  0  0  0  0
 20 21  2  0  0  0  0
 20 23  1  0  0  0  0
 24 28  1  0  0  0  0
 24 18  1  0  0  0  0
 25 24  1  0  0  0  0
 26 25  1  0  0  0  0
 26 27  1  0  0  0  0
 27 28  1  0  0  0  0
 28 29  1  0  0  0  0
M  END
>  <minimizedAffinity>
-4.52199316

$$$$

 OpenBabel03242523043D

 29 31  0  0  0  0  0  0  0  0999 V2000
   38.1060   30.7260   40.6330 N   0  0  0  0  0  0  0  0  0  0  0  0
   39.1760   30.5530   39.7520 C   0  0  0  0  0  0  0  0  0  0  0  0
   39.3710   31.6330   38.7360 C   0  0  0  0  0  0  0  0  0  0  0  0
   38.2220   32.2540   38.2290 N   0  0  0  0  0  0  0  0  0  0  0  0
   37.1280   32.3910   39.0910 C   0  0  0  0  0  0  0  0  0  0  0  0
   37.4960   32.0090   40.5180 C   0  0  0  0  0  0  0  0  0  0  0  0
   39.0750   29.6340   39.1900 H   0  0  0  0  0  0  0  0  0  0  0  0
   40.1190   30.6430   40.3760 H   0  0  0  0  0  0  0  0  0  0  0  0
   39.9320   31.1900   37.8600 H   0  0  0  0  0  0  0  0  0  0  0  0
   40.0720   32.4540   39.0810 H   0  0  0  0  0  0  0  0  0  0  0  0
   38.4650   33.1820   37.8190 H   0  0  0  0  0  0  0  0  0  0  0  0
   36.3240   31.6530   38.7970 H   0  0  0  0  0  0  0  0  0  0  0  0
   36.6220   33.3620   39.1450 H   0  0  0  0  0  0  0  0  0  0  0  0
   38.3060   32.7630   40.7990 H   0  0  0  0  0  0  0  0  0  0  0  0
   36.6810   32.2330   41.2030 H   0  0  0  0  0  0  0  0  0  0  0  0
   38.3620   29.6360   42.7590 C   0  0  0  0  0  0  0  0  0  0  0  0
   37.7140   29.7420   41.5390 C   0  0  0  0  0  0  0  0  0  0  0  0
   36.7130   28.8350   41.3180 C   0  0  0  0  0  0  0  0  0  0  0  0
   36.3590   27.8850   42.2140 N   0  0  0  0  0  0  0  0  0  0  0  0
   37.0250   27.8190   43.4020 C   0  0  0  0  0  0  0  0  0  0  0  0
   37.9970   28.6790   43.6470 N   0  0  0  0  0  0  0  0  0  0  0  0
   39.1670   30.2450   43.1280 H   0  0  0  0  0  0  0  0  0  0  0  0
   36.7820   27.0730   44.1600 H   0  0  0  0  0  0  0  0  0  0  0  0
   35.9040   28.7030   40.1720 N   0  0  0  0  0  0  0  0  0  0  0  0
   34.7340   29.0670   39.3440 C   0  0  0  0  0  2  0  0  0  0  0  0
   35.2880   29.3770   37.9770 C   0  0  0  0  0  2  0  0  0  0  0  0
   36.5630   28.5400   37.9190 C   0  0  0  0  0  2  0  0  0  0  0  0
   36.3220   27.7050   39.1600 C   0  0  0  0  0  3  0  0  0  0  0  0
   37.2370   27.1800   39.4250 H   0  0  0  0  0  0  0  0  0  0  0  0
  1 17  1  0  0  0  0
  2  8  1  0  0  0  0
  2  1  1  0  0  0  0
  3 10  1  0  0  0  0
  3  2  1  0  0  0  0
  4  3  1  0  0  0  0
  4  5  1  0  0  0  0
  5 13  1  0  0  0  0
  5  6  1  0  0  0  0
  6  1  1  0  0  0  0
  6 14  1  0  0  0  0
  6 15  1  0  0  0  0
  7  2  1  0  0  0  0
  9  3  1  0  0  0  0
 11  4  1  0  0  0  0
 12  5  1  0  0  0  0
 16 22  1  0  0  0  0
 16 21  1  0  0  0  0
 17 16  2  0  0  0  0
 18 17  1  0  0  0  0
 18 19  2  0  0  0  0
 19 20  1  0  0  0  0
 20 21  2  0  0  0  0
 20 23  1  0  0  0  0
 24 18  1  0  0  0  0
 25 24  1  0  0  0  0
 26 25  1  0  0  0  0
 27 26  1  0  0  0  0
 27 28  1  0  0  0  0
 28 29  1  0  0  0  0
 28 24  1  0  0  0  0
M  END
>  <minimizedAffinity>
-4.49589491

$$$$

 OpenBabel03242523043D

 29 31  0  0  0  0  0  0  0  0999 V2000
   37.3930   28.7500   39.6110 N   0  0  0  0  0  0  0  0  0  0  0  0
   36.0620   28.3300   39.5500 C   0  0  0  0  0  0  0  0  0  0  0  0
   35.0330   29.3550   39.9090 C   0  0  0  0  0  0  0  0  0  0  0  0
   35.3660   30.2760   40.9110 N   0  0  0  0  0  0  0  0  0  0  0  0
   36.7050   30.6680   41.0090 C   0  0  0  0  0  0  0  0  0  0  0  0
   37.5220   30.1520   39.8320 C   0  0  0  0  0  0  0  0  0  0  0  0
   35.8860   27.4920   40.2100 H   0  0  0  0  0  0  0  0  0  0  0  0
   35.8370   28.1440   38.4530 H   0  0  0  0  0  0  0  0  0  0  0  0
   34.1010   28.8100   40.2440 H   0  0  0  0  0  0  0  0  0  0  0  0
   34.6590   29.9480   39.0190 H   0  0  0  0  0  0  0  0  0  0  0  0
   34.7560   31.1200   40.8410 H   0  0  0  0  0  0  0  0  0  0  0  0
   37.1730   30.1810   41.9150 H   0  0  0  0  0  0  0  0  0  0  0  0
   36.9330   31.7350   41.1070 H   0  0  0  0  0  0  0  0  0  0  0  0
   37.0380   30.6530   38.9280 H   0  0  0  0  0  0  0  0  0  0  0  0
   38.5300   30.5600   39.8490 H   0  0  0  0  0  0  0  0  0  0  0  0
   38.9240   27.5920   38.1670 C   0  0  0  0  0  0  0  0  0  0  0  0
   38.4640   27.8740   39.4430 C   0  0  0  0  0  0  0  0  0  0  0  0
   39.1200   27.2410   40.4630 C   0  0  0  0  0  0  0  0  0  0  0  0
   40.1520   26.3880   40.2690 N   0  0  0  0  0  0  0  0  0  0  0  0
   40.5710   26.1410   38.9950 C   0  0  0  0  0  0  0  0  0  0  0  0
   39.9600   26.7360   37.9860 N   0  0  0  0  0  0  0  0  0  0  0  0
   38.5540   27.9810   37.2360 H   0  0  0  0  0  0  0  0  0  0  0  0
   41.3980   25.4630   38.7800 H   0  0  0  0  0  0  0  0  0  0  0  0
   38.8580   27.3290   41.8450 N   0  0  0  0  0  0  0  0  0  0  0  0
   39.0470   27.9400   43.1790 C   0  0  0  0  0  2  0  0  0  0  0  0
   37.6610   28.2620   43.6760 C   0  0  0  0  0  2  0  0  0  0  0  0
   36.7860   27.2390   42.9570 C   0  0  0  0  0  2  0  0  0  0  0  0
   37.8930   26.3590   42.4150 C   0  0  0  0  0  3  0  0  0  0  0  0
   37.4830   25.6750   41.6760 H   0  0  0  0  0  0  0  0  0  0  0  0
  1  6  1  0  0  0  0
  2  1  1  0  0  0  0
  2  3  1  0  0  0  0
  2  7  1  0  0  0  0
  3  9  1  0  0  0  0
  3  4  1  0  0  0  0
  4  5  1  0  0  0  0
  5 13  1  0  0  0  0
  5 12  1  0  0  0  0
  6 15  1  0  0  0  0
  6  5  1  0  0  0  0
  8  2  1  0  0  0  0
 10  3  1  0  0  0  0
 11  4  1  0  0  0  0
 14  6  1  0  0  0  0
 16 17  1  0  0  0  0
 17  1  1  0  0  0  0
 17 18  2  0  0  0  0
 18 24  1  0  0  0  0
 19 18  1  0  0  0  0
 20 19  2  0  0  0  0
 21 16  2  0  0  0  0
 21 20  1  0  0  0  0
 22 16  1  0  0  0  0
 23 20  1  0  0  0  0
 24 28  1  0  0  0  0
 24 25  1  0  0  0  0
 25 26  1  0  0  0  0
 27 26  1  0  0  0  0
 28 27  1  0  0  0  0
 29 28  1  0  0  0  0
M  END
>  <minimizedAffinity>
-4.31104708

$$$$

 OpenBabel03242523043D

 29 31  0  0  0  0  0  0  0  0999 V2000
   37.9790   30.0410   37.5780 N   0  0  0  0  0  0  0  0  0  0  0  0
   37.0690   30.3780   36.5730 C   0  0  0  0  0  0  0  0  0  0  0  0
   36.7030   29.2820   35.6240 C   0  0  0  0  0  0  0  0  0  0  0  0
   37.7010   28.3560   35.2940 N   0  0  0  0  0  0  0  0  0  0  0  0
   38.6440   28.0460   36.2800 C   0  0  0  0  0  0  0  0  0  0  0  0
   38.2570   28.6430   37.6260 C   0  0  0  0  0  0  0  0  0  0  0  0
   37.4460   31.1860   35.9600 H   0  0  0  0  0  0  0  0  0  0  0  0
   36.0810   30.5800   37.0940 H   0  0  0  0  0  0  0  0  0  0  0  0
   36.3500   29.7590   34.6610 H   0  0  0  0  0  0  0  0  0  0  0  0
   35.7910   28.6920   35.9490 H   0  0  0  0  0  0  0  0  0  0  0  0
   37.2720   27.4790   34.9290 H   0  0  0  0  0  0  0  0  0  0  0  0
   39.6290   28.5360   36.0240 H   0  0  0  0  0  0  0  0  0  0  0  0
   38.8860   26.9920   36.4610 H   0  0  0  0  0  0  0  0  0  0  0  0
   37.2630   28.1380   37.8700 H   0  0  0  0  0  0  0  0  0  0  0  0
   38.9260   28.2990   38.4120 H   0  0  0  0  0  0  0  0  0  0  0  0
   39.5810   31.7730   38.0280 C   0  0  0  0  0  0  0  0  0  0  0  0
   38.5220   30.9860   38.4470 C   0  0  0  0  0  0  0  0  0  0  0  0
   38.0880   31.2070   39.7260 C   0  0  0  0  0  0  0  0  0  0  0  0
   38.6400   32.1270   40.5500 N   0  0  0  0  0  0  0  0  0  0  0  0
   39.6810   32.8790   40.0940 C   0  0  0  0  0  0  0  0  0  0  0  0
   40.1250   32.6910   38.8640 N   0  0  0  0  0  0  0  0  0  0  0  0
   40.0680   31.7600   37.0690 H   0  0  0  0  0  0  0  0  0  0  0  0
   40.1650   33.6340   40.7150 H   0  0  0  0  0  0  0  0  0  0  0  0
   37.0480   30.5480   40.4120 N   0  0  0  0  0  0  0  0  0  0  0  0
   35.6600   30.0480   40.5210 C   0  0  0  0  0  2  0  0  0  0  0  0
   35.7840   28.5900   40.8810 C   0  0  0  0  0  2  0  0  0  0  0  0
   37.1250   28.5220   41.6050 C   0  0  0  0  0  2  0  0  0  0  0  0
   37.3580   30.0110   41.7570 C   0  0  0  0  0  3  0  0  0  0  0  0
   38.3850   30.1860   42.0650 H   0  0  0  0  0  0  0  0  0  0  0  0
  1  6  1  0  0  0  0
  1 17  1  0  0  0  0
  2  8  1  0  0  0  0
  2  1  1  0  0  0  0
  3 10  1  0  0  0  0
  3  2  1  0  0  0  0
  4  3  1  0  0  0  0
  4  5  1  0  0  0  0
  5 13  1  0  0  0  0
  5  6  1  0  0  0  0
  6 14  1  0  0  0  0
  6 15  1  0  0  0  0
  7  2  1  0  0  0  0
  9  3  1  0  0  0  0
 11  4  1  0  0  0  0
 12  5  1  0  0  0  0
 16 17  2  0  0  0  0
 16 21  1  0  0  0  0
 17 18  1  0  0  0  0
 18 24  1  0  0  0  0
 18 19  2  0  0  0  0
 20 19  1  0  0  0  0
 20 23  1  0  0  0  0
 21 20  2  0  0  0  0
 22 16  1  0  0  0  0
 24 25  1  0  0  0  0
 24 28  1  0  0  0  0
 25 26  1  0  0  0  0
 26 27  1  0  0  0  0
 27 28  1  0  0  0  0
 28 29  1  0  0  0  0
M  END
>  <minimizedAffinity>
-4.23515701

$$$$

 OpenBabel03242523043D

 29 31  0  0  0  0  0  0  0  0999 V2000
   39.0900   30.1480   41.3610 N   0  0  0  0  0  0  0  0  0  0  0  0
   38.7720   29.7310   42.6560 C   0  0  0  0  0  0  0  0  0  0  0  0
   39.2700   28.3770   43.0500 C   0  0  0  0  0  0  0  0  0  0  0  0
   39.3100   27.3910   42.0550 N   0  0  0  0  0  0  0  0  0  0  0  0
   39.5820   27.8060   40.7460 C   0  0  0  0  0  0  0  0  0  0  0  0
   40.0000   29.2690   40.7040 C   0  0  0  0  0  0  0  0  0  0  0  0
   37.7020   29.7070   42.8070 H   0  0  0  0  0  0  0  0  0  0  0  0
   39.3510   30.4090   43.3590 H   0  0  0  0  0  0  0  0  0  0  0  0
   38.6100   27.9920   43.8830 H   0  0  0  0  0  0  0  0  0  0  0  0
   40.2910   28.3990   43.5420 H   0  0  0  0  0  0  0  0  0  0  0  0
   39.9690   26.6310   42.3280 H   0  0  0  0  0  0  0  0  0  0  0  0
   38.6340   27.7620   40.1340 H   0  0  0  0  0  0  0  0  0  0  0  0
   40.3260   27.2490   40.1650 H   0  0  0  0  0  0  0  0  0  0  0  0
   40.9570   29.2960   41.3240 H   0  0  0  0  0  0  0  0  0  0  0  0
   40.3270   29.5520   39.7050 H   0  0  0  0  0  0  0  0  0  0  0  0
   39.1790   32.5340   41.0920 C   0  0  0  0  0  0  0  0  0  0  0  0
   38.5790   31.3190   40.8040 C   0  0  0  0  0  0  0  0  0  0  0  0
   37.4930   31.3760   39.9720 C   0  0  0  0  0  0  0  0  0  0  0  0
   37.0150   32.5300   39.4520 N   0  0  0  0  0  0  0  0  0  0  0  0
   37.6380   33.7010   39.7630 C   0  0  0  0  0  0  0  0  0  0  0  0
   38.6880   33.6820   40.5640 N   0  0  0  0  0  0  0  0  0  0  0  0
   40.0350   32.7090   41.7170 H   0  0  0  0  0  0  0  0  0  0  0  0
   37.2940   34.6600   39.3730 H   0  0  0  0  0  0  0  0  0  0  0  0
   36.6900   30.3080   39.5260 N   0  0  0  0  0  0  0  0  0  0  0  0
   36.3370   29.2490   38.5560 C   0  0  0  0  0  2  0  0  0  0  0  0
   36.2330   27.9800   39.3630 C   0  0  0  0  0  2  0  0  0  0  0  0
   35.8570   28.4820   40.7540 C   0  0  0  0  0  2  0  0  0  0  0  0
   35.5460   29.9170   40.3840 C   0  0  0  0  0  3  0  0  0  0  0  0
   35.4630   30.5140   41.2880 H   0  0  0  0  0  0  0  0  0  0  0  0
  1  2  1  0  0  0  0
  2  7  1  0  0  0  0
  2  3  1  0  0  0  0
  2  8  1  0  0  0  0
  3 10  1  0  0  0  0
  3  9  1  0  0  0  0
  4 11  1  0  0  0  0
  4  3  1  0  0  0  0
  5  4  1  0  0  0  0
  6  5  1  0  0  0  0
  6 14  1  0  0  0  0
  6  1  1  0  0  0  0
 12  5  1  0  0  0  0
 13  5  1  0  0  0  0
 15  6  1  0  0  0  0
 16 22  1  0  0  0  0
 17 16  1  0  0  0  0
 17  1  1  0  0  0  0
 18 17  2  0  0  0  0
 19 20  2  0  0  0  0
 19 18  1  0  0  0  0
 20 21  1  0  0  0  0
 21 16  2  0  0  0  0
 23 20  1  0  0  0  0
 24 18  1  0  0  0  0
 24 28  1  0  0  0  0
 25 26  1  0  0  0  0
 25 24  1  0  0  0  0
 26 27  1  0  0  0  0
 28 27  1  0  0  0  0
 28 29  1  0  0  0  0
M  END
>  <minimizedAffinity>
-4.18367481

$$$$

 OpenBabel03242523043D

 29 31  0  0  0  0  0  0  0  0999 V2000
   37.4390   30.0580   39.9820 N   0  0  0  0  0  0  0  0  0  0  0  0
   37.5550   29.1630   38.9160 C   0  0  0  0  0  0  0  0  0  0  0  0
   36.2710   28.6350   38.3590 C   0  0  0  0  0  0  0  0  0  0  0  0
   35.2200   28.4190   39.2590 N   0  0  0  0  0  0  0  0  0  0  0  0
   35.1220   29.2820   40.3560 C   0  0  0  0  0  0  0  0  0  0  0  0
   36.0910   30.4510   40.2310 C   0  0  0  0  0  0  0  0  0  0  0  0
   38.1350   28.2950   39.1960 H   0  0  0  0  0  0  0  0  0  0  0  0
   37.9630   29.7620   38.0420 H   0  0  0  0  0  0  0  0  0  0  0  0
   36.4920   27.6490   37.8510 H   0  0  0  0  0  0  0  0  0  0  0  0
   35.8600   29.2590   37.5060 H   0  0  0  0  0  0  0  0  0  0  0  0
   34.3100   28.3920   38.7510 H   0  0  0  0  0  0  0  0  0  0  0  0
   35.4500   28.7400   41.2910 H   0  0  0  0  0  0  0  0  0  0  0  0
   34.1430   29.7110   40.6000 H   0  0  0  0  0  0  0  0  0  0  0  0
   35.7460   30.9870   39.2850 H   0  0  0  0  0  0  0  0  0  0  0  0
   35.9250   31.1800   41.0210 H   0  0  0  0  0  0  0  0  0  0  0  0
   39.3110   31.5510   40.1710 C   0  0  0  0  0  0  0  0  0  0  0  0
   38.5420   30.5240   40.6940 C   0  0  0  0  0  0  0  0  0  0  0  0
   38.9510   30.0330   41.9050 C   0  0  0  0  0  0  0  0  0  0  0  0
   40.0330   30.5010   42.5690 N   0  0  0  0  0  0  0  0  0  0  0  0
   40.7590   31.5130   42.0160 C   0  0  0  0  0  0  0  0  0  0  0  0
   40.3920   32.0100   40.8490 N   0  0  0  0  0  0  0  0  0  0  0  0
   39.1630   32.0730   39.2430 H   0  0  0  0  0  0  0  0  0  0  0  0
   41.6410   31.9280   42.5080 H   0  0  0  0  0  0  0  0  0  0  0  0
   38.3730   28.9910   42.6540 N   0  0  0  0  0  0  0  0  0  0  0  0
   37.4360   28.4730   43.6760 C   0  0  0  0  0  2  0  0  0  0  0  0
   36.6550   27.3810   42.9920 C   0  0  0  0  0  2  0  0  0  0  0  0
   37.6140   26.8910   41.9110 C   0  0  0  0  0  2  0  0  0  0  0  0
   38.8560   27.6150   42.3870 C   0  0  0  0  0  3  0  0  0  0  0  0
   39.6200   27.5700   41.6150 H   0  0  0  0  0  0  0  0  0  0  0  0
  1  6  1  0  0  0  0
  1 17  1  0  0  0  0
  2  7  1  0  0  0  0
  2  1  1  0  0  0  0
  3  2  1  0  0  0  0
  3  4  1  0  0  0  0
  4  5  1  0  0  0  0
  5 13  1  0  0  0  0
  5 12  1  0  0  0  0
  6  5  1  0  0  0  0
  6 15  1  0  0  0  0
  8  2  1  0  0  0  0
  9  3  1  0  0  0  0
 10  3  1  0  0  0  0
 11  4  1  0  0  0  0
 14  6  1  0  0  0  0
 16 17  2  0  0  0  0
 16 21  1  0  0  0  0
 17 18  1  0  0  0  0
 18 19  2  0  0  0  0
 18 24  1  0  0  0  0
 20 23  1  0  0  0  0
 20 19  1  0  0  0  0
 21 20  2  0  0  0  0
 22 16  1  0  0  0  0
 24 25  1  0  0  0  0
 26 25  1  0  0  0  0
 27 28  1  0  0  0  0
 27 26  1  0  0  0  0
 28 24  1  0  0  0  0
 29 28  1  0  0  0  0
M  END
>  <minimizedAffinity>
-4.13133955

$$$$

 OpenBabel03242523043D

 29 31  0  0  0  0  0  0  0  0999 V2000
   38.4030   29.7020   38.9450 N   0  0  0  0  0  0  0  0  0  0  0  0
   37.3880   30.3560   38.2420 C   0  0  0  0  0  0  0  0  0  0  0  0
   36.9140   29.6830   36.9940 C   0  0  0  0  0  0  0  0  0  0  0  0
   37.8660   28.9870   36.2370 N   0  0  0  0  0  0  0  0  0  0  0  0
   38.9120   28.3660   36.9290 C   0  0  0  0  0  0  0  0  0  0  0  0
   38.6790   28.4000   38.4330 C   0  0  0  0  0  0  0  0  0  0  0  0
   37.6980   31.3480   37.9430 H   0  0  0  0  0  0  0  0  0  0  0  0
   36.4650   30.3100   38.9010 H   0  0  0  0  0  0  0  0  0  0  0  0
   36.4580   30.4720   36.3250 H   0  0  0  0  0  0  0  0  0  0  0  0
   36.0420   28.9790   37.1660 H   0  0  0  0  0  0  0  0  0  0  0  0
   37.3950   28.2940   35.6150 H   0  0  0  0  0  0  0  0  0  0  0  0
   39.8640   28.9530   36.7740 H   0  0  0  0  0  0  0  0  0  0  0  0
   39.1670   27.3310   36.6730 H   0  0  0  0  0  0  0  0  0  0  0  0
   37.7160   27.8030   38.5710 H   0  0  0  0  0  0  0  0  0  0  0  0
   39.4300   27.8110   38.9560 H   0  0  0  0  0  0  0  0  0  0  0  0
   40.0830   31.1640   39.8430 C   0  0  0  0  0  0  0  0  0  0  0  0
   39.0430   30.2720   40.0440 C   0  0  0  0  0  0  0  0  0  0  0  0
   38.7260   30.0130   41.3500 C   0  0  0  0  0  0  0  0  0  0  0  0
   39.3710   30.5760   42.3970 N   0  0  0  0  0  0  0  0  0  0  0  0
   40.3890   31.4480   42.1520 C   0  0  0  0  0  0  0  0  0  0  0  0
   40.7210   31.7200   40.9030 N   0  0  0  0  0  0  0  0  0  0  0  0
   40.4860   31.5010   38.9060 H   0  0  0  0  0  0  0  0  0  0  0  0
   40.9440   31.9310   42.9580 H   0  0  0  0  0  0  0  0  0  0  0  0
   37.7310   29.1450   41.8420 N   0  0  0  0  0  0  0  0  0  0  0  0
   36.5740   28.2410   41.6630 C   0  0  0  0  0  2  0  0  0  0  0  0
   36.9530   26.9580   42.3590 C   0  0  0  0  0  2  0  0  0  0  0  0
   37.9380   27.4200   43.4290 C   0  0  0  0  0  2  0  0  0  0  0  0
   37.6990   28.9110   43.3050 C   0  0  0  0  0  3  0  0  0  0  0  0
   38.4760   29.4470   43.8430 H   0  0  0  0  0  0  0  0  0  0  0  0
  1 17  1  0  0  0  0
  2  8  1  0  0  0  0
  2  1  1  0  0  0  0
  3 10  1  0  0  0  0
  3  2  1  0  0  0  0
  4  5  1  0  0  0  0
  4  3  1  0  0  0  0
  5  6  1  0  0  0  0
  6 14  1  0  0  0  0
  6  1  1  0  0  0  0
  6 15  1  0  0  0  0
  7  2  1  0  0  0  0
  9  3  1  0  0  0  0
 11  4  1  0  0  0  0
 12  5  1  0  0  0  0
 13  5  1  0  0  0  0
 16 17  2  0  0  0  0
 16 21  1  0  0  0  0
 17 18  1  0  0  0  0
 18 24  1  0  0  0  0
 18 19  2  0  0  0  0
 20 19  1  0  0  0  0
 20 23  1  0  0  0  0
 21 20  2  0  0  0  0
 22 16  1  0  0  0  0
 24 28  1  0  0  0  0
 25 24  1  0  0  0  0
 25 26  1  0  0  0  0
 26 27  1  0  0  0  0
 28 27  1  0  0  0  0
 28 29  1  0  0  0  0
M  END
>  <minimizedAffinity>
-4.12336874

$$$$
