
 OpenBabel03242512233D

 38 41  0  0  0  0  0  0  0  0999 V2000
   36.5690   31.2240   39.9390 C   0  0  0  0  0  0  0  0  0  0  0  0
   37.3090   32.0850   39.1740 C   0  0  0  0  0  0  0  0  0  0  0  0
   37.6820   31.7070   37.9160 C   0  0  0  0  0  0  0  0  0  0  0  0
   37.3090   30.4620   37.4250 C   0  0  0  0  0  0  0  0  0  0  0  0
   36.5610   29.6160   38.2220 C   0  0  0  0  0  0  0  0  0  0  0  0
   36.1770   29.9890   39.5050 C   0  0  0  0  0  0  0  0  0  0  0  0
   38.2700   32.4090   37.3270 H   0  0  0  0  0  0  0  0  0  0  0  0
   37.6080   30.1710   36.4240 H   0  0  0  0  0  0  0  0  0  0  0  0
   36.2870   28.6530   37.8110 H   0  0  0  0  0  0  0  0  0  0  0  0
   37.6610   33.3810   39.7700 C   0  0  0  0  0  0  0  0  0  0  0  0
   36.9970   33.6900   40.5630 H   0  0  0  0  0  0  0  0  0  0  0  0
   37.5410   34.1460   38.9500 H   0  0  0  0  0  0  0  0  0  0  0  0
   39.1220   33.3990   40.1710 C   0  0  0  0  0  0  0  0  0  0  0  0
   39.8630   34.5310   39.8360 C   0  0  0  0  0  0  0  0  0  0  0  0
   41.1940   34.5360   40.2090 C   0  0  0  0  0  0  0  0  0  0  0  0
   41.6890   33.4700   40.8600 N   0  0  0  0  0  0  0  0  0  0  0  0
   40.9430   32.3800   41.1730 C   0  0  0  0  0  0  0  0  0  0  0  0
   39.6660   32.3670   40.8200 N   0  0  0  0  0  0  0  0  0  0  0  0
   39.4070   35.3640   39.3080 H   0  0  0  0  0  0  0  0  0  0  0  0
   41.8040   35.3980   39.9670 H   0  0  0  0  0  0  0  0  0  0  0  0
   41.4000   31.5550   41.6980 H   0  0  0  0  0  0  0  0  0  0  0  0
   36.1380   31.5170   41.2430 O   0  0  0  0  0  0  0  0  0  0  0  0
   35.1750   31.8050   41.3720 H   0  0  0  0  0  0  0  0  0  0  0  0
   35.4240   29.0600   40.2250 O   0  0  0  0  0  0  0  0  0  0  0  0
   36.1830   28.0700   40.8480 C   0  0  0  0  0  0  0  0  0  0  0  0
   36.5680   28.2930   42.1610 C   0  0  0  0  0  0  0  0  0  0  0  0
   37.3320   27.3550   42.8690 C   0  0  0  0  0  0  0  0  0  0  0  0
   37.6940   26.2150   42.2500 N   0  0  0  0  0  0  0  0  0  0  0  0
   37.3150   26.0120   40.9820 C   0  0  0  0  0  0  0  0  0  0  0  0
   36.5830   26.9120   40.3030 N   0  0  0  0  0  0  0  0  0  0  0  0
   36.3250   29.1740   42.7330 H   0  0  0  0  0  0  0  0  0  0  0  0
   37.6400   27.5100   43.8840 H   0  0  0  0  0  0  0  0  0  0  0  0
   37.7010   24.8080   40.3370 N   0  0  0  0  0  0  0  0  0  0  0  0
   37.5980   23.4890   40.9780 C   0  0  0  0  0  2  0  0  0  0  0  0
   38.1120   22.5240   39.9370 C   0  0  0  0  0  2  0  0  0  0  0  0
   39.0120   23.3830   39.0410 C   0  0  0  0  0  2  0  0  0  0  0  0
   38.2400   24.6700   38.9890 C   0  0  0  0  0  3  0  0  0  0  0  0
   37.4480   24.6590   38.2100 H   0  0  0  0  0  0  0  0  0  0  0  0
  1 22  1  0  0  0  0
  2 10  1  0  0  0  0
  2  1  2  0  0  0  0
  3  2  1  0  0  0  0
  4  3  2  0  0  0  0
  4  5  1  0  0  0  0
  5  6  2  0  0  0  0
  6  1  1  0  0  0  0
  6 24  1  0  0  0  0
  7  3  1  0  0  0  0
  8  4  1  0  0  0  0
  9  5  1  0  0  0  0
 10 13  1  0  0  0  0
 10 11  1  0  0  0  0
 12 10  1  0  0  0  0
 13 18  1  0  0  0  0
 14 13  2  0  0  0  0
 14 15  1  0  0  0  0
 15 16  2  0  0  0  0
 16 17  1  0  0  0  0
 17 21  1  0  0  0  0
 18 17  2  0  0  0  0
 19 14  1  0  0  0  0
 20 15  1  0  0  0  0
 22 23  1  0  0  0  0
 24 25  1  0  0  0  0
 25 26  1  0  0  0  0
 26 31  1  0  0  0  0
 26 27  2  0  0  0  0
 27 32  1  0  0  0  0
 28 27  1  0  0  0  0
 29 28  2  0  0  0  0
 30 25  2  0  0  0  0
 30 29  1  0  0  0  0
 33 34  1  0  0  0  0
 33 29  1  0  0  0  0
 35 34  1  0  0  0  0
 36 35  1  0  0  0  0
 37 36  1  0  0  0  0
 37 33  1  0  0  0  0
 38 37  1  0  0  0  0
M  END
>  <minimizedAffinity>
-6.56269884

$$$$

 OpenBabel03242512233D

 38 41  0  0  0  0  0  0  0  0999 V2000
   36.4110   31.0990   39.8280 C   0  0  0  0  0  0  0  0  0  0  0  0
   36.0550   29.9770   39.1290 C   0  0  0  0  0  0  0  0  0  0  0  0
   36.4950   29.8220   37.8470 C   0  0  0  0  0  0  0  0  0  0  0  0
   37.2960   30.7970   37.2640 C   0  0  0  0  0  0  0  0  0  0  0  0
   37.6370   31.9180   37.9950 C   0  0  0  0  0  0  0  0  0  0  0  0
   37.1950   32.0870   39.3020 C   0  0  0  0  0  0  0  0  0  0  0  0
   36.1990   28.9200   37.3110 H   0  0  0  0  0  0  0  0  0  0  0  0
   37.6410   30.6650   36.2440 H   0  0  0  0  0  0  0  0  0  0  0  0
   38.2610   32.6590   37.5120 H   0  0  0  0  0  0  0  0  0  0  0  0
   35.2060   28.9960   39.8200 C   0  0  0  0  0  0  0  0  0  0  0  0
   34.5010   28.4980   39.1710 H   0  0  0  0  0  0  0  0  0  0  0  0
   34.5870   29.5820   40.5580 H   0  0  0  0  0  0  0  0  0  0  0  0
   36.0570   28.0380   40.6290 C   0  0  0  0  0  0  0  0  0  0  0  0
   36.5400   26.9050   39.9760 C   0  0  0  0  0  0  0  0  0  0  0  0
   37.3150   26.0390   40.7240 C   0  0  0  0  0  0  0  0  0  0  0  0
   37.5540   26.3330   42.0130 N   0  0  0  0  0  0  0  0  0  0  0  0
   37.0700   27.4440   42.6220 C   0  0  0  0  0  0  0  0  0  0  0  0
   36.3260   28.2790   41.9130 N   0  0  0  0  0  0  0  0  0  0  0  0
   36.3130   26.7210   38.9290 H   0  0  0  0  0  0  0  0  0  0  0  0
   37.7100   25.1470   40.2520 H   0  0  0  0  0  0  0  0  0  0  0  0
   37.2990   27.6230   43.6630 H   0  0  0  0  0  0  0  0  0  0  0  0
   36.0100   31.3520   41.1490 O   0  0  0  0  0  0  0  0  0  0  0  0
   36.6790   31.1820   41.8900 H   0  0  0  0  0  0  0  0  0  0  0  0
   37.5970   33.2560   39.9500 O   0  0  0  0  0  0  0  0  0  0  0  0
   38.9490   33.2850   40.2900 C   0  0  0  0  0  0  0  0  0  0  0  0
   39.6710   34.4170   39.9420 C   0  0  0  0  0  0  0  0  0  0  0  0
   41.0340   34.5360   40.2420 C   0  0  0  0  0  0  0  0  0  0  0  0
   41.6470   33.5230   40.8840 N   0  0  0  0  0  0  0  0  0  0  0  0
   40.9380   32.4360   41.2140 C   0  0  0  0  0  0  0  0  0  0  0  0
   39.6310   32.3220   40.9260 N   0  0  0  0  0  0  0  0  0  0  0  0
   39.2640   35.2720   39.4280 H   0  0  0  0  0  0  0  0  0  0  0  0
   41.6100   35.4020   39.9810 H   0  0  0  0  0  0  0  0  0  0  0  0
   41.5920   31.3730   41.8900 N   0  0  0  0  0  0  0  0  0  0  0  0
   42.5070   31.5860   43.0210 C   0  0  0  0  0  2  0  0  0  0  0  0
   42.9540   30.1970   43.4110 C   0  0  0  0  0  2  0  0  0  0  0  0
   42.7550   29.3680   42.1360 C   0  0  0  0  0  2  0  0  0  0  0  0
   41.4780   29.9480   41.5990 C   0  0  0  0  0  3  0  0  0  0  0  0
   40.5760   29.4870   42.0580 H   0  0  0  0  0  0  0  0  0  0  0  0
  1 22  1  0  0  0  0
  2 10  1  0  0  0  0
  2  1  2  0  0  0  0
  3  2  1  0  0  0  0
  4  3  2  0  0  0  0
  4  5  1  0  0  0  0
  5  6  2  0  0  0  0
  6  1  1  0  0  0  0
  6 24  1  0  0  0  0
  7  3  1  0  0  0  0
  8  4  1  0  0  0  0
  9  5  1  0  0  0  0
 10 12  1  0  0  0  0
 10 13  1  0  0  0  0
 11 10  1  0  0  0  0
 13 18  1  0  0  0  0
 14 13  2  0  0  0  0
 14 15  1  0  0  0  0
 15 16  2  0  0  0  0
 16 17  1  0  0  0  0
 17 21  1  0  0  0  0
 18 17  2  0  0  0  0
 19 14  1  0  0  0  0
 20 15  1  0  0  0  0
 22 23  1  0  0  0  0
 24 25  1  0  0  0  0
 25 30  1  0  0  0  0
 26 27  1  0  0  0  0
 26 25  2  0  0  0  0
 27 28  2  0  0  0  0
 28 29  1  0  0  0  0
 29 33  1  0  0  0  0
 30 29  2  0  0  0  0
 31 26  1  0  0  0  0
 32 27  1  0  0  0  0
 33 34  1  0  0  0  0
 34 35  1  0  0  0  0
 36 35  1  0  0  0  0
 37 33  1  0  0  0  0
 37 38  1  0  0  0  0
 37 36  1  0  0  0  0
M  END
>  <minimizedAffinity>
-6.34194374

$$$$

 OpenBabel03242512233D

 38 41  0  0  0  0  0  0  0  0999 V2000
   36.3940   30.7890   39.8880 C   0  0  0  0  0  0  0  0  0  0  0  0
   36.1380   29.4530   39.7310 C   0  0  0  0  0  0  0  0  0  0  0  0
   36.4470   28.8500   38.5470 C   0  0  0  0  0  0  0  0  0  0  0  0
   37.0140   29.5890   37.5170 C   0  0  0  0  0  0  0  0  0  0  0  0
   37.2600   30.9350   37.7050 C   0  0  0  0  0  0  0  0  0  0  0  0
   36.9500   31.5610   38.9070 C   0  0  0  0  0  0  0  0  0  0  0  0
   36.2340   27.7850   38.4470 H   0  0  0  0  0  0  0  0  0  0  0  0
   37.2570   29.1000   36.5790 H   0  0  0  0  0  0  0  0  0  0  0  0
   37.7020   31.4830   36.8830 H   0  0  0  0  0  0  0  0  0  0  0  0
   35.5370   28.7460   40.8710 C   0  0  0  0  0  0  0  0  0  0  0  0
   34.8040   28.0060   40.5850 H   0  0  0  0  0  0  0  0  0  0  0  0
   34.9740   29.5250   41.4620 H   0  0  0  0  0  0  0  0  0  0  0  0
   36.6150   28.2020   41.7840 C   0  0  0  0  0  0  0  0  0  0  0  0
   36.9550   26.8570   41.6420 C   0  0  0  0  0  0  0  0  0  0  0  0
   37.9410   26.3720   42.4800 C   0  0  0  0  0  0  0  0  0  0  0  0
   38.5050   27.2080   43.3680 N   0  0  0  0  0  0  0  0  0  0  0  0
   38.1550   28.5130   43.4840 C   0  0  0  0  0  0  0  0  0  0  0  0
   37.2100   28.9870   42.6850 N   0  0  0  0  0  0  0  0  0  0  0  0
   36.4620   26.2290   40.9040 H   0  0  0  0  0  0  0  0  0  0  0  0
   38.2330   25.3320   42.4000 H   0  0  0  0  0  0  0  0  0  0  0  0
   38.6470   29.1340   44.2180 H   0  0  0  0  0  0  0  0  0  0  0  0
   36.1130   31.5020   41.0640 O   0  0  0  0  0  0  0  0  0  0  0  0
   36.8820   31.7040   41.6930 H   0  0  0  0  0  0  0  0  0  0  0  0
   37.2380   32.9250   38.9920 O   0  0  0  0  0  0  0  0  0  0  0  0
   38.5590   33.2090   39.3360 C   0  0  0  0  0  0  0  0  0  0  0  0
   38.7720   34.1820   40.3010 C   0  0  0  0  0  0  0  0  0  0  0  0
   40.0640   34.5360   40.7110 C   0  0  0  0  0  0  0  0  0  0  0  0
   41.1160   33.9090   40.1510 N   0  0  0  0  0  0  0  0  0  0  0  0
   40.8960   32.9700   39.2210 C   0  0  0  0  0  0  0  0  0  0  0  0
   39.6570   32.6320   38.8270 N   0  0  0  0  0  0  0  0  0  0  0  0
   37.9930   34.7350   40.8000 H   0  0  0  0  0  0  0  0  0  0  0  0
   40.2490   35.2860   41.4540 H   0  0  0  0  0  0  0  0  0  0  0  0
   42.0110   32.3140   38.6350 N   0  0  0  0  0  0  0  0  0  0  0  0
   43.1460   31.8100   39.4210 C   0  0  0  0  0  2  0  0  0  0  0  0
   44.0720   31.2010   38.3960 C   0  0  0  0  0  2  0  0  0  0  0  0
   43.7090   31.9180   37.0890 C   0  0  0  0  0  2  0  0  0  0  0  0
   42.2170   32.0350   37.2190 C   0  0  0  0  0  3  0  0  0  0  0  0
   41.6880   31.1180   36.8810 H   0  0  0  0  0  0  0  0  0  0  0  0
  1 22  1  0  0  0  0
  2  1  1  0  0  0  0
  2 10  1  0  0  0  0
  3  2  2  0  0  0  0
  4  5  2  0  0  0  0
  4  3  1  0  0  0  0
  5  6  1  0  0  0  0
  6 24  1  0  0  0  0
  6  1  2  0  0  0  0
  7  3  1  0  0  0  0
  8  4  1  0  0  0  0
  9  5  1  0  0  0  0
 10 12  1  0  0  0  0
 10 13  1  0  0  0  0
 11 10  1  0  0  0  0
 13 18  1  0  0  0  0
 14 13  2  0  0  0  0
 14 15  1  0  0  0  0
 15 16  2  0  0  0  0
 16 17  1  0  0  0  0
 17 21  1  0  0  0  0
 18 17  2  0  0  0  0
 19 14  1  0  0  0  0
 20 15  1  0  0  0  0
 22 23  1  0  0  0  0
 24 25  1  0  0  0  0
 25 26  1  0  0  0  0
 26 27  2  0  0  0  0
 26 31  1  0  0  0  0
 27 32  1  0  0  0  0
 28 27  1  0  0  0  0
 29 28  2  0  0  0  0
 30 29  1  0  0  0  0
 30 25  2  0  0  0  0
 33 29  1  0  0  0  0
 33 34  1  0  0  0  0
 35 34  1  0  0  0  0
 36 37  1  0  0  0  0
 36 35  1  0  0  0  0
 37 33  1  0  0  0  0
 38 37  1  0  0  0  0
M  END
>  <minimizedAffinity>
-6.34033823

$$$$

 OpenBabel03242512233D

 38 41  0  0  0  0  0  0  0  0999 V2000
   36.9440   28.5400   41.9150 C   0  0  0  0  0  0  0  0  0  0  0  0
   37.3380   27.2810   42.2810 C   0  0  0  0  0  0  0  0  0  0  0  0
   37.1650   26.2470   41.4060 C   0  0  0  0  0  0  0  0  0  0  0  0
   36.5960   26.4780   40.1600 C   0  0  0  0  0  0  0  0  0  0  0  0
   36.2090   27.7600   39.8200 C   0  0  0  0  0  0  0  0  0  0  0  0
   36.3790   28.8210   40.7020 C   0  0  0  0  0  0  0  0  0  0  0  0
   37.4870   25.2540   41.7210 H   0  0  0  0  0  0  0  0  0  0  0  0
   36.4640   25.6510   39.4710 H   0  0  0  0  0  0  0  0  0  0  0  0
   35.7690   27.9070   38.8430 H   0  0  0  0  0  0  0  0  0  0  0  0
   37.9300   27.1230   43.6160 C   0  0  0  0  0  0  0  0  0  0  0  0
   37.5400   26.2810   44.1690 H   0  0  0  0  0  0  0  0  0  0  0  0
   37.6320   28.0410   44.2010 H   0  0  0  0  0  0  0  0  0  0  0  0
   39.4420   27.1340   43.5290 C   0  0  0  0  0  0  0  0  0  0  0  0
   40.1110   25.9580   43.8660 C   0  0  0  0  0  0  0  0  0  0  0  0
   41.4900   25.9800   43.7810 C   0  0  0  0  0  0  0  0  0  0  0  0
   42.0960   27.1120   43.3860 N   0  0  0  0  0  0  0  0  0  0  0  0
   41.4200   28.2430   43.0640 C   0  0  0  0  0  0  0  0  0  0  0  0
   40.0970   28.2310   43.1430 N   0  0  0  0  0  0  0  0  0  0  0  0
   39.5640   25.0730   44.1790 H   0  0  0  0  0  0  0  0  0  0  0  0
   42.0460   25.0860   44.0340 H   0  0  0  0  0  0  0  0  0  0  0  0
   41.9670   29.1210   42.7540 H   0  0  0  0  0  0  0  0  0  0  0  0
   37.0770   29.6670   42.7410 O   0  0  0  0  0  0  0  0  0  0  0  0
   37.8450   30.3020   42.5580 H   0  0  0  0  0  0  0  0  0  0  0  0
   35.9530   30.0740   40.2590 O   0  0  0  0  0  0  0  0  0  0  0  0
   36.9270   30.7990   39.5730 C   0  0  0  0  0  0  0  0  0  0  0  0
   36.8270   30.8510   38.1910 C   0  0  0  0  0  0  0  0  0  0  0  0
   37.7580   31.5550   37.4160 C   0  0  0  0  0  0  0  0  0  0  0  0
   38.7690   32.1920   38.0380 N   0  0  0  0  0  0  0  0  0  0  0  0
   38.8530   32.1330   39.3730 C   0  0  0  0  0  0  0  0  0  0  0  0
   37.9600   31.4580   40.1160 N   0  0  0  0  0  0  0  0  0  0  0  0
   36.0550   30.3730   37.6110 H   0  0  0  0  0  0  0  0  0  0  0  0
   37.6990   31.6060   36.3470 H   0  0  0  0  0  0  0  0  0  0  0  0
   39.9220   32.8070   40.0210 N   0  0  0  0  0  0  0  0  0  0  0  0
   40.3310   34.1760   39.6750 C   0  0  0  0  0  2  0  0  0  0  0  0
   41.4840   34.4710   40.6050 C   0  0  0  0  0  2  0  0  0  0  0  0
   42.0300   33.0860   40.9750 C   0  0  0  0  0  2  0  0  0  0  0  0
   40.7630   32.2880   41.0940 C   0  0  0  0  0  3  0  0  0  0  0  0
   40.2900   32.3860   42.0950 H   0  0  0  0  0  0  0  0  0  0  0  0
  1  2  1  0  0  0  0
  1 22  1  0  0  0  0
  2 10  1  0  0  0  0
  3  7  1  0  0  0  0
  3  2  2  0  0  0  0
  4  3  1  0  0  0  0
  5  4  2  0  0  0  0
  5  6  1  0  0  0  0
  6  1  2  0  0  0  0
  8  4  1  0  0  0  0
  9  5  1  0  0  0  0
 10 11  1  0  0  0  0
 10 12  1  0  0  0  0
 13 10  1  0  0  0  0
 13 14  1  0  0  0  0
 14 19  1  0  0  0  0
 15 14  2  0  0  0  0
 15 20  1  0  0  0  0
 16 15  1  0  0  0  0
 17 18  1  0  0  0  0
 17 16  2  0  0  0  0
 18 13  2  0  0  0  0
 21 17  1  0  0  0  0
 23 22  1  0  0  0  0
 24  6  1  0  0  0  0
 25 30  1  0  0  0  0
 25 24  1  0  0  0  0
 26 25  2  0  0  0  0
 27 28  2  0  0  0  0
 27 26  1  0  0  0  0
 28 29  1  0  0  0  0
 29 33  1  0  0  0  0
 29 30  2  0  0  0  0
 31 26  1  0  0  0  0
 32 27  1  0  0  0  0
 33 37  1  0  0  0  0
 34 33  1  0  0  0  0
 34 35  1  0  0  0  0
 35 36  1  0  0  0  0
 36 37  1  0  0  0  0
 37 38  1  0  0  0  0
M  END
>  <minimizedAffinity>
-6.31436825

$$$$

 OpenBabel03242512233D

 38 41  0  0  0  0  0  0  0  0999 V2000
   36.7500   28.4120   41.9010 C   0  0  0  0  0  0  0  0  0  0  0  0
   36.1330   28.5730   40.6890 C   0  0  0  0  0  0  0  0  0  0  0  0
   36.1470   27.5440   39.7930 C   0  0  0  0  0  0  0  0  0  0  0  0
   36.7810   26.3500   40.1130 C   0  0  0  0  0  0  0  0  0  0  0  0
   37.3940   26.2190   41.3440 C   0  0  0  0  0  0  0  0  0  0  0  0
   37.3880   27.2600   42.2660 C   0  0  0  0  0  0  0  0  0  0  0  0
   35.6490   27.6960   38.8350 H   0  0  0  0  0  0  0  0  0  0  0  0
   36.7860   25.5380   39.3940 H   0  0  0  0  0  0  0  0  0  0  0  0
   37.8800   25.2770   41.5630 H   0  0  0  0  0  0  0  0  0  0  0  0
   35.4870   29.8670   40.4300 C   0  0  0  0  0  0  0  0  0  0  0  0
   34.8900   30.2280   41.2550 H   0  0  0  0  0  0  0  0  0  0  0  0
   34.7660   29.6930   39.5800 H   0  0  0  0  0  0  0  0  0  0  0  0
   36.5030   30.8770   39.9390 C   0  0  0  0  0  0  0  0  0  0  0  0
   36.7910   30.8820   38.5750 C   0  0  0  0  0  0  0  0  0  0  0  0
   37.7190   31.8090   38.1380 C   0  0  0  0  0  0  0  0  0  0  0  0
   38.2810   32.6350   39.0370 N   0  0  0  0  0  0  0  0  0  0  0  0
   37.9820   32.6070   40.3590 C   0  0  0  0  0  0  0  0  0  0  0  0
   37.0930   31.7220   40.7870 N   0  0  0  0  0  0  0  0  0  0  0  0
   36.3030   30.1880   37.8960 H   0  0  0  0  0  0  0  0  0  0  0  0
   37.9690   31.8450   37.0850 H   0  0  0  0  0  0  0  0  0  0  0  0
   38.4690   33.2990   41.0310 H   0  0  0  0  0  0  0  0  0  0  0  0
   36.7930   29.4080   42.8900 O   0  0  0  0  0  0  0  0  0  0  0  0
   36.1520   29.3300   43.6710 H   0  0  0  0  0  0  0  0  0  0  0  0
   38.0370   27.0230   43.4780 O   0  0  0  0  0  0  0  0  0  0  0  0
   39.4150   27.2360   43.4400 C   0  0  0  0  0  0  0  0  0  0  0  0
   40.2330   26.2010   43.8670 C   0  0  0  0  0  0  0  0  0  0  0  0
   41.6290   26.3230   43.8650 C   0  0  0  0  0  0  0  0  0  0  0  0
   42.1770   27.4760   43.4360 N   0  0  0  0  0  0  0  0  0  0  0  0
   41.3750   28.4670   43.0260 C   0  0  0  0  0  0  0  0  0  0  0  0
   40.0370   28.3500   43.0290 N   0  0  0  0  0  0  0  0  0  0  0  0
   39.8820   25.2470   44.2260 H   0  0  0  0  0  0  0  0  0  0  0  0
   42.2780   25.5350   44.1910 H   0  0  0  0  0  0  0  0  0  0  0  0
   41.9620   29.6790   42.5760 N   0  0  0  0  0  0  0  0  0  0  0  0
   43.1110   29.7200   41.6610 C   0  0  0  0  0  2  0  0  0  0  0  0
   43.3840   31.1920   41.4650 C   0  0  0  0  0  2  0  0  0  0  0  0
   42.7900   31.8540   42.7140 C   0  0  0  0  0  2  0  0  0  0  0  0
   41.5480   31.0350   42.9220 C   0  0  0  0  0  3  0  0  0  0  0  0
   40.6940   31.3920   42.3070 H   0  0  0  0  0  0  0  0  0  0  0  0
  1  6  1  0  0  0  0
  1 22  1  0  0  0  0
  2  1  2  0  0  0  0
  3  4  2  0  0  0  0
  3  2  1  0  0  0  0
  4  5  1  0  0  0  0
  5  9  1  0  0  0  0
  5  6  2  0  0  0  0
  6 24  1  0  0  0  0
  7  3  1  0  0  0  0
  8  4  1  0  0  0  0
 10  2  1  0  0  0  0
 10 11  1  0  0  0  0
 12 10  1  0  0  0  0
 13 10  1  0  0  0  0
 13 18  1  0  0  0  0
 14 13  2  0  0  0  0
 15 14  1  0  0  0  0
 15 16  2  0  0  0  0
 16 17  1  0  0  0  0
 17 18  2  0  0  0  0
 17 21  1  0  0  0  0
 19 14  1  0  0  0  0
 20 15  1  0  0  0  0
 22 23  1  0  0  0  0
 25 24  1  0  0  0  0
 25 26  1  0  0  0  0
 26 31  1  0  0  0  0
 27 26  2  0  0  0  0
 27 32  1  0  0  0  0
 28 27  1  0  0  0  0
 29 30  1  0  0  0  0
 29 28  2  0  0  0  0
 30 25  2  0  0  0  0
 33 37  1  0  0  0  0
 33 29  1  0  0  0  0
 34 33  1  0  0  0  0
 35 34  1  0  0  0  0
 35 36  1  0  0  0  0
 36 37  1  0  0  0  0
 38 37  1  0  0  0  0
M  END
>  <minimizedAffinity>
-6.26663399

$$$$

 OpenBabel03242512233D

 38 41  0  0  0  0  0  0  0  0999 V2000
   37.6600   30.3090   41.8200 C   0  0  0  0  0  0  0  0  0  0  0  0
   37.9890   31.2910   40.9240 C   0  0  0  0  0  0  0  0  0  0  0  0
   39.2780   31.7360   40.8650 C   0  0  0  0  0  0  0  0  0  0  0  0
   40.2400   31.1930   41.7060 C   0  0  0  0  0  0  0  0  0  0  0  0
   39.8780   30.2030   42.6000 C   0  0  0  0  0  0  0  0  0  0  0  0
   38.5680   29.7420   42.6700 C   0  0  0  0  0  0  0  0  0  0  0  0
   39.5140   32.5180   40.1440 H   0  0  0  0  0  0  0  0  0  0  0  0
   41.2620   31.5520   41.6510 H   0  0  0  0  0  0  0  0  0  0  0  0
   40.6500   29.8010   43.2420 H   0  0  0  0  0  0  0  0  0  0  0  0
   36.9100   31.8110   40.0720 C   0  0  0  0  0  0  0  0  0  0  0  0
   37.0190   32.8550   39.8210 H   0  0  0  0  0  0  0  0  0  0  0  0
   35.9640   31.7360   40.6820 H   0  0  0  0  0  0  0  0  0  0  0  0
   36.7190   30.9210   38.8610 C   0  0  0  0  0  0  0  0  0  0  0  0
   37.4460   31.2370   37.7140 C   0  0  0  0  0  0  0  0  0  0  0  0
   37.2640   30.4170   36.6160 C   0  0  0  0  0  0  0  0  0  0  0  0
   36.4120   29.3820   36.7150 N   0  0  0  0  0  0  0  0  0  0  0  0
   35.7170   29.0990   37.8450 C   0  0  0  0  0  0  0  0  0  0  0  0
   35.8860   29.8790   38.9020 N   0  0  0  0  0  0  0  0  0  0  0  0
   38.1200   32.0890   37.6950 H   0  0  0  0  0  0  0  0  0  0  0  0
   37.8110   30.6290   35.7050 H   0  0  0  0  0  0  0  0  0  0  0  0
   35.0470   28.2520   37.8600 H   0  0  0  0  0  0  0  0  0  0  0  0
   36.3650   29.7850   41.9600 O   0  0  0  0  0  0  0  0  0  0  0  0
   36.1670   28.8880   41.5340 H   0  0  0  0  0  0  0  0  0  0  0  0
   38.3090   28.7410   43.6080 O   0  0  0  0  0  0  0  0  0  0  0  0
   38.4210   27.4450   43.1060 C   0  0  0  0  0  0  0  0  0  0  0  0
   39.4110   26.6360   43.6420 C   0  0  0  0  0  0  0  0  0  0  0  0
   39.5990   25.3190   43.2010 C   0  0  0  0  0  0  0  0  0  0  0  0
   38.7940   24.8390   42.2340 N   0  0  0  0  0  0  0  0  0  0  0  0
   37.8420   25.6310   41.7250 C   0  0  0  0  0  0  0  0  0  0  0  0
   37.6620   26.8930   42.1480 N   0  0  0  0  0  0  0  0  0  0  0  0
   40.0990   26.9350   44.4160 H   0  0  0  0  0  0  0  0  0  0  0  0
   40.3590   24.6780   43.6020 H   0  0  0  0  0  0  0  0  0  0  0  0
   36.9980   25.1170   40.7060 N   0  0  0  0  0  0  0  0  0  0  0  0
   36.3850   23.7830   40.7720 C   0  0  0  0  0  2  0  0  0  0  0  0
   35.5870   23.6710   39.4950 C   0  0  0  0  0  2  0  0  0  0  0  0
   36.2670   24.6600   38.5400 C   0  0  0  0  0  2  0  0  0  0  0  0
   36.6050   25.7890   39.4710 C   0  0  0  0  0  3  0  0  0  0  0  0
   35.7550   26.4890   39.6160 H   0  0  0  0  0  0  0  0  0  0  0  0
  1 22  1  0  0  0  0
  1  6  1  0  0  0  0
  2  1  2  0  0  0  0
  3  2  1  0  0  0  0
  3  4  2  0  0  0  0
  4  5  1  0  0  0  0
  5  6  2  0  0  0  0
  5  9  1  0  0  0  0
  6 24  1  0  0  0  0
  7  3  1  0  0  0  0
  8  4  1  0  0  0  0
 10 12  1  0  0  0  0
 10  2  1  0  0  0  0
 11 10  1  0  0  0  0
 13 18  1  0  0  0  0
 13 10  1  0  0  0  0
 14 13  2  0  0  0  0
 15 16  2  0  0  0  0
 15 14  1  0  0  0  0
 16 17  1  0  0  0  0
 17 21  1  0  0  0  0
 17 18  2  0  0  0  0
 19 14  1  0  0  0  0
 20 15  1  0  0  0  0
 23 22  1  0  0  0  0
 25 24  1  0  0  0  0
 25 26  1  0  0  0  0
 26 31  1  0  0  0  0
 27 32  1  0  0  0  0
 27 26  2  0  0  0  0
 28 27  1  0  0  0  0
 29 30  1  0  0  0  0
 29 28  2  0  0  0  0
 30 25  2  0  0  0  0
 33 34  1  0  0  0  0
 33 29  1  0  0  0  0
 35 34  1  0  0  0  0
 36 37  1  0  0  0  0
 36 35  1  0  0  0  0
 37 38  1  0  0  0  0
 37 33  1  0  0  0  0
M  END
>  <minimizedAffinity>
-6.20641756

$$$$

 OpenBabel03242512233D

 38 41  0  0  0  0  0  0  0  0999 V2000
   37.3050   30.0020   41.9400 C   0  0  0  0  0  0  0  0  0  0  0  0
   38.1760   29.4130   42.8160 C   0  0  0  0  0  0  0  0  0  0  0  0
   39.4650   29.8580   42.8770 C   0  0  0  0  0  0  0  0  0  0  0  0
   39.8800   30.9000   42.0570 C   0  0  0  0  0  0  0  0  0  0  0  0
   38.9770   31.4750   41.1840 C   0  0  0  0  0  0  0  0  0  0  0  0
   37.6620   31.0290   41.1120 C   0  0  0  0  0  0  0  0  0  0  0  0
   40.1390   29.3730   43.5830 H   0  0  0  0  0  0  0  0  0  0  0  0
   40.9060   31.2480   42.1140 H   0  0  0  0  0  0  0  0  0  0  0  0
   39.3320   32.2830   40.5580 H   0  0  0  0  0  0  0  0  0  0  0  0
   37.6560   28.3180   43.6470 C   0  0  0  0  0  0  0  0  0  0  0  0
   36.5780   28.2640   43.6700 H   0  0  0  0  0  0  0  0  0  0  0  0
   37.9760   28.5460   44.7040 H   0  0  0  0  0  0  0  0  0  0  0  0
   38.3140   27.0070   43.2670 C   0  0  0  0  0  0  0  0  0  0  0  0
   37.6980   26.2470   42.2730 C   0  0  0  0  0  0  0  0  0  0  0  0
   38.3080   25.0550   41.9340 C   0  0  0  0  0  0  0  0  0  0  0  0
   39.4380   24.7020   42.5690 N   0  0  0  0  0  0  0  0  0  0  0  0
   40.0160   25.4620   43.5330 C   0  0  0  0  0  0  0  0  0  0  0  0
   39.4380   26.6070   43.8640 N   0  0  0  0  0  0  0  0  0  0  0  0
   36.7830   26.5860   41.7950 H   0  0  0  0  0  0  0  0  0  0  0  0
   37.8600   24.4350   41.1660 H   0  0  0  0  0  0  0  0  0  0  0  0
   40.9250   25.1220   44.0060 H   0  0  0  0  0  0  0  0  0  0  0  0
   35.9620   29.6170   41.8010 O   0  0  0  0  0  0  0  0  0  0  0  0
   35.2550   30.1900   42.2460 H   0  0  0  0  0  0  0  0  0  0  0  0
   36.8330   31.6780   40.1950 O   0  0  0  0  0  0  0  0  0  0  0  0
   36.7800   31.0690   38.9420 C   0  0  0  0  0  0  0  0  0  0  0  0
   37.5110   31.6520   37.9180 C   0  0  0  0  0  0  0  0  0  0  0  0
   37.5190   31.1110   36.6250 C   0  0  0  0  0  0  0  0  0  0  0  0
   36.7970   30.0000   36.3840 N   0  0  0  0  0  0  0  0  0  0  0  0
   36.0960   29.4480   37.3820 C   0  0  0  0  0  0  0  0  0  0  0  0
   36.0880   29.9670   38.6210 N   0  0  0  0  0  0  0  0  0  0  0  0
   38.1150   32.5390   38.0200 H   0  0  0  0  0  0  0  0  0  0  0  0
   38.0770   31.5470   35.8200 H   0  0  0  0  0  0  0  0  0  0  0  0
   35.3380   28.2770   37.1180 N   0  0  0  0  0  0  0  0  0  0  0  0
   35.8630   27.1390   36.3510 C   0  0  0  0  0  2  0  0  0  0  0  0
   34.7270   26.1450   36.3260 C   0  0  0  0  0  2  0  0  0  0  0  0
   33.4740   27.0010   36.5410 C   0  0  0  0  0  2  0  0  0  0  0  0
   33.9680   28.0060   37.5430 C   0  0  0  0  0  3  0  0  0  0  0  0
   33.9100   27.6290   38.5870 H   0  0  0  0  0  0  0  0  0  0  0  0
  1  2  1  0  0  0  0
  2  3  2  0  0  0  0
  2 10  1  0  0  0  0
  3  7  1  0  0  0  0
  4  8  1  0  0  0  0
  4  3  1  0  0  0  0
  5  4  2  0  0  0  0
  6  5  1  0  0  0  0
  6  1  2  0  0  0  0
  9  5  1  0  0  0  0
 10 11  1  0  0  0  0
 10 12  1  0  0  0  0
 13 10  1  0  0  0  0
 13 18  1  0  0  0  0
 14 13  2  0  0  0  0
 15 14  1  0  0  0  0
 15 16  2  0  0  0  0
 16 17  1  0  0  0  0
 17 18  2  0  0  0  0
 17 21  1  0  0  0  0
 19 14  1  0  0  0  0
 20 15  1  0  0  0  0
 22  1  1  0  0  0  0
 22 23  1  0  0  0  0
 24  6  1  0  0  0  0
 25 24  1  0  0  0  0
 26 31  1  0  0  0  0
 26 25  2  0  0  0  0
 27 26  1  0  0  0  0
 28 27  2  0  0  0  0
 28 29  1  0  0  0  0
 29 30  2  0  0  0  0
 30 25  1  0  0  0  0
 32 27  1  0  0  0  0
 33 29  1  0  0  0  0
 33 37  1  0  0  0  0
 34 33  1  0  0  0  0
 35 34  1  0  0  0  0
 35 36  1  0  0  0  0
 36 37  1  0  0  0  0
 37 38  1  0  0  0  0
M  END
>  <minimizedAffinity>
-6.08177996

$$$$

 OpenBabel03242512233D

 38 41  0  0  0  0  0  0  0  0999 V2000
   36.8520   28.7870   41.9330 C   0  0  0  0  0  0  0  0  0  0  0  0
   36.8990   27.4520   41.6290 C   0  0  0  0  0  0  0  0  0  0  0  0
   36.7960   27.0610   40.3260 C   0  0  0  0  0  0  0  0  0  0  0  0
   36.6460   28.0120   39.3240 C   0  0  0  0  0  0  0  0  0  0  0  0
   36.6020   29.3500   39.6620 C   0  0  0  0  0  0  0  0  0  0  0  0
   36.7060   29.7610   40.9860 C   0  0  0  0  0  0  0  0  0  0  0  0
   36.8360   25.9930   40.1090 H   0  0  0  0  0  0  0  0  0  0  0  0
   36.5650   27.6910   38.2910 H   0  0  0  0  0  0  0  0  0  0  0  0
   36.4840   30.0660   38.8590 H   0  0  0  0  0  0  0  0  0  0  0  0
   37.0590   26.5140   42.7480 C   0  0  0  0  0  0  0  0  0  0  0  0
   36.4640   25.6180   42.6530 H   0  0  0  0  0  0  0  0  0  0  0  0
   36.6700   27.0470   43.6630 H   0  0  0  0  0  0  0  0  0  0  0  0
   38.5270   26.2340   42.9980 C   0  0  0  0  0  0  0  0  0  0  0  0
   39.0380   25.0270   42.5220 C   0  0  0  0  0  0  0  0  0  0  0  0
   40.3780   24.7840   42.7540 C   0  0  0  0  0  0  0  0  0  0  0  0
   41.0990   25.7070   43.4140 N   0  0  0  0  0  0  0  0  0  0  0  0
   40.5740   26.8730   43.8660 C   0  0  0  0  0  0  0  0  0  0  0  0
   39.2900   27.1150   43.6480 N   0  0  0  0  0  0  0  0  0  0  0  0
   38.4040   24.3200   41.9950 H   0  0  0  0  0  0  0  0  0  0  0  0
   40.8130   23.8580   42.4000 H   0  0  0  0  0  0  0  0  0  0  0  0
   41.2080   27.5740   44.3900 H   0  0  0  0  0  0  0  0  0  0  0  0
   36.9480   29.2910   43.2390 O   0  0  0  0  0  0  0  0  0  0  0  0
   37.8370   29.6770   43.5360 H   0  0  0  0  0  0  0  0  0  0  0  0
   36.6490   31.1370   41.2180 O   0  0  0  0  0  0  0  0  0  0  0  0
   37.8060   31.8260   40.8560 C   0  0  0  0  0  0  0  0  0  0  0  0
   37.6510   32.9990   40.1340 C   0  0  0  0  0  0  0  0  0  0  0  0
   38.7550   33.7590   39.7260 C   0  0  0  0  0  0  0  0  0  0  0  0
   39.9900   33.3310   40.0480 N   0  0  0  0  0  0  0  0  0  0  0  0
   40.1260   32.1960   40.7470 C   0  0  0  0  0  0  0  0  0  0  0  0
   39.0670   31.4680   41.1370 N   0  0  0  0  0  0  0  0  0  0  0  0
   36.7040   33.4150   39.8320 H   0  0  0  0  0  0  0  0  0  0  0  0
   38.6560   34.6680   39.1660 H   0  0  0  0  0  0  0  0  0  0  0  0
   41.4320   31.7530   41.0820 N   0  0  0  0  0  0  0  0  0  0  0  0
   42.4700   32.6480   41.6110 C   0  0  0  0  0  2  0  0  0  0  0  0
   43.6700   31.7540   41.8170 C   0  0  0  0  0  2  0  0  0  0  0  0
   43.4370   30.5850   40.8520 C   0  0  0  0  0  2  0  0  0  0  0  0
   41.9510   30.3940   40.9700 C   0  0  0  0  0  3  0  0  0  0  0  0
   41.6720   29.7550   41.8360 H   0  0  0  0  0  0  0  0  0  0  0  0
  1 22  1  0  0  0  0
  2  1  1  0  0  0  0
  2 10  1  0  0  0  0
  3  2  2  0  0  0  0
  4  5  2  0  0  0  0
  4  3  1  0  0  0  0
  5  6  1  0  0  0  0
  6 24  1  0  0  0  0
  6  1  2  0  0  0  0
  7  3  1  0  0  0  0
  8  4  1  0  0  0  0
  9  5  1  0  0  0  0
 10 13  1  0  0  0  0
 10 12  1  0  0  0  0
 11 10  1  0  0  0  0
 13 18  1  0  0  0  0
 14 15  1  0  0  0  0
 14 13  2  0  0  0  0
 15 16  2  0  0  0  0
 16 17  1  0  0  0  0
 17 21  1  0  0  0  0
 18 17  2  0  0  0  0
 19 14  1  0  0  0  0
 20 15  1  0  0  0  0
 22 23  1  0  0  0  0
 25 30  1  0  0  0  0
 25 24  1  0  0  0  0
 26 25  2  0  0  0  0
 27 28  2  0  0  0  0
 27 26  1  0  0  0  0
 28 29  1  0  0  0  0
 29 33  1  0  0  0  0
 29 30  2  0  0  0  0
 31 26  1  0  0  0  0
 32 27  1  0  0  0  0
 33 34  1  0  0  0  0
 34 35  1  0  0  0  0
 36 37  1  0  0  0  0
 36 35  1  0  0  0  0
 37 33  1  0  0  0  0
 37 38  1  0  0  0  0
M  END
>  <minimizedAffinity>
-6.05860662

$$$$

 OpenBabel03242512233D

 38 41  0  0  0  0  0  0  0  0999 V2000
   38.0140   29.3760   41.0290 C   0  0  0  0  0  0  0  0  0  0  0  0
   37.1300   28.7530   41.8690 C   0  0  0  0  0  0  0  0  0  0  0  0
   35.8390   28.5750   41.4640 C   0  0  0  0  0  0  0  0  0  0  0  0
   35.4340   29.0230   40.2130 C   0  0  0  0  0  0  0  0  0  0  0  0
   36.3500   29.6470   39.3890 C   0  0  0  0  0  0  0  0  0  0  0  0
   37.6680   29.8350   39.7900 C   0  0  0  0  0  0  0  0  0  0  0  0
   35.1540   28.0770   42.1500 H   0  0  0  0  0  0  0  0  0  0  0  0
   34.4060   28.8760   39.9000 H   0  0  0  0  0  0  0  0  0  0  0  0
   36.0030   29.9850   38.4210 H   0  0  0  0  0  0  0  0  0  0  0  0
   37.6400   28.3110   43.1740 C   0  0  0  0  0  0  0  0  0  0  0  0
   36.9140   28.3780   43.9700 H   0  0  0  0  0  0  0  0  0  0  0  0
   38.4660   29.0290   43.4480 H   0  0  0  0  0  0  0  0  0  0  0  0
   38.2760   26.9410   43.0570 C   0  0  0  0  0  0  0  0  0  0  0  0
   39.5110   26.7540   43.6770 C   0  0  0  0  0  0  0  0  0  0  0  0
   40.0800   25.5000   43.5640 C   0  0  0  0  0  0  0  0  0  0  0  0
   39.4240   24.5500   42.8760 N   0  0  0  0  0  0  0  0  0  0  0  0
   38.2230   24.7610   42.2820 C   0  0  0  0  0  0  0  0  0  0  0  0
   37.6690   25.9600   42.3850 N   0  0  0  0  0  0  0  0  0  0  0  0
   39.9930   27.5620   44.2200 H   0  0  0  0  0  0  0  0  0  0  0  0
   41.0390   25.3140   44.0320 H   0  0  0  0  0  0  0  0  0  0  0  0
   37.7460   23.9560   41.7420 H   0  0  0  0  0  0  0  0  0  0  0  0
   39.3610   29.6080   41.3510 O   0  0  0  0  0  0  0  0  0  0  0  0
   40.0580   28.9890   40.9540 H   0  0  0  0  0  0  0  0  0  0  0  0
   38.5100   30.4780   38.8810 O   0  0  0  0  0  0  0  0  0  0  0  0
   39.0210   31.6930   39.3360 C   0  0  0  0  0  0  0  0  0  0  0  0
   38.1120   32.7030   39.6130 C   0  0  0  0  0  0  0  0  0  0  0  0
   38.5320   33.9580   40.0740 C   0  0  0  0  0  0  0  0  0  0  0  0
   39.8490   34.1760   40.2500 N   0  0  0  0  0  0  0  0  0  0  0  0
   40.7150   33.1920   39.9790 C   0  0  0  0  0  0  0  0  0  0  0  0
   40.3130   31.9890   39.5360 N   0  0  0  0  0  0  0  0  0  0  0  0
   37.0440   32.6180   39.5010 H   0  0  0  0  0  0  0  0  0  0  0  0
   37.8450   34.7520   40.2930 H   0  0  0  0  0  0  0  0  0  0  0  0
   42.1020   33.4300   40.1670 N   0  0  0  0  0  0  0  0  0  0  0  0
   42.6450   34.0940   41.3610 C   0  0  0  0  0  2  0  0  0  0  0  0
   44.1360   34.1290   41.1270 C   0  0  0  0  0  2  0  0  0  0  0  0
   44.2790   34.0430   39.6020 C   0  0  0  0  0  2  0  0  0  0  0  0
   43.1840   33.0750   39.2550 C   0  0  0  0  0  3  0  0  0  0  0  0
   43.5030   32.0160   39.3600 H   0  0  0  0  0  0  0  0  0  0  0  0
  1 22  1  0  0  0  0
  1  2  1  0  0  0  0
  2 10  1  0  0  0  0
  3  2  2  0  0  0  0
  3  7  1  0  0  0  0
  4  3  1  0  0  0  0
  5  6  1  0  0  0  0
  5  4  2  0  0  0  0
  6  1  2  0  0  0  0
  8  4  1  0  0  0  0
  9  5  1  0  0  0  0
 10 12  1  0  0  0  0
 10 11  1  0  0  0  0
 13 10  1  0  0  0  0
 13 14  1  0  0  0  0
 14 19  1  0  0  0  0
 15 14  2  0  0  0  0
 15 20  1  0  0  0  0
 16 15  1  0  0  0  0
 17 18  1  0  0  0  0
 17 16  2  0  0  0  0
 18 13  2  0  0  0  0
 21 17  1  0  0  0  0
 23 22  1  0  0  0  0
 24 25  1  0  0  0  0
 24  6  1  0  0  0  0
 25 30  2  0  0  0  0
 25 26  1  0  0  0  0
 26 27  2  0  0  0  0
 27 28  1  0  0  0  0
 27 32  1  0  0  0  0
 29 33  1  0  0  0  0
 29 28  2  0  0  0  0
 30 29  1  0  0  0  0
 31 26  1  0  0  0  0
 33 34  1  0  0  0  0
 35 34  1  0  0  0  0
 36 35  1  0  0  0  0
 37 38  1  0  0  0  0
 37 36  1  0  0  0  0
 37 33  1  0  0  0  0
M  END
>  <minimizedAffinity>
-6.02105141

$$$$
