
 OpenBabel03252507143D

 39 41  0  0  1  0  0  0  0  0999 V2000
   37.4070   26.7100   41.0690 C   0  0  2  0  0  0  0  0  0  0  0  0
   36.8390   25.8480   40.0170 C   0  0  0  0  0  0  0  0  0  0  0  0
   37.6390   24.5630   39.9300 C   0  0  0  0  0  0  0  0  0  0  0  0
   37.4420   23.7590   41.0320 O   0  0  0  0  0  0  0  0  0  0  0  0
   37.1470   24.5160   42.1610 C   0  0  0  0  0  0  0  0  0  0  0  0
   37.9930   25.7860   42.1450 C   0  0  1  0  0  0  0  0  0  0  0  0
   38.3510   27.1900   40.6680 H   0  0  0  0  0  0  0  0  0  0  0  0
   36.9430   26.3290   39.0200 H   0  0  0  0  0  0  0  0  0  0  0  0
   35.7860   25.5700   40.1490 H   0  0  0  0  0  0  0  0  0  0  0  0
   37.1600   24.0020   39.0720 H   0  0  0  0  0  0  0  0  0  0  0  0
   38.6720   24.7110   39.6110 H   0  0  0  0  0  0  0  0  0  0  0  0
   36.0900   24.8370   42.1270 H   0  0  0  0  0  0  0  0  0  0  0  0
   37.3950   23.9290   43.0820 H   0  0  0  0  0  0  0  0  0  0  0  0
   37.9610   26.2480   43.1510 H   0  0  0  0  0  0  0  0  0  0  0  0
   39.3030   25.3090   41.8260 N   0  0  1  0  0  0  0  0  0  0  0  0
   40.2380   26.2200   41.2980 C   0  0  0  0  0  2  0  0  0  0  0  0
   41.5500   25.4310   41.4100 C   0  0  0  0  0  2  0  0  0  0  0  0
   41.4250   24.9780   42.8670 C   0  0  0  0  0  2  0  0  0  0  0  0
   39.9200   24.8860   43.0620 C   0  0  0  0  0  3  0  0  0  0  0  0
   39.6300   25.5740   43.9030 H   0  0  0  0  0  0  0  0  0  0  0  0
   36.6390   27.6750   41.5790 O   0  0  0  0  0  0  0  0  0  0  0  0
   38.7770   29.1810   41.7720 O   0  0  0  0  0  0  0  0  0  0  0  0
   37.3140   29.1180   41.9990 P   0  0  2  0  0  0  0  0  0  0  0  0
   37.0670   29.3600   43.6640 O   0  0  0  0  0  0  0  0  0  0  0  0
   37.5880   28.7420   44.2160 H   0  0  0  0  0  0  0  0  0  0  0  0
   36.5230   30.4140   41.1820 O   0  0  0  0  0  0  0  0  0  0  0  0
   37.1330   31.9590   39.5060 C   0  0  0  0  0  0  0  0  0  0  0  0
   36.7620   30.6790   39.8480 C   0  0  0  0  0  0  0  0  0  0  0  0
   36.6450   29.7040   38.8250 C   0  0  0  0  0  0  0  0  0  0  0  0
   36.9090   30.1010   37.5610 N   0  0  0  0  0  0  0  0  0  0  0  0
   37.2640   31.3440   37.2690 C   0  0  0  0  0  0  0  0  0  0  0  0
   37.3730   32.2690   38.2570 N   0  0  0  0  0  0  0  0  0  0  0  0
   38.5480   33.3810   40.9830 C   0  0  0  0  0  0  0  0  0  0  0  0
   39.3710   32.4290   41.2580 O   0  0  0  0  0  0  0  0  0  0  0  0
   37.3770   33.2210   40.1080 N   0  0  0  0  0  0  0  0  0  0  0  0
   36.3510   28.7180   39.1500 H   0  0  0  0  0  0  0  0  0  0  0  0
   37.4720   31.6550   36.2740 H   0  0  0  0  0  0  0  0  0  0  0  0
   38.8180   34.3180   41.4720 H   0  0  0  0  0  0  0  0  0  0  0  0
   36.8130   34.0880   40.0150 H   0  0  0  0  0  0  0  0  0  0  0  0
  1  7  1  6  0  0  0
  1 21  1  0  0  0  0
  1  6  1  0  0  0  0
  2  9  1  0  0  0  0
  2  1  1  0  0  0  0
  3  2  1  0  0  0  0
  3  4  1  0  0  0  0
  4  5  1  0  0  0  0
  5 13  1  0  0  0  0
  6  5  1  0  0  0  0
  6 14  1  1  0  0  0
  8  2  1  0  0  0  0
 10  3  1  0  0  0  0
 11  3  1  0  0  0  0
 12  5  1  0  0  0  0
 15 16  1  1  0  0  0
 15  6  1  0  0  0  0
 15 19  1  0  0  0  0
 16 17  1  0  0  0  0
 17 18  1  0  0  0  0
 18 19  1  0  0  0  0
 19 20  1  0  0  0  0
 21 23  1  0  0  0  0
 23 22  2  6  0  0  0
 23 24  1  0  0  0  0
 24 25  1  0  0  0  0
 26 23  1  0  0  0  0
 27 28  1  0  0  0  0
 27 35  1  0  0  0  0
 28 26  1  0  0  0  0
 29 36  1  0  0  0  0
 29 28  2  0  0  0  0
 30 29  1  0  0  0  0
 31 30  2  0  0  0  0
 31 32  1  0  0  0  0
 32 27  2  0  0  0  0
 33 34  2  0  0  0  0
 33 38  1  0  0  0  0
 35 33  1  0  0  0  0
 37 31  1  0  0  0  0
 39 35  1  0  0  0  0
M  END
>  <minimizedAffinity>
-5.85955334

$$$$

 OpenBabel03252507143D

 39 41  0  0  1  0  0  0  0  0999 V2000
   38.3970   29.2880   40.3140 C   0  0  2  0  0  0  0  0  0  0  0  0
   38.1450   28.6740   38.9980 C   0  0  0  0  0  0  0  0  0  0  0  0
   38.2440   29.7350   37.9190 C   0  0  0  0  0  0  0  0  0  0  0  0
   39.5400   30.1670   37.7390 O   0  0  0  0  0  0  0  0  0  0  0  0
   40.2720   30.0650   38.9170 C   0  0  0  0  0  0  0  0  0  0  0  0
   39.3790   30.4470   40.0940 C   0  0  1  0  0  0  0  0  0  0  0  0
   37.4690   29.8560   40.6280 H   0  0  0  0  0  0  0  0  0  0  0  0
   37.1040   28.2900   38.9400 H   0  0  0  0  0  0  0  0  0  0  0  0
   38.8220   27.8580   38.7180 H   0  0  0  0  0  0  0  0  0  0  0  0
   37.9880   29.1800   36.9670 H   0  0  0  0  0  0  0  0  0  0  0  0
   37.4770   30.5080   37.9930 H   0  0  0  0  0  0  0  0  0  0  0  0
   40.5770   29.0140   39.0760 H   0  0  0  0  0  0  0  0  0  0  0  0
   41.1420   30.7700   38.8810 H   0  0  0  0  0  0  0  0  0  0  0  0
   40.0170   30.6230   40.9820 H   0  0  0  0  0  0  0  0  0  0  0  0
   38.7440   31.6490   39.6540 N   0  0  1  0  0  0  0  0  0  0  0  0
   37.5790   32.0750   40.3210 C   0  0  0  0  0  2  0  0  0  0  0  0
   37.4150   33.5070   39.7930 C   0  0  0  0  0  2  0  0  0  0  0  0
   38.8440   34.0040   40.0250 C   0  0  0  0  0  2  0  0  0  0  0  0
   39.6680   32.7350   39.8860 C   0  0  0  0  0  3  0  0  0  0  0  0
   40.2330   32.5730   40.8440 H   0  0  0  0  0  0  0  0  0  0  0  0
   38.7540   28.4930   41.3240 O   0  0  0  0  0  0  0  0  0  0  0  0
   36.3740   27.5750   41.9330 O   0  0  0  0  0  0  0  0  0  0  0  0
   37.6480   28.0970   42.4810 P   0  0  2  0  0  0  0  0  0  0  0  0
   37.2650   29.5020   43.3570 O   0  0  0  0  0  0  0  0  0  0  0  0
   36.7580   30.1500   42.8280 H   0  0  0  0  0  0  0  0  0  0  0  0
   38.3250   26.9760   43.6020 O   0  0  0  0  0  0  0  0  0  0  0  0
   39.7970   25.1980   43.1140 C   0  0  0  0  0  0  0  0  0  0  0  0
   39.6200   26.5140   43.4690 C   0  0  0  0  0  0  0  0  0  0  0  0
   40.7630   27.3270   43.6800 C   0  0  0  0  0  0  0  0  0  0  0  0
   41.9710   26.7460   43.5160 N   0  0  0  0  0  0  0  0  0  0  0  0
   42.1040   25.4730   43.1720 C   0  0  0  0  0  0  0  0  0  0  0  0
   41.0020   24.7040   42.9730 N   0  0  0  0  0  0  0  0  0  0  0  0
   38.2470   24.0080   41.5680 C   0  0  0  0  0  0  0  0  0  0  0  0
   38.1850   24.9900   40.7350 O   0  0  0  0  0  0  0  0  0  0  0  0
   39.0370   24.0380   42.8080 N   0  0  0  0  0  0  0  0  0  0  0  0
   40.5650   28.3500   43.9570 H   0  0  0  0  0  0  0  0  0  0  0  0
   43.0560   25.0170   43.0430 H   0  0  0  0  0  0  0  0  0  0  0  0
   37.6490   23.1540   41.2490 H   0  0  0  0  0  0  0  0  0  0  0  0
   38.9540   23.1680   43.3680 H   0  0  0  0  0  0  0  0  0  0  0  0
  1  7  1  1  0  0  0
  1 21  1  0  0  0  0
  2  1  1  0  0  0  0
  3 11  1  0  0  0  0
  3  2  1  0  0  0  0
  4  3  1  0  0  0  0
  4  5  1  0  0  0  0
  5 12  1  0  0  0  0
  5  6  1  0  0  0  0
  6  1  1  0  0  0  0
  6 14  1  1  0  0  0
  8  2  1  0  0  0  0
  9  2  1  0  0  0  0
 10  3  1  0  0  0  0
 13  5  1  0  0  0  0
 15 19  1  0  0  0  0
 15  6  1  0  0  0  0
 15 16  1  1  0  0  0
 17 18  1  0  0  0  0
 17 16  1  0  0  0  0
 19 18  1  0  0  0  0
 19 20  1  0  0  0  0
 21 23  1  0  0  0  0
 23 22  2  6  0  0  0
 23 24  1  0  0  0  0
 23 26  1  0  0  0  0
 25 24  1  0  0  0  0
 27 28  1  0  0  0  0
 28 26  1  0  0  0  0
 28 29  2  0  0  0  0
 29 36  1  0  0  0  0
 30 29  1  0  0  0  0
 31 30  2  0  0  0  0
 32 27  2  0  0  0  0
 32 31  1  0  0  0  0
 33 35  1  0  0  0  0
 34 33  2  0  0  0  0
 35 27  1  0  0  0  0
 35 39  1  0  0  0  0
 37 31  1  0  0  0  0
 38 33  1  0  0  0  0
M  END
>  <minimizedAffinity>
-5.57074547

$$$$

 OpenBabel03252507143D

 39 41  0  0  1  0  0  0  0  0999 V2000
   38.2500   31.0180   39.5380 C   0  0  2  0  0  0  0  0  0  0  0  0
   37.1110   30.6910   38.6600 C   0  0  0  0  0  0  0  0  0  0  0  0
   36.3110   29.5570   39.2730 C   0  0  0  0  0  0  0  0  0  0  0  0
   35.6360   29.9570   40.4060 O   0  0  0  0  0  0  0  0  0  0  0  0
   36.3080   30.9870   41.0550 C   0  0  0  0  0  0  0  0  0  0  0  0
   37.8110   30.7280   40.9790 C   0  0  1  0  0  0  0  0  0  0  0  0
   39.0480   30.2270   39.3980 H   0  0  0  0  0  0  0  0  0  0  0  0
   37.4700   30.3040   37.6820 H   0  0  0  0  0  0  0  0  0  0  0  0
   36.4140   31.5140   38.4620 H   0  0  0  0  0  0  0  0  0  0  0  0
   35.5020   29.3520   38.5100 H   0  0  0  0  0  0  0  0  0  0  0  0
   36.8630   28.6180   39.3390 H   0  0  0  0  0  0  0  0  0  0  0  0
   36.1230   31.9420   40.5300 H   0  0  0  0  0  0  0  0  0  0  0  0
   36.0020   31.0150   42.1320 H   0  0  0  0  0  0  0  0  0  0  0  0
   38.3230   31.3840   41.7090 H   0  0  0  0  0  0  0  0  0  0  0  0
   37.9280   29.3490   41.3380 N   0  0  1  0  0  0  0  0  0  0  0  0
   39.1590   28.7010   41.1140 C   0  0  0  0  0  2  0  0  0  0  0  0
   38.9830   27.3990   41.9090 C   0  0  0  0  0  2  0  0  0  0  0  0
   38.4820   27.9980   43.2250 C   0  0  0  0  0  2  0  0  0  0  0  0
   37.7690   29.2610   42.7700 C   0  0  0  0  0  3  0  0  0  0  0  0
   38.2530   30.1420   43.2750 H   0  0  0  0  0  0  0  0  0  0  0  0
   38.8270   32.2130   39.4040 O   0  0  0  0  0  0  0  0  0  0  0  0
   40.8660   33.6610   38.6140 O   0  0  0  0  0  0  0  0  0  0  0  0
   40.1490   32.3770   38.4330 P   0  0  2  0  0  0  0  0  0  0  0  0
   39.6320   32.3290   36.8140 O   0  0  0  0  0  0  0  0  0  0  0  0
   39.1140   33.1200   36.5600 H   0  0  0  0  0  0  0  0  0  0  0  0
   41.2260   31.0490   38.6540 O   0  0  0  0  0  0  0  0  0  0  0  0
   42.8330   31.2290   36.9360 C   0  0  0  0  0  0  0  0  0  0  0  0
   41.8890   30.4720   37.5890 C   0  0  0  0  0  0  0  0  0  0  0  0
   41.6430   29.1500   37.1410 C   0  0  0  0  0  0  0  0  0  0  0  0
   42.3630   28.7120   36.0860 N   0  0  0  0  0  0  0  0  0  0  0  0
   43.2660   29.4700   35.4810 C   0  0  0  0  0  0  0  0  0  0  0  0
   43.4940   30.7360   35.9190 N   0  0  0  0  0  0  0  0  0  0  0  0
   44.2810   32.8750   38.1210 C   0  0  0  0  0  0  0  0  0  0  0  0
   44.5310   32.0800   39.1030 O   0  0  0  0  0  0  0  0  0  0  0  0
   43.4180   32.5220   36.9830 N   0  0  0  0  0  0  0  0  0  0  0  0
   40.8920   28.6020   37.6880 H   0  0  0  0  0  0  0  0  0  0  0  0
   43.8330   29.1240   34.6510 H   0  0  0  0  0  0  0  0  0  0  0  0
   44.7810   33.8380   38.2280 H   0  0  0  0  0  0  0  0  0  0  0  0
   43.3120   33.2920   36.2950 H   0  0  0  0  0  0  0  0  0  0  0  0
  1  7  1  6  0  0  0
  1  6  1  0  0  0  0
  2  3  1  0  0  0  0
  2  1  1  0  0  0  0
  3 11  1  0  0  0  0
  3  4  1  0  0  0  0
  4  5  1  0  0  0  0
  5 13  1  0  0  0  0
  6  5  1  0  0  0  0
  6 15  1  0  0  0  0
  6 14  1  1  0  0  0
  8  2  1  0  0  0  0
  9  2  1  0  0  0  0
 10  3  1  0  0  0  0
 12  5  1  0  0  0  0
 15 16  1  1  0  0  0
 15 19  1  0  0  0  0
 16 17  1  0  0  0  0
 17 18  1  0  0  0  0
 19 18  1  0  0  0  0
 19 20  1  0  0  0  0
 21  1  1  0  0  0  0
 23 22  2  1  0  0  0
 23 26  1  0  0  0  0
 23 21  1  0  0  0  0
 24 23  1  0  0  0  0
 25 24  1  0  0  0  0
 27 35  1  0  0  0  0
 27 28  1  0  0  0  0
 28 26  1  0  0  0  0
 29 28  2  0  0  0  0
 29 36  1  0  0  0  0
 30 29  1  0  0  0  0
 31 32  1  0  0  0  0
 31 30  2  0  0  0  0
 32 27  2  0  0  0  0
 33 38  1  0  0  0  0
 33 34  2  0  0  0  0
 35 33  1  0  0  0  0
 37 31  1  0  0  0  0
 39 35  1  0  0  0  0
M  END
>  <minimizedAffinity>
-5.55422878

$$$$

 OpenBabel03252507143D

 39 41  0  0  1  0  0  0  0  0999 V2000
   37.4850   26.5810   41.0250 C   0  0  2  0  0  0  0  0  0  0  0  0
   37.0430   25.6500   39.9700 C   0  0  0  0  0  0  0  0  0  0  0  0
   37.9290   24.4190   39.9810 C   0  0  0  0  0  0  0  0  0  0  0  0
   37.7120   23.6390   41.0970 O   0  0  0  0  0  0  0  0  0  0  0  0
   37.2950   24.4110   42.1760 C   0  0  0  0  0  0  0  0  0  0  0  0
   38.0570   25.7330   42.1680 C   0  0  1  0  0  0  0  0  0  0  0  0
   38.4200   27.1100   40.6670 H   0  0  0  0  0  0  0  0  0  0  0  0
   37.1820   26.1050   38.9650 H   0  0  0  0  0  0  0  0  0  0  0  0
   36.0040   25.3070   40.0450 H   0  0  0  0  0  0  0  0  0  0  0  0
   37.5450   23.8000   39.1160 H   0  0  0  0  0  0  0  0  0  0  0  0
   38.9690   24.6250   39.7240 H   0  0  0  0  0  0  0  0  0  0  0  0
   36.2240   24.6600   42.0640 H   0  0  0  0  0  0  0  0  0  0  0  0
   37.5200   23.8710   43.1320 H   0  0  0  0  0  0  0  0  0  0  0  0
   37.9290   26.2240   43.1530 H   0  0  0  0  0  0  0  0  0  0  0  0
   39.4130   25.3340   41.9510 N   0  0  1  0  0  0  0  0  0  0  0  0
   40.3190   26.2870   41.4450 C   0  0  0  0  0  2  0  0  0  0  0  0
   41.6700   25.5930   41.6690 C   0  0  0  0  0  2  0  0  0  0  0  0
   41.4800   25.1870   43.1330 C   0  0  0  0  0  2  0  0  0  0  0  0
   39.9760   25.0010   43.2390 C   0  0  0  0  0  3  0  0  0  0  0  0
   39.5880   25.6980   44.0310 H   0  0  0  0  0  0  0  0  0  0  0  0
   36.6240   27.5080   41.4490 O   0  0  0  0  0  0  0  0  0  0  0  0
   38.6370   29.1600   41.7560 O   0  0  0  0  0  0  0  0  0  0  0  0
   37.1900   28.9560   41.9970 P   0  0  2  0  0  0  0  0  0  0  0  0
   36.9600   29.0180   43.6800 O   0  0  0  0  0  0  0  0  0  0  0  0
   37.5410   28.3960   44.1630 H   0  0  0  0  0  0  0  0  0  0  0  0
   36.2780   30.2540   41.3180 O   0  0  0  0  0  0  0  0  0  0  0  0
   36.5500   30.1250   38.9780 C   0  0  0  0  0  0  0  0  0  0  0  0
   36.6550   30.8600   40.1360 C   0  0  0  0  0  0  0  0  0  0  0  0
   37.1410   32.1900   40.0620 C   0  0  0  0  0  0  0  0  0  0  0  0
   37.4750   32.6570   38.8390 N   0  0  0  0  0  0  0  0  0  0  0  0
   37.3600   31.9200   37.7440 C   0  0  0  0  0  0  0  0  0  0  0  0
   36.8930   30.6470   37.8270 N   0  0  0  0  0  0  0  0  0  0  0  0
   34.7290   28.4660   38.6070 C   0  0  0  0  0  0  0  0  0  0  0  0
   33.8090   29.2420   39.0680 O   0  0  0  0  0  0  0  0  0  0  0  0
   36.1500   28.8370   38.5360 N   0  0  0  0  0  0  0  0  0  0  0  0
   37.2040   32.7190   41.0000 H   0  0  0  0  0  0  0  0  0  0  0  0
   37.6220   32.2890   36.7820 H   0  0  0  0  0  0  0  0  0  0  0  0
   34.3340   27.5060   38.2750 H   0  0  0  0  0  0  0  0  0  0  0  0
   36.7520   28.0820   38.1550 H   0  0  0  0  0  0  0  0  0  0  0  0
  1  7  1  6  0  0  0
  1 21  1  0  0  0  0
  1  6  1  0  0  0  0
  2  3  1  0  0  0  0
  2  9  1  0  0  0  0
  2  1  1  0  0  0  0
  3  4  1  0  0  0  0
  4  5  1  0  0  0  0
  5 13  1  0  0  0  0
  6  5  1  0  0  0  0
  6 14  1  1  0  0  0
  8  2  1  0  0  0  0
 10  3  1  0  0  0  0
 11  3  1  0  0  0  0
 12  5  1  0  0  0  0
 15 16  1  1  0  0  0
 15  6  1  0  0  0  0
 15 19  1  0  0  0  0
 16 17  1  0  0  0  0
 17 18  1  0  0  0  0
 18 19  1  0  0  0  0
 19 20  1  0  0  0  0
 21 23  1  0  0  0  0
 23 22  2  6  0  0  0
 23 24  1  0  0  0  0
 24 25  1  0  0  0  0
 26 23  1  0  0  0  0
 27 28  1  0  0  0  0
 28 26  1  0  0  0  0
 29 28  2  0  0  0  0
 29 36  1  0  0  0  0
 30 29  1  0  0  0  0
 31 32  1  0  0  0  0
 31 30  2  0  0  0  0
 32 27  2  0  0  0  0
 33 34  2  0  0  0  0
 35 33  1  0  0  0  0
 35 27  1  0  0  0  0
 37 31  1  0  0  0  0
 38 33  1  0  0  0  0
 39 35  1  0  0  0  0
M  END
>  <minimizedAffinity>
-5.47277164

$$$$

 OpenBabel03252507143D

 39 41  0  0  1  0  0  0  0  0999 V2000
   37.2350   26.7790   40.9350 C   0  0  2  0  0  0  0  0  0  0  0  0
   36.6780   25.8510   39.9340 C   0  0  0  0  0  0  0  0  0  0  0  0
   37.4850   24.5670   39.9320 C   0  0  0  0  0  0  0  0  0  0  0  0
   37.2840   23.8320   41.0800 O   0  0  0  0  0  0  0  0  0  0  0  0
   36.9760   24.6550   42.1580 C   0  0  0  0  0  0  0  0  0  0  0  0
   37.8170   25.9260   42.0700 C   0  0  1  0  0  0  0  0  0  0  0  0
   38.1800   27.2380   40.5120 H   0  0  0  0  0  0  0  0  0  0  0  0
   36.7880   26.2710   38.9100 H   0  0  0  0  0  0  0  0  0  0  0  0
   35.6260   25.5770   40.0750 H   0  0  0  0  0  0  0  0  0  0  0  0
   37.0150   23.9520   39.1070 H   0  0  0  0  0  0  0  0  0  0  0  0
   38.5200   24.7000   39.6130 H   0  0  0  0  0  0  0  0  0  0  0  0
   35.9180   24.9690   42.0970 H   0  0  0  0  0  0  0  0  0  0  0  0
   37.2200   24.1270   43.1150 H   0  0  0  0  0  0  0  0  0  0  0  0
   37.7750   26.4490   43.0450 H   0  0  0  0  0  0  0  0  0  0  0  0
   39.1310   25.4370   41.7910 N   0  0  1  0  0  0  0  0  0  0  0  0
   40.1050   26.3490   41.3390 C   0  0  0  0  0  2  0  0  0  0  0  0
   41.3970   25.5320   41.4780 C   0  0  0  0  0  2  0  0  0  0  0  0
   41.1990   25.0270   42.9100 C   0  0  0  0  0  2  0  0  0  0  0  0
   39.6860   24.9570   43.0350 C   0  0  0  0  0  3  0  0  0  0  0  0
   39.3700   25.6190   43.8880 H   0  0  0  0  0  0  0  0  0  0  0  0
   36.4590   27.7700   41.3790 O   0  0  0  0  0  0  0  0  0  0  0  0
   37.6690   29.2930   43.1370 O   0  0  0  0  0  0  0  0  0  0  0  0
   37.1320   29.2260   41.7580 P   0  0  2  0  0  0  0  0  0  0  0  0
   35.9260   30.4180   41.6430 O   0  0  0  0  0  0  0  0  0  0  0  0
   35.2480   30.3370   42.3440 H   0  0  0  0  0  0  0  0  0  0  0  0
   38.3560   29.6390   40.6160 O   0  0  0  0  0  0  0  0  0  0  0  0
   39.3720   31.6720   41.2510 C   0  0  0  0  0  0  0  0  0  0  0  0
   38.6540   30.9550   40.3220 C   0  0  0  0  0  0  0  0  0  0  0  0
   38.2580   31.5950   39.1200 C   0  0  0  0  0  0  0  0  0  0  0  0
   38.6180   32.8880   38.9630 N   0  0  0  0  0  0  0  0  0  0  0  0
   39.3100   33.5470   39.8800 C   0  0  0  0  0  0  0  0  0  0  0  0
   39.6840   32.9230   41.0280 N   0  0  0  0  0  0  0  0  0  0  0  0
   41.1410   30.6340   42.6650 C   0  0  0  0  0  0  0  0  0  0  0  0
   41.6610   29.9770   41.6860 O   0  0  0  0  0  0  0  0  0  0  0  0
   39.9680   31.5110   42.5290 N   0  0  0  0  0  0  0  0  0  0  0  0
   37.6970   30.9870   38.4280 H   0  0  0  0  0  0  0  0  0  0  0  0
   39.5930   34.5640   39.7550 H   0  0  0  0  0  0  0  0  0  0  0  0
   41.6690   30.4670   43.6040 H   0  0  0  0  0  0  0  0  0  0  0  0
   39.6740   31.9440   43.4250 H   0  0  0  0  0  0  0  0  0  0  0  0
  1  7  1  6  0  0  0
  1 21  1  0  0  0  0
  1  6  1  0  0  0  0
  2  9  1  0  0  0  0
  2  1  1  0  0  0  0
  3  2  1  0  0  0  0
  3  4  1  0  0  0  0
  4  5  1  0  0  0  0
  5 13  1  0  0  0  0
  6  5  1  0  0  0  0
  6 14  1  1  0  0  0
  8  2  1  0  0  0  0
 10  3  1  0  0  0  0
 11  3  1  0  0  0  0
 12  5  1  0  0  0  0
 15 16  1  1  0  0  0
 15  6  1  0  0  0  0
 15 19  1  0  0  0  0
 16 17  1  0  0  0  0
 17 18  1  0  0  0  0
 18 19  1  0  0  0  0
 19 20  1  0  0  0  0
 21 23  1  0  0  0  0
 23 22  2  1  0  0  0
 24 23  1  0  0  0  0
 24 25  1  0  0  0  0
 26 23  1  0  0  0  0
 27 35  1  0  0  0  0
 28 26  1  0  0  0  0
 28 27  2  0  0  0  0
 29 28  1  0  0  0  0
 30 29  2  0  0  0  0
 30 31  1  0  0  0  0
 31 32  2  0  0  0  0
 32 27  1  0  0  0  0
 33 38  1  0  0  0  0
 34 33  2  0  0  0  0
 35 33  1  0  0  0  0
 35 39  1  0  0  0  0
 36 29  1  0  0  0  0
 37 31  1  0  0  0  0
M  END
>  <minimizedAffinity>
-5.43505049

$$$$

 OpenBabel03252507143D

 39 41  0  0  1  0  0  0  0  0999 V2000
   37.2130   26.7160   40.8920 C   0  0  2  0  0  0  0  0  0  0  0  0
   36.6610   25.7840   39.8910 C   0  0  0  0  0  0  0  0  0  0  0  0
   37.4700   24.5020   39.8960 C   0  0  0  0  0  0  0  0  0  0  0  0
   37.2670   23.7690   41.0450 O   0  0  0  0  0  0  0  0  0  0  0  0
   36.9540   24.5950   42.1190 C   0  0  0  0  0  0  0  0  0  0  0  0
   37.7930   25.8670   42.0310 C   0  0  1  0  0  0  0  0  0  0  0  0
   38.1580   27.1760   40.4710 H   0  0  0  0  0  0  0  0  0  0  0  0
   36.7740   26.2010   38.8670 H   0  0  0  0  0  0  0  0  0  0  0  0
   35.6090   25.5090   40.0290 H   0  0  0  0  0  0  0  0  0  0  0  0
   37.0050   23.8840   39.0710 H   0  0  0  0  0  0  0  0  0  0  0  0
   38.5060   24.6360   39.5790 H   0  0  0  0  0  0  0  0  0  0  0  0
   35.8950   24.9060   42.0540 H   0  0  0  0  0  0  0  0  0  0  0  0
   37.1960   24.0700   43.0790 H   0  0  0  0  0  0  0  0  0  0  0  0
   37.7460   26.3920   43.0050 H   0  0  0  0  0  0  0  0  0  0  0  0
   39.1080   25.3790   41.7580 N   0  0  1  0  0  0  0  0  0  0  0  0
   40.0770   26.2890   41.2920 C   0  0  0  0  0  2  0  0  0  0  0  0
   41.3730   25.4800   41.4410 C   0  0  0  0  0  2  0  0  0  0  0  0
   41.1790   24.9960   42.8800 C   0  0  0  0  0  2  0  0  0  0  0  0
   39.6670   24.9210   43.0090 C   0  0  0  0  0  3  0  0  0  0  0  0
   39.3490   25.5930   43.8520 H   0  0  0  0  0  0  0  0  0  0  0  0
   36.4330   27.7060   41.3310 O   0  0  0  0  0  0  0  0  0  0  0  0
   37.4490   29.1970   43.2340 O   0  0  0  0  0  0  0  0  0  0  0  0
   37.1120   29.1350   41.7920 P   0  0  2  0  0  0  0  0  0  0  0  0
   35.9920   30.3790   41.4970 O   0  0  0  0  0  0  0  0  0  0  0  0
   35.2180   30.3390   42.0940 H   0  0  0  0  0  0  0  0  0  0  0  0
   38.5050   29.4780   40.8340 O   0  0  0  0  0  0  0  0  0  0  0  0
   38.7600   31.0970   39.1370 C   0  0  0  0  0  0  0  0  0  0  0  0
   38.8310   30.7690   40.4710 C   0  0  0  0  0  0  0  0  0  0  0  0
   39.2320   31.7630   41.3990 C   0  0  0  0  0  0  0  0  0  0  0  0
   39.5230   32.9860   40.9060 N   0  0  0  0  0  0  0  0  0  0  0  0
   39.4430   33.2660   39.6130 C   0  0  0  0  0  0  0  0  0  0  0  0
   39.0580   32.3060   38.7330 N   0  0  0  0  0  0  0  0  0  0  0  0
   37.0420   30.1310   37.6120 C   0  0  0  0  0  0  0  0  0  0  0  0
   36.0800   30.2850   38.4560 O   0  0  0  0  0  0  0  0  0  0  0  0
   38.4370   30.5090   37.8850 N   0  0  0  0  0  0  0  0  0  0  0  0
   39.2710   31.4510   42.4310 H   0  0  0  0  0  0  0  0  0  0  0  0
   39.6720   34.2290   39.2260 H   0  0  0  0  0  0  0  0  0  0  0  0
   36.7040   29.6910   36.6740 H   0  0  0  0  0  0  0  0  0  0  0  0
   39.0810   30.2950   37.1000 H   0  0  0  0  0  0  0  0  0  0  0  0
  1  7  1  6  0  0  0
  1 21  1  0  0  0  0
  1  6  1  0  0  0  0
  2  3  1  0  0  0  0
  2  9  1  0  0  0  0
  2  1  1  0  0  0  0
  3  4  1  0  0  0  0
  4  5  1  0  0  0  0
  5 13  1  0  0  0  0
  6  5  1  0  0  0  0
  6 14  1  1  0  0  0
  8  2  1  0  0  0  0
 10  3  1  0  0  0  0
 11  3  1  0  0  0  0
 12  5  1  0  0  0  0
 15 16  1  1  0  0  0
 15  6  1  0  0  0  0
 15 19  1  0  0  0  0
 16 17  1  0  0  0  0
 17 18  1  0  0  0  0
 18 19  1  0  0  0  0
 19 20  1  0  0  0  0
 21 23  1  0  0  0  0
 23 22  2  1  0  0  0
 24 23  1  0  0  0  0
 24 25  1  0  0  0  0
 26 23  1  0  0  0  0
 27 28  1  0  0  0  0
 28 26  1  0  0  0  0
 28 29  2  0  0  0  0
 29 36  1  0  0  0  0
 30 29  1  0  0  0  0
 31 30  2  0  0  0  0
 32 27  2  0  0  0  0
 32 31  1  0  0  0  0
 33 35  1  0  0  0  0
 33 34  2  0  0  0  0
 35 27  1  0  0  0  0
 37 31  1  0  0  0  0
 38 33  1  0  0  0  0
 39 35  1  0  0  0  0
M  END
>  <minimizedAffinity>
-5.41119289

$$$$

 OpenBabel03252507143D

 39 41  0  0  1  0  0  0  0  0999 V2000
   41.0190   33.2500   39.2580 C   0  0  2  0  0  0  0  0  0  0  0  0
   42.0120   34.1610   39.8580 C   0  0  0  0  0  0  0  0  0  0  0  0
   43.4010   33.7670   39.3970 C   0  0  0  0  0  0  0  0  0  0  0  0
   43.5980   34.0410   38.0610 O   0  0  0  0  0  0  0  0  0  0  0  0
   42.4030   33.9740   37.3520 C   0  0  0  0  0  0  0  0  0  0  0  0
   41.5680   32.8160   37.8930 C   0  0  1  0  0  0  0  0  0  0  0  0
   41.0500   32.2670   39.8200 H   0  0  0  0  0  0  0  0  0  0  0  0
   42.0250   34.0510   40.9640 H   0  0  0  0  0  0  0  0  0  0  0  0
   41.8790   35.2250   39.6260 H   0  0  0  0  0  0  0  0  0  0  0  0
   44.0830   34.4840   39.9440 H   0  0  0  0  0  0  0  0  0  0  0  0
   43.7150   32.7810   39.7430 H   0  0  0  0  0  0  0  0  0  0  0  0
   41.8170   34.8950   37.5210 H   0  0  0  0  0  0  0  0  0  0  0  0
   42.6190   33.7870   36.2690 H   0  0  0  0  0  0  0  0  0  0  0  0
   40.7570   32.5950   37.1720 H   0  0  0  0  0  0  0  0  0  0  0  0
   42.5060   31.7410   37.9780 N   0  0  1  0  0  0  0  0  0  0  0  0
   42.1640   30.6120   38.7480 C   0  0  0  0  0  2  0  0  0  0  0  0
   43.2350   29.5980   38.3230 C   0  0  0  0  0  2  0  0  0  0  0  0
   43.1080   29.7520   36.8050 C   0  0  0  0  0  2  0  0  0  0  0  0
   42.6560   31.1940   36.6490 C   0  0  0  0  0  3  0  0  0  0  0  0
   41.6720   31.2000   36.1070 H   0  0  0  0  0  0  0  0  0  0  0  0
   39.7480   33.6510   39.2010 O   0  0  0  0  0  0  0  0  0  0  0  0
   37.2180   33.2650   39.7730 O   0  0  0  0  0  0  0  0  0  0  0  0
   38.6090   32.8850   40.1140 P   0  0  2  0  0  0  0  0  0  0  0  0
   38.8500   33.3150   41.7410 O   0  0  0  0  0  0  0  0  0  0  0  0
   38.6330   34.2530   41.9190 H   0  0  0  0  0  0  0  0  0  0  0  0
   38.8070   31.1750   40.0130 O   0  0  0  0  0  0  0  0  0  0  0  0
   37.3960   30.1270   41.5870 C   0  0  0  0  0  0  0  0  0  0  0  0
   38.6690   30.3660   41.1230 C   0  0  0  0  0  0  0  0  0  0  0  0
   39.7660   29.7760   41.8010 C   0  0  0  0  0  0  0  0  0  0  0  0
   39.4860   29.0060   42.8750 N   0  0  0  0  0  0  0  0  0  0  0  0
   38.2470   28.7970   43.2920 C   0  0  0  0  0  0  0  0  0  0  0  0
   37.2030   29.3670   42.6360 N   0  0  0  0  0  0  0  0  0  0  0  0
   35.4340   29.9230   40.0650 C   0  0  0  0  0  0  0  0  0  0  0  0
   36.0580   29.1770   39.2190 O   0  0  0  0  0  0  0  0  0  0  0  0
   36.0480   30.4560   41.2900 N   0  0  0  0  0  0  0  0  0  0  0  0
   40.7410   29.9980   41.3950 H   0  0  0  0  0  0  0  0  0  0  0  0
   38.0270   28.1900   44.1380 H   0  0  0  0  0  0  0  0  0  0  0  0
   34.4020   30.1120   39.7690 H   0  0  0  0  0  0  0  0  0  0  0  0
   35.4040   31.0540   41.8440 H   0  0  0  0  0  0  0  0  0  0  0  0
  1  7  1  1  0  0  0
  1  2  1  0  0  0  0
  2  8  1  0  0  0  0
  3 11  1  0  0  0  0
  3  2  1  0  0  0  0
  3 10  1  0  0  0  0
  4  3  1  0  0  0  0
  5 12  1  0  0  0  0
  5  6  1  0  0  0  0
  5  4  1  0  0  0  0
  6 14  1  6  0  0  0
  6 15  1  0  0  0  0
  6  1  1  0  0  0  0
  9  2  1  0  0  0  0
 13  5  1  0  0  0  0
 15 16  1  1  0  0  0
 17 16  1  0  0  0  0
 18 17  1  0  0  0  0
 19 18  1  0  0  0  0
 19 15  1  0  0  0  0
 20 19  1  0  0  0  0
 21  1  1  0  0  0  0
 21 23  1  0  0  0  0
 23 22  2  6  0  0  0
 23 24  1  0  0  0  0
 24 25  1  0  0  0  0
 26 23  1  0  0  0  0
 26 28  1  0  0  0  0
 27 32  1  0  0  0  0
 28 27  2  0  0  0  0
 28 29  1  0  0  0  0
 29 30  2  0  0  0  0
 30 31  1  0  0  0  0
 31 37  1  0  0  0  0
 32 31  2  0  0  0  0
 33 35  1  0  0  0  0
 34 33  2  0  0  0  0
 35 27  1  0  0  0  0
 35 39  1  0  0  0  0
 36 29  1  0  0  0  0
 38 33  1  0  0  0  0
M  END
>  <minimizedAffinity>
-5.29754972

$$$$

 OpenBabel03252507143D

 39 41  0  0  1  0  0  0  0  0999 V2000
   37.9550   30.8290   39.3940 C   0  0  2  0  0  0  0  0  0  0  0  0
   36.7360   30.4000   38.6840 C   0  0  0  0  0  0  0  0  0  0  0  0
   36.0730   29.2750   39.4540 C   0  0  0  0  0  0  0  0  0  0  0  0
   35.5200   29.7170   40.6360 O   0  0  0  0  0  0  0  0  0  0  0  0
   36.2130   30.8130   41.1380 C   0  0  0  0  0  0  0  0  0  0  0  0
   37.7070   30.6120   40.8930 C   0  0  1  0  0  0  0  0  0  0  0  0
   38.7690   30.0650   39.2040 H   0  0  0  0  0  0  0  0  0  0  0  0
   36.9950   29.9680   37.6930 H   0  0  0  0  0  0  0  0  0  0  0  0
   35.9810   31.1790   38.5250 H   0  0  0  0  0  0  0  0  0  0  0  0
   35.1890   28.9880   38.8090 H   0  0  0  0  0  0  0  0  0  0  0  0
   36.6740   28.3660   39.5060 H   0  0  0  0  0  0  0  0  0  0  0  0
   35.9200   31.7240   40.5850 H   0  0  0  0  0  0  0  0  0  0  0  0
   36.0370   30.8960   42.2410 H   0  0  0  0  0  0  0  0  0  0  0  0
   38.2690   31.3350   41.5150 H   0  0  0  0  0  0  0  0  0  0  0  0
   37.9340   29.2650   41.3140 N   0  0  1  0  0  0  0  0  0  0  0  0
   39.1510   28.6490   40.9610 C   0  0  0  0  0  2  0  0  0  0  0  0
   39.1430   27.3960   41.8480 C   0  0  0  0  0  2  0  0  0  0  0  0
   38.7990   28.0610   43.1840 C   0  0  0  0  0  2  0  0  0  0  0  0
   37.9750   29.2650   42.7570 C   0  0  0  0  0  3  0  0  0  0  0  0
   38.4820   30.1940   43.1370 H   0  0  0  0  0  0  0  0  0  0  0  0
   38.4530   32.0370   39.1220 O   0  0  0  0  0  0  0  0  0  0  0  0
   40.6740   33.3590   38.6820 O   0  0  0  0  0  0  0  0  0  0  0  0
   39.8780   32.1670   38.3060 P   0  0  2  0  0  0  0  0  0  0  0  0
   39.5340   32.3110   36.6480 O   0  0  0  0  0  0  0  0  0  0  0  0
   39.1120   33.1650   36.4230 H   0  0  0  0  0  0  0  0  0  0  0  0
   40.8160   30.7320   38.5000 O   0  0  0  0  0  0  0  0  0  0  0  0
   41.6140   28.9560   37.1680 C   0  0  0  0  0  0  0  0  0  0  0  0
   41.6680   30.2870   37.5090 C   0  0  0  0  0  0  0  0  0  0  0  0
   42.5860   31.1300   36.8330 C   0  0  0  0  0  0  0  0  0  0  0  0
   43.3610   30.5620   35.8840 N   0  0  0  0  0  0  0  0  0  0  0  0
   43.2810   29.2740   35.5820 C   0  0  0  0  0  0  0  0  0  0  0  0
   42.3970   28.4760   36.2360 N   0  0  0  0  0  0  0  0  0  0  0  0
   39.4890   27.6540   37.1920 C   0  0  0  0  0  0  0  0  0  0  0  0
   38.8100   28.5850   36.6150 O   0  0  0  0  0  0  0  0  0  0  0  0
   40.9190   27.7680   37.5170 N   0  0  0  0  0  0  0  0  0  0  0  0
   42.5870   32.1640   37.1410 H   0  0  0  0  0  0  0  0  0  0  0  0
   43.8910   28.8280   34.8340 H   0  0  0  0  0  0  0  0  0  0  0  0
   38.8850   26.7730   37.4090 H   0  0  0  0  0  0  0  0  0  0  0  0
   41.2980   26.9300   37.9980 H   0  0  0  0  0  0  0  0  0  0  0  0
  1  7  1  6  0  0  0
  1  6  1  0  0  0  0
  2  1  1  0  0  0  0
  2  3  1  0  0  0  0
  3 11  1  0  0  0  0
  3  4  1  0  0  0  0
  4  5  1  0  0  0  0
  5 13  1  0  0  0  0
  6  5  1  0  0  0  0
  6 15  1  0  0  0  0
  6 14  1  1  0  0  0
  8  2  1  0  0  0  0
  9  2  1  0  0  0  0
 10  3  1  0  0  0  0
 12  5  1  0  0  0  0
 15 16  1  6  0  0  0
 15 19  1  0  0  0  0
 16 17  1  0  0  0  0
 17 18  1  0  0  0  0
 19 20  1  0  0  0  0
 19 18  1  0  0  0  0
 21  1  1  0  0  0  0
 23 26  1  0  0  0  0
 23 22  2  1  0  0  0
 23 21  1  0  0  0  0
 24 23  1  0  0  0  0
 25 24  1  0  0  0  0
 27 28  1  0  0  0  0
 27 35  1  0  0  0  0
 28 26  1  0  0  0  0
 29 36  1  0  0  0  0
 29 28  2  0  0  0  0
 30 29  1  0  0  0  0
 31 30  2  0  0  0  0
 31 32  1  0  0  0  0
 32 27  2  0  0  0  0
 33 38  1  0  0  0  0
 33 35  1  0  0  0  0
 34 33  2  0  0  0  0
 35 39  1  0  0  0  0
 37 31  1  0  0  0  0
M  END
>  <minimizedAffinity>
-5.23657703

$$$$

 OpenBabel03252507143D

 39 41  0  0  1  0  0  0  0  0999 V2000
   37.5340   26.3560   41.4580 C   0  0  2  0  0  0  0  0  0  0  0  0
   37.0910   25.1300   42.1460 C   0  0  0  0  0  0  0  0  0  0  0  0
   36.6580   24.1030   41.1180 C   0  0  0  0  0  0  0  0  0  0  0  0
   37.7270   23.6060   40.4050 O   0  0  0  0  0  0  0  0  0  0  0  0
   38.7470   24.5460   40.3070 C   0  0  0  0  0  0  0  0  0  0  0  0
   38.1330   25.9300   40.1110 C   0  0  1  0  0  0  0  0  0  0  0  0
   36.6170   26.9230   41.1100 H   0  0  0  0  0  0  0  0  0  0  0  0
   36.1870   25.3330   42.7610 H   0  0  0  0  0  0  0  0  0  0  0  0
   37.8380   24.6530   42.7920 H   0  0  0  0  0  0  0  0  0  0  0  0
   36.2940   23.2320   41.7410 H   0  0  0  0  0  0  0  0  0  0  0  0
   35.7830   24.4040   40.5400 H   0  0  0  0  0  0  0  0  0  0  0  0
   39.3140   24.5810   41.2550 H   0  0  0  0  0  0  0  0  0  0  0  0
   39.3920   24.3100   39.4220 H   0  0  0  0  0  0  0  0  0  0  0  0
   38.9240   26.6260   39.7700 H   0  0  0  0  0  0  0  0  0  0  0  0
   37.1470   25.7150   39.0980 N   0  0  1  0  0  0  0  0  0  0  0  0
   36.1930   26.7250   38.8670 C   0  0  0  0  0  2  0  0  0  0  0  0
   35.5650   26.2730   37.5400 C   0  0  0  0  0  2  0  0  0  0  0  0
   36.8510   26.0210   36.7500 C   0  0  0  0  0  2  0  0  0  0  0  0
   37.8400   25.6260   37.8340 C   0  0  0  0  0  3  0  0  0  0  0  0
   38.7030   26.3470   37.8060 H   0  0  0  0  0  0  0  0  0  0  0  0
   38.3150   27.2080   42.1250 O   0  0  0  0  0  0  0  0  0  0  0  0
   38.4620   29.5420   43.3100 O   0  0  0  0  0  0  0  0  0  0  0  0
   37.9590   28.8170   42.1190 P   0  0  2  0  0  0  0  0  0  0  0  0
   36.2690   28.9900   42.1180 O   0  0  0  0  0  0  0  0  0  0  0  0
   35.8600   28.7120   42.9620 H   0  0  0  0  0  0  0  0  0  0  0  0
   38.5410   29.5570   40.6750 O   0  0  0  0  0  0  0  0  0  0  0  0
   38.8860   31.8680   41.0070 C   0  0  0  0  0  0  0  0  0  0  0  0
   38.2180   30.8600   40.3510 C   0  0  0  0  0  0  0  0  0  0  0  0
   37.2400   31.2050   39.3840 C   0  0  0  0  0  0  0  0  0  0  0  0
   37.0240   32.5200   39.1660 N   0  0  0  0  0  0  0  0  0  0  0  0
   37.6870   33.4640   39.8180 C   0  0  0  0  0  0  0  0  0  0  0  0
   38.6220   33.1220   40.7420 N   0  0  0  0  0  0  0  0  0  0  0  0
   41.2740   31.6670   41.6890 C   0  0  0  0  0  0  0  0  0  0  0  0
   41.6420   31.1550   40.5650 O   0  0  0  0  0  0  0  0  0  0  0  0
   39.8870   32.0480   41.9970 N   0  0  0  0  0  0  0  0  0  0  0  0
   36.7470   30.3760   38.9010 H   0  0  0  0  0  0  0  0  0  0  0  0
   37.5160   34.4990   39.6450 H   0  0  0  0  0  0  0  0  0  0  0  0
   42.1060   31.7860   42.3830 H   0  0  0  0  0  0  0  0  0  0  0  0
   39.7700   32.4250   42.9570 H   0  0  0  0  0  0  0  0  0  0  0  0
  1  7  1  6  0  0  0
  1 21  1  0  0  0  0
  1  2  1  0  0  0  0
  2  8  1  0  0  0  0
  2  9  1  0  0  0  0
  3 10  1  0  0  0  0
  3  2  1  0  0  0  0
  4  3  1  0  0  0  0
  5  4  1  0  0  0  0
  5 12  1  0  0  0  0
  6 14  1  6  0  0  0
  6  5  1  0  0  0  0
  6  1  1  0  0  0  0
 11  3  1  0  0  0  0
 13  5  1  0  0  0  0
 15 16  1  6  0  0  0
 15  6  1  0  0  0  0
 17 16  1  0  0  0  0
 18 17  1  0  0  0  0
 18 19  1  0  0  0  0
 19 15  1  0  0  0  0
 20 19  1  0  0  0  0
 23 21  1  0  0  0  0
 23 22  2  1  0  0  0
 24 23  1  0  0  0  0
 24 25  1  0  0  0  0
 26 23  1  0  0  0  0
 27 35  1  0  0  0  0
 28 26  1  0  0  0  0
 28 27  2  0  0  0  0
 29 28  1  0  0  0  0
 30 29  2  0  0  0  0
 30 31  1  0  0  0  0
 31 32  2  0  0  0  0
 32 27  1  0  0  0  0
 33 35  1  0  0  0  0
 33 38  1  0  0  0  0
 34 33  2  0  0  0  0
 35 39  1  0  0  0  0
 36 29  1  0  0  0  0
 37 31  1  0  0  0  0
M  END
>  <minimizedAffinity>
-5.11244059

$$$$
