REMARK  Name = 
REMARK  3 active torsions:
REMARK  status: ('A' for Active; 'I' for Inactive)
REMARK    1  A    between atoms: C_1  and  O_16
REMARK    2  A    between atoms: C_3  and  C_8
REMARK    3  A    between atoms: O_16  and  C_17
REMARK                            x       y       z     vdW  Elec       q    Type
REMARK                         _______ _______ _______ _____ _____    ______ ____
ROOT
ATOM      1  C   UNL     1      45.499  34.827  43.534  0.00  0.00    +0.000 A 
ATOM      2  C   UNL     1      46.190  33.752  44.127  0.00  0.00    +0.000 A 
ATOM      3  C   UNL     1      46.012  33.521  45.474  0.00  0.00    +0.000 A 
ATOM      4  N   UNL     1      45.195  34.319  46.160  0.00  0.00    +0.000 NA
ATOM      5  C   UNL     1      44.530  35.354  45.585  0.00  0.00    +0.000 A 
ATOM      6  N   UNL     1      44.687  35.595  44.288  0.00  0.00    +0.000 NA
ATOM      7  H   UNL     1      46.849  33.112  43.568  0.00  0.00    +0.000 HD
ATOM      8  H   UNL     1      43.877  35.993  46.142  0.00  0.00    +0.000 HD
ENDROOT
BRANCH   3  10
ATOM      9  C   UNL     1      47.016  32.689  47.539  0.00  0.00    +0.000 A 
ATOM     10  C   UNL     1      46.681  32.441  46.201  0.00  0.00    +0.000 A 
ATOM     11  C   UNL     1      46.998  31.222  45.676  0.00  0.00    +0.000 A 
ATOM     12  C   UNL     1      47.627  30.237  46.399  0.00  0.00    +0.000 A 
ATOM     13  N   UNL     1      48.029  28.986  46.091  0.00  0.00    +0.000 N 
ATOM     14  C   UNL     1      48.612  28.450  47.234  0.00  0.00    +0.000 A 
ATOM     15  N   UNL     1      48.553  29.376  48.199  0.00  0.00    +0.000 NA
ATOM     16  C   UNL     1      47.958  30.470  47.709  0.00  0.00    +0.000 A 
ATOM     17  C   UNL     1      47.648  31.702  48.274  0.00  0.00    +0.000 A 
ATOM     18  H   UNL     1      46.776  33.654  47.978  0.00  0.00    +0.000 HD
ATOM     19  H   UNL     1      46.729  31.044  44.624  0.00  0.00    +0.000 HD
ATOM     20  H   UNL     1      47.924  28.501  45.168  0.00  0.00    +0.000 HD
ATOM     21  H   UNL     1      49.023  27.452  47.278  0.00  0.00    +0.000 HD
ATOM     22  H   UNL     1      47.894  31.915  49.307  0.00  0.00    +0.000 HD
ENDBRANCH   3  10
BRANCH   1  23
ATOM     23  O   UNL     1      45.673  35.065  42.176  0.00  0.00    +0.000 OA
BRANCH  23  24
ATOM     24  C   UNL     1      44.605  34.919  41.294  0.00  0.00    +0.000 A 
ATOM     25  C   UNL     1      45.058  33.839  40.599  0.00  0.00    +0.000 A 
ATOM     26  S   UNL     1      43.603  33.606  39.372  0.00  0.00    +0.000 S 
ATOM     27  C   UNL     1      42.714  35.090  40.141  0.00  0.00    +0.000 A 
ATOM     28  N   UNL     1      43.426  35.392  40.916  0.00  0.00    +0.000 NA
ATOM     29  H   UNL     1      45.822  33.012  40.358  0.00  0.00    +0.000 HD
ATOM     30  N   UNL     1      41.474  35.267  39.459  0.00  0.00    +0.000 N 
ATOM     31  C   UNL     1      40.691  34.663  38.415  0.00  0.00    +0.000 C 
ATOM     32  C   UNL     1      39.439  34.286  39.230  0.00  0.00    +0.000 C 
ATOM     33  C   UNL     1      39.317  35.499  40.159  0.00  0.00    +0.000 C 
ATOM     34  C   UNL     1      40.541  36.354  39.809  0.00  0.00    +0.000 C 
ATOM     35  H   UNL     1      40.898  36.878  40.693  0.00  0.00    +0.000 HD
ENDBRANCH  23  24
ENDBRANCH   1  23
TORSDOF 3
