
 OpenBabel03242513063D

 38 42  0  0  0  0  0  0  0  0999 V2000
   45.9690   33.1790   41.6370 C   0  0  0  0  0  0  0  0  0  0  0  0
   47.1390   33.8810   41.3190 C   0  0  0  0  0  0  0  0  0  0  0  0
   48.1200   33.9620   42.2940 C   0  0  0  0  0  0  0  0  0  0  0  0
   47.8610   33.3500   43.4900 N   0  0  0  0  0  0  0  0  0  0  0  0
   46.7450   32.6860   43.7800 C   0  0  0  0  0  0  0  0  0  0  0  0
   45.7860   32.5960   42.8500 N   0  0  0  0  0  0  0  0  0  0  0  0
   45.1900   33.1060   40.8820 H   0  0  0  0  0  0  0  0  0  0  0  0
   46.8870   30.7580   45.2860 C   0  0  0  0  0  0  0  0  0  0  0  0
   46.5820   32.0760   45.0830 C   0  0  0  0  0  0  0  0  0  0  0  0
   46.0980   32.9050   46.1110 C   0  0  0  0  0  0  0  0  0  0  0  0
   45.9160   32.3900   47.3890 C   0  0  0  0  0  0  0  0  0  0  0  0
   45.4880   32.8590   48.5850 N   0  0  0  0  0  0  0  0  0  0  0  0
   45.5370   31.8420   49.4850 C   0  0  0  0  0  0  0  0  0  0  0  0
   45.9960   30.7490   48.8310 N   0  0  0  0  0  0  0  0  0  0  0  0
   46.2350   31.0620   47.5480 C   0  0  0  0  0  0  0  0  0  0  0  0
   46.7110   30.2220   46.5600 C   0  0  0  0  0  0  0  0  0  0  0  0
   47.2560   30.1480   44.4750 H   0  0  0  0  0  0  0  0  0  0  0  0
   45.8630   33.9320   45.9440 H   0  0  0  0  0  0  0  0  0  0  0  0
   45.1860   33.8370   48.7370 H   0  0  0  0  0  0  0  0  0  0  0  0
   45.2580   31.9000   50.5280 H   0  0  0  0  0  0  0  0  0  0  0  0
   46.9430   29.1900   46.7490 H   0  0  0  0  0  0  0  0  0  0  0  0
   49.3710   34.6890   42.0130 C   0  0  0  0  0  0  0  0  0  0  0  0
   49.1290   35.8000   41.1930 F   0  0  0  0  0  0  0  0  0  0  0  0
   49.9140   35.1800   43.1750 F   0  0  0  0  0  0  0  0  0  0  0  0
   50.2360   33.8260   41.3770 F   0  0  0  0  0  0  0  0  0  0  0  0
   47.2590   34.4410   40.0870 O   0  0  0  0  0  0  0  0  0  0  0  0
   47.3990   33.7050   38.9440 C   0  0  0  0  0  0  0  0  0  0  0  0
   48.3690   34.3960   38.2280 C   0  0  0  0  0  0  0  0  0  0  0  0
   48.5430   33.3860   36.6890 S   0  0  0  0  0  0  0  0  0  0  0  0
   47.2500   32.1890   37.3000 C   0  0  0  0  0  0  0  0  0  0  0  0
   47.0210   32.6680   38.2680 N   0  0  0  0  0  0  0  0  0  0  0  0
   49.1030   35.3090   38.1710 H   0  0  0  0  0  0  0  0  0  0  0  0
   46.9150   31.0800   36.4690 N   0  0  0  0  0  0  0  0  0  0  0  0
   47.7460   30.3690   35.5180 C   0  0  0  0  0  0  0  0  0  0  0  0
   46.7600   29.6510   34.5900 C   0  0  0  0  0  0  0  0  0  0  0  0
   45.6850   29.2650   35.6080 C   0  0  0  0  0  0  0  0  0  0  0  0
   45.6210   30.4870   36.4660 C   0  0  0  0  0  0  0  0  0  0  0  0
   45.2610   30.2900   37.4930 H   0  0  0  0  0  0  0  0  0  0  0  0
  1  6  1  0  0  0  0
  2  1  2  0  0  0  0
  2  3  1  0  0  0  0
  3  4  2  0  0  0  0
  4  5  1  0  0  0  0
  5  9  1  0  0  0  0
  6  5  2  0  0  0  0
  7  1  1  0  0  0  0
  8 16  1  0  0  0  0
  9  8  2  0  0  0  0
  9 10  1  0  0  0  0
 10 11  2  0  0  0  0
 11 15  1  0  0  0  0
 11 12  1  0  0  0  0
 12 19  1  0  0  0  0
 12 13  1  0  0  0  0
 13 20  1  0  0  0  0
 14 13  2  0  0  0  0
 15 14  1  0  0  0  0
 16 21  1  0  0  0  0
 16 15  2  0  0  0  0
 17  8  1  0  0  0  0
 18 10  1  0  0  0  0
 22  3  1  0  0  0  0
 22 24  1  0  0  0  0
 23 22  1  0  0  0  0
 25 22  1  0  0  0  0
 26  2  1  0  0  0  0
 27 26  1  0  0  0  0
 28 27  2  0  0  0  0
 29 30  1  0  0  0  0
 29 28  1  0  0  0  0
 30 31  2  0  0  0  0
 31 27  1  0  0  0  0
 32 28  1  0  0  0  0
 33 30  1  0  0  0  0
 34 33  1  0  0  0  0
 35 34  1  0  0  0  0
 35 36  1  0  0  0  0
 36 37  1  0  0  0  0
 37 33  1  0  0  0  0
 37 38  1  0  0  0  0
M  END
>  <minimizedAffinity>
-6.47507715

>  <minimizedRMSD>
0.0368044749

$$$$
