
 OpenBabel03252503523D

 33 35  0  0  1  0  0  0  0  0999 V2000
   45.7410   32.9780   46.2980 N   0  0  0  0  0  0  0  0  0  0  0  0
   45.1420   33.1910   47.6110 C   0  0  0  0  0  0  0  0  0  0  0  0
   45.9430   32.3390   48.5850 C   0  0  0  0  0  0  0  0  0  0  0  0
   45.6820   30.8970   48.3240 C   0  0  0  0  0  0  0  0  0  0  0  0
   45.7130   30.6280   46.8340 C   0  0  0  0  0  0  0  0  0  0  0  0
   46.3990   31.7310   46.0920 C   0  0  1  0  0  0  0  0  0  0  0  0
   45.1560   34.2610   47.8950 H   0  0  0  0  0  0  0  0  0  0  0  0
   44.1070   32.8220   47.5740 H   0  0  0  0  0  0  0  0  0  0  0  0
   47.0250   32.5720   48.4540 H   0  0  0  0  0  0  0  0  0  0  0  0
   45.6470   32.6230   49.6060 H   0  0  0  0  0  0  0  0  0  0  0  0
   44.7540   30.5460   48.8090 H   0  0  0  0  0  0  0  0  0  0  0  0
   46.5230   30.3110   48.7780 H   0  0  0  0  0  0  0  0  0  0  0  0
   44.6190   30.6950   46.5520 H   0  0  0  0  0  0  0  0  0  0  0  0
   46.1490   29.6410   46.6320 H   0  0  0  0  0  0  0  0  0  0  0  0
   47.4450   31.7870   46.4380 H   0  0  0  0  0  0  0  0  0  0  0  0
   46.3220   34.8590   43.1710 C   0  0  0  0  0  0  0  0  0  0  0  0
   46.4720   33.8760   44.1630 C   0  0  0  0  0  0  0  0  0  0  0  0
   45.6680   33.9320   45.2860 C   0  0  0  0  0  0  0  0  0  0  0  0
   44.7660   34.9430   45.3790 N   0  0  0  0  0  0  0  0  0  0  0  0
   44.6310   35.8890   44.4120 C   0  0  0  0  0  0  0  0  0  0  0  0
   45.4120   35.8390   43.3100 N   0  0  0  0  0  0  0  0  0  0  0  0
   47.2310   33.1310   43.9990 H   0  0  0  0  0  0  0  0  0  0  0  0
   43.8940   36.6840   44.5280 H   0  0  0  0  0  0  0  0  0  0  0  0
   47.2030   34.7360   41.9580 C   0  0  0  0  0  0  0  0  0  0  0  0
   46.4480   34.6240   40.7970 F   0  0  0  0  0  0  0  0  0  0  0  0
   48.0160   35.8520   41.9220 F   0  0  0  0  0  0  0  0  0  0  0  0
   48.0170   33.6180   42.0850 F   0  0  0  0  0  0  0  0  0  0  0  0
   46.4410   31.3150   44.7050 N   0  0  2  0  0  0  0  0  0  0  0  0
   45.4150   30.4230   44.2910 C   0  0  0  0  0  0  0  0  0  0  0  0
   45.9700   29.9850   42.9190 C   0  0  0  0  0  0  0  0  0  0  0  0
   47.3810   29.6080   43.3940 C   0  0  0  0  0  0  0  0  0  0  0  0
   47.7000   30.8090   44.2660 C   0  0  0  0  0  0  0  0  0  0  0  0
   48.1210   31.5750   43.5660 H   0  0  0  0  0  0  0  0  0  0  0  0
  1  2  1  0  0  0  0
  2  7  1  0  0  0  0
  2  3  1  0  0  0  0
  3 10  1  0  0  0  0
  4  3  1  0  0  0  0
  4 12  1  0  0  0  0
  4 11  1  0  0  0  0
  5  4  1  0  0  0  0
  6  1  1  0  0  0  0
  6 15  1  1  0  0  0
  6  5  1  0  0  0  0
  8  2  1  0  0  0  0
  9  3  1  0  0  0  0
 13  5  1  0  0  0  0
 14  5  1  0  0  0  0
 16 21  2  0  0  0  0
 16 17  1  0  0  0  0
 17 18  2  0  0  0  0
 18 19  1  0  0  0  0
 18  1  1  0  0  0  0
 20 23  1  0  0  0  0
 20 19  2  0  0  0  0
 21 20  1  0  0  0  0
 22 17  1  0  0  0  0
 24 27  1  0  0  0  0
 24 16  1  0  0  0  0
 25 24  1  0  0  0  0
 26 24  1  0  0  0  0
 28 29  1  1  0  0  0
 28  6  1  0  0  0  0
 30 31  1  0  0  0  0
 30 29  1  0  0  0  0
 31 32  1  0  0  0  0
 32 28  1  0  0  0  0
 33 32  1  0  0  0  0
M  END
>  <minimizedAffinity>
-5.39215612

>  <minimizedRMSD>
0.515182376

$$$$
