
 OpenBabel03252503383D

 38 41  0  0  1  0  0  0  0  0999 V2000
   45.2820   33.9230   41.4650 C   0  0  1  0  0  0  0  0  0  0  0  0
   43.9490   34.2910   40.6830 C   0  0  0  0  0  0  0  0  0  0  0  0
   42.7780   33.7920   41.4800 C   0  0  0  0  0  0  0  0  0  0  0  0
   42.6960   32.2810   41.5010 C   0  0  0  0  0  0  0  0  0  0  0  0
   44.0960   31.7180   41.3820 C   0  0  0  0  0  0  0  0  0  0  0  0
   45.0970   32.5950   42.0820 C   0  0  2  0  0  0  0  0  0  0  0  0
   45.3160   34.7900   42.1540 H   0  0  0  0  0  0  0  0  0  0  0  0
   43.8850   35.3730   40.5820 H   0  0  0  0  0  0  0  0  0  0  0  0
   43.9710   33.7410   39.7250 H   0  0  0  0  0  0  0  0  0  0  0  0
   42.9060   34.1940   42.5190 H   0  0  0  0  0  0  0  0  0  0  0  0
   41.8790   34.2800   41.0790 H   0  0  0  0  0  0  0  0  0  0  0  0
   42.0950   31.9510   40.6270 H   0  0  0  0  0  0  0  0  0  0  0  0
   42.1860   31.9180   42.4210 H   0  0  0  0  0  0  0  0  0  0  0  0
   44.3450   31.7840   40.2980 H   0  0  0  0  0  0  0  0  0  0  0  0
   44.1770   30.6720   41.6610 H   0  0  0  0  0  0  0  0  0  0  0  0
   46.0820   32.0520   41.9670 H   0  0  0  0  0  0  0  0  0  0  0  0
   46.3620   33.9870   40.4290 C   0  0  0  0  0  0  0  0  0  0  0  0
   47.6170   34.5270   40.5460 C   0  0  0  0  0  0  0  0  0  0  0  0
   48.4360   34.3980   39.4220 C   0  0  0  0  0  0  0  0  0  0  0  0
   47.9710   33.7640   38.2990 N   0  0  0  0  0  0  0  0  0  0  0  0
   46.7330   33.2550   38.2490 C   0  0  0  0  0  0  0  0  0  0  0  0
   45.9360   33.3790   39.3370 N   0  0  0  0  0  0  0  0  0  0  0  0
   49.4340   34.8220   39.4990 H   0  0  0  0  0  0  0  0  0  0  0  0
   46.4860   32.7770   37.3070 H   0  0  0  0  0  0  0  0  0  0  0  0
   48.1090   35.3030   41.7260 C   0  0  0  0  0  0  0  0  0  0  0  0
   49.4530   34.8860   42.2200 C   0  0  0  0  0  0  0  0  0  0  0  0
   49.2930   36.2220   41.5250 C   0  0  0  0  0  0  0  0  0  0  0  0
   47.4330   35.2400   42.5860 H   0  0  0  0  0  0  0  0  0  0  0  0
   49.6560   34.9910   43.2920 H   0  0  0  0  0  0  0  0  0  0  0  0
   49.9750   34.0490   41.7280 H   0  0  0  0  0  0  0  0  0  0  0  0
   49.7890   36.2160   40.5260 H   0  0  0  0  0  0  0  0  0  0  0  0
   49.3610   37.1480   42.1320 H   0  0  0  0  0  0  0  0  0  0  0  0
   44.9010   32.6780   43.5110 N   0  0  2  0  0  0  0  0  0  0  0  0
   45.6390   33.8750   43.9420 C   0  0  0  0  0  0  0  0  0  0  0  0
   46.9170   33.3380   44.6020 C   0  0  0  0  0  0  0  0  0  0  0  0
   46.3710   32.1260   45.3030 C   0  0  0  0  0  0  0  0  0  0  0  0
   45.4420   31.5690   44.2200 C   0  0  0  0  0  0  0  0  0  0  0  0
   44.6420   31.0170   44.7910 H   0  0  0  0  0  0  0  0  0  0  0  0
  1  6  1  0  0  0  0
  1  7  1  1  0  0  0
  2  1  1  0  0  0  0
  2  3  1  0  0  0  0
  3  4  1  0  0  0  0
  3 10  1  0  0  0  0
  4 13  1  0  0  0  0
  5  4  1  0  0  0  0
  5 15  1  0  0  0  0
  5  6  1  0  0  0  0
  6 16  1  6  0  0  0
  6 33  1  0  0  0  0
  8  2  1  0  0  0  0
  9  2  1  0  0  0  0
 11  3  1  0  0  0  0
 12  4  1  0  0  0  0
 14  5  1  0  0  0  0
 17 18  1  0  0  0  0
 17  1  1  0  0  0  0
 18 25  1  0  0  0  0
 19 23  1  0  0  0  0
 19 18  2  0  0  0  0
 20 19  1  0  0  0  0
 21 20  2  0  0  0  0
 21 22  1  0  0  0  0
 22 17  2  0  0  0  0
 24 21  1  0  0  0  0
 25 26  1  0  0  0  0
 25 28  1  0  0  0  0
 26 29  1  0  0  0  0
 27 25  1  0  0  0  0
 27 32  1  0  0  0  0
 27 26  1  0  0  0  0
 30 26  1  0  0  0  0
 31 27  1  0  0  0  0
 33 34  1  1  0  0  0
 33 37  1  0  0  0  0
 34 35  1  0  0  0  0
 35 36  1  0  0  0  0
 37 38  1  0  0  0  0
 37 36  1  0  0  0  0
M  END
>  <minimizedAffinity>
-4.91076899

>  <minimizedRMSD>
4.59230471

$$$$
