
 OpenBabel03252509173D

 22 24  0  0  0  0  0  0  0  0999 V2000
   37.5550   30.1320   41.0170 C   0  0  0  0  0  0  0  0  0  0  0  0
   36.2980   29.4920   41.0520 C   0  0  0  0  0  0  0  0  0  0  0  0
   36.1770   28.2240   41.4350 C   0  0  0  0  0  0  0  0  0  0  0  0
   37.3480   27.5450   41.8040 C   0  0  0  0  0  0  0  0  0  0  0  0
   38.6450   28.8110   41.5760 S   0  0  0  0  0  0  0  0  0  0  0  0
   35.3860   29.9970   40.7730 H   0  0  0  0  0  0  0  0  0  0  0  0
   35.3440   27.5800   41.5270 H   0  0  0  0  0  0  0  0  0  0  0  0
   37.2950   33.5380   39.5320 C   0  0  0  0  0  0  0  0  0  0  0  0
   38.4690   34.1060   40.0720 C   0  0  0  0  0  0  0  0  0  0  0  0
   39.2820   33.3130   40.9060 C   0  0  0  0  0  0  0  0  0  0  0  0
   38.8910   32.0260   41.1510 N   0  0  0  0  0  0  0  0  0  0  0  0
   37.7370   31.5280   40.5970 C   0  0  0  0  0  0  0  0  0  0  0  0
   36.9460   32.2810   39.7930 N   0  0  0  0  0  0  0  0  0  0  0  0
   36.6660   34.1280   38.8970 H   0  0  0  0  0  0  0  0  0  0  0  0
   38.7640   35.1290   39.8670 H   0  0  0  0  0  0  0  0  0  0  0  0
   40.1890   33.6740   41.3520 H   0  0  0  0  0  0  0  0  0  0  0  0
   37.8050   26.1900   42.2900 N   0  0  0  0  0  0  0  0  0  0  0  0
   37.0960   24.9300   42.2020 C   0  0  0  0  0  2  0  0  0  0  0  0
   38.2710   24.0780   41.7010 C   0  0  0  0  0  2  0  0  0  0  0  0
   39.3280   24.4620   42.7410 C   0  0  0  0  0  2  0  0  0  0  0  0
   39.0780   25.9660   42.9380 C   0  0  0  0  0  3  0  0  0  0  0  0
   39.9030   26.5720   42.5210 H   0  0  0  0  0  0  0  0  0  0  0  0
  1  2  2  0  0  0  0
  1  5  1  0  0  0  0
  2  3  1  0  0  0  0
  3  7  1  0  0  0  0
  3  4  2  0  0  0  0
  4 17  1  0  0  0  0
  5  4  1  0  0  0  0
  6  2  1  0  0  0  0
  8 13  2  0  0  0  0
  8  9  1  0  0  0  0
  9 10  2  0  0  0  0
 10 11  1  0  0  0  0
 10 16  1  0  0  0  0
 12  1  1  0  0  0  0
 12 11  2  0  0  0  0
 13 12  1  0  0  0  0
 14  8  1  0  0  0  0
 15  9  1  0  0  0  0
 17 21  1  0  0  0  0
 18 17  1  0  0  0  0
 19 18  1  0  0  0  0
 19 20  1  0  0  0  0
 20 21  1  0  0  0  0
 22 21  1  0  0  0  0
M  END
>  <minimizedAffinity>
-4.66391993

$$$$

 OpenBabel03252509173D

 22 24  0  0  0  0  0  0  0  0999 V2000
   38.2390   29.7360   41.4910 C   0  0  0  0  0  0  0  0  0  0  0  0
   38.2760   29.3760   42.8560 C   0  0  0  0  0  0  0  0  0  0  0  0
   38.2280   28.1020   43.2380 C   0  0  0  0  0  0  0  0  0  0  0  0
   38.1400   27.1280   42.2320 C   0  0  0  0  0  0  0  0  0  0  0  0
   38.1280   28.1210   40.6980 S   0  0  0  0  0  0  0  0  0  0  0  0
   38.3420   30.1100   43.6440 H   0  0  0  0  0  0  0  0  0  0  0  0
   38.2420   27.6380   44.1880 H   0  0  0  0  0  0  0  0  0  0  0  0
   39.0210   33.3160   40.8280 C   0  0  0  0  0  0  0  0  0  0  0  0
   37.9970   33.5990   39.8990 C   0  0  0  0  0  0  0  0  0  0  0  0
   37.1000   32.5690   39.5470 C   0  0  0  0  0  0  0  0  0  0  0  0
   37.2700   31.3420   40.1260 N   0  0  0  0  0  0  0  0  0  0  0  0
   38.2860   31.1270   41.0230 C   0  0  0  0  0  0  0  0  0  0  0  0
   39.1550   32.1090   41.3710 N   0  0  0  0  0  0  0  0  0  0  0  0
   39.7100   34.0870   41.1060 H   0  0  0  0  0  0  0  0  0  0  0  0
   37.8770   34.5780   39.4490 H   0  0  0  0  0  0  0  0  0  0  0  0
   36.2970   32.7080   38.8490 H   0  0  0  0  0  0  0  0  0  0  0  0
   38.0600   25.6300   42.0670 N   0  0  0  0  0  0  0  0  0  0  0  0
   36.8910   24.7830   42.1940 C   0  0  0  0  0  2  0  0  0  0  0  0
   37.1140   23.9460   40.9270 C   0  0  0  0  0  2  0  0  0  0  0  0
   38.5720   23.5310   41.1470 C   0  0  0  0  0  2  0  0  0  0  0  0
   39.2000   24.8040   41.7380 C   0  0  0  0  0  3  0  0  0  0  0  0
   39.9030   25.2770   41.0270 H   0  0  0  0  0  0  0  0  0  0  0  0
  1  2  2  0  0  0  0
  2  3  1  0  0  0  0
  2  6  1  0  0  0  0
  3  7  1  0  0  0  0
  4  3  2  0  0  0  0
  5  1  1  0  0  0  0
  5  4  1  0  0  0  0
  8 14  1  0  0  0  0
  8 13  1  0  0  0  0
  9  8  2  0  0  0  0
 10  9  1  0  0  0  0
 10 11  2  0  0  0  0
 11 12  1  0  0  0  0
 12 13  2  0  0  0  0
 12  1  1  0  0  0  0
 15  9  1  0  0  0  0
 16 10  1  0  0  0  0
 17 18  1  0  0  0  0
 17  4  1  0  0  0  0
 19 20  1  0  0  0  0
 19 18  1  0  0  0  0
 20 21  1  0  0  0  0
 21 17  1  0  0  0  0
 22 21  1  0  0  0  0
M  END
>  <minimizedAffinity>
-4.59595251

$$$$

 OpenBabel03252509173D

 22 24  0  0  0  0  0  0  0  0999 V2000
   37.2150   28.1410   41.0800 C   0  0  0  0  0  0  0  0  0  0  0  0
   36.1470   29.0640   41.1120 C   0  0  0  0  0  0  0  0  0  0  0  0
   36.3630   30.3750   41.0460 C   0  0  0  0  0  0  0  0  0  0  0  0
   37.6930   30.8080   40.9410 C   0  0  0  0  0  0  0  0  0  0  0  0
   38.6350   29.2420   40.9430 S   0  0  0  0  0  0  0  0  0  0  0  0
   35.1180   28.7510   41.1930 H   0  0  0  0  0  0  0  0  0  0  0  0
   35.7130   31.2090   41.0550 H   0  0  0  0  0  0  0  0  0  0  0  0
   36.9600   24.5620   42.0790 C   0  0  0  0  0  0  0  0  0  0  0  0
   36.5700   24.0130   40.8390 C   0  0  0  0  0  0  0  0  0  0  0  0
   36.4120   24.8770   39.7370 C   0  0  0  0  0  0  0  0  0  0  0  0
   36.6480   26.2100   39.9250 N   0  0  0  0  0  0  0  0  0  0  0  0
   37.0260   26.6870   41.1550 C   0  0  0  0  0  0  0  0  0  0  0  0
   37.1820   25.8670   42.2250 N   0  0  0  0  0  0  0  0  0  0  0  0
   37.0840   23.9200   42.9270 H   0  0  0  0  0  0  0  0  0  0  0  0
   36.3870   22.9530   40.7070 H   0  0  0  0  0  0  0  0  0  0  0  0
   36.1180   24.5330   38.7630 H   0  0  0  0  0  0  0  0  0  0  0  0
   38.4990   32.0800   40.8370 N   0  0  0  0  0  0  0  0  0  0  0  0
   39.9030   32.2700   41.1360 C   0  0  0  0  0  2  0  0  0  0  0  0
   40.2670   33.0730   39.8790 C   0  0  0  0  0  2  0  0  0  0  0  0
   39.1690   34.1410   39.9310 C   0  0  0  0  0  2  0  0  0  0  0  0
   37.9410   33.3400   40.3970 C   0  0  0  0  0  3  0  0  0  0  0  0
   37.1930   33.2380   39.5900 H   0  0  0  0  0  0  0  0  0  0  0  0
  1  2  2  0  0  0  0
  1 12  1  0  0  0  0
  2  6  1  0  0  0  0
  3  7  1  0  0  0  0
  3  2  1  0  0  0  0
  4  5  1  0  0  0  0
  4  3  2  0  0  0  0
  5  1  1  0  0  0  0
  8 13  1  0  0  0  0
  8 14  1  0  0  0  0
  9  8  2  0  0  0  0
 10 11  2  0  0  0  0
 10  9  1  0  0  0  0
 11 12  1  0  0  0  0
 12 13  2  0  0  0  0
 15  9  1  0  0  0  0
 16 10  1  0  0  0  0
 17  4  1  0  0  0  0
 17 18  1  0  0  0  0
 19 20  1  0  0  0  0
 19 18  1  0  0  0  0
 20 21  1  0  0  0  0
 21 17  1  0  0  0  0
 22 21  1  0  0  0  0
M  END
>  <minimizedAffinity>
-4.31877279

$$$$

 OpenBabel03252509173D

 22 24  0  0  0  0  0  0  0  0999 V2000
   37.7000   27.8350   41.1560 C   0  0  0  0  0  0  0  0  0  0  0  0
   36.5990   28.5800   41.6300 C   0  0  0  0  0  0  0  0  0  0  0  0
   36.4950   29.8860   41.3980 C   0  0  0  0  0  0  0  0  0  0  0  0
   37.5220   30.4960   40.6640 C   0  0  0  0  0  0  0  0  0  0  0  0
   38.6570   29.1080   40.3130 S   0  0  0  0  0  0  0  0  0  0  0  0
   35.8000   28.1290   42.1970 H   0  0  0  0  0  0  0  0  0  0  0  0
   35.7660   30.6040   41.6630 H   0  0  0  0  0  0  0  0  0  0  0  0
   38.7600   24.4280   42.2230 C   0  0  0  0  0  0  0  0  0  0  0  0
   37.7860   23.6680   41.5410 C   0  0  0  0  0  0  0  0  0  0  0  0
   36.8260   24.3440   40.7610 C   0  0  0  0  0  0  0  0  0  0  0  0
   36.8870   25.7080   40.7040 N   0  0  0  0  0  0  0  0  0  0  0  0
   37.8590   26.3940   41.3900 C   0  0  0  0  0  0  0  0  0  0  0  0
   38.7890   25.7560   42.1440 N   0  0  0  0  0  0  0  0  0  0  0  0
   39.4960   23.9300   42.8200 H   0  0  0  0  0  0  0  0  0  0  0  0
   37.7510   22.5860   41.5970 H   0  0  0  0  0  0  0  0  0  0  0  0
   36.0550   23.8350   40.2140 H   0  0  0  0  0  0  0  0  0  0  0  0
   37.9240   31.8490   40.1270 N   0  0  0  0  0  0  0  0  0  0  0  0
   37.5160   32.4670   38.8820 C   0  0  0  0  0  2  0  0  0  0  0  0
   37.1930   33.8570   39.4480 C   0  0  0  0  0  2  0  0  0  0  0  0
   38.4880   34.1260   40.2220 C   0  0  0  0  0  2  0  0  0  0  0  0
   38.8120   32.7500   40.8270 C   0  0  0  0  0  3  0  0  0  0  0  0
   38.6760   32.7470   41.9240 H   0  0  0  0  0  0  0  0  0  0  0  0
  1 12  1  0  0  0  0
  1  2  2  0  0  0  0
  2  6  1  0  0  0  0
  3  2  1  0  0  0  0
  3  7  1  0  0  0  0
  4  3  2  0  0  0  0
  5  4  1  0  0  0  0
  5  1  1  0  0  0  0
  8 14  1  0  0  0  0
  9 15  1  0  0  0  0
  9  8  2  0  0  0  0
 10  9  1  0  0  0  0
 11 10  2  0  0  0  0
 11 12  1  0  0  0  0
 12 13  2  0  0  0  0
 13  8  1  0  0  0  0
 16 10  1  0  0  0  0
 17  4  1  0  0  0  0
 17 21  1  0  0  0  0
 18 19  1  0  0  0  0
 18 17  1  0  0  0  0
 19 20  1  0  0  0  0
 20 21  1  0  0  0  0
 21 22  1  0  0  0  0
M  END
>  <minimizedAffinity>
-4.31485796

$$$$

 OpenBabel03252509173D

 22 24  0  0  0  0  0  0  0  0999 V2000
   38.1320   30.1500   40.9890 C   0  0  0  0  0  0  0  0  0  0  0  0
   37.9910   29.6820   42.3130 C   0  0  0  0  0  0  0  0  0  0  0  0
   37.8540   28.3850   42.5780 C   0  0  0  0  0  0  0  0  0  0  0  0
   37.8560   27.4990   41.4910 C   0  0  0  0  0  0  0  0  0  0  0  0
   38.0630   28.6100   40.0560 S   0  0  0  0  0  0  0  0  0  0  0  0
   37.9870   30.3470   43.1620 H   0  0  0  0  0  0  0  0  0  0  0  0
   37.7380   27.8470   43.4810 H   0  0  0  0  0  0  0  0  0  0  0  0
   37.7000   33.6840   39.8950 C   0  0  0  0  0  0  0  0  0  0  0  0
   39.0030   34.1580   40.1560 C   0  0  0  0  0  0  0  0  0  0  0  0
   39.9550   33.2630   40.6850 C   0  0  0  0  0  0  0  0  0  0  0  0
   39.5650   31.9740   40.9220 N   0  0  0  0  0  0  0  0  0  0  0  0
   38.2820   31.5710   40.6480 C   0  0  0  0  0  0  0  0  0  0  0  0
   37.3570   32.4210   40.1370 N   0  0  0  0  0  0  0  0  0  0  0  0
   36.9650   34.3510   39.4930 H   0  0  0  0  0  0  0  0  0  0  0  0
   39.2960   35.1840   39.9620 H   0  0  0  0  0  0  0  0  0  0  0  0
   40.9650   33.5500   40.9090 H   0  0  0  0  0  0  0  0  0  0  0  0
   37.7460   26.0230   41.1920 N   0  0  0  0  0  0  0  0  0  0  0  0
   38.5260   24.9420   41.7580 C   0  0  0  0  0  2  0  0  0  0  0  0
   37.3580   23.9890   42.0530 C   0  0  0  0  0  2  0  0  0  0  0  0
   36.6680   24.0000   40.6850 C   0  0  0  0  0  2  0  0  0  0  0  0
   36.7940   25.4710   40.2550 C   0  0  0  0  0  3  0  0  0  0  0  0
   35.8130   25.9810   40.2630 H   0  0  0  0  0  0  0  0  0  0  0  0
  1  2  2  0  0  0  0
  2  3  1  0  0  0  0
  2  6  1  0  0  0  0
  3  7  1  0  0  0  0
  4  3  2  0  0  0  0
  5  1  1  0  0  0  0
  5  4  1  0  0  0  0
  8 13  2  0  0  0  0
  8  9  1  0  0  0  0
  9 10  2  0  0  0  0
 10 16  1  0  0  0  0
 10 11  1  0  0  0  0
 12 11  2  0  0  0  0
 12  1  1  0  0  0  0
 13 12  1  0  0  0  0
 14  8  1  0  0  0  0
 15  9  1  0  0  0  0
 17  4  1  0  0  0  0
 17 18  1  0  0  0  0
 18 19  1  0  0  0  0
 20 19  1  0  0  0  0
 21 22  1  0  0  0  0
 21 20  1  0  0  0  0
 21 17  1  0  0  0  0
M  END
>  <minimizedAffinity>
-4.2437458

$$$$

 OpenBabel03252509173D

 22 24  0  0  0  0  0  0  0  0999 V2000
   40.8640   31.5080   40.5190 C   0  0  0  0  0  0  0  0  0  0  0  0
   41.0190   31.4360   41.9210 C   0  0  0  0  0  0  0  0  0  0  0  0
   40.1490   30.7750   42.6800 C   0  0  0  0  0  0  0  0  0  0  0  0
   39.0700   30.1510   42.0350 C   0  0  0  0  0  0  0  0  0  0  0  0
   39.3550   30.5540   40.2760 S   0  0  0  0  0  0  0  0  0  0  0  0
   41.8400   31.9090   42.4350 H   0  0  0  0  0  0  0  0  0  0  0  0
   40.0900   30.6080   43.7230 H   0  0  0  0  0  0  0  0  0  0  0  0
   43.7660   32.7260   38.5280 C   0  0  0  0  0  0  0  0  0  0  0  0
   43.1720   33.8650   37.9440 C   0  0  0  0  0  0  0  0  0  0  0  0
   41.8290   34.1600   38.2520 C   0  0  0  0  0  0  0  0  0  0  0  0
   41.1650   33.3230   39.1050 N   0  0  0  0  0  0  0  0  0  0  0  0
   41.7950   32.2290   39.6420 C   0  0  0  0  0  0  0  0  0  0  0  0
   43.0880   31.9340   39.3550 N   0  0  0  0  0  0  0  0  0  0  0  0
   44.7850   32.4870   38.3040 H   0  0  0  0  0  0  0  0  0  0  0  0
   43.7130   34.5190   37.2690 H   0  0  0  0  0  0  0  0  0  0  0  0
   41.3100   35.0080   37.8470 H   0  0  0  0  0  0  0  0  0  0  0  0
   37.8510   29.3170   42.3480 N   0  0  0  0  0  0  0  0  0  0  0  0
   36.7360   29.0130   41.4760 C   0  0  0  0  0  2  0  0  0  0  0  0
   36.6550   27.5090   41.7760 C   0  0  0  0  0  2  0  0  0  0  0  0
   36.6320   27.5540   43.3080 C   0  0  0  0  0  2  0  0  0  0  0  0
   37.6320   28.6780   43.6270 C   0  0  0  0  0  3  0  0  0  0  0  0
   38.5540   28.2810   44.0910 H   0  0  0  0  0  0  0  0  0  0  0  0
  1  2  2  0  0  0  0
  2  6  1  0  0  0  0
  2  3  1  0  0  0  0
  3  7  1  0  0  0  0
  4 17  1  0  0  0  0
  4  3  2  0  0  0  0
  5  1  1  0  0  0  0
  5  4  1  0  0  0  0
  8 13  1  0  0  0  0
  9 10  1  0  0  0  0
  9  8  2  0  0  0  0
 10 11  2  0  0  0  0
 11 12  1  0  0  0  0
 12  1  1  0  0  0  0
 13 12  2  0  0  0  0
 14  8  1  0  0  0  0
 15  9  1  0  0  0  0
 16 10  1  0  0  0  0
 17 21  1  0  0  0  0
 18 19  1  0  0  0  0
 18 17  1  0  0  0  0
 19 20  1  0  0  0  0
 20 21  1  0  0  0  0
 21 22  1  0  0  0  0
M  END
>  <minimizedAffinity>
-4.08959436

$$$$

 OpenBabel03252509173D

 22 24  0  0  0  0  0  0  0  0999 V2000
   39.2690   32.2650   39.2840 C   0  0  0  0  0  0  0  0  0  0  0  0
   38.1880   32.7450   40.0540 C   0  0  0  0  0  0  0  0  0  0  0  0
   37.0300   32.0910   40.1070 C   0  0  0  0  0  0  0  0  0  0  0  0
   36.9240   30.9030   39.3680 C   0  0  0  0  0  0  0  0  0  0  0  0
   38.5680   30.7600   38.5830 S   0  0  0  0  0  0  0  0  0  0  0  0
   38.2500   33.6560   40.6290 H   0  0  0  0  0  0  0  0  0  0  0  0
   36.1220   32.2820   40.6140 H   0  0  0  0  0  0  0  0  0  0  0  0
   42.4400   34.1240   39.8830 C   0  0  0  0  0  0  0  0  0  0  0  0
   42.9410   34.1400   38.5640 C   0  0  0  0  0  0  0  0  0  0  0  0
   42.1850   33.5240   37.5460 C   0  0  0  0  0  0  0  0  0  0  0  0
   40.9980   32.9390   37.8900 N   0  0  0  0  0  0  0  0  0  0  0  0
   40.5620   32.9550   39.1920 C   0  0  0  0  0  0  0  0  0  0  0  0
   41.2790   33.5440   40.1810 N   0  0  0  0  0  0  0  0  0  0  0  0
   43.0020   34.5870   40.6680 H   0  0  0  0  0  0  0  0  0  0  0  0
   43.8840   34.6090   38.3090 H   0  0  0  0  0  0  0  0  0  0  0  0
   42.5000   33.4960   36.5210 H   0  0  0  0  0  0  0  0  0  0  0  0
   35.9320   29.8080   39.0610 N   0  0  0  0  0  0  0  0  0  0  0  0
   35.1410   29.0380   39.9990 C   0  0  0  0  0  2  0  0  0  0  0  0
   33.8000   29.1390   39.2570 C   0  0  0  0  0  2  0  0  0  0  0  0
   34.2470   28.6980   37.8600 C   0  0  0  0  0  2  0  0  0  0  0  0
   35.6250   29.3660   37.7190 C   0  0  0  0  0  3  0  0  0  0  0  0
   35.6060   30.1820   36.9750 H   0  0  0  0  0  0  0  0  0  0  0  0
  1  2  2  0  0  0  0
  2  3  1  0  0  0  0
  2  6  1  0  0  0  0
  3  7  1  0  0  0  0
  4  3  2  0  0  0  0
  5  1  1  0  0  0  0
  5  4  1  0  0  0  0
  8 13  1  0  0  0  0
  8 14  1  0  0  0  0
  9  8  2  0  0  0  0
 10 11  2  0  0  0  0
 10  9  1  0  0  0  0
 11 12  1  0  0  0  0
 12  1  1  0  0  0  0
 12 13  2  0  0  0  0
 15  9  1  0  0  0  0
 16 10  1  0  0  0  0
 17  4  1  0  0  0  0
 17 18  1  0  0  0  0
 19 18  1  0  0  0  0
 20 19  1  0  0  0  0
 21 20  1  0  0  0  0
 21 17  1  0  0  0  0
 22 21  1  0  0  0  0
M  END
>  <minimizedAffinity>
-4.06408787

$$$$

 OpenBabel03252509173D

 22 24  0  0  0  0  0  0  0  0999 V2000
   37.0020   28.0740   39.7960 C   0  0  0  0  0  0  0  0  0  0  0  0
   36.1160   28.7720   38.9480 C   0  0  0  0  0  0  0  0  0  0  0  0
   36.3000   30.0580   38.6600 C   0  0  0  0  0  0  0  0  0  0  0  0
   37.4110   30.6960   39.2330 C   0  0  0  0  0  0  0  0  0  0  0  0
   38.1900   29.3640   40.2110 S   0  0  0  0  0  0  0  0  0  0  0  0
   35.2560   28.2990   38.4990 H   0  0  0  0  0  0  0  0  0  0  0  0
   35.7610   30.7420   38.0610 H   0  0  0  0  0  0  0  0  0  0  0  0
   36.2980   24.4180   39.8840 C   0  0  0  0  0  0  0  0  0  0  0  0
   36.6880   24.1480   41.2130 C   0  0  0  0  0  0  0  0  0  0  0  0
   37.1670   25.2100   42.0060 C   0  0  0  0  0  0  0  0  0  0  0  0
   37.2300   26.4560   41.4440 N   0  0  0  0  0  0  0  0  0  0  0  0
   36.8360   26.6570   40.1440 C   0  0  0  0  0  0  0  0  0  0  0  0
   36.3730   25.6430   39.3710 N   0  0  0  0  0  0  0  0  0  0  0  0
   35.9320   23.6220   39.2680 H   0  0  0  0  0  0  0  0  0  0  0  0
   36.6320   23.1540   41.6430 H   0  0  0  0  0  0  0  0  0  0  0  0
   37.4820   25.0830   43.0240 H   0  0  0  0  0  0  0  0  0  0  0  0
   38.0880   32.0450   39.2690 N   0  0  0  0  0  0  0  0  0  0  0  0
   37.4920   33.3290   39.5760 C   0  0  0  0  0  2  0  0  0  0  0  0
   38.5820   33.8280   40.5350 C   0  0  0  0  0  2  0  0  0  0  0  0
   39.8200   33.5780   39.6680 C   0  0  0  0  0  2  0  0  0  0  0  0
   39.4940   32.2360   38.9920 C   0  0  0  0  0  3  0  0  0  0  0  0
   40.1380   31.4230   39.3720 H   0  0  0  0  0  0  0  0  0  0  0  0
  1 12  1  0  0  0  0
  1  5  1  0  0  0  0
  2  1  2  0  0  0  0
  3  2  1  0  0  0  0
  3  4  2  0  0  0  0
  4 17  1  0  0  0  0
  4  5  1  0  0  0  0
  6  2  1  0  0  0  0
  7  3  1  0  0  0  0
  8  9  1  0  0  0  0
  9 15  1  0  0  0  0
  9 10  2  0  0  0  0
 10 16  1  0  0  0  0
 11 10  1  0  0  0  0
 12 11  2  0  0  0  0
 13  8  2  0  0  0  0
 13 12  1  0  0  0  0
 14  8  1  0  0  0  0
 17 18  1  0  0  0  0
 18 19  1  0  0  0  0
 20 19  1  0  0  0  0
 21 17  1  0  0  0  0
 21 22  1  0  0  0  0
 21 20  1  0  0  0  0
M  END
>  <minimizedAffinity>
-4.04398251

$$$$

 OpenBabel03252509173D

 22 24  0  0  0  0  0  0  0  0999 V2000
   38.7680   30.4540   40.5010 C   0  0  0  0  0  0  0  0  0  0  0  0
   38.1760   31.1400   39.4190 C   0  0  0  0  0  0  0  0  0  0  0  0
   38.8320   32.0920   38.7600 C   0  0  0  0  0  0  0  0  0  0  0  0
   40.1360   32.3890   39.1820 C   0  0  0  0  0  0  0  0  0  0  0  0
   40.3890   31.2370   40.5770 S   0  0  0  0  0  0  0  0  0  0  0  0
   37.1740   30.9260   39.0800 H   0  0  0  0  0  0  0  0  0  0  0  0
   38.5680   32.7090   37.9430 H   0  0  0  0  0  0  0  0  0  0  0  0
   36.8380   27.4850   41.6540 C   0  0  0  0  0  0  0  0  0  0  0  0
   36.9490   27.6750   43.0480 C   0  0  0  0  0  0  0  0  0  0  0  0
   37.6680   28.7900   43.5230 C   0  0  0  0  0  0  0  0  0  0  0  0
   38.2240   29.6370   42.6040 N   0  0  0  0  0  0  0  0  0  0  0  0
   38.0820   29.4000   41.2600 C   0  0  0  0  0  0  0  0  0  0  0  0
   37.3930   28.3310   40.7890 N   0  0  0  0  0  0  0  0  0  0  0  0
   36.2960   26.6420   41.2770 H   0  0  0  0  0  0  0  0  0  0  0  0
   36.5020   26.9940   43.7630 H   0  0  0  0  0  0  0  0  0  0  0  0
   37.7960   29.0010   44.5670 H   0  0  0  0  0  0  0  0  0  0  0  0
   41.2880   33.3050   38.8450 N   0  0  0  0  0  0  0  0  0  0  0  0
   42.0340   34.1610   39.7440 C   0  0  0  0  0  2  0  0  0  0  0  0
   43.4400   33.7910   39.2480 C   0  0  0  0  0  2  0  0  0  0  0  0
   43.2430   33.9970   37.7430 C   0  0  0  0  0  2  0  0  0  0  0  0
   41.8240   33.4500   37.5100 C   0  0  0  0  0  3  0  0  0  0  0  0
   41.8430   32.5070   36.9330 H   0  0  0  0  0  0  0  0  0  0  0  0
  1  5  1  0  0  0  0
  1 12  1  0  0  0  0
  2  1  2  0  0  0  0
  3  4  2  0  0  0  0
  3  2  1  0  0  0  0
  4  5  1  0  0  0  0
  6  2  1  0  0  0  0
  7  3  1  0  0  0  0
  8  9  1  0  0  0  0
  9 10  2  0  0  0  0
  9 15  1  0  0  0  0
 10 16  1  0  0  0  0
 11 10  1  0  0  0  0
 12 11  2  0  0  0  0
 13 12  1  0  0  0  0
 13  8  2  0  0  0  0
 14  8  1  0  0  0  0
 17  4  1  0  0  0  0
 17 18  1  0  0  0  0
 19 18  1  0  0  0  0
 20 19  1  0  0  0  0
 21 20  1  0  0  0  0
 21 17  1  0  0  0  0
 22 21  1  0  0  0  0
M  END
>  <minimizedAffinity>
-3.9953115

$$$$
