
 OpenBabel03252503073D

 17 18  0  0  0  0  0  0  0  0999 V2000
   37.3480   32.1010   40.2980 C   0  0  0  0  0  0  0  0  0  0  0  0
   37.0900   30.8990   40.9520 C   0  0  0  0  0  0  0  0  0  0  0  0
   38.1080   30.3550   41.7180 C   0  0  0  0  0  0  0  0  0  0  0  0
   39.2980   30.9920   41.8080 N   0  0  0  0  0  0  0  0  0  0  0  0
   39.5270   32.1680   41.1590 C   0  0  0  0  0  0  0  0  0  0  0  0
   38.5550   32.7020   40.4180 N   0  0  0  0  0  0  0  0  0  0  0  0
   36.5830   32.5680   39.6860 H   0  0  0  0  0  0  0  0  0  0  0  0
   40.4840   32.6600   41.2430 H   0  0  0  0  0  0  0  0  0  0  0  0
   37.9510   29.1280   42.4300 N   0  0  0  0  0  0  0  0  0  0  0  0
   38.4210   27.8350   41.9570 C   0  0  0  0  0  2  0  0  0  0  0  0
   37.0610   27.1310   41.8640 C   0  0  0  0  0  2  0  0  0  0  0  0
   36.5740   27.3990   43.2880 C   0  0  0  0  0  2  0  0  0  0  0  0
   37.3910   28.6130   43.6790 C   0  0  0  0  0  3  0  0  0  0  0  0
   38.2130   28.3280   44.3890 H   0  0  0  0  0  0  0  0  0  0  0  0
   35.8240   30.2430   40.8420 C   0  0  0  0  0  0  0  0  0  0  0  0
   35.6100   29.5470   39.8090 O   0  0  0  0  0  0  0  0  0  0  0  0
   35.0040   30.2820   41.5700 H   0  0  0  0  0  0  0  0  0  0  0  0
  1  6  2  0  0  0  0
  1  2  1  0  0  0  0
  2  3  2  0  0  0  0
  3  4  1  0  0  0  0
  3  9  1  0  0  0  0
  5  8  1  0  0  0  0
  5  4  2  0  0  0  0
  6  5  1  0  0  0  0
  7  1  1  0  0  0  0
  9 13  1  0  0  0  0
 10  9  1  0  0  0  0
 11 10  1  0  0  0  0
 11 12  1  0  0  0  0
 12 13  1  0  0  0  0
 13 14  1  0  0  0  0
 15  2  1  0  0  0  0
 15 17  1  0  0  0  0
 16 15  2  0  0  0  0
M  END
>  <minimizedAffinity>
-3.87746835

$$$$

 OpenBabel03252503073D

 17 18  0  0  0  0  0  0  0  0999 V2000
   39.1320   32.3350   41.0550 C   0  0  0  0  0  0  0  0  0  0  0  0
   39.1380   31.1400   41.7700 C   0  0  0  0  0  0  0  0  0  0  0  0
   38.0070   30.3430   41.6950 C   0  0  0  0  0  0  0  0  0  0  0  0
   36.9520   30.7400   40.9460 N   0  0  0  0  0  0  0  0  0  0  0  0
   36.9690   31.9140   40.2550 C   0  0  0  0  0  0  0  0  0  0  0  0
   38.0530   32.6900   40.3200 N   0  0  0  0  0  0  0  0  0  0  0  0
   39.9940   32.9940   41.0820 H   0  0  0  0  0  0  0  0  0  0  0  0
   36.1170   32.2120   39.6640 H   0  0  0  0  0  0  0  0  0  0  0  0
   37.9060   29.1000   42.3860 N   0  0  0  0  0  0  0  0  0  0  0  0
   38.2830   27.8110   41.8250 C   0  0  0  0  0  2  0  0  0  0  0  0
   36.9040   27.1400   41.8780 C   0  0  0  0  0  2  0  0  0  0  0  0
   36.5990   27.3760   43.3580 C   0  0  0  0  0  2  0  0  0  0  0  0
   37.4880   28.5590   43.6790 C   0  0  0  0  0  3  0  0  0  0  0  0
   38.3810   28.2350   44.2760 H   0  0  0  0  0  0  0  0  0  0  0  0
   40.2650   30.7420   42.5550 C   0  0  0  0  0  0  0  0  0  0  0  0
   41.2200   30.1650   41.9630 O   0  0  0  0  0  0  0  0  0  0  0  0
   40.3900   30.8870   43.6350 H   0  0  0  0  0  0  0  0  0  0  0  0
  1  7  1  0  0  0  0
  1  2  1  0  0  0  0
  2 15  1  0  0  0  0
  3  2  2  0  0  0  0
  3  9  1  0  0  0  0
  4  3  1  0  0  0  0
  5  6  1  0  0  0  0
  5  4  2  0  0  0  0
  6  1  2  0  0  0  0
  8  5  1  0  0  0  0
  9 13  1  0  0  0  0
 10 11  1  0  0  0  0
 10  9  1  0  0  0  0
 11 12  1  0  0  0  0
 12 13  1  0  0  0  0
 13 14  1  0  0  0  0
 15 17  1  0  0  0  0
 16 15  2  0  0  0  0
M  END
>  <minimizedAffinity>
-3.76578283

$$$$

 OpenBabel03252503073D

 17 18  0  0  0  0  0  0  0  0999 V2000
   36.7250   30.8670   39.0330 C   0  0  0  0  0  0  0  0  0  0  0  0
   36.6850   30.0340   40.1490 C   0  0  0  0  0  0  0  0  0  0  0  0
   37.8900   29.7180   40.7550 C   0  0  0  0  0  0  0  0  0  0  0  0
   39.0450   30.2160   40.2570 N   0  0  0  0  0  0  0  0  0  0  0  0
   39.0590   31.0290   39.1640 C   0  0  0  0  0  0  0  0  0  0  0  0
   37.9050   31.3410   38.5710 N   0  0  0  0  0  0  0  0  0  0  0  0
   35.8080   31.1440   38.5220 H   0  0  0  0  0  0  0  0  0  0  0  0
   39.9920   31.4150   38.7830 H   0  0  0  0  0  0  0  0  0  0  0  0
   37.9650   28.8740   41.9030 N   0  0  0  0  0  0  0  0  0  0  0  0
   38.3470   27.4710   41.8700 C   0  0  0  0  0  2  0  0  0  0  0  0
   37.0340   26.8770   42.4000 C   0  0  0  0  0  2  0  0  0  0  0  0
   36.9170   27.7060   43.6800 C   0  0  0  0  0  2  0  0  0  0  0  0
   37.7610   28.9190   43.3500 C   0  0  0  0  0  3  0  0  0  0  0  0
   38.7460   28.8760   43.8870 H   0  0  0  0  0  0  0  0  0  0  0  0
   35.4510   29.5200   40.6560 C   0  0  0  0  0  0  0  0  0  0  0  0
   34.5260   29.2860   39.8270 O   0  0  0  0  0  0  0  0  0  0  0  0
   35.2180   29.3040   41.7060 H   0  0  0  0  0  0  0  0  0  0  0  0
  1  2  1  0  0  0  0
  2 15  1  0  0  0  0
  2  3  2  0  0  0  0
  3  9  1  0  0  0  0
  4  3  1  0  0  0  0
  5  4  2  0  0  0  0
  6  1  2  0  0  0  0
  6  5  1  0  0  0  0
  7  1  1  0  0  0  0
  8  5  1  0  0  0  0
  9 13  1  0  0  0  0
 10  9  1  0  0  0  0
 10 11  1  0  0  0  0
 11 12  1  0  0  0  0
 13 12  1  0  0  0  0
 13 14  1  0  0  0  0
 15 17  1  0  0  0  0
 16 15  2  0  0  0  0
M  END
>  <minimizedAffinity>
-3.6655159

$$$$

 OpenBabel03252503073D

 17 18  0  0  0  0  0  0  0  0999 V2000
   35.9490   27.5280   38.6080 C   0  0  0  0  0  0  0  0  0  0  0  0
   36.6140   27.4320   39.8280 C   0  0  0  0  0  0  0  0  0  0  0  0
   36.2010   28.2710   40.8500 C   0  0  0  0  0  0  0  0  0  0  0  0
   35.1860   29.1410   40.6390 N   0  0  0  0  0  0  0  0  0  0  0  0
   34.5510   29.2170   39.4370 C   0  0  0  0  0  0  0  0  0  0  0  0
   34.9390   28.4140   38.4450 N   0  0  0  0  0  0  0  0  0  0  0  0
   36.2350   26.8920   37.7760 H   0  0  0  0  0  0  0  0  0  0  0  0
   33.7430   29.9180   39.2890 H   0  0  0  0  0  0  0  0  0  0  0  0
   36.8120   28.2570   42.1390 N   0  0  0  0  0  0  0  0  0  0  0  0
   37.6860   29.3030   42.6490 C   0  0  0  0  0  2  0  0  0  0  0  0
   38.9560   28.4590   42.8220 C   0  0  0  0  0  2  0  0  0  0  0  0
   38.3640   27.3400   43.6800 C   0  0  0  0  0  2  0  0  0  0  0  0
   36.8910   27.4260   43.3400 C   0  0  0  0  0  3  0  0  0  0  0  0
   36.3160   27.8970   44.1820 H   0  0  0  0  0  0  0  0  0  0  0  0
   37.6850   26.5050   40.0270 C   0  0  0  0  0  0  0  0  0  0  0  0
   37.3860   25.3230   40.3590 O   0  0  0  0  0  0  0  0  0  0  0  0
   38.7560   26.7150   39.9200 H   0  0  0  0  0  0  0  0  0  0  0  0
  1  2  1  0  0  0  0
  2 15  1  0  0  0  0
  2  3  2  0  0  0  0
  3  9  1  0  0  0  0
  4  3  1  0  0  0  0
  5  4  2  0  0  0  0
  6  1  2  0  0  0  0
  6  5  1  0  0  0  0
  7  1  1  0  0  0  0
  8  5  1  0  0  0  0
  9 10  1  0  0  0  0
  9 13  1  0  0  0  0
 10 11  1  0  0  0  0
 11 12  1  0  0  0  0
 13 12  1  0  0  0  0
 13 14  1  0  0  0  0
 15 16  2  0  0  0  0
 17 15  1  0  0  0  0
M  END
>  <minimizedAffinity>
-3.58522534

$$$$

 OpenBabel03252503073D

 17 18  0  0  0  0  0  0  0  0999 V2000
   36.5880   27.7780   42.5660 C   0  0  0  0  0  0  0  0  0  0  0  0
   36.6990   28.7580   41.5820 C   0  0  0  0  0  0  0  0  0  0  0  0
   37.9290   29.3790   41.4340 C   0  0  0  0  0  0  0  0  0  0  0  0
   38.9630   29.0240   42.2300 N   0  0  0  0  0  0  0  0  0  0  0  0
   38.8300   28.0620   43.1860 C   0  0  0  0  0  0  0  0  0  0  0  0
   37.6510   27.4570   43.3380 N   0  0  0  0  0  0  0  0  0  0  0  0
   35.6450   27.2630   42.7210 H   0  0  0  0  0  0  0  0  0  0  0  0
   39.6680   27.7940   43.8110 H   0  0  0  0  0  0  0  0  0  0  0  0
   38.1540   30.3960   40.4590 N   0  0  0  0  0  0  0  0  0  0  0  0
   38.3270   31.8080   40.7640 C   0  0  0  0  0  2  0  0  0  0  0  0
   37.1050   32.3450   40.0050 C   0  0  0  0  0  2  0  0  0  0  0  0
   37.4000   31.7190   38.6420 C   0  0  0  0  0  2  0  0  0  0  0  0
   38.2990   30.5580   39.0120 C   0  0  0  0  0  3  0  0  0  0  0  0
   39.3670   30.7820   38.7480 H   0  0  0  0  0  0  0  0  0  0  0  0
   35.5910   29.1170   40.7530 C   0  0  0  0  0  0  0  0  0  0  0  0
   35.4240   28.4680   39.6810 O   0  0  0  0  0  0  0  0  0  0  0  0
   34.8580   29.9090   40.9510 H   0  0  0  0  0  0  0  0  0  0  0  0
  1  7  1  0  0  0  0
  1  6  1  0  0  0  0
  2  1  2  0  0  0  0
  3  2  1  0  0  0  0
  3  4  2  0  0  0  0
  4  5  1  0  0  0  0
  5  6  2  0  0  0  0
  5  8  1  0  0  0  0
  9 10  1  0  0  0  0
  9  3  1  0  0  0  0
 11 10  1  0  0  0  0
 12 13  1  0  0  0  0
 12 11  1  0  0  0  0
 13  9  1  0  0  0  0
 14 13  1  0  0  0  0
 15 17  1  0  0  0  0
 15  2  1  0  0  0  0
 16 15  2  0  0  0  0
M  END
>  <minimizedAffinity>
-3.56172776

$$$$

 OpenBabel03252503073D

 17 18  0  0  0  0  0  0  0  0999 V2000
   39.0540   28.1490   43.1270 C   0  0  0  0  0  0  0  0  0  0  0  0
   38.6470   29.1190   42.2130 C   0  0  0  0  0  0  0  0  0  0  0  0
   37.3410   29.0590   41.7550 C   0  0  0  0  0  0  0  0  0  0  0  0
   36.5150   28.0830   42.2000 N   0  0  0  0  0  0  0  0  0  0  0  0
   36.9360   27.1460   43.0940 C   0  0  0  0  0  0  0  0  0  0  0  0
   38.1920   27.1930   43.5420 N   0  0  0  0  0  0  0  0  0  0  0  0
   40.0680   28.1530   43.5150 H   0  0  0  0  0  0  0  0  0  0  0  0
   36.2620   26.3760   43.4360 H   0  0  0  0  0  0  0  0  0  0  0  0
   36.8200   30.0010   40.8190 N   0  0  0  0  0  0  0  0  0  0  0  0
   36.5080   29.6960   39.4310 C   0  0  0  0  0  2  0  0  0  0  0  0
   37.5020   30.6610   38.7690 C   0  0  0  0  0  2  0  0  0  0  0  0
   37.0750   31.9430   39.4830 C   0  0  0  0  0  2  0  0  0  0  0  0
   36.4180   31.4040   40.7370 C   0  0  0  0  0  3  0  0  0  0  0  0
   35.3000   31.4880   40.6670 H   0  0  0  0  0  0  0  0  0  0  0  0
   39.5390   30.1400   41.7580 C   0  0  0  0  0  0  0  0  0  0  0  0
   39.6730   31.1680   42.4790 O   0  0  0  0  0  0  0  0  0  0  0  0
   40.1290   30.1250   40.8330 H   0  0  0  0  0  0  0  0  0  0  0  0
  1  7  1  0  0  0  0
  1  6  1  0  0  0  0
  2  1  2  0  0  0  0
  3  4  2  0  0  0  0
  3  2  1  0  0  0  0
  4  5  1  0  0  0  0
  5  8  1  0  0  0  0
  5  6  2  0  0  0  0
  9  3  1  0  0  0  0
 10  9  1  0  0  0  0
 11 10  1  0  0  0  0
 11 12  1  0  0  0  0
 12 13  1  0  0  0  0
 13  9  1  0  0  0  0
 14 13  1  0  0  0  0
 15  2  1  0  0  0  0
 15 16  2  0  0  0  0
 17 15  1  0  0  0  0
M  END
>  <minimizedAffinity>
-3.53871369

$$$$

 OpenBabel03252503073D

 17 18  0  0  0  0  0  0  0  0999 V2000
   35.8500   29.6190   38.4640 C   0  0  0  0  0  0  0  0  0  0  0  0
   36.2870   29.3850   39.7660 C   0  0  0  0  0  0  0  0  0  0  0  0
   37.0510   28.2520   39.9910 C   0  0  0  0  0  0  0  0  0  0  0  0
   37.3440   27.4220   38.9630 N   0  0  0  0  0  0  0  0  0  0  0  0
   36.9050   27.6720   37.6970 C   0  0  0  0  0  0  0  0  0  0  0  0
   36.1690   28.7610   37.4680 N   0  0  0  0  0  0  0  0  0  0  0  0
   35.2480   30.4940   38.2370 H   0  0  0  0  0  0  0  0  0  0  0  0
   37.1500   26.9980   36.8910 H   0  0  0  0  0  0  0  0  0  0  0  0
   37.5500   27.9160   41.2840 N   0  0  0  0  0  0  0  0  0  0  0  0
   37.1400   26.7480   42.0480 C   0  0  0  0  0  2  0  0  0  0  0  0
   36.5340   27.4800   43.2540 C   0  0  0  0  0  2  0  0  0  0  0  0
   37.7350   28.3580   43.6060 C   0  0  0  0  0  2  0  0  0  0  0  0
   38.4880   28.4070   42.2930 C   0  0  0  0  0  3  0  0  0  0  0  0
   39.4000   27.7530   42.3320 H   0  0  0  0  0  0  0  0  0  0  0  0
   35.9630   30.2760   40.8370 C   0  0  0  0  0  0  0  0  0  0  0  0
   36.5870   31.3730   40.8980 O   0  0  0  0  0  0  0  0  0  0  0  0
   35.2180   30.1050   41.6240 H   0  0  0  0  0  0  0  0  0  0  0  0
  1  2  1  0  0  0  0
  2  3  2  0  0  0  0
  2 15  1  0  0  0  0
  3  9  1  0  0  0  0
  4  3  1  0  0  0  0
  5  4  2  0  0  0  0
  6  5  1  0  0  0  0
  6  1  2  0  0  0  0
  7  1  1  0  0  0  0
  8  5  1  0  0  0  0
  9 10  1  0  0  0  0
  9 13  1  0  0  0  0
 10 11  1  0  0  0  0
 11 12  1  0  0  0  0
 13 14  1  0  0  0  0
 13 12  1  0  0  0  0
 15 16  2  0  0  0  0
 15 17  1  0  0  0  0
M  END
>  <minimizedAffinity>
-3.53275704

$$$$

 OpenBabel03252503073D

 17 18  0  0  0  0  0  0  0  0999 V2000
   36.8400   30.5160   38.4760 C   0  0  0  0  0  0  0  0  0  0  0  0
   37.0390   29.3680   39.2390 C   0  0  0  0  0  0  0  0  0  0  0  0
   37.3520   29.5360   40.5780 C   0  0  0  0  0  0  0  0  0  0  0  0
   37.4520   30.7820   41.0950 N   0  0  0  0  0  0  0  0  0  0  0  0
   37.2540   31.8910   40.3280 C   0  0  0  0  0  0  0  0  0  0  0  0
   36.9520   31.7420   39.0370 N   0  0  0  0  0  0  0  0  0  0  0  0
   36.5930   30.4370   37.4220 H   0  0  0  0  0  0  0  0  0  0  0  0
   37.3390   32.8760   40.7600 H   0  0  0  0  0  0  0  0  0  0  0  0
   37.5760   28.4300   41.4510 N   0  0  0  0  0  0  0  0  0  0  0  0
   36.5820   27.8860   42.3630 C   0  0  0  0  0  2  0  0  0  0  0  0
   37.3230   28.1600   43.6790 C   0  0  0  0  0  2  0  0  0  0  0  0
   38.6440   27.4700   43.3380 C   0  0  0  0  0  2  0  0  0  0  0  0
   38.6260   27.4830   41.8230 C   0  0  0  0  0  3  0  0  0  0  0  0
   38.3930   26.4610   41.4200 H   0  0  0  0  0  0  0  0  0  0  0  0
   36.9280   28.0610   38.6700 C   0  0  0  0  0  0  0  0  0  0  0  0
   35.7940   27.5030   38.6950 O   0  0  0  0  0  0  0  0  0  0  0  0
   37.7360   27.4810   38.2060 H   0  0  0  0  0  0  0  0  0  0  0  0
  1  6  2  0  0  0  0
  1  2  1  0  0  0  0
  2  3  2  0  0  0  0
  3  4  1  0  0  0  0
  3  9  1  0  0  0  0
  5  8  1  0  0  0  0
  5  4  2  0  0  0  0
  6  5  1  0  0  0  0
  7  1  1  0  0  0  0
  9 13  1  0  0  0  0
  9 10  1  0  0  0  0
 10 11  1  0  0  0  0
 12 11  1  0  0  0  0
 13 12  1  0  0  0  0
 14 13  1  0  0  0  0
 15 16  2  0  0  0  0
 15  2  1  0  0  0  0
 17 15  1  0  0  0  0
M  END
>  <minimizedAffinity>
-3.52636147

$$$$

 OpenBabel03252503073D

 17 18  0  0  0  0  0  0  0  0999 V2000
   37.1260   25.3590   42.2550 C   0  0  0  0  0  0  0  0  0  0  0  0
   36.9750   26.7280   42.0460 C   0  0  0  0  0  0  0  0  0  0  0  0
   36.7520   27.1570   40.7470 C   0  0  0  0  0  0  0  0  0  0  0  0
   36.6890   26.2540   39.7420 N   0  0  0  0  0  0  0  0  0  0  0  0
   36.8390   24.9190   39.9710 C   0  0  0  0  0  0  0  0  0  0  0  0
   37.0540   24.4940   41.2170 N   0  0  0  0  0  0  0  0  0  0  0  0
   37.3020   24.9740   43.2550 H   0  0  0  0  0  0  0  0  0  0  0  0
   36.7850   24.2160   39.1550 H   0  0  0  0  0  0  0  0  0  0  0  0
   36.5840   28.5350   40.4200 N   0  0  0  0  0  0  0  0  0  0  0  0
   37.6020   29.3630   39.7920 C   0  0  0  0  0  2  0  0  0  0  0  0
   37.7760   30.3870   40.9230 C   0  0  0  0  0  2  0  0  0  0  0  0
   36.3120   30.7960   41.0790 C   0  0  0  0  0  2  0  0  0  0  0  0
   35.5850   29.5990   40.5030 C   0  0  0  0  0  3  0  0  0  0  0  0
   35.1770   29.8340   39.4830 H   0  0  0  0  0  0  0  0  0  0  0  0
   37.0470   27.6630   43.1250 C   0  0  0  0  0  0  0  0  0  0  0  0
   38.1920   27.9780   43.5560 O   0  0  0  0  0  0  0  0  0  0  0  0
   36.1990   28.1440   43.6280 H   0  0  0  0  0  0  0  0  0  0  0  0
  1  7  1  0  0  0  0
  2  1  1  0  0  0  0
  2 15  1  0  0  0  0
  3  2  2  0  0  0  0
  4  5  2  0  0  0  0
  4  3  1  0  0  0  0
  5  6  1  0  0  0  0
  6  1  2  0  0  0  0
  8  5  1  0  0  0  0
  9 13  1  0  0  0  0
  9  3  1  0  0  0  0
 10  9  1  0  0  0  0
 10 11  1  0  0  0  0
 11 12  1  0  0  0  0
 13 12  1  0  0  0  0
 14 13  1  0  0  0  0
 15 16  2  0  0  0  0
 15 17  1  0  0  0  0
M  END
>  <minimizedAffinity>
-3.51645255

$$$$
