
 OpenBabel03252507003D

 34 36  0  0  0  0  0  0  0  0999 V2000
   46.5500   34.0890   41.5940 N   0  0  0  0  0  0  0  0  0  0  0  0
   47.3400   33.7280   40.4750 C   0  0  0  0  0  0  0  0  0  0  0  0
   48.1770   35.0030   40.2830 C   0  0  0  0  0  0  0  0  0  0  0  0
   48.9880   35.3770   41.4430 C   0  0  0  0  0  0  0  0  0  0  0  0
   48.6150   34.7760   42.7370 C   0  0  0  0  0  0  0  0  0  0  0  0
   47.2940   34.1010   42.8520 C   0  0  0  0  0  0  0  0  0  0  0  0
   48.0470   32.9390   40.7120 H   0  0  0  0  0  0  0  0  0  0  0  0
   46.8690   33.4680   39.5410 H   0  0  0  0  0  0  0  0  0  0  0  0
   47.4700   35.7960   39.9600 H   0  0  0  0  0  0  0  0  0  0  0  0
   48.8130   34.8140   39.3900 H   0  0  0  0  0  0  0  0  0  0  0  0
   48.9060   36.4920   41.5830 H   0  0  0  0  0  0  0  0  0  0  0  0
   50.0510   35.1360   41.2830 H   0  0  0  0  0  0  0  0  0  0  0  0
   49.1910   34.8010   43.6320 H   0  0  0  0  0  0  0  0  0  0  0  0
   46.8230   33.5910   44.0900 N   0  0  0  0  0  0  0  0  0  0  0  0
   47.1810   32.2880   44.6670 C   0  0  0  0  0  0  0  0  0  0  0  0
   46.1870   32.0190   45.7420 C   0  0  0  0  0  0  0  0  0  0  0  0
   45.6740   33.3670   46.1240 C   0  0  0  0  0  0  0  0  0  0  0  0
   45.9270   34.2870   44.9550 C   0  0  0  0  0  0  0  0  0  0  0  0
   46.4450   35.2080   45.3350 H   0  0  0  0  0  0  0  0  0  0  0  0
   45.3040   34.6120   41.5940 C   0  0  0  0  0  0  0  0  0  0  0  0
   44.7560   34.3670   42.5550 H   0  0  0  0  0  0  0  0  0  0  0  0
   45.1850   35.7230   41.5020 H   0  0  0  0  0  0  0  0  0  0  0  0
   44.4730   34.0040   40.4930 C   0  0  0  0  0  0  0  0  0  0  0  0
   44.7660   33.0430   40.1160 H   0  0  0  0  0  0  0  0  0  0  0  0
   44.5940   34.6970   39.6140 H   0  0  0  0  0  0  0  0  0  0  0  0
   43.0540   34.1740   40.8660 C   0  0  0  0  0  0  0  0  0  0  0  0
   42.1940   33.0900   40.9560 C   0  0  0  0  0  0  0  0  0  0  0  0
   40.8600   33.3040   41.3170 C   0  0  0  0  0  0  0  0  0  0  0  0
   40.4800   34.5840   41.5640 N   0  0  0  0  0  0  0  0  0  0  0  0
   41.3360   35.6020   41.4670 C   0  0  0  0  0  0  0  0  0  0  0  0
   42.6050   35.3820   41.1210 N   0  0  0  0  0  0  0  0  0  0  0  0
   42.5260   32.0990   40.7570 H   0  0  0  0  0  0  0  0  0  0  0  0
   40.1340   32.5350   41.4100 H   0  0  0  0  0  0  0  0  0  0  0  0
   41.0460   36.6420   41.6620 H   0  0  0  0  0  0  0  0  0  0  0  0
  1  6  1  0  0  0  0
  2  7  1  0  0  0  0
  2  1  1  0  0  0  0
  3  2  1  0  0  0  0
  3  4  1  0  0  0  0
  4 11  1  0  0  0  0
  4  5  1  0  0  0  0
  5  6  2  0  0  0  0
  5 13  1  0  0  0  0
  6 14  1  0  0  0  0
  8  2  1  0  0  0  0
  9  3  1  0  0  0  0
 10  3  1  0  0  0  0
 12  4  1  0  0  0  0
 14 15  1  0  0  0  0
 14 18  1  0  0  0  0
 15 16  1  0  0  0  0
 16 17  1  0  0  0  0
 18 19  1  0  0  0  0
 18 17  1  0  0  0  0
 20  1  1  0  0  0  0
 20 21  1  0  0  0  0
 22 20  1  0  0  0  0
 23 26  1  0  0  0  0
 23 20  1  0  0  0  0
 24 23  1  0  0  0  0
 25 23  1  0  0  0  0
 26 27  2  0  0  0  0
 26 31  1  0  0  0  0
 27 28  1  0  0  0  0
 28 33  1  0  0  0  0
 28 29  2  0  0  0  0
 30 29  1  0  0  0  0
 30 34  1  0  0  0  0
 31 30  2  0  0  0  0
 32 27  1  0  0  0  0
M  END
>  <minimizedAffinity>
-4.89099932

>  <minimizedRMSD>
4.38270617

$$$$
