
 OpenBabel03242520233D

 41 44  0  0  0  0  0  0  0  0999 V2000
   35.9240   29.4880   39.5310 C   0  0  0  0  0  0  0  0  0  0  0  0
   36.5270   28.7940   38.9280 H   0  0  0  0  0  0  0  0  0  0  0  0
   35.0110   29.7040   38.9100 H   0  0  0  0  0  0  0  0  0  0  0  0
   37.8990   30.9060   39.2590 C   0  0  0  0  0  0  0  0  0  0  0  0
   38.4850   30.0790   38.5080 O   0  0  0  0  0  0  0  0  0  0  0  0
   36.5800   30.7570   39.7620 N   0  0  0  0  0  0  0  0  0  0  0  0
   36.0640   31.4910   40.2780 H   0  0  0  0  0  0  0  0  0  0  0  0
   38.6120   32.1460   39.6680 C   0  0  0  0  0  0  0  0  0  0  0  0
   37.9020   33.3230   39.7950 C   0  0  0  0  0  0  0  0  0  0  0  0
   38.4400   34.5350   40.1650 C   0  0  0  0  0  0  0  0  0  0  0  0
   39.7990   34.5360   40.4210 C   0  0  0  0  0  0  0  0  0  0  0  0
   40.4800   33.3550   40.2880 C   0  0  0  0  0  0  0  0  0  0  0  0
   39.9240   32.1760   39.9220 N   0  0  0  0  0  0  0  0  0  0  0  0
   36.8380   33.2730   39.5830 H   0  0  0  0  0  0  0  0  0  0  0  0
   37.8680   35.4380   40.2570 H   0  0  0  0  0  0  0  0  0  0  0  0
   40.2550   35.4610   40.7110 H   0  0  0  0  0  0  0  0  0  0  0  0
   41.8820   33.3220   40.5450 N   0  0  0  0  0  0  0  0  0  0  0  0
   42.7840   34.3870   40.9500 C   0  0  0  0  0  2  0  0  0  0  0  0
   43.4190   33.7150   42.1750 C   0  0  0  0  0  2  0  0  0  0  0  0
   43.3560   32.2160   41.8920 C   0  0  0  0  0  2  0  0  0  0  0  0
   42.7900   32.1910   40.4660 C   0  0  0  0  0  3  0  0  0  0  0  0
   42.3190   31.2410   40.2230 H   0  0  0  0  0  0  0  0  0  0  0  0
   35.4250   28.8470   40.8210 C   0  0  0  0  0  0  0  0  0  0  0  0
   34.9010   29.6530   41.3780 H   0  0  0  0  0  0  0  0  0  0  0  0
   34.7430   28.0080   40.5800 H   0  0  0  0  0  0  0  0  0  0  0  0
   38.0950   26.7560   42.5090 C   0  0  0  0  0  0  0  0  0  0  0  0
   36.9780   27.1090   41.7090 C   0  0  0  0  0  0  0  0  0  0  0  0
   36.5800   28.4310   41.6510 C   0  0  0  0  0  0  0  0  0  0  0  0
   37.3170   29.3260   42.3950 N   0  0  0  0  0  0  0  0  0  0  0  0
   38.3840   28.9280   43.1470 C   0  0  0  0  0  0  0  0  0  0  0  0
   38.7650   27.6550   43.2000 N   0  0  0  0  0  0  0  0  0  0  0  0
   36.4520   26.3430   41.1550 H   0  0  0  0  0  0  0  0  0  0  0  0
   38.9170   29.6740   43.7040 H   0  0  0  0  0  0  0  0  0  0  0  0
   38.4990   25.3160   42.5630 C   0  0  0  0  0  0  0  0  0  0  0  0
   39.7010   25.0260   41.5870 C   0  0  0  0  0  0  0  0  0  0  0  0
   39.7250   24.8190   43.0400 C   0  0  0  0  0  0  0  0  0  0  0  0
   37.6170   24.6420   42.3600 H   0  0  0  0  0  0  0  0  0  0  0  0
   40.1610   25.8800   41.0900 H   0  0  0  0  0  0  0  0  0  0  0  0
   39.5310   24.1750   40.8960 H   0  0  0  0  0  0  0  0  0  0  0  0
   40.4230   25.5200   43.5840 H   0  0  0  0  0  0  0  0  0  0  0  0
   39.7880   23.8060   43.4710 H   0  0  0  0  0  0  0  0  0  0  0  0
  1  6  1  0  0  0  0
  1 23  1  0  0  0  0
  2  1  1  0  0  0  0
  3  1  1  0  0  0  0
  4  8  1  0  0  0  0
  4  6  1  0  0  0  0
  5  4  2  0  0  0  0
  6  7  1  0  0  0  0
  8  9  2  0  0  0  0
  8 13  1  0  0  0  0
  9 10  1  0  0  0  0
 10 15  1  0  0  0  0
 10 11  2  0  0  0  0
 11 16  1  0  0  0  0
 12 11  1  0  0  0  0
 12 17  1  0  0  0  0
 13 12  2  0  0  0  0
 14  9  1  0  0  0  0
 17 18  1  0  0  0  0
 18 19  1  0  0  0  0
 20 19  1  0  0  0  0
 21 17  1  0  0  0  0
 21 20  1  0  0  0  0
 22 21  1  0  0  0  0
 23 24  1  0  0  0  0
 23 28  1  0  0  0  0
 25 23  1  0  0  0  0
 26 34  1  0  0  0  0
 26 31  1  0  0  0  0
 27 26  2  0  0  0  0
 28 27  1  0  0  0  0
 28 29  2  0  0  0  0
 29 30  1  0  0  0  0
 30 31  2  0  0  0  0
 30 33  1  0  0  0  0
 32 27  1  0  0  0  0
 34 36  1  0  0  0  0
 35 34  1  0  0  0  0
 35 36  1  0  0  0  0
 36 41  1  0  0  0  0
 36 40  1  0  0  0  0
 37 34  1  0  0  0  0
 38 35  1  0  0  0  0
 39 35  1  0  0  0  0
M  END
>  <minimizedAffinity>
-5.81905413

$$$$

 OpenBabel03242520233D

 41 44  0  0  0  0  0  0  0  0999 V2000
   37.3850   28.3340   43.7020 C   0  0  0  0  0  0  0  0  0  0  0  0
   36.4110   27.9930   43.3250 H   0  0  0  0  0  0  0  0  0  0  0  0
   37.2120   28.5830   44.7860 H   0  0  0  0  0  0  0  0  0  0  0  0
   37.2500   29.9000   41.8270 C   0  0  0  0  0  0  0  0  0  0  0  0
   36.2560   29.3170   41.3120 O   0  0  0  0  0  0  0  0  0  0  0  0
   37.8470   29.5500   43.0660 N   0  0  0  0  0  0  0  0  0  0  0  0
   38.5840   30.1030   43.5380 H   0  0  0  0  0  0  0  0  0  0  0  0
   37.8690   31.0470   41.1110 C   0  0  0  0  0  0  0  0  0  0  0  0
   37.0590   31.9380   40.4360 C   0  0  0  0  0  0  0  0  0  0  0  0
   37.5040   33.0380   39.7360 C   0  0  0  0  0  0  0  0  0  0  0  0
   38.8740   33.2330   39.7300 C   0  0  0  0  0  0  0  0  0  0  0  0
   39.6540   32.3340   40.4080 C   0  0  0  0  0  0  0  0  0  0  0  0
   39.1880   31.2610   41.0890 N   0  0  0  0  0  0  0  0  0  0  0  0
   35.9920   31.7450   40.4680 H   0  0  0  0  0  0  0  0  0  0  0  0
   36.8560   33.7180   39.2180 H   0  0  0  0  0  0  0  0  0  0  0  0
   39.2590   34.0780   39.1960 H   0  0  0  0  0  0  0  0  0  0  0  0
   41.0690   32.5060   40.4220 N   0  0  0  0  0  0  0  0  0  0  0  0
   41.8930   33.5330   39.8050 C   0  0  0  0  0  2  0  0  0  0  0  0
   42.6950   33.9740   41.0370 C   0  0  0  0  0  2  0  0  0  0  0  0
   42.7560   32.7450   41.9410 C   0  0  0  0  0  2  0  0  0  0  0  0
   42.0750   31.6820   41.0700 C   0  0  0  0  0  3  0  0  0  0  0  0
   41.6820   30.8550   41.6570 H   0  0  0  0  0  0  0  0  0  0  0  0
   38.4340   27.2290   43.6760 C   0  0  0  0  0  0  0  0  0  0  0  0
   39.3830   27.7020   44.0080 H   0  0  0  0  0  0  0  0  0  0  0  0
   38.1270   26.4090   44.3560 H   0  0  0  0  0  0  0  0  0  0  0  0
   38.0060   25.4870   40.3400 C   0  0  0  0  0  0  0  0  0  0  0  0
   37.7710   25.8880   41.6800 C   0  0  0  0  0  0  0  0  0  0  0  0
   38.6450   26.7730   42.2810 C   0  0  0  0  0  0  0  0  0  0  0  0
   39.7040   27.2070   41.5150 N   0  0  0  0  0  0  0  0  0  0  0  0
   39.8790   26.7850   40.2280 C   0  0  0  0  0  0  0  0  0  0  0  0
   39.0360   25.9330   39.6520 N   0  0  0  0  0  0  0  0  0  0  0  0
   36.9140   25.5000   42.2130 H   0  0  0  0  0  0  0  0  0  0  0  0
   40.7240   27.1600   39.6830 H   0  0  0  0  0  0  0  0  0  0  0  0
   37.0510   24.5190   39.7140 C   0  0  0  0  0  0  0  0  0  0  0  0
   37.3580   23.0420   40.1690 C   0  0  0  0  0  0  0  0  0  0  0  0
   36.0910   23.7480   40.3930 C   0  0  0  0  0  0  0  0  0  0  0  0
   37.0500   24.6230   38.5900 H   0  0  0  0  0  0  0  0  0  0  0  0
   38.1170   22.9030   40.9390 H   0  0  0  0  0  0  0  0  0  0  0  0
   37.4660   22.3200   39.3330 H   0  0  0  0  0  0  0  0  0  0  0  0
   35.8840   23.9690   41.4810 H   0  0  0  0  0  0  0  0  0  0  0  0
   35.1650   23.4330   39.8850 H   0  0  0  0  0  0  0  0  0  0  0  0
  1  3  1  0  0  0  0
  2  1  1  0  0  0  0
  4  6  1  0  0  0  0
  5  4  2  0  0  0  0
  6  7  1  0  0  0  0
  6  1  1  0  0  0  0
  8  4  1  0  0  0  0
  9 14  1  0  0  0  0
  9  8  2  0  0  0  0
 10  9  1  0  0  0  0
 11 10  2  0  0  0  0
 11 12  1  0  0  0  0
 12 17  1  0  0  0  0
 12 13  2  0  0  0  0
 13  8  1  0  0  0  0
 15 10  1  0  0  0  0
 16 11  1  0  0  0  0
 17 21  1  0  0  0  0
 18 17  1  0  0  0  0
 18 19  1  0  0  0  0
 19 20  1  0  0  0  0
 21 22  1  0  0  0  0
 21 20  1  0  0  0  0
 23  1  1  0  0  0  0
 23 24  1  0  0  0  0
 23 25  1  0  0  0  0
 26 27  1  0  0  0  0
 27 32  1  0  0  0  0
 27 28  2  0  0  0  0
 28 23  1  0  0  0  0
 29 28  1  0  0  0  0
 30 29  2  0  0  0  0
 31 30  1  0  0  0  0
 31 26  2  0  0  0  0
 33 30  1  0  0  0  0
 34 35  1  0  0  0  0
 34 26  1  0  0  0  0
 34 36  1  0  0  0  0
 35 36  1  0  0  0  0
 35 38  1  0  0  0  0
 36 40  1  0  0  0  0
 37 34  1  0  0  0  0
 39 35  1  0  0  0  0
 41 36  1  0  0  0  0
M  END
>  <minimizedAffinity>
-5.63311863

$$$$

 OpenBabel03242520233D

 41 44  0  0  0  0  0  0  0  0999 V2000
   36.3800   29.5810   37.2510 C   0  0  0  0  0  0  0  0  0  0  0  0
   37.1720   28.9030   36.9040 H   0  0  0  0  0  0  0  0  0  0  0  0
   35.8260   29.8900   36.3220 H   0  0  0  0  0  0  0  0  0  0  0  0
   38.2810   30.8350   38.1450 C   0  0  0  0  0  0  0  0  0  0  0  0
   39.1210   29.9610   37.7950 O   0  0  0  0  0  0  0  0  0  0  0  0
   36.8930   30.7940   37.8510 N   0  0  0  0  0  0  0  0  0  0  0  0
   36.2320   31.5690   38.0380 H   0  0  0  0  0  0  0  0  0  0  0  0
   38.7440   32.0140   38.9250 C   0  0  0  0  0  0  0  0  0  0  0  0
   37.8190   32.9460   39.3520 C   0  0  0  0  0  0  0  0  0  0  0  0
   38.1150   34.0780   40.0780 C   0  0  0  0  0  0  0  0  0  0  0  0
   39.4510   34.2630   40.3860 C   0  0  0  0  0  0  0  0  0  0  0  0
   40.3470   33.3230   39.9500 C   0  0  0  0  0  0  0  0  0  0  0  0
   40.0270   32.2180   39.2370 N   0  0  0  0  0  0  0  0  0  0  0  0
   36.7830   32.7590   39.0870 H   0  0  0  0  0  0  0  0  0  0  0  0
   37.3800   34.7900   40.4000 H   0  0  0  0  0  0  0  0  0  0  0  0
   39.7220   35.1330   40.9500 H   0  0  0  0  0  0  0  0  0  0  0  0
   41.7320   33.4830   40.2510 N   0  0  0  0  0  0  0  0  0  0  0  0
   42.4140   34.5360   40.9860 C   0  0  0  0  0  2  0  0  0  0  0  0
   43.1830   33.6700   41.9930 C   0  0  0  0  0  2  0  0  0  0  0  0
   43.4090   32.3340   41.2890 C   0  0  0  0  0  2  0  0  0  0  0  0
   42.8420   32.6180   39.8910 C   0  0  0  0  0  3  0  0  0  0  0  0
   42.5620   31.7080   39.3650 H   0  0  0  0  0  0  0  0  0  0  0  0
   35.3650   28.8750   38.1430 C   0  0  0  0  0  0  0  0  0  0  0  0
   34.8210   29.6800   38.6820 H   0  0  0  0  0  0  0  0  0  0  0  0
   34.6800   28.2690   37.5180 H   0  0  0  0  0  0  0  0  0  0  0  0
   36.9220   27.7450   41.4050 C   0  0  0  0  0  0  0  0  0  0  0  0
   36.2470   28.5500   40.4530 C   0  0  0  0  0  0  0  0  0  0  0  0
   36.0730   28.0720   39.1680 C   0  0  0  0  0  0  0  0  0  0  0  0
   36.5830   26.8200   38.9040 N   0  0  0  0  0  0  0  0  0  0  0  0
   37.2240   26.0900   39.8630 C   0  0  0  0  0  0  0  0  0  0  0  0
   37.3900   26.5520   41.0990 N   0  0  0  0  0  0  0  0  0  0  0  0
   35.8770   29.5250   40.7410 H   0  0  0  0  0  0  0  0  0  0  0  0
   37.5990   25.1210   39.5950 H   0  0  0  0  0  0  0  0  0  0  0  0
   37.1070   28.2890   42.7880 C   0  0  0  0  0  0  0  0  0  0  0  0
   36.2930   27.4490   43.8430 C   0  0  0  0  0  0  0  0  0  0  0  0
   37.7490   27.6350   43.8540 C   0  0  0  0  0  0  0  0  0  0  0  0
   36.8460   29.3860   42.8270 H   0  0  0  0  0  0  0  0  0  0  0  0
   35.8020   26.5420   43.4900 H   0  0  0  0  0  0  0  0  0  0  0  0
   35.6380   28.0560   44.5010 H   0  0  0  0  0  0  0  0  0  0  0  0
   38.3260   26.6870   43.6450 H   0  0  0  0  0  0  0  0  0  0  0  0
   38.2430   28.2150   44.6500 H   0  0  0  0  0  0  0  0  0  0  0  0
  1  6  1  0  0  0  0
  1 23  1  0  0  0  0
  2  1  1  0  0  0  0
  3  1  1  0  0  0  0
  4  8  1  0  0  0  0
  5  4  2  0  0  0  0
  6  7  1  0  0  0  0
  6  4  1  0  0  0  0
  8 13  2  0  0  0  0
  8  9  1  0  0  0  0
  9 10  2  0  0  0  0
 10 11  1  0  0  0  0
 10 15  1  0  0  0  0
 11 16  1  0  0  0  0
 12 17  1  0  0  0  0
 12 11  2  0  0  0  0
 13 12  1  0  0  0  0
 14  9  1  0  0  0  0
 17 18  1  0  0  0  0
 18 19  1  0  0  0  0
 20 19  1  0  0  0  0
 21 17  1  0  0  0  0
 21 20  1  0  0  0  0
 22 21  1  0  0  0  0
 23 24  1  0  0  0  0
 23 28  1  0  0  0  0
 25 23  1  0  0  0  0
 26 34  1  0  0  0  0
 27 32  1  0  0  0  0
 27 26  2  0  0  0  0
 28 27  1  0  0  0  0
 29 28  2  0  0  0  0
 29 30  1  0  0  0  0
 30 31  2  0  0  0  0
 31 26  1  0  0  0  0
 33 30  1  0  0  0  0
 34 37  1  0  0  0  0
 34 35  1  0  0  0  0
 34 36  1  0  0  0  0
 35 36  1  0  0  0  0
 35 39  1  0  0  0  0
 36 41  1  0  0  0  0
 38 35  1  0  0  0  0
 40 36  1  0  0  0  0
M  END
>  <minimizedAffinity>
-5.58822775

$$$$

 OpenBabel03242520233D

 41 44  0  0  0  0  0  0  0  0999 V2000
   39.0900   34.1000   40.3210 C   0  0  0  0  0  0  0  0  0  0  0  0
   39.7850   34.3770   39.5160 H   0  0  0  0  0  0  0  0  0  0  0  0
   38.9500   35.0360   40.9280 H   0  0  0  0  0  0  0  0  0  0  0  0
   40.9790   32.7100   41.0180 C   0  0  0  0  0  0  0  0  0  0  0  0
   41.7820   33.2670   40.2200 O   0  0  0  0  0  0  0  0  0  0  0  0
   39.6290   33.0990   41.2180 N   0  0  0  0  0  0  0  0  0  0  0  0
   39.0120   32.7170   41.9560 H   0  0  0  0  0  0  0  0  0  0  0  0
   41.4480   31.5560   41.8310 C   0  0  0  0  0  0  0  0  0  0  0  0
   42.5650   31.7010   42.6280 C   0  0  0  0  0  0  0  0  0  0  0  0
   43.1010   30.7150   43.4260 C   0  0  0  0  0  0  0  0  0  0  0  0
   42.4430   29.4990   43.4020 C   0  0  0  0  0  0  0  0  0  0  0  0
   41.3370   29.3820   42.6020 C   0  0  0  0  0  0  0  0  0  0  0  0
   40.8310   30.3700   41.8280 N   0  0  0  0  0  0  0  0  0  0  0  0
   43.0480   32.6730   42.6160 H   0  0  0  0  0  0  0  0  0  0  0  0
   43.9710   30.8500   44.0390 H   0  0  0  0  0  0  0  0  0  0  0  0
   42.8290   28.7050   44.0100 H   0  0  0  0  0  0  0  0  0  0  0  0
   40.6350   28.1420   42.5550 N   0  0  0  0  0  0  0  0  0  0  0  0
   40.8970   26.8910   43.2470 C   0  0  0  0  0  2  0  0  0  0  0  0
   39.5120   26.6610   43.8670 C   0  0  0  0  0  2  0  0  0  0  0  0
   38.5280   27.3450   42.9220 C   0  0  0  0  0  2  0  0  0  0  0  0
   39.4510   27.8010   41.7840 C   0  0  0  0  0  3  0  0  0  0  0  0
   39.0270   28.6200   41.2090 H   0  0  0  0  0  0  0  0  0  0  0  0
   37.7120   33.7220   39.7880 C   0  0  0  0  0  0  0  0  0  0  0  0
   37.0520   33.6440   40.6790 H   0  0  0  0  0  0  0  0  0  0  0  0
   37.3580   34.5030   39.0860 H   0  0  0  0  0  0  0  0  0  0  0  0
   36.8330   30.1870   38.7480 C   0  0  0  0  0  0  0  0  0  0  0  0
   36.7450   31.4630   39.3630 C   0  0  0  0  0  0  0  0  0  0  0  0
   37.7660   32.3740   39.1730 C   0  0  0  0  0  0  0  0  0  0  0  0
   38.8160   31.9640   38.3820 N   0  0  0  0  0  0  0  0  0  0  0  0
   38.8460   30.7220   37.8150 C   0  0  0  0  0  0  0  0  0  0  0  0
   37.8620   29.8470   38.0000 N   0  0  0  0  0  0  0  0  0  0  0  0
   35.8850   31.7060   39.9710 H   0  0  0  0  0  0  0  0  0  0  0  0
   39.6930   30.4630   37.2100 H   0  0  0  0  0  0  0  0  0  0  0  0
   35.7200   29.2130   38.9780 C   0  0  0  0  0  0  0  0  0  0  0  0
   36.0680   28.2190   40.1490 C   0  0  0  0  0  0  0  0  0  0  0  0
   34.9180   29.1310   40.1290 C   0  0  0  0  0  0  0  0  0  0  0  0
   35.4590   28.6690   38.0240 H   0  0  0  0  0  0  0  0  0  0  0  0
   36.9800   28.4090   40.7140 H   0  0  0  0  0  0  0  0  0  0  0  0
   35.9460   27.1470   39.8890 H   0  0  0  0  0  0  0  0  0  0  0  0
   34.9820   29.9550   40.8980 H   0  0  0  0  0  0  0  0  0  0  0  0
   33.8870   28.7470   40.0660 H   0  0  0  0  0  0  0  0  0  0  0  0
  1  3  1  0  0  0  0
  1  6  1  0  0  0  0
  2  1  1  0  0  0  0
  4  6  1  0  0  0  0
  4  8  1  0  0  0  0
  5  4  2  0  0  0  0
  6  7  1  0  0  0  0
  8  9  1  0  0  0  0
  9 10  2  0  0  0  0
 10 15  1  0  0  0  0
 11 10  1  0  0  0  0
 11 16  1  0  0  0  0
 12 11  2  0  0  0  0
 13  8  2  0  0  0  0
 13 12  1  0  0  0  0
 14  9  1  0  0  0  0
 17 12  1  0  0  0  0
 17 18  1  0  0  0  0
 18 19  1  0  0  0  0
 20 19  1  0  0  0  0
 21 17  1  0  0  0  0
 21 20  1  0  0  0  0
 22 21  1  0  0  0  0
 23  1  1  0  0  0  0
 23 24  1  0  0  0  0
 25 23  1  0  0  0  0
 26 34  1  0  0  0  0
 26 27  1  0  0  0  0
 27 32  1  0  0  0  0
 28 27  2  0  0  0  0
 28 23  1  0  0  0  0
 29 28  1  0  0  0  0
 30 31  1  0  0  0  0
 30 29  2  0  0  0  0
 31 26  2  0  0  0  0
 33 30  1  0  0  0  0
 34 36  1  0  0  0  0
 34 35  1  0  0  0  0
 35 38  1  0  0  0  0
 36 35  1  0  0  0  0
 36 40  1  0  0  0  0
 37 34  1  0  0  0  0
 39 35  1  0  0  0  0
 41 36  1  0  0  0  0
M  END
>  <minimizedAffinity>
-5.52776337

$$$$

 OpenBabel03242520233D

 41 44  0  0  0  0  0  0  0  0999 V2000
   36.0760   29.2470   34.8750 C   0  0  0  0  0  0  0  0  0  0  0  0
   37.0110   28.8150   34.4910 H   0  0  0  0  0  0  0  0  0  0  0  0
   35.8300   30.0910   34.1740 H   0  0  0  0  0  0  0  0  0  0  0  0
   37.2430   29.3060   37.0250 C   0  0  0  0  0  0  0  0  0  0  0  0
   38.1240   28.4820   36.6560 O   0  0  0  0  0  0  0  0  0  0  0  0
   36.2180   29.8280   36.1930 N   0  0  0  0  0  0  0  0  0  0  0  0
   35.5730   30.5900   36.4670 H   0  0  0  0  0  0  0  0  0  0  0  0
   37.2460   29.7920   38.4310 C   0  0  0  0  0  0  0  0  0  0  0  0
   36.9540   31.1160   38.6880 C   0  0  0  0  0  0  0  0  0  0  0  0
   36.9240   31.6910   39.9390 C   0  0  0  0  0  0  0  0  0  0  0  0
   37.2130   30.8460   40.9950 C   0  0  0  0  0  0  0  0  0  0  0  0
   37.4990   29.5370   40.7120 C   0  0  0  0  0  0  0  0  0  0  0  0
   37.5210   28.9980   39.4700 N   0  0  0  0  0  0  0  0  0  0  0  0
   36.7330   31.7410   37.8280 H   0  0  0  0  0  0  0  0  0  0  0  0
   36.6940   32.7240   40.1160 H   0  0  0  0  0  0  0  0  0  0  0  0
   37.2000   31.2560   41.9850 H   0  0  0  0  0  0  0  0  0  0  0  0
   37.8010   28.6390   41.7780 N   0  0  0  0  0  0  0  0  0  0  0  0
   37.8660   28.8770   43.2110 C   0  0  0  0  0  2  0  0  0  0  0  0
   36.9300   27.7570   43.6860 C   0  0  0  0  0  2  0  0  0  0  0  0
   37.0400   26.6620   42.6280 C   0  0  0  0  0  2  0  0  0  0  0  0
   38.1300   27.2260   41.7060 C   0  0  0  0  0  3  0  0  0  0  0  0
   38.0910   26.7960   40.7080 H   0  0  0  0  0  0  0  0  0  0  0  0
   34.9120   28.2660   34.7930 C   0  0  0  0  0  0  0  0  0  0  0  0
   34.6470   28.1970   33.7150 H   0  0  0  0  0  0  0  0  0  0  0  0
   35.2240   27.2840   35.1990 H   0  0  0  0  0  0  0  0  0  0  0  0
   31.6900   30.1200   35.5200 C   0  0  0  0  0  0  0  0  0  0  0  0
   32.8090   29.6070   34.8150 C   0  0  0  0  0  0  0  0  0  0  0  0
   33.7330   28.8320   35.4900 C   0  0  0  0  0  0  0  0  0  0  0  0
   33.4900   28.6120   36.8280 N   0  0  0  0  0  0  0  0  0  0  0  0
   32.3930   29.1330   37.4540 C   0  0  0  0  0  0  0  0  0  0  0  0
   31.5060   29.8780   36.8010 N   0  0  0  0  0  0  0  0  0  0  0  0
   32.9270   29.8270   33.7630 H   0  0  0  0  0  0  0  0  0  0  0  0
   32.2610   28.9260   38.4980 H   0  0  0  0  0  0  0  0  0  0  0  0
   30.7090   30.9660   34.7690 C   0  0  0  0  0  0  0  0  0  0  0  0
   30.5380   32.3770   35.4490 C   0  0  0  0  0  0  0  0  0  0  0  0
   31.0020   32.1520   34.0750 C   0  0  0  0  0  0  0  0  0  0  0  0
   29.7220   30.4310   34.6530 H   0  0  0  0  0  0  0  0  0  0  0  0
   31.2030   32.6170   36.2790 H   0  0  0  0  0  0  0  0  0  0  0  0
   29.4860   32.6600   35.6530 H   0  0  0  0  0  0  0  0  0  0  0  0
   32.0820   32.4360   33.9110 H   0  0  0  0  0  0  0  0  0  0  0  0
   30.3910   32.4590   33.2100 H   0  0  0  0  0  0  0  0  0  0  0  0
  1  6  1  0  0  0  0
  2  1  1  0  0  0  0
  3  1  1  0  0  0  0
  4  8  1  0  0  0  0
  5  4  2  0  0  0  0
  6  7  1  0  0  0  0
  6  4  1  0  0  0  0
  8  9  2  0  0  0  0
  8 13  1  0  0  0  0
  9 10  1  0  0  0  0
 10 15  1  0  0  0  0
 10 11  2  0  0  0  0
 11 16  1  0  0  0  0
 12 11  1  0  0  0  0
 12 17  1  0  0  0  0
 13 12  2  0  0  0  0
 14  9  1  0  0  0  0
 17 18  1  0  0  0  0
 18 19  1  0  0  0  0
 20 19  1  0  0  0  0
 21 17  1  0  0  0  0
 21 20  1  0  0  0  0
 22 21  1  0  0  0  0
 23  1  1  0  0  0  0
 23 25  1  0  0  0  0
 23 28  1  0  0  0  0
 24 23  1  0  0  0  0
 26 31  1  0  0  0  0
 27 28  1  0  0  0  0
 27 26  2  0  0  0  0
 28 29  2  0  0  0  0
 29 30  1  0  0  0  0
 30 33  1  0  0  0  0
 31 30  2  0  0  0  0
 32 27  1  0  0  0  0
 34 35  1  0  0  0  0
 34 26  1  0  0  0  0
 35 39  1  0  0  0  0
 35 38  1  0  0  0  0
 36 34  1  0  0  0  0
 36 35  1  0  0  0  0
 37 34  1  0  0  0  0
 40 36  1  0  0  0  0
 41 36  1  0  0  0  0
M  END
>  <minimizedAffinity>
-5.52578497

$$$$

 OpenBabel03242520233D

 41 44  0  0  0  0  0  0  0  0999 V2000
   36.1170   29.0470   37.2090 C   0  0  0  0  0  0  0  0  0  0  0  0
   36.9380   28.4160   36.8410 H   0  0  0  0  0  0  0  0  0  0  0  0
   35.4960   29.2840   36.3020 H   0  0  0  0  0  0  0  0  0  0  0  0
   37.9590   30.4510   37.9970 C   0  0  0  0  0  0  0  0  0  0  0  0
   38.8420   29.6160   37.6600 O   0  0  0  0  0  0  0  0  0  0  0  0
   36.5690   30.3130   37.7450 N   0  0  0  0  0  0  0  0  0  0  0  0
   35.8660   31.0540   37.9180 H   0  0  0  0  0  0  0  0  0  0  0  0
   38.3680   31.6880   38.7150 C   0  0  0  0  0  0  0  0  0  0  0  0
   37.3970   32.5680   39.1500 C   0  0  0  0  0  0  0  0  0  0  0  0
   37.6400   33.7450   39.8230 C   0  0  0  0  0  0  0  0  0  0  0  0
   38.9710   34.0340   40.0660 C   0  0  0  0  0  0  0  0  0  0  0  0
   39.9130   33.1430   39.6250 C   0  0  0  0  0  0  0  0  0  0  0  0
   39.6450   31.9930   38.9640 N   0  0  0  0  0  0  0  0  0  0  0  0
   36.3670   32.3000   38.9370 H   0  0  0  0  0  0  0  0  0  0  0  0
   36.8690   34.4140   40.1520 H   0  0  0  0  0  0  0  0  0  0  0  0
   39.2010   34.9410   40.5880 H   0  0  0  0  0  0  0  0  0  0  0  0
   41.2940   33.4120   39.8590 N   0  0  0  0  0  0  0  0  0  0  0  0
   41.9290   34.5360   40.5270 C   0  0  0  0  0  2  0  0  0  0  0  0
   42.7980   33.7650   41.5300 C   0  0  0  0  0  2  0  0  0  0  0  0
   43.0900   32.4230   40.8630 C   0  0  0  0  0  2  0  0  0  0  0  0
   42.4480   32.6130   39.4820 C   0  0  0  0  0  3  0  0  0  0  0  0
   42.2130   31.6670   39.0000 H   0  0  0  0  0  0  0  0  0  0  0  0
   35.2030   28.3000   38.1730 C   0  0  0  0  0  0  0  0  0  0  0  0
   34.3090   28.9460   38.3080 H   0  0  0  0  0  0  0  0  0  0  0  0
   34.9330   27.3150   37.7430 H   0  0  0  0  0  0  0  0  0  0  0  0
   37.1680   26.9910   41.1360 C   0  0  0  0  0  0  0  0  0  0  0  0
   36.5480   27.0490   39.8610 C   0  0  0  0  0  0  0  0  0  0  0  0
   35.8580   28.1900   39.4990 C   0  0  0  0  0  0  0  0  0  0  0  0
   35.8230   29.2070   40.4270 N   0  0  0  0  0  0  0  0  0  0  0  0
   36.4390   29.0940   41.6400 C   0  0  0  0  0  0  0  0  0  0  0  0
   37.1030   27.9950   41.9860 N   0  0  0  0  0  0  0  0  0  0  0  0
   36.6220   26.2040   39.1900 H   0  0  0  0  0  0  0  0  0  0  0  0
   36.3760   29.9220   42.3190 H   0  0  0  0  0  0  0  0  0  0  0  0
   37.9000   25.7400   41.5090 C   0  0  0  0  0  0  0  0  0  0  0  0
   36.9020   24.6170   41.9840 C   0  0  0  0  0  0  0  0  0  0  0  0
   37.8200   24.5040   40.8430 C   0  0  0  0  0  0  0  0  0  0  0  0
   38.6940   25.9540   42.2820 H   0  0  0  0  0  0  0  0  0  0  0  0
   35.8360   24.8190   41.8840 H   0  0  0  0  0  0  0  0  0  0  0  0
   37.1570   24.1650   42.9640 H   0  0  0  0  0  0  0  0  0  0  0  0
   37.2940   24.4560   39.8450 H   0  0  0  0  0  0  0  0  0  0  0  0
   38.6690   23.8020   40.8630 H   0  0  0  0  0  0  0  0  0  0  0  0
  1  6  1  0  0  0  0
  1 23  1  0  0  0  0
  2  1  1  0  0  0  0
  3  1  1  0  0  0  0
  4  8  1  0  0  0  0
  5  4  2  0  0  0  0
  6  7  1  0  0  0  0
  6  4  1  0  0  0  0
  8 13  2  0  0  0  0
  8  9  1  0  0  0  0
  9 10  2  0  0  0  0
 10 11  1  0  0  0  0
 10 15  1  0  0  0  0
 11 16  1  0  0  0  0
 12 17  1  0  0  0  0
 12 11  2  0  0  0  0
 13 12  1  0  0  0  0
 14  9  1  0  0  0  0
 17 18  1  0  0  0  0
 18 19  1  0  0  0  0
 20 19  1  0  0  0  0
 21 17  1  0  0  0  0
 21 20  1  0  0  0  0
 22 21  1  0  0  0  0
 23 24  1  0  0  0  0
 23 28  1  0  0  0  0
 25 23  1  0  0  0  0
 26 34  1  0  0  0  0
 26 31  1  0  0  0  0
 27 26  2  0  0  0  0
 28 27  1  0  0  0  0
 28 29  2  0  0  0  0
 29 30  1  0  0  0  0
 30 31  2  0  0  0  0
 30 33  1  0  0  0  0
 32 27  1  0  0  0  0
 34 35  1  0  0  0  0
 34 37  1  0  0  0  0
 35 39  1  0  0  0  0
 36 41  1  0  0  0  0
 36 34  1  0  0  0  0
 36 35  1  0  0  0  0
 38 35  1  0  0  0  0
 40 36  1  0  0  0  0
M  END
>  <minimizedAffinity>
-5.44606686

$$$$

 OpenBabel03242520233D

 41 44  0  0  0  0  0  0  0  0999 V2000
   37.2940   31.7690   38.9500 C   0  0  0  0  0  0  0  0  0  0  0  0
   36.2280   31.8010   38.6860 H   0  0  0  0  0  0  0  0  0  0  0  0
   37.8440   31.7910   37.9690 H   0  0  0  0  0  0  0  0  0  0  0  0
   36.7560   29.9890   40.5400 C   0  0  0  0  0  0  0  0  0  0  0  0
   35.5770   30.4010   40.7190 O   0  0  0  0  0  0  0  0  0  0  0  0
   37.6790   30.5420   39.6150 N   0  0  0  0  0  0  0  0  0  0  0  0
   38.6010   30.1280   39.3890 H   0  0  0  0  0  0  0  0  0  0  0  0
   37.2510   28.8360   41.3390 C   0  0  0  0  0  0  0  0  0  0  0  0
   37.4140   28.9810   42.7020 C   0  0  0  0  0  0  0  0  0  0  0  0
   37.8640   27.9960   43.5540 C   0  0  0  0  0  0  0  0  0  0  0  0
   38.1640   26.7820   42.9630 C   0  0  0  0  0  0  0  0  0  0  0  0
   37.9930   26.6660   41.6090 C   0  0  0  0  0  0  0  0  0  0  0  0
   37.5480   27.6530   40.7960 N   0  0  0  0  0  0  0  0  0  0  0  0
   37.1660   29.9510   43.1220 H   0  0  0  0  0  0  0  0  0  0  0  0
   37.9830   28.1300   44.6110 H   0  0  0  0  0  0  0  0  0  0  0  0
   38.5170   25.9900   43.5920 H   0  0  0  0  0  0  0  0  0  0  0  0
   38.2930   25.4280   40.9690 N   0  0  0  0  0  0  0  0  0  0  0  0
   38.7830   24.1790   41.5290 C   0  0  0  0  0  2  0  0  0  0  0  0
   37.7250   23.2250   40.9600 C   0  0  0  0  0  2  0  0  0  0  0  0
   37.2530   23.8730   39.6600 C   0  0  0  0  0  2  0  0  0  0  0  0
   38.1850   25.0880   39.5600 C   0  0  0  0  0  3  0  0  0  0  0  0
   37.7770   25.8730   38.9290 H   0  0  0  0  0  0  0  0  0  0  0  0
   37.7360   33.0100   39.7180 C   0  0  0  0  0  0  0  0  0  0  0  0
   37.6670   33.8540   38.9980 H   0  0  0  0  0  0  0  0  0  0  0  0
   37.0710   33.1640   40.5910 H   0  0  0  0  0  0  0  0  0  0  0  0
   41.4980   33.4350   39.8200 C   0  0  0  0  0  0  0  0  0  0  0  0
   40.1450   33.5800   39.4180 C   0  0  0  0  0  0  0  0  0  0  0  0
   39.1630   32.8820   40.0960 C   0  0  0  0  0  0  0  0  0  0  0  0
   39.5840   32.0820   41.1350 N   0  0  0  0  0  0  0  0  0  0  0  0
   40.9020   31.9820   41.4760 C   0  0  0  0  0  0  0  0  0  0  0  0
   41.8460   32.6540   40.8220 N   0  0  0  0  0  0  0  0  0  0  0  0
   39.8990   34.2290   38.5900 H   0  0  0  0  0  0  0  0  0  0  0  0
   41.1660   31.3410   42.2950 H   0  0  0  0  0  0  0  0  0  0  0  0
   42.5450   34.1920   39.0630 C   0  0  0  0  0  0  0  0  0  0  0  0
   43.2180   33.2860   37.9640 C   0  0  0  0  0  0  0  0  0  0  0  0
   42.4940   34.5350   37.7010 C   0  0  0  0  0  0  0  0  0  0  0  0
   43.3060   34.6390   39.7670 H   0  0  0  0  0  0  0  0  0  0  0  0
   42.7930   32.2950   37.8020 H   0  0  0  0  0  0  0  0  0  0  0  0
   44.3270   33.2700   38.0030 H   0  0  0  0  0  0  0  0  0  0  0  0
   41.5280   34.3860   37.1370 H   0  0  0  0  0  0  0  0  0  0  0  0
   43.0190   35.4300   37.3300 H   0  0  0  0  0  0  0  0  0  0  0  0
  1  6  1  0  0  0  0
  1 23  1  0  0  0  0
  2  1  1  0  0  0  0
  3  1  1  0  0  0  0
  4  5  2  0  0  0  0
  4  8  1  0  0  0  0
  6  4  1  0  0  0  0
  7  6  1  0  0  0  0
  8  9  1  0  0  0  0
  9 14  1  0  0  0  0
  9 10  2  0  0  0  0
 10 15  1  0  0  0  0
 11 10  1  0  0  0  0
 11 16  1  0  0  0  0
 12 11  2  0  0  0  0
 13  8  2  0  0  0  0
 13 12  1  0  0  0  0
 17 18  1  0  0  0  0
 17 12  1  0  0  0  0
 19 18  1  0  0  0  0
 20 19  1  0  0  0  0
 21 20  1  0  0  0  0
 21 17  1  0  0  0  0
 22 21  1  0  0  0  0
 23 28  1  0  0  0  0
 23 25  1  0  0  0  0
 24 23  1  0  0  0  0
 26 31  1  0  0  0  0
 27 26  2  0  0  0  0
 27 28  1  0  0  0  0
 28 29  2  0  0  0  0
 29 30  1  0  0  0  0
 30 33  1  0  0  0  0
 31 30  2  0  0  0  0
 32 27  1  0  0  0  0
 34 37  1  0  0  0  0
 34 26  1  0  0  0  0
 35 39  1  0  0  0  0
 35 34  1  0  0  0  0
 36 35  1  0  0  0  0
 36 34  1  0  0  0  0
 38 35  1  0  0  0  0
 40 36  1  0  0  0  0
 41 36  1  0  0  0  0
M  END
>  <minimizedAffinity>
-5.41363668

$$$$

 OpenBabel03242520233D

 41 44  0  0  0  0  0  0  0  0999 V2000
   36.2190   28.0670   36.7240 C   0  0  0  0  0  0  0  0  0  0  0  0
   35.2320   27.6360   36.5040 H   0  0  0  0  0  0  0  0  0  0  0  0
   36.8600   27.8090   35.8370 H   0  0  0  0  0  0  0  0  0  0  0  0
   36.2490   26.3080   38.4250 C   0  0  0  0  0  0  0  0  0  0  0  0
   35.2950   25.6740   37.8960 O   0  0  0  0  0  0  0  0  0  0  0  0
   36.8540   27.4720   37.8820 N   0  0  0  0  0  0  0  0  0  0  0  0
   37.7090   27.9170   38.2580 H   0  0  0  0  0  0  0  0  0  0  0  0
   36.8130   25.8270   39.7150 C   0  0  0  0  0  0  0  0  0  0  0  0
   36.6630   24.5000   40.0640 C   0  0  0  0  0  0  0  0  0  0  0  0
   37.1350   23.9300   41.2260 C   0  0  0  0  0  0  0  0  0  0  0  0
   37.8050   24.7830   42.0840 C   0  0  0  0  0  0  0  0  0  0  0  0
   37.9400   26.0940   41.7130 C   0  0  0  0  0  0  0  0  0  0  0  0
   37.4650   26.6280   40.5630 N   0  0  0  0  0  0  0  0  0  0  0  0
   36.1300   23.8690   39.3600 H   0  0  0  0  0  0  0  0  0  0  0  0
   37.0070   22.8950   41.4770 H   0  0  0  0  0  0  0  0  0  0  0  0
   38.1880   24.3770   42.9990 H   0  0  0  0  0  0  0  0  0  0  0  0
   38.6260   26.9990   42.5750 N   0  0  0  0  0  0  0  0  0  0  0  0
   39.2520   26.7690   43.8670 C   0  0  0  0  0  2  0  0  0  0  0  0
   40.6400   27.3540   43.5720 C   0  0  0  0  0  2  0  0  0  0  0  0
   40.4100   28.4210   42.5040 C   0  0  0  0  0  2  0  0  0  0  0  0
   38.8810   28.4170   42.3810 C   0  0  0  0  0  3  0  0  0  0  0  0
   38.5410   28.8180   41.4300 H   0  0  0  0  0  0  0  0  0  0  0  0
   36.1810   29.5890   36.8000 C   0  0  0  0  0  0  0  0  0  0  0  0
   37.1390   29.9400   36.3600 H   0  0  0  0  0  0  0  0  0  0  0  0
   35.3090   29.9670   36.2310 H   0  0  0  0  0  0  0  0  0  0  0  0
   36.9540   31.4260   40.0210 C   0  0  0  0  0  0  0  0  0  0  0  0
   36.9980   31.0400   38.6560 C   0  0  0  0  0  0  0  0  0  0  0  0
   36.1760   30.0190   38.2180 C   0  0  0  0  0  0  0  0  0  0  0  0
   35.3570   29.4410   39.1630 N   0  0  0  0  0  0  0  0  0  0  0  0
   35.3580   29.8560   40.4640 C   0  0  0  0  0  0  0  0  0  0  0  0
   36.1500   30.8380   40.8830 N   0  0  0  0  0  0  0  0  0  0  0  0
   37.6710   31.5450   37.9780 H   0  0  0  0  0  0  0  0  0  0  0  0
   34.6970   29.3650   41.1520 H   0  0  0  0  0  0  0  0  0  0  0  0
   37.8620   32.5260   40.4740 C   0  0  0  0  0  0  0  0  0  0  0  0
   39.2420   31.9550   40.9740 C   0  0  0  0  0  0  0  0  0  0  0  0
   39.0730   32.9020   39.8660 C   0  0  0  0  0  0  0  0  0  0  0  0
   37.3600   33.1660   41.2570 H   0  0  0  0  0  0  0  0  0  0  0  0
   39.4230   30.8890   40.8360 H   0  0  0  0  0  0  0  0  0  0  0  0
   39.5440   32.3080   41.9820 H   0  0  0  0  0  0  0  0  0  0  0  0
   39.3340   32.4680   38.8570 H   0  0  0  0  0  0  0  0  0  0  0  0
   39.4380   33.9390   39.9420 H   0  0  0  0  0  0  0  0  0  0  0  0
  1 23  1  0  0  0  0
  1  6  1  0  0  0  0
  2  1  1  0  0  0  0
  3  1  1  0  0  0  0
  4  8  1  0  0  0  0
  5  4  2  0  0  0  0
  6  7  1  0  0  0  0
  6  4  1  0  0  0  0
  8  9  2  0  0  0  0
  8 13  1  0  0  0  0
  9 10  1  0  0  0  0
 10 15  1  0  0  0  0
 10 11  2  0  0  0  0
 11 16  1  0  0  0  0
 12 11  1  0  0  0  0
 12 17  1  0  0  0  0
 13 12  2  0  0  0  0
 14  9  1  0  0  0  0
 17 18  1  0  0  0  0
 19 18  1  0  0  0  0
 20 19  1  0  0  0  0
 21 20  1  0  0  0  0
 21 17  1  0  0  0  0
 22 21  1  0  0  0  0
 23 28  1  0  0  0  0
 24 23  1  0  0  0  0
 25 23  1  0  0  0  0
 26 34  1  0  0  0  0
 26 31  1  0  0  0  0
 27 26  2  0  0  0  0
 28 27  1  0  0  0  0
 28 29  2  0  0  0  0
 29 30  1  0  0  0  0
 30 31  2  0  0  0  0
 30 33  1  0  0  0  0
 32 27  1  0  0  0  0
 34 35  1  0  0  0  0
 34 37  1  0  0  0  0
 35 39  1  0  0  0  0
 36 41  1  0  0  0  0
 36 34  1  0  0  0  0
 36 35  1  0  0  0  0
 38 35  1  0  0  0  0
 40 36  1  0  0  0  0
M  END
>  <minimizedAffinity>
-5.40790319

$$$$

 OpenBabel03242520233D

 41 44  0  0  0  0  0  0  0  0999 V2000
   36.1100   24.2810   39.1000 C   0  0  0  0  0  0  0  0  0  0  0  0
   36.6410   23.5290   38.5000 H   0  0  0  0  0  0  0  0  0  0  0  0
   35.0220   24.1410   38.8560 H   0  0  0  0  0  0  0  0  0  0  0  0
   35.5640   26.3110   37.8490 C   0  0  0  0  0  0  0  0  0  0  0  0
   34.4440   25.8690   37.4720 O   0  0  0  0  0  0  0  0  0  0  0  0
   36.4470   25.6410   38.7350 N   0  0  0  0  0  0  0  0  0  0  0  0
   37.3070   26.0580   39.1320 H   0  0  0  0  0  0  0  0  0  0  0  0
   36.0280   27.6330   37.3490 C   0  0  0  0  0  0  0  0  0  0  0  0
   35.9020   27.9280   36.0070 C   0  0  0  0  0  0  0  0  0  0  0  0
   36.2910   29.1110   35.4170 C   0  0  0  0  0  0  0  0  0  0  0  0
   36.8450   30.0510   36.2670 C   0  0  0  0  0  0  0  0  0  0  0  0
   36.9570   29.7320   37.5940 C   0  0  0  0  0  0  0  0  0  0  0  0
   36.5660   28.5600   38.1460 N   0  0  0  0  0  0  0  0  0  0  0  0
   35.4610   27.1600   35.3790 H   0  0  0  0  0  0  0  0  0  0  0  0
   36.1840   29.3200   34.3710 H   0  0  0  0  0  0  0  0  0  0  0  0
   37.1600   30.9850   35.8460 H   0  0  0  0  0  0  0  0  0  0  0  0
   37.5240   30.6800   38.4960 N   0  0  0  0  0  0  0  0  0  0  0  0
   38.0410   32.0160   38.2480 C   0  0  0  0  0  2  0  0  0  0  0  0
   37.2380   32.7880   39.3030 C   0  0  0  0  0  2  0  0  0  0  0  0
   36.9550   31.7800   40.4140 C   0  0  0  0  0  2  0  0  0  0  0  0
   37.7360   30.5520   39.9280 C   0  0  0  0  0  3  0  0  0  0  0  0
   37.3680   29.6260   40.3650 H   0  0  0  0  0  0  0  0  0  0  0  0
   36.2510   24.0280   40.5970 C   0  0  0  0  0  0  0  0  0  0  0  0
   35.3670   24.5060   41.0710 H   0  0  0  0  0  0  0  0  0  0  0  0
   36.2770   22.9370   40.7890 H   0  0  0  0  0  0  0  0  0  0  0  0
   38.5180   26.3120   42.5940 C   0  0  0  0  0  0  0  0  0  0  0  0
   37.3450   25.6690   42.1250 C   0  0  0  0  0  0  0  0  0  0  0  0
   37.4490   24.7330   41.1130 C   0  0  0  0  0  0  0  0  0  0  0  0
   38.7150   24.4930   40.6260 N   0  0  0  0  0  0  0  0  0  0  0  0
   39.8090   25.1440   41.1190 C   0  0  0  0  0  0  0  0  0  0  0  0
   39.7060   26.0440   42.0930 N   0  0  0  0  0  0  0  0  0  0  0  0
   36.3870   25.9160   42.5610 H   0  0  0  0  0  0  0  0  0  0  0  0
   40.7680   24.9120   40.6970 H   0  0  0  0  0  0  0  0  0  0  0  0
   38.3790   27.3300   43.6830 C   0  0  0  0  0  0  0  0  0  0  0  0
   38.3910   28.7930   43.0990 C   0  0  0  0  0  0  0  0  0  0  0  0
   37.2900   28.2000   43.8670 C   0  0  0  0  0  0  0  0  0  0  0  0
   39.1700   27.1840   44.4750 H   0  0  0  0  0  0  0  0  0  0  0  0
   38.3830   28.9000   42.0140 H   0  0  0  0  0  0  0  0  0  0  0  0
   39.1210   29.4720   43.5860 H   0  0  0  0  0  0  0  0  0  0  0  0
   36.3530   28.0370   43.2590 H   0  0  0  0  0  0  0  0  0  0  0  0
   37.0330   28.5700   44.8730 H   0  0  0  0  0  0  0  0  0  0  0  0
  1 23  1  0  0  0  0
  2  1  1  0  0  0  0
  3  1  1  0  0  0  0
  4  6  1  0  0  0  0
  5  4  2  0  0  0  0
  6  1  1  0  0  0  0
  6  7  1  0  0  0  0
  8  4  1  0  0  0  0
  8 13  1  0  0  0  0
  9  8  2  0  0  0  0
 10  9  1  0  0  0  0
 10 11  2  0  0  0  0
 11 12  1  0  0  0  0
 12 13  2  0  0  0  0
 12 17  1  0  0  0  0
 14  9  1  0  0  0  0
 15 10  1  0  0  0  0
 16 11  1  0  0  0  0
 17 21  1  0  0  0  0
 18 17  1  0  0  0  0
 18 19  1  0  0  0  0
 19 20  1  0  0  0  0
 21 22  1  0  0  0  0
 21 20  1  0  0  0  0
 23 25  1  0  0  0  0
 23 24  1  0  0  0  0
 23 28  1  0  0  0  0
 26 34  1  0  0  0  0
 27 32  1  0  0  0  0
 27 26  1  0  0  0  0
 28 27  2  0  0  0  0
 29 28  1  0  0  0  0
 29 30  2  0  0  0  0
 30 31  1  0  0  0  0
 31 26  2  0  0  0  0
 33 30  1  0  0  0  0
 34 36  1  0  0  0  0
 34 37  1  0  0  0  0
 35 39  1  0  0  0  0
 35 34  1  0  0  0  0
 35 36  1  0  0  0  0
 36 41  1  0  0  0  0
 38 35  1  0  0  0  0
 40 36  1  0  0  0  0
M  END
>  <minimizedAffinity>
-5.39765978

$$$$
