REMARK  Name = 
REMARK  4 active torsions:
REMARK  status: ('A' for Active; 'I' for Inactive)
REMARK    1  A    between atoms: C_1  and  O_12
REMARK    2  A    between atoms: C_2  and  C_7
REMARK    3  A    between atoms: O_12  and  C_13
REMARK    4  A    between atoms: C_20  and  N_35
REMARK                            x       y       z     vdW  Elec       q    Type
REMARK                         _______ _______ _______ _____ _____    ______ ____
ROOT
ATOM      1  C   UNL     1      43.385  34.474  40.765  0.00  0.00    +0.000 C 
ATOM      2  O   UNL     1      43.299  35.725  40.545  0.00  0.00    +0.000 OA
ATOM      3  N   UNL     1      42.045  34.057  40.391  0.00  0.00    +0.000 N 
ATOM      4  C   UNL     1      41.683  34.333  39.023  0.00  0.00    +0.000 C 
ATOM      5  C   UNL     1      40.835  35.621  39.085  0.00  0.00    +0.000 C 
ATOM      6  C   UNL     1      40.029  35.538  40.381  0.00  0.00    +0.000 C 
ATOM      7  C   UNL     1      39.722  34.099  40.737  0.00  0.00    +0.000 C 
ATOM      8  C   UNL     1      41.019  33.407  41.182  0.00  0.00    +0.000 C 
ATOM      9  H   UNL     1      42.524  34.570  38.364  0.00  0.00    +0.000 HD
ATOM     10  H   UNL     1      41.083  33.528  38.563  0.00  0.00    +0.000 HD
ATOM     11  H   UNL     1      40.174  35.676  38.194  0.00  0.00    +0.000 HD
ATOM     12  H   UNL     1      41.479  36.509  39.123  0.00  0.00    +0.000 HD
ATOM     13  H   UNL     1      40.606  36.045  41.202  0.00  0.00    +0.000 HD
ATOM     14  H   UNL     1      39.087  36.116  40.298  0.00  0.00    +0.000 HD
ATOM     15  H   UNL     1      39.407  33.607  39.794  0.00  0.00    +0.000 HD
ATOM     16  H   UNL     1      38.960  34.098  41.533  0.00  0.00    +0.000 HD
ATOM     17  H   UNL     1      41.183  33.691  42.240  0.00  0.00    +0.000 HD
ENDROOT
BRANCH   8  18
ATOM     18  N   UNL     1      40.972  31.991  40.953  0.00  0.00    +0.000 NA
ATOM     19  C   UNL     1      39.862  31.452  41.712  0.00  0.00    +0.000 C 
ATOM     20  C   UNL     1      39.594  30.109  41.041  0.00  0.00    +0.000 C 
ATOM     21  C   UNL     1      39.936  30.319  39.595  0.00  0.00    +0.000 C 
ATOM     22  C   UNL     1      40.690  31.606  39.619  0.00  0.00    +0.000 C 
ATOM     23  H   UNL     1      40.255  32.397  38.979  0.00  0.00    +0.000 HD
ENDBRANCH   8  18
BRANCH   1  24
ATOM     24  O   UNL     1      44.471  33.800  41.224  0.00  0.00    +0.000 OA
BRANCH  24  25
ATOM     25  C   UNL     1      45.792  34.130  41.071  0.00  0.00    +0.000 A 
ATOM     26  C   UNL     1      46.425  34.755  42.155  0.00  0.00    +0.000 A 
ATOM     27  C   UNL     1      47.777  35.089  41.988  0.00  0.00    +0.000 A 
ATOM     28  N   UNL     1      48.382  34.789  40.799  0.00  0.00    +0.000 NA
ATOM     29  C   UNL     1      47.730  34.196  39.807  0.00  0.00    +0.000 A 
ATOM     30  N   UNL     1      46.433  33.863  39.937  0.00  0.00    +0.000 NA
ATOM     31  H   UNL     1      48.273  35.573  42.826  0.00  0.00    +0.000 HD
ATOM     32  H   UNL     1      48.288  33.994  38.896  0.00  0.00    +0.000 HD
BRANCH  26  33
ATOM     33  C   UNL     1      45.688  35.028  43.376  0.00  0.00    +0.000 A 
ATOM     34  C   UNL     1      45.039  36.245  43.611  0.00  0.00    +0.000 A 
ATOM     35  C   UNL     1      44.484  36.074  44.852  0.00  0.00    +0.000 A 
ATOM     36  N   UNL     1      44.766  34.858  45.338  0.00  0.00    +0.000 N 
ATOM     37  N   UNL     1      45.498  34.238  44.428  0.00  0.00    +0.000 NA
ATOM     38  H   UNL     1      44.951  37.139  43.019  0.00  0.00    +0.000 HD
ATOM     39  H   UNL     1      43.886  36.840  45.373  0.00  0.00    +0.000 HD
ATOM     40  H   UNL     1      44.440  34.521  46.270  0.00  0.00    +0.000 HD
ENDBRANCH  26  33
ENDBRANCH  24  25
ENDBRANCH   1  24
TORSDOF 4
