
     RDKit          3D

 47 50  0  0  0  0  0  0  0  0999 V2000
   45.7918   34.1298   41.0708 C   0  0  0  0  0  0  0  0  0  0  0  0
   46.4252   34.7547   42.1554 C   0  0  0  0  0  0  0  0  0  0  0  0
   47.7771   35.0885   41.9883 C   0  0  0  0  0  0  0  0  0  0  0  0
   48.3816   34.7887   40.7991 N   0  0  0  0  0  0  0  0  0  0  0  0
   47.7302   34.1957   39.8069 C   0  0  0  0  0  0  0  0  0  0  0  0
   46.4330   33.8632   39.9369 N   0  0  0  0  0  0  0  0  0  0  0  0
   45.6880   35.0277   43.3759 C   0  0  0  0  0  0  0  0  0  0  0  0
   45.0393   36.2447   43.6111 C   0  0  0  0  0  0  0  0  0  0  0  0
   44.4839   36.0742   44.8518 C   0  0  0  0  0  0  0  0  0  0  0  0
   44.7662   34.8576   45.3382 N   0  0  0  0  0  0  0  0  0  0  0  0
   45.4977   34.2379   44.4279 N   0  0  0  0  0  0  0  0  0  0  0  0
   44.4710   33.7998   41.2238 O   0  0  0  0  0  0  0  0  0  0  0  0
   43.3849   34.4740   40.7652 C   0  0  0  0  0  0  0  0  0  0  0  0
   43.2986   35.7252   40.5450 O   0  0  0  0  0  0  0  0  0  0  0  0
   42.0455   34.0566   40.3909 N   0  0  0  0  0  0  0  0  0  0  0  0
   41.6829   34.3325   39.0228 C   0  0  0  0  0  0  0  0  0  0  0  0
   40.8352   35.6215   39.0853 C   0  0  0  0  0  0  0  0  0  0  0  0
   40.0287   35.5382   40.3812 C   0  0  0  0  0  0  0  0  0  0  0  0
   39.7220   34.0987   40.7367 C   0  0  0  0  0  0  0  0  0  0  0  0
   41.0191   33.4075   41.1817 C   0  0  1  0  0  0  0  0  0  0  0  0
   48.2728   35.5730   42.8262 H   0  0  0  0  0  0  0  0  0  0  0  0
   48.2875   33.9940   38.8960 H   0  0  0  0  0  0  0  0  0  0  0  0
   44.9510   37.1391   43.0188 H   0  0  0  0  0  0  0  0  0  0  0  0
   43.8861   36.8401   45.3730 H   0  0  0  0  0  0  0  0  0  0  0  0
   44.4397   34.5209   46.2702 H   0  0  0  0  0  0  0  0  0  0  0  0
   42.5243   34.5698   38.3637 H   0  0  0  0  0  0  0  0  0  0  0  0
   41.0825   33.5277   38.5628 H   0  0  0  0  0  0  0  0  0  0  0  0
   40.1737   35.6764   38.1937 H   0  0  0  0  0  0  0  0  0  0  0  0
   41.4792   36.5094   39.1225 H   0  0  0  0  0  0  0  0  0  0  0  0
   40.6062   36.0448   41.2015 H   0  0  0  0  0  0  0  0  0  0  0  0
   39.0871   36.1162   40.2985 H   0  0  0  0  0  0  0  0  0  0  0  0
   39.4069   33.6073   39.7937 H   0  0  0  0  0  0  0  0  0  0  0  0
   38.9598   34.0980   41.5335 H   0  0  0  0  0  0  0  0  0  0  0  0
   41.1831   33.6910   42.2403 H   0  0  0  0  0  0  0  0  0  0  0  0
   40.9716   31.9906   40.9525 N   0  0  0  0  0  0  0  0  0  0  0  0
   39.8620   31.4523   41.7115 C   0  0  0  0  0  0  0  0  0  0  0  0
   39.5940   30.1092   41.0412 C   0  0  0  0  0  0  0  0  0  0  0  0
   39.9359   30.3187   39.5946 C   0  0  0  0  0  0  0  0  0  0  0  0
   40.6896   31.6059   39.6189 C   0  0  1  0  0  0  0  0  0  0  0  0
   40.2549   32.3971   38.9786 H   0  0  0  0  0  0  0  0  0  0  0  0
   40.1224   31.3027   42.7798 H   0  0  0  0  0  0  0  0  0  0  0  0
   38.9577   32.0798   41.5772 H   0  0  0  0  0  0  0  0  0  0  0  0
   38.5602   29.8107   41.2079 H   0  0  0  0  0  0  0  0  0  0  0  0
   40.2505   29.3398   41.5185 H   0  0  0  0  0  0  0  0  0  0  0  0
   39.0420   30.3409   38.9385 H   0  0  0  0  0  0  0  0  0  0  0  0
   40.5577   29.4484   39.2717 H   0  0  0  0  0  0  0  0  0  0  0  0
   41.6900   31.3945   39.1357 H   0  0  0  0  0  0  0  0  0  0  0  0
  1 12  1  0
  1  2  1  0
  2  7  1  0
  3  2  2  0
  4  3  1  0
  5  6  1  0
  5  4  2  0
  6  1  2  0
  7  8  1  0
  7 11  2  0
  8  9  2  0
  9 10  1  0
 11 10  1  0
 13 12  1  0
 14 13  2  0
 15 13  1  0
 15 20  1  0
 16 17  1  0
 16 15  1  0
 17 18  1  0
 18 19  1  0
 19 20  1  0
  3 21  1  0
  5 22  1  0
  8 23  1  0
  9 24  1  0
 10 25  1  0
 16 26  1  0
 16 27  1  0
 17 28  1  0
 17 29  1  0
 18 30  1  0
 18 31  1  0
 19 32  1  0
 19 33  1  0
 20 34  1  1
 35 36  1  0
 36 37  1  0
 37 38  1  0
 38 39  1  0
 39 40  1  6
 39 35  1  0
 36 41  1  0
 36 42  1  0
 37 43  1  0
 37 44  1  0
 38 45  1  0
 38 46  1  0
 39 47  1  0
 20 35  1  0
M  ISO  8  21  14  22  14  23  14  24  14  25   9  26  13  27  13  28  13
M  ISO  7  29  13  30  13  31  13  32  13  33  13  34  13  40  13
M  END
>  <DihAtoms>  (1) 
14,19,34,35

>  <DihDeg>  (1) 
63.9115841733847

$$$$
