
 OpenBabel03252508333D

 29 31  0  0  1  0  0  0  0  0999 V2000
   38.2460   30.6260   41.2050 N   0  0  0  0  0  0  0  0  0  0  0  0
   36.9750   30.7900   40.5870 C   0  0  1  0  0  0  0  0  0  0  0  0
   36.7830   32.0590   39.8470 C   0  0  0  0  0  0  0  0  0  0  0  0
   37.4100   33.2010   40.3670 N   0  0  0  0  0  0  0  0  0  0  0  0
   38.6260   33.0440   41.0330 C   0  0  0  0  0  0  0  0  0  0  0  0
   39.1980   31.6430   40.8780 C   0  0  0  0  0  0  0  0  0  0  0  0
   36.2210   30.7780   41.4180 H   0  0  0  0  0  0  0  0  0  0  0  0
   37.1680   31.9110   38.7950 H   0  0  0  0  0  0  0  0  0  0  0  0
   35.6850   32.3020   39.7760 H   0  0  0  0  0  0  0  0  0  0  0  0
   37.2830   34.0180   39.7700 H   0  0  0  0  0  0  0  0  0  0  0  0
   38.6070   33.3040   42.1180 H   0  0  0  0  0  0  0  0  0  0  0  0
   39.3980   33.7240   40.5750 H   0  0  0  0  0  0  0  0  0  0  0  0
   40.1470   31.6210   41.4110 H   0  0  0  0  0  0  0  0  0  0  0  0
   39.4950   31.6000   39.7850 H   0  0  0  0  0  0  0  0  0  0  0  0
   39.7080   28.9010   41.9660 C   0  0  0  0  0  0  0  0  0  0  0  0
   38.4640   29.5190   42.0430 C   0  0  0  0  0  0  0  0  0  0  0  0
   37.5420   28.9800   42.9280 C   0  0  0  0  0  0  0  0  0  0  0  0
   37.8600   27.8920   43.6790 N   0  0  0  0  0  0  0  0  0  0  0  0
   39.0880   27.3210   43.5690 C   0  0  0  0  0  0  0  0  0  0  0  0
   39.9990   27.8110   42.7320 N   0  0  0  0  0  0  0  0  0  0  0  0
   40.5570   29.1560   41.3520 H   0  0  0  0  0  0  0  0  0  0  0  0
   36.5840   29.4280   43.0180 H   0  0  0  0  0  0  0  0  0  0  0  0
   39.1870   26.4680   44.2280 H   0  0  0  0  0  0  0  0  0  0  0  0
   36.6500   29.6440   39.7690 N   0  0  2  0  0  0  0  0  0  0  0  0
   36.9510   29.7450   38.3930 C   0  0  0  0  0  2  0  0  0  0  0  0
   35.6260   29.5380   37.6460 C   0  0  0  0  0  2  0  0  0  0  0  0
   34.8500   28.6410   38.5920 C   0  0  0  0  0  2  0  0  0  0  0  0
   35.3010   29.1860   39.9330 C   0  0  0  0  0  3  0  0  0  0  0  0
   35.1630   28.3900   40.6830 H   0  0  0  0  0  0  0  0  0  0  0  0
  1 16  1  0  0  0  0
  2  1  1  0  0  0  0
  2  7  1  1  0  0  0
  3  4  1  0  0  0  0
  3  2  1  0  0  0  0
  4  5  1  0  0  0  0
  5 11  1  0  0  0  0
  6  5  1  0  0  0  0
  6  1  1  0  0  0  0
  6 13  1  0  0  0  0
  8  3  1  0  0  0  0
  9  3  1  0  0  0  0
 10  4  1  0  0  0  0
 12  5  1  0  0  0  0
 14  6  1  0  0  0  0
 15 16  2  0  0  0  0
 15 20  1  0  0  0  0
 16 17  1  0  0  0  0
 17 22  1  0  0  0  0
 17 18  2  0  0  0  0
 19 18  1  0  0  0  0
 19 23  1  0  0  0  0
 20 19  2  0  0  0  0
 21 15  1  0  0  0  0
 24 25  1  6  0  0  0
 24 28  1  0  0  0  0
 24  2  1  0  0  0  0
 26 25  1  0  0  0  0
 26 27  1  0  0  0  0
 27 28  1  0  0  0  0
 28 29  1  0  0  0  0
M  END
>  <minimizedAffinity>
-4.70817852

$$$$

 OpenBabel03252508333D

 29 31  0  0  1  0  0  0  0  0999 V2000
   38.1440   30.9280   40.0490 N   0  0  0  0  0  0  0  0  0  0  0  0
   38.9870   30.2440   40.9690 C   0  0  1  0  0  0  0  0  0  0  0  0
   39.5230   31.0660   42.0780 C   0  0  0  0  0  0  0  0  0  0  0  0
   39.8200   32.4070   41.7920 N   0  0  0  0  0  0  0  0  0  0  0  0
   39.0400   33.0700   40.8430 C   0  0  0  0  0  0  0  0  0  0  0  0
   37.8150   32.2670   40.4320 C   0  0  0  0  0  0  0  0  0  0  0  0
   39.8680   29.8820   40.3740 H   0  0  0  0  0  0  0  0  0  0  0  0
   38.7660   31.0590   42.9160 H   0  0  0  0  0  0  0  0  0  0  0  0
   40.4730   30.6080   42.4740 H   0  0  0  0  0  0  0  0  0  0  0  0
   40.1230   32.9220   42.6170 H   0  0  0  0  0  0  0  0  0  0  0  0
   39.5850   33.3850   39.9210 H   0  0  0  0  0  0  0  0  0  0  0  0
   38.6280   34.0180   41.2880 H   0  0  0  0  0  0  0  0  0  0  0  0
   37.2640   32.8660   39.7090 H   0  0  0  0  0  0  0  0  0  0  0  0
   37.1650   32.2860   41.3610 H   0  0  0  0  0  0  0  0  0  0  0  0
   36.3340   30.1810   38.6870 C   0  0  0  0  0  0  0  0  0  0  0  0
   37.7080   30.2610   38.8920 C   0  0  0  0  0  0  0  0  0  0  0  0
   38.5260   29.6620   37.9460 C   0  0  0  0  0  0  0  0  0  0  0  0
   37.9870   29.0270   36.8690 N   0  0  0  0  0  0  0  0  0  0  0  0
   36.6390   28.9740   36.7120 C   0  0  0  0  0  0  0  0  0  0  0  0
   35.8230   29.5380   37.5980 N   0  0  0  0  0  0  0  0  0  0  0  0
   35.5320   30.5730   39.2910 H   0  0  0  0  0  0  0  0  0  0  0  0
   39.5800   29.7070   38.0660 H   0  0  0  0  0  0  0  0  0  0  0  0
   36.3690   28.4370   35.8120 H   0  0  0  0  0  0  0  0  0  0  0  0
   38.3470   29.0450   41.4580 N   0  0  2  0  0  0  0  0  0  0  0  0
   37.2750   29.2250   42.3600 C   0  0  0  0  0  2  0  0  0  0  0  0
   37.6610   28.4770   43.6440 C   0  0  0  0  0  2  0  0  0  0  0  0
   38.5530   27.3650   43.1230 C   0  0  0  0  0  2  0  0  0  0  0  0
   39.2650   28.0800   41.9920 C   0  0  0  0  0  3  0  0  0  0  0  0
   39.6120   27.3170   41.2770 H   0  0  0  0  0  0  0  0  0  0  0  0
  1  6  1  0  0  0  0
  1  2  1  0  0  0  0
  2  7  1  6  0  0  0
  2 24  1  0  0  0  0
  2  3  1  0  0  0  0
  3  9  1  0  0  0  0
  3  8  1  0  0  0  0
  4  3  1  0  0  0  0
  4 10  1  0  0  0  0
  5 12  1  0  0  0  0
  5  4  1  0  0  0  0
  6  5  1  0  0  0  0
  6 14  1  0  0  0  0
 11  5  1  0  0  0  0
 13  6  1  0  0  0  0
 15 16  1  0  0  0  0
 15 21  1  0  0  0  0
 16  1  1  0  0  0  0
 17 22  1  0  0  0  0
 17 16  2  0  0  0  0
 18 17  1  0  0  0  0
 19 18  2  0  0  0  0
 19 20  1  0  0  0  0
 20 15  2  0  0  0  0
 23 19  1  0  0  0  0
 24 28  1  0  0  0  0
 24 25  1  1  0  0  0
 25 26  1  0  0  0  0
 27 26  1  0  0  0  0
 28 27  1  0  0  0  0
 29 28  1  0  0  0  0
M  END
>  <minimizedAffinity>
-4.3547368

$$$$

 OpenBabel03252508333D

 29 31  0  0  1  0  0  0  0  0999 V2000
   37.9350   29.1180   39.7360 N   0  0  0  0  0  0  0  0  0  0  0  0
   38.7120   30.2810   39.4750 C   0  0  1  0  0  0  0  0  0  0  0  0
   38.8140   30.6760   38.0510 C   0  0  0  0  0  0  0  0  0  0  0  0
   38.8460   29.6430   37.1040 N   0  0  0  0  0  0  0  0  0  0  0  0
   38.1400   28.4710   37.3780 C   0  0  0  0  0  0  0  0  0  0  0  0
   37.2380   28.6050   38.5960 C   0  0  0  0  0  0  0  0  0  0  0  0
   39.7520   30.0440   39.8250 H   0  0  0  0  0  0  0  0  0  0  0  0
   37.9280   31.3320   37.8070 H   0  0  0  0  0  0  0  0  0  0  0  0
   39.7460   31.2880   37.8870 H   0  0  0  0  0  0  0  0  0  0  0  0
   38.8540   29.9940   36.1470 H   0  0  0  0  0  0  0  0  0  0  0  0
   38.7700   27.5570   37.4990 H   0  0  0  0  0  0  0  0  0  0  0  0
   37.4410   28.2430   36.5240 H   0  0  0  0  0  0  0  0  0  0  0  0
   36.7190   27.6570   38.7190 H   0  0  0  0  0  0  0  0  0  0  0  0
   36.4290   29.3190   38.2460 H   0  0  0  0  0  0  0  0  0  0  0  0
   36.6490   28.3160   41.5780 C   0  0  0  0  0  0  0  0  0  0  0  0
   37.9010   28.5920   41.0380 C   0  0  0  0  0  0  0  0  0  0  0  0
   39.0070   28.3400   41.8380 C   0  0  0  0  0  0  0  0  0  0  0  0
   38.8500   27.8440   43.0950 N   0  0  0  0  0  0  0  0  0  0  0  0
   37.6070   27.5900   43.5790 C   0  0  0  0  0  0  0  0  0  0  0  0
   36.5240   27.8180   42.8420 N   0  0  0  0  0  0  0  0  0  0  0  0
   35.6750   28.4360   41.1330 H   0  0  0  0  0  0  0  0  0  0  0  0
   39.9780   28.5340   41.4580 H   0  0  0  0  0  0  0  0  0  0  0  0
   37.6500   27.2020   44.5890 H   0  0  0  0  0  0  0  0  0  0  0  0
   38.2800   31.3830   40.3030 N   0  0  2  0  0  0  0  0  0  0  0  0
   37.1290   32.0810   39.8750 C   0  0  0  0  0  2  0  0  0  0  0  0
   37.5540   33.5430   39.6910 C   0  0  0  0  0  2  0  0  0  0  0  0
   38.6800   33.6890   40.6990 C   0  0  0  0  0  2  0  0  0  0  0  0
   39.3240   32.3210   40.6020 C   0  0  0  0  0  3  0  0  0  0  0  0
   39.8640   32.1360   41.5450 H   0  0  0  0  0  0  0  0  0  0  0  0
  1 16  1  0  0  0  0
  2  1  1  0  0  0  0
  2  7  1  1  0  0  0
  2 24  1  0  0  0  0
  3  2  1  0  0  0  0
  4  5  1  0  0  0  0
  4  3  1  0  0  0  0
  5 11  1  0  0  0  0
  5  6  1  0  0  0  0
  6 13  1  0  0  0  0
  6  1  1  0  0  0  0
  8  3  1  0  0  0  0
  9  3  1  0  0  0  0
 10  4  1  0  0  0  0
 12  5  1  0  0  0  0
 14  6  1  0  0  0  0
 15 20  1  0  0  0  0
 16 15  2  0  0  0  0
 16 17  1  0  0  0  0
 17 18  2  0  0  0  0
 18 19  1  0  0  0  0
 19 23  1  0  0  0  0
 20 19  2  0  0  0  0
 21 15  1  0  0  0  0
 22 17  1  0  0  0  0
 24 25  1  6  0  0  0
 24 28  1  0  0  0  0
 26 25  1  0  0  0  0
 26 27  1  0  0  0  0
 28 27  1  0  0  0  0
 28 29  1  0  0  0  0
M  END
>  <minimizedAffinity>
-4.33569241

$$$$

 OpenBabel03252508333D

 29 31  0  0  1  0  0  0  0  0999 V2000
   36.6340   29.1110   40.3710 N   0  0  0  0  0  0  0  0  0  0  0  0
   37.3230   29.8880   39.3990 C   0  0  1  0  0  0  0  0  0  0  0  0
   36.5040   30.3550   38.2560 C   0  0  0  0  0  0  0  0  0  0  0  0
   35.4880   29.4980   37.8080 N   0  0  0  0  0  0  0  0  0  0  0  0
   34.8490   28.6830   38.7440 C   0  0  0  0  0  0  0  0  0  0  0  0
   35.2180   29.0390   40.1760 C   0  0  0  0  0  0  0  0  0  0  0  0
   38.1230   29.2220   38.9790 H   0  0  0  0  0  0  0  0  0  0  0  0
   36.0180   31.3310   38.5510 H   0  0  0  0  0  0  0  0  0  0  0  0
   37.1640   30.5590   37.3660 H   0  0  0  0  0  0  0  0  0  0  0  0
   34.9300   29.9140   37.0630 H   0  0  0  0  0  0  0  0  0  0  0  0
   35.0030   27.5860   38.5980 H   0  0  0  0  0  0  0  0  0  0  0  0
   33.7360   28.8410   38.6840 H   0  0  0  0  0  0  0  0  0  0  0  0
   34.6630   28.3680   40.8280 H   0  0  0  0  0  0  0  0  0  0  0  0
   34.7240   30.0470   40.3310 H   0  0  0  0  0  0  0  0  0  0  0  0
   38.2310   27.4800   41.0650 C   0  0  0  0  0  0  0  0  0  0  0  0
   37.3630   28.5110   41.4120 C   0  0  0  0  0  0  0  0  0  0  0  0
   37.2810   28.8460   42.7560 C   0  0  0  0  0  0  0  0  0  0  0  0
   38.0260   28.1810   43.6800 N   0  0  0  0  0  0  0  0  0  0  0  0
   38.8590   27.1800   43.2930 C   0  0  0  0  0  0  0  0  0  0  0  0
   38.9650   26.8320   42.0140 N   0  0  0  0  0  0  0  0  0  0  0  0
   38.4420   27.0680   40.0920 H   0  0  0  0  0  0  0  0  0  0  0  0
   36.6340   29.6310   43.0570 H   0  0  0  0  0  0  0  0  0  0  0  0
   39.3790   26.7520   44.1410 H   0  0  0  0  0  0  0  0  0  0  0  0
   38.0340   30.9800   40.0230 N   0  0  2  0  0  0  0  0  0  0  0  0
   37.2530   32.0700   40.4670 C   0  0  0  0  0  2  0  0  0  0  0  0
   37.7880   33.3090   39.7380 C   0  0  0  0  0  2  0  0  0  0  0  0
   39.2460   32.9550   39.5100 C   0  0  0  0  0  2  0  0  0  0  0  0
   39.1370   31.4670   39.2460 C   0  0  0  0  0  3  0  0  0  0  0  0
   40.1130   31.0110   39.4810 H   0  0  0  0  0  0  0  0  0  0  0  0
  1 16  1  0  0  0  0
  2  7  1  6  0  0  0
  2 24  1  0  0  0  0
  2  1  1  0  0  0  0
  3  8  1  0  0  0  0
  3  2  1  0  0  0  0
  4  3  1  0  0  0  0
  4  5  1  0  0  0  0
  5  6  1  0  0  0  0
  6 14  1  0  0  0  0
  6  1  1  0  0  0  0
  6 13  1  0  0  0  0
  9  3  1  0  0  0  0
 10  4  1  0  0  0  0
 11  5  1  0  0  0  0
 12  5  1  0  0  0  0
 15 16  2  0  0  0  0
 15 20  1  0  0  0  0
 16 17  1  0  0  0  0
 17 22  1  0  0  0  0
 17 18  2  0  0  0  0
 19 18  1  0  0  0  0
 19 23  1  0  0  0  0
 20 19  2  0  0  0  0
 21 15  1  0  0  0  0
 24 25  1  6  0  0  0
 26 25  1  0  0  0  0
 27 26  1  0  0  0  0
 28 29  1  0  0  0  0
 28 27  1  0  0  0  0
 28 24  1  0  0  0  0
M  END
>  <minimizedAffinity>
-4.29123545

$$$$

 OpenBabel03252508333D

 29 31  0  0  1  0  0  0  0  0999 V2000
   38.7810   30.5030   40.0600 N   0  0  0  0  0  0  0  0  0  0  0  0
   38.0950   30.3230   41.2930 C   0  0  1  0  0  0  0  0  0  0  0  0
   36.7000   30.8200   41.3280 C   0  0  0  0  0  0  0  0  0  0  0  0
   36.4170   31.9760   40.5860 N   0  0  0  0  0  0  0  0  0  0  0  0
   37.1300   32.1980   39.4070 C   0  0  0  0  0  0  0  0  0  0  0  0
   37.9610   30.9920   38.9940 C   0  0  0  0  0  0  0  0  0  0  0  0
   38.6710   30.9080   42.0580 H   0  0  0  0  0  0  0  0  0  0  0  0
   36.0260   29.9990   40.9440 H   0  0  0  0  0  0  0  0  0  0  0  0
   36.3950   31.0410   42.3900 H   0  0  0  0  0  0  0  0  0  0  0  0
   35.4270   32.2200   40.6090 H   0  0  0  0  0  0  0  0  0  0  0  0
   37.7890   33.0990   39.4160 H   0  0  0  0  0  0  0  0  0  0  0  0
   36.4110   32.3600   38.5560 H   0  0  0  0  0  0  0  0  0  0  0  0
   38.4630   31.2500   38.0630 H   0  0  0  0  0  0  0  0  0  0  0  0
   37.1810   30.2290   38.6850 H   0  0  0  0  0  0  0  0  0  0  0  0
   41.0160   30.9440   40.7660 C   0  0  0  0  0  0  0  0  0  0  0  0
   40.1480   30.1900   39.9830 C   0  0  0  0  0  0  0  0  0  0  0  0
   40.7090   29.2050   39.1830 C   0  0  0  0  0  0  0  0  0  0  0  0
   42.0540   29.0020   39.1790 N   0  0  0  0  0  0  0  0  0  0  0  0
   42.8620   29.7650   39.9610 C   0  0  0  0  0  0  0  0  0  0  0  0
   42.3610   30.7180   40.7410 N   0  0  0  0  0  0  0  0  0  0  0  0
   40.7920   31.7470   41.4490 H   0  0  0  0  0  0  0  0  0  0  0  0
   40.0770   28.6060   38.5760 H   0  0  0  0  0  0  0  0  0  0  0  0
   43.9010   29.4830   39.8450 H   0  0  0  0  0  0  0  0  0  0  0  0
   38.1790   28.9490   41.7310 N   0  0  2  0  0  0  0  0  0  0  0  0
   37.0340   28.1480   41.5220 C   0  0  0  0  0  2  0  0  0  0  0  0
   36.6100   27.6330   42.9040 C   0  0  0  0  0  2  0  0  0  0  0  0
   37.9270   27.5840   43.6570 C   0  0  0  0  0  2  0  0  0  0  0  0
   38.6230   28.8040   43.0880 C   0  0  0  0  0  3  0  0  0  0  0  0
   39.7090   28.6610   43.2130 H   0  0  0  0  0  0  0  0  0  0  0  0
  1  2  1  0  0  0  0
  2  3  1  0  0  0  0
  2 24  1  0  0  0  0
  2  7  1  1  0  0  0
  3  9  1  0  0  0  0
  4 10  1  0  0  0  0
  4  3  1  0  0  0  0
  5 11  1  0  0  0  0
  5  4  1  0  0  0  0
  6  5  1  0  0  0  0
  6  1  1  0  0  0  0
  8  3  1  0  0  0  0
 12  5  1  0  0  0  0
 13  6  1  0  0  0  0
 14  6  1  0  0  0  0
 15 21  1  0  0  0  0
 16  1  1  0  0  0  0
 16 15  2  0  0  0  0
 17 16  1  0  0  0  0
 18 17  2  0  0  0  0
 18 19  1  0  0  0  0
 19 20  2  0  0  0  0
 20 15  1  0  0  0  0
 22 17  1  0  0  0  0
 23 19  1  0  0  0  0
 24 25  1  1  0  0  0
 24 28  1  0  0  0  0
 25 26  1  0  0  0  0
 26 27  1  0  0  0  0
 28 29  1  0  0  0  0
 28 27  1  0  0  0  0
M  END
>  <minimizedAffinity>
-4.2886939

$$$$

 OpenBabel03252508333D

 29 31  0  0  1  0  0  0  0  0999 V2000
   37.4660   30.0400   39.4940 N   0  0  0  0  0  0  0  0  0  0  0  0
   36.7050   29.3830   40.5010 C   0  0  1  0  0  0  0  0  0  0  0  0
   35.6260   28.4940   40.0100 C   0  0  0  0  0  0  0  0  0  0  0  0
   34.9610   28.8870   38.8390 N   0  0  0  0  0  0  0  0  0  0  0  0
   35.6810   29.5890   37.8720 C   0  0  0  0  0  0  0  0  0  0  0  0
   37.1740   29.6120   38.1600 C   0  0  0  0  0  0  0  0  0  0  0  0
   36.2140   30.1950   41.0990 H   0  0  0  0  0  0  0  0  0  0  0  0
   36.0740   27.4740   39.8190 H   0  0  0  0  0  0  0  0  0  0  0  0
   34.8340   28.3750   40.8020 H   0  0  0  0  0  0  0  0  0  0  0  0
   34.2780   28.1960   38.5310 H   0  0  0  0  0  0  0  0  0  0  0  0
   35.3360   30.6360   37.6940 H   0  0  0  0  0  0  0  0  0  0  0  0
   35.5850   29.0690   36.8780 H   0  0  0  0  0  0  0  0  0  0  0  0
   37.6510   30.1620   37.3500 H   0  0  0  0  0  0  0  0  0  0  0  0
   37.4910   28.5370   37.9880 H   0  0  0  0  0  0  0  0  0  0  0  0
   37.9340   32.1520   40.4970 C   0  0  0  0  0  0  0  0  0  0  0  0
   38.4130   31.0060   39.8710 C   0  0  0  0  0  0  0  0  0  0  0  0
   39.7820   30.9240   39.6590 C   0  0  0  0  0  0  0  0  0  0  0  0
   40.6030   31.9340   40.0540 N   0  0  0  0  0  0  0  0  0  0  0  0
   40.0890   33.0350   40.6610 C   0  0  0  0  0  0  0  0  0  0  0  0
   38.7820   33.1490   40.8820 N   0  0  0  0  0  0  0  0  0  0  0  0
   36.9210   32.4140   40.7540 H   0  0  0  0  0  0  0  0  0  0  0  0
   40.1850   30.0620   39.1890 H   0  0  0  0  0  0  0  0  0  0  0  0
   40.8670   33.7450   40.9130 H   0  0  0  0  0  0  0  0  0  0  0  0
   37.5700   28.7000   41.4350 N   0  0  2  0  0  0  0  0  0  0  0  0
   37.5610   27.2890   41.3890 C   0  0  0  0  0  2  0  0  0  0  0  0
   37.1520   26.8140   42.7900 C   0  0  0  0  0  2  0  0  0  0  0  0
   37.6600   27.9340   43.6800 C   0  0  0  0  0  2  0  0  0  0  0  0
   37.4080   29.1360   42.7920 C   0  0  0  0  0  3  0  0  0  0  0  0
   38.0930   29.9390   43.1120 H   0  0  0  0  0  0  0  0  0  0  0  0
  1 16  1  0  0  0  0
  1  2  1  0  0  0  0
  2  7  1  1  0  0  0
  2 24  1  0  0  0  0
  3  2  1  0  0  0  0
  3  9  1  0  0  0  0
  4  3  1  0  0  0  0
  5  6  1  0  0  0  0
  5  4  1  0  0  0  0
  6  1  1  0  0  0  0
  8  3  1  0  0  0  0
 10  4  1  0  0  0  0
 11  5  1  0  0  0  0
 12  5  1  0  0  0  0
 13  6  1  0  0  0  0
 14  6  1  0  0  0  0
 15 21  1  0  0  0  0
 15 20  1  0  0  0  0
 16 15  2  0  0  0  0
 17 16  1  0  0  0  0
 17 18  2  0  0  0  0
 18 19  1  0  0  0  0
 19 20  2  0  0  0  0
 19 23  1  0  0  0  0
 22 17  1  0  0  0  0
 24 25  1  1  0  0  0
 24 28  1  0  0  0  0
 25 26  1  0  0  0  0
 26 27  1  0  0  0  0
 28 29  1  0  0  0  0
 28 27  1  0  0  0  0
M  END
>  <minimizedAffinity>
-4.28001165

$$$$

 OpenBabel03252508333D

 29 31  0  0  1  0  0  0  0  0999 V2000
   37.9340   27.1810   41.5140 N   0  0  0  0  0  0  0  0  0  0  0  0
   36.8750   27.9510   40.9570 C   0  0  1  0  0  0  0  0  0  0  0  0
   36.6780   29.2940   41.5530 C   0  0  0  0  0  0  0  0  0  0  0  0
   36.9290   29.4240   42.9260 N   0  0  0  0  0  0  0  0  0  0  0  0
   37.9220   28.6260   43.4970 C   0  0  0  0  0  0  0  0  0  0  0  0
   38.7480   27.8890   42.4540 C   0  0  0  0  0  0  0  0  0  0  0  0
   35.9340   27.3680   41.1450 H   0  0  0  0  0  0  0  0  0  0  0  0
   37.3590   30.0170   41.0140 H   0  0  0  0  0  0  0  0  0  0  0  0
   35.6180   29.6370   41.3880 H   0  0  0  0  0  0  0  0  0  0  0  0
   36.8330   30.3860   43.2490 H   0  0  0  0  0  0  0  0  0  0  0  0
   37.5580   27.8880   44.2520 H   0  0  0  0  0  0  0  0  0  0  0  0
   38.6600   29.2760   44.0450 H   0  0  0  0  0  0  0  0  0  0  0  0
   39.5010   27.3120   42.9880 H   0  0  0  0  0  0  0  0  0  0  0  0
   39.3380   28.7170   41.9530 H   0  0  0  0  0  0  0  0  0  0  0  0
   37.0950   24.9490   41.4540 C   0  0  0  0  0  0  0  0  0  0  0  0
   38.0990   25.8470   41.1070 C   0  0  0  0  0  0  0  0  0  0  0  0
   39.1830   25.3440   40.4020 C   0  0  0  0  0  0  0  0  0  0  0  0
   39.2430   24.0250   40.0760 N   0  0  0  0  0  0  0  0  0  0  0  0
   38.2380   23.1860   40.4380 C   0  0  0  0  0  0  0  0  0  0  0  0
   37.1820   23.6310   41.1130 N   0  0  0  0  0  0  0  0  0  0  0  0
   36.1790   25.1280   41.9940 H   0  0  0  0  0  0  0  0  0  0  0  0
   39.9670   26.0000   40.1150 H   0  0  0  0  0  0  0  0  0  0  0  0
   38.4320   22.1730   40.1070 H   0  0  0  0  0  0  0  0  0  0  0  0
   36.9920   28.0210   39.5190 N   0  0  2  0  0  0  0  0  0  0  0  0
   37.5820   29.1900   38.9890 C   0  0  0  0  0  2  0  0  0  0  0  0
   36.5420   29.8090   38.0460 C   0  0  0  0  0  2  0  0  0  0  0  0
   35.7630   28.5960   37.5710 C   0  0  0  0  0  2  0  0  0  0  0  0
   35.7640   27.7500   38.8290 C   0  0  0  0  0  3  0  0  0  0  0  0
   35.6180   26.7000   38.5270 H   0  0  0  0  0  0  0  0  0  0  0  0
  1  6  1  0  0  0  0
  2  7  1  1  0  0  0
  2  1  1  0  0  0  0
  2  3  1  0  0  0  0
  3  4  1  0  0  0  0
  4 10  1  0  0  0  0
  4  5  1  0  0  0  0
  5 12  1  0  0  0  0
  5 11  1  0  0  0  0
  6 13  1  0  0  0  0
  6  5  1  0  0  0  0
  8  3  1  0  0  0  0
  9  3  1  0  0  0  0
 14  6  1  0  0  0  0
 15 21  1  0  0  0  0
 16 15  2  0  0  0  0
 16  1  1  0  0  0  0
 17 16  1  0  0  0  0
 18 17  2  0  0  0  0
 18 19  1  0  0  0  0
 19 20  2  0  0  0  0
 20 15  1  0  0  0  0
 22 17  1  0  0  0  0
 23 19  1  0  0  0  0
 24 25  1  1  0  0  0
 24  2  1  0  0  0  0
 26 25  1  0  0  0  0
 27 26  1  0  0  0  0
 27 28  1  0  0  0  0
 28 24  1  0  0  0  0
 29 28  1  0  0  0  0
M  END
>  <minimizedAffinity>
-4.25347853

$$$$

 OpenBabel03252508333D

 29 31  0  0  1  0  0  0  0  0999 V2000
   39.6770   29.6350   42.0740 N   0  0  0  0  0  0  0  0  0  0  0  0
   39.2400   30.9250   41.6610 C   0  0  1  0  0  0  0  0  0  0  0  0
   40.3100   31.9330   41.4750 C   0  0  0  0  0  0  0  0  0  0  0  0
   41.4100   31.8610   42.3420 N   0  0  0  0  0  0  0  0  0  0  0  0
   41.8070   30.6070   42.8060 C   0  0  0  0  0  0  0  0  0  0  0  0
   41.0980   29.4690   42.0890 C   0  0  0  0  0  0  0  0  0  0  0  0
   38.5710   31.3040   42.4790 H   0  0  0  0  0  0  0  0  0  0  0  0
   40.7030   31.8340   40.4210 H   0  0  0  0  0  0  0  0  0  0  0  0
   39.8850   32.9710   41.5840 H   0  0  0  0  0  0  0  0  0  0  0  0
   42.1300   32.5460   42.1130 H   0  0  0  0  0  0  0  0  0  0  0  0
   41.7020   30.4550   43.9070 H   0  0  0  0  0  0  0  0  0  0  0  0
   42.9010   30.4510   42.5860 H   0  0  0  0  0  0  0  0  0  0  0  0
   41.4820   28.5380   42.5010 H   0  0  0  0  0  0  0  0  0  0  0  0
   41.5320   29.5070   41.0420 H   0  0  0  0  0  0  0  0  0  0  0  0
   38.7350   27.4800   41.6760 C   0  0  0  0  0  0  0  0  0  0  0  0
   38.7200   28.6620   42.4100 C   0  0  0  0  0  0  0  0  0  0  0  0
   37.7530   28.7840   43.3970 C   0  0  0  0  0  0  0  0  0  0  0  0
   36.8650   27.7780   43.6220 N   0  0  0  0  0  0  0  0  0  0  0  0
   36.9180   26.6420   42.8790 C   0  0  0  0  0  0  0  0  0  0  0  0
   37.8320   26.4880   41.9250 N   0  0  0  0  0  0  0  0  0  0  0  0
   39.3940   27.1840   40.8760 H   0  0  0  0  0  0  0  0  0  0  0  0
   37.7140   29.6700   43.9800 H   0  0  0  0  0  0  0  0  0  0  0  0
   36.1490   25.9410   43.1770 H   0  0  0  0  0  0  0  0  0  0  0  0
   38.3910   30.8310   40.4960 N   0  0  2  0  0  0  0  0  0  0  0  0
   39.0400   30.8120   39.2420 C   0  0  0  0  0  2  0  0  0  0  0  0
   38.4880   32.0050   38.4520 C   0  0  0  0  0  2  0  0  0  0  0  0
   37.0900   32.1600   39.0220 C   0  0  0  0  0  2  0  0  0  0  0  0
   37.3360   31.8020   40.4740 C   0  0  0  0  0  3  0  0  0  0  0  0
   36.3790   31.4650   40.9040 H   0  0  0  0  0  0  0  0  0  0  0  0
  1  6  1  0  0  0  0
  1 16  1  0  0  0  0
  2  1  1  0  0  0  0
  2  7  1  1  0  0  0
  3  9  1  0  0  0  0
  3  2  1  0  0  0  0
  3  4  1  0  0  0  0
  4  5  1  0  0  0  0
  5 11  1  0  0  0  0
  6 13  1  0  0  0  0
  6  5  1  0  0  0  0
  8  3  1  0  0  0  0
 10  4  1  0  0  0  0
 12  5  1  0  0  0  0
 14  6  1  0  0  0  0
 15 20  2  0  0  0  0
 15 16  1  0  0  0  0
 16 17  2  0  0  0  0
 17 18  1  0  0  0  0
 17 22  1  0  0  0  0
 19 23  1  0  0  0  0
 19 18  2  0  0  0  0
 20 19  1  0  0  0  0
 21 15  1  0  0  0  0
 24 25  1  6  0  0  0
 24  2  1  0  0  0  0
 26 27  1  0  0  0  0
 26 25  1  0  0  0  0
 27 28  1  0  0  0  0
 28 24  1  0  0  0  0
 28 29  1  0  0  0  0
M  END
>  <minimizedAffinity>
-4.2410326

$$$$

 OpenBabel03252508333D

 29 31  0  0  1  0  0  0  0  0999 V2000
   37.8940   30.9030   40.3080 N   0  0  0  0  0  0  0  0  0  0  0  0
   38.0130   30.5290   38.9400 C   0  0  1  0  0  0  0  0  0  0  0  0
   38.1550   31.6480   37.9810 C   0  0  0  0  0  0  0  0  0  0  0  0
   37.4640   32.8320   38.2770 N   0  0  0  0  0  0  0  0  0  0  0  0
   37.2840   33.1770   39.6170 C   0  0  0  0  0  0  0  0  0  0  0  0
   38.0940   32.2980   40.5580 C   0  0  0  0  0  0  0  0  0  0  0  0
   37.0620   29.9920   38.6810 H   0  0  0  0  0  0  0  0  0  0  0  0
   39.2520   31.9060   37.9050 H   0  0  0  0  0  0  0  0  0  0  0  0
   37.8100   31.3250   36.9580 H   0  0  0  0  0  0  0  0  0  0  0  0
   37.6600   33.5740   37.6050 H   0  0  0  0  0  0  0  0  0  0  0  0
   36.2230   33.1880   39.9630 H   0  0  0  0  0  0  0  0  0  0  0  0
   37.6690   34.2210   39.7930 H   0  0  0  0  0  0  0  0  0  0  0  0
   37.9050   32.6500   41.5710 H   0  0  0  0  0  0  0  0  0  0  0  0
   39.1640   32.6090   40.3520 H   0  0  0  0  0  0  0  0  0  0  0  0
   38.4670   29.8410   42.3660 C   0  0  0  0  0  0  0  0  0  0  0  0
   37.6150   29.9160   41.2680 C   0  0  0  0  0  0  0  0  0  0  0  0
   36.5750   29.0000   41.2090 C   0  0  0  0  0  0  0  0  0  0  0  0
   36.4120   28.0750   42.1930 N   0  0  0  0  0  0  0  0  0  0  0  0
   37.2700   28.0400   43.2450 C   0  0  0  0  0  0  0  0  0  0  0  0
   38.2790   28.9030   43.3370 N   0  0  0  0  0  0  0  0  0  0  0  0
   39.3240   30.4480   42.6030 H   0  0  0  0  0  0  0  0  0  0  0  0
   35.9010   29.0310   40.3890 H   0  0  0  0  0  0  0  0  0  0  0  0
   37.0090   27.2510   43.9400 H   0  0  0  0  0  0  0  0  0  0  0  0
   39.0570   29.5450   38.7660 N   0  0  2  0  0  0  0  0  0  0  0  0
   40.3850   30.0250   38.7790 C   0  0  0  0  0  2  0  0  0  0  0  0
   41.0030   29.6190   37.4340 C   0  0  0  0  0  2  0  0  0  0  0  0
   40.2390   28.3540   37.0880 C   0  0  0  0  0  2  0  0  0  0  0  0
   38.8640   28.6980   37.6240 C   0  0  0  0  0  3  0  0  0  0  0  0
   38.3350   27.7530   37.8260 H   0  0  0  0  0  0  0  0  0  0  0  0
  1  6  1  0  0  0  0
  1 16  1  0  0  0  0
  2  7  1  6  0  0  0
  2  1  1  0  0  0  0
  3  4  1  0  0  0  0
  3  2  1  0  0  0  0
  4  5  1  0  0  0  0
  5 12  1  0  0  0  0
  5 11  1  0  0  0  0
  5  6  1  0  0  0  0
  6 13  1  0  0  0  0
  8  3  1  0  0  0  0
  9  3  1  0  0  0  0
 10  4  1  0  0  0  0
 14  6  1  0  0  0  0
 15 21  1  0  0  0  0
 15 20  1  0  0  0  0
 16 15  2  0  0  0  0
 17 16  1  0  0  0  0
 17 18  2  0  0  0  0
 18 19  1  0  0  0  0
 19 20  2  0  0  0  0
 19 23  1  0  0  0  0
 22 17  1  0  0  0  0
 24 25  1  6  0  0  0
 24  2  1  0  0  0  0
 26 25  1  0  0  0  0
 27 26  1  0  0  0  0
 27 28  1  0  0  0  0
 28 29  1  0  0  0  0
 28 24  1  0  0  0  0
M  END
>  <minimizedAffinity>
-4.23910236

$$$$
