
 OpenBabel03252509153D

 22 24  0  0  0  0  0  0  0  0999 V2000
   45.8840   33.1160   46.2690 C   0  0  0  0  0  0  0  0  0  0  0  0
   45.3690   32.9630   47.5740 C   0  0  0  0  0  0  0  0  0  0  0  0
   45.9200   32.1190   48.4420 C   0  0  0  0  0  0  0  0  0  0  0  0
   47.0360   31.3850   48.0110 C   0  0  0  0  0  0  0  0  0  0  0  0
   47.2660   31.9600   46.2920 S   0  0  0  0  0  0  0  0  0  0  0  0
   44.5120   33.5180   47.9240 H   0  0  0  0  0  0  0  0  0  0  0  0
   45.6870   31.8660   49.4420 H   0  0  0  0  0  0  0  0  0  0  0  0
   44.2930   35.9350   44.4270 C   0  0  0  0  0  0  0  0  0  0  0  0
   44.3340   35.3990   43.1220 C   0  0  0  0  0  0  0  0  0  0  0  0
   44.8950   34.1200   42.9340 C   0  0  0  0  0  0  0  0  0  0  0  0
   45.3750   33.4590   44.0310 N   0  0  0  0  0  0  0  0  0  0  0  0
   45.3070   34.0320   45.2770 C   0  0  0  0  0  0  0  0  0  0  0  0
   44.7690   35.2620   45.4720 N   0  0  0  0  0  0  0  0  0  0  0  0
   43.8700   36.9050   44.5870 H   0  0  0  0  0  0  0  0  0  0  0  0
   43.9490   35.9360   42.2620 H   0  0  0  0  0  0  0  0  0  0  0  0
   44.9620   33.6470   41.9730 H   0  0  0  0  0  0  0  0  0  0  0  0
   48.0130   30.3500   48.5140 N   0  0  0  0  0  0  0  0  0  0  0  0
   48.2820   29.0390   47.9600 C   0  0  0  0  0  0  0  0  0  0  0  0
   49.8150   29.1140   48.0110 C   0  0  0  0  0  0  0  0  0  0  0  0
   50.0020   29.5470   49.4690 C   0  0  0  0  0  0  0  0  0  0  0  0
   48.8540   30.5490   49.6740 C   0  0  0  0  0  0  0  0  0  0  0  0
   49.2310   31.5820   49.7790 H   0  0  0  0  0  0  0  0  0  0  0  0
  1  5  1  0  0  0  0
  1  2  2  0  0  0  0
  2  6  1  0  0  0  0
  2  3  1  0  0  0  0
  3  7  1  0  0  0  0
  4  3  2  0  0  0  0
  4 17  1  0  0  0  0
  5  4  1  0  0  0  0
  8 14  1  0  0  0  0
  8 13  1  0  0  0  0
  9  8  2  0  0  0  0
 10  9  1  0  0  0  0
 10 11  2  0  0  0  0
 11 12  1  0  0  0  0
 12 13  2  0  0  0  0
 12  1  1  0  0  0  0
 15  9  1  0  0  0  0
 16 10  1  0  0  0  0
 17 21  1  0  0  0  0
 18 19  1  0  0  0  0
 18 17  1  0  0  0  0
 19 20  1  0  0  0  0
 20 21  1  0  0  0  0
 21 22  1  0  0  0  0
M  END
>  <minimizedAffinity>
-4.3922801

>  <minimizedRMSD>
0.952128947

$$$$
