
 OpenBabel03252508163D

 44 48  0  0  1  0  0  0  0  0999 V2000
   47.1240   31.0520   46.8850 C   0  0  0  0  0  0  0  0  0  0  0  0
   46.4380   30.2200   46.5740 H   0  0  0  0  0  0  0  0  0  0  0  0
   48.1380   30.7260   46.7560 H   0  0  0  0  0  0  0  0  0  0  0  0
   46.6770   31.5000   48.2300 C   0  0  1  0  0  0  0  0  0  0  0  0
   46.4120   30.3990   49.2000 C   0  0  0  0  0  0  0  0  0  0  0  0
   47.5390   31.3020   49.4090 C   0  0  1  0  0  0  0  0  0  0  0  0
   45.7890   32.2010   48.2210 H   0  0  0  0  0  0  0  0  0  0  0  0
   46.6480   29.3480   48.8970 H   0  0  0  0  0  0  0  0  0  0  0  0
   45.5570   30.4180   49.9040 H   0  0  0  0  0  0  0  0  0  0  0  0
   47.4310   32.0490   50.2240 H   0  0  0  0  0  0  0  0  0  0  0  0
   48.9490   30.8600   49.1800 C   0  0  2  0  0  0  0  0  0  0  0  0
   49.5750   30.1110   50.3830 C   0  0  0  0  0  0  0  0  0  0  0  0
   50.0310   31.4670   50.0780 C   0  0  1  0  0  0  0  0  0  0  0  0
   49.2440   30.3620   48.2380 H   0  0  0  0  0  0  0  0  0  0  0  0
   50.1690   29.2170   50.2250 H   0  0  0  0  0  0  0  0  0  0  0  0
   48.9400   30.0230   51.3110 H   0  0  0  0  0  0  0  0  0  0  0  0
   49.6610   32.3240   50.7140 H   0  0  0  0  0  0  0  0  0  0  0  0
   51.2010   31.8100   49.3380 N   0  0  1  0  0  0  0  0  0  0  0  0
   52.0550   32.7310   50.0200 C   0  0  0  0  0  0  0  0  0  0  0  0
   53.3900   32.0010   50.2080 C   0  0  0  0  0  0  0  0  0  0  0  0
   53.4350   31.2080   48.8940 C   0  0  0  0  0  0  0  0  0  0  0  0
   51.9820   30.7160   48.8750 C   0  0  0  0  0  0  0  0  0  0  0  0
   51.9660   29.8060   49.4710 H   0  0  0  0  0  0  0  0  0  0  0  0
   46.0360   33.0180   46.1730 C   0  0  0  0  0  0  0  0  0  0  0  0
   46.8770   32.1270   45.8520 C   0  0  0  0  0  0  0  0  0  0  0  0
   44.5390   35.9230   44.4690 C   0  0  0  0  0  0  0  0  0  0  0  0
   45.2020   35.9460   43.2460 C   0  0  0  0  0  0  0  0  0  0  0  0
   46.1290   34.9760   43.0510 C   0  0  0  0  0  0  0  0  0  0  0  0
   46.3700   34.0490   44.0160 N   0  0  0  0  0  0  0  0  0  0  0  0
   45.7120   34.0530   45.1890 C   0  0  0  0  0  0  0  0  0  0  0  0
   44.8090   34.9980   45.3810 N   0  0  0  0  0  0  0  0  0  0  0  0
   43.7900   36.6790   44.6680 H   0  0  0  0  0  0  0  0  0  0  0  0
   44.9930   36.6930   42.4940 H   0  0  0  0  0  0  0  0  0  0  0  0
   46.9080   34.8700   41.8160 C   0  0  0  0  0  0  0  0  0  0  0  0
   48.1180   35.4840   41.6080 C   0  0  0  0  0  0  0  0  0  0  0  0
   48.8470   35.3800   40.4420 C   0  0  0  0  0  0  0  0  0  0  0  0
   48.3560   34.6230   39.4100 C   0  0  0  0  0  0  0  0  0  0  0  0
   47.1540   33.9840   39.5520 C   0  0  0  0  0  0  0  0  0  0  0  0
   46.4640   34.1230   40.7450 C   0  0  0  0  0  0  0  0  0  0  0  0
   48.5340   36.0960   42.4180 H   0  0  0  0  0  0  0  0  0  0  0  0
   49.7990   35.8740   40.3030 H   0  0  0  0  0  0  0  0  0  0  0  0
   48.8470   34.4680   38.4400 H   0  0  0  0  0  0  0  0  0  0  0  0
   46.7200   33.3690   38.7590 H   0  0  0  0  0  0  0  0  0  0  0  0
   45.5110   33.6000   40.8210 H   0  0  0  0  0  0  0  0  0  0  0  0
  1  4  1  0  0  0  0
  2  1  1  0  0  0  0
  3  1  1  0  0  0  0
  4  7  1  1  0  0  0
  4  5  1  0  0  0  0
  4  6  1  0  0  0  0
  5  6  1  0  0  0  0
  5  9  1  0  0  0  0
  6 10  1  1  0  0  0
  8  5  1  0  0  0  0
 11 14  1  6  0  0  0
 11  6  1  0  0  0  0
 11 13  1  0  0  0  0
 11 12  1  0  0  0  0
 12 16  1  0  0  0  0
 13 12  1  0  0  0  0
 13 17  1  1  0  0  0
 15 12  1  0  0  0  0
 18 19  1  1  0  0  0
 18 13  1  0  0  0  0
 19 20  1  0  0  0  0
 21 20  1  0  0  0  0
 22 21  1  0  0  0  0
 22 18  1  0  0  0  0
 22 23  1  0  0  0  0
 25 24  2  0  0  0  0
 25  1  1  0  0  0  0
 26 32  1  0  0  0  0
 26 31  1  0  0  0  0
 27 26  2  0  0  0  0
 28 27  1  0  0  0  0
 28 29  2  0  0  0  0
 29 30  1  0  0  0  0
 30 31  2  0  0  0  0
 30 24  1  0  0  0  0
 33 27  1  0  0  0  0
 34 28  1  0  0  0  0
 35 34  1  0  0  0  0
 35 40  1  0  0  0  0
 36 35  2  0  0  0  0
 37 38  2  0  0  0  0
 37 36  1  0  0  0  0
 38 39  1  0  0  0  0
 39 44  1  0  0  0  0
 39 34  2  0  0  0  0
 41 36  1  0  0  0  0
 42 37  1  0  0  0  0
 43 38  1  0  0  0  0
M  END
>  <minimizedAffinity>
-6.3879447

>  <minimizedRMSD>
0.925291657

$$$$
