
 OpenBabel03252503183D

 36 39  0  0  0  0  0  0  0  0999 V2000
   45.5750   34.7620   41.8240 C   0  0  0  0  0  0  0  0  0  0  0  0
   46.7820   34.8940   41.4790 O   0  0  0  0  0  0  0  0  0  0  0  0
   44.4190   34.6730   40.8780 C   0  0  0  0  0  0  0  0  0  0  0  0
   43.2980   35.4510   40.8760 C   0  0  0  0  0  0  0  0  0  0  0  0
   42.5450   35.0080   39.8540 N   0  0  0  0  0  0  0  0  0  0  0  0
   43.1820   33.9900   39.2470 C   0  0  0  0  0  0  0  0  0  0  0  0
   44.3380   33.7840   39.8800 N   0  0  0  0  0  0  0  0  0  0  0  0
   42.7970   33.2050   38.1350 N   0  0  0  0  0  0  0  0  0  0  0  0
   43.0510   36.2610   41.5500 H   0  0  0  0  0  0  0  0  0  0  0  0
   43.1570   33.6410   37.2550 H   0  0  0  0  0  0  0  0  0  0  0  0
   42.2580   32.3270   38.0370 H   0  0  0  0  0  0  0  0  0  0  0  0
   41.2470   35.4870   39.4050 C   0  0  0  0  0  0  0  0  0  0  0  0
   41.3740   35.9140   38.3920 H   0  0  0  0  0  0  0  0  0  0  0  0
   41.0230   36.3670   40.0690 H   0  0  0  0  0  0  0  0  0  0  0  0
   40.1900   34.6080   39.4760 N   0  0  0  0  0  0  0  0  0  0  0  0
   39.3980   34.2990   38.3830 C   0  0  0  0  0  0  0  0  0  0  0  0
   38.4860   33.1880   38.9090 C   0  0  0  0  0  0  0  0  0  0  0  0
   38.5540   33.3440   40.4320 C   0  0  0  0  0  0  0  0  0  0  0  0
   39.9930   33.7960   40.5970 C   0  0  0  0  0  0  0  0  0  0  0  0
   40.6680   32.8990   40.5380 H   0  0  0  0  0  0  0  0  0  0  0  0
   44.7480   35.7810   43.9000 C   0  0  0  0  0  0  0  0  0  0  0  0
   45.3470   34.6990   43.2250 C   0  0  0  0  0  0  0  0  0  0  0  0
   45.6670   33.6300   44.0490 C   0  0  0  0  0  0  0  0  0  0  0  0
   45.4350   33.6120   45.3610 N   0  0  0  0  0  0  0  0  0  0  0  0
   44.8510   34.6910   45.9600 C   0  0  0  0  0  0  0  0  0  0  0  0
   44.5160   35.7590   45.2240 N   0  0  0  0  0  0  0  0  0  0  0  0
   44.4820   36.6380   43.2930 H   0  0  0  0  0  0  0  0  0  0  0  0
   44.6710   34.6570   47.0220 H   0  0  0  0  0  0  0  0  0  0  0  0
   46.2820   32.4880   43.4500 C   0  0  0  0  0  0  0  0  0  0  0  0
   47.5450   32.0210   43.3080 C   0  0  0  0  0  0  0  0  0  0  0  0
   47.8390   30.9030   42.6910 C   0  0  0  0  0  0  0  0  0  0  0  0
   46.7970   30.2260   42.1940 C   0  0  0  0  0  0  0  0  0  0  0  0
   45.3320   31.2210   42.6200 S   0  0  0  0  0  0  0  0  0  0  0  0
   48.3020   32.6890   43.7720 H   0  0  0  0  0  0  0  0  0  0  0  0
   48.8280   30.4870   42.5500 H   0  0  0  0  0  0  0  0  0  0  0  0
   46.7880   29.2140   41.6080 H   0  0  0  0  0  0  0  0  0  0  0  0
  1 22  1  0  0  0  0
  2  1  2  0  0  0  0
  3  1  1  0  0  0  0
  4  3  2  0  0  0  0
  4  9  1  0  0  0  0
  5  4  1  0  0  0  0
  6  5  1  0  0  0  0
  6  7  2  0  0  0  0
  7  3  1  0  0  0  0
  8  6  1  0  0  0  0
 10  8  1  0  0  0  0
 11  8  1  0  0  0  0
 12 15  1  0  0  0  0
 12  5  1  0  0  0  0
 12 14  1  0  0  0  0
 13 12  1  0  0  0  0
 15 19  1  0  0  0  0
 16 17  1  0  0  0  0
 16 15  1  0  0  0  0
 17 18  1  0  0  0  0
 18 19  1  0  0  0  0
 20 19  1  0  0  0  0
 21 26  1  0  0  0  0
 22 21  2  0  0  0  0
 22 23  1  0  0  0  0
 23 24  2  0  0  0  0
 24 25  1  0  0  0  0
 25 28  1  0  0  0  0
 26 25  2  0  0  0  0
 27 21  1  0  0  0  0
 29 23  1  0  0  0  0
 30 29  2  0  0  0  0
 30 34  1  0  0  0  0
 31 30  1  0  0  0  0
 32 33  1  0  0  0  0
 32 31  2  0  0  0  0
 33 29  1  0  0  0  0
 35 31  1  0  0  0  0
 36 32  1  0  0  0  0
M  END
>  <minimizedAffinity>
-5.70988226

>  <minimizedRMSD>
2.21889973

$$$$
