
 OpenBabel03242520213D

 41 44  0  0  0  0  0  0  0  0999 V2000
   39.5830   35.4510   40.2690 C   0  0  0  0  0  0  0  0  0  0  0  0
   39.6200   35.2830   41.3550 H   0  0  0  0  0  0  0  0  0  0  0  0
   38.8020   36.2460   40.1180 H   0  0  0  0  0  0  0  0  0  0  0  0
   39.0490   33.0630   40.2410 C   0  0  0  0  0  0  0  0  0  0  0  0
   39.1830   32.9400   41.4890 O   0  0  0  0  0  0  0  0  0  0  0  0
   39.1400   34.2880   39.5290 N   0  0  0  0  0  0  0  0  0  0  0  0
   38.9130   34.4000   38.5250 H   0  0  0  0  0  0  0  0  0  0  0  0
   38.7710   31.8550   39.4190 C   0  0  0  0  0  0  0  0  0  0  0  0
   38.9750   31.9060   38.0540 C   0  0  0  0  0  0  0  0  0  0  0  0
   38.7570   30.8620   37.1820 C   0  0  0  0  0  0  0  0  0  0  0  0
   38.2980   29.6890   37.7530 C   0  0  0  0  0  0  0  0  0  0  0  0
   38.1050   29.6660   39.1090 C   0  0  0  0  0  0  0  0  0  0  0  0
   38.3280   30.7080   39.9430 N   0  0  0  0  0  0  0  0  0  0  0  0
   39.3350   32.8470   37.6510 H   0  0  0  0  0  0  0  0  0  0  0  0
   38.9220   30.9240   36.1250 H   0  0  0  0  0  0  0  0  0  0  0  0
   38.1160   28.8530   37.1080 H   0  0  0  0  0  0  0  0  0  0  0  0
   37.6330   28.4710   39.7290 N   0  0  0  0  0  0  0  0  0  0  0  0
   37.2960   27.1830   39.1440 C   0  0  0  0  0  0  0  0  0  0  0  0
   38.1570   26.2790   40.0360 C   0  0  0  0  0  0  0  0  0  0  0  0
   38.2750   27.0170   41.3670 C   0  0  0  0  0  0  0  0  0  0  0  0
   37.3610   28.2280   41.1350 C   0  0  0  0  0  0  0  0  0  0  0  0
   37.5960   29.0570   41.7980 H   0  0  0  0  0  0  0  0  0  0  0  0
   40.8890   36.0220   39.7290 C   0  0  0  0  0  0  0  0  0  0  0  0
   40.8190   35.9470   38.6220 H   0  0  0  0  0  0  0  0  0  0  0  0
   40.9990   37.0740   40.0590 H   0  0  0  0  0  0  0  0  0  0  0  0
   43.8100   34.5860   41.6660 C   0  0  0  0  0  0  0  0  0  0  0  0
   42.7390   35.4400   41.2970 C   0  0  0  0  0  0  0  0  0  0  0  0
   42.0220   35.1630   40.1480 C   0  0  0  0  0  0  0  0  0  0  0  0
   42.4120   34.0530   39.4330 N   0  0  0  0  0  0  0  0  0  0  0  0
   43.4520   33.2670   39.8380 C   0  0  0  0  0  0  0  0  0  0  0  0
   44.1400   33.5350   40.9440 N   0  0  0  0  0  0  0  0  0  0  0  0
   42.4970   36.2930   41.9150 H   0  0  0  0  0  0  0  0  0  0  0  0
   43.7070   32.4160   39.2360 H   0  0  0  0  0  0  0  0  0  0  0  0
   44.5780   34.9120   42.9080 C   0  0  0  0  0  0  0  0  0  0  0  0
   46.0630   35.3160   42.5680 C   0  0  0  0  0  0  0  0  0  0  0  0
   45.0910   36.1740   43.2560 C   0  0  0  0  0  0  0  0  0  0  0  0
   44.5300   34.0600   43.6470 H   0  0  0  0  0  0  0  0  0  0  0  0
   46.3250   35.4220   41.5160 H   0  0  0  0  0  0  0  0  0  0  0  0
   46.8300   34.7560   43.1410 H   0  0  0  0  0  0  0  0  0  0  0  0
   44.7780   37.0750   42.6510 H   0  0  0  0  0  0  0  0  0  0  0  0
   45.2240   36.4510   44.3140 H   0  0  0  0  0  0  0  0  0  0  0  0
  1  2  1  0  0  0  0
  3  1  1  0  0  0  0
  4  5  2  0  0  0  0
  6  4  1  0  0  0  0
  6  1  1  0  0  0  0
  7  6  1  0  0  0  0
  8 13  1  0  0  0  0
  8  4  1  0  0  0  0
  9  8  2  0  0  0  0
 10 11  2  0  0  0  0
 10  9  1  0  0  0  0
 11 12  1  0  0  0  0
 12 17  1  0  0  0  0
 12 13  2  0  0  0  0
 14  9  1  0  0  0  0
 15 10  1  0  0  0  0
 16 11  1  0  0  0  0
 17 21  1  0  0  0  0
 18 17  1  0  0  0  0
 18 19  1  0  0  0  0
 19 20  1  0  0  0  0
 21 20  1  0  0  0  0
 21 22  1  0  0  0  0
 23 25  1  0  0  0  0
 23 28  1  0  0  0  0
 23  1  1  0  0  0  0
 24 23  1  0  0  0  0
 26 34  1  0  0  0  0
 27 26  1  0  0  0  0
 27 32  1  0  0  0  0
 28 27  2  0  0  0  0
 29 30  2  0  0  0  0
 29 28  1  0  0  0  0
 30 31  1  0  0  0  0
 31 26  2  0  0  0  0
 33 30  1  0  0  0  0
 34 36  1  0  0  0  0
 34 37  1  0  0  0  0
 35 34  1  0  0  0  0
 35 39  1  0  0  0  0
 35 36  1  0  0  0  0
 36 41  1  0  0  0  0
 38 35  1  0  0  0  0
 40 36  1  0  0  0  0
M  END
>  <minimizedAffinity>
-5.25578547

>  <minimizedRMSD>
1.52011716

$$$$
