
 OpenBabel03252509073D

 38 41  0  0  1  0  0  0  0  0999 V2000
   45.3810   35.3590   43.2050 Cl  0  0  0  0  0  0  0  0  0  0  0  0
   45.2110   34.5840   41.6550 C   0  0  0  0  0  0  0  0  0  0  0  0
   46.2930   34.1760   40.9560 C   0  0  0  0  0  0  0  0  0  0  0  0
   46.0470   33.5680   39.7300 C   0  0  0  0  0  0  0  0  0  0  0  0
   44.7780   33.3850   39.2400 C   0  0  0  0  0  0  0  0  0  0  0  0
   43.7070   33.8030   39.9620 C   0  0  0  0  0  0  0  0  0  0  0  0
   43.9330   34.4060   41.1780 C   0  0  0  0  0  0  0  0  0  0  0  0
   44.5940   32.9120   38.2850 H   0  0  0  0  0  0  0  0  0  0  0  0
   42.6860   33.6740   39.6050 H   0  0  0  0  0  0  0  0  0  0  0  0
   43.0710   34.7420   41.7580 H   0  0  0  0  0  0  0  0  0  0  0  0
   47.6380   31.8160   38.9380 C   0  0  0  0  0  0  0  0  0  0  0  0
   47.1750   33.0970   38.9420 C   0  0  0  0  0  0  0  0  0  0  0  0
   47.8070   34.0320   38.1450 C   0  0  0  0  0  0  0  0  0  0  0  0
   48.8800   33.6760   37.3640 C   0  0  0  0  0  0  0  0  0  0  0  0
   49.3660   32.3740   37.3460 C   0  0  0  0  0  0  0  0  0  0  0  0
   48.7260   31.4380   38.1500 C   0  0  0  0  0  0  0  0  0  0  0  0
   47.4560   35.0710   38.1290 H   0  0  0  0  0  0  0  0  0  0  0  0
   49.3310   34.4530   36.7630 H   0  0  0  0  0  0  0  0  0  0  0  0
   50.1970   32.0940   36.7420 H   0  0  0  0  0  0  0  0  0  0  0  0
   49.0970   30.4270   38.1400 H   0  0  0  0  0  0  0  0  0  0  0  0
   46.9020   30.6100   39.8610 S   0  0  0  0  0  0  0  0  0  0  0  0
   45.6250   30.0900   39.2460 O   0  0  0  0  0  0  0  0  0  0  0  0
   47.8800   29.4010   39.7410 O   0  0  0  0  0  0  0  0  0  0  0  0
   46.0960   28.6430   41.6820 H   0  0  0  0  0  0  0  0  0  0  0  0
   45.7010   29.5430   42.0310 N   0  0  0  0  0  0  0  0  0  0  0  0
   45.9180   29.7310   43.4520 C   0  0  0  0  0  2  0  0  0  0  0  0
   47.4100   29.5680   43.5120 C   0  0  0  0  0  2  0  0  0  0  0  0
   47.8590   29.8950   42.1280 C   0  0  0  0  0  2  0  0  0  0  0  0
   46.5990   30.5990   41.5130 C   0  0  1  0  0  3  0  0  0  0  0  0
   49.5820   35.7550   41.9160 C   0  0  0  0  0  0  0  0  0  0  0  0
   48.3060   35.5710   41.3730 C   0  0  0  0  0  0  0  0  0  0  0  0
   47.6100   34.3810   41.5050 C   0  0  0  0  0  0  0  0  0  0  0  0
   48.2600   33.4090   42.1970 N   0  0  0  0  0  0  0  0  0  0  0  0
   49.4840   33.5860   42.7180 C   0  0  0  0  0  0  0  0  0  0  0  0
   50.1350   34.7450   42.5770 N   0  0  0  0  0  0  0  0  0  0  0  0
   50.0140   36.7490   41.7340 H   0  0  0  0  0  0  0  0  0  0  0  0
   47.8050   36.3560   40.8240 H   0  0  0  0  0  0  0  0  0  0  0  0
   50.0250   32.8320   43.2730 H   0  0  0  0  0  0  0  0  0  0  0  0
  2  1  1  0  0  0  0
  3 32  1  0  0  0  0
  3  2  2  0  0  0  0
  4  3  1  0  0  0  0
  5  4  2  0  0  0  0
  5  6  1  0  0  0  0
  6  7  2  0  0  0  0
  7  2  1  0  0  0  0
  7 10  1  0  0  0  0
  8  5  1  0  0  0  0
  9  6  1  0  0  0  0
 11 12  1  0  0  0  0
 11 21  1  0  0  0  0
 12  4  1  0  0  0  0
 13 12  2  0  0  0  0
 14 13  1  0  0  0  0
 15 14  2  0  0  0  0
 15 16  1  0  0  0  0
 16 11  2  0  0  0  0
 17 13  1  0  0  0  0
 18 14  1  0  0  0  0
 19 15  1  0  0  0  0
 20 16  1  0  0  0  0
 22 21  2  0  0  0  0
 23 21  2  0  0  0  0
 24 25  1  0  0  0  0
 25 26  1  0  0  0  0
 26 27  1  0  0  0  0
 28 27  1  0  0  0  0
 29 21  1  6  0  0  0
 29 25  1  0  0  0  0
 29 28  1  0  0  0  0
 30 35  1  0  0  0  0
 31 32  1  0  0  0  0
 31 30  2  0  0  0  0
 32 33  2  0  0  0  0
 33 34  1  0  0  0  0
 34 38  1  0  0  0  0
 35 34  2  0  0  0  0
 36 30  1  0  0  0  0
 37 31  1  0  0  0  0
M  END
>  <minimizedAffinity>
-4.55702734

>  <minimizedRMSD>
0.832002461

$$$$
