
 OpenBabel03252504283D

 24 25  0  0  0  0  0  0  0  0999 V2000
   44.9140   35.9470   43.2350 C   0  0  0  0  0  0  0  0  0  0  0  0
   44.6000   36.6930   44.0430 H   0  0  0  0  0  0  0  0  0  0  0  0
   45.6250   36.4710   42.5920 H   0  0  0  0  0  0  0  0  0  0  0  0
   45.0500   34.6610   45.2340 C   0  0  0  0  0  0  0  0  0  0  0  0
   45.6080   34.8640   43.9600 C   0  0  0  0  0  0  0  0  0  0  0  0
   46.6690   34.0680   43.6220 C   0  0  0  0  0  0  0  0  0  0  0  0
   47.0730   33.1820   44.5250 N   0  0  0  0  0  0  0  0  0  0  0  0
   46.5530   32.9830   45.7300 C   0  0  0  0  0  0  0  0  0  0  0  0
   45.4750   33.7490   46.1480 N   0  0  0  0  0  0  0  0  0  0  0  0
   44.1960   35.2160   45.6550 H   0  0  0  0  0  0  0  0  0  0  0  0
   47.0350   34.2830   42.6390 H   0  0  0  0  0  0  0  0  0  0  0  0
   47.0120   32.2120   46.3370 H   0  0  0  0  0  0  0  0  0  0  0  0
   43.7990   35.5430   42.5290 O   0  0  0  0  0  0  0  0  0  0  0  0
   43.7190   35.2670   41.1870 C   0  0  0  0  0  0  0  0  0  0  0  0
   42.4830   35.2960   40.6420 C   0  0  0  0  0  0  0  0  0  0  0  0
   42.1060   35.1070   39.1960 C   0  0  0  0  0  0  0  0  0  0  0  0
   42.1790   34.0120   38.9980 H   0  0  0  0  0  0  0  0  0  0  0  0
   42.8310   35.6200   38.5470 H   0  0  0  0  0  0  0  0  0  0  0  0
   40.7650   35.4960   38.9010 N   0  0  0  0  0  0  0  0  0  0  0  0
   40.2840   34.5890   37.8560 C   0  0  0  0  0  0  0  0  0  0  0  0
   38.8660   34.2250   38.2200 C   0  0  0  0  0  0  0  0  0  0  0  0
   38.8320   34.3530   39.7250 C   0  0  0  0  0  0  0  0  0  0  0  0
   39.9600   35.2700   40.0700 C   0  0  0  0  0  0  0  0  0  0  0  0
   40.5460   34.7720   40.8880 H   0  0  0  0  0  0  0  0  0  0  0  0
  1  5  1  0  0  0  0
  1  2  1  0  0  0  0
  3  1  1  0  0  0  0
  4 10  1  0  0  0  0
  4  9  1  0  0  0  0
  5  4  2  0  0  0  0
  6  5  1  0  0  0  0
  6  7  2  0  0  0  0
  7  8  1  0  0  0  0
  8  9  2  0  0  0  0
  8 12  1  0  0  0  0
 11  6  1  0  0  0  0
 13  1  1  0  0  0  0
 14 13  1  0  0  0  0
 15 14  2  0  0  0  0
 16 15  1  0  0  0  0
 17 16  1  0  0  0  0
 18 16  1  0  0  0  0
 19 16  1  0  0  0  0
 19 23  1  0  0  0  0
 20 21  1  0  0  0  0
 20 19  1  0  0  0  0
 21 22  1  0  0  0  0
 22 23  1  0  0  0  0
 23 24  1  0  0  0  0
M  END
>  <minimizedAffinity>
-4.79058313

>  <minimizedRMSD>
2.31855893

$$$$
