REMARK  Name = 
REMARK  4 active torsions:
REMARK  status: ('A' for Active; 'I' for Inactive)
REMARK    1  A    between atoms: C_3  and  C_10
REMARK    2  A    between atoms: C_4  and  C_15
REMARK    3  A    between atoms: C_14  and  S_20
REMARK    4  A    between atoms: S_20  and  C_38
REMARK                            x       y       z     vdW  Elec       q    Type
REMARK                         _______ _______ _______ _____ _____    ______ ____
ROOT
ATOM      1 CL   UNL     1      45.286  35.293  43.121  0.00  0.00    +0.000 Cl
ATOM      2  C   UNL     1      45.169  34.537  41.556  0.00  0.00    +0.000 A 
ATOM      3  C   UNL     1      46.275  34.155  40.881  0.00  0.00    +0.000 A 
ATOM      4  C   UNL     1      46.071  33.561  39.640  0.00  0.00    +0.000 A 
ATOM      5  C   UNL     1      44.818  33.366  39.114  0.00  0.00    +0.000 A 
ATOM      6  C   UNL     1      43.722  33.758  39.813  0.00  0.00    +0.000 A 
ATOM      7  C   UNL     1      43.907  34.347  41.043  0.00  0.00    +0.000 A 
ATOM      8  H   UNL     1      44.666  32.904  38.148  0.00  0.00    +0.000 HD
ATOM      9  H   UNL     1      42.713  33.619  39.427  0.00  0.00    +0.000 HD
ATOM     10  H   UNL     1      43.025  34.662  41.604  0.00  0.00    +0.000 HD
ENDROOT
BRANCH   4  12
ATOM     11  C   UNL     1      47.802  31.887  38.983  0.00  0.00    +0.000 A 
ATOM     12  C   UNL     1      47.226  33.117  38.876  0.00  0.00    +0.000 A 
ATOM     13  C   UNL     1      47.761  34.023  37.981  0.00  0.00    +0.000 A 
ATOM     14  C   UNL     1      48.852  33.690  37.215  0.00  0.00    +0.000 A 
ATOM     15  C   UNL     1      49.452  32.440  37.309  0.00  0.00    +0.000 A 
ATOM     16  C   UNL     1      48.909  31.533  38.211  0.00  0.00    +0.000 A 
ATOM     17  H   UNL     1      47.319  35.021  37.875  0.00  0.00    +0.000 HD
ATOM     18  H   UNL     1      49.224  34.442  36.534  0.00  0.00    +0.000 HD
ATOM     19  H   UNL     1      50.297  32.177  36.716  0.00  0.00    +0.000 HD
ATOM     20  H   UNL     1      49.369  30.562  38.289  0.00  0.00    +0.000 HD
BRANCH  11  21
ATOM     21  S   UNL     1      47.189  30.715  40.031  0.00  0.00    +0.000 S 
ATOM     22  O   UNL     1      46.782  29.444  39.325  0.00  0.00    +0.000 OA
ATOM     23  O   UNL     1      48.429  30.282  40.871  0.00  0.00    +0.000 OA
BRANCH  21  29
ATOM     24  H   UNL     1      46.912  29.691  42.621  0.00  0.00    +0.000 HD
ATOM     25  N   UNL     1      45.945  29.820  42.254  0.00  0.00    +0.000 NA
ATOM     26  C   UNL     1      45.070  30.474  43.208  0.00  0.00    +0.000 C 
ATOM     27  C   UNL     1      45.869  31.715  43.485  0.00  0.00    +0.000 C 
ATOM     28  C   UNL     1      46.727  31.864  42.275  0.00  0.00    +0.000 C 
ATOM     29  C   UNL     1      46.042  30.898  41.245  0.00  0.00    +0.000 C 
ENDBRANCH  21  29
ENDBRANCH  11  21
ENDBRANCH   4  12
BRANCH   3  32
ATOM     30  C   UNL     1      49.545  35.743  41.889  0.00  0.00    +0.000 A 
ATOM     31  C   UNL     1      48.287  35.548  41.309  0.00  0.00    +0.000 A 
ATOM     32  C   UNL     1      47.574  34.371  41.467  0.00  0.00    +0.000 A 
ATOM     33  N   UNL     1      48.188  33.424  42.224  0.00  0.00    +0.000 NA
ATOM     34  C   UNL     1      49.395  33.612  42.780  0.00  0.00    +0.000 A 
ATOM     35  N   UNL     1      50.063  34.758  42.613  0.00  0.00    +0.000 NA
ATOM     36  H   UNL     1      49.994  36.724  41.680  0.00  0.00    +0.000 HD
ATOM     37  H   UNL     1      47.814  36.313  40.709  0.00  0.00    +0.000 HD
ATOM     38  H   UNL     1      49.907  32.878  43.387  0.00  0.00    +0.000 HD
ENDBRANCH   3  32
TORSDOF 4
