
 OpenBabel03252506193D

 20 21  0  0  0  0  0  0  0  0999 V2000
   37.4520   28.6840   42.1320 C   0  0  0  0  0  0  0  0  0  0  0  0
   36.2100   28.2150   41.6580 C   0  0  0  0  0  0  0  0  0  0  0  0
   35.5500   28.9960   40.6970 C   0  0  0  0  0  0  0  0  0  0  0  0
   36.1310   30.1450   40.2770 N   0  0  0  0  0  0  0  0  0  0  0  0
   37.3300   30.5680   40.7540 C   0  0  0  0  0  0  0  0  0  0  0  0
   37.9530   29.8260   41.6650 N   0  0  0  0  0  0  0  0  0  0  0  0
   35.7430   27.3000   41.9910 H   0  0  0  0  0  0  0  0  0  0  0  0
   34.5950   28.7210   40.2740 H   0  0  0  0  0  0  0  0  0  0  0  0
   37.8860   31.7760   40.2770 N   0  0  0  0  0  0  0  0  0  0  0  0
   39.1710   32.3360   40.7160 C   0  0  0  0  0  2  0  0  0  0  0  0
   39.2160   33.7280   40.1500 C   0  0  0  0  0  2  0  0  0  0  0  0
   37.7260   34.0180   39.9250 C   0  0  0  0  0  2  0  0  0  0  0  0
   37.3230   32.6790   39.2930 C   0  0  0  0  0  3  0  0  0  0  0  0
   37.8840   32.5210   38.3530 H   0  0  0  0  0  0  0  0  0  0  0  0
   38.1470   27.8760   43.1360 C   0  0  0  0  0  3  0  0  0  0  0  0
   39.1330   27.0860   42.7340 C   0  0  0  0  0  3  0  0  0  0  0  0
   39.8920   26.2330   43.6800 C   0  0  0  0  0  0  0  0  0  0  0  0
   39.9680   26.7660   44.6530 H   0  0  0  0  0  0  0  0  0  0  0  0
   39.4140   25.2270   43.7880 H   0  0  0  0  0  0  0  0  0  0  0  0
   40.9010   26.0460   43.2260 H   0  0  0  0  0  0  0  0  0  0  0  0
  1 15  1  0  0  0  0
  2  7  1  0  0  0  0
  2  1  2  0  0  0  0
  3  2  1  0  0  0  0
  4  3  2  0  0  0  0
  4  5  1  0  0  0  0
  5  6  2  0  0  0  0
  6  1  1  0  0  0  0
  8  3  1  0  0  0  0
  9 10  1  0  0  0  0
  9  5  1  0  0  0  0
 11 10  1  0  0  0  0
 12 11  1  0  0  0  0
 13 12  1  0  0  0  0
 13  9  1  0  0  0  0
 14 13  1  0  0  0  0
 16 15  2  0  0  0  0
 16 17  1  0  0  0  0
 17 19  1  0  0  0  0
 17 18  1  0  0  0  0
 20 17  1  0  0  0  0
M  END
>  <minimizedAffinity>
-4.51887178

$$$$

 OpenBabel03252506193D

 20 21  0  0  0  0  0  0  0  0999 V2000
   37.2110   26.8130   42.2650 C   0  0  0  0  0  0  0  0  0  0  0  0
   37.5510   27.3960   43.5040 C   0  0  0  0  0  0  0  0  0  0  0  0
   37.6160   28.7970   43.5590 C   0  0  0  0  0  0  0  0  0  0  0  0
   37.3530   29.5090   42.4380 N   0  0  0  0  0  0  0  0  0  0  0  0
   37.0280   28.9150   41.2620 C   0  0  0  0  0  0  0  0  0  0  0  0
   36.9670   27.5880   41.2110 N   0  0  0  0  0  0  0  0  0  0  0  0
   37.7620   26.8320   44.3990 H   0  0  0  0  0  0  0  0  0  0  0  0
   37.8670   29.3360   44.4610 H   0  0  0  0  0  0  0  0  0  0  0  0
   36.7630   29.7120   40.1260 N   0  0  0  0  0  0  0  0  0  0  0  0
   36.4030   29.1870   38.8010 C   0  0  0  0  0  2  0  0  0  0  0  0
   36.4810   30.3650   37.8690 C   0  0  0  0  0  2  0  0  0  0  0  0
   37.4140   31.3080   38.6390 C   0  0  0  0  0  2  0  0  0  0  0  0
   36.7920   31.1580   40.0350 C   0  0  0  0  0  3  0  0  0  0  0  0
   35.7410   31.5010   40.0190 H   0  0  0  0  0  0  0  0  0  0  0  0
   37.1410   25.3520   42.1980 C   0  0  0  0  0  3  0  0  0  0  0  0
   37.7240   24.7410   41.1760 C   0  0  0  0  0  3  0  0  0  0  0  0
   37.7050   23.2670   41.0250 C   0  0  0  0  0  0  0  0  0  0  0  0
   37.7360   22.8090   42.0380 H   0  0  0  0  0  0  0  0  0  0  0  0
   36.8110   22.9330   40.4410 H   0  0  0  0  0  0  0  0  0  0  0  0
   38.5980   22.9810   40.4090 H   0  0  0  0  0  0  0  0  0  0  0  0
  1  2  1  0  0  0  0
  2  3  2  0  0  0  0
  2  7  1  0  0  0  0
  3  8  1  0  0  0  0
  4  3  1  0  0  0  0
  5  4  2  0  0  0  0
  6  5  1  0  0  0  0
  6  1  2  0  0  0  0
  9  5  1  0  0  0  0
 10  9  1  0  0  0  0
 11 12  1  0  0  0  0
 11 10  1  0  0  0  0
 12 13  1  0  0  0  0
 13  9  1  0  0  0  0
 14 13  1  0  0  0  0
 15  1  1  0  0  0  0
 16 15  2  0  0  0  0
 17 16  1  0  0  0  0
 17 18  1  0  0  0  0
 19 17  1  0  0  0  0
 20 17  1  0  0  0  0
M  END
>  <minimizedAffinity>
-4.40187359

$$$$

 OpenBabel03252506193D

 20 21  0  0  0  0  0  0  0  0999 V2000
   36.9770   30.8300   40.6800 C   0  0  0  0  0  0  0  0  0  0  0  0
   35.7290   30.2920   40.3010 C   0  0  0  0  0  0  0  0  0  0  0  0
   35.4430   28.9800   40.7090 C   0  0  0  0  0  0  0  0  0  0  0  0
   36.3650   28.3060   41.4360 N   0  0  0  0  0  0  0  0  0  0  0  0
   37.5570   28.8540   41.7840 C   0  0  0  0  0  0  0  0  0  0  0  0
   37.8260   30.0970   41.3960 N   0  0  0  0  0  0  0  0  0  0  0  0
   34.9920   30.8260   39.7210 H   0  0  0  0  0  0  0  0  0  0  0  0
   34.5150   28.4810   40.4690 H   0  0  0  0  0  0  0  0  0  0  0  0
   38.4780   28.1000   42.5440 N   0  0  0  0  0  0  0  0  0  0  0  0
   39.7960   28.5820   42.9800 C   0  0  0  0  0  2  0  0  0  0  0  0
   40.5100   27.3710   43.5140 C   0  0  0  0  0  2  0  0  0  0  0  0
   39.7510   26.2330   42.8180 C   0  0  0  0  0  2  0  0  0  0  0  0
   38.3200   26.7450   43.0330 C   0  0  0  0  0  3  0  0  0  0  0  0
   38.1040   26.8160   44.1150 H   0  0  0  0  0  0  0  0  0  0  0  0
   37.2850   32.1980   40.2570 C   0  0  0  0  0  3  0  0  0  0  0  0
   38.4000   32.7580   40.7040 C   0  0  0  0  0  3  0  0  0  0  0  0
   38.7920   34.1370   40.3290 C   0  0  0  0  0  0  0  0  0  0  0  0
   38.4510   34.3300   39.2880 H   0  0  0  0  0  0  0  0  0  0  0  0
   38.3790   34.8840   41.0520 H   0  0  0  0  0  0  0  0  0  0  0  0
   39.9080   34.2050   40.4220 H   0  0  0  0  0  0  0  0  0  0  0  0
  1  6  1  0  0  0  0
  2  1  2  0  0  0  0
  2  3  1  0  0  0  0
  3  4  2  0  0  0  0
  4  5  1  0  0  0  0
  5  9  1  0  0  0  0
  6  5  2  0  0  0  0
  7  2  1  0  0  0  0
  8  3  1  0  0  0  0
  9 10  1  0  0  0  0
  9 13  1  0  0  0  0
 10 11  1  0  0  0  0
 12 13  1  0  0  0  0
 12 11  1  0  0  0  0
 13 14  1  0  0  0  0
 15  1  1  0  0  0  0
 15 16  2  0  0  0  0
 17 20  1  0  0  0  0
 17 16  1  0  0  0  0
 17 19  1  0  0  0  0
 18 17  1  0  0  0  0
M  END
>  <minimizedAffinity>
-4.37657642

$$$$

 OpenBabel03252506193D

 20 21  0  0  0  0  0  0  0  0999 V2000
   37.0050   30.3510   38.4900 C   0  0  0  0  0  0  0  0  0  0  0  0
   37.0480   31.6960   38.9120 C   0  0  0  0  0  0  0  0  0  0  0  0
   37.1770   31.9350   40.2890 C   0  0  0  0  0  0  0  0  0  0  0  0
   37.2530   30.8790   41.1320 N   0  0  0  0  0  0  0  0  0  0  0  0
   37.2090   29.5950   40.6920 C   0  0  0  0  0  0  0  0  0  0  0  0
   37.0860   29.3710   39.3870 N   0  0  0  0  0  0  0  0  0  0  0  0
   36.9870   32.5410   38.2430 H   0  0  0  0  0  0  0  0  0  0  0  0
   37.2190   32.9300   40.7090 H   0  0  0  0  0  0  0  0  0  0  0  0
   37.2930   28.5340   41.6210 N   0  0  0  0  0  0  0  0  0  0  0  0
   37.2570   27.1080   41.2680 C   0  0  0  0  0  2  0  0  0  0  0  0
   37.1100   26.3760   42.5730 C   0  0  0  0  0  2  0  0  0  0  0  0
   36.5160   27.4670   43.4740 C   0  0  0  0  0  2  0  0  0  0  0  0
   37.4280   28.6300   43.0610 C   0  0  0  0  0  3  0  0  0  0  0  0
   38.4800   28.3880   43.3020 H   0  0  0  0  0  0  0  0  0  0  0  0
   36.8700   30.0920   37.0560 C   0  0  0  0  0  3  0  0  0  0  0  0
   35.8420   29.3640   36.6430 C   0  0  0  0  0  3  0  0  0  0  0  0
   35.6250   29.0510   35.2100 C   0  0  0  0  0  0  0  0  0  0  0  0
   35.9730   29.9160   34.6040 H   0  0  0  0  0  0  0  0  0  0  0  0
   36.1410   28.1010   34.9220 H   0  0  0  0  0  0  0  0  0  0  0  0
   34.5280   28.8580   35.0710 H   0  0  0  0  0  0  0  0  0  0  0  0
  1  2  2  0  0  0  0
  1  6  1  0  0  0  0
  2  3  1  0  0  0  0
  3  8  1  0  0  0  0
  3  4  2  0  0  0  0
  5  4  1  0  0  0  0
  5  9  1  0  0  0  0
  6  5  2  0  0  0  0
  7  2  1  0  0  0  0
  9 13  1  0  0  0  0
 10  9  1  0  0  0  0
 10 11  1  0  0  0  0
 11 12  1  0  0  0  0
 13 14  1  0  0  0  0
 13 12  1  0  0  0  0
 15  1  1  0  0  0  0
 16 15  2  0  0  0  0
 17 16  1  0  0  0  0
 18 17  1  0  0  0  0
 19 17  1  0  0  0  0
 20 17  1  0  0  0  0
M  END
>  <minimizedAffinity>
-4.35607386

$$$$

 OpenBabel03252506193D

 20 21  0  0  0  0  0  0  0  0999 V2000
   38.0080   27.9170   42.2060 C   0  0  0  0  0  0  0  0  0  0  0  0
   39.2340   27.7370   42.8790 C   0  0  0  0  0  0  0  0  0  0  0  0
   40.1180   28.8270   42.9090 C   0  0  0  0  0  0  0  0  0  0  0  0
   39.7560   29.9790   42.2980 N   0  0  0  0  0  0  0  0  0  0  0  0
   38.5670   30.1180   41.6580 C   0  0  0  0  0  0  0  0  0  0  0  0
   37.7310   29.0850   41.6310 N   0  0  0  0  0  0  0  0  0  0  0  0
   39.5270   26.8200   43.3670 H   0  0  0  0  0  0  0  0  0  0  0  0
   41.0800   28.7880   43.4000 H   0  0  0  0  0  0  0  0  0  0  0  0
   38.2450   31.3470   41.0390 N   0  0  0  0  0  0  0  0  0  0  0  0
   36.9930   31.6180   40.3180 C   0  0  0  0  0  2  0  0  0  0  0  0
   37.2090   32.9320   39.6200 C   0  0  0  0  0  2  0  0  0  0  0  0
   38.7410   32.9990   39.5550 C   0  0  0  0  0  2  0  0  0  0  0  0
   39.0530   32.5490   40.9890 C   0  0  0  0  0  3  0  0  0  0  0  0
   38.6140   33.2620   41.7120 H   0  0  0  0  0  0  0  0  0  0  0  0
   37.0800   26.7850   42.1690 C   0  0  0  0  0  3  0  0  0  0  0  0
   37.5520   25.5960   41.8230 C   0  0  0  0  0  3  0  0  0  0  0  0
   36.6860   24.3940   41.7600 C   0  0  0  0  0  0  0  0  0  0  0  0
   35.9110   24.4750   42.5530 H   0  0  0  0  0  0  0  0  0  0  0  0
   36.2360   24.2750   40.7420 H   0  0  0  0  0  0  0  0  0  0  0  0
   37.3450   23.4980   41.9090 H   0  0  0  0  0  0  0  0  0  0  0  0
  1  2  1  0  0  0  0
  2  3  2  0  0  0  0
  2  7  1  0  0  0  0
  3  8  1  0  0  0  0
  4  3  1  0  0  0  0
  5  4  2  0  0  0  0
  6  5  1  0  0  0  0
  6  1  2  0  0  0  0
  9  5  1  0  0  0  0
 10  9  1  0  0  0  0
 11 10  1  0  0  0  0
 12 11  1  0  0  0  0
 12 13  1  0  0  0  0
 13  9  1  0  0  0  0
 13 14  1  0  0  0  0
 15  1  1  0  0  0  0
 16 15  2  0  0  0  0
 17 16  1  0  0  0  0
 17 20  1  0  0  0  0
 17 18  1  0  0  0  0
 19 17  1  0  0  0  0
M  END
>  <minimizedAffinity>
-4.35083151

$$$$

 OpenBabel03252506193D

 20 21  0  0  0  0  0  0  0  0999 V2000
   38.6570   31.4850   41.0490 C   0  0  0  0  0  0  0  0  0  0  0  0
   37.3840   31.8990   40.6050 C   0  0  0  0  0  0  0  0  0  0  0  0
   36.3080   31.0260   40.8300 C   0  0  0  0  0  0  0  0  0  0  0  0
   36.5420   29.8480   41.4520 N   0  0  0  0  0  0  0  0  0  0  0  0
   37.7810   29.4800   41.8670 C   0  0  0  0  0  0  0  0  0  0  0  0
   38.7990   30.3080   41.6530 N   0  0  0  0  0  0  0  0  0  0  0  0
   37.1940   32.8380   40.1070 H   0  0  0  0  0  0  0  0  0  0  0  0
   35.2960   31.2540   40.5270 H   0  0  0  0  0  0  0  0  0  0  0  0
   37.9630   28.2360   42.5120 N   0  0  0  0  0  0  0  0  0  0  0  0
   39.2500   27.7280   43.0050 C   0  0  0  0  0  2  0  0  0  0  0  0
   39.0040   26.2890   43.3640 C   0  0  0  0  0  2  0  0  0  0  0  0
   37.7630   25.9690   42.5200 C   0  0  0  0  0  2  0  0  0  0  0  0
   36.9520   27.2400   42.8100 C   0  0  0  0  0  3  0  0  0  0  0  0
   36.7380   27.3120   43.8930 H   0  0  0  0  0  0  0  0  0  0  0  0
   39.7850   32.3890   40.8180 C   0  0  0  0  0  3  0  0  0  0  0  0
   39.7300   33.2110   39.7800 C   0  0  0  0  0  3  0  0  0  0  0  0
   40.8250   34.1610   39.4690 C   0  0  0  0  0  0  0  0  0  0  0  0
   41.2770   34.5030   40.4250 H   0  0  0  0  0  0  0  0  0  0  0  0
   41.5820   33.6950   38.7890 H   0  0  0  0  0  0  0  0  0  0  0  0
   40.3770   35.0120   38.8900 H   0  0  0  0  0  0  0  0  0  0  0  0
  1  6  1  0  0  0  0
  2  3  1  0  0  0  0
  2  1  2  0  0  0  0
  3  4  2  0  0  0  0
  4  5  1  0  0  0  0
  5  9  1  0  0  0  0
  6  5  2  0  0  0  0
  7  2  1  0  0  0  0
  8  3  1  0  0  0  0
  9 13  1  0  0  0  0
  9 10  1  0  0  0  0
 10 11  1  0  0  0  0
 12 13  1  0  0  0  0
 12 11  1  0  0  0  0
 13 14  1  0  0  0  0
 15  1  1  0  0  0  0
 16 15  2  0  0  0  0
 17 16  1  0  0  0  0
 17 18  1  0  0  0  0
 19 17  1  0  0  0  0
 20 17  1  0  0  0  0
M  END
>  <minimizedAffinity>
-4.25112152

$$$$

 OpenBabel03252506193D

 20 21  0  0  0  0  0  0  0  0999 V2000
   38.6500   32.2590   40.1670 C   0  0  0  0  0  0  0  0  0  0  0  0
   37.9100   32.2920   38.9670 C   0  0  0  0  0  0  0  0  0  0  0  0
   36.9510   31.2850   38.7750 C   0  0  0  0  0  0  0  0  0  0  0  0
   36.7870   30.3460   39.7360 N   0  0  0  0  0  0  0  0  0  0  0  0
   37.5170   30.3430   40.8800 C   0  0  0  0  0  0  0  0  0  0  0  0
   38.4250   31.2980   41.0600 N   0  0  0  0  0  0  0  0  0  0  0  0
   38.0380   33.0390   38.1990 H   0  0  0  0  0  0  0  0  0  0  0  0
   36.3340   31.2260   37.8890 H   0  0  0  0  0  0  0  0  0  0  0  0
   37.3000   29.3370   41.8460 N   0  0  0  0  0  0  0  0  0  0  0  0
   38.0250   29.2280   43.1190 C   0  0  0  0  0  2  0  0  0  0  0  0
   37.6540   27.8830   43.6800 C   0  0  0  0  0  2  0  0  0  0  0  0
   37.2060   27.1350   42.4170 C   0  0  0  0  0  2  0  0  0  0  0  0
   36.3520   28.2430   41.7840 C   0  0  0  0  0  3  0  0  0  0  0  0
   35.5140   28.5030   42.4570 H   0  0  0  0  0  0  0  0  0  0  0  0
   39.6530   33.3050   40.3760 C   0  0  0  0  0  3  0  0  0  0  0  0
   40.9240   32.9440   40.4880 C   0  0  0  0  0  3  0  0  0  0  0  0
   42.0070   33.9340   40.7010 C   0  0  0  0  0  0  0  0  0  0  0  0
   41.7400   34.8690   40.1640 H   0  0  0  0  0  0  0  0  0  0  0  0
   42.1820   34.1110   41.7920 H   0  0  0  0  0  0  0  0  0  0  0  0
   42.9560   33.4820   40.3080 H   0  0  0  0  0  0  0  0  0  0  0  0
  1 15  1  0  0  0  0
  1  6  1  0  0  0  0
  2  1  2  0  0  0  0
  3  2  1  0  0  0  0
  3  4  2  0  0  0  0
  4  5  1  0  0  0  0
  5  6  2  0  0  0  0
  5  9  1  0  0  0  0
  7  2  1  0  0  0  0
  8  3  1  0  0  0  0
  9 10  1  0  0  0  0
 10 11  1  0  0  0  0
 12 11  1  0  0  0  0
 13  9  1  0  0  0  0
 13 12  1  0  0  0  0
 13 14  1  0  0  0  0
 15 16  2  0  0  0  0
 16 17  1  0  0  0  0
 17 19  1  0  0  0  0
 18 17  1  0  0  0  0
 20 17  1  0  0  0  0
M  END
>  <minimizedAffinity>
-4.21254778

$$$$

 OpenBabel03252506193D

 20 21  0  0  0  0  0  0  0  0999 V2000
   38.1850   25.2090   42.0870 C   0  0  0  0  0  0  0  0  0  0  0  0
   39.2930   25.3890   42.9410 C   0  0  0  0  0  0  0  0  0  0  0  0
   39.6060   26.7030   43.3210 C   0  0  0  0  0  0  0  0  0  0  0  0
   38.8410   27.7180   42.8560 N   0  0  0  0  0  0  0  0  0  0  0  0
   37.7800   27.5100   42.0340 C   0  0  0  0  0  0  0  0  0  0  0  0
   37.4850   26.2640   41.6760 N   0  0  0  0  0  0  0  0  0  0  0  0
   39.9060   24.5830   43.3130 H   0  0  0  0  0  0  0  0  0  0  0  0
   40.4350   26.9430   43.9710 H   0  0  0  0  0  0  0  0  0  0  0  0
   37.0190   28.6100   41.5820 N   0  0  0  0  0  0  0  0  0  0  0  0
   35.8520   28.5120   40.6940 C   0  0  0  0  0  2  0  0  0  0  0  0
   35.5430   29.9240   40.2810 C   0  0  0  0  0  2  0  0  0  0  0  0
   36.8900   30.6180   40.5200 C   0  0  0  0  0  2  0  0  0  0  0  0
   37.2230   30.0110   41.8900 C   0  0  0  0  0  3  0  0  0  0  0  0
   36.4480   30.2960   42.6260 H   0  0  0  0  0  0  0  0  0  0  0  0
   37.8510   23.8410   41.6850 C   0  0  0  0  0  3  0  0  0  0  0  0
   38.4580   23.3320   40.6230 C   0  0  0  0  0  3  0  0  0  0  0  0
   38.1830   21.9560   40.1430 C   0  0  0  0  0  0  0  0  0  0  0  0
   37.9710   21.3120   41.0240 H   0  0  0  0  0  0  0  0  0  0  0  0
   37.3440   21.9480   39.4030 H   0  0  0  0  0  0  0  0  0  0  0  0
   39.0910   21.6100   39.5810 H   0  0  0  0  0  0  0  0  0  0  0  0
  1  2  1  0  0  0  0
  2  7  1  0  0  0  0
  2  3  2  0  0  0  0
  3  8  1  0  0  0  0
  4  3  1  0  0  0  0
  5  4  2  0  0  0  0
  6  5  1  0  0  0  0
  6  1  2  0  0  0  0
  9 13  1  0  0  0  0
  9  5  1  0  0  0  0
 10  9  1  0  0  0  0
 11 12  1  0  0  0  0
 11 10  1  0  0  0  0
 12 13  1  0  0  0  0
 13 14  1  0  0  0  0
 15  1  1  0  0  0  0
 16 15  2  0  0  0  0
 17 16  1  0  0  0  0
 17 18  1  0  0  0  0
 19 17  1  0  0  0  0
 20 17  1  0  0  0  0
M  END
>  <minimizedAffinity>
-4.1114006

$$$$

 OpenBabel03252506193D

 20 21  0  0  0  0  0  0  0  0999 V2000
   36.8720   29.5170   41.0520 C   0  0  0  0  0  0  0  0  0  0  0  0
   37.4040   29.6060   42.3550 C   0  0  0  0  0  0  0  0  0  0  0  0
   37.7570   28.4060   42.9900 C   0  0  0  0  0  0  0  0  0  0  0  0
   37.5710   27.2380   42.3310 N   0  0  0  0  0  0  0  0  0  0  0  0
   37.0560   27.1880   41.0750 C   0  0  0  0  0  0  0  0  0  0  0  0
   36.7230   28.3270   40.4750 N   0  0  0  0  0  0  0  0  0  0  0  0
   37.5530   30.5350   42.8840 H   0  0  0  0  0  0  0  0  0  0  0  0
   38.1710   28.3700   43.9870 H   0  0  0  0  0  0  0  0  0  0  0  0
   36.8870   25.9390   40.4380 N   0  0  0  0  0  0  0  0  0  0  0  0
   36.3420   25.7560   39.0860 C   0  0  0  0  0  2  0  0  0  0  0  0
   36.1050   24.2780   38.9450 C   0  0  0  0  0  2  0  0  0  0  0  0
   36.0090   23.8390   40.4120 C   0  0  0  0  0  2  0  0  0  0  0  0
   37.2040   24.6280   40.9670 C   0  0  0  0  0  3  0  0  0  0  0  0
   38.1360   24.2970   40.4730 H   0  0  0  0  0  0  0  0  0  0  0  0
   36.5010   30.7650   40.3810 C   0  0  0  0  0  3  0  0  0  0  0  0
   37.4250   31.7060   40.2480 C   0  0  0  0  0  3  0  0  0  0  0  0
   37.1410   33.0000   39.5830 C   0  0  0  0  0  0  0  0  0  0  0  0
   36.4060   32.8230   38.7680 H   0  0  0  0  0  0  0  0  0  0  0  0
   36.7770   33.7600   40.3200 H   0  0  0  0  0  0  0  0  0  0  0  0
   38.1140   33.3960   39.1900 H   0  0  0  0  0  0  0  0  0  0  0  0
  1  2  1  0  0  0  0
  2  7  1  0  0  0  0
  2  3  2  0  0  0  0
  3  8  1  0  0  0  0
  4  3  1  0  0  0  0
  5  4  2  0  0  0  0
  6  1  2  0  0  0  0
  6  5  1  0  0  0  0
  9 13  1  0  0  0  0
  9  5  1  0  0  0  0
 10  9  1  0  0  0  0
 11 10  1  0  0  0  0
 11 12  1  0  0  0  0
 12 13  1  0  0  0  0
 14 13  1  0  0  0  0
 15  1  1  0  0  0  0
 16 15  2  0  0  0  0
 17 16  1  0  0  0  0
 17 19  1  0  0  0  0
 18 17  1  0  0  0  0
 20 17  1  0  0  0  0
M  END
>  <minimizedAffinity>
-4.03430986

$$$$
