
 OpenBabel03252509083D

 38 41  0  0  1  0  0  0  0  0999 V2000
   44.9230   35.2730   42.9140 Cl  0  0  0  0  0  0  0  0  0  0  0  0
   44.9750   33.7590   42.0540 C   0  0  0  0  0  0  0  0  0  0  0  0
   46.1340   33.2810   41.5510 C   0  0  0  0  0  0  0  0  0  0  0  0
   46.0660   32.0640   40.8820 C   0  0  0  0  0  0  0  0  0  0  0  0
   44.8900   31.3710   40.7310 C   0  0  0  0  0  0  0  0  0  0  0  0
   43.7380   31.8720   41.2480 C   0  0  0  0  0  0  0  0  0  0  0  0
   43.7890   33.0760   41.9130 C   0  0  0  0  0  0  0  0  0  0  0  0
   44.8430   30.4250   40.2090 H   0  0  0  0  0  0  0  0  0  0  0  0
   42.7880   31.3500   41.1480 H   0  0  0  0  0  0  0  0  0  0  0  0
   42.8630   33.4780   42.3280 H   0  0  0  0  0  0  0  0  0  0  0  0
   47.6920   31.6320   39.0380 C   0  0  0  0  0  0  0  0  0  0  0  0
   47.2860   31.4960   40.3320 C   0  0  0  0  0  0  0  0  0  0  0  0
   48.0780   30.7710   41.2020 C   0  0  0  0  0  0  0  0  0  0  0  0
   49.2500   30.1990   40.7710 C   0  0  0  0  0  0  0  0  0  0  0  0
   49.6820   30.3280   39.4560 C   0  0  0  0  0  0  0  0  0  0  0  0
   48.8810   31.0580   38.5860 C   0  0  0  0  0  0  0  0  0  0  0  0
   47.7750   30.6440   42.2480 H   0  0  0  0  0  0  0  0  0  0  0  0
   49.8250   29.6450   41.4990 H   0  0  0  0  0  0  0  0  0  0  0  0
   50.5910   29.8880   39.1180 H   0  0  0  0  0  0  0  0  0  0  0  0
   49.2100   31.1630   37.5650 H   0  0  0  0  0  0  0  0  0  0  0  0
   46.7970   32.5260   37.9230 S   0  0  0  0  0  0  0  0  0  0  0  0
   45.6920   33.3330   38.5610 O   0  0  0  0  0  0  0  0  0  0  0  0
   47.7990   33.6130   37.4270 O   0  0  0  0  0  0  0  0  0  0  0  0
   46.0380   33.8320   35.5650 H   0  0  0  0  0  0  0  0  0  0  0  0
   45.3970   33.0160   35.6660 N   0  0  0  0  0  0  0  0  0  0  0  0
   45.2500   32.2690   34.4320 C   0  0  0  0  0  2  0  0  0  0  0  0
   46.6910   31.9740   34.1340 C   0  0  0  0  0  2  0  0  0  0  0  0
   47.3580   32.0640   35.4640 C   0  0  0  0  0  2  0  0  0  0  0  0
   46.1440   32.0180   36.4610 C   0  0  1  0  0  3  0  0  0  0  0  0
   48.9840   35.6940   41.0110 C   0  0  0  0  0  0  0  0  0  0  0  0
   47.8030   34.9680   40.8160 C   0  0  0  0  0  0  0  0  0  0  0  0
   47.3500   34.0340   41.7330 C   0  0  0  0  0  0  0  0  0  0  0  0
   48.1370   33.8750   42.8290 N   0  0  0  0  0  0  0  0  0  0  0  0
   49.2690   34.5720   43.0150 C   0  0  0  0  0  0  0  0  0  0  0  0
   49.6850   35.4690   42.1150 N   0  0  0  0  0  0  0  0  0  0  0  0
   49.2210   36.4000   40.2030 H   0  0  0  0  0  0  0  0  0  0  0  0
   47.1900   35.1070   39.9370 H   0  0  0  0  0  0  0  0  0  0  0  0
   49.9140   34.4670   43.8770 H   0  0  0  0  0  0  0  0  0  0  0  0
  2  1  1  0  0  0  0
  3 32  1  0  0  0  0
  3  2  2  0  0  0  0
  4  3  1  0  0  0  0
  5  4  2  0  0  0  0
  5  6  1  0  0  0  0
  6  7  2  0  0  0  0
  7  2  1  0  0  0  0
  7 10  1  0  0  0  0
  8  5  1  0  0  0  0
  9  6  1  0  0  0  0
 11 12  1  0  0  0  0
 12  4  1  0  0  0  0
 12 13  2  0  0  0  0
 13 17  1  0  0  0  0
 14 13  1  0  0  0  0
 14 18  1  0  0  0  0
 15 14  2  0  0  0  0
 16 11  2  0  0  0  0
 16 15  1  0  0  0  0
 19 15  1  0  0  0  0
 20 16  1  0  0  0  0
 21 22  2  0  0  0  0
 21 11  1  0  0  0  0
 23 21  2  0  0  0  0
 24 25  1  0  0  0  0
 25 29  1  0  0  0  0
 26 25  1  0  0  0  0
 27 26  1  0  0  0  0
 27 28  1  0  0  0  0
 28 29  1  0  0  0  0
 29 21  1  1  0  0  0
 30 35  1  0  0  0  0
 31 30  2  0  0  0  0
 31 32  1  0  0  0  0
 32 33  2  0  0  0  0
 33 34  1  0  0  0  0
 34 38  1  0  0  0  0
 35 34  2  0  0  0  0
 36 30  1  0  0  0  0
 37 31  1  0  0  0  0
M  END
>  <minimizedAffinity>
-4.7365675

>  <minimizedRMSD>
3.72661924

$$$$
