
     RDKit          3D

 31 33  0  0  0  0  0  0  0  0999 V2000
   44.6362   35.4587   45.1302 C   0  0  0  0  0  0  0  0  0  0  0  0
   45.0987   35.7196   43.7967 C   0  0  0  0  0  0  0  0  0  0  0  0
   46.0385   34.8235   43.3566 C   0  0  0  0  0  0  0  0  0  0  0  0
   46.4916   33.7660   44.1456 N   0  0  0  0  0  0  0  0  0  0  0  0
   46.0123   33.5885   45.3805 C   0  0  0  0  0  0  0  0  0  0  0  0
   45.0751   34.4404   45.8819 N   0  0  0  0  0  0  0  0  0  0  0  0
   46.5349   34.9768   41.9285 C   0  0  1  0  0  0  0  0  0  0  0  0
   48.0581   35.2826   41.9418 C   0  0  0  0  0  0  0  0  0  0  0  0
   47.3909   33.9727   41.4078 C   0  0  2  0  0  0  0  0  0  0  0  0
   44.6468   36.8122   43.0182 N   0  0  0  0  0  0  0  0  0  0  0  0
   43.9002   36.1252   45.5287 H   0  0  0  0  0  0  0  0  0  0  0  0
   46.4859   32.7232   45.8210 H   0  0  0  0  0  0  0  0  0  0  0  0
   45.9426   35.7077   41.3562 H   0  0  0  0  0  0  0  0  0  0  0  0
   48.6170   35.1840   42.8681 H   0  0  0  0  0  0  0  0  0  0  0  0
   48.3413   36.0242   41.2019 H   0  0  0  0  0  0  0  0  0  0  0  0
   47.5885   33.0751   42.0708 H   0  0  0  0  0  0  0  0  0  0  0  0
   43.8579   36.8427   42.3434 H   0  0  0  0  0  0  0  0  0  0  0  0
   45.3881   37.4636   43.4046 H   0  0  0  0  0  0  0  0  0  0  0  0
   47.7078   33.7381   40.0375 N   0  0  0  0  0  0  0  0  0  0  0  0
   49.1367   33.5428   39.9148 C   0  0  0  0  0  0  0  0  0  0  0  0
   49.3672   32.0508   39.8682 C   0  0  0  0  0  0  0  0  0  0  0  0
   48.0164   31.4480   40.1616 C   0  0  0  0  0  0  0  0  0  0  0  0
   47.1098   32.5061   39.5467 C   0  0  1  0  0  0  0  0  0  0  0  0
   46.0669   32.3996   39.8400 H   0  0  0  0  0  0  0  0  0  0  0  0
   49.7032   33.9219   40.7938 H   0  0  0  0  0  0  0  0  0  0  0  0
   49.5522   34.0507   39.0219 H   0  0  0  0  0  0  0  0  0  0  0  0
   49.6148   31.7776   38.8147 H   0  0  0  0  0  0  0  0  0  0  0  0
   50.1526   31.7150   40.5554 H   0  0  0  0  0  0  0  0  0  0  0  0
   47.8723   30.4652   39.7057 H   0  0  0  0  0  0  0  0  0  0  0  0
   47.9176   31.3748   41.2603 H   0  0  0  0  0  0  0  0  0  0  0  0
   47.2740   32.4487   38.4589 H   0  0  0  0  0  0  0  0  0  0  0  0
  1  6  2  0
  2  1  1  0
  3  2  2  0
  3  4  1  0
  4  5  2  0
  5  6  1  0
  7  3  1  0
  8  7  1  0
  9  8  1  0
  9  7  1  0
 10  2  1  0
  1 11  1  0
  5 12  1  0
  7 13  1  6
  8 14  1  0
  8 15  1  0
  9 16  1  1
 10 17  1  0
 10 18  1  0
 19 20  1  0
 20 21  1  0
 21 22  1  0
 22 23  1  0
 23 24  1  6
 23 19  1  0
 20 25  1  0
 20 26  1  0
 21 27  1  0
 21 28  1  0
 22 29  1  0
 22 30  1  0
 23 31  1  0
  9 19  1  0
M  ISO  7  11  14  12  14  13  13  14  13  15  13  16  13  24  13
M  END
>  <DihAtoms>  (1) 
7,8,18,19

>  <DihDeg>  (1) 
107.98968560443237

$$$$
