
 OpenBabel03242521323D

 28 31  0  0  0  0  0  0  0  0999 V2000
   47.8860   35.2250   41.9500 C   0  0  0  0  0  0  0  0  0  0  0  0
   46.6220   34.6990   42.0760 C   0  0  0  0  0  0  0  0  0  0  0  0
   46.0630   34.0650   40.9780 C   0  0  0  0  0  0  0  0  0  0  0  0
   46.7190   33.9390   39.7650 C   0  0  0  0  0  0  0  0  0  0  0  0
   46.3890   33.3790   38.5840 N   0  0  0  0  0  0  0  0  0  0  0  0
   47.4240   33.5450   37.7240 C   0  0  0  0  0  0  0  0  0  0  0  0
   48.3980   34.2160   38.3880 N   0  0  0  0  0  0  0  0  0  0  0  0
   47.9950   34.4730   39.6490 C   0  0  0  0  0  0  0  0  0  0  0  0
   48.5690   35.1090   40.7330 C   0  0  0  0  0  0  0  0  0  0  0  0
   48.4020   35.7370   42.7530 H   0  0  0  0  0  0  0  0  0  0  0  0
   45.0670   33.6540   41.0880 H   0  0  0  0  0  0  0  0  0  0  0  0
   45.4970   32.8930   38.3450 H   0  0  0  0  0  0  0  0  0  0  0  0
   47.5370   33.2370   36.6930 H   0  0  0  0  0  0  0  0  0  0  0  0
   49.5670   35.5280   40.6460 H   0  0  0  0  0  0  0  0  0  0  0  0
   44.4800   35.8890   44.9380 C   0  0  0  0  0  0  0  0  0  0  0  0
   45.0740   35.8740   43.6460 C   0  0  0  0  0  0  0  0  0  0  0  0
   45.9430   34.8400   43.3570 C   0  0  0  0  0  0  0  0  0  0  0  0
   46.1920   33.8990   44.2920 N   0  0  0  0  0  0  0  0  0  0  0  0
   45.6100   33.9360   45.5200 C   0  0  0  0  0  0  0  0  0  0  0  0
   44.7680   34.9240   45.8220 N   0  0  0  0  0  0  0  0  0  0  0  0
   43.7970   36.6870   45.1880 H   0  0  0  0  0  0  0  0  0  0  0  0
   44.8770   36.6140   42.9120 H   0  0  0  0  0  0  0  0  0  0  0  0
   45.9060   32.9170   46.4730 N   0  0  0  0  0  0  0  0  0  0  0  0
   45.1570   32.6420   47.6830 C   0  0  0  0  0  0  0  0  0  0  0  0
   46.2620   32.3620   48.6800 C   0  0  0  0  0  0  0  0  0  0  0  0
   47.3810   31.8080   47.8570 C   0  0  0  0  0  0  0  0  0  0  0  0
   47.0110   31.9760   46.3990 C   0  0  0  0  0  0  0  0  0  0  0  0
   46.6150   31.0180   46.0100 H   0  0  0  0  0  0  0  0  0  0  0  0
  1  2  1  0  0  0  0
  1 10  1  0  0  0  0
  2 17  1  0  0  0  0
  3 11  1  0  0  0  0
  3  2  2  0  0  0  0
  4  3  1  0  0  0  0
  5  4  1  0  0  0  0
  6  7  2  0  0  0  0
  6  5  1  0  0  0  0
  7  8  1  0  0  0  0
  8  4  2  0  0  0  0
  8  9  1  0  0  0  0
  9  1  2  0  0  0  0
 12  5  1  0  0  0  0
 13  6  1  0  0  0  0
 14  9  1  0  0  0  0
 15 21  1  0  0  0  0
 15 20  1  0  0  0  0
 16 15  2  0  0  0  0
 17 16  1  0  0  0  0
 17 18  2  0  0  0  0
 18 19  1  0  0  0  0
 19 20  2  0  0  0  0
 19 23  1  0  0  0  0
 22 16  1  0  0  0  0
 23 24  1  0  0  0  0
 24 25  1  0  0  0  0
 26 25  1  0  0  0  0
 27 23  1  0  0  0  0
 27 26  1  0  0  0  0
 28 27  1  0  0  0  0
M  END
>  <minimizedAffinity>
-7.10993052

>  <minimizedRMSD>
0.0799194723

$$$$
