
     RDKit          3D

 31 33  0  0  0  0  0  0  0  0999 V2000
   44.6362   35.4587   45.1302 C   0  0  0  0  0  0  0  0  0  0  0  0
   45.0987   35.7196   43.7967 C   0  0  0  0  0  0  0  0  0  0  0  0
   46.0385   34.8235   43.3566 C   0  0  0  0  0  0  0  0  0  0  0  0
   46.4916   33.7660   44.1456 N   0  0  0  0  0  0  0  0  0  0  0  0
   46.0123   33.5885   45.3805 C   0  0  0  0  0  0  0  0  0  0  0  0
   45.0751   34.4404   45.8819 N   0  0  0  0  0  0  0  0  0  0  0  0
   46.5349   34.9768   41.9285 C   0  0  1  0  0  0  0  0  0  0  0  0
   48.0581   35.2826   41.9418 C   0  0  0  0  0  0  0  0  0  0  0  0
   47.3909   33.9727   41.4078 C   0  0  2  0  0  0  0  0  0  0  0  0
   44.6468   36.8122   43.0182 N   0  0  0  0  0  0  0  0  0  0  0  0
   43.9002   36.1252   45.5287 H   0  0  0  0  0  0  0  0  0  0  0  0
   46.4859   32.7232   45.8210 H   0  0  0  0  0  0  0  0  0  0  0  0
   45.9426   35.7077   41.3562 H   0  0  0  0  0  0  0  0  0  0  0  0
   48.6170   35.1840   42.8681 H   0  0  0  0  0  0  0  0  0  0  0  0
   48.3413   36.0242   41.2019 H   0  0  0  0  0  0  0  0  0  0  0  0
   47.5885   33.0751   42.0708 H   0  0  0  0  0  0  0  0  0  0  0  0
   43.8579   36.8427   42.3434 H   0  0  0  0  0  0  0  0  0  0  0  0
   45.3881   37.4636   43.4046 H   0  0  0  0  0  0  0  0  0  0  0  0
   47.7078   33.7381   40.0375 N   0  0  0  0  0  0  0  0  0  0  0  0
   48.8754   32.8857   39.9669 C   0  0  0  0  0  0  0  0  0  0  0  0
   48.3722   31.4805   39.7357 C   0  0  0  0  0  0  0  0  0  0  0  0
   46.8742   31.5855   39.8739 C   0  0  0  0  0  0  0  0  0  0  0  0
   46.6544   33.0012   39.3567 C   0  0  1  0  0  0  0  0  0  0  0  0
   45.6612   33.3883   39.5769 H   0  0  0  0  0  0  0  0  0  0  0  0
   49.4527   32.8614   40.9174 H   0  0  0  0  0  0  0  0  0  0  0  0
   49.5786   33.2060   39.1726 H   0  0  0  0  0  0  0  0  0  0  0  0
   48.5751   31.2175   38.6702 H   0  0  0  0  0  0  0  0  0  0  0  0
   48.8217   30.7454   40.4136 H   0  0  0  0  0  0  0  0  0  0  0  0
   46.3316   30.8418   39.2849 H   0  0  0  0  0  0  0  0  0  0  0  0
   46.6313   31.4710   40.9464 H   0  0  0  0  0  0  0  0  0  0  0  0
   46.8910   32.9693   38.2812 H   0  0  0  0  0  0  0  0  0  0  0  0
  1  6  2  0
  2  1  1  0
  3  2  2  0
  3  4  1  0
  4  5  2  0
  5  6  1  0
  7  3  1  0
  8  7  1  0
  9  8  1  0
  9  7  1  0
 10  2  1  0
  1 11  1  0
  5 12  1  0
  7 13  1  6
  8 14  1  0
  8 15  1  0
  9 16  1  1
 10 17  1  0
 10 18  1  0
 19 20  1  0
 20 21  1  0
 21 22  1  0
 22 23  1  0
 23 24  1  6
 23 19  1  0
 20 25  1  0
 20 26  1  0
 21 27  1  0
 21 28  1  0
 22 29  1  0
 22 30  1  0
 23 31  1  0
  9 19  1  0
M  ISO  7  11  14  12  14  13  13  14  13  15  13  16  13  24  13
M  END
>  <DihAtoms>  (1) 
7,8,18,19

>  <DihDeg>  (1) 
107.98968560443237

$$$$
