
 OpenBabel03252509223D

 24 26  0  0  1  0  0  0  0  0999 V2000
   46.5470   34.9660   41.9350 C   0  0  1  0  0  0  0  0  0  0  0  0
   48.0510   35.3570   41.9560 C   0  0  0  0  0  0  0  0  0  0  0  0
   47.4630   34.0020   41.4420 C   0  0  2  0  0  0  0  0  0  0  0  0
   45.9210   35.6510   41.3430 H   0  0  0  0  0  0  0  0  0  0  0  0
   48.6050   35.3080   42.8890 H   0  0  0  0  0  0  0  0  0  0  0  0
   48.2990   36.0980   41.2040 H   0  0  0  0  0  0  0  0  0  0  0  0
   47.7050   33.1290   42.1250 H   0  0  0  0  0  0  0  0  0  0  0  0
   44.6330   35.4450   45.1280 C   0  0  0  0  0  0  0  0  0  0  0  0
   45.1000   35.7060   43.7960 C   0  0  0  0  0  0  0  0  0  0  0  0
   46.0460   34.8130   43.3620 C   0  0  0  0  0  0  0  0  0  0  0  0
   46.5020   33.7590   44.1550 N   0  0  0  0  0  0  0  0  0  0  0  0
   46.0180   33.5820   45.3870 C   0  0  0  0  0  0  0  0  0  0  0  0
   45.0750   34.4300   45.8840 N   0  0  0  0  0  0  0  0  0  0  0  0
   43.8930   36.1080   45.5230 H   0  0  0  0  0  0  0  0  0  0  0  0
   46.4940   32.7200   45.8320 H   0  0  0  0  0  0  0  0  0  0  0  0
   44.6460   36.7940   43.0140 N   0  0  0  0  0  0  0  0  0  0  0  0
   43.8600   36.8200   42.3350 H   0  0  0  0  0  0  0  0  0  0  0  0
   45.3820   37.4500   43.4020 H   0  0  0  0  0  0  0  0  0  0  0  0
   47.8070   33.7580   40.0800 N   0  0  1  0  0  0  0  0  0  0  0  0
   48.7200   32.6360   40.0210 C   0  0  0  0  0  2  0  0  0  0  0  0
   47.8910   31.4230   39.6720 C   0  0  0  0  0  2  0  0  0  0  0  0
   46.4640   31.9070   39.7310 C   0  0  0  0  0  2  0  0  0  0  0  0
   46.6510   33.3530   39.2940 C   0  0  0  0  0  3  0  0  0  0  0  0
   45.7770   33.9740   39.4810 H   0  0  0  0  0  0  0  0  0  0  0  0
  1  4  1  6  0  0  0
  1  2  1  0  0  0  0
  1 10  1  0  0  0  0
  2  5  1  0  0  0  0
  3  1  1  0  0  0  0
  3  2  1  0  0  0  0
  3  7  1  1  0  0  0
  6  2  1  0  0  0  0
  8 14  1  0  0  0  0
  8 13  1  0  0  0  0
  9  8  2  0  0  0  0
 10  9  1  0  0  0  0
 10 11  2  0  0  0  0
 11 12  1  0  0  0  0
 12 15  1  0  0  0  0
 12 13  2  0  0  0  0
 16 18  1  0  0  0  0
 16  9  1  0  0  0  0
 17 16  1  0  0  0  0
 19 20  1  1  0  0  0
 19  3  1  0  0  0  0
 21 22  1  0  0  0  0
 21 20  1  0  0  0  0
 23 24  1  0  0  0  0
 23 22  1  0  0  0  0
 23 19  1  0  0  0  0
M  END
>  <minimizedAffinity>
-4.45998764

>  <minimizedRMSD>
1.13868427

$$$$
