
 OpenBabel03252504293D

 24 25  0  0  0  0  0  0  0  0999 V2000
   37.2330   31.7270   40.6260 C   0  0  0  0  0  0  0  0  0  0  0  0
   36.8590   32.8010   40.5080 H   0  0  0  0  0  0  0  0  0  0  0  0
   36.5570   31.2420   41.3340 H   0  0  0  0  0  0  0  0  0  0  0  0
   37.7240   31.8710   38.3010 C   0  0  0  0  0  0  0  0  0  0  0  0
   37.0740   31.1150   39.2920 C   0  0  0  0  0  0  0  0  0  0  0  0
   36.4150   29.9920   38.8720 C   0  0  0  0  0  0  0  0  0  0  0  0
   36.4480   29.7210   37.5720 N   0  0  0  0  0  0  0  0  0  0  0  0
   37.0590   30.4280   36.6290 C   0  0  0  0  0  0  0  0  0  0  0  0
   37.7490   31.5800   36.9740 N   0  0  0  0  0  0  0  0  0  0  0  0
   38.2960   32.7970   38.4740 H   0  0  0  0  0  0  0  0  0  0  0  0
   35.9480   29.4730   39.6840 H   0  0  0  0  0  0  0  0  0  0  0  0
   36.9810   30.0550   35.6150 H   0  0  0  0  0  0  0  0  0  0  0  0
   38.5300   31.7450   41.0990 O   0  0  0  0  0  0  0  0  0  0  0  0
   39.3520   30.6670   41.3160 C   0  0  0  0  0  3  0  0  0  0  0  0
   39.0310   29.8710   42.3590 C   0  0  0  0  0  3  0  0  0  0  0  0
   39.7030   28.5910   42.7850 C   0  0  0  0  0  0  0  0  0  0  0  0
   40.5210   28.8890   43.4820 H   0  0  0  0  0  0  0  0  0  0  0  0
   40.1590   28.0960   41.9150 H   0  0  0  0  0  0  0  0  0  0  0  0
   38.8420   27.7080   43.5050 N   0  0  0  0  0  0  0  0  0  0  0  0
   37.5690   28.4110   43.6790 C   0  0  0  0  0  2  0  0  0  0  0  0
   36.4800   27.3970   43.4310 C   0  0  0  0  0  2  0  0  0  0  0  0
   37.1140   26.4030   42.4880 C   0  0  0  0  0  2  0  0  0  0  0  0
   38.5880   26.5540   42.6860 C   0  0  0  0  0  3  0  0  0  0  0  0
   39.0450   26.6610   41.6650 H   0  0  0  0  0  0  0  0  0  0  0  0
  1 13  1  0  0  0  0
  1  3  1  0  0  0  0
  2  1  1  0  0  0  0
  4 10  1  0  0  0  0
  4  5  1  0  0  0  0
  5  1  1  0  0  0  0
  6  5  2  0  0  0  0
  6 11  1  0  0  0  0
  7  6  1  0  0  0  0
  8  9  1  0  0  0  0
  8  7  2  0  0  0  0
  9  4  2  0  0  0  0
 12  8  1  0  0  0  0
 13 14  1  0  0  0  0
 14 15  2  0  0  0  0
 15 16  1  0  0  0  0
 16 17  1  0  0  0  0
 16 19  1  0  0  0  0
 18 16  1  0  0  0  0
 19 20  1  0  0  0  0
 21 20  1  0  0  0  0
 22 23  1  0  0  0  0
 22 21  1  0  0  0  0
 23 19  1  0  0  0  0
 24 23  1  0  0  0  0
M  END
>  <minimizedAffinity>
-4.12482119

$$$$

 OpenBabel03252504293D

 24 25  0  0  0  0  0  0  0  0999 V2000
   36.5600   30.8160   39.6250 C   0  0  0  0  0  0  0  0  0  0  0  0
   35.7360   31.1930   38.9270 H   0  0  0  0  0  0  0  0  0  0  0  0
   37.1440   30.0940   39.0490 H   0  0  0  0  0  0  0  0  0  0  0  0
   38.5130   31.6630   40.6910 C   0  0  0  0  0  0  0  0  0  0  0  0
   37.3900   32.0030   39.9160 C   0  0  0  0  0  0  0  0  0  0  0  0
   37.2500   33.3230   39.5860 C   0  0  0  0  0  0  0  0  0  0  0  0
   38.1810   34.1600   40.0270 N   0  0  0  0  0  0  0  0  0  0  0  0
   39.2450   33.8510   40.7600 C   0  0  0  0  0  0  0  0  0  0  0  0
   39.4590   32.5330   41.1360 N   0  0  0  0  0  0  0  0  0  0  0  0
   38.7690   30.6500   41.0390 H   0  0  0  0  0  0  0  0  0  0  0  0
   36.3740   33.4980   38.9950 H   0  0  0  0  0  0  0  0  0  0  0  0
   39.9040   34.6660   41.0300 H   0  0  0  0  0  0  0  0  0  0  0  0
   35.9860   30.2310   40.7350 O   0  0  0  0  0  0  0  0  0  0  0  0
   35.8900   28.8890   41.0110 C   0  0  0  0  0  3  0  0  0  0  0  0
   37.0510   28.2410   41.2420 C   0  0  0  0  0  3  0  0  0  0  0  0
   37.2420   26.7990   41.6370 C   0  0  0  0  0  0  0  0  0  0  0  0
   37.9390   26.3620   40.8840 H   0  0  0  0  0  0  0  0  0  0  0  0
   36.2860   26.2600   41.5700 H   0  0  0  0  0  0  0  0  0  0  0  0
   37.8530   26.6350   42.9170 N   0  0  0  0  0  0  0  0  0  0  0  0
   38.7840   25.5100   42.7970 C   0  0  0  0  0  2  0  0  0  0  0  0
   40.0340   25.9040   43.5420 C   0  0  0  0  0  2  0  0  0  0  0  0
   40.0500   27.4120   43.4570 C   0  0  0  0  0  2  0  0  0  0  0  0
   38.6320   27.8090   43.2010 C   0  0  0  0  0  3  0  0  0  0  0  0
   38.6440   28.5200   42.3320 H   0  0  0  0  0  0  0  0  0  0  0  0
  1  5  1  0  0  0  0
  1 13  1  0  0  0  0
  2  1  1  0  0  0  0
  3  1  1  0  0  0  0
  4 10  1  0  0  0  0
  4  9  1  0  0  0  0
  5  4  2  0  0  0  0
  6  5  1  0  0  0  0
  6  7  2  0  0  0  0
  7  8  1  0  0  0  0
  8 12  1  0  0  0  0
  8  9  2  0  0  0  0
 11  6  1  0  0  0  0
 13 14  1  0  0  0  0
 14 15  2  0  0  0  0
 15 16  1  0  0  0  0
 16 19  1  0  0  0  0
 17 16  1  0  0  0  0
 18 16  1  0  0  0  0
 19 23  1  0  0  0  0
 20 19  1  0  0  0  0
 20 21  1  0  0  0  0
 22 21  1  0  0  0  0
 23 22  1  0  0  0  0
 24 23  1  0  0  0  0
M  END
>  <minimizedAffinity>
-4.07625198

$$$$

 OpenBabel03252504293D

 24 25  0  0  0  0  0  0  0  0999 V2000
   38.8720   32.3580   40.2080 C   0  0  0  0  0  0  0  0  0  0  0  0
   38.0980   33.1990   40.2420 H   0  0  0  0  0  0  0  0  0  0  0  0
   38.3970   31.5240   39.6850 H   0  0  0  0  0  0  0  0  0  0  0  0
   40.1980   32.0930   38.2480 C   0  0  0  0  0  0  0  0  0  0  0  0
   39.9810   32.8870   39.3880 C   0  0  0  0  0  0  0  0  0  0  0  0
   40.8080   33.9640   39.5510 C   0  0  0  0  0  0  0  0  0  0  0  0
   41.7370   34.1610   38.6230 N   0  0  0  0  0  0  0  0  0  0  0  0
   41.9510   33.4180   37.5440 C   0  0  0  0  0  0  0  0  0  0  0  0
   41.1550   32.3080   37.3060 N   0  0  0  0  0  0  0  0  0  0  0  0
   39.6220   31.1960   37.9730 H   0  0  0  0  0  0  0  0  0  0  0  0
   40.5770   34.5170   40.4400 H   0  0  0  0  0  0  0  0  0  0  0  0
   42.7570   33.7290   36.8910 H   0  0  0  0  0  0  0  0  0  0  0  0
   39.2250   32.0100   41.4960 O   0  0  0  0  0  0  0  0  0  0  0  0
   39.9700   30.9260   41.8910 C   0  0  0  0  0  3  0  0  0  0  0  0
   39.2840   29.8860   42.4120 C   0  0  0  0  0  3  0  0  0  0  0  0
   39.8260   28.5530   42.8570 C   0  0  0  0  0  0  0  0  0  0  0  0
   40.6460   28.7780   43.5790 H   0  0  0  0  0  0  0  0  0  0  0  0
   40.2620   28.0180   42.0010 H   0  0  0  0  0  0  0  0  0  0  0  0
   38.8690   27.7520   43.5500 N   0  0  0  0  0  0  0  0  0  0  0  0
   37.5990   28.4800   43.5040 C   0  0  0  0  0  2  0  0  0  0  0  0
   36.5260   27.4570   43.2250 C   0  0  0  0  0  2  0  0  0  0  0  0
   37.2460   26.3710   42.4630 C   0  0  0  0  0  2  0  0  0  0  0  0
   38.6890   26.5270   42.8200 C   0  0  0  0  0  3  0  0  0  0  0  0
   39.2650   26.5300   41.8560 H   0  0  0  0  0  0  0  0  0  0  0  0
  1  2  1  0  0  0  0
  1 13  1  0  0  0  0
  3  1  1  0  0  0  0
  4  5  1  0  0  0  0
  5  6  2  0  0  0  0
  5  1  1  0  0  0  0
  6 11  1  0  0  0  0
  7  6  1  0  0  0  0
  8  7  2  0  0  0  0
  9  8  1  0  0  0  0
  9  4  2  0  0  0  0
 10  4  1  0  0  0  0
 12  8  1  0  0  0  0
 13 14  1  0  0  0  0
 14 15  2  0  0  0  0
 15 16  1  0  0  0  0
 16 19  1  0  0  0  0
 16 17  1  0  0  0  0
 18 16  1  0  0  0  0
 20 19  1  0  0  0  0
 21 20  1  0  0  0  0
 22 23  1  0  0  0  0
 22 21  1  0  0  0  0
 23 19  1  0  0  0  0
 24 23  1  0  0  0  0
M  END
>  <minimizedAffinity>
-4.05045271

$$$$

 OpenBabel03252504293D

 24 25  0  0  0  0  0  0  0  0999 V2000
   37.2230   28.3160   43.5610 C   0  0  0  0  0  0  0  0  0  0  0  0
   36.1080   28.0620   43.5940 H   0  0  0  0  0  0  0  0  0  0  0  0
   37.5110   28.5700   44.5840 H   0  0  0  0  0  0  0  0  0  0  0  0
   39.1940   26.9870   43.6790 C   0  0  0  0  0  0  0  0  0  0  0  0
   37.8920   27.0640   43.1550 C   0  0  0  0  0  0  0  0  0  0  0  0
   37.4830   26.0180   42.3740 C   0  0  0  0  0  0  0  0  0  0  0  0
   38.3480   25.0290   42.1830 N   0  0  0  0  0  0  0  0  0  0  0  0
   39.5800   24.9460   42.6730 C   0  0  0  0  0  0  0  0  0  0  0  0
   40.0690   25.9670   43.4740 N   0  0  0  0  0  0  0  0  0  0  0  0
   39.6720   27.7430   44.3230 H   0  0  0  0  0  0  0  0  0  0  0  0
   36.4820   26.1520   42.0160 H   0  0  0  0  0  0  0  0  0  0  0  0
   40.1480   24.0620   42.4140 H   0  0  0  0  0  0  0  0  0  0  0  0
   37.4220   29.3790   42.7030 O   0  0  0  0  0  0  0  0  0  0  0  0
   36.8300   29.5850   41.4820 C   0  0  0  0  0  3  0  0  0  0  0  0
   37.2290   30.6800   40.8000 C   0  0  0  0  0  3  0  0  0  0  0  0
   36.8090   31.1130   39.4190 C   0  0  0  0  0  0  0  0  0  0  0  0
   35.7210   31.3510   39.4880 H   0  0  0  0  0  0  0  0  0  0  0  0
   36.9310   30.2820   38.7090 H   0  0  0  0  0  0  0  0  0  0  0  0
   37.4670   32.2960   38.9680 N   0  0  0  0  0  0  0  0  0  0  0  0
   37.9330   33.0010   40.1650 C   0  0  0  0  0  2  0  0  0  0  0  0
   39.3190   33.5080   39.8540 C   0  0  0  0  0  2  0  0  0  0  0  0
   39.8440   32.5320   38.8290 C   0  0  0  0  0  2  0  0  0  0  0  0
   38.6300   31.9100   38.2170 C   0  0  0  0  0  3  0  0  0  0  0  0
   38.7880   30.7980   38.2380 H   0  0  0  0  0  0  0  0  0  0  0  0
  1  2  1  0  0  0  0
  1  3  1  0  0  0  0
  4 10  1  0  0  0  0
  5  1  1  0  0  0  0
  5  4  2  0  0  0  0
  6  5  1  0  0  0  0
  7  6  2  0  0  0  0
  7  8  1  0  0  0  0
  8  9  2  0  0  0  0
  9  4  1  0  0  0  0
 11  6  1  0  0  0  0
 12  8  1  0  0  0  0
 13  1  1  0  0  0  0
 14 13  1  0  0  0  0
 15 14  2  0  0  0  0
 16 17  1  0  0  0  0
 16 15  1  0  0  0  0
 18 16  1  0  0  0  0
 19 16  1  0  0  0  0
 19 20  1  0  0  0  0
 21 20  1  0  0  0  0
 22 21  1  0  0  0  0
 23 24  1  0  0  0  0
 23 22  1  0  0  0  0
 23 19  1  0  0  0  0
M  END
>  <minimizedAffinity>
-3.89607024

$$$$

 OpenBabel03252504293D

 24 25  0  0  0  0  0  0  0  0999 V2000
   36.1550   29.8400   40.7100 C   0  0  0  0  0  0  0  0  0  0  0  0
   36.5550   29.4240   39.7230 H   0  0  0  0  0  0  0  0  0  0  0  0
   35.1110   29.5240   40.7770 H   0  0  0  0  0  0  0  0  0  0  0  0
   36.4210   27.8910   42.0520 C   0  0  0  0  0  0  0  0  0  0  0  0
   36.9420   29.1640   41.7610 C   0  0  0  0  0  0  0  0  0  0  0  0
   38.0380   29.5570   42.4800 C   0  0  0  0  0  0  0  0  0  0  0  0
   38.5060   28.7040   43.3840 N   0  0  0  0  0  0  0  0  0  0  0  0
   38.0220   27.5010   43.6670 C   0  0  0  0  0  0  0  0  0  0  0  0
   36.9120   27.0300   42.9820 N   0  0  0  0  0  0  0  0  0  0  0  0
   35.5470   27.4300   41.5650 H   0  0  0  0  0  0  0  0  0  0  0  0
   38.3740   30.5340   42.1990 H   0  0  0  0  0  0  0  0  0  0  0  0
   38.5340   26.9390   44.4380 H   0  0  0  0  0  0  0  0  0  0  0  0
   36.2660   31.2160   40.7040 O   0  0  0  0  0  0  0  0  0  0  0  0
   36.9970   31.9880   39.8360 C   0  0  0  0  0  3  0  0  0  0  0  0
   37.9620   31.3520   39.1370 C   0  0  0  0  0  3  0  0  0  0  0  0
   38.8610   31.9240   38.0720 C   0  0  0  0  0  0  0  0  0  0  0  0
   38.5040   32.9660   37.8930 H   0  0  0  0  0  0  0  0  0  0  0  0
   38.7450   31.3590   37.1360 H   0  0  0  0  0  0  0  0  0  0  0  0
   40.2290   32.0150   38.4700 N   0  0  0  0  0  0  0  0  0  0  0  0
   41.0160   32.1450   37.2420 C   0  0  0  0  0  2  0  0  0  0  0  0
   42.0760   33.1830   37.5170 C   0  0  0  0  0  2  0  0  0  0  0  0
   41.4560   34.0650   38.5740 C   0  0  0  0  0  2  0  0  0  0  0  0
   40.4030   33.2270   39.2230 C   0  0  0  0  0  3  0  0  0  0  0  0
   39.4630   33.8410   39.2440 H   0  0  0  0  0  0  0  0  0  0  0  0
  1  3  1  0  0  0  0
  1  5  1  0  0  0  0
  2  1  1  0  0  0  0
  4  9  1  0  0  0  0
  5  4  2  0  0  0  0
  5  6  1  0  0  0  0
  6  7  2  0  0  0  0
  7  8  1  0  0  0  0
  8 12  1  0  0  0  0
  9  8  2  0  0  0  0
 10  4  1  0  0  0  0
 11  6  1  0  0  0  0
 13  1  1  0  0  0  0
 14 13  1  0  0  0  0
 15 14  2  0  0  0  0
 16 19  1  0  0  0  0
 16 15  1  0  0  0  0
 17 16  1  0  0  0  0
 18 16  1  0  0  0  0
 19 23  1  0  0  0  0
 20 21  1  0  0  0  0
 20 19  1  0  0  0  0
 21 22  1  0  0  0  0
 22 23  1  0  0  0  0
 23 24  1  0  0  0  0
M  END
>  <minimizedAffinity>
-3.88602877

$$$$

 OpenBabel03252504293D

 24 25  0  0  0  0  0  0  0  0999 V2000
   35.7400   29.2940   40.7570 C   0  0  0  0  0  0  0  0  0  0  0  0
   34.7280   28.7620   40.7570 H   0  0  0  0  0  0  0  0  0  0  0  0
   35.6040   30.2120   41.3340 H   0  0  0  0  0  0  0  0  0  0  0  0
   37.3250   29.0580   42.5170 C   0  0  0  0  0  0  0  0  0  0  0  0
   36.6530   28.3870   41.4810 C   0  0  0  0  0  0  0  0  0  0  0  0
   36.9550   27.0640   41.3110 C   0  0  0  0  0  0  0  0  0  0  0  0
   37.8520   26.5360   42.1350 N   0  0  0  0  0  0  0  0  0  0  0  0
   38.4920   27.1600   43.1170 C   0  0  0  0  0  0  0  0  0  0  0  0
   38.2420   28.5030   43.3540 N   0  0  0  0  0  0  0  0  0  0  0  0
   37.1960   30.1190   42.7840 H   0  0  0  0  0  0  0  0  0  0  0  0
   36.4010   26.6260   40.5040 H   0  0  0  0  0  0  0  0  0  0  0  0
   39.1930   26.5700   43.6930 H   0  0  0  0  0  0  0  0  0  0  0  0
   36.1120   29.5670   39.4560 O   0  0  0  0  0  0  0  0  0  0  0  0
   36.6910   30.7170   38.9800 C   0  0  0  0  0  3  0  0  0  0  0  0
   37.0000   31.6560   39.8990 C   0  0  0  0  0  3  0  0  0  0  0  0
   37.7010   32.9710   39.6760 C   0  0  0  0  0  0  0  0  0  0  0  0
   36.9110   33.7560   39.7270 H   0  0  0  0  0  0  0  0  0  0  0  0
   38.1430   32.9970   38.6690 H   0  0  0  0  0  0  0  0  0  0  0  0
   38.6630   33.2820   40.6840 N   0  0  0  0  0  0  0  0  0  0  0  0
   39.3270   32.0250   41.0350 C   0  0  0  0  0  2  0  0  0  0  0  0
   40.7950   32.3370   41.1780 C   0  0  0  0  0  2  0  0  0  0  0  0
   41.0060   33.5230   40.2660 C   0  0  0  0  0  2  0  0  0  0  0  0
   39.6570   34.1480   40.1110 C   0  0  0  0  0  3  0  0  0  0  0  0
   39.4920   34.2980   39.0110 H   0  0  0  0  0  0  0  0  0  0  0  0
  1  3  1  0  0  0  0
  1  5  1  0  0  0  0
  2  1  1  0  0  0  0
  4 10  1  0  0  0  0
  4  9  1  0  0  0  0
  5  4  2  0  0  0  0
  6  5  1  0  0  0  0
  6  7  2  0  0  0  0
  7  8  1  0  0  0  0
  8  9  2  0  0  0  0
  8 12  1  0  0  0  0
 11  6  1  0  0  0  0
 13  1  1  0  0  0  0
 14 13  1  0  0  0  0
 14 15  2  0  0  0  0
 16 17  1  0  0  0  0
 16 15  1  0  0  0  0
 16 19  1  0  0  0  0
 18 16  1  0  0  0  0
 19 20  1  0  0  0  0
 20 21  1  0  0  0  0
 22 21  1  0  0  0  0
 23 22  1  0  0  0  0
 23 19  1  0  0  0  0
 24 23  1  0  0  0  0
M  END
>  <minimizedAffinity>
-3.85902476

$$$$

 OpenBabel03252504293D

 24 25  0  0  0  0  0  0  0  0999 V2000
   37.6180   30.8920   38.2000 C   0  0  0  0  0  0  0  0  0  0  0  0
   37.7640   31.1530   37.0960 H   0  0  0  0  0  0  0  0  0  0  0  0
   38.3250   30.0890   38.4220 H   0  0  0  0  0  0  0  0  0  0  0  0
   39.3720   32.0910   39.2730 C   0  0  0  0  0  0  0  0  0  0  0  0
   38.0070   32.1090   38.9390 C   0  0  0  0  0  0  0  0  0  0  0  0
   37.2900   33.1990   39.3510 C   0  0  0  0  0  0  0  0  0  0  0  0
   37.9450   34.1360   40.0260 N   0  0  0  0  0  0  0  0  0  0  0  0
   39.2340   34.1290   40.3470 C   0  0  0  0  0  0  0  0  0  0  0  0
   40.0300   33.0590   39.9660 N   0  0  0  0  0  0  0  0  0  0  0  0
   40.0840   31.2900   39.0170 H   0  0  0  0  0  0  0  0  0  0  0  0
   36.2610   33.1380   39.0570 H   0  0  0  0  0  0  0  0  0  0  0  0
   39.6020   34.9820   40.9030 H   0  0  0  0  0  0  0  0  0  0  0  0
   36.3150   30.4860   38.4050 O   0  0  0  0  0  0  0  0  0  0  0  0
   35.8880   29.3120   38.9750 C   0  0  0  0  0  3  0  0  0  0  0  0
   36.7870   28.6570   39.7400 C   0  0  0  0  0  3  0  0  0  0  0  0
   36.5760   27.3970   40.5390 C   0  0  0  0  0  0  0  0  0  0  0  0
   36.7210   26.5510   39.8260 H   0  0  0  0  0  0  0  0  0  0  0  0
   35.5430   27.3550   40.9130 H   0  0  0  0  0  0  0  0  0  0  0  0
   37.5270   27.2240   41.5910 N   0  0  0  0  0  0  0  0  0  0  0  0
   38.4400   28.3660   41.5250 C   0  0  0  0  0  2  0  0  0  0  0  0
   38.6860   28.8040   42.9470 C   0  0  0  0  0  2  0  0  0  0  0  0
   37.4330   28.3850   43.6800 C   0  0  0  0  0  2  0  0  0  0  0  0
   36.8320   27.3000   42.8470 C   0  0  0  0  0  3  0  0  0  0  0  0
   35.7480   27.5590   42.7070 H   0  0  0  0  0  0  0  0  0  0  0  0
  1 13  1  0  0  0  0
  1  3  1  0  0  0  0
  1  5  1  0  0  0  0
  2  1  1  0  0  0  0
  4  9  1  0  0  0  0
  5  4  2  0  0  0  0
  5  6  1  0  0  0  0
  6  7  2  0  0  0  0
  7  8  1  0  0  0  0
  8 12  1  0  0  0  0
  9  8  2  0  0  0  0
 10  4  1  0  0  0  0
 11  6  1  0  0  0  0
 13 14  1  0  0  0  0
 14 15  2  0  0  0  0
 15 16  1  0  0  0  0
 16 18  1  0  0  0  0
 16 19  1  0  0  0  0
 17 16  1  0  0  0  0
 19 23  1  0  0  0  0
 20 19  1  0  0  0  0
 20 21  1  0  0  0  0
 21 22  1  0  0  0  0
 23 22  1  0  0  0  0
 24 23  1  0  0  0  0
M  END
>  <minimizedAffinity>
-3.83342957

$$$$

 OpenBabel03252504293D

 24 25  0  0  0  0  0  0  0  0999 V2000
   40.1050   30.4410   38.9050 C   0  0  0  0  0  0  0  0  0  0  0  0
   40.0070   30.3510   37.7700 H   0  0  0  0  0  0  0  0  0  0  0  0
   41.1670   30.5870   39.1120 H   0  0  0  0  0  0  0  0  0  0  0  0
   37.9850   31.5200   39.0070 C   0  0  0  0  0  0  0  0  0  0  0  0
   39.3600   31.6660   39.2600 C   0  0  0  0  0  0  0  0  0  0  0  0
   39.7660   32.8730   39.7580 C   0  0  0  0  0  0  0  0  0  0  0  0
   38.8300   33.7940   39.9550 N   0  0  0  0  0  0  0  0  0  0  0  0
   37.5290   33.6670   39.7190 C   0  0  0  0  0  0  0  0  0  0  0  0
   37.0380   32.4730   39.2130 N   0  0  0  0  0  0  0  0  0  0  0  0
   37.4990   30.6150   38.6070 H   0  0  0  0  0  0  0  0  0  0  0  0
   40.8240   32.9040   39.9250 H   0  0  0  0  0  0  0  0  0  0  0  0
   36.9080   34.5260   39.9400 H   0  0  0  0  0  0  0  0  0  0  0  0
   39.6300   29.2880   39.4970 O   0  0  0  0  0  0  0  0  0  0  0  0
   40.2080   28.5790   40.5210 C   0  0  0  0  0  3  0  0  0  0  0  0
   39.6360   28.7090   41.7370 C   0  0  0  0  0  3  0  0  0  0  0  0
   40.0090   28.0010   43.0130 C   0  0  0  0  0  0  0  0  0  0  0  0
   40.3360   28.7960   43.7240 H   0  0  0  0  0  0  0  0  0  0  0  0
   40.8610   27.3290   42.8380 H   0  0  0  0  0  0  0  0  0  0  0  0
   38.9150   27.3190   43.6270 N   0  0  0  0  0  0  0  0  0  0  0  0
   37.7750   28.2380   43.5960 C   0  0  0  0  0  2  0  0  0  0  0  0
   36.5670   27.4150   43.2220 C   0  0  0  0  0  2  0  0  0  0  0  0
   37.1380   26.2780   42.4090 C   0  0  0  0  0  2  0  0  0  0  0  0
   38.5740   26.1840   42.8130 C   0  0  0  0  0  3  0  0  0  0  0  0
   39.1780   26.1560   41.8660 H   0  0  0  0  0  0  0  0  0  0  0  0
  1  3  1  0  0  0  0
  1  5  1  0  0  0  0
  1 13  1  0  0  0  0
  2  1  1  0  0  0  0
  4  9  2  0  0  0  0
  4  5  1  0  0  0  0
  5  6  2  0  0  0  0
  6 11  1  0  0  0  0
  6  7  1  0  0  0  0
  8 12  1  0  0  0  0
  8  7  2  0  0  0  0
  9  8  1  0  0  0  0
 10  4  1  0  0  0  0
 13 14  1  0  0  0  0
 14 15  2  0  0  0  0
 15 16  1  0  0  0  0
 16 19  1  0  0  0  0
 16 17  1  0  0  0  0
 18 16  1  0  0  0  0
 20 19  1  0  0  0  0
 21 20  1  0  0  0  0
 22 23  1  0  0  0  0
 22 21  1  0  0  0  0
 23 19  1  0  0  0  0
 24 23  1  0  0  0  0
M  END
>  <minimizedAffinity>
-3.78484035

$$$$

 OpenBabel03252504293D

 24 25  0  0  0  0  0  0  0  0999 V2000
   36.3000   29.1560   38.6900 C   0  0  0  0  0  0  0  0  0  0  0  0
   35.4270   29.5390   38.0590 H   0  0  0  0  0  0  0  0  0  0  0  0
   36.9890   28.6670   37.9980 H   0  0  0  0  0  0  0  0  0  0  0  0
   38.1480   30.6530   38.5940 C   0  0  0  0  0  0  0  0  0  0  0  0
   36.9350   30.3680   39.2450 C   0  0  0  0  0  0  0  0  0  0  0  0
   36.5680   31.2150   40.2540 C   0  0  0  0  0  0  0  0  0  0  0  0
   37.3860   32.2250   40.5260 N   0  0  0  0  0  0  0  0  0  0  0  0
   38.5330   32.5030   39.9170 C   0  0  0  0  0  0  0  0  0  0  0  0
   38.9760   31.6920   38.8840 N   0  0  0  0  0  0  0  0  0  0  0  0
   38.5830   30.0710   37.7660 H   0  0  0  0  0  0  0  0  0  0  0  0
   35.6350   30.9310   40.6970 H   0  0  0  0  0  0  0  0  0  0  0  0
   39.0730   33.3730   40.2720 H   0  0  0  0  0  0  0  0  0  0  0  0
   35.8240   28.2710   39.6370 O   0  0  0  0  0  0  0  0  0  0  0  0
   36.5630   27.4660   40.4680 C   0  0  0  0  0  3  0  0  0  0  0  0
   36.5690   27.8010   41.7760 C   0  0  0  0  0  3  0  0  0  0  0  0
   37.2250   27.0650   42.9160 C   0  0  0  0  0  0  0  0  0  0  0  0
   37.7180   26.1720   42.4640 H   0  0  0  0  0  0  0  0  0  0  0  0
   36.4630   26.7110   43.6250 H   0  0  0  0  0  0  0  0  0  0  0  0
   38.2460   27.8200   43.5680 N   0  0  0  0  0  0  0  0  0  0  0  0
   39.5240   27.3560   43.0250 C   0  0  0  0  0  2  0  0  0  0  0  0
   40.3730   28.5840   42.8100 C   0  0  0  0  0  2  0  0  0  0  0  0
   39.3670   29.6870   42.5780 C   0  0  0  0  0  2  0  0  0  0  0  0
   38.0970   29.2010   43.1980 C   0  0  0  0  0  3  0  0  0  0  0  0
   37.2860   29.3400   42.4330 H   0  0  0  0  0  0  0  0  0  0  0  0
  1  5  1  0  0  0  0
  1 13  1  0  0  0  0
  2  1  1  0  0  0  0
  3  1  1  0  0  0  0
  4  9  2  0  0  0  0
  4  5  1  0  0  0  0
  5  6  2  0  0  0  0
  6  7  1  0  0  0  0
  6 11  1  0  0  0  0
  8 12  1  0  0  0  0
  8  7  2  0  0  0  0
  9  8  1  0  0  0  0
 10  4  1  0  0  0  0
 13 14  1  0  0  0  0
 14 15  2  0  0  0  0
 15 16  1  0  0  0  0
 16 19  1  0  0  0  0
 16 18  1  0  0  0  0
 17 16  1  0  0  0  0
 20 19  1  0  0  0  0
 21 20  1  0  0  0  0
 22 21  1  0  0  0  0
 22 23  1  0  0  0  0
 23 19  1  0  0  0  0
 24 23  1  0  0  0  0
M  END
>  <minimizedAffinity>
-3.76056051

$$$$
