
 OpenBabel03252504393D

 27 29  0  0  0  0  0  0  0  0999 V2000
   36.4780   31.0880   40.8370 C   0  0  0  0  0  0  0  0  0  0  0  0
   36.1300   31.5690   41.7670 H   0  0  0  0  0  0  0  0  0  0  0  0
   35.6280   30.9390   40.1760 H   0  0  0  0  0  0  0  0  0  0  0  0
   37.5320   31.9350   40.1890 C   0  0  0  0  0  0  0  0  0  0  0  0
   37.3500   33.2150   39.7220 C   0  0  0  0  0  0  0  0  0  0  0  0
   38.5640   33.5580   39.2310 N   0  0  0  0  0  0  0  0  0  0  0  0
   39.4610   32.5640   39.3740 C   0  0  0  0  0  0  0  0  0  0  0  0
   38.8190   31.5550   39.9700 N   0  0  0  0  0  0  0  0  0  0  0  0
   36.4260   33.7740   39.7600 H   0  0  0  0  0  0  0  0  0  0  0  0
   38.6430   34.5340   38.8120 H   0  0  0  0  0  0  0  0  0  0  0  0
   40.7660   32.8000   38.9070 N   0  0  0  0  0  0  0  0  0  0  0  0
   42.0020   32.8010   39.7120 C   0  0  0  0  0  2  0  0  0  0  0  0
   42.3250   34.3050   39.5710 C   0  0  0  0  0  2  0  0  0  0  0  0
   42.1940   34.4220   38.0480 C   0  0  0  0  0  2  0  0  0  0  0  0
   41.4520   33.1080   37.6710 C   0  0  0  0  0  3  0  0  0  0  0  0
   42.2180   32.3450   37.3940 H   0  0  0  0  0  0  0  0  0  0  0  0
   37.3640   29.4040   42.4000 C   0  0  0  0  0  3  0  0  0  0  0  0
   37.0370   29.7510   41.1600 C   0  0  0  0  0  3  0  0  0  0  0  0
   37.9130   28.0570   42.5830 C   0  0  0  0  0  0  0  0  0  0  0  0
   37.3190   26.9250   41.9660 C   0  0  0  0  0  0  0  0  0  0  0  0
   37.8940   25.6840   42.1900 C   0  0  0  0  0  0  0  0  0  0  0  0
   38.9840   25.5920   42.9770 N   0  0  0  0  0  0  0  0  0  0  0  0
   39.5360   26.6710   43.5580 C   0  0  0  0  0  0  0  0  0  0  0  0
   39.0000   27.8760   43.3570 N   0  0  0  0  0  0  0  0  0  0  0  0
   36.4470   27.1020   41.3570 H   0  0  0  0  0  0  0  0  0  0  0  0
   37.4390   24.8280   41.7170 H   0  0  0  0  0  0  0  0  0  0  0  0
   40.4280   26.6220   44.2000 H   0  0  0  0  0  0  0  0  0  0  0  0
  1 18  1  0  0  0  0
  1  2  1  0  0  0  0
  3  1  1  0  0  0  0
  4  1  1  0  0  0  0
  5  9  1  0  0  0  0
  5  4  2  0  0  0  0
  6  7  1  0  0  0  0
  6  5  1  0  0  0  0
  7  8  2  0  0  0  0
  8  4  1  0  0  0  0
 10  6  1  0  0  0  0
 11  7  1  0  0  0  0
 11 12  1  0  0  0  0
 13 12  1  0  0  0  0
 14 13  1  0  0  0  0
 15 14  1  0  0  0  0
 15 11  1  0  0  0  0
 16 15  1  0  0  0  0
 17 19  1  0  0  0  0
 18 17  2  0  0  0  0
 19 24  1  0  0  0  0
 20 21  1  0  0  0  0
 20 19  2  0  0  0  0
 21 22  2  0  0  0  0
 22 23  1  0  0  0  0
 23 27  1  0  0  0  0
 24 23  2  0  0  0  0
 25 20  1  0  0  0  0
 26 21  1  0  0  0  0
M  END
>  <minimizedAffinity>
-5.13996124

$$$$

 OpenBabel03252504393D

 27 29  0  0  0  0  0  0  0  0999 V2000
   34.2710   27.9780   37.4330 C   0  0  0  0  0  0  0  0  0  0  0  0
   35.0970   27.7560   36.7370 H   0  0  0  0  0  0  0  0  0  0  0  0
   33.6040   27.1210   37.4780 H   0  0  0  0  0  0  0  0  0  0  0  0
   34.8220   28.3130   38.7870 C   0  0  0  0  0  0  0  0  0  0  0  0
   34.3200   29.2700   39.6380 C   0  0  0  0  0  0  0  0  0  0  0  0
   35.1360   29.2050   40.7170 N   0  0  0  0  0  0  0  0  0  0  0  0
   36.0930   28.2700   40.5660 C   0  0  0  0  0  0  0  0  0  0  0  0
   35.8980   27.7160   39.3660 N   0  0  0  0  0  0  0  0  0  0  0  0
   33.4680   29.9040   39.4400 H   0  0  0  0  0  0  0  0  0  0  0  0
   34.9170   29.8790   41.5120 H   0  0  0  0  0  0  0  0  0  0  0  0
   37.0030   28.1020   41.6240 N   0  0  0  0  0  0  0  0  0  0  0  0
   37.2110   26.8770   42.4200 C   0  0  0  0  0  2  0  0  0  0  0  0
   36.6750   27.4240   43.7620 C   0  0  0  0  0  2  0  0  0  0  0  0
   37.4830   28.7260   43.8130 C   0  0  0  0  0  2  0  0  0  0  0  0
   37.9960   28.8620   42.3510 C   0  0  0  0  0  3  0  0  0  0  0  0
   39.0160   28.4110   42.2990 H   0  0  0  0  0  0  0  0  0  0  0  0
   32.2240   29.0080   36.5300 C   0  0  0  0  0  3  0  0  0  0  0  0
   33.4910   29.1290   36.9110 C   0  0  0  0  0  3  0  0  0  0  0  0
   31.5700   30.2200   36.0270 C   0  0  0  0  0  0  0  0  0  0  0  0
   31.7360   30.6480   34.6840 C   0  0  0  0  0  0  0  0  0  0  0  0
   31.0880   31.8070   34.2850 C   0  0  0  0  0  0  0  0  0  0  0  0
   30.3310   32.4810   35.1730 N   0  0  0  0  0  0  0  0  0  0  0  0
   30.1830   32.0660   36.4430 C   0  0  0  0  0  0  0  0  0  0  0  0
   30.7970   30.9540   36.8500 N   0  0  0  0  0  0  0  0  0  0  0  0
   32.3650   30.0420   34.0530 H   0  0  0  0  0  0  0  0  0  0  0  0
   31.2180   32.1260   33.2630 H   0  0  0  0  0  0  0  0  0  0  0  0
   29.5670   32.5970   37.1840 H   0  0  0  0  0  0  0  0  0  0  0  0
  1  3  1  0  0  0  0
  1  4  1  0  0  0  0
  2  1  1  0  0  0  0
  4  8  1  0  0  0  0
  4  5  2  0  0  0  0
  5  6  1  0  0  0  0
  6 10  1  0  0  0  0
  7  6  1  0  0  0  0
  7 11  1  0  0  0  0
  8  7  2  0  0  0  0
  9  5  1  0  0  0  0
 11 15  1  0  0  0  0
 11 12  1  0  0  0  0
 12 13  1  0  0  0  0
 13 14  1  0  0  0  0
 15 14  1  0  0  0  0
 16 15  1  0  0  0  0
 17 18  2  0  0  0  0
 18  1  1  0  0  0  0
 19 17  1  0  0  0  0
 19 24  1  0  0  0  0
 20 19  2  0  0  0  0
 21 20  1  0  0  0  0
 21 22  2  0  0  0  0
 22 23  1  0  0  0  0
 23 24  2  0  0  0  0
 23 27  1  0  0  0  0
 25 20  1  0  0  0  0
 26 21  1  0  0  0  0
M  END
>  <minimizedAffinity>
-5.11242533

$$$$

 OpenBabel03252504393D

 27 29  0  0  0  0  0  0  0  0999 V2000
   37.8040   33.1980   39.9480 C   0  0  0  0  0  0  0  0  0  0  0  0
   37.2150   33.3090   39.0220 H   0  0  0  0  0  0  0  0  0  0  0  0
   37.6080   34.0470   40.5970 H   0  0  0  0  0  0  0  0  0  0  0  0
   37.4560   31.9030   40.6210 C   0  0  0  0  0  0  0  0  0  0  0  0
   36.1990   31.3490   40.6800 C   0  0  0  0  0  0  0  0  0  0  0  0
   36.3830   30.2030   41.3780 N   0  0  0  0  0  0  0  0  0  0  0  0
   37.6690   30.0370   41.7400 C   0  0  0  0  0  0  0  0  0  0  0  0
   38.3370   31.0950   41.2690 N   0  0  0  0  0  0  0  0  0  0  0  0
   35.3030   31.7730   40.2520 H   0  0  0  0  0  0  0  0  0  0  0  0
   35.5140   29.6080   41.5400 H   0  0  0  0  0  0  0  0  0  0  0  0
   37.9900   28.8780   42.4670 N   0  0  0  0  0  0  0  0  0  0  0  0
   38.9200   27.8100   42.0560 C   0  0  0  0  0  2  0  0  0  0  0  0
   37.8690   26.6900   41.8920 C   0  0  0  0  0  2  0  0  0  0  0  0
   37.1580   26.8490   43.2410 C   0  0  0  0  0  2  0  0  0  0  0  0
   37.6560   28.2410   43.7230 C   0  0  0  0  0  3  0  0  0  0  0  0
   38.5430   28.0820   44.3820 H   0  0  0  0  0  0  0  0  0  0  0  0
   40.0370   34.2360   39.9290 C   0  0  0  0  0  3  0  0  0  0  0  0
   39.2500   33.2140   39.6100 C   0  0  0  0  0  3  0  0  0  0  0  0
   41.4450   34.1300   39.5330 C   0  0  0  0  0  0  0  0  0  0  0  0
   41.8280   34.0780   38.1670 C   0  0  0  0  0  0  0  0  0  0  0  0
   43.1780   33.9730   37.8720 C   0  0  0  0  0  0  0  0  0  0  0  0
   44.0730   33.9250   38.8780 N   0  0  0  0  0  0  0  0  0  0  0  0
   43.6980   33.9740   40.1680 C   0  0  0  0  0  0  0  0  0  0  0  0
   42.4040   34.0740   40.4760 N   0  0  0  0  0  0  0  0  0  0  0  0
   41.0360   34.1190   37.4370 H   0  0  0  0  0  0  0  0  0  0  0  0
   43.4620   33.9350   36.8320 H   0  0  0  0  0  0  0  0  0  0  0  0
   44.4110   33.9410   41.0060 H   0  0  0  0  0  0  0  0  0  0  0  0
  1  3  1  0  0  0  0
  1  4  1  0  0  0  0
  2  1  1  0  0  0  0
  4  5  2  0  0  0  0
  4  8  1  0  0  0  0
  5  6  1  0  0  0  0
  6 10  1  0  0  0  0
  6  7  1  0  0  0  0
  7 11  1  0  0  0  0
  8  7  2  0  0  0  0
  9  5  1  0  0  0  0
 11 15  1  0  0  0  0
 12 11  1  0  0  0  0
 13 12  1  0  0  0  0
 13 14  1  0  0  0  0
 14 15  1  0  0  0  0
 15 16  1  0  0  0  0
 18 17  2  0  0  0  0
 18  1  1  0  0  0  0
 19 17  1  0  0  0  0
 19 24  1  0  0  0  0
 20 19  2  0  0  0  0
 21 20  1  0  0  0  0
 21 22  2  0  0  0  0
 22 23  1  0  0  0  0
 23 24  2  0  0  0  0
 23 27  1  0  0  0  0
 25 20  1  0  0  0  0
 26 21  1  0  0  0  0
M  END
>  <minimizedAffinity>
-5.08514166

$$$$

 OpenBabel03252504393D

 27 29  0  0  0  0  0  0  0  0999 V2000
   35.8650   30.5840   40.9320 C   0  0  0  0  0  0  0  0  0  0  0  0
   35.1350   30.8410   40.1450 H   0  0  0  0  0  0  0  0  0  0  0  0
   35.4360   30.8180   41.9030 H   0  0  0  0  0  0  0  0  0  0  0  0
   36.2320   29.1340   40.8330 C   0  0  0  0  0  0  0  0  0  0  0  0
   36.1330   28.3620   39.6990 C   0  0  0  0  0  0  0  0  0  0  0  0
   36.5720   27.1440   40.0950 N   0  0  0  0  0  0  0  0  0  0  0  0
   36.9270   27.1380   41.3950 C   0  0  0  0  0  0  0  0  0  0  0  0
   36.7160   28.3750   41.8530 N   0  0  0  0  0  0  0  0  0  0  0  0
   35.7770   28.7000   38.7370 H   0  0  0  0  0  0  0  0  0  0  0  0
   36.5770   26.3820   39.3510 H   0  0  0  0  0  0  0  0  0  0  0  0
   37.4070   25.9280   41.9260 N   0  0  0  0  0  0  0  0  0  0  0  0
   38.7440   25.6890   42.5020 C   0  0  0  0  0  2  0  0  0  0  0  0
   39.2520   24.7160   41.4140 C   0  0  0  0  0  2  0  0  0  0  0  0
   38.0540   23.7600   41.3890 C   0  0  0  0  0  2  0  0  0  0  0  0
   36.9610   24.5690   42.1420 C   0  0  0  0  0  3  0  0  0  0  0  0
   36.9850   24.2670   43.2170 H   0  0  0  0  0  0  0  0  0  0  0  0
   37.3450   32.0550   39.6250 C   0  0  0  0  0  3  0  0  0  0  0  0
   37.0790   31.4220   40.7620 C   0  0  0  0  0  3  0  0  0  0  0  0
   38.5800   32.8440   39.5850 C   0  0  0  0  0  0  0  0  0  0  0  0
   39.6900   32.4430   38.7970 C   0  0  0  0  0  0  0  0  0  0  0  0
   40.8240   33.2400   38.8150 C   0  0  0  0  0  0  0  0  0  0  0  0
   40.8370   34.3550   39.5710 N   0  0  0  0  0  0  0  0  0  0  0  0
   39.7800   34.7230   40.3150 C   0  0  0  0  0  0  0  0  0  0  0  0
   38.6780   33.9730   40.3130 N   0  0  0  0  0  0  0  0  0  0  0  0
   39.5830   31.5330   38.2300 H   0  0  0  0  0  0  0  0  0  0  0  0
   41.6640   32.9300   38.2130 H   0  0  0  0  0  0  0  0  0  0  0  0
   39.7650   35.6320   40.9360 H   0  0  0  0  0  0  0  0  0  0  0  0
  1  3  1  0  0  0  0
  2  1  1  0  0  0  0
  4  1  1  0  0  0  0
  4  8  1  0  0  0  0
  5  6  1  0  0  0  0
  5  4  2  0  0  0  0
  6  7  1  0  0  0  0
  7  8  2  0  0  0  0
  7 11  1  0  0  0  0
  9  5  1  0  0  0  0
 10  6  1  0  0  0  0
 11 15  1  0  0  0  0
 11 12  1  0  0  0  0
 13 12  1  0  0  0  0
 14 13  1  0  0  0  0
 14 15  1  0  0  0  0
 15 16  1  0  0  0  0
 17 18  2  0  0  0  0
 18  1  1  0  0  0  0
 19 17  1  0  0  0  0
 19 24  1  0  0  0  0
 20 21  1  0  0  0  0
 20 19  2  0  0  0  0
 21 22  2  0  0  0  0
 22 23  1  0  0  0  0
 23 27  1  0  0  0  0
 24 23  2  0  0  0  0
 25 20  1  0  0  0  0
 26 21  1  0  0  0  0
M  END
>  <minimizedAffinity>
-5.00606918

$$$$

 OpenBabel03252504393D

 27 29  0  0  0  0  0  0  0  0999 V2000
   38.8350   26.6600   43.4120 C   0  0  0  0  0  0  0  0  0  0  0  0
   39.9190   26.7290   43.6050 H   0  0  0  0  0  0  0  0  0  0  0  0
   38.3230   26.4240   44.3400 H   0  0  0  0  0  0  0  0  0  0  0  0
   38.3390   27.9490   42.8270 C   0  0  0  0  0  0  0  0  0  0  0  0
   37.3220   28.7180   43.3410 C   0  0  0  0  0  0  0  0  0  0  0  0
   37.2390   29.7620   42.4830 N   0  0  0  0  0  0  0  0  0  0  0  0
   38.1420   29.6670   41.4890 C   0  0  0  0  0  0  0  0  0  0  0  0
   38.8260   28.5390   41.7020 N   0  0  0  0  0  0  0  0  0  0  0  0
   36.7490   28.4930   44.2290 H   0  0  0  0  0  0  0  0  0  0  0  0
   36.4960   30.4930   42.7040 H   0  0  0  0  0  0  0  0  0  0  0  0
   38.1600   30.6980   40.5340 N   0  0  0  0  0  0  0  0  0  0  0  0
   39.2860   31.6040   40.2380 C   0  0  0  0  0  2  0  0  0  0  0  0
   38.6270   32.9050   40.7480 C   0  0  0  0  0  2  0  0  0  0  0  0
   37.2930   32.7890   40.0020 C   0  0  0  0  0  2  0  0  0  0  0  0
   37.2870   31.3010   39.5510 C   0  0  0  0  0  3  0  0  0  0  0  0
   37.6960   31.2520   38.5130 H   0  0  0  0  0  0  0  0  0  0  0  0
   37.3540   25.2250   42.0650 C   0  0  0  0  0  3  0  0  0  0  0  0
   38.5810   25.5480   42.4610 C   0  0  0  0  0  3  0  0  0  0  0  0
   37.2390   24.1020   41.1290 C   0  0  0  0  0  0  0  0  0  0  0  0
   36.0870   23.9280   40.3190 C   0  0  0  0  0  0  0  0  0  0  0  0
   36.0510   22.8390   39.4620 C   0  0  0  0  0  0  0  0  0  0  0  0
   37.0980   21.9910   39.4260 N   0  0  0  0  0  0  0  0  0  0  0  0
   38.1830   22.1660   40.2000 C   0  0  0  0  0  0  0  0  0  0  0  0
   38.2400   23.2060   41.0320 N   0  0  0  0  0  0  0  0  0  0  0  0
   35.3020   24.6590   40.4240 H   0  0  0  0  0  0  0  0  0  0  0  0
   35.1730   22.7130   38.8480 H   0  0  0  0  0  0  0  0  0  0  0  0
   39.0510   21.4900   40.1840 H   0  0  0  0  0  0  0  0  0  0  0  0
  1  2  1  0  0  0  0
  1  3  1  0  0  0  0
  4  5  2  0  0  0  0
  4  1  1  0  0  0  0
  5  9  1  0  0  0  0
  6 10  1  0  0  0  0
  6  5  1  0  0  0  0
  7  8  2  0  0  0  0
  7  6  1  0  0  0  0
  8  4  1  0  0  0  0
 11  7  1  0  0  0  0
 12 11  1  0  0  0  0
 12 13  1  0  0  0  0
 14 13  1  0  0  0  0
 15 14  1  0  0  0  0
 15 11  1  0  0  0  0
 16 15  1  0  0  0  0
 17 18  2  0  0  0  0
 18  1  1  0  0  0  0
 19 17  1  0  0  0  0
 20 25  1  0  0  0  0
 20 19  2  0  0  0  0
 21 20  1  0  0  0  0
 22 21  2  0  0  0  0
 22 23  1  0  0  0  0
 23 24  2  0  0  0  0
 24 19  1  0  0  0  0
 26 21  1  0  0  0  0
 27 23  1  0  0  0  0
M  END
>  <minimizedAffinity>
-4.98310184

$$$$

 OpenBabel03252504393D

 27 29  0  0  0  0  0  0  0  0999 V2000
   36.3290   30.9940   40.7010 C   0  0  0  0  0  0  0  0  0  0  0  0
   35.7270   30.8910   39.7820 H   0  0  0  0  0  0  0  0  0  0  0  0
   35.7190   31.4500   41.4760 H   0  0  0  0  0  0  0  0  0  0  0  0
   36.8390   29.6500   41.1290 C   0  0  0  0  0  0  0  0  0  0  0  0
   37.3090   29.3380   42.3830 C   0  0  0  0  0  0  0  0  0  0  0  0
   37.6500   28.0310   42.2860 N   0  0  0  0  0  0  0  0  0  0  0  0
   37.4140   27.5420   41.0540 C   0  0  0  0  0  0  0  0  0  0  0  0
   36.9100   28.5480   40.3340 N   0  0  0  0  0  0  0  0  0  0  0  0
   37.3720   30.0190   43.2190 H   0  0  0  0  0  0  0  0  0  0  0  0
   38.0450   27.5830   43.1680 H   0  0  0  0  0  0  0  0  0  0  0  0
   37.7230   26.1890   40.8280 N   0  0  0  0  0  0  0  0  0  0  0  0
   36.7790   25.1250   40.4380 C   0  0  0  0  0  2  0  0  0  0  0  0
   36.8630   24.3030   41.7430 C   0  0  0  0  0  2  0  0  0  0  0  0
   38.3900   24.2120   41.8550 C   0  0  0  0  0  2  0  0  0  0  0  0
   38.8660   25.3030   40.8550 C   0  0  0  0  0  3  0  0  0  0  0  0
   39.0610   24.8110   39.8720 H   0  0  0  0  0  0  0  0  0  0  0  0
   38.2730   31.7410   39.3870 C   0  0  0  0  0  3  0  0  0  0  0  0
   37.4720   31.9030   40.4350 C   0  0  0  0  0  3  0  0  0  0  0  0
   39.3700   32.7030   39.2420 C   0  0  0  0  0  0  0  0  0  0  0  0
   39.4550   33.8580   40.0630 C   0  0  0  0  0  0  0  0  0  0  0  0
   40.5190   34.7230   39.8620 C   0  0  0  0  0  0  0  0  0  0  0  0
   41.4270   34.4440   38.9070 N   0  0  0  0  0  0  0  0  0  0  0  0
   41.3350   33.3480   38.1350 C   0  0  0  0  0  0  0  0  0  0  0  0
   40.3200   32.5010   38.3100 N   0  0  0  0  0  0  0  0  0  0  0  0
   38.6760   33.9940   40.7960 H   0  0  0  0  0  0  0  0  0  0  0  0
   40.5780   35.5990   40.4900 H   0  0  0  0  0  0  0  0  0  0  0  0
   42.0670   33.0960   37.3530 H   0  0  0  0  0  0  0  0  0  0  0  0
  1  4  1  0  0  0  0
  1  3  1  0  0  0  0
  2  1  1  0  0  0  0
  4  5  2  0  0  0  0
  5  9  1  0  0  0  0
  6  5  1  0  0  0  0
  6 10  1  0  0  0  0
  7  6  1  0  0  0  0
  8  7  2  0  0  0  0
  8  4  1  0  0  0  0
 11 15  1  0  0  0  0
 11  7  1  0  0  0  0
 12 11  1  0  0  0  0
 12 13  1  0  0  0  0
 13 14  1  0  0  0  0
 15 14  1  0  0  0  0
 16 15  1  0  0  0  0
 17 18  2  0  0  0  0
 18  1  1  0  0  0  0
 19 17  1  0  0  0  0
 19 20  1  0  0  0  0
 20 25  1  0  0  0  0
 21 20  2  0  0  0  0
 21 26  1  0  0  0  0
 22 21  1  0  0  0  0
 23 24  1  0  0  0  0
 23 22  2  0  0  0  0
 24 19  2  0  0  0  0
 27 23  1  0  0  0  0
M  END
>  <minimizedAffinity>
-4.92009306

$$$$

 OpenBabel03252504393D

 27 29  0  0  0  0  0  0  0  0999 V2000
   38.9770   32.7280   39.3760 C   0  0  0  0  0  0  0  0  0  0  0  0
   38.2810   33.1330   38.6210 H   0  0  0  0  0  0  0  0  0  0  0  0
   39.3580   33.5450   39.9820 H   0  0  0  0  0  0  0  0  0  0  0  0
   38.2750   31.7040   40.2180 C   0  0  0  0  0  0  0  0  0  0  0  0
   36.9130   31.6070   40.3830 C   0  0  0  0  0  0  0  0  0  0  0  0
   36.7620   30.5500   41.2160 N   0  0  0  0  0  0  0  0  0  0  0  0
   37.9470   30.0090   41.5590 C   0  0  0  0  0  0  0  0  0  0  0  0
   38.8870   30.7270   40.9380 N   0  0  0  0  0  0  0  0  0  0  0  0
   36.1760   32.2540   39.9320 H   0  0  0  0  0  0  0  0  0  0  0  0
   35.7610   30.2970   41.4780 H   0  0  0  0  0  0  0  0  0  0  0  0
   37.9230   28.8970   42.4180 N   0  0  0  0  0  0  0  0  0  0  0  0
   38.4250   27.5420   42.1190 C   0  0  0  0  0  2  0  0  0  0  0  0
   37.0580   26.8220   42.1300 C   0  0  0  0  0  2  0  0  0  0  0  0
   36.5330   27.3560   43.4680 C   0  0  0  0  0  2  0  0  0  0  0  0
   37.4890   28.5490   43.7540 C   0  0  0  0  0  3  0  0  0  0  0  0
   38.3190   28.1790   44.4010 H   0  0  0  0  0  0  0  0  0  0  0  0
   41.0730   32.8250   38.0880 C   0  0  0  0  0  3  0  0  0  0  0  0
   40.1320   32.1020   38.6860 C   0  0  0  0  0  3  0  0  0  0  0  0
   42.1580   32.0830   37.4370 C   0  0  0  0  0  0  0  0  0  0  0  0
   43.5030   32.5340   37.4960 C   0  0  0  0  0  0  0  0  0  0  0  0
   44.4710   31.7810   36.8520 C   0  0  0  0  0  0  0  0  0  0  0  0
   44.1110   30.6590   36.1980 N   0  0  0  0  0  0  0  0  0  0  0  0
   42.8340   30.2430   36.1480 C   0  0  0  0  0  0  0  0  0  0  0  0
   41.8840   30.9520   36.7600 N   0  0  0  0  0  0  0  0  0  0  0  0
   43.6880   33.4450   38.0410 H   0  0  0  0  0  0  0  0  0  0  0  0
   45.4920   32.1280   36.9010 H   0  0  0  0  0  0  0  0  0  0  0  0
   42.5160   29.3280   35.6250 H   0  0  0  0  0  0  0  0  0  0  0  0
  1  3  1  0  0  0  0
  1  4  1  0  0  0  0
  2  1  1  0  0  0  0
  4  5  2  0  0  0  0
  4  8  1  0  0  0  0
  5  6  1  0  0  0  0
  6 10  1  0  0  0  0
  6  7  1  0  0  0  0
  7 11  1  0  0  0  0
  8  7  2  0  0  0  0
  9  5  1  0  0  0  0
 11 15  1  0  0  0  0
 12 13  1  0  0  0  0
 12 11  1  0  0  0  0
 13 14  1  0  0  0  0
 14 15  1  0  0  0  0
 15 16  1  0  0  0  0
 17 18  2  0  0  0  0
 18  1  1  0  0  0  0
 19 20  1  0  0  0  0
 19 17  1  0  0  0  0
 20 25  1  0  0  0  0
 21 26  1  0  0  0  0
 21 20  2  0  0  0  0
 22 21  1  0  0  0  0
 23 22  2  0  0  0  0
 23 24  1  0  0  0  0
 24 19  2  0  0  0  0
 27 23  1  0  0  0  0
M  END
>  <minimizedAffinity>
-4.86469221

$$$$

 OpenBabel03252504393D

 27 29  0  0  0  0  0  0  0  0999 V2000
   36.9930   27.8550   43.3790 C   0  0  0  0  0  0  0  0  0  0  0  0
   37.5200   27.5500   44.2990 H   0  0  0  0  0  0  0  0  0  0  0  0
   35.9800   28.1540   43.6330 H   0  0  0  0  0  0  0  0  0  0  0  0
   37.7400   28.9700   42.7100 C   0  0  0  0  0  0  0  0  0  0  0  0
   39.0710   29.2620   42.8960 C   0  0  0  0  0  0  0  0  0  0  0  0
   39.2830   30.3330   42.0940 N   0  0  0  0  0  0  0  0  0  0  0  0
   38.1640   30.7000   41.4410 C   0  0  0  0  0  0  0  0  0  0  0  0
   37.2040   29.8530   41.8240 N   0  0  0  0  0  0  0  0  0  0  0  0
   39.7470   28.7290   43.5470 H   0  0  0  0  0  0  0  0  0  0  0  0
   40.2730   30.7260   42.0890 H   0  0  0  0  0  0  0  0  0  0  0  0
   38.2570   31.7990   40.5700 N   0  0  0  0  0  0  0  0  0  0  0  0
   38.0100   31.7930   39.1160 C   0  0  0  0  0  2  0  0  0  0  0  0
   39.4610   32.0840   38.6710 C   0  0  0  0  0  2  0  0  0  0  0  0
   39.7340   33.2940   39.5740 C   0  0  0  0  0  2  0  0  0  0  0  0
   38.5780   33.2090   40.6100 C   0  0  0  0  0  3  0  0  0  0  0  0
   37.7440   33.8580   40.2520 H   0  0  0  0  0  0  0  0  0  0  0  0
   37.7930   25.7060   42.4820 C   0  0  0  0  0  3  0  0  0  0  0  0
   36.9020   26.6910   42.4610 C   0  0  0  0  0  3  0  0  0  0  0  0
   37.5930   24.6180   41.5190 C   0  0  0  0  0  0  0  0  0  0  0  0
   38.6270   23.6930   41.2210 C   0  0  0  0  0  0  0  0  0  0  0  0
   38.3630   22.6950   40.2960 C   0  0  0  0  0  0  0  0  0  0  0  0
   37.1470   22.6360   39.7160 N   0  0  0  0  0  0  0  0  0  0  0  0
   36.1770   23.5190   40.0060 C   0  0  0  0  0  0  0  0  0  0  0  0
   36.4080   24.4880   40.8920 N   0  0  0  0  0  0  0  0  0  0  0  0
   39.5650   23.8270   41.7350 H   0  0  0  0  0  0  0  0  0  0  0  0
   39.1520   21.9940   40.0750 H   0  0  0  0  0  0  0  0  0  0  0  0
   35.1760   23.4880   39.5490 H   0  0  0  0  0  0  0  0  0  0  0  0
  1  3  1  0  0  0  0
  1  2  1  0  0  0  0
  4  5  2  0  0  0  0
  4  1  1  0  0  0  0
  5  9  1  0  0  0  0
  6  5  1  0  0  0  0
  7  8  2  0  0  0  0
  7  6  1  0  0  0  0
  8  4  1  0  0  0  0
 10  6  1  0  0  0  0
 11 15  1  0  0  0  0
 11  7  1  0  0  0  0
 12 11  1  0  0  0  0
 13 12  1  0  0  0  0
 13 14  1  0  0  0  0
 14 15  1  0  0  0  0
 16 15  1  0  0  0  0
 18 17  2  0  0  0  0
 18  1  1  0  0  0  0
 19 17  1  0  0  0  0
 20 19  1  0  0  0  0
 20 25  1  0  0  0  0
 21 20  2  0  0  0  0
 22 23  2  0  0  0  0
 22 21  1  0  0  0  0
 23 24  1  0  0  0  0
 24 19  2  0  0  0  0
 26 21  1  0  0  0  0
 27 23  1  0  0  0  0
M  END
>  <minimizedAffinity>
-4.8465724

$$$$

 OpenBabel03252504393D

 27 29  0  0  0  0  0  0  0  0999 V2000
   37.0210   32.4890   39.8950 C   0  0  0  0  0  0  0  0  0  0  0  0
   36.3990   33.2550   40.3900 H   0  0  0  0  0  0  0  0  0  0  0  0
   36.5310   32.1720   38.9790 H   0  0  0  0  0  0  0  0  0  0  0  0
   38.3870   33.0420   39.6200 C   0  0  0  0  0  0  0  0  0  0  0  0
   38.8640   34.2510   40.0720 C   0  0  0  0  0  0  0  0  0  0  0  0
   40.1220   34.3100   39.5750 N   0  0  0  0  0  0  0  0  0  0  0  0
   40.4280   33.2130   38.8550 C   0  0  0  0  0  0  0  0  0  0  0  0
   39.3500   32.4260   38.8830 N   0  0  0  0  0  0  0  0  0  0  0  0
   38.3160   34.9560   40.6790 H   0  0  0  0  0  0  0  0  0  0  0  0
   40.6800   35.1850   39.8120 H   0  0  0  0  0  0  0  0  0  0  0  0
   41.7140   33.1520   38.2890 N   0  0  0  0  0  0  0  0  0  0  0  0
   42.7520   32.1420   38.5690 C   0  0  0  0  0  2  0  0  0  0  0  0
   43.7580   33.0850   39.2650 C   0  0  0  0  0  2  0  0  0  0  0  0
   43.7900   34.1980   38.2110 C   0  0  0  0  0  2  0  0  0  0  0  0
   42.5360   33.8810   37.3480 C   0  0  0  0  0  3  0  0  0  0  0  0
   42.8620   33.2590   36.4800 H   0  0  0  0  0  0  0  0  0  0  0  0
   37.0140   30.0630   40.3190 C   0  0  0  0  0  3  0  0  0  0  0  0
   37.1290   31.3030   40.7820 C   0  0  0  0  0  3  0  0  0  0  0  0
   37.1350   28.9810   41.3000 C   0  0  0  0  0  0  0  0  0  0  0  0
   37.4450   29.2450   42.6600 C   0  0  0  0  0  0  0  0  0  0  0  0
   37.5460   28.1680   43.5270 C   0  0  0  0  0  0  0  0  0  0  0  0
   37.3510   26.9200   43.0570 N   0  0  0  0  0  0  0  0  0  0  0  0
   37.0600   26.6830   41.7660 C   0  0  0  0  0  0  0  0  0  0  0  0
   36.9570   27.7030   40.9140 N   0  0  0  0  0  0  0  0  0  0  0  0
   37.5860   30.2770   42.9370 H   0  0  0  0  0  0  0  0  0  0  0  0
   37.7800   28.3750   44.5590 H   0  0  0  0  0  0  0  0  0  0  0  0
   36.8920   25.6730   41.3610 H   0  0  0  0  0  0  0  0  0  0  0  0
  1  2  1  0  0  0  0
  1 18  1  0  0  0  0
  3  1  1  0  0  0  0
  4  1  1  0  0  0  0
  4  5  2  0  0  0  0
  5  9  1  0  0  0  0
  6 10  1  0  0  0  0
  6  5  1  0  0  0  0
  7  8  2  0  0  0  0
  7  6  1  0  0  0  0
  8  4  1  0  0  0  0
 11 12  1  0  0  0  0
 11  7  1  0  0  0  0
 12 13  1  0  0  0  0
 14 13  1  0  0  0  0
 15 14  1  0  0  0  0
 15 11  1  0  0  0  0
 16 15  1  0  0  0  0
 17 18  2  0  0  0  0
 17 19  1  0  0  0  0
 19 20  1  0  0  0  0
 20 25  1  0  0  0  0
 20 21  2  0  0  0  0
 21 26  1  0  0  0  0
 22 21  1  0  0  0  0
 23 22  2  0  0  0  0
 24 19  2  0  0  0  0
 24 23  1  0  0  0  0
 27 23  1  0  0  0  0
M  END
>  <minimizedAffinity>
-4.79754066

$$$$
