
 OpenBabel03242522143D

 29 31  0  0  0  0  0  0  0  0999 V2000
   45.7390   33.8710   43.9320 C   0  0  0  0  0  0  0  0  0  0  0  0
   44.6810   33.9020   43.1070 C   0  0  0  0  0  0  0  0  0  0  0  0
   45.4010   34.6840   41.5850 S   0  0  0  0  0  0  0  0  0  0  0  0
   47.0720   34.8160   42.4180 C   0  0  0  0  0  0  0  0  0  0  0  0
   46.8350   34.3610   43.4330 N   0  0  0  0  0  0  0  0  0  0  0  0
   43.6380   33.5610   43.2540 H   0  0  0  0  0  0  0  0  0  0  0  0
   45.0760   33.4500   47.6280 C   0  0  0  0  0  0  0  0  0  0  0  0
   45.0980   34.0450   46.3440 C   0  0  0  0  0  0  0  0  0  0  0  0
   45.6740   33.3240   45.3070 C   0  0  0  0  0  0  0  0  0  0  0  0
   46.1760   32.0840   45.6210 N   0  0  0  0  0  0  0  0  0  0  0  0
   46.1310   31.5630   46.8510 C   0  0  0  0  0  0  0  0  0  0  0  0
   45.5790   32.2490   47.8590 N   0  0  0  0  0  0  0  0  0  0  0  0
   44.6420   33.9640   48.4710 H   0  0  0  0  0  0  0  0  0  0  0  0
   46.5690   30.5780   46.9320 H   0  0  0  0  0  0  0  0  0  0  0  0
   44.5270   35.3350   46.2280 N   0  0  0  0  0  0  0  0  0  0  0  0
   43.6890   35.4880   45.6180 H   0  0  0  0  0  0  0  0  0  0  0  0
   44.7410   36.2670   46.6290 H   0  0  0  0  0  0  0  0  0  0  0  0
   48.2620   35.4100   41.7170 C   0  0  0  0  0  0  0  0  0  0  0  0
   48.2830   36.5020   41.8610 H   0  0  0  0  0  0  0  0  0  0  0  0
   48.1710   35.1540   40.6340 H   0  0  0  0  0  0  0  0  0  0  0  0
   49.5430   34.8490   42.2970 C   0  0  0  0  0  0  0  0  0  0  0  0
   50.4290   35.4190   41.9800 H   0  0  0  0  0  0  0  0  0  0  0  0
   49.4760   35.0270   43.4070 H   0  0  0  0  0  0  0  0  0  0  0  0
   49.6160   33.4330   42.1320 N   0  0  0  0  0  0  0  0  0  0  0  0
   50.9960   33.0190   42.3120 C   0  0  0  0  0  0  0  0  0  0  0  0
   50.9840   31.6410   41.6850 C   0  0  0  0  0  0  0  0  0  0  0  0
   50.2620   31.9670   40.3710 C   0  0  0  0  0  0  0  0  0  0  0  0
   49.2010   32.9690   40.8420 C   0  0  0  0  0  0  0  0  0  0  0  0
   48.2750   32.3480   40.9830 H   0  0  0  0  0  0  0  0  0  0  0  0
  1  9  1  0  0  0  0
  2  6  1  0  0  0  0
  2  1  2  0  0  0  0
  3  4  1  0  0  0  0
  3  2  1  0  0  0  0
  4  5  2  0  0  0  0
  5  1  1  0  0  0  0
  7 12  1  0  0  0  0
  7 13  1  0  0  0  0
  8  7  2  0  0  0  0
  9 10  2  0  0  0  0
  9  8  1  0  0  0  0
 10 11  1  0  0  0  0
 11 14  1  0  0  0  0
 11 12  2  0  0  0  0
 15  8  1  0  0  0  0
 15 17  1  0  0  0  0
 16 15  1  0  0  0  0
 18 19  1  0  0  0  0
 18 21  1  0  0  0  0
 18  4  1  0  0  0  0
 20 18  1  0  0  0  0
 21 23  1  0  0  0  0
 22 21  1  0  0  0  0
 24 21  1  0  0  0  0
 24 25  1  0  0  0  0
 26 25  1  0  0  0  0
 27 28  1  0  0  0  0
 27 26  1  0  0  0  0
 28 29  1  0  0  0  0
 28 24  1  0  0  0  0
M  END
>  <minimizedAffinity>
-4.99043083

>  <minimizedRMSD>
2.04337716

$$$$
