
 OpenBabel03252501133D

 36 39  0  0  1  0  0  0  0  0999 V2000
   38.0660   26.6850   39.1720 C   0  0  2  0  0  0  0  0  0  0  0  0
   36.7610   26.9090   38.5560 C   0  0  0  0  0  0  0  0  0  0  0  0
   36.1720   28.1280   38.9640 N   0  0  0  0  0  0  0  0  0  0  0  0
   35.3910   29.2120   39.4400 C   0  0  0  0  0  0  0  0  0  0  0  0
   34.1650   29.1670   39.7860 O   0  0  0  0  0  0  0  0  0  0  0  0
   36.4580   30.1990   39.3590 C   0  0  2  0  0  0  0  0  0  0  0  0
   37.1860   29.0840   38.6380 C   0  0  1  0  0  0  0  0  0  0  0  0
   38.6150   28.3940   39.5190 S   0  0  0  0  0  0  0  0  0  0  0  0
   36.0160   26.0750   38.7320 H   0  0  0  0  0  0  0  0  0  0  0  0
   36.8580   26.9320   37.4380 H   0  0  0  0  0  0  0  0  0  0  0  0
   36.1670   31.0280   38.6850 H   0  0  0  0  0  0  0  0  0  0  0  0
   37.3290   29.2620   37.5620 H   0  0  0  0  0  0  0  0  0  0  0  0
   39.0300   26.1180   38.1690 C   0  0  0  0  0  0  0  0  0  0  0  0
   39.2010   25.0560   38.3950 H   0  0  0  0  0  0  0  0  0  0  0  0
   39.9410   26.7240   38.0510 H   0  0  0  0  0  0  0  0  0  0  0  0
   38.5690   26.1140   37.1370 H   0  0  0  0  0  0  0  0  0  0  0  0
   38.0060   25.8760   40.4570 C   0  0  0  0  0  0  0  0  0  0  0  0
   38.8250   25.1200   40.3810 H   0  0  0  0  0  0  0  0  0  0  0  0
   37.0610   25.2970   40.4150 H   0  0  0  0  0  0  0  0  0  0  0  0
   38.2210   26.6210   41.6220 N   0  0  0  0  0  0  0  0  0  0  0  0
   39.3810   26.1500   42.3320 C   0  0  0  0  0  2  0  0  0  0  0  0
   39.3220   26.9010   43.6470 C   0  0  0  0  0  2  0  0  0  0  0  0
   37.9480   27.5560   43.6690 C   0  0  0  0  0  2  0  0  0  0  0  0
   37.2210   26.7000   42.6150 C   0  0  0  0  0  3  0  0  0  0  0  0
   36.3430   27.3250   42.3340 H   0  0  0  0  0  0  0  0  0  0  0  0
   36.9490   30.5850   40.6820 C   0  0  0  0  0  0  0  0  0  0  0  0
   36.7130   30.0160   41.7740 O   0  0  0  0  0  0  0  0  0  0  0  0
   37.8890   34.0300   39.7520 C   0  0  0  0  0  0  0  0  0  0  0  0
   37.1360   32.8530   39.9240 C   0  0  0  0  0  0  0  0  0  0  0  0
   37.7640   31.7560   40.5310 C   0  0  0  0  0  0  0  0  0  0  0  0
   39.0590   31.8720   40.9230 N   0  0  0  0  0  0  0  0  0  0  0  0
   39.7570   33.0230   40.7430 C   0  0  0  0  0  0  0  0  0  0  0  0
   39.1770   34.1180   40.1530 N   0  0  0  0  0  0  0  0  0  0  0  0
   37.4630   34.9080   39.2920 H   0  0  0  0  0  0  0  0  0  0  0  0
   36.1250   32.9220   39.5620 H   0  0  0  0  0  0  0  0  0  0  0  0
   40.7760   33.1170   41.0480 H   0  0  0  0  0  0  0  0  0  0  0  0
  1 13  1  6  0  0  0
  1  8  1  0  0  0  0
  1 17  1  0  0  0  0
  2  9  1  0  0  0  0
  2  3  1  0  0  0  0
  2  1  1  0  0  0  0
  3  4  1  0  0  0  0
  4  5  2  0  0  0  0
  6 11  1  6  0  0  0
  6  4  1  0  0  0  0
  6 26  1  0  0  0  0
  7 12  1  6  0  0  0
  7  3  1  0  0  0  0
  7  6  1  0  0  0  0
  7  8  1  0  0  0  0
 10  2  1  0  0  0  0
 13 14  1  0  0  0  0
 15 13  1  0  0  0  0
 16 13  1  0  0  0  0
 17 20  1  0  0  0  0
 18 17  1  0  0  0  0
 19 17  1  0  0  0  0
 20 21  1  0  0  0  0
 20 24  1  0  0  0  0
 21 22  1  0  0  0  0
 22 23  1  0  0  0  0
 24 23  1  0  0  0  0
 25 24  1  0  0  0  0
 26 27  2  0  0  0  0
 28 29  2  0  0  0  0
 28 33  1  0  0  0  0
 29 30  1  0  0  0  0
 30 26  1  0  0  0  0
 30 31  2  0  0  0  0
 32 31  1  0  0  0  0
 32 36  1  0  0  0  0
 33 32  2  0  0  0  0
 34 28  1  0  0  0  0
 35 29  1  0  0  0  0
M  END
>  <minimizedAffinity>
-5.10650349

$$$$

 OpenBabel03252501133D

 36 39  0  0  1  0  0  0  0  0999 V2000
   37.3730   28.2080   42.1850 C   0  0  2  0  0  0  0  0  0  0  0  0
   37.3930   29.6570   42.3690 C   0  0  0  0  0  0  0  0  0  0  0  0
   37.3310   30.3600   41.1450 N   0  0  0  0  0  0  0  0  0  0  0  0
   37.4730   31.1750   39.9930 C   0  0  0  0  0  0  0  0  0  0  0  0
   38.3000   32.1330   39.8420 O   0  0  0  0  0  0  0  0  0  0  0  0
   36.4290   30.5140   39.2240 C   0  0  2  0  0  0  0  0  0  0  0  0
   36.1460   29.8270   40.5440 C   0  0  1  0  0  0  0  0  0  0  0  0
   36.5030   28.0470   40.5840 S   0  0  0  0  0  0  0  0  0  0  0  0
   38.2840   30.0360   42.9560 H   0  0  0  0  0  0  0  0  0  0  0  0
   36.5200   29.9790   42.9960 H   0  0  0  0  0  0  0  0  0  0  0  0
   35.6410   31.2380   38.9400 H   0  0  0  0  0  0  0  0  0  0  0  0
   35.2040   30.1350   41.0190 H   0  0  0  0  0  0  0  0  0  0  0  0
   36.4970   27.5580   43.2170 C   0  0  0  0  0  0  0  0  0  0  0  0
   37.1310   27.0400   43.9510 H   0  0  0  0  0  0  0  0  0  0  0  0
   35.6910   26.9480   42.7820 H   0  0  0  0  0  0  0  0  0  0  0  0
   35.9510   28.3420   43.8220 H   0  0  0  0  0  0  0  0  0  0  0  0
   38.7550   27.5810   42.1020 C   0  0  0  0  0  0  0  0  0  0  0  0
   39.3430   28.0250   42.9420 H   0  0  0  0  0  0  0  0  0  0  0  0
   39.2180   27.9730   41.1740 H   0  0  0  0  0  0  0  0  0  0  0  0
   38.7710   26.1900   42.2590 N   0  0  0  0  0  0  0  0  0  0  0  0
   39.7560   25.7890   43.2290 C   0  0  0  0  0  2  0  0  0  0  0  0
   39.7900   24.2800   43.0960 C   0  0  0  0  0  2  0  0  0  0  0  0
   38.9850   23.9720   41.8420 C   0  0  0  0  0  2  0  0  0  0  0  0
   39.0180   25.3490   41.1520 C   0  0  0  0  0  3  0  0  0  0  0  0
   38.1790   25.2930   40.4220 H   0  0  0  0  0  0  0  0  0  0  0  0
   36.9780   29.7000   38.1400 C   0  0  0  0  0  0  0  0  0  0  0  0
   38.1490   29.2630   38.0380 O   0  0  0  0  0  0  0  0  0  0  0  0
   35.3360   29.4010   34.8490 C   0  0  0  0  0  0  0  0  0  0  0  0
   36.3180   29.6100   35.8350 C   0  0  0  0  0  0  0  0  0  0  0  0
   35.9370   29.4770   37.1780 C   0  0  0  0  0  0  0  0  0  0  0  0
   34.6500   29.1550   37.4700 N   0  0  0  0  0  0  0  0  0  0  0  0
   33.7270   28.9590   36.4930 C   0  0  0  0  0  0  0  0  0  0  0  0
   34.0620   29.0800   35.1670 N   0  0  0  0  0  0  0  0  0  0  0  0
   35.5670   29.4890   33.7990 H   0  0  0  0  0  0  0  0  0  0  0  0
   37.2890   29.8570   35.4430 H   0  0  0  0  0  0  0  0  0  0  0  0
   32.7130   28.7090   36.7170 H   0  0  0  0  0  0  0  0  0  0  0  0
  1 17  1  6  0  0  0
  1  2  1  0  0  0  0
  1 13  1  0  0  0  0
  2  9  1  0  0  0  0
  2 10  1  0  0  0  0
  3  2  1  0  0  0  0
  4  3  1  0  0  0  0
  5  4  2  0  0  0  0
  6 11  1  6  0  0  0
  6  4  1  0  0  0  0
  6  7  1  0  0  0  0
  7  8  1  0  0  0  0
  7 12  1  1  0  0  0
  7  3  1  0  0  0  0
  8  1  1  0  0  0  0
 13 16  1  0  0  0  0
 13 14  1  0  0  0  0
 15 13  1  0  0  0  0
 17 20  1  0  0  0  0
 17 18  1  0  0  0  0
 19 17  1  0  0  0  0
 20 21  1  0  0  0  0
 22 21  1  0  0  0  0
 23 22  1  0  0  0  0
 24 23  1  0  0  0  0
 24 20  1  0  0  0  0
 25 24  1  0  0  0  0
 26  6  1  0  0  0  0
 27 26  2  0  0  0  0
 28 33  2  0  0  0  0
 28 29  1  0  0  0  0
 29 30  2  0  0  0  0
 30 31  1  0  0  0  0
 30 26  1  0  0  0  0
 32 36  1  0  0  0  0
 32 31  2  0  0  0  0
 33 32  1  0  0  0  0
 34 28  1  0  0  0  0
 35 29  1  0  0  0  0
M  END
>  <minimizedAffinity>
-5.07508707

$$$$

 OpenBabel03252501133D

 36 39  0  0  1  0  0  0  0  0999 V2000
   37.5470   27.3170   42.7790 C   0  0  2  0  0  0  0  0  0  0  0  0
   38.7620   27.5080   43.5650 C   0  0  0  0  0  0  0  0  0  0  0  0
   39.6180   28.4870   43.0120 N   0  0  0  0  0  0  0  0  0  0  0  0
   40.6460   29.2940   42.4610 C   0  0  0  0  0  0  0  0  0  0  0  0
   41.8820   28.9910   42.3760 O   0  0  0  0  0  0  0  0  0  0  0  0
   39.7770   30.4070   42.1100 C   0  0  2  0  0  0  0  0  0  0  0  0
   38.7570   29.6270   42.9120 C   0  0  1  0  0  0  0  0  0  0  0  0
   37.3770   28.9400   41.9540 S   0  0  0  0  0  0  0  0  0  0  0  0
   39.3600   26.5600   43.7300 H   0  0  0  0  0  0  0  0  0  0  0  0
   38.5020   27.8290   44.6090 H   0  0  0  0  0  0  0  0  0  0  0  0
   40.1090   31.3320   42.6210 H   0  0  0  0  0  0  0  0  0  0  0  0
   38.4880   30.0910   43.8710 H   0  0  0  0  0  0  0  0  0  0  0  0
   36.3540   27.1660   43.6800 C   0  0  0  0  0  0  0  0  0  0  0  0
   36.0290   26.1160   43.6720 H   0  0  0  0  0  0  0  0  0  0  0  0
   35.5620   27.9030   43.4800 H   0  0  0  0  0  0  0  0  0  0  0  0
   36.6450   27.3620   44.7550 H   0  0  0  0  0  0  0  0  0  0  0  0
   37.6520   26.2070   41.7470 C   0  0  0  0  0  0  0  0  0  0  0  0
   36.7480   25.5670   41.8920 H   0  0  0  0  0  0  0  0  0  0  0  0
   38.5140   25.5800   42.0530 H   0  0  0  0  0  0  0  0  0  0  0  0
   37.6530   26.6470   40.4180 N   0  0  0  0  0  0  0  0  0  0  0  0
   36.5350   26.1050   39.6910 C   0  0  0  0  0  2  0  0  0  0  0  0
   36.8250   26.4920   38.2550 C   0  0  0  0  0  2  0  0  0  0  0  0
   38.2560   27.0090   38.2630 C   0  0  0  0  0  2  0  0  0  0  0  0
   38.7610   26.3930   39.5810 C   0  0  0  0  0  3  0  0  0  0  0  0
   39.6650   26.9980   39.8200 H   0  0  0  0  0  0  0  0  0  0  0  0
   39.5710   30.5070   40.6650 C   0  0  0  0  0  0  0  0  0  0  0  0
   39.8690   29.6540   39.7950 O   0  0  0  0  0  0  0  0  0  0  0  0
   37.2340   32.9570   39.2010 C   0  0  0  0  0  0  0  0  0  0  0  0
   37.8710   31.7400   39.5060 C   0  0  0  0  0  0  0  0  0  0  0  0
   38.9610   31.7750   40.3880 C   0  0  0  0  0  0  0  0  0  0  0  0
   39.3530   32.9690   40.9050 N   0  0  0  0  0  0  0  0  0  0  0  0
   38.7150   34.1250   40.5880 C   0  0  0  0  0  0  0  0  0  0  0  0
   37.6440   34.1310   39.7300 N   0  0  0  0  0  0  0  0  0  0  0  0
   36.3900   32.9970   38.5290 H   0  0  0  0  0  0  0  0  0  0  0  0
   37.4410   30.8840   39.0170 H   0  0  0  0  0  0  0  0  0  0  0  0
   39.0220   35.0660   40.9910 H   0  0  0  0  0  0  0  0  0  0  0  0
  1 17  1  6  0  0  0
  1  2  1  0  0  0  0
  1 13  1  0  0  0  0
  2  9  1  0  0  0  0
  2 10  1  0  0  0  0
  3  2  1  0  0  0  0
  4  3  1  0  0  0  0
  5  4  2  0  0  0  0
  6  4  1  0  0  0  0
  6 11  1  1  0  0  0
  6  7  1  0  0  0  0
  7  3  1  0  0  0  0
  7 12  1  1  0  0  0
  8  1  1  0  0  0  0
  8  7  1  0  0  0  0
 13 16  1  0  0  0  0
 14 13  1  0  0  0  0
 15 13  1  0  0  0  0
 17 18  1  0  0  0  0
 17 19  1  0  0  0  0
 20 17  1  0  0  0  0
 21 20  1  0  0  0  0
 22 23  1  0  0  0  0
 22 21  1  0  0  0  0
 23 24  1  0  0  0  0
 24 25  1  0  0  0  0
 24 20  1  0  0  0  0
 26  6  1  0  0  0  0
 27 26  2  0  0  0  0
 28 29  2  0  0  0  0
 28 33  1  0  0  0  0
 29 30  1  0  0  0  0
 30 26  1  0  0  0  0
 30 31  2  0  0  0  0
 32 31  1  0  0  0  0
 32 36  1  0  0  0  0
 33 32  2  0  0  0  0
 34 28  1  0  0  0  0
 35 29  1  0  0  0  0
M  END
>  <minimizedAffinity>
-4.99773312

$$$$

 OpenBabel03252501133D

 36 39  0  0  1  0  0  0  0  0999 V2000
   36.9170   27.0200   39.2560 C   0  0  2  0  0  0  0  0  0  0  0  0
   35.8190   27.9610   39.4560 C   0  0  0  0  0  0  0  0  0  0  0  0
   36.2710   29.2710   39.7340 N   0  0  0  0  0  0  0  0  0  0  0  0
   36.5870   30.5680   40.2140 C   0  0  0  0  0  0  0  0  0  0  0  0
   36.0270   31.1710   41.1880 O   0  0  0  0  0  0  0  0  0  0  0  0
   37.6480   30.8190   39.2500 C   0  0  2  0  0  0  0  0  0  0  0  0
   37.1290   29.5430   38.6210 C   0  0  1  0  0  0  0  0  0  0  0  0
   38.2610   28.1260   38.6950 S   0  0  0  0  0  0  0  0  0  0  0  0
   35.0880   27.6550   40.2640 H   0  0  0  0  0  0  0  0  0  0  0  0
   35.1770   28.0080   38.5360 H   0  0  0  0  0  0  0  0  0  0  0  0
   37.4170   31.7200   38.6470 H   0  0  0  0  0  0  0  0  0  0  0  0
   36.6130   29.6920   37.6620 H   0  0  0  0  0  0  0  0  0  0  0  0
   36.6160   26.0940   38.1120 C   0  0  0  0  0  0  0  0  0  0  0  0
   36.3800   25.0970   38.5100 H   0  0  0  0  0  0  0  0  0  0  0  0
   37.3830   26.1150   37.3230 H   0  0  0  0  0  0  0  0  0  0  0  0
   35.6700   26.4160   37.5830 H   0  0  0  0  0  0  0  0  0  0  0  0
   37.3300   26.2830   40.5200 C   0  0  0  0  0  0  0  0  0  0  0  0
   38.2140   25.6610   40.2370 H   0  0  0  0  0  0  0  0  0  0  0  0
   36.5150   25.5630   40.7390 H   0  0  0  0  0  0  0  0  0  0  0  0
   37.7160   27.1150   41.5770 N   0  0  0  0  0  0  0  0  0  0  0  0
   38.9850   26.7080   42.1200 C   0  0  0  0  0  2  0  0  0  0  0  0
   39.1250   27.5550   43.3690 C   0  0  0  0  0  2  0  0  0  0  0  0
   37.7610   28.1990   43.5680 C   0  0  0  0  0  2  0  0  0  0  0  0
   36.8890   27.2610   42.7120 C   0  0  0  0  0  3  0  0  0  0  0  0
   35.9660   27.8560   42.5330 H   0  0  0  0  0  0  0  0  0  0  0  0
   38.9720   30.7800   39.8700 C   0  0  0  0  0  0  0  0  0  0  0  0
   39.3040   30.1690   40.9130 O   0  0  0  0  0  0  0  0  0  0  0  0
   41.0480   33.6630   38.8720 C   0  0  0  0  0  0  0  0  0  0  0  0
   40.1790   32.8370   39.6090 C   0  0  0  0  0  0  0  0  0  0  0  0
   39.8600   31.5800   39.0760 C   0  0  0  0  0  0  0  0  0  0  0  0
   40.3960   31.2150   37.8820 N   0  0  0  0  0  0  0  0  0  0  0  0
   41.2310   32.0370   37.1960 C   0  0  0  0  0  0  0  0  0  0  0  0
   41.5680   33.2740   37.6860 N   0  0  0  0  0  0  0  0  0  0  0  0
   41.3310   34.6410   39.2290 H   0  0  0  0  0  0  0  0  0  0  0  0
   39.8410   33.2700   40.5350 H   0  0  0  0  0  0  0  0  0  0  0  0
   41.6530   31.7550   36.2560 H   0  0  0  0  0  0  0  0  0  0  0  0
  1 13  1  6  0  0  0
  1  2  1  0  0  0  0
  1 17  1  0  0  0  0
  2  3  1  0  0  0  0
  2  9  1  0  0  0  0
  3  4  1  0  0  0  0
  4  5  2  0  0  0  0
  6 11  1  6  0  0  0
  6 26  1  0  0  0  0
  6  4  1  0  0  0  0
  7 12  1  6  0  0  0
  7  8  1  0  0  0  0
  7  6  1  0  0  0  0
  7  3  1  0  0  0  0
  8  1  1  0  0  0  0
 10  2  1  0  0  0  0
 13 14  1  0  0  0  0
 15 13  1  0  0  0  0
 16 13  1  0  0  0  0
 17 19  1  0  0  0  0
 17 20  1  0  0  0  0
 18 17  1  0  0  0  0
 20 21  1  0  0  0  0
 20 24  1  0  0  0  0
 21 22  1  0  0  0  0
 22 23  1  0  0  0  0
 24 23  1  0  0  0  0
 25 24  1  0  0  0  0
 26 27  2  0  0  0  0
 28 34  1  0  0  0  0
 28 29  1  0  0  0  0
 29 35  1  0  0  0  0
 30 29  2  0  0  0  0
 30 26  1  0  0  0  0
 31 30  1  0  0  0  0
 32 33  1  0  0  0  0
 32 31  2  0  0  0  0
 33 28  2  0  0  0  0
 36 32  1  0  0  0  0
M  END
>  <minimizedAffinity>
-4.88284874

$$$$

 OpenBabel03252501133D

 36 39  0  0  1  0  0  0  0  0999 V2000
   36.9200   30.4540   40.3770 C   0  0  2  0  0  0  0  0  0  0  0  0
   36.9560   31.8900   40.1140 C   0  0  0  0  0  0  0  0  0  0  0  0
   38.2290   32.3300   39.6830 N   0  0  0  0  0  0  0  0  0  0  0  0
   39.4910   32.9280   39.4380 C   0  0  0  0  0  0  0  0  0  0  0  0
   39.9520   33.9780   39.9960 O   0  0  0  0  0  0  0  0  0  0  0  0
   39.9160   31.9550   38.4430 C   0  0  2  0  0  0  0  0  0  0  0  0
   38.4810   31.4850   38.5560 C   0  0  1  0  0  0  0  0  0  0  0  0
   38.2590   29.8410   39.2930 S   0  0  0  0  0  0  0  0  0  0  0  0
   36.6330   32.5290   40.9910 H   0  0  0  0  0  0  0  0  0  0  0  0
   36.2130   32.1560   39.3170 H   0  0  0  0  0  0  0  0  0  0  0  0
   40.1290   32.4560   37.4790 H   0  0  0  0  0  0  0  0  0  0  0  0
   37.8670   31.6960   37.6690 H   0  0  0  0  0  0  0  0  0  0  0  0
   35.6420   29.8560   39.8610 C   0  0  0  0  0  0  0  0  0  0  0  0
   34.9920   29.6100   40.7130 H   0  0  0  0  0  0  0  0  0  0  0  0
   35.8040   29.0380   39.1440 H   0  0  0  0  0  0  0  0  0  0  0  0
   35.0560   30.6240   39.2740 H   0  0  0  0  0  0  0  0  0  0  0  0
   37.2010   30.0890   41.8250 C   0  0  0  0  0  0  0  0  0  0  0  0
   36.2120   30.1090   42.3440 H   0  0  0  0  0  0  0  0  0  0  0  0
   37.7800   30.9340   42.2510 H   0  0  0  0  0  0  0  0  0  0  0  0
   37.7510   28.8140   42.0060 N   0  0  0  0  0  0  0  0  0  0  0  0
   36.7790   27.9030   42.5520 C   0  0  0  0  0  2  0  0  0  0  0  0
   37.5960   26.6720   42.8880 C   0  0  0  0  0  2  0  0  0  0  0  0
   39.0480   27.1050   42.7380 C   0  0  0  0  0  2  0  0  0  0  0  0
   38.8860   28.6340   42.8260 C   0  0  0  0  0  3  0  0  0  0  0  0
   39.8340   29.0200   42.3870 H   0  0  0  0  0  0  0  0  0  0  0  0
   40.9620   31.0700   38.9550 C   0  0  0  0  0  0  0  0  0  0  0  0
   41.1720   30.7560   40.1510 O   0  0  0  0  0  0  0  0  0  0  0  0
   42.1910   28.7950   36.3230 C   0  0  0  0  0  0  0  0  0  0  0  0
   41.4590   29.3000   37.4130 C   0  0  0  0  0  0  0  0  0  0  0  0
   41.7390   30.6060   37.8410 C   0  0  0  0  0  0  0  0  0  0  0  0
   42.6940   31.3230   37.1930 N   0  0  0  0  0  0  0  0  0  0  0  0
   43.3810   30.8040   36.1430 C   0  0  0  0  0  0  0  0  0  0  0  0
   43.1360   29.5300   35.6950 N   0  0  0  0  0  0  0  0  0  0  0  0
   42.0230   27.7980   35.9470 H   0  0  0  0  0  0  0  0  0  0  0  0
   40.7390   28.6110   37.8170 H   0  0  0  0  0  0  0  0  0  0  0  0
   44.1350   31.3630   35.6320 H   0  0  0  0  0  0  0  0  0  0  0  0
  1 13  1  6  0  0  0
  1 17  1  0  0  0  0
  2  1  1  0  0  0  0
  2  9  1  0  0  0  0
  3  2  1  0  0  0  0
  4  3  1  0  0  0  0
  4  5  2  0  0  0  0
  6 11  1  6  0  0  0
  6  7  1  0  0  0  0
  6 26  1  0  0  0  0
  6  4  1  0  0  0  0
  7 12  1  6  0  0  0
  7  8  1  0  0  0  0
  7  3  1  0  0  0  0
  8  1  1  0  0  0  0
 10  2  1  0  0  0  0
 13 14  1  0  0  0  0
 15 13  1  0  0  0  0
 16 13  1  0  0  0  0
 17 20  1  0  0  0  0
 17 19  1  0  0  0  0
 17 18  1  0  0  0  0
 20 21  1  0  0  0  0
 20 24  1  0  0  0  0
 21 22  1  0  0  0  0
 23 24  1  0  0  0  0
 23 22  1  0  0  0  0
 25 24  1  0  0  0  0
 26 27  2  0  0  0  0
 28 29  1  0  0  0  0
 29 35  1  0  0  0  0
 29 30  2  0  0  0  0
 30 26  1  0  0  0  0
 31 30  1  0  0  0  0
 32 31  2  0  0  0  0
 33 32  1  0  0  0  0
 33 28  2  0  0  0  0
 34 28  1  0  0  0  0
 36 32  1  0  0  0  0
M  END
>  <minimizedAffinity>
-4.83558702

$$$$

 OpenBabel03252501133D

 36 39  0  0  1  0  0  0  0  0999 V2000
   36.4060   28.4820   39.3870 C   0  0  2  0  0  0  0  0  0  0  0  0
   35.7300   29.6660   38.8640 C   0  0  0  0  0  0  0  0  0  0  0  0
   36.6170   30.7460   38.6510 N   0  0  0  0  0  0  0  0  0  0  0  0
   37.3550   31.9550   38.5810 C   0  0  0  0  0  0  0  0  0  0  0  0
   36.9810   33.0950   39.0120 O   0  0  0  0  0  0  0  0  0  0  0  0
   38.5110   31.3750   37.9140 C   0  0  2  0  0  0  0  0  0  0  0  0
   37.6070   30.1660   37.7940 C   0  0  1  0  0  0  0  0  0  0  0  0
   38.1100   28.7200   38.7690 S   0  0  0  0  0  0  0  0  0  0  0  0
   34.8710   30.0290   39.5060 H   0  0  0  0  0  0  0  0  0  0  0  0
   35.2350   29.4290   37.8850 H   0  0  0  0  0  0  0  0  0  0  0  0
   38.6890   31.8760   36.9430 H   0  0  0  0  0  0  0  0  0  0  0  0
   37.2700   29.9560   36.7690 H   0  0  0  0  0  0  0  0  0  0  0  0
   35.8790   27.2400   38.7270 C   0  0  0  0  0  0  0  0  0  0  0  0
   35.2520   26.6910   39.4430 H   0  0  0  0  0  0  0  0  0  0  0  0
   36.6630   26.6430   38.2360 H   0  0  0  0  0  0  0  0  0  0  0  0
   35.1740   27.5090   37.8860 H   0  0  0  0  0  0  0  0  0  0  0  0
   36.4000   28.3920   40.9040 C   0  0  0  0  0  0  0  0  0  0  0  0
   35.9510   27.4000   41.1510 H   0  0  0  0  0  0  0  0  0  0  0  0
   35.6680   29.1470   41.2560 H   0  0  0  0  0  0  0  0  0  0  0  0
   37.6690   28.4440   41.4940 N   0  0  0  0  0  0  0  0  0  0  0  0
   37.9900   27.2000   42.1420 C   0  0  0  0  0  2  0  0  0  0  0  0
   39.2630   27.5130   42.9010 C   0  0  0  0  0  2  0  0  0  0  0  0
   39.4120   29.0260   42.8210 C   0  0  0  0  0  2  0  0  0  0  0  0
   37.9670   29.4230   42.4660 C   0  0  0  0  0  3  0  0  0  0  0  0
   38.0740   30.4550   42.0600 H   0  0  0  0  0  0  0  0  0  0  0  0
   39.6640   31.2730   38.8090 C   0  0  0  0  0  0  0  0  0  0  0  0
   39.6540   31.2640   40.0620 O   0  0  0  0  0  0  0  0  0  0  0  0
   42.7710   32.3400   37.1280 C   0  0  0  0  0  0  0  0  0  0  0  0
   41.5980   32.3680   37.9060 C   0  0  0  0  0  0  0  0  0  0  0  0
   40.8480   31.1870   38.0020 C   0  0  0  0  0  0  0  0  0  0  0  0
   41.2780   30.0780   37.3470 N   0  0  0  0  0  0  0  0  0  0  0  0
   42.4150   30.0860   36.6050 C   0  0  0  0  0  0  0  0  0  0  0  0
   43.1760   31.2210   36.4870 N   0  0  0  0  0  0  0  0  0  0  0  0
   43.3910   33.2160   37.0150 H   0  0  0  0  0  0  0  0  0  0  0  0
   41.3950   33.3210   38.3610 H   0  0  0  0  0  0  0  0  0  0  0  0
   42.7550   29.2160   36.0860 H   0  0  0  0  0  0  0  0  0  0  0  0
  1 13  1  6  0  0  0
  1 17  1  0  0  0  0
  2  1  1  0  0  0  0
  2  9  1  0  0  0  0
  3  2  1  0  0  0  0
  4  3  1  0  0  0  0
  4  5  2  0  0  0  0
  6 11  1  6  0  0  0
  6  4  1  0  0  0  0
  6 26  1  0  0  0  0
  7 12  1  6  0  0  0
  7  6  1  0  0  0  0
  7  3  1  0  0  0  0
  7  8  1  0  0  0  0
  8  1  1  0  0  0  0
 10  2  1  0  0  0  0
 13 14  1  0  0  0  0
 15 13  1  0  0  0  0
 16 13  1  0  0  0  0
 17 18  1  0  0  0  0
 17 19  1  0  0  0  0
 17 20  1  0  0  0  0
 20 21  1  0  0  0  0
 20 24  1  0  0  0  0
 21 22  1  0  0  0  0
 23 22  1  0  0  0  0
 24 23  1  0  0  0  0
 25 24  1  0  0  0  0
 26 27  2  0  0  0  0
 28 29  1  0  0  0  0
 29 30  2  0  0  0  0
 29 35  1  0  0  0  0
 30 26  1  0  0  0  0
 31 30  1  0  0  0  0
 32 31  2  0  0  0  0
 33 32  1  0  0  0  0
 33 28  2  0  0  0  0
 34 28  1  0  0  0  0
 36 32  1  0  0  0  0
M  END
>  <minimizedAffinity>
-4.77770901

$$$$

 OpenBabel03252501133D

 36 39  0  0  1  0  0  0  0  0999 V2000
   37.1330   29.2280   39.0160 C   0  0  2  0  0  0  0  0  0  0  0  0
   36.6020   30.4400   38.3990 C   0  0  0  0  0  0  0  0  0  0  0  0
   37.3080   31.6020   38.7900 N   0  0  0  0  0  0  0  0  0  0  0  0
   37.7970   32.8500   39.2510 C   0  0  0  0  0  0  0  0  0  0  0  0
   37.0950   33.8560   39.5980 O   0  0  0  0  0  0  0  0  0  0  0  0
   39.2050   32.4930   39.1550 C   0  0  2  0  0  0  0  0  0  0  0  0
   38.6580   31.2700   38.4490 C   0  0  1  0  0  0  0  0  0  0  0  0
   38.8700   29.7020   39.3390 S   0  0  0  0  0  0  0  0  0  0  0  0
   35.4990   30.6110   38.5870 H   0  0  0  0  0  0  0  0  0  0  0  0
   36.6610   30.3630   37.2810 H   0  0  0  0  0  0  0  0  0  0  0  0
   39.7330   33.1840   38.4690 H   0  0  0  0  0  0  0  0  0  0  0  0
   38.8720   31.2390   37.3710 H   0  0  0  0  0  0  0  0  0  0  0  0
   37.1720   28.1040   38.0210 C   0  0  0  0  0  0  0  0  0  0  0  0
   36.3770   27.3830   38.2630 H   0  0  0  0  0  0  0  0  0  0  0  0
   38.1750   27.6700   37.8940 H   0  0  0  0  0  0  0  0  0  0  0  0
   36.9040   28.4800   36.9900 H   0  0  0  0  0  0  0  0  0  0  0  0
   36.4390   28.8460   40.3130 C   0  0  0  0  0  0  0  0  0  0  0  0
   35.7860   27.9740   40.0660 H   0  0  0  0  0  0  0  0  0  0  0  0
   35.7470   29.6790   40.5510 H   0  0  0  0  0  0  0  0  0  0  0  0
   37.3040   28.4530   41.3410 N   0  0  0  0  0  0  0  0  0  0  0  0
   37.1280   27.0610   41.6630 C   0  0  0  0  0  2  0  0  0  0  0  0
   37.9580   26.8800   42.9170 C   0  0  0  0  0  2  0  0  0  0  0  0
   38.3320   28.2890   43.3540 C   0  0  0  0  0  2  0  0  0  0  0  0
   37.2670   29.1020   42.5940 C   0  0  0  0  0  3  0  0  0  0  0  0
   37.6850   30.1340   42.5890 H   0  0  0  0  0  0  0  0  0  0  0  0
   39.8120   32.3010   40.4710 C   0  0  0  0  0  0  0  0  0  0  0  0
   39.2480   31.8970   41.5160 O   0  0  0  0  0  0  0  0  0  0  0  0
   43.4390   31.9350   39.8980 C   0  0  0  0  0  0  0  0  0  0  0  0
   42.0680   31.6330   40.0040 C   0  0  0  0  0  0  0  0  0  0  0  0
   41.1970   32.6650   40.3810 C   0  0  0  0  0  0  0  0  0  0  0  0
   41.7060   33.9010   40.6250 N   0  0  0  0  0  0  0  0  0  0  0  0
   43.0340   34.1580   40.5130 C   0  0  0  0  0  0  0  0  0  0  0  0
   43.9180   33.1740   40.1460 N   0  0  0  0  0  0  0  0  0  0  0  0
   44.1590   31.1840   39.6130 H   0  0  0  0  0  0  0  0  0  0  0  0
   41.8250   30.6100   39.7770 H   0  0  0  0  0  0  0  0  0  0  0  0
   43.4390   35.1280   40.7070 H   0  0  0  0  0  0  0  0  0  0  0  0
  1 13  1  6  0  0  0
  1  8  1  0  0  0  0
  1 17  1  0  0  0  0
  2  9  1  0  0  0  0
  2  3  1  0  0  0  0
  2  1  1  0  0  0  0
  3  4  1  0  0  0  0
  4  5  2  0  0  0  0
  6 11  1  6  0  0  0
  6  4  1  0  0  0  0
  6 26  1  0  0  0  0
  7 12  1  6  0  0  0
  7  3  1  0  0  0  0
  7  6  1  0  0  0  0
  7  8  1  0  0  0  0
 10  2  1  0  0  0  0
 13 14  1  0  0  0  0
 15 13  1  0  0  0  0
 16 13  1  0  0  0  0
 17 19  1  0  0  0  0
 17 20  1  0  0  0  0
 18 17  1  0  0  0  0
 20 21  1  0  0  0  0
 20 24  1  0  0  0  0
 21 22  1  0  0  0  0
 22 23  1  0  0  0  0
 24 23  1  0  0  0  0
 25 24  1  0  0  0  0
 26 27  2  0  0  0  0
 28 29  2  0  0  0  0
 28 33  1  0  0  0  0
 29 30  1  0  0  0  0
 30 26  1  0  0  0  0
 30 31  2  0  0  0  0
 32 31  1  0  0  0  0
 32 36  1  0  0  0  0
 33 32  2  0  0  0  0
 34 28  1  0  0  0  0
 35 29  1  0  0  0  0
M  END
>  <minimizedAffinity>
-4.76817894

$$$$

 OpenBabel03252501133D

 36 39  0  0  1  0  0  0  0  0999 V2000
   36.6160   29.3280   39.5050 C   0  0  2  0  0  0  0  0  0  0  0  0
   36.0380   29.5880   40.8200 C   0  0  0  0  0  0  0  0  0  0  0  0
   36.5930   28.7660   41.8280 N   0  0  0  0  0  0  0  0  0  0  0  0
   36.9180   27.8770   42.8830 C   0  0  0  0  0  0  0  0  0  0  0  0
   36.0970   27.3150   43.6800 O   0  0  0  0  0  0  0  0  0  0  0  0
   38.3560   27.9110   42.6560 C   0  0  2  0  0  0  0  0  0  0  0  0
   37.9940   29.0290   41.7020 C   0  0  1  0  0  0  0  0  0  0  0  0
   38.2620   28.6660   39.9440 S   0  0  0  0  0  0  0  0  0  0  0  0
   34.9100   29.4900   40.8580 H   0  0  0  0  0  0  0  0  0  0  0  0
   36.2100   30.6570   41.1150 H   0  0  0  0  0  0  0  0  0  0  0  0
   38.8810   28.2720   43.5620 H   0  0  0  0  0  0  0  0  0  0  0  0
   38.3120   30.0270   42.0360 H   0  0  0  0  0  0  0  0  0  0  0  0
   36.8530   30.6170   38.7710 C   0  0  0  0  0  0  0  0  0  0  0  0
   36.1080   30.7150   37.9670 H   0  0  0  0  0  0  0  0  0  0  0  0
   37.8990   30.7540   38.4580 H   0  0  0  0  0  0  0  0  0  0  0  0
   36.6520   31.5000   39.4480 H   0  0  0  0  0  0  0  0  0  0  0  0
   35.8380   28.3140   38.6830 C   0  0  0  0  0  0  0  0  0  0  0  0
   35.0410   27.9180   39.3590 H   0  0  0  0  0  0  0  0  0  0  0  0
   36.5290   27.4650   38.5050 H   0  0  0  0  0  0  0  0  0  0  0  0
   35.2100   28.8450   37.5500 N   0  0  0  0  0  0  0  0  0  0  0  0
   33.7780   28.8130   37.6890 C   0  0  0  0  0  2  0  0  0  0  0  0
   33.2790   29.2000   36.3110 C   0  0  0  0  0  2  0  0  0  0  0  0
   34.5100   29.1610   35.4170 C   0  0  0  0  0  2  0  0  0  0  0  0
   35.4420   28.2850   36.2750 C   0  0  0  0  0  3  0  0  0  0  0  0
   36.4530   28.4970   35.8580 H   0  0  0  0  0  0  0  0  0  0  0  0
   38.8490   26.6600   42.0800 C   0  0  0  0  0  0  0  0  0  0  0  0
   38.2360   25.8880   41.3050 O   0  0  0  0  0  0  0  0  0  0  0  0
   42.0930   27.3880   43.6800 C   0  0  0  0  0  0  0  0  0  0  0  0
   40.7840   27.5440   43.1890 C   0  0  0  0  0  0  0  0  0  0  0  0
   40.1840   26.4440   42.5590 C   0  0  0  0  0  0  0  0  0  0  0  0
   40.8840   25.2850   42.4490 N   0  0  0  0  0  0  0  0  0  0  0  0
   42.1470   25.1680   42.9340 C   0  0  0  0  0  0  0  0  0  0  0  0
   42.7670   26.2220   43.5570 N   0  0  0  0  0  0  0  0  0  0  0  0
   42.6090   28.1970   44.1730 H   0  0  0  0  0  0  0  0  0  0  0  0
   40.3660   28.5220   43.3550 H   0  0  0  0  0  0  0  0  0  0  0  0
   42.7020   24.2590   42.8480 H   0  0  0  0  0  0  0  0  0  0  0  0
  1 17  1  6  0  0  0
  1  8  1  0  0  0  0
  1  2  1  0  0  0  0
  2  9  1  0  0  0  0
  2 10  1  0  0  0  0
  2  3  1  0  0  0  0
  3  4  1  0  0  0  0
  4  5  2  0  0  0  0
  6  4  1  0  0  0  0
  6 11  1  1  0  0  0
  7  3  1  0  0  0  0
  7 12  1  1  0  0  0
  7  6  1  0  0  0  0
  8  7  1  0  0  0  0
 13 16  1  0  0  0  0
 13  1  1  0  0  0  0
 14 13  1  0  0  0  0
 15 13  1  0  0  0  0
 17 18  1  0  0  0  0
 19 17  1  0  0  0  0
 20 21  1  0  0  0  0
 20 17  1  0  0  0  0
 22 21  1  0  0  0  0
 23 24  1  0  0  0  0
 23 22  1  0  0  0  0
 24 20  1  0  0  0  0
 25 24  1  0  0  0  0
 26 30  1  0  0  0  0
 26  6  1  0  0  0  0
 27 26  2  0  0  0  0
 28 34  1  0  0  0  0
 29 35  1  0  0  0  0
 29 28  2  0  0  0  0
 30 29  1  0  0  0  0
 31 30  2  0  0  0  0
 31 32  1  0  0  0  0
 32 33  2  0  0  0  0
 33 28  1  0  0  0  0
 36 32  1  0  0  0  0
M  END
>  <minimizedAffinity>
-4.73001099

$$$$

 OpenBabel03252501133D

 36 39  0  0  1  0  0  0  0  0999 V2000
   39.7820   29.8510   41.5790 C   0  0  2  0  0  0  0  0  0  0  0  0
   38.4930   29.9970   42.2500 C   0  0  0  0  0  0  0  0  0  0  0  0
   37.5240   29.0890   41.7640 N   0  0  0  0  0  0  0  0  0  0  0  0
   36.4170   28.3780   41.2360 C   0  0  0  0  0  0  0  0  0  0  0  0
   35.2650   28.8580   40.9730 O   0  0  0  0  0  0  0  0  0  0  0  0
   37.1000   27.0950   41.1560 C   0  0  2  0  0  0  0  0  0  0  0  0
   38.1750   27.8250   41.9340 C   0  0  1  0  0  0  0  0  0  0  0  0
   39.7270   28.1060   41.0360 S   0  0  0  0  0  0  0  0  0  0  0  0
   38.0610   31.0420   42.2010 H   0  0  0  0  0  0  0  0  0  0  0  0
   38.6080   29.8200   43.3520 H   0  0  0  0  0  0  0  0  0  0  0  0
   36.5700   26.3360   41.7650 H   0  0  0  0  0  0  0  0  0  0  0  0
   38.2800   27.4930   42.9770 H   0  0  0  0  0  0  0  0  0  0  0  0
   40.9060   29.9590   42.5690 C   0  0  0  0  0  0  0  0  0  0  0  0
   41.4120   30.9260   42.4350 H   0  0  0  0  0  0  0  0  0  0  0  0
   41.5690   29.0800   42.5710 H   0  0  0  0  0  0  0  0  0  0  0  0
   40.5010   29.9980   43.6230 H   0  0  0  0  0  0  0  0  0  0  0  0
   39.9580   30.7730   40.3830 C   0  0  0  0  0  0  0  0  0  0  0  0
   40.1300   30.1050   39.5040 H   0  0  0  0  0  0  0  0  0  0  0  0
   40.9150   31.3090   40.5430 H   0  0  0  0  0  0  0  0  0  0  0  0
   38.8450   31.5730   40.0980 N   0  0  0  0  0  0  0  0  0  0  0  0
   38.2790   31.2360   38.8180 C   0  0  0  0  0  2  0  0  0  0  0  0
   37.2580   32.3310   38.5830 C   0  0  0  0  0  2  0  0  0  0  0  0
   37.5280   33.3660   39.6650 C   0  0  0  0  0  2  0  0  0  0  0  0
   38.9660   32.9790   40.0600 C   0  0  0  0  0  3  0  0  0  0  0  0
   39.0970   33.4550   41.0580 H   0  0  0  0  0  0  0  0  0  0  0  0
   37.4000   26.7200   39.7750 C   0  0  0  0  0  0  0  0  0  0  0  0
   37.3540   27.4560   38.7610 O   0  0  0  0  0  0  0  0  0  0  0  0
   37.1190   23.0810   40.3220 C   0  0  0  0  0  0  0  0  0  0  0  0
   36.8160   24.4560   40.3130 C   0  0  0  0  0  0  0  0  0  0  0  0
   37.7610   25.3310   39.7580 C   0  0  0  0  0  0  0  0  0  0  0  0
   38.9170   24.8230   39.2580 N   0  0  0  0  0  0  0  0  0  0  0  0
   39.1770   23.4900   39.2820 C   0  0  0  0  0  0  0  0  0  0  0  0
   38.2770   22.6020   39.8160 N   0  0  0  0  0  0  0  0  0  0  0  0
   36.4330   22.3580   40.7350 H   0  0  0  0  0  0  0  0  0  0  0  0
   35.8620   24.6980   40.7460 H   0  0  0  0  0  0  0  0  0  0  0  0
   40.0860   23.0860   38.8910 H   0  0  0  0  0  0  0  0  0  0  0  0
  1 17  1  6  0  0  0
  1  2  1  0  0  0  0
  1 13  1  0  0  0  0
  2 10  1  0  0  0  0
  3  7  1  0  0  0  0
  3  2  1  0  0  0  0
  4  3  1  0  0  0  0
  5  4  2  0  0  0  0
  6  4  1  0  0  0  0
  6 11  1  1  0  0  0
  6  7  1  0  0  0  0
  7 12  1  1  0  0  0
  8  1  1  0  0  0  0
  8  7  1  0  0  0  0
  9  2  1  0  0  0  0
 13 15  1  0  0  0  0
 13 16  1  0  0  0  0
 14 13  1  0  0  0  0
 17 19  1  0  0  0  0
 18 17  1  0  0  0  0
 20 17  1  0  0  0  0
 21 20  1  0  0  0  0
 22 21  1  0  0  0  0
 22 23  1  0  0  0  0
 23 24  1  0  0  0  0
 24 20  1  0  0  0  0
 24 25  1  0  0  0  0
 26  6  1  0  0  0  0
 27 26  2  0  0  0  0
 28 34  1  0  0  0  0
 29 28  1  0  0  0  0
 29 35  1  0  0  0  0
 30 26  1  0  0  0  0
 30 29  2  0  0  0  0
 31 32  2  0  0  0  0
 31 30  1  0  0  0  0
 32 33  1  0  0  0  0
 33 28  2  0  0  0  0
 36 32  1  0  0  0  0
M  END
>  <minimizedAffinity>
-4.7014699

$$$$
