
 OpenBabel03252509073D

 38 41  0  0  1  0  0  0  0  0999 V2000
   45.3420   35.5840   43.1430 Cl  0  0  0  0  0  0  0  0  0  0  0  0
   45.1720   34.7130   41.6440 C   0  0  0  0  0  0  0  0  0  0  0  0
   46.2500   34.2270   40.9930 C   0  0  0  0  0  0  0  0  0  0  0  0
   46.0040   33.5470   39.8050 C   0  0  0  0  0  0  0  0  0  0  0  0
   44.7370   33.3700   39.3060 C   0  0  0  0  0  0  0  0  0  0  0  0
   43.6690   33.8680   39.9800 C   0  0  0  0  0  0  0  0  0  0  0  0
   43.8960   34.5430   41.1580 C   0  0  0  0  0  0  0  0  0  0  0  0
   44.5530   32.8410   38.3810 H   0  0  0  0  0  0  0  0  0  0  0  0
   42.6500   33.7470   39.6150 H   0  0  0  0  0  0  0  0  0  0  0  0
   43.0370   34.9430   41.6990 H   0  0  0  0  0  0  0  0  0  0  0  0
   47.5960   31.7180   39.2120 C   0  0  0  0  0  0  0  0  0  0  0  0
   47.1280   32.9890   39.0690 C   0  0  0  0  0  0  0  0  0  0  0  0
   47.7510   33.8260   38.1630 C   0  0  0  0  0  0  0  0  0  0  0  0
   48.8200   33.3840   37.4220 C   0  0  0  0  0  0  0  0  0  0  0  0
   49.3110   32.0900   37.5530 C   0  0  0  0  0  0  0  0  0  0  0  0
   48.6800   31.2540   38.4660 C   0  0  0  0  0  0  0  0  0  0  0  0
   47.3960   34.8550   38.0280 H   0  0  0  0  0  0  0  0  0  0  0  0
   49.2640   34.0860   36.7310 H   0  0  0  0  0  0  0  0  0  0  0  0
   50.1390   31.7430   36.9800 H   0  0  0  0  0  0  0  0  0  0  0  0
   49.0550   30.2490   38.5730 H   0  0  0  0  0  0  0  0  0  0  0  0
   46.8720   30.6260   40.2760 S   0  0  0  0  0  0  0  0  0  0  0  0
   46.5310   29.3060   39.6280 O   0  0  0  0  0  0  0  0  0  0  0  0
   48.0160   30.2590   41.2690 O   0  0  0  0  0  0  0  0  0  0  0  0
   45.2810   28.9670   41.8730 H   0  0  0  0  0  0  0  0  0  0  0  0
   44.6790   29.7730   41.6000 N   0  0  0  0  0  0  0  0  0  0  0  0
   43.9460   30.3260   42.7230 C   0  0  0  0  0  2  0  0  0  0  0  0
   45.0820   30.6080   43.6620 C   0  0  0  0  0  2  0  0  0  0  0  0
   46.2650   30.7320   42.7640 C   0  0  0  0  0  2  0  0  0  0  0  0
   45.6070   30.8980   41.3480 C   0  0  1  0  0  3  0  0  0  0  0  0
   49.5740   35.7620   41.9010 C   0  0  0  0  0  0  0  0  0  0  0  0
   48.3010   35.5820   41.3500 C   0  0  0  0  0  0  0  0  0  0  0  0
   47.5650   34.4260   41.5490 C   0  0  0  0  0  0  0  0  0  0  0  0
   48.1720   33.4830   42.3170 N   0  0  0  0  0  0  0  0  0  0  0  0
   49.3930   33.6570   42.8460 C   0  0  0  0  0  0  0  0  0  0  0  0
   50.0840   34.7820   42.6390 N   0  0  0  0  0  0  0  0  0  0  0  0
   50.0410   36.7270   41.6610 H   0  0  0  0  0  0  0  0  0  0  0  0
   47.8350   36.3440   40.7400 H   0  0  0  0  0  0  0  0  0  0  0  0
   49.9000   32.9250   43.4610 H   0  0  0  0  0  0  0  0  0  0  0  0
  2  1  1  0  0  0  0
  3 32  1  0  0  0  0
  3  2  2  0  0  0  0
  4  3  1  0  0  0  0
  5  4  2  0  0  0  0
  5  6  1  0  0  0  0
  6  7  2  0  0  0  0
  7  2  1  0  0  0  0
  7 10  1  0  0  0  0
  8  5  1  0  0  0  0
  9  6  1  0  0  0  0
 11 21  1  0  0  0  0
 12 11  1  0  0  0  0
 12  4  1  0  0  0  0
 13 12  2  0  0  0  0
 14 15  2  0  0  0  0
 14 13  1  0  0  0  0
 15 16  1  0  0  0  0
 16 20  1  0  0  0  0
 16 11  2  0  0  0  0
 17 13  1  0  0  0  0
 18 14  1  0  0  0  0
 19 15  1  0  0  0  0
 21 23  2  0  0  0  0
 22 21  2  0  0  0  0
 25 24  1  0  0  0  0
 25 26  1  0  0  0  0
 26 27  1  0  0  0  0
 28 27  1  0  0  0  0
 29 21  1  6  0  0  0
 29 25  1  0  0  0  0
 29 28  1  0  0  0  0
 30 35  1  0  0  0  0
 31 32  1  0  0  0  0
 31 30  2  0  0  0  0
 32 33  2  0  0  0  0
 33 34  1  0  0  0  0
 34 38  1  0  0  0  0
 35 34  2  0  0  0  0
 36 30  1  0  0  0  0
 37 31  1  0  0  0  0
M  END
>  <minimizedAffinity>
-4.62872839

>  <minimizedRMSD>
0.496482104

$$$$
