
 OpenBabel03252504373D

 27 29  0  0  0  0  0  0  0  0999 V2000
   45.3560   33.9030   45.6370 C   0  0  0  0  0  0  0  0  0  0  0  0
   44.2870   33.6510   45.5350 H   0  0  0  0  0  0  0  0  0  0  0  0
   45.4470   34.9180   46.0150 H   0  0  0  0  0  0  0  0  0  0  0  0
   46.0260   32.9190   46.5490 C   0  0  0  0  0  0  0  0  0  0  0  0
   45.5140   32.4590   47.7390 C   0  0  0  0  0  0  0  0  0  0  0  0
   46.4630   31.6050   48.1920 N   0  0  0  0  0  0  0  0  0  0  0  0
   47.5100   31.5260   47.3490 C   0  0  0  0  0  0  0  0  0  0  0  0
   47.2380   32.3430   46.3270 N   0  0  0  0  0  0  0  0  0  0  0  0
   44.5670   32.7460   48.1700 H   0  0  0  0  0  0  0  0  0  0  0  0
   46.2590   31.1280   49.1230 H   0  0  0  0  0  0  0  0  0  0  0  0
   48.5620   30.6650   47.7060 N   0  0  0  0  0  0  0  0  0  0  0  0
   49.0330   29.4900   46.9490 C   0  0  0  0  0  0  0  0  0  0  0  0
   48.6060   28.4150   47.9740 C   0  0  0  0  0  0  0  0  0  0  0  0
   49.2310   29.0380   49.2280 C   0  0  0  0  0  0  0  0  0  0  0  0
   49.5290   30.4940   48.7680 C   0  0  0  0  0  0  0  0  0  0  0  0
   50.5850   30.5330   48.4080 H   0  0  0  0  0  0  0  0  0  0  0  0
   45.9880   34.9090   43.4800 C   0  0  0  0  0  0  0  0  0  0  0  0
   45.9960   33.8620   44.2980 C   0  0  0  0  0  0  0  0  0  0  0  0
   46.6500   34.7350   42.1830 C   0  0  0  0  0  0  0  0  0  0  0  0
   47.9270   35.2980   41.9220 C   0  0  0  0  0  0  0  0  0  0  0  0
   48.4850   35.0940   40.6700 C   0  0  0  0  0  0  0  0  0  0  0  0
   47.8080   34.3770   39.7520 N   0  0  0  0  0  0  0  0  0  0  0  0
   46.5980   33.8510   40.0110 C   0  0  0  0  0  0  0  0  0  0  0  0
   46.0410   34.0340   41.2090 N   0  0  0  0  0  0  0  0  0  0  0  0
   48.3860   35.8580   42.7210 H   0  0  0  0  0  0  0  0  0  0  0  0
   49.4560   35.5230   40.4780 H   0  0  0  0  0  0  0  0  0  0  0  0
   46.0280   33.2580   39.2800 H   0  0  0  0  0  0  0  0  0  0  0  0
  1  3  1  0  0  0  0
  1  4  1  0  0  0  0
  2  1  1  0  0  0  0
  4  5  2  0  0  0  0
  5  9  1  0  0  0  0
  5  6  1  0  0  0  0
  6 10  1  0  0  0  0
  7 11  1  0  0  0  0
  7  6  1  0  0  0  0
  8  4  1  0  0  0  0
  8  7  2  0  0  0  0
 11 15  1  0  0  0  0
 12 11  1  0  0  0  0
 12 13  1  0  0  0  0
 13 14  1  0  0  0  0
 15 14  1  0  0  0  0
 16 15  1  0  0  0  0
 17 18  2  0  0  0  0
 18  1  1  0  0  0  0
 19 17  1  0  0  0  0
 20 19  1  0  0  0  0
 20 25  1  0  0  0  0
 21 20  2  0  0  0  0
 22 23  2  0  0  0  0
 22 21  1  0  0  0  0
 23 24  1  0  0  0  0
 24 19  2  0  0  0  0
 26 21  1  0  0  0  0
 27 23  1  0  0  0  0
M  END
>  <minimizedAffinity>
-4.32836676

>  <minimizedRMSD>
8.08387756

$$$$
