
 OpenBabel03242521413D

 31 33  0  0  1  0  0  0  0  0999 V2000
   43.7440   35.1170   41.2160 C   0  0  0  0  0  0  0  0  0  0  0  0
   44.8240   34.3320   40.7730 C   0  0  0  0  0  0  0  0  0  0  0  0
   46.0380   34.3980   41.4680 C   0  0  0  0  0  0  0  0  0  0  0  0
   46.1190   35.2100   42.5330 N   0  0  0  0  0  0  0  0  0  0  0  0
   45.0550   35.9600   42.9400 C   0  0  0  0  0  0  0  0  0  0  0  0
   43.8940   35.9100   42.2910 N   0  0  0  0  0  0  0  0  0  0  0  0
   44.6570   33.7130   39.9080 H   0  0  0  0  0  0  0  0  0  0  0  0
   45.2240   36.5860   43.8150 H   0  0  0  0  0  0  0  0  0  0  0  0
   47.9740   34.2120   39.9140 C   0  0  2  0  0  0  0  0  0  0  0  0
   47.1260   33.5670   40.9720 C   0  0  2  0  0  0  0  0  0  0  0  0
   46.7100   32.4040   40.2930 O   0  0  0  0  0  0  0  0  0  0  0  0
   47.8780   31.8890   39.7820 C   0  0  0  0  0  0  0  0  0  0  0  0
   48.8620   33.0020   39.5710 C   0  0  1  0  0  0  0  0  0  0  0  0
   47.4200   34.3990   38.9710 H   0  0  0  0  0  0  0  0  0  0  0  0
   47.7950   33.2230   41.7950 H   0  0  0  0  0  0  0  0  0  0  0  0
   47.6650   31.3590   38.8420 H   0  0  0  0  0  0  0  0  0  0  0  0
   48.3110   31.1340   40.4980 H   0  0  0  0  0  0  0  0  0  0  0  0
   49.6750   33.0380   40.3370 H   0  0  0  0  0  0  0  0  0  0  0  0
   48.6820   35.2990   40.3600 O   0  0  0  0  0  0  0  0  0  0  0  0
   48.5220   36.1320   39.8490 H   0  0  0  0  0  0  0  0  0  0  0  0
   49.3140   33.1260   38.2740 O   0  0  0  0  0  0  0  0  0  0  0  0
   49.1270   34.0170   37.8840 H   0  0  0  0  0  0  0  0  0  0  0  0
   42.4510   35.0530   40.4620 C   0  0  0  0  0  0  0  0  0  0  0  0
   42.3240   34.0370   40.0350 H   0  0  0  0  0  0  0  0  0  0  0  0
   42.4590   35.7800   39.6110 H   0  0  0  0  0  0  0  0  0  0  0  0
   41.3450   35.3880   41.3340 N   0  0  0  0  0  0  0  0  0  0  0  0
   40.3990   36.2780   40.7430 C   0  0  0  0  0  0  0  0  0  0  0  0
   39.5850   35.3510   39.8680 C   0  0  0  0  0  0  0  0  0  0  0  0
   39.7990   33.9630   40.4410 C   0  0  0  0  0  0  0  0  0  0  0  0
   40.5750   34.2510   41.7250 C   0  0  0  0  0  0  0  0  0  0  0  0
   41.1260   33.3930   42.1080 H   0  0  0  0  0  0  0  0  0  0  0  0
  1  6  1  0  0  0  0
  2  1  2  0  0  0  0
  2  3  1  0  0  0  0
  3  4  2  0  0  0  0
  4  5  1  0  0  0  0
  5  8  1  0  0  0  0
  6  5  2  0  0  0  0
  7  2  1  0  0  0  0
  9 14  1  6  0  0  0
  9 19  1  0  0  0  0
  9 10  1  0  0  0  0
 10  3  1  0  0  0  0
 10 15  1  1  0  0  0
 11 10  1  0  0  0  0
 12 11  1  0  0  0  0
 12 17  1  0  0  0  0
 13 12  1  0  0  0  0
 13  9  1  0  0  0  0
 13 18  1  1  0  0  0
 16 12  1  0  0  0  0
 20 19  1  0  0  0  0
 21 13  1  0  0  0  0
 22 21  1  0  0  0  0
 23  1  1  0  0  0  0
 23 26  1  0  0  0  0
 24 23  1  0  0  0  0
 25 23  1  0  0  0  0
 26 30  1  0  0  0  0
 27 26  1  0  0  0  0
 28 29  1  0  0  0  0
 28 27  1  0  0  0  0
 29 30  1  0  0  0  0
 30 31  1  0  0  0  0
M  END
>  <minimizedAffinity>
-5.2925272

>  <minimizedRMSD>
3.21898055

$$$$
