
 OpenBabel03252505043D

 31 33  0  0  1  0  0  0  0  0999 V2000
   40.9110   32.0160   39.2250 C   0  0  2  0  0  0  0  0  0  0  0  0
   41.6910   32.6440   40.3330 C   0  0  0  0  0  0  0  0  0  0  0  0
   42.0520   34.0620   40.1540 C   0  0  0  0  0  0  0  0  0  0  0  0
   42.7830   34.1360   38.8220 C   0  0  0  0  0  0  0  0  0  0  0  0
   41.9090   33.8160   37.6880 C   0  0  0  0  0  0  0  0  0  0  0  0
   40.9410   32.6980   37.9410 C   0  0  0  0  0  0  0  0  0  0  0  0
   41.2690   30.9690   39.0900 H   0  0  0  0  0  0  0  0  0  0  0  0
   41.1900   32.5480   41.3230 H   0  0  0  0  0  0  0  0  0  0  0  0
   42.6480   32.0700   40.4660 H   0  0  0  0  0  0  0  0  0  0  0  0
   42.8330   34.3090   40.9190 H   0  0  0  0  0  0  0  0  0  0  0  0
   41.1920   34.7360   40.1730 H   0  0  0  0  0  0  0  0  0  0  0  0
   43.6340   33.4430   38.8530 H   0  0  0  0  0  0  0  0  0  0  0  0
   43.0450   35.1940   38.7000 H   0  0  0  0  0  0  0  0  0  0  0  0
   41.8210   34.2300   36.6940 H   0  0  0  0  0  0  0  0  0  0  0  0
   37.3120   32.6550   39.8310 C   0  0  0  0  0  0  0  0  0  0  0  0
   36.9570   31.5730   40.6780 C   0  0  0  0  0  0  0  0  0  0  0  0
   37.9740   30.6500   41.0210 C   0  0  0  0  0  0  0  0  0  0  0  0
   39.2240   30.8410   40.5290 N   0  0  0  0  0  0  0  0  0  0  0  0
   39.5200   31.8800   39.7290 C   0  0  0  0  0  0  0  0  0  0  0  0
   38.5740   32.7900   39.3750 N   0  0  0  0  0  0  0  0  0  0  0  0
   36.5270   33.3400   39.5860 H   0  0  0  0  0  0  0  0  0  0  0  0
   35.9350   31.4990   41.0220 H   0  0  0  0  0  0  0  0  0  0  0  0
   37.6220   29.5810   41.8570 N   0  0  0  0  0  0  0  0  0  0  0  0
   36.6380   28.5810   41.4900 C   0  0  0  0  0  2  0  0  0  0  0  0
   36.5750   27.6090   42.6400 C   0  0  0  0  0  2  0  0  0  0  0  0
   37.9340   27.7940   43.2740 C   0  0  0  0  0  2  0  0  0  0  0  0
   38.1450   29.2860   43.1760 C   0  0  0  0  0  3  0  0  0  0  0  0
   39.2060   29.5820   43.2860 H   0  0  0  0  0  0  0  0  0  0  0  0
   40.0300   32.2860   36.9290 N   0  0  0  0  0  0  0  0  0  0  0  0
   40.1810   31.3530   36.4890 H   0  0  0  0  0  0  0  0  0  0  0  0
   39.2690   32.9920   36.7180 H   0  0  0  0  0  0  0  0  0  0  0  0
  1  7  1  6  0  0  0
  1 19  1  0  0  0  0
  1  2  1  0  0  0  0
  2  9  1  0  0  0  0
  2  8  1  0  0  0  0
  3 11  1  0  0  0  0
  3  2  1  0  0  0  0
  3 10  1  0  0  0  0
  4 12  1  0  0  0  0
  4  3  1  0  0  0  0
  5  6  2  0  0  0  0
  5  4  1  0  0  0  0
  6  1  1  0  0  0  0
 13  4  1  0  0  0  0
 14  5  1  0  0  0  0
 15 16  1  0  0  0  0
 16 17  2  0  0  0  0
 16 22  1  0  0  0  0
 17 23  1  0  0  0  0
 18 17  1  0  0  0  0
 19 18  2  0  0  0  0
 20 19  1  0  0  0  0
 20 15  2  0  0  0  0
 21 15  1  0  0  0  0
 23 27  1  0  0  0  0
 24 23  1  0  0  0  0
 24 25  1  0  0  0  0
 25 26  1  0  0  0  0
 27 26  1  0  0  0  0
 27 28  1  0  0  0  0
 29  6  1  0  0  0  0
 30 29  1  0  0  0  0
 31 29  1  0  0  0  0
M  END
>  <minimizedAffinity>
-5.53437328

$$$$

 OpenBabel03252505043D

 31 33  0  0  1  0  0  0  0  0999 V2000
   37.6310   30.0910   40.0750 C   0  0  2  0  0  0  0  0  0  0  0  0
   39.0390   30.2730   39.6130 C   0  0  0  0  0  0  0  0  0  0  0  0
   39.7220   31.4970   40.0710 C   0  0  0  0  0  0  0  0  0  0  0  0
   38.8260   32.6520   39.6510 C   0  0  0  0  0  0  0  0  0  0  0  0
   37.5390   32.6430   40.3570 C   0  0  0  0  0  0  0  0  0  0  0  0
   36.9460   31.2800   40.5600 C   0  0  0  0  0  0  0  0  0  0  0  0
   37.0400   29.6450   39.2420 H   0  0  0  0  0  0  0  0  0  0  0  0
   39.6930   29.4080   39.8680 H   0  0  0  0  0  0  0  0  0  0  0  0
   39.0470   30.2870   38.4890 H   0  0  0  0  0  0  0  0  0  0  0  0
   40.6470   31.6170   39.4490 H   0  0  0  0  0  0  0  0  0  0  0  0
   39.9130   31.5120   41.1470 H   0  0  0  0  0  0  0  0  0  0  0  0
   38.6650   32.5910   38.5680 H   0  0  0  0  0  0  0  0  0  0  0  0
   39.3430   33.5540   39.9980 H   0  0  0  0  0  0  0  0  0  0  0  0
   36.9260   33.4320   40.7670 H   0  0  0  0  0  0  0  0  0  0  0  0
   37.9470   28.3990   43.3570 C   0  0  0  0  0  0  0  0  0  0  0  0
   37.7320   27.0390   43.0110 C   0  0  0  0  0  0  0  0  0  0  0  0
   37.4840   26.7420   41.6500 C   0  0  0  0  0  0  0  0  0  0  0  0
   37.4660   27.7580   40.7510 N   0  0  0  0  0  0  0  0  0  0  0  0
   37.6750   29.0340   41.1190 C   0  0  0  0  0  0  0  0  0  0  0  0
   37.9160   29.3640   42.4140 N   0  0  0  0  0  0  0  0  0  0  0  0
   38.1330   28.6000   44.3920 H   0  0  0  0  0  0  0  0  0  0  0  0
   37.7640   26.2960   43.7940 H   0  0  0  0  0  0  0  0  0  0  0  0
   37.2710   25.3990   41.3100 N   0  0  0  0  0  0  0  0  0  0  0  0
   36.6000   24.9900   40.0910 C   0  0  0  0  0  2  0  0  0  0  0  0
   36.5990   23.4820   40.0950 C   0  0  0  0  0  2  0  0  0  0  0  0
   37.7790   23.1770   40.9880 C   0  0  0  0  0  2  0  0  0  0  0  0
   37.6580   24.2260   42.0670 C   0  0  0  0  0  3  0  0  0  0  0  0
   38.5980   24.3780   42.6310 H   0  0  0  0  0  0  0  0  0  0  0  0
   35.7030   31.1240   41.2340 N   0  0  0  0  0  0  0  0  0  0  0  0
   34.8800   30.8220   40.6710 H   0  0  0  0  0  0  0  0  0  0  0  0
   35.7430   31.3380   42.2710 H   0  0  0  0  0  0  0  0  0  0  0  0
  1  7  1  6  0  0  0
  1  6  1  0  0  0  0
  1 19  1  0  0  0  0
  2  8  1  0  0  0  0
  2  3  1  0  0  0  0
  2  1  1  0  0  0  0
  3 11  1  0  0  0  0
  4 13  1  0  0  0  0
  4  3  1  0  0  0  0
  4  5  1  0  0  0  0
  5  6  2  0  0  0  0
  5 14  1  0  0  0  0
  6 29  1  0  0  0  0
  9  2  1  0  0  0  0
 10  3  1  0  0  0  0
 12  4  1  0  0  0  0
 15 21  1  0  0  0  0
 16 15  1  0  0  0  0
 16 22  1  0  0  0  0
 17 16  2  0  0  0  0
 18 19  2  0  0  0  0
 18 17  1  0  0  0  0
 19 20  1  0  0  0  0
 20 15  2  0  0  0  0
 23 17  1  0  0  0  0
 23 27  1  0  0  0  0
 24 25  1  0  0  0  0
 24 23  1  0  0  0  0
 25 26  1  0  0  0  0
 26 27  1  0  0  0  0
 27 28  1  0  0  0  0
 29 31  1  0  0  0  0
 30 29  1  0  0  0  0
M  END
>  <minimizedAffinity>
-5.42458105

$$$$

 OpenBabel03252505043D

 31 33  0  0  1  0  0  0  0  0999 V2000
   36.4450   30.2520   39.1010 C   0  0  2  0  0  0  0  0  0  0  0  0
   37.4150   30.5320   38.0000 C   0  0  0  0  0  0  0  0  0  0  0  0
   38.5560   31.4000   38.3430 C   0  0  0  0  0  0  0  0  0  0  0  0
   37.9500   32.6730   38.9120 C   0  0  0  0  0  0  0  0  0  0  0  0
   37.2510   32.4380   40.1820 C   0  0  0  0  0  0  0  0  0  0  0  0
   36.4740   31.1560   40.2400 C   0  0  0  0  0  0  0  0  0  0  0  0
   35.4170   30.2390   38.6710 H   0  0  0  0  0  0  0  0  0  0  0  0
   37.8250   29.6050   37.5390 H   0  0  0  0  0  0  0  0  0  0  0  0
   36.8630   31.0240   37.1540 H   0  0  0  0  0  0  0  0  0  0  0  0
   39.0340   31.7210   37.3810 H   0  0  0  0  0  0  0  0  0  0  0  0
   39.2550   30.9420   39.0480 H   0  0  0  0  0  0  0  0  0  0  0  0
   37.2580   33.0910   38.1700 H   0  0  0  0  0  0  0  0  0  0  0  0
   38.8070   33.3090   39.1640 H   0  0  0  0  0  0  0  0  0  0  0  0
   37.1850   33.0100   41.0950 H   0  0  0  0  0  0  0  0  0  0  0  0
   36.3570   26.5490   39.2360 C   0  0  0  0  0  0  0  0  0  0  0  0
   37.2110   26.2720   40.3350 C   0  0  0  0  0  0  0  0  0  0  0  0
   37.7940   27.3750   41.0040 C   0  0  0  0  0  0  0  0  0  0  0  0
   37.5120   28.6280   40.5680 N   0  0  0  0  0  0  0  0  0  0  0  0
   36.6980   28.8480   39.5220 C   0  0  0  0  0  0  0  0  0  0  0  0
   36.1170   27.8200   38.8510 N   0  0  0  0  0  0  0  0  0  0  0  0
   35.9280   25.7000   38.7460 H   0  0  0  0  0  0  0  0  0  0  0  0
   37.3790   25.2420   40.6120 H   0  0  0  0  0  0  0  0  0  0  0  0
   38.6370   27.1000   42.0900 N   0  0  0  0  0  0  0  0  0  0  0  0
   38.9740   25.7530   42.5070 C   0  0  0  0  0  2  0  0  0  0  0  0
   39.9120   25.8950   43.6790 C   0  0  0  0  0  2  0  0  0  0  0  0
   40.4920   27.2700   43.4420 C   0  0  0  0  0  2  0  0  0  0  0  0
   39.2980   28.0550   42.9560 C   0  0  0  0  0  3  0  0  0  0  0  0
   39.5770   28.9850   42.4250 H   0  0  0  0  0  0  0  0  0  0  0  0
   35.7540   30.7990   41.4130 N   0  0  0  0  0  0  0  0  0  0  0  0
   34.7120   30.8150   41.3670 H   0  0  0  0  0  0  0  0  0  0  0  0
   36.3670   30.5460   42.2390 H   0  0  0  0  0  0  0  0  0  0  0  0
  1  7  1  6  0  0  0
  1 19  1  0  0  0  0
  1  6  1  0  0  0  0
  2  3  1  0  0  0  0
  2  1  1  0  0  0  0
  3  4  1  0  0  0  0
  3 11  1  0  0  0  0
  4 13  1  0  0  0  0
  4  5  1  0  0  0  0
  5  6  2  0  0  0  0
  5 14  1  0  0  0  0
  6 29  1  0  0  0  0
  8  2  1  0  0  0  0
  9  2  1  0  0  0  0
 10  3  1  0  0  0  0
 12  4  1  0  0  0  0
 15 16  1  0  0  0  0
 16 22  1  0  0  0  0
 16 17  2  0  0  0  0
 17 23  1  0  0  0  0
 18 17  1  0  0  0  0
 19 18  2  0  0  0  0
 20 15  2  0  0  0  0
 20 19  1  0  0  0  0
 21 15  1  0  0  0  0
 23 24  1  0  0  0  0
 23 27  1  0  0  0  0
 24 25  1  0  0  0  0
 26 25  1  0  0  0  0
 27 26  1  0  0  0  0
 28 27  1  0  0  0  0
 29 31  1  0  0  0  0
 30 29  1  0  0  0  0
M  END
>  <minimizedAffinity>
-5.38137245

$$$$

 OpenBabel03252505043D

 31 33  0  0  1  0  0  0  0  0999 V2000
   37.1500   27.3170   42.5510 C   0  0  2  0  0  0  0  0  0  0  0  0
   38.0680   27.7800   43.6340 C   0  0  0  0  0  0  0  0  0  0  0  0
   39.4820   27.3820   43.5050 C   0  0  0  0  0  0  0  0  0  0  0  0
   39.4720   25.8670   43.3670 C   0  0  0  0  0  0  0  0  0  0  0  0
   38.8330   25.4250   42.1220 C   0  0  0  0  0  0  0  0  0  0  0  0
   37.6190   26.2120   41.7290 C   0  0  0  0  0  0  0  0  0  0  0  0
   36.1730   27.0410   43.0090 H   0  0  0  0  0  0  0  0  0  0  0  0
   38.0420   28.8840   43.7800 H   0  0  0  0  0  0  0  0  0  0  0  0
   37.6960   27.3760   44.6150 H   0  0  0  0  0  0  0  0  0  0  0  0
   39.9750   27.5720   44.4930 H   0  0  0  0  0  0  0  0  0  0  0  0
   39.9920   27.8550   42.6620 H   0  0  0  0  0  0  0  0  0  0  0  0
   38.9500   25.4420   44.2330 H   0  0  0  0  0  0  0  0  0  0  0  0
   40.5270   25.5840   43.2700 H   0  0  0  0  0  0  0  0  0  0  0  0
   39.0670   24.6360   41.4220 H   0  0  0  0  0  0  0  0  0  0  0  0
   35.4040   29.7180   40.3330 C   0  0  0  0  0  0  0  0  0  0  0  0
   36.3590   30.7620   40.2150 C   0  0  0  0  0  0  0  0  0  0  0  0
   37.5850   30.6070   40.9050 C   0  0  0  0  0  0  0  0  0  0  0  0
   37.7870   29.4820   41.6370 N   0  0  0  0  0  0  0  0  0  0  0  0
   36.8560   28.5160   41.7220 C   0  0  0  0  0  0  0  0  0  0  0  0
   35.6660   28.6230   41.0770 N   0  0  0  0  0  0  0  0  0  0  0  0
   34.4850   29.8570   39.8020 H   0  0  0  0  0  0  0  0  0  0  0  0
   36.1120   31.6220   39.6110 H   0  0  0  0  0  0  0  0  0  0  0  0
   38.5280   31.6380   40.7880 N   0  0  0  0  0  0  0  0  0  0  0  0
   39.9520   31.4290   40.9590 C   0  0  0  0  0  2  0  0  0  0  0  0
   40.6060   32.7670   40.7300 C   0  0  0  0  0  2  0  0  0  0  0  0
   39.5800   33.4670   39.8690 C   0  0  0  0  0  2  0  0  0  0  0  0
   38.2740   33.0330   40.4910 C   0  0  0  0  0  3  0  0  0  0  0  0
   37.4070   33.1720   39.8180 H   0  0  0  0  0  0  0  0  0  0  0  0
   36.9030   25.8950   40.5410 N   0  0  0  0  0  0  0  0  0  0  0  0
   35.9530   25.4780   40.6420 H   0  0  0  0  0  0  0  0  0  0  0  0
   37.4260   26.1210   39.6470 H   0  0  0  0  0  0  0  0  0  0  0  0
  1  7  1  1  0  0  0
  1  2  1  0  0  0  0
  2  8  1  0  0  0  0
  2  9  1  0  0  0  0
  3  2  1  0  0  0  0
  3 10  1  0  0  0  0
  4  3  1  0  0  0  0
  4 12  1  0  0  0  0
  5  4  1  0  0  0  0
  6  5  2  0  0  0  0
  6  1  1  0  0  0  0
 11  3  1  0  0  0  0
 13  4  1  0  0  0  0
 14  5  1  0  0  0  0
 15 20  1  0  0  0  0
 16 15  2  0  0  0  0
 16 17  1  0  0  0  0
 17 18  2  0  0  0  0
 18 19  1  0  0  0  0
 19  1  1  0  0  0  0
 20 19  2  0  0  0  0
 21 15  1  0  0  0  0
 22 16  1  0  0  0  0
 23 17  1  0  0  0  0
 23 24  1  0  0  0  0
 25 24  1  0  0  0  0
 26 27  1  0  0  0  0
 26 25  1  0  0  0  0
 27 23  1  0  0  0  0
 28 27  1  0  0  0  0
 29 30  1  0  0  0  0
 29  6  1  0  0  0  0
 31 29  1  0  0  0  0
M  END
>  <minimizedAffinity>
-5.24461555

$$$$

 OpenBabel03252505043D

 31 33  0  0  1  0  0  0  0  0999 V2000
   38.1910   32.1490   38.4110 C   0  0  2  0  0  0  0  0  0  0  0  0
   39.5010   31.6790   37.8690 C   0  0  0  0  0  0  0  0  0  0  0  0
   40.6760   31.8850   38.7350 C   0  0  0  0  0  0  0  0  0  0  0  0
   40.6900   33.3700   39.0650 C   0  0  0  0  0  0  0  0  0  0  0  0
   39.5370   33.7700   39.8800 C   0  0  0  0  0  0  0  0  0  0  0  0
   38.2450   33.1070   39.5050 C   0  0  0  0  0  0  0  0  0  0  0  0
   37.5990   32.5850   37.5750 H   0  0  0  0  0  0  0  0  0  0  0  0
   39.4860   30.6050   37.5740 H   0  0  0  0  0  0  0  0  0  0  0  0
   39.7010   32.2150   36.9020 H   0  0  0  0  0  0  0  0  0  0  0  0
   41.5890   31.7280   38.1040 H   0  0  0  0  0  0  0  0  0  0  0  0
   40.6600   31.2760   39.6430 H   0  0  0  0  0  0  0  0  0  0  0  0
   40.7040   33.9350   38.1240 H   0  0  0  0  0  0  0  0  0  0  0  0
   41.5660   33.5110   39.7090 H   0  0  0  0  0  0  0  0  0  0  0  0
   39.4320   34.4560   40.7080 H   0  0  0  0  0  0  0  0  0  0  0  0
   35.9810   29.1780   38.2720 C   0  0  0  0  0  0  0  0  0  0  0  0
   36.1050   28.6540   39.5840 C   0  0  0  0  0  0  0  0  0  0  0  0
   36.9490   29.3440   40.4870 C   0  0  0  0  0  0  0  0  0  0  0  0
   37.5920   30.4600   40.0590 N   0  0  0  0  0  0  0  0  0  0  0  0
   37.4470   30.9240   38.8060 C   0  0  0  0  0  0  0  0  0  0  0  0
   36.6470   30.2940   37.9070 N   0  0  0  0  0  0  0  0  0  0  0  0
   35.3370   28.6400   37.6070 H   0  0  0  0  0  0  0  0  0  0  0  0
   35.5560   27.7590   39.8370 H   0  0  0  0  0  0  0  0  0  0  0  0
   37.0720   28.8250   41.7830 N   0  0  0  0  0  0  0  0  0  0  0  0
   36.3090   27.6840   42.2530 C   0  0  0  0  0  2  0  0  0  0  0  0
   36.7500   27.4370   43.6730 C   0  0  0  0  0  2  0  0  0  0  0  0
   38.1280   28.0580   43.6790 C   0  0  0  0  0  2  0  0  0  0  0  0
   37.9350   29.3010   42.8440 C   0  0  0  0  0  3  0  0  0  0  0  0
   38.8860   29.7180   42.4620 H   0  0  0  0  0  0  0  0  0  0  0  0
   37.0480   33.3980   40.2160 N   0  0  0  0  0  0  0  0  0  0  0  0
   36.3070   33.9370   39.7190 H   0  0  0  0  0  0  0  0  0  0  0  0
   37.0330   33.0280   41.2090 H   0  0  0  0  0  0  0  0  0  0  0  0
  1  7  1  6  0  0  0
  1 19  1  0  0  0  0
  1  6  1  0  0  0  0
  2  1  1  0  0  0  0
  2  3  1  0  0  0  0
  3  4  1  0  0  0  0
  3 11  1  0  0  0  0
  4 13  1  0  0  0  0
  4  5  1  0  0  0  0
  5 14  1  0  0  0  0
  6  5  2  0  0  0  0
  6 29  1  0  0  0  0
  8  2  1  0  0  0  0
  9  2  1  0  0  0  0
 10  3  1  0  0  0  0
 12  4  1  0  0  0  0
 15 16  1  0  0  0  0
 16 22  1  0  0  0  0
 16 17  2  0  0  0  0
 17 23  1  0  0  0  0
 18 17  1  0  0  0  0
 19 18  2  0  0  0  0
 20 15  2  0  0  0  0
 20 19  1  0  0  0  0
 21 15  1  0  0  0  0
 23 24  1  0  0  0  0
 23 27  1  0  0  0  0
 24 25  1  0  0  0  0
 25 26  1  0  0  0  0
 27 26  1  0  0  0  0
 28 27  1  0  0  0  0
 29 31  1  0  0  0  0
 30 29  1  0  0  0  0
M  END
>  <minimizedAffinity>
-5.23011303

$$$$

 OpenBabel03252505043D

 31 33  0  0  1  0  0  0  0  0999 V2000
   36.7080   31.1650   38.8350 C   0  0  2  0  0  0  0  0  0  0  0  0
   37.8990   31.3950   37.9630 C   0  0  0  0  0  0  0  0  0  0  0  0
   39.1830   31.6020   38.6560 C   0  0  0  0  0  0  0  0  0  0  0  0
   38.9490   32.7520   39.6240 C   0  0  0  0  0  0  0  0  0  0  0  0
   37.9930   32.4040   40.6820 C   0  0  0  0  0  0  0  0  0  0  0  0
   36.8330   31.5700   40.2270 C   0  0  0  0  0  0  0  0  0  0  0  0
   35.8330   31.6850   38.3810 H   0  0  0  0  0  0  0  0  0  0  0  0
   38.0490   30.5850   37.2140 H   0  0  0  0  0  0  0  0  0  0  0  0
   37.7090   32.3050   37.3320 H   0  0  0  0  0  0  0  0  0  0  0  0
   39.9080   32.0100   37.9040 H   0  0  0  0  0  0  0  0  0  0  0  0
   39.5460   30.7120   39.1770 H   0  0  0  0  0  0  0  0  0  0  0  0
   38.5860   33.6170   39.0550 H   0  0  0  0  0  0  0  0  0  0  0  0
   39.9090   32.8960   40.1340 H   0  0  0  0  0  0  0  0  0  0  0  0
   37.9590   32.6290   41.7380 H   0  0  0  0  0  0  0  0  0  0  0  0
   35.3740   27.9430   37.5800 C   0  0  0  0  0  0  0  0  0  0  0  0
   35.8460   27.0270   38.5560 C   0  0  0  0  0  0  0  0  0  0  0  0
   36.6130   27.5480   39.6250 C   0  0  0  0  0  0  0  0  0  0  0  0
   36.8570   28.8820   39.6670 N   0  0  0  0  0  0  0  0  0  0  0  0
   36.3910   29.7170   38.7230 C   0  0  0  0  0  0  0  0  0  0  0  0
   35.6510   29.2600   37.6780 N   0  0  0  0  0  0  0  0  0  0  0  0
   34.7970   27.5270   36.7810 H   0  0  0  0  0  0  0  0  0  0  0  0
   35.6040   25.9810   38.4420 H   0  0  0  0  0  0  0  0  0  0  0  0
   37.0790   26.6420   40.5880 N   0  0  0  0  0  0  0  0  0  0  0  0
   37.8040   27.0540   41.7750 C   0  0  0  0  0  2  0  0  0  0  0  0
   38.0970   25.7950   42.5490 C   0  0  0  0  0  2  0  0  0  0  0  0
   37.0080   24.8700   42.0560 C   0  0  0  0  0  2  0  0  0  0  0  0
   36.9350   25.2010   40.5840 C   0  0  0  0  0  3  0  0  0  0  0  0
   35.9890   24.8710   40.1130 H   0  0  0  0  0  0  0  0  0  0  0  0
   35.8330   31.1550   41.1490 N   0  0  0  0  0  0  0  0  0  0  0  0
   34.8850   31.5800   41.0620 H   0  0  0  0  0  0  0  0  0  0  0  0
   36.1640   30.4360   41.8530 H   0  0  0  0  0  0  0  0  0  0  0  0
  1  7  1  6  0  0  0
  1  6  1  0  0  0  0
  2  3  1  0  0  0  0
  2  1  1  0  0  0  0
  3 11  1  0  0  0  0
  3  4  1  0  0  0  0
  4 13  1  0  0  0  0
  4  5  1  0  0  0  0
  5 14  1  0  0  0  0
  6  5  2  0  0  0  0
  6 29  1  0  0  0  0
  8  2  1  0  0  0  0
  9  2  1  0  0  0  0
 10  3  1  0  0  0  0
 12  4  1  0  0  0  0
 15 20  2  0  0  0  0
 15 16  1  0  0  0  0
 16 17  2  0  0  0  0
 17 18  1  0  0  0  0
 17 23  1  0  0  0  0
 19  1  1  0  0  0  0
 19 18  2  0  0  0  0
 20 19  1  0  0  0  0
 21 15  1  0  0  0  0
 22 16  1  0  0  0  0
 23 24  1  0  0  0  0
 24 25  1  0  0  0  0
 26 25  1  0  0  0  0
 27 23  1  0  0  0  0
 27 26  1  0  0  0  0
 28 27  1  0  0  0  0
 29 31  1  0  0  0  0
 30 29  1  0  0  0  0
M  END
>  <minimizedAffinity>
-5.13640928

$$$$

 OpenBabel03252505043D

 31 33  0  0  1  0  0  0  0  0999 V2000
   36.8320   27.1700   41.4530 C   0  0  2  0  0  0  0  0  0  0  0  0
   36.9570   26.1820   42.5650 C   0  0  0  0  0  0  0  0  0  0  0  0
   37.5600   24.8820   42.2170 C   0  0  0  0  0  0  0  0  0  0  0  0
   36.7360   24.3420   41.0580 C   0  0  0  0  0  0  0  0  0  0  0  0
   36.8710   25.1640   39.8490 C   0  0  0  0  0  0  0  0  0  0  0  0
   36.9180   26.6420   40.1000 C   0  0  0  0  0  0  0  0  0  0  0  0
   35.8680   27.7150   41.5700 H   0  0  0  0  0  0  0  0  0  0  0  0
   37.5130   26.5860   43.4420 H   0  0  0  0  0  0  0  0  0  0  0  0
   35.9320   25.9750   42.9750 H   0  0  0  0  0  0  0  0  0  0  0  0
   37.3510   24.1780   43.0640 H   0  0  0  0  0  0  0  0  0  0  0  0
   38.6190   24.9500   41.9550 H   0  0  0  0  0  0  0  0  0  0  0  0
   35.6860   24.2950   41.3700 H   0  0  0  0  0  0  0  0  0  0  0  0
   37.1950   23.3780   40.8080 H   0  0  0  0  0  0  0  0  0  0  0  0
   36.9450   24.9130   38.8010 H   0  0  0  0  0  0  0  0  0  0  0  0
   39.9170   28.8280   42.6640 C   0  0  0  0  0  0  0  0  0  0  0  0
   39.7960   30.1260   42.1020 C   0  0  0  0  0  0  0  0  0  0  0  0
   38.6480   30.3960   41.3200 C   0  0  0  0  0  0  0  0  0  0  0  0
   37.7290   29.4130   41.1470 N   0  0  0  0  0  0  0  0  0  0  0  0
   37.8800   28.1960   41.6960 C   0  0  0  0  0  0  0  0  0  0  0  0
   38.9670   27.8940   42.4540 N   0  0  0  0  0  0  0  0  0  0  0  0
   40.7940   28.6470   43.2510 H   0  0  0  0  0  0  0  0  0  0  0  0
   40.5790   30.8460   42.2930 H   0  0  0  0  0  0  0  0  0  0  0  0
   38.5300   31.6780   40.7660 N   0  0  0  0  0  0  0  0  0  0  0  0
   37.2900   32.1870   40.2110 C   0  0  0  0  0  2  0  0  0  0  0  0
   37.5800   33.5930   39.7500 C   0  0  0  0  0  2  0  0  0  0  0  0
   38.7600   33.9630   40.6180 C   0  0  0  0  0  2  0  0  0  0  0  0
   39.5640   32.6850   40.6480 C   0  0  0  0  0  3  0  0  0  0  0  0
   40.2880   32.6490   41.4840 H   0  0  0  0  0  0  0  0  0  0  0  0
   37.0510   27.5560   39.0180 N   0  0  0  0  0  0  0  0  0  0  0  0
   36.2300   28.1540   38.7830 H   0  0  0  0  0  0  0  0  0  0  0  0
   38.0000   27.5340   38.5470 H   0  0  0  0  0  0  0  0  0  0  0  0
  1  7  1  1  0  0  0
  1 19  1  0  0  0  0
  1  2  1  0  0  0  0
  2  9  1  0  0  0  0
  2  8  1  0  0  0  0
  3  2  1  0  0  0  0
  3 10  1  0  0  0  0
  4 12  1  0  0  0  0
  4  3  1  0  0  0  0
  5  6  2  0  0  0  0
  5  4  1  0  0  0  0
  6  1  1  0  0  0  0
 11  3  1  0  0  0  0
 13  4  1  0  0  0  0
 14  5  1  0  0  0  0
 15 21  1  0  0  0  0
 16 22  1  0  0  0  0
 16 15  2  0  0  0  0
 17 16  1  0  0  0  0
 18 17  2  0  0  0  0
 18 19  1  0  0  0  0
 19 20  2  0  0  0  0
 20 15  1  0  0  0  0
 23 17  1  0  0  0  0
 24 23  1  0  0  0  0
 25 24  1  0  0  0  0
 25 26  1  0  0  0  0
 26 27  1  0  0  0  0
 27 23  1  0  0  0  0
 27 28  1  0  0  0  0
 29  6  1  0  0  0  0
 30 29  1  0  0  0  0
 31 29  1  0  0  0  0
M  END
>  <minimizedAffinity>
-5.08846474

$$$$

 OpenBabel03252505043D

 31 33  0  0  1  0  0  0  0  0999 V2000
   39.2390   30.3100   42.5650 C   0  0  2  0  0  0  0  0  0  0  0  0
   40.6310   30.0550   42.0870 C   0  0  0  0  0  0  0  0  0  0  0  0
   40.9690   28.6530   41.7830 C   0  0  0  0  0  0  0  0  0  0  0  0
   40.6400   27.8660   43.0430 C   0  0  0  0  0  0  0  0  0  0  0  0
   39.2020   27.8600   43.3360 C   0  0  0  0  0  0  0  0  0  0  0  0
   38.5040   29.1610   43.0710 C   0  0  0  0  0  0  0  0  0  0  0  0
   39.2740   31.0970   43.3530 H   0  0  0  0  0  0  0  0  0  0  0  0
   40.9010   30.6660   41.1970 H   0  0  0  0  0  0  0  0  0  0  0  0
   41.3500   30.4080   42.8770 H   0  0  0  0  0  0  0  0  0  0  0  0
   42.0850   28.5880   41.6940 H   0  0  0  0  0  0  0  0  0  0  0  0
   40.4360   28.2550   40.9150 H   0  0  0  0  0  0  0  0  0  0  0  0
   41.1960   28.3040   43.8810 H   0  0  0  0  0  0  0  0  0  0  0  0
   40.8940   26.8270   42.8040 H   0  0  0  0  0  0  0  0  0  0  0  0
   38.5360   27.0950   43.7080 H   0  0  0  0  0  0  0  0  0  0  0  0
   38.0330   32.8400   40.1410 C   0  0  0  0  0  0  0  0  0  0  0  0
   37.1940   32.0670   39.2980 C   0  0  0  0  0  0  0  0  0  0  0  0
   37.0640   30.6880   39.5900 C   0  0  0  0  0  0  0  0  0  0  0  0
   37.7400   30.1780   40.6510 N   0  0  0  0  0  0  0  0  0  0  0  0
   38.5260   30.9460   41.4260 C   0  0  0  0  0  0  0  0  0  0  0  0
   38.6790   32.2730   41.1810 N   0  0  0  0  0  0  0  0  0  0  0  0
   38.1150   33.8800   39.9000 H   0  0  0  0  0  0  0  0  0  0  0  0
   36.6940   32.5570   38.4750 H   0  0  0  0  0  0  0  0  0  0  0  0
   36.2350   29.9250   38.7570 N   0  0  0  0  0  0  0  0  0  0  0  0
   36.4140   29.8490   37.3200 C   0  0  0  0  0  2  0  0  0  0  0  0
   35.3450   28.9170   36.8090 C   0  0  0  0  0  2  0  0  0  0  0  0
   35.0490   28.0880   38.0380 C   0  0  0  0  0  2  0  0  0  0  0  0
   35.1030   29.1100   39.1480 C   0  0  0  0  0  3  0  0  0  0  0  0
   35.2340   28.6560   40.1490 H   0  0  0  0  0  0  0  0  0  0  0  0
   37.1070   29.2950   43.3060 N   0  0  0  0  0  0  0  0  0  0  0  0
   36.8040   29.8990   44.1000 H   0  0  0  0  0  0  0  0  0  0  0  0
   36.5000   28.7510   42.6300 H   0  0  0  0  0  0  0  0  0  0  0  0
  1  6  1  0  0  0  0
  1  7  1  1  0  0  0
  2  1  1  0  0  0  0
  2  9  1  0  0  0  0
  3  2  1  0  0  0  0
  3  4  1  0  0  0  0
  4  5  1  0  0  0  0
  4 12  1  0  0  0  0
  5 14  1  0  0  0  0
  6 29  1  0  0  0  0
  6  5  2  0  0  0  0
  8  2  1  0  0  0  0
 10  3  1  0  0  0  0
 11  3  1  0  0  0  0
 13  4  1  0  0  0  0
 15 20  1  0  0  0  0
 16 17  1  0  0  0  0
 16 15  2  0  0  0  0
 17 18  2  0  0  0  0
 18 19  1  0  0  0  0
 19  1  1  0  0  0  0
 20 19  2  0  0  0  0
 21 15  1  0  0  0  0
 22 16  1  0  0  0  0
 23 27  1  0  0  0  0
 23 17  1  0  0  0  0
 24 23  1  0  0  0  0
 25 24  1  0  0  0  0
 25 26  1  0  0  0  0
 26 27  1  0  0  0  0
 27 28  1  0  0  0  0
 29 30  1  0  0  0  0
 31 29  1  0  0  0  0
M  END
>  <minimizedAffinity>
-5.0689764

$$$$

 OpenBabel03252505043D

 31 33  0  0  1  0  0  0  0  0999 V2000
   35.8650   28.5650   40.5940 C   0  0  2  0  0  0  0  0  0  0  0  0
   36.1950   27.5770   39.5250 C   0  0  0  0  0  0  0  0  0  0  0  0
   36.8560   28.1150   38.3220 C   0  0  0  0  0  0  0  0  0  0  0  0
   35.9510   29.2290   37.8170 C   0  0  0  0  0  0  0  0  0  0  0  0
   35.8800   30.3560   38.7530 C   0  0  0  0  0  0  0  0  0  0  0  0
   35.8380   29.9660   40.2010 C   0  0  0  0  0  0  0  0  0  0  0  0
   34.8800   28.2920   41.0370 H   0  0  0  0  0  0  0  0  0  0  0  0
   36.8130   26.7280   39.8960 H   0  0  0  0  0  0  0  0  0  0  0  0
   35.2430   27.0830   39.1890 H   0  0  0  0  0  0  0  0  0  0  0  0
   36.8020   27.3250   37.5280 H   0  0  0  0  0  0  0  0  0  0  0  0
   37.8700   28.4800   38.5090 H   0  0  0  0  0  0  0  0  0  0  0  0
   34.9510   28.8130   37.6470 H   0  0  0  0  0  0  0  0  0  0  0  0
   36.4540   29.6210   36.9240 H   0  0  0  0  0  0  0  0  0  0  0  0
   35.8540   31.4260   38.6060 H   0  0  0  0  0  0  0  0  0  0  0  0
   37.4590   27.2610   43.6750 C   0  0  0  0  0  0  0  0  0  0  0  0
   38.7100   27.9300   43.6670 C   0  0  0  0  0  0  0  0  0  0  0  0
   38.9710   28.8180   42.5970 C   0  0  0  0  0  0  0  0  0  0  0  0
   38.0230   28.9850   41.6410 N   0  0  0  0  0  0  0  0  0  0  0  0
   36.8490   28.3330   41.6840 C   0  0  0  0  0  0  0  0  0  0  0  0
   36.5570   27.4710   42.6940 N   0  0  0  0  0  0  0  0  0  0  0  0
   37.2840   26.5940   44.4950 H   0  0  0  0  0  0  0  0  0  0  0  0
   39.4060   27.7340   44.4710 H   0  0  0  0  0  0  0  0  0  0  0  0
   40.2080   29.4770   42.5900 N   0  0  0  0  0  0  0  0  0  0  0  0
   40.3330   30.9200   42.6610 C   0  0  0  0  0  2  0  0  0  0  0  0
   41.8110   31.2170   42.6520 C   0  0  0  0  0  2  0  0  0  0  0  0
   42.3860   29.9240   43.1830 C   0  0  0  0  0  2  0  0  0  0  0  0
   41.5250   28.8790   42.5160 C   0  0  0  0  0  3  0  0  0  0  0  0
   41.5710   27.8940   43.0180 H   0  0  0  0  0  0  0  0  0  0  0  0
   35.7730   30.9590   41.2170 N   0  0  0  0  0  0  0  0  0  0  0  0
   34.8850   31.0440   41.7570 H   0  0  0  0  0  0  0  0  0  0  0  0
   36.6600   31.5270   41.3240 H   0  0  0  0  0  0  0  0  0  0  0  0
  1  7  1  1  0  0  0
  1 19  1  0  0  0  0
  2  8  1  0  0  0  0
  2  1  1  0  0  0  0
  3 11  1  0  0  0  0
  3  2  1  0  0  0  0
  4  3  1  0  0  0  0
  4  5  1  0  0  0  0
  5  6  2  0  0  0  0
  6  1  1  0  0  0  0
  6 29  1  0  0  0  0
  9  2  1  0  0  0  0
 10  3  1  0  0  0  0
 12  4  1  0  0  0  0
 13  4  1  0  0  0  0
 14  5  1  0  0  0  0
 15 21  1  0  0  0  0
 16 15  1  0  0  0  0
 16 22  1  0  0  0  0
 17 16  2  0  0  0  0
 18 19  2  0  0  0  0
 18 17  1  0  0  0  0
 19 20  1  0  0  0  0
 20 15  2  0  0  0  0
 23 17  1  0  0  0  0
 23 24  1  0  0  0  0
 25 24  1  0  0  0  0
 25 26  1  0  0  0  0
 27 23  1  0  0  0  0
 27 28  1  0  0  0  0
 27 26  1  0  0  0  0
 29 31  1  0  0  0  0
 29 30  1  0  0  0  0
M  END
>  <minimizedAffinity>
-5.06586409

$$$$
