
 OpenBabel03252509223D

 24 26  0  0  1  0  0  0  0  0999 V2000
   46.5780   34.9710   41.9560 C   0  0  1  0  0  0  0  0  0  0  0  0
   48.0740   35.3880   41.9990 C   0  0  0  0  0  0  0  0  0  0  0  0
   47.5190   34.0170   41.4920 C   0  0  2  0  0  0  0  0  0  0  0  0
   45.9510   35.6380   41.3450 H   0  0  0  0  0  0  0  0  0  0  0  0
   48.6120   35.3590   42.9420 H   0  0  0  0  0  0  0  0  0  0  0  0
   48.3230   36.1240   41.2430 H   0  0  0  0  0  0  0  0  0  0  0  0
   47.7620   33.1570   42.1890 H   0  0  0  0  0  0  0  0  0  0  0  0
   44.6120   35.4670   45.1150 C   0  0  0  0  0  0  0  0  0  0  0  0
   45.1000   35.7200   43.7890 C   0  0  0  0  0  0  0  0  0  0  0  0
   46.0530   34.8260   43.3760 C   0  0  0  0  0  0  0  0  0  0  0  0
   46.4980   33.7780   44.1830 N   0  0  0  0  0  0  0  0  0  0  0  0
   45.9940   33.6080   45.4080 C   0  0  0  0  0  0  0  0  0  0  0  0
   45.0420   34.4570   45.8840 N   0  0  0  0  0  0  0  0  0  0  0  0
   43.8640   36.1320   45.4930 H   0  0  0  0  0  0  0  0  0  0  0  0
   46.4640   32.7490   45.8660 H   0  0  0  0  0  0  0  0  0  0  0  0
   44.6570   36.8030   42.9920 N   0  0  0  0  0  0  0  0  0  0  0  0
   43.8820   36.8230   42.3010 H   0  0  0  0  0  0  0  0  0  0  0  0
   45.3860   37.4630   43.3890 H   0  0  0  0  0  0  0  0  0  0  0  0
   47.8910   33.7630   40.1390 N   0  0  1  0  0  0  0  0  0  0  0  0
   48.7810   32.6210   40.1050 C   0  0  0  0  0  2  0  0  0  0  0  0
   47.9340   31.4250   39.7370 C   0  0  0  0  0  2  0  0  0  0  0  0
   46.5170   31.9400   39.7590 C   0  0  0  0  0  2  0  0  0  0  0  0
   46.7470   33.3820   39.3250 C   0  0  0  0  0  3  0  0  0  0  0  0
   45.8830   34.0220   39.4900 H   0  0  0  0  0  0  0  0  0  0  0  0
  1  4  1  6  0  0  0
  1  2  1  0  0  0  0
  1 10  1  0  0  0  0
  2  5  1  0  0  0  0
  3  1  1  0  0  0  0
  3  2  1  0  0  0  0
  3  7  1  1  0  0  0
  6  2  1  0  0  0  0
  8 14  1  0  0  0  0
  8 13  1  0  0  0  0
  9  8  2  0  0  0  0
 10  9  1  0  0  0  0
 10 11  2  0  0  0  0
 11 12  1  0  0  0  0
 12 15  1  0  0  0  0
 12 13  2  0  0  0  0
 16 18  1  0  0  0  0
 16  9  1  0  0  0  0
 17 16  1  0  0  0  0
 19 20  1  1  0  0  0
 19  3  1  0  0  0  0
 21 22  1  0  0  0  0
 21 20  1  0  0  0  0
 23 24  1  0  0  0  0
 23 22  1  0  0  0  0
 23 19  1  0  0  0  0
M  END
>  <minimizedAffinity>
-4.46180439

>  <minimizedRMSD>
1.62265813

$$$$
