
 OpenBabel03252509353D

 41 43  0  0  1  0  0  0  0  0999 V2000
   44.5220   35.4740   44.0370 O   0  0  0  0  0  0  0  0  0  0  0  0
   45.3790   34.2670   44.3640 P   0  0  1  0  0  0  0  0  0  0  0  0
   44.7170   32.8490   43.7160 O   0  0  0  0  0  0  0  0  0  0  0  0
   44.3800   33.1090   42.8140 H   0  0  0  0  0  0  0  0  0  0  0  0
   46.9000   34.5290   43.7260 O   0  0  0  0  0  0  0  0  0  0  0  0
   47.0310   33.8330   42.5200 C   0  0  1  0  0  0  0  0  0  0  0  0
   46.4490   34.6630   41.3730 C   0  0  0  0  0  0  0  0  0  0  0  0
   46.9640   33.9010   40.1820 C   0  0  0  0  0  0  0  0  0  0  0  0
   48.2410   33.2250   40.6360 C   0  0  0  0  0  0  0  0  0  0  0  0
   48.4500   33.6950   42.0620 C   0  0  1  0  0  0  0  0  0  0  0  0
   46.5100   32.8790   42.5160 H   0  0  0  0  0  0  0  0  0  0  0  0
   46.7110   35.7140   41.4110 H   0  0  0  0  0  0  0  0  0  0  0  0
   45.3310   34.5820   41.4090 H   0  0  0  0  0  0  0  0  0  0  0  0
   47.2690   34.6070   39.3770 H   0  0  0  0  0  0  0  0  0  0  0  0
   46.1980   33.1820   39.8440 H   0  0  0  0  0  0  0  0  0  0  0  0
   49.1100   33.4430   39.9900 H   0  0  0  0  0  0  0  0  0  0  0  0
   48.0090   32.1340   40.7020 H   0  0  0  0  0  0  0  0  0  0  0  0
   48.9430   32.9000   42.6780 H   0  0  0  0  0  0  0  0  0  0  0  0
   49.2120   34.9950   42.1220 C   0  0  0  0  0  0  0  0  0  0  0  0
   48.5250   35.8870   42.2020 H   0  0  0  0  0  0  0  0  0  0  0  0
   49.8000   35.1400   41.1910 H   0  0  0  0  0  0  0  0  0  0  0  0
   50.0210   35.0700   43.2330 O   0  0  0  0  0  0  0  0  0  0  0  0
   50.5710   34.2910   43.4260 H   0  0  0  0  0  0  0  0  0  0  0  0
   45.4600   34.0390   46.0140 O   0  0  0  0  0  0  0  0  0  0  0  0
   46.4000   33.0960   46.2880 C   0  0  0  0  0  0  0  0  0  0  0  0
   46.9270   32.6350   45.4600 H   0  0  0  0  0  0  0  0  0  0  0  0
   47.2030   33.6340   46.8760 H   0  0  0  0  0  0  0  0  0  0  0  0
   45.2630   31.3530   49.3700 C   0  0  0  0  0  0  0  0  0  0  0  0
   45.7230   32.3660   48.5270 C   0  0  0  0  0  0  0  0  0  0  0  0
   45.9100   32.0390   47.1870 C   0  0  0  0  0  0  0  0  0  0  0  0
   45.6390   30.7680   46.7740 N   0  0  0  0  0  0  0  0  0  0  0  0
   45.1950   29.8070   47.6100 C   0  0  0  0  0  0  0  0  0  0  0  0
   45.0110   30.1020   48.8890 N   0  0  0  0  0  0  0  0  0  0  0  0
   45.1150   31.5940   50.4060 H   0  0  0  0  0  0  0  0  0  0  0  0
   45.9140   33.3490   48.9440 H   0  0  0  0  0  0  0  0  0  0  0  0
   44.9280   28.4980   47.1220 N   0  0  0  0  0  0  0  0  0  0  0  0
   45.2920   27.2190   47.7000 C   0  0  0  0  0  2  0  0  0  0  0  0
   44.2050   26.2480   47.2430 C   0  0  0  0  0  2  0  0  0  0  0  0
   43.2700   27.0930   46.3920 C   0  0  0  0  0  2  0  0  0  0  0  0
   44.2110   28.1740   45.9050 C   0  0  0  0  0  3  0  0  0  0  0  0
   43.6430   29.0370   45.5010 H   0  0  0  0  0  0  0  0  0  0  0  0
  2  1  2  6  0  0  0
  2 24  1  0  0  0  0
  3  2  1  0  0  0  0
  4  3  1  0  0  0  0
  5  2  1  0  0  0  0
  6 11  1  1  0  0  0
  6  5  1  0  0  0  0
  7 13  1  0  0  0  0
  7 12  1  0  0  0  0
  7  6  1  0  0  0  0
  8  9  1  0  0  0  0
  8  7  1  0  0  0  0
  9 17  1  0  0  0  0
  9 10  1  0  0  0  0
 10 19  1  0  0  0  0
 10  6  1  0  0  0  0
 10 18  1  1  0  0  0
 14  8  1  0  0  0  0
 15  8  1  0  0  0  0
 16  9  1  0  0  0  0
 19 20  1  0  0  0  0
 19 22  1  0  0  0  0
 21 19  1  0  0  0  0
 22 23  1  0  0  0  0
 24 25  1  0  0  0  0
 25 27  1  0  0  0  0
 25 30  1  0  0  0  0
 26 25  1  0  0  0  0
 28 34  1  0  0  0  0
 29 35  1  0  0  0  0
 29 28  2  0  0  0  0
 30 29  1  0  0  0  0
 31 30  2  0  0  0  0
 31 32  1  0  0  0  0
 32 33  2  0  0  0  0
 33 28  1  0  0  0  0
 36 32  1  0  0  0  0
 36 37  1  0  0  0  0
 38 37  1  0  0  0  0
 39 38  1  0  0  0  0
 40 39  1  0  0  0  0
 40 36  1  0  0  0  0
 41 40  1  0  0  0  0
M  END
>  <minimizedAffinity>
-6.2844038

>  <minimizedRMSD>
1.09245265

$$$$
