
     RDKit          3D

 48 50  0  0  0  0  0  0  0  0999 V2000
   46.5758   34.9081   43.2501 O   0  0  0  0  0  0  0  0  0  0  0  0
   46.8035   33.9766   42.2310 C   0  0  1  0  0  0  0  0  0  0  0  0
   46.0741   34.4107   40.9564 C   0  0  0  0  0  0  0  0  0  0  0  0
   46.6906   33.4812   39.9467 C   0  0  0  0  0  0  0  0  0  0  0  0
   48.0689   33.1407   40.4763 C   0  0  0  0  0  0  0  0  0  0  0  0
   48.2180   33.9607   41.7415 C   0  0  1  0  0  0  0  0  0  0  0  0
   48.7546   35.3416   41.4605 C   0  0  0  0  0  0  0  0  0  0  0  0
   49.6602   35.7488   42.4152 O   0  0  0  0  0  0  0  0  0  0  0  0
   44.7356   35.3529   45.0002 O   0  0  0  0  0  0  0  0  0  0  0  0
   45.5793   34.2388   44.4108 P   0  0  1  0  0  0  0  0  0  0  0  0
   44.6095   33.0356   43.7161 O   0  0  0  0  0  0  0  0  0  0  0  0
   46.4749   33.4927   45.6035 O   0  0  0  0  0  0  0  0  0  0  0  0
   46.2322   32.1546   45.5706 C   0  0  0  0  0  0  0  0  0  0  0  0
   45.6407   31.9110   49.2337 C   0  0  0  0  0  0  0  0  0  0  0  0
   45.9721   32.4489   47.9900 C   0  0  0  0  0  0  0  0  0  0  0  0
   45.8814   31.6023   46.8890 C   0  0  0  0  0  0  0  0  0  0  0  0
   45.4802   30.3127   47.0788 N   0  0  0  0  0  0  0  0  0  0  0  0
   45.1655   29.8172   48.2940 C   0  0  0  0  0  0  0  0  0  0  0  0
   45.2468   30.6109   49.3526 N   0  0  0  0  0  0  0  0  0  0  0  0
   46.4472   32.9791   42.4740 H   0  0  0  0  0  0  0  0  0  0  0  0
   46.1587   35.4686   40.7368 H   0  0  0  0  0  0  0  0  0  0  0  0
   44.9858   34.1661   41.0695 H   0  0  0  0  0  0  0  0  0  0  0  0
   46.8630   34.0164   38.9857 H   0  0  0  0  0  0  0  0  0  0  0  0
   46.0505   32.5910   39.8235 H   0  0  0  0  0  0  0  0  0  0  0  0
   48.8798   33.3347   39.7521 H   0  0  0  0  0  0  0  0  0  0  0  0
   48.0215   32.0737   40.8028 H   0  0  0  0  0  0  0  0  0  0  0  0
   48.8446   33.4207   42.4981 H   0  0  0  0  0  0  0  0  0  0  0  0
   47.9422   36.1248   41.4781 H   0  0  0  0  0  0  0  0  0  0  0  0
   49.2024   35.3821   40.4446 H   0  0  0  0  0  0  0  0  0  0  0  0
   50.3498   35.1098   42.6634 H   0  0  0  0  0  0  0  0  0  0  0  0
   43.8745   33.5294   43.2574 H   0  0  0  0  0  0  0  0  0  0  0  0
   45.5339   31.7740   44.8340 H   0  0  0  0  0  0  0  0  0  0  0  0
   47.2222   31.6766   45.3054 H   0  0  0  0  0  0  0  0  0  0  0  0
   45.7068   32.5551   50.0910 H   0  0  0  0  0  0  0  0  0  0  0  0
   46.2816   33.4875   47.9330 H   0  0  0  0  0  0  0  0  0  0  0  0
   44.7533   28.4630   48.4334 N   0  0  0  0  0  0  0  0  0  0  0  0
   45.5549   27.2563   48.3818 C   0  0  0  0  0  0  0  0  0  0  0  0
   44.8268   26.2527   49.2740 C   0  0  0  0  0  0  0  0  0  0  0  0
   43.6046   27.0031   49.7768 C   0  0  0  0  0  0  0  0  0  0  0  0
   43.3964   28.0083   48.6638 C   0  0  1  0  0  0  0  0  0  0  0  0
   42.7206   28.8246   48.9918 H   0  0  0  0  0  0  0  0  0  0  0  0
   46.5933   27.3957   48.7289 H   0  0  0  0  0  0  0  0  0  0  0  0
   45.5117   26.9143   47.3185 H   0  0  0  0  0  0  0  0  0  0  0  0
   45.4350   25.9451   50.1368 H   0  0  0  0  0  0  0  0  0  0  0  0
   44.4473   25.4007   48.6566 H   0  0  0  0  0  0  0  0  0  0  0  0
   42.7171   26.3383   49.7857 H   0  0  0  0  0  0  0  0  0  0  0  0
   43.7918   27.5034   50.7531 H   0  0  0  0  0  0  0  0  0  0  0  0
   43.0102   27.4454   47.7862 H   0  0  0  0  0  0  0  0  0  0  0  0
 10  1  1  6
  2  1  1  0
  3  2  1  0
  4  5  1  0
  4  3  1  0
  5  6  1  0
  6  2  1  0
  7  6  1  0
  7  8  1  0
 10  9  2  0
 10 12  1  0
 11 10  1  0
 13 12  1  0
 13 16  1  0
 14 19  2  0
 15 14  1  0
 16 17  1  0
 16 15  2  0
 17 18  2  0
 18 19  1  0
  2 20  1  1
  3 21  1  0
  3 22  1  0
  4 23  1  0
  4 24  1  0
  5 25  1  0
  5 26  1  0
  6 27  1  1
  7 28  1  0
  7 29  1  0
  8 30  1  0
 11 31  1  0
 13 32  1  0
 13 33  1  0
 14 34  1  0
 15 35  1  0
 36 37  1  0
 37 38  1  0
 38 39  1  0
 39 40  1  0
 40 41  1  1
 40 36  1  0
 37 42  1  0
 37 43  1  0
 38 44  1  0
 38 45  1  0
 39 46  1  0
 39 47  1  0
 40 48  1  0
 18 36  1  0
M  ISO  8  20  13  21  13  22  13  23  13  24  13  25  13  26  13  27  13
M  ISO  8  28   8  29   8  30   3  31   3  32   8  33   8  34  14  35  14
M  ISO  1  41  13
M  END
>  <DihAtoms>  (1) 
16,17,35,36

>  <DihDeg>  (1) 
0.043902570073872625

$$$$
