
 OpenBabel03252509353D

 41 43  0  0  1  0  0  0  0  0999 V2000
   44.5200   35.4690   44.0770 O   0  0  0  0  0  0  0  0  0  0  0  0
   45.3750   34.2510   44.3670 P   0  0  1  0  0  0  0  0  0  0  0  0
   44.7030   32.8520   43.6850 O   0  0  0  0  0  0  0  0  0  0  0  0
   44.3620   33.1380   42.7930 H   0  0  0  0  0  0  0  0  0  0  0  0
   46.8930   34.5240   43.7280 O   0  0  0  0  0  0  0  0  0  0  0  0
   47.0260   33.8330   42.5190 C   0  0  1  0  0  0  0  0  0  0  0  0
   46.4420   34.6660   41.3740 C   0  0  0  0  0  0  0  0  0  0  0  0
   46.9600   33.9100   40.1810 C   0  0  0  0  0  0  0  0  0  0  0  0
   48.2380   33.2350   40.6330 C   0  0  0  0  0  0  0  0  0  0  0  0
   48.4460   33.7000   42.0600 C   0  0  1  0  0  0  0  0  0  0  0  0
   46.5070   32.8780   42.5110 H   0  0  0  0  0  0  0  0  0  0  0  0
   46.7020   35.7170   41.4160 H   0  0  0  0  0  0  0  0  0  0  0  0
   45.3250   34.5830   41.4100 H   0  0  0  0  0  0  0  0  0  0  0  0
   47.2630   34.6190   39.3790 H   0  0  0  0  0  0  0  0  0  0  0  0
   46.1950   33.1900   39.8400 H   0  0  0  0  0  0  0  0  0  0  0  0
   49.1060   33.4570   39.9880 H   0  0  0  0  0  0  0  0  0  0  0  0
   48.0080   32.1430   40.6940 H   0  0  0  0  0  0  0  0  0  0  0  0
   48.9400   32.9030   42.6740 H   0  0  0  0  0  0  0  0  0  0  0  0
   49.2050   35.0020   42.1260 C   0  0  0  0  0  0  0  0  0  0  0  0
   48.5150   35.8910   42.2150 H   0  0  0  0  0  0  0  0  0  0  0  0
   49.7880   35.1540   41.1930 H   0  0  0  0  0  0  0  0  0  0  0  0
   50.0180   35.0710   43.2340 O   0  0  0  0  0  0  0  0  0  0  0  0
   50.5710   34.2920   43.4190 H   0  0  0  0  0  0  0  0  0  0  0  0
   45.4640   33.9790   46.0100 O   0  0  0  0  0  0  0  0  0  0  0  0
   46.4190   33.0410   46.2550 C   0  0  0  0  0  0  0  0  0  0  0  0
   46.9030   32.5640   45.4110 H   0  0  0  0  0  0  0  0  0  0  0  0
   47.2490   33.5920   46.7900 H   0  0  0  0  0  0  0  0  0  0  0  0
   45.2560   31.4040   49.3840 C   0  0  0  0  0  0  0  0  0  0  0  0
   45.6690   32.3990   48.4980 C   0  0  0  0  0  0  0  0  0  0  0  0
   45.9760   32.0030   47.1990 C   0  0  0  0  0  0  0  0  0  0  0  0
   45.8600   30.6860   46.8660 N   0  0  0  0  0  0  0  0  0  0  0  0
   45.4580   29.7430   47.7430 C   0  0  0  0  0  0  0  0  0  0  0  0
   45.1610   30.1040   48.9840 N   0  0  0  0  0  0  0  0  0  0  0  0
   45.0150   31.6980   50.3890 H   0  0  0  0  0  0  0  0  0  0  0  0
   45.7330   33.4230   48.8510 H   0  0  0  0  0  0  0  0  0  0  0  0
   45.3550   28.3830   47.3400 N   0  0  0  0  0  0  0  0  0  0  0  0
   45.8970   27.7390   46.1610 C   0  0  0  0  0  2  0  0  0  0  0  0
   46.1380   26.2870   46.5710 C   0  0  0  0  0  2  0  0  0  0  0  0
   45.6810   26.2180   48.0190 C   0  0  0  0  0  2  0  0  0  0  0  0
   44.6590   27.3340   48.0600 C   0  0  0  0  0  3  0  0  0  0  0  0
   44.4260   27.6160   49.1080 H   0  0  0  0  0  0  0  0  0  0  0  0
  2  1  2  6  0  0  0
  2 24  1  0  0  0  0
  3  2  1  0  0  0  0
  4  3  1  0  0  0  0
  5  2  1  0  0  0  0
  6 11  1  1  0  0  0
  6  5  1  0  0  0  0
  7 13  1  0  0  0  0
  7 12  1  0  0  0  0
  7  6  1  0  0  0  0
  8  9  1  0  0  0  0
  8  7  1  0  0  0  0
  9 17  1  0  0  0  0
  9 10  1  0  0  0  0
 10 19  1  0  0  0  0
 10  6  1  0  0  0  0
 10 18  1  1  0  0  0
 14  8  1  0  0  0  0
 15  8  1  0  0  0  0
 16  9  1  0  0  0  0
 19 20  1  0  0  0  0
 19 22  1  0  0  0  0
 21 19  1  0  0  0  0
 22 23  1  0  0  0  0
 24 25  1  0  0  0  0
 25 27  1  0  0  0  0
 25 30  1  0  0  0  0
 26 25  1  0  0  0  0
 28 34  1  0  0  0  0
 29 35  1  0  0  0  0
 29 28  2  0  0  0  0
 30 29  1  0  0  0  0
 31 30  2  0  0  0  0
 31 32  1  0  0  0  0
 32 33  2  0  0  0  0
 33 28  1  0  0  0  0
 36 32  1  0  0  0  0
 36 40  1  0  0  0  0
 37 38  1  0  0  0  0
 37 36  1  0  0  0  0
 38 39  1  0  0  0  0
 39 40  1  0  0  0  0
 40 41  1  0  0  0  0
M  END
>  <minimizedAffinity>
-6.04834366

>  <minimizedRMSD>
1.02784467

$$$$
