
 OpenBabel03252505353D

 27 29  0  0  0  0  0  0  0  0999 V2000
   37.5860   29.3780   41.4740 C   0  0  0  0  0  0  0  0  0  0  0  0
   38.3140   29.4150   42.6320 C   0  0  0  0  0  0  0  0  0  0  0  0
   38.1050   28.5150   43.6780 C   0  0  0  0  0  0  0  0  0  0  0  0
   37.1350   27.5450   43.5640 C   0  0  0  0  0  0  0  0  0  0  0  0
   36.4020   27.5150   42.3860 C   0  0  0  0  0  0  0  0  0  0  0  0
   36.6030   28.4060   41.3380 C   0  0  0  0  0  0  0  0  0  0  0  0
   39.1000   30.1290   42.8380 H   0  0  0  0  0  0  0  0  0  0  0  0
   38.6820   28.5460   44.5940 H   0  0  0  0  0  0  0  0  0  0  0  0
   36.8860   26.8040   44.2970 H   0  0  0  0  0  0  0  0  0  0  0  0
   35.6260   26.7890   42.2150 H   0  0  0  0  0  0  0  0  0  0  0  0
   38.9640   31.1020   38.4200 C   0  0  0  0  0  0  0  0  0  0  0  0
   38.7410   30.0900   39.3750 C   0  0  0  0  0  0  0  0  0  0  0  0
   37.8760   30.3470   40.4460 C   0  0  0  0  0  0  0  0  0  0  0  0
   37.2870   31.5540   40.5270 N   0  0  0  0  0  0  0  0  0  0  0  0
   37.5210   32.5110   39.5870 C   0  0  0  0  0  0  0  0  0  0  0  0
   38.3550   32.2850   38.5400 N   0  0  0  0  0  0  0  0  0  0  0  0
   36.8910   33.7840   39.6770 N   0  0  0  0  0  0  0  0  0  0  0  0
   39.6420   30.8240   37.6280 H   0  0  0  0  0  0  0  0  0  0  0  0
   39.2110   29.1100   39.3240 H   0  0  0  0  0  0  0  0  0  0  0  0
   35.9310   33.5580   39.2910 H   0  0  0  0  0  0  0  0  0  0  0  0
   37.5140   34.5180   40.0720 H   0  0  0  0  0  0  0  0  0  0  0  0
   35.8300   28.3450   40.1440 N   0  0  0  0  0  0  0  0  0  0  0  0
   34.6800   29.0880   39.6380 C   0  0  0  0  0  2  0  0  0  0  0  0
   35.1050   29.2740   38.1880 C   0  0  0  0  0  2  0  0  0  0  0  0
   35.4850   27.8480   37.8390 C   0  0  0  0  0  2  0  0  0  0  0  0
   36.1490   27.3660   39.1060 C   0  0  0  0  0  3  0  0  0  0  0  0
   37.2650   27.4320   38.9540 H   0  0  0  0  0  0  0  0  0  0  0  0
  1  2  1  0  0  0  0
  2  7  1  0  0  0  0
  2  3  2  0  0  0  0
  3  8  1  0  0  0  0
  4  3  1  0  0  0  0
  4  9  1  0  0  0  0
  5  4  2  0  0  0  0
  6  1  2  0  0  0  0
  6  5  1  0  0  0  0
 10  5  1  0  0  0  0
 11 16  2  0  0  0  0
 11 12  1  0  0  0  0
 12 13  2  0  0  0  0
 13 14  1  0  0  0  0
 13  1  1  0  0  0  0
 15 17  1  0  0  0  0
 15 14  2  0  0  0  0
 16 15  1  0  0  0  0
 17 21  1  0  0  0  0
 18 11  1  0  0  0  0
 19 12  1  0  0  0  0
 20 17  1  0  0  0  0
 22  6  1  0  0  0  0
 23 22  1  0  0  0  0
 24 23  1  0  0  0  0
 25 24  1  0  0  0  0
 25 26  1  0  0  0  0
 26 22  1  0  0  0  0
 27 26  1  0  0  0  0
M  END
>  <minimizedAffinity>
-5.34869432

$$$$

 OpenBabel03252505353D

 27 29  0  0  0  0  0  0  0  0999 V2000
   37.4060   30.0090   39.4600 C   0  0  0  0  0  0  0  0  0  0  0  0
   36.7900   30.2490   38.2610 C   0  0  0  0  0  0  0  0  0  0  0  0
   35.7320   29.4680   37.7930 C   0  0  0  0  0  0  0  0  0  0  0  0
   35.2750   28.4110   38.5460 C   0  0  0  0  0  0  0  0  0  0  0  0
   35.9070   28.1750   39.7590 C   0  0  0  0  0  0  0  0  0  0  0  0
   36.9600   28.9470   40.2360 C   0  0  0  0  0  0  0  0  0  0  0  0
   37.0600   31.0480   37.5840 H   0  0  0  0  0  0  0  0  0  0  0  0
   35.2460   29.6590   36.8450 H   0  0  0  0  0  0  0  0  0  0  0  0
   34.4750   27.7450   38.2900 H   0  0  0  0  0  0  0  0  0  0  0  0
   35.6110   27.3700   40.4090 H   0  0  0  0  0  0  0  0  0  0  0  0
   40.8260   31.4500   40.1170 C   0  0  0  0  0  0  0  0  0  0  0  0
   39.8380   30.5400   39.6900 C   0  0  0  0  0  0  0  0  0  0  0  0
   38.4890   30.8730   39.8630 C   0  0  0  0  0  0  0  0  0  0  0  0
   38.1810   32.0530   40.4310 N   0  0  0  0  0  0  0  0  0  0  0  0
   39.1590   32.9130   40.8310 C   0  0  0  0  0  0  0  0  0  0  0  0
   40.4730   32.6110   40.6750 N   0  0  0  0  0  0  0  0  0  0  0  0
   38.8250   34.1610   41.4290 N   0  0  0  0  0  0  0  0  0  0  0  0
   41.8380   31.1180   39.9480 H   0  0  0  0  0  0  0  0  0  0  0  0
   40.0710   29.5810   39.2300 H   0  0  0  0  0  0  0  0  0  0  0  0
   38.5920   34.7350   40.5710 H   0  0  0  0  0  0  0  0  0  0  0  0
   38.9010   34.1470   42.4660 H   0  0  0  0  0  0  0  0  0  0  0  0
   37.5830   28.6750   41.4860 N   0  0  0  0  0  0  0  0  0  0  0  0
   37.5190   29.2880   42.8090 C   0  0  0  0  0  2  0  0  0  0  0  0
   37.4670   28.0370   43.6750 C   0  0  0  0  0  2  0  0  0  0  0  0
   38.6340   27.2630   43.0940 C   0  0  0  0  0  2  0  0  0  0  0  0
   38.5210   27.5610   41.6170 C   0  0  0  0  0  3  0  0  0  0  0  0
   38.0190   26.6770   41.1270 H   0  0  0  0  0  0  0  0  0  0  0  0
  1 13  1  0  0  0  0
  1  6  1  0  0  0  0
  2  1  2  0  0  0  0
  3  2  1  0  0  0  0
  3  4  2  0  0  0  0
  4  5  1  0  0  0  0
  5  6  2  0  0  0  0
  5 10  1  0  0  0  0
  6 22  1  0  0  0  0
  7  2  1  0  0  0  0
  8  3  1  0  0  0  0
  9  4  1  0  0  0  0
 11 16  1  0  0  0  0
 12 13  1  0  0  0  0
 12 11  2  0  0  0  0
 13 14  2  0  0  0  0
 14 15  1  0  0  0  0
 15 17  1  0  0  0  0
 16 15  2  0  0  0  0
 17 21  1  0  0  0  0
 18 11  1  0  0  0  0
 19 12  1  0  0  0  0
 20 17  1  0  0  0  0
 22 26  1  0  0  0  0
 22 23  1  0  0  0  0
 23 24  1  0  0  0  0
 25 24  1  0  0  0  0
 26 25  1  0  0  0  0
 27 26  1  0  0  0  0
M  END
>  <minimizedAffinity>
-5.26949835

$$$$

 OpenBabel03252505353D

 27 29  0  0  0  0  0  0  0  0999 V2000
   36.5920   28.5830   41.2200 C   0  0  0  0  0  0  0  0  0  0  0  0
   36.3990   27.6840   42.2340 C   0  0  0  0  0  0  0  0  0  0  0  0
   37.1020   27.7490   43.4380 C   0  0  0  0  0  0  0  0  0  0  0  0
   38.0310   28.7460   43.6350 C   0  0  0  0  0  0  0  0  0  0  0  0
   38.2200   29.6520   42.6010 C   0  0  0  0  0  0  0  0  0  0  0  0
   37.5250   29.5960   41.3990 C   0  0  0  0  0  0  0  0  0  0  0  0
   35.6980   26.8610   42.1960 H   0  0  0  0  0  0  0  0  0  0  0  0
   36.9480   27.0380   44.2390 H   0  0  0  0  0  0  0  0  0  0  0  0
   38.6280   28.8950   44.5130 H   0  0  0  0  0  0  0  0  0  0  0  0
   38.9270   30.4600   42.6740 H   0  0  0  0  0  0  0  0  0  0  0  0
   33.9430   28.9400   38.5640 C   0  0  0  0  0  0  0  0  0  0  0  0
   34.6340   29.1510   39.7740 C   0  0  0  0  0  0  0  0  0  0  0  0
   35.8150   28.4380   40.0140 C   0  0  0  0  0  0  0  0  0  0  0  0
   36.2510   27.5740   39.0780 N   0  0  0  0  0  0  0  0  0  0  0  0
   35.5600   27.3930   37.9180 C   0  0  0  0  0  0  0  0  0  0  0  0
   34.4130   28.0730   37.6640 N   0  0  0  0  0  0  0  0  0  0  0  0
   36.0300   26.4800   36.9310 N   0  0  0  0  0  0  0  0  0  0  0  0
   33.0440   29.5280   38.4580 H   0  0  0  0  0  0  0  0  0  0  0  0
   34.2940   29.8450   40.5410 H   0  0  0  0  0  0  0  0  0  0  0  0
   36.7790   27.0620   36.4630 H   0  0  0  0  0  0  0  0  0  0  0  0
   35.5340   25.5660   36.9570 H   0  0  0  0  0  0  0  0  0  0  0  0
   37.7460   30.5440   40.3610 N   0  0  0  0  0  0  0  0  0  0  0  0
   38.4900   30.5200   39.1050 C   0  0  0  0  0  2  0  0  0  0  0  0
   37.4920   31.2270   38.1970 C   0  0  0  0  0  2  0  0  0  0  0  0
   37.1840   32.4480   39.0420 C   0  0  0  0  0  2  0  0  0  0  0  0
   37.1580   31.8800   40.4410 C   0  0  0  0  0  3  0  0  0  0  0  0
   36.0780   31.7230   40.7260 H   0  0  0  0  0  0  0  0  0  0  0  0
  1  6  2  0  0  0  0
  1  2  1  0  0  0  0
  2  3  2  0  0  0  0
  3  4  1  0  0  0  0
  3  8  1  0  0  0  0
  4  9  1  0  0  0  0
  5 10  1  0  0  0  0
  5  4  2  0  0  0  0
  6  5  1  0  0  0  0
  7  2  1  0  0  0  0
 11 12  1  0  0  0  0
 12 13  2  0  0  0  0
 12 19  1  0  0  0  0
 13  1  1  0  0  0  0
 14 13  1  0  0  0  0
 15 14  2  0  0  0  0
 16 15  1  0  0  0  0
 16 11  2  0  0  0  0
 17 21  1  0  0  0  0
 17 15  1  0  0  0  0
 18 11  1  0  0  0  0
 20 17  1  0  0  0  0
 22 26  1  0  0  0  0
 22  6  1  0  0  0  0
 23 22  1  0  0  0  0
 24 25  1  0  0  0  0
 24 23  1  0  0  0  0
 25 26  1  0  0  0  0
 26 27  1  0  0  0  0
M  END
>  <minimizedAffinity>
-5.15016794

$$$$

 OpenBabel03252505353D

 27 29  0  0  0  0  0  0  0  0999 V2000
   37.7010   29.2050   41.4590 C   0  0  0  0  0  0  0  0  0  0  0  0
   36.6010   28.4920   41.8550 C   0  0  0  0  0  0  0  0  0  0  0  0
   36.6270   27.6110   42.9360 C   0  0  0  0  0  0  0  0  0  0  0  0
   37.7930   27.4350   43.6470 C   0  0  0  0  0  0  0  0  0  0  0  0
   38.9020   28.1610   43.2390 C   0  0  0  0  0  0  0  0  0  0  0  0
   38.8860   29.0410   42.1630 C   0  0  0  0  0  0  0  0  0  0  0  0
   35.6320   28.5470   41.3750 H   0  0  0  0  0  0  0  0  0  0  0  0
   35.7570   27.0480   43.2470 H   0  0  0  0  0  0  0  0  0  0  0  0
   37.9320   26.7890   44.4910 H   0  0  0  0  0  0  0  0  0  0  0  0
   39.8520   28.0820   43.7400 H   0  0  0  0  0  0  0  0  0  0  0  0
   37.5700   30.6140   37.9670 C   0  0  0  0  0  0  0  0  0  0  0  0
   37.7080   29.6690   39.0030 C   0  0  0  0  0  0  0  0  0  0  0  0
   37.5760   30.0950   40.3310 C   0  0  0  0  0  0  0  0  0  0  0  0
   37.3220   31.3930   40.5720 N   0  0  0  0  0  0  0  0  0  0  0  0
   37.1920   32.2830   39.5490 C   0  0  0  0  0  0  0  0  0  0  0  0
   37.3160   31.8940   38.2540 N   0  0  0  0  0  0  0  0  0  0  0  0
   36.9200   33.6550   39.8120 N   0  0  0  0  0  0  0  0  0  0  0  0
   37.6850   30.2070   36.9750 H   0  0  0  0  0  0  0  0  0  0  0  0
   37.9140   28.6160   38.8240 H   0  0  0  0  0  0  0  0  0  0  0  0
   35.8770   33.6200   39.9900 H   0  0  0  0  0  0  0  0  0  0  0  0
   37.7690   34.2550   39.7590 H   0  0  0  0  0  0  0  0  0  0  0  0
   40.0460   29.7690   41.7730 N   0  0  0  0  0  0  0  0  0  0  0  0
   41.0700   29.5780   40.7500 C   0  0  0  0  0  2  0  0  0  0  0  0
   41.2020   31.0080   40.2430 C   0  0  0  0  0  2  0  0  0  0  0  0
   41.3660   31.7420   41.5590 C   0  0  0  0  0  2  0  0  0  0  0  0
   40.4130   31.0020   42.4670 C   0  0  0  0  0  3  0  0  0  0  0  0
   39.4650   31.6090   42.5370 H   0  0  0  0  0  0  0  0  0  0  0  0
  1  2  2  0  0  0  0
  1  6  1  0  0  0  0
  2  3  1  0  0  0  0
  3  8  1  0  0  0  0
  3  4  2  0  0  0  0
  4  9  1  0  0  0  0
  5  4  1  0  0  0  0
  5 10  1  0  0  0  0
  6  5  2  0  0  0  0
  7  2  1  0  0  0  0
 11 16  2  0  0  0  0
 11 12  1  0  0  0  0
 12 13  2  0  0  0  0
 13 14  1  0  0  0  0
 13  1  1  0  0  0  0
 15 17  1  0  0  0  0
 15 14  2  0  0  0  0
 16 15  1  0  0  0  0
 17 20  1  0  0  0  0
 18 11  1  0  0  0  0
 19 12  1  0  0  0  0
 21 17  1  0  0  0  0
 22  6  1  0  0  0  0
 22 26  1  0  0  0  0
 23 22  1  0  0  0  0
 24 23  1  0  0  0  0
 24 25  1  0  0  0  0
 25 26  1  0  0  0  0
 26 27  1  0  0  0  0
M  END
>  <minimizedAffinity>
-5.08423138

$$$$

 OpenBabel03252505353D

 27 29  0  0  0  0  0  0  0  0999 V2000
   36.5390   27.2910   39.6620 C   0  0  0  0  0  0  0  0  0  0  0  0
   35.9600   27.1860   38.4260 C   0  0  0  0  0  0  0  0  0  0  0  0
   34.9020   28.0010   38.0210 C   0  0  0  0  0  0  0  0  0  0  0  0
   34.4050   28.9540   38.8810 C   0  0  0  0  0  0  0  0  0  0  0  0
   34.9980   29.0540   40.1310 C   0  0  0  0  0  0  0  0  0  0  0  0
   36.0520   28.2470   40.5440 C   0  0  0  0  0  0  0  0  0  0  0  0
   36.2630   26.4770   37.6670 H   0  0  0  0  0  0  0  0  0  0  0  0
   34.4460   27.9160   37.0440 H   0  0  0  0  0  0  0  0  0  0  0  0
   33.6000   29.6340   38.6820 H   0  0  0  0  0  0  0  0  0  0  0  0
   34.6700   29.7720   40.8630 H   0  0  0  0  0  0  0  0  0  0  0  0
   39.9720   25.8220   40.1630 C   0  0  0  0  0  0  0  0  0  0  0  0
   38.9750   26.7550   39.8150 C   0  0  0  0  0  0  0  0  0  0  0  0
   37.6300   26.4070   39.9890 C   0  0  0  0  0  0  0  0  0  0  0  0
   37.3350   25.1900   40.4830 N   0  0  0  0  0  0  0  0  0  0  0  0
   38.3220   24.3110   40.8110 C   0  0  0  0  0  0  0  0  0  0  0  0
   39.6330   24.6260   40.6510 N   0  0  0  0  0  0  0  0  0  0  0  0
   38.0020   23.0270   41.3370 N   0  0  0  0  0  0  0  0  0  0  0  0
   40.9810   26.1680   40.0000 H   0  0  0  0  0  0  0  0  0  0  0  0
   39.1980   27.7420   39.4140 H   0  0  0  0  0  0  0  0  0  0  0  0
   37.8040   23.2700   42.3470 H   0  0  0  0  0  0  0  0  0  0  0  0
   38.0520   22.2720   40.6220 H   0  0  0  0  0  0  0  0  0  0  0  0
   36.6350   28.3770   41.8360 N   0  0  0  0  0  0  0  0  0  0  0  0
   36.5320   27.6190   43.0790 C   0  0  0  0  0  2  0  0  0  0  0  0
   37.9960   27.6030   43.4970 C   0  0  0  0  0  2  0  0  0  0  0  0
   38.3260   29.0770   43.3630 C   0  0  0  0  0  2  0  0  0  0  0  0
   37.5610   29.4710   42.1220 C   0  0  0  0  0  3  0  0  0  0  0  0
   38.2910   29.4890   41.2610 H   0  0  0  0  0  0  0  0  0  0  0  0
  1 13  1  0  0  0  0
  1  6  1  0  0  0  0
  2  1  2  0  0  0  0
  3  2  1  0  0  0  0
  3  4  2  0  0  0  0
  4  5  1  0  0  0  0
  5  6  2  0  0  0  0
  5 10  1  0  0  0  0
  6 22  1  0  0  0  0
  7  2  1  0  0  0  0
  8  3  1  0  0  0  0
  9  4  1  0  0  0  0
 11 16  1  0  0  0  0
 12 13  1  0  0  0  0
 12 11  2  0  0  0  0
 13 14  2  0  0  0  0
 14 15  1  0  0  0  0
 15 17  1  0  0  0  0
 16 15  2  0  0  0  0
 17 20  1  0  0  0  0
 18 11  1  0  0  0  0
 19 12  1  0  0  0  0
 21 17  1  0  0  0  0
 22 26  1  0  0  0  0
 22 23  1  0  0  0  0
 23 24  1  0  0  0  0
 25 24  1  0  0  0  0
 26 25  1  0  0  0  0
 27 26  1  0  0  0  0
M  END
>  <minimizedAffinity>
-5.04661703

$$$$

 OpenBabel03252505353D

 27 29  0  0  0  0  0  0  0  0999 V2000
   36.7770   28.4250   41.0730 C   0  0  0  0  0  0  0  0  0  0  0  0
   36.5760   27.4710   42.0330 C   0  0  0  0  0  0  0  0  0  0  0  0
   37.1280   27.5640   43.3110 C   0  0  0  0  0  0  0  0  0  0  0  0
   37.9090   28.6490   43.6410 C   0  0  0  0  0  0  0  0  0  0  0  0
   38.1070   29.6110   42.6610 C   0  0  0  0  0  0  0  0  0  0  0  0
   37.5610   29.5270   41.3860 C   0  0  0  0  0  0  0  0  0  0  0  0
   35.9830   26.5760   41.8920 H   0  0  0  0  0  0  0  0  0  0  0  0
   36.9680   26.8090   44.0690 H   0  0  0  0  0  0  0  0  0  0  0  0
   38.3830   28.8280   44.5860 H   0  0  0  0  0  0  0  0  0  0  0  0
   38.7030   30.4900   42.8370 H   0  0  0  0  0  0  0  0  0  0  0  0
   36.1100   27.4570   37.4920 C   0  0  0  0  0  0  0  0  0  0  0  0
   36.7930   27.5860   38.7190 C   0  0  0  0  0  0  0  0  0  0  0  0
   36.1610   28.2430   39.7810 C   0  0  0  0  0  0  0  0  0  0  0  0
   34.9210   28.7300   39.5950 N   0  0  0  0  0  0  0  0  0  0  0  0
   34.2860   28.5890   38.3980 C   0  0  0  0  0  0  0  0  0  0  0  0
   34.8790   27.9560   37.3540 N   0  0  0  0  0  0  0  0  0  0  0  0
   32.9730   29.1050   38.2090 N   0  0  0  0  0  0  0  0  0  0  0  0
   36.6650   26.9380   36.7260 H   0  0  0  0  0  0  0  0  0  0  0  0
   37.7960   27.1970   38.8840 H   0  0  0  0  0  0  0  0  0  0  0  0
   32.3950   28.3480   38.6710 H   0  0  0  0  0  0  0  0  0  0  0  0
   32.9630   30.0170   37.7080 H   0  0  0  0  0  0  0  0  0  0  0  0
   37.7870   30.5350   40.4060 N   0  0  0  0  0  0  0  0  0  0  0  0
   38.7020   30.6680   39.2770 C   0  0  0  0  0  2  0  0  0  0  0  0
   37.7540   31.2510   38.2390 C   0  0  0  0  0  2  0  0  0  0  0  0
   37.1420   32.3810   39.0440 C   0  0  0  0  0  2  0  0  0  0  0  0
   36.9970   31.7650   40.4140 C   0  0  0  0  0  3  0  0  0  0  0  0
   35.9230   31.4390   40.5310 H   0  0  0  0  0  0  0  0  0  0  0  0
  1  6  2  0  0  0  0
  1  2  1  0  0  0  0
  2  3  2  0  0  0  0
  3  4  1  0  0  0  0
  3  8  1  0  0  0  0
  4  9  1  0  0  0  0
  5 10  1  0  0  0  0
  5  4  2  0  0  0  0
  6  5  1  0  0  0  0
  7  2  1  0  0  0  0
 11 12  1  0  0  0  0
 12 19  1  0  0  0  0
 12 13  2  0  0  0  0
 13  1  1  0  0  0  0
 14 13  1  0  0  0  0
 15 14  2  0  0  0  0
 16 11  2  0  0  0  0
 16 15  1  0  0  0  0
 17 15  1  0  0  0  0
 17 20  1  0  0  0  0
 18 11  1  0  0  0  0
 21 17  1  0  0  0  0
 22 26  1  0  0  0  0
 22  6  1  0  0  0  0
 23 22  1  0  0  0  0
 24 25  1  0  0  0  0
 24 23  1  0  0  0  0
 25 26  1  0  0  0  0
 26 27  1  0  0  0  0
M  END
>  <minimizedAffinity>
-5.00444508

$$$$

 OpenBabel03252505353D

 27 29  0  0  0  0  0  0  0  0999 V2000
   37.6020   29.0700   41.3710 C   0  0  0  0  0  0  0  0  0  0  0  0
   36.4680   28.3340   41.5860 C   0  0  0  0  0  0  0  0  0  0  0  0
   36.3610   27.4040   42.6210 C   0  0  0  0  0  0  0  0  0  0  0  0
   37.4250   27.2020   43.4710 C   0  0  0  0  0  0  0  0  0  0  0  0
   38.5700   27.9530   43.2460 C   0  0  0  0  0  0  0  0  0  0  0  0
   38.6860   28.8820   42.2190 C   0  0  0  0  0  0  0  0  0  0  0  0
   35.5710   28.4050   40.9850 H   0  0  0  0  0  0  0  0  0  0  0  0
   35.4640   26.8230   42.7880 H   0  0  0  0  0  0  0  0  0  0  0  0
   37.4590   26.5190   44.2960 H   0  0  0  0  0  0  0  0  0  0  0  0
   39.4460   27.8560   43.8650 H   0  0  0  0  0  0  0  0  0  0  0  0
   37.9760   30.6510   37.9710 C   0  0  0  0  0  0  0  0  0  0  0  0
   37.9930   29.6620   38.9750 C   0  0  0  0  0  0  0  0  0  0  0  0
   37.6170   30.0100   40.2780 C   0  0  0  0  0  0  0  0  0  0  0  0
   37.2510   31.2810   40.5280 N   0  0  0  0  0  0  0  0  0  0  0  0
   37.2440   32.2150   39.5360 C   0  0  0  0  0  0  0  0  0  0  0  0
   37.6050   31.9000   38.2660 N   0  0  0  0  0  0  0  0  0  0  0  0
   36.8530   33.5560   39.8080 N   0  0  0  0  0  0  0  0  0  0  0  0
   38.2780   30.3020   36.9970 H   0  0  0  0  0  0  0  0  0  0  0  0
   38.2870   28.6300   38.7880 H   0  0  0  0  0  0  0  0  0  0  0  0
   35.7990   33.4600   39.8050 H   0  0  0  0  0  0  0  0  0  0  0  0
   37.6630   34.1990   39.9260 H   0  0  0  0  0  0  0  0  0  0  0  0
   39.8780   29.6330   42.0190 N   0  0  0  0  0  0  0  0  0  0  0  0
   40.2660   31.0140   42.2880 C   0  0  0  0  0  2  0  0  0  0  0  0
   41.6680   30.7890   42.8390 C   0  0  0  0  0  2  0  0  0  0  0  0
   42.2340   29.8860   41.7620 C   0  0  0  0  0  2  0  0  0  0  0  0
   41.0550   29.0080   41.4180 C   0  0  0  0  0  3  0  0  0  0  0  0
   41.1900   28.0260   41.9570 H   0  0  0  0  0  0  0  0  0  0  0  0
  1  2  2  0  0  0  0
  1  6  1  0  0  0  0
  2  3  1  0  0  0  0
  3  8  1  0  0  0  0
  3  4  2  0  0  0  0
  4  9  1  0  0  0  0
  5  4  1  0  0  0  0
  5 10  1  0  0  0  0
  6  5  2  0  0  0  0
  7  2  1  0  0  0  0
 11 16  2  0  0  0  0
 11 12  1  0  0  0  0
 12 13  2  0  0  0  0
 13 14  1  0  0  0  0
 13  1  1  0  0  0  0
 15 17  1  0  0  0  0
 15 14  2  0  0  0  0
 16 15  1  0  0  0  0
 17 21  1  0  0  0  0
 18 11  1  0  0  0  0
 19 12  1  0  0  0  0
 20 17  1  0  0  0  0
 22  6  1  0  0  0  0
 22 23  1  0  0  0  0
 23 24  1  0  0  0  0
 25 24  1  0  0  0  0
 26 25  1  0  0  0  0
 26 27  1  0  0  0  0
 26 22  1  0  0  0  0
M  END
>  <minimizedAffinity>
-4.97496748

$$$$

 OpenBabel03252505353D

 27 29  0  0  0  0  0  0  0  0999 V2000
   36.7770   26.7230   39.5410 C   0  0  0  0  0  0  0  0  0  0  0  0
   36.0630   26.2730   38.4630 C   0  0  0  0  0  0  0  0  0  0  0  0
   35.7120   24.9320   38.3040 C   0  0  0  0  0  0  0  0  0  0  0  0
   36.0880   24.0080   39.2530 C   0  0  0  0  0  0  0  0  0  0  0  0
   36.8110   24.4740   40.3410 C   0  0  0  0  0  0  0  0  0  0  0  0
   37.1650   25.8080   40.5100 C   0  0  0  0  0  0  0  0  0  0  0  0
   35.7130   26.9020   37.6560 H   0  0  0  0  0  0  0  0  0  0  0  0
   35.1470   24.5780   37.4510 H   0  0  0  0  0  0  0  0  0  0  0  0
   35.8770   22.9570   39.2370 H   0  0  0  0  0  0  0  0  0  0  0  0
   37.1440   23.8190   41.1270 H   0  0  0  0  0  0  0  0  0  0  0  0
   38.4120   30.0910   39.1100 C   0  0  0  0  0  0  0  0  0  0  0  0
   38.1870   28.7070   38.9710 C   0  0  0  0  0  0  0  0  0  0  0  0
   37.0900   28.1290   39.6220 C   0  0  0  0  0  0  0  0  0  0  0  0
   36.2860   28.9170   40.3580 N   0  0  0  0  0  0  0  0  0  0  0  0
   36.5280   30.2520   40.4720 C   0  0  0  0  0  0  0  0  0  0  0  0
   37.5860   30.8340   39.8520 N   0  0  0  0  0  0  0  0  0  0  0  0
   35.6710   31.0800   41.2510 N   0  0  0  0  0  0  0  0  0  0  0  0
   39.2760   30.4570   38.5780 H   0  0  0  0  0  0  0  0  0  0  0  0
   38.8290   28.0560   38.3790 H   0  0  0  0  0  0  0  0  0  0  0  0
   34.8680   31.2250   40.5770 H   0  0  0  0  0  0  0  0  0  0  0  0
   36.0550   31.2870   42.1960 H   0  0  0  0  0  0  0  0  0  0  0  0
   37.9090   26.2480   41.6400 N   0  0  0  0  0  0  0  0  0  0  0  0
   39.3320   26.4360   41.9110 C   0  0  0  0  0  2  0  0  0  0  0  0
   39.2820   27.7630   42.6570 C   0  0  0  0  0  2  0  0  0  0  0  0
   38.2020   27.4540   43.6750 C   0  0  0  0  0  2  0  0  0  0  0  0
   37.2240   26.6280   42.8750 C   0  0  0  0  0  3  0  0  0  0  0  0
   36.3800   27.3070   42.5600 H   0  0  0  0  0  0  0  0  0  0  0  0
  1 13  1  0  0  0  0
  1  6  1  0  0  0  0
  2  1  2  0  0  0  0
  3  2  1  0  0  0  0
  3  4  2  0  0  0  0
  4  5  1  0  0  0  0
  5  6  2  0  0  0  0
  5 10  1  0  0  0  0
  6 22  1  0  0  0  0
  7  2  1  0  0  0  0
  8  3  1  0  0  0  0
  9  4  1  0  0  0  0
 11 16  1  0  0  0  0
 12 11  2  0  0  0  0
 12 13  1  0  0  0  0
 13 14  2  0  0  0  0
 14 15  1  0  0  0  0
 15 17  1  0  0  0  0
 16 15  2  0  0  0  0
 17 21  1  0  0  0  0
 18 11  1  0  0  0  0
 19 12  1  0  0  0  0
 20 17  1  0  0  0  0
 22 23  1  0  0  0  0
 22 26  1  0  0  0  0
 23 24  1  0  0  0  0
 24 25  1  0  0  0  0
 26 25  1  0  0  0  0
 27 26  1  0  0  0  0
M  END
>  <minimizedAffinity>
-4.95417023

$$$$

 OpenBabel03252505353D

 27 29  0  0  0  0  0  0  0  0999 V2000
   37.3910   30.1120   39.0780 C   0  0  0  0  0  0  0  0  0  0  0  0
   36.7030   30.3390   37.9160 C   0  0  0  0  0  0  0  0  0  0  0  0
   35.6730   29.5060   37.4800 C   0  0  0  0  0  0  0  0  0  0  0  0
   35.3170   28.4070   38.2290 C   0  0  0  0  0  0  0  0  0  0  0  0
   36.0190   28.1860   39.4050 C   0  0  0  0  0  0  0  0  0  0  0  0
   37.0470   29.0100   39.8490 C   0  0  0  0  0  0  0  0  0  0  0  0
   36.8920   31.1670   37.2460 H   0  0  0  0  0  0  0  0  0  0  0  0
   35.1310   29.6860   36.5610 H   0  0  0  0  0  0  0  0  0  0  0  0
   34.5460   27.7000   37.9960 H   0  0  0  0  0  0  0  0  0  0  0  0
   35.8040   27.3510   40.0490 H   0  0  0  0  0  0  0  0  0  0  0  0
   40.7320   31.8040   39.4980 C   0  0  0  0  0  0  0  0  0  0  0  0
   39.7790   30.8500   39.0880 C   0  0  0  0  0  0  0  0  0  0  0  0
   38.4380   31.0320   39.4490 C   0  0  0  0  0  0  0  0  0  0  0  0
   38.1050   32.1130   40.1780 N   0  0  0  0  0  0  0  0  0  0  0  0
   39.0500   33.0180   40.5590 C   0  0  0  0  0  0  0  0  0  0  0  0
   40.3550   32.8620   40.2200 N   0  0  0  0  0  0  0  0  0  0  0  0
   38.6890   34.1610   41.3270 N   0  0  0  0  0  0  0  0  0  0  0  0
   41.7400   31.5910   39.1790 H   0  0  0  0  0  0  0  0  0  0  0  0
   40.0330   29.9710   38.4990 H   0  0  0  0  0  0  0  0  0  0  0  0
   38.3030   34.7940   40.5720 H   0  0  0  0  0  0  0  0  0  0  0  0
   38.8930   34.0480   42.3410 H   0  0  0  0  0  0  0  0  0  0  0  0
   37.7450   28.7500   41.0620 N   0  0  0  0  0  0  0  0  0  0  0  0
   38.9680   28.0270   41.3950 C   0  0  0  0  0  2  0  0  0  0  0  0
   39.5800   28.9960   42.3980 C   0  0  0  0  0  2  0  0  0  0  0  0
   38.3890   29.2230   43.3070 C   0  0  0  0  0  2  0  0  0  0  0  0
   37.2360   29.2620   42.3330 C   0  0  0  0  0  3  0  0  0  0  0  0
   36.9800   30.3450   42.1480 H   0  0  0  0  0  0  0  0  0  0  0  0
  1 13  1  0  0  0  0
  1  6  1  0  0  0  0
  2  1  2  0  0  0  0
  3  2  1  0  0  0  0
  3  4  2  0  0  0  0
  4  5  1  0  0  0  0
  5  6  2  0  0  0  0
  5 10  1  0  0  0  0
  6 22  1  0  0  0  0
  7  2  1  0  0  0  0
  8  3  1  0  0  0  0
  9  4  1  0  0  0  0
 11 16  1  0  0  0  0
 12 13  1  0  0  0  0
 12 11  2  0  0  0  0
 13 14  2  0  0  0  0
 14 15  1  0  0  0  0
 15 17  1  0  0  0  0
 16 15  2  0  0  0  0
 17 21  1  0  0  0  0
 18 11  1  0  0  0  0
 19 12  1  0  0  0  0
 20 17  1  0  0  0  0
 22 23  1  0  0  0  0
 22 26  1  0  0  0  0
 23 24  1  0  0  0  0
 24 25  1  0  0  0  0
 26 25  1  0  0  0  0
 27 26  1  0  0  0  0
M  END
>  <minimizedAffinity>
-4.88967657

$$$$
