
 OpenBabel03252509353D

 41 43  0  0  1  0  0  0  0  0999 V2000
   44.5260   35.4660   44.0520 O   0  0  0  0  0  0  0  0  0  0  0  0
   45.3840   34.2570   44.3680 P   0  0  1  0  0  0  0  0  0  0  0  0
   44.7200   32.8430   43.7100 O   0  0  0  0  0  0  0  0  0  0  0  0
   44.3810   33.1110   42.8110 H   0  0  0  0  0  0  0  0  0  0  0  0
   46.9030   34.5240   43.7290 O   0  0  0  0  0  0  0  0  0  0  0  0
   47.0340   33.8320   42.5200 C   0  0  1  0  0  0  0  0  0  0  0  0
   46.4470   34.6650   41.3770 C   0  0  0  0  0  0  0  0  0  0  0  0
   46.9620   33.9090   40.1820 C   0  0  0  0  0  0  0  0  0  0  0  0
   48.2420   33.2340   40.6320 C   0  0  0  0  0  0  0  0  0  0  0  0
   48.4520   33.7000   42.0590 C   0  0  1  0  0  0  0  0  0  0  0  0
   46.5150   32.8770   42.5130 H   0  0  0  0  0  0  0  0  0  0  0  0
   46.7070   35.7170   41.4180 H   0  0  0  0  0  0  0  0  0  0  0  0
   45.3300   34.5820   41.4150 H   0  0  0  0  0  0  0  0  0  0  0  0
   47.2640   34.6180   39.3790 H   0  0  0  0  0  0  0  0  0  0  0  0
   46.1970   33.1890   39.8430 H   0  0  0  0  0  0  0  0  0  0  0  0
   49.1090   33.4560   39.9850 H   0  0  0  0  0  0  0  0  0  0  0  0
   48.0120   32.1420   40.6940 H   0  0  0  0  0  0  0  0  0  0  0  0
   48.9480   32.9030   42.6720 H   0  0  0  0  0  0  0  0  0  0  0  0
   49.2120   35.0010   42.1220 C   0  0  0  0  0  0  0  0  0  0  0  0
   48.5220   35.8910   42.2060 H   0  0  0  0  0  0  0  0  0  0  0  0
   49.7980   35.1500   41.1910 H   0  0  0  0  0  0  0  0  0  0  0  0
   50.0220   35.0730   43.2330 O   0  0  0  0  0  0  0  0  0  0  0  0
   50.5740   34.2950   43.4220 H   0  0  0  0  0  0  0  0  0  0  0  0
   45.4680   34.0160   46.0160 O   0  0  0  0  0  0  0  0  0  0  0  0
   46.3980   33.0600   46.2790 C   0  0  0  0  0  0  0  0  0  0  0  0
   46.8970   32.5800   45.4450 H   0  0  0  0  0  0  0  0  0  0  0  0
   47.2230   33.5910   46.8420 H   0  0  0  0  0  0  0  0  0  0  0  0
   45.3080   31.3730   49.4090 C   0  0  0  0  0  0  0  0  0  0  0  0
   45.7660   32.3670   48.5430 C   0  0  0  0  0  0  0  0  0  0  0  0
   45.9120   32.0220   47.2030 C   0  0  0  0  0  0  0  0  0  0  0  0
   45.6060   30.7530   46.8110 N   0  0  0  0  0  0  0  0  0  0  0  0
   45.1650   29.8090   47.6690 C   0  0  0  0  0  0  0  0  0  0  0  0
   45.0200   30.1220   48.9490 N   0  0  0  0  0  0  0  0  0  0  0  0
   45.1910   31.6280   50.4460 H   0  0  0  0  0  0  0  0  0  0  0  0
   45.9860   33.3510   48.9440 H   0  0  0  0  0  0  0  0  0  0  0  0
   44.8600   28.5000   47.2040 N   0  0  0  0  0  0  0  0  0  0  0  0
   44.9500   27.2380   47.9120 C   0  0  0  0  0  2  0  0  0  0  0  0
   43.8800   26.3480   47.2810 C   0  0  0  0  0  2  0  0  0  0  0  0
   43.2470   27.2150   46.2050 C   0  0  0  0  0  2  0  0  0  0  0  0
   44.3840   28.1600   45.8780 C   0  0  0  0  0  3  0  0  0  0  0  0
   44.0140   29.0420   45.3160 H   0  0  0  0  0  0  0  0  0  0  0  0
  2  1  2  6  0  0  0
  2 24  1  0  0  0  0
  3  2  1  0  0  0  0
  4  3  1  0  0  0  0
  5  2  1  0  0  0  0
  6 11  1  1  0  0  0
  6  5  1  0  0  0  0
  7 13  1  0  0  0  0
  7 12  1  0  0  0  0
  7  6  1  0  0  0  0
  8  9  1  0  0  0  0
  8  7  1  0  0  0  0
  9 17  1  0  0  0  0
  9 10  1  0  0  0  0
 10 19  1  0  0  0  0
 10  6  1  0  0  0  0
 10 18  1  1  0  0  0
 14  8  1  0  0  0  0
 15  8  1  0  0  0  0
 16  9  1  0  0  0  0
 19 20  1  0  0  0  0
 19 22  1  0  0  0  0
 21 19  1  0  0  0  0
 22 23  1  0  0  0  0
 24 25  1  0  0  0  0
 25 27  1  0  0  0  0
 25 30  1  0  0  0  0
 26 25  1  0  0  0  0
 28 34  1  0  0  0  0
 29 35  1  0  0  0  0
 29 28  2  0  0  0  0
 30 29  1  0  0  0  0
 31 30  2  0  0  0  0
 31 32  1  0  0  0  0
 32 33  2  0  0  0  0
 33 28  1  0  0  0  0
 36 32  1  0  0  0  0
 36 37  1  0  0  0  0
 38 37  1  0  0  0  0
 39 38  1  0  0  0  0
 40 39  1  0  0  0  0
 40 36  1  0  0  0  0
 41 40  1  0  0  0  0
M  END
>  <minimizedAffinity>
-6.35624695

>  <minimizedRMSD>
1.04374909

$$$$
