
 OpenBabel03242522283D

 35 38  0  0  0  0  0  0  0  0999 V2000
   38.0350   28.1430   39.8160 F   0  0  0  0  0  0  0  0  0  0  0  0
   37.6870   27.9940   41.1370 C   0  0  0  0  0  0  0  0  0  0  0  0
   37.5700   29.0780   41.9380 C   0  0  0  0  0  0  0  0  0  0  0  0
   37.1250   28.8440   43.2210 C   0  0  0  0  0  0  0  0  0  0  0  0
   36.8090   27.5910   43.6800 C   0  0  0  0  0  0  0  0  0  0  0  0
   36.9590   26.5530   42.7930 C   0  0  0  0  0  0  0  0  0  0  0  0
   37.4020   26.7190   41.5110 C   0  0  0  0  0  0  0  0  0  0  0  0
   37.0720   29.7920   43.7860 H   0  0  0  0  0  0  0  0  0  0  0  0
   36.4830   27.6450   44.6990 H   0  0  0  0  0  0  0  0  0  0  0  0
   36.6140   25.7510   43.3820 H   0  0  0  0  0  0  0  0  0  0  0  0
   37.5570   25.5390   40.7010 C   0  0  0  0  0  0  0  0  0  0  0  0
   36.5320   25.1580   39.8600 C   0  0  0  0  0  0  0  0  0  0  0  0
   36.6740   23.9900   39.1460 C   0  0  0  0  0  0  0  0  0  0  0  0
   37.8210   23.1980   39.2580 C   0  0  0  0  0  0  0  0  0  0  0  0
   38.8340   23.6420   40.1320 C   0  0  0  0  0  0  0  0  0  0  0  0
   38.7020   24.8100   40.8470 C   0  0  0  0  0  0  0  0  0  0  0  0
   35.6000   25.6040   39.6500 H   0  0  0  0  0  0  0  0  0  0  0  0
   35.9100   23.6090   38.4520 H   0  0  0  0  0  0  0  0  0  0  0  0
   37.8670   22.2730   38.6590 H   0  0  0  0  0  0  0  0  0  0  0  0
   39.6440   22.9340   40.1130 H   0  0  0  0  0  0  0  0  0  0  0  0
   39.9400   24.9650   41.4810 N   0  0  0  0  0  0  0  0  0  0  0  0
   40.3010   24.6470   42.8790 C   0  0  0  0  0  2  0  0  0  0  0  0
   41.6590   25.3260   43.0060 C   0  0  0  0  0  2  0  0  0  0  0  0
   42.2320   25.2960   41.6070 C   0  0  0  0  0  2  0  0  0  0  0  0
   41.0500   25.6120   40.7400 C   0  0  0  0  0  3  0  0  0  0  0  0
   41.1350   25.1880   39.7200 H   0  0  0  0  0  0  0  0  0  0  0  0
   37.3780   32.4330   40.1950 C   0  0  0  0  0  0  0  0  0  0  0  0
   37.0020   31.1760   40.6900 C   0  0  0  0  0  0  0  0  0  0  0  0
   37.8940   30.3910   41.3970 C   0  0  0  0  0  0  0  0  0  0  0  0
   39.1360   30.9310   41.5680 N   0  0  0  0  0  0  0  0  0  0  0  0
   39.4790   32.1320   41.0880 C   0  0  0  0  0  0  0  0  0  0  0  0
   38.6060   32.8780   40.4080 N   0  0  0  0  0  0  0  0  0  0  0  0
   36.6750   33.0440   39.6420 H   0  0  0  0  0  0  0  0  0  0  0  0
   36.0020   30.7980   40.5260 H   0  0  0  0  0  0  0  0  0  0  0  0
   40.4930   32.3840   41.3210 H   0  0  0  0  0  0  0  0  0  0  0  0
  1  2  1  0  0  0  0
  2  7  2  0  0  0  0
  2  3  1  0  0  0  0
  3  4  2  0  0  0  0
  4  5  1  0  0  0  0
  4  8  1  0  0  0  0
  5  9  1  0  0  0  0
  6 10  1  0  0  0  0
  6  5  2  0  0  0  0
  7  6  1  0  0  0  0
 11 16  1  0  0  0  0
 11  7  1  0  0  0  0
 12 11  2  0  0  0  0
 13 14  2  0  0  0  0
 13 12  1  0  0  0  0
 14 15  1  0  0  0  0
 15 16  2  0  0  0  0
 16 21  1  0  0  0  0
 17 12  1  0  0  0  0
 18 13  1  0  0  0  0
 19 14  1  0  0  0  0
 20 15  1  0  0  0  0
 21 22  1  0  0  0  0
 22 23  1  0  0  0  0
 24 23  1  0  0  0  0
 25 21  1  0  0  0  0
 25 24  1  0  0  0  0
 26 25  1  0  0  0  0
 27 32  2  0  0  0  0
 27 28  1  0  0  0  0
 28 29  2  0  0  0  0
 29 30  1  0  0  0  0
 29  3  1  0  0  0  0
 31 35  1  0  0  0  0
 31 30  2  0  0  0  0
 32 31  1  0  0  0  0
 33 27  1  0  0  0  0
 34 28  1  0  0  0  0
M  END
>  <minimizedAffinity>
-5.87473202

$$$$

 OpenBabel03242522283D

 35 38  0  0  0  0  0  0  0  0999 V2000
   39.5800   26.9830   40.8610 F   0  0  0  0  0  0  0  0  0  0  0  0
   38.5880   27.3130   41.7530 C   0  0  0  0  0  0  0  0  0  0  0  0
   37.5320   26.4870   41.9350 C   0  0  0  0  0  0  0  0  0  0  0  0
   36.6350   26.8500   42.9170 C   0  0  0  0  0  0  0  0  0  0  0  0
   36.7870   27.9800   43.6790 C   0  0  0  0  0  0  0  0  0  0  0  0
   37.8910   28.7560   43.4210 C   0  0  0  0  0  0  0  0  0  0  0  0
   38.8110   28.4540   42.4580 C   0  0  0  0  0  0  0  0  0  0  0  0
   35.8150   26.1120   42.9770 H   0  0  0  0  0  0  0  0  0  0  0  0
   35.9790   28.0620   44.3780 H   0  0  0  0  0  0  0  0  0  0  0  0
   37.7740   29.4990   44.1570 H   0  0  0  0  0  0  0  0  0  0  0  0
   39.8980   29.3780   42.2600 C   0  0  0  0  0  0  0  0  0  0  0  0
   41.0880   29.1750   42.9280 C   0  0  0  0  0  0  0  0  0  0  0  0
   42.0880   30.1070   42.7780 C   0  0  0  0  0  0  0  0  0  0  0  0
   41.9200   31.2370   41.9720 C   0  0  0  0  0  0  0  0  0  0  0  0
   40.6830   31.3870   41.3130 C   0  0  0  0  0  0  0  0  0  0  0  0
   39.6780   30.4590   41.4560 C   0  0  0  0  0  0  0  0  0  0  0  0
   41.3990   28.4060   43.5790 H   0  0  0  0  0  0  0  0  0  0  0  0
   43.0680   30.0270   43.2700 H   0  0  0  0  0  0  0  0  0  0  0  0
   42.7620   31.9460   41.8980 H   0  0  0  0  0  0  0  0  0  0  0  0
   40.7030   32.2960   40.7380 H   0  0  0  0  0  0  0  0  0  0  0  0
   38.6860   30.8870   40.5650 N   0  0  0  0  0  0  0  0  0  0  0  0
   38.1120   30.1590   39.4130 C   0  0  0  0  0  2  0  0  0  0  0  0
   37.3440   31.2670   38.7040 C   0  0  0  0  0  2  0  0  0  0  0  0
   36.9490   32.2230   39.8070 C   0  0  0  0  0  2  0  0  0  0  0  0
   38.1690   32.2710   40.6780 C   0  0  0  0  0  3  0  0  0  0  0  0
   37.9370   32.5150   41.7340 H   0  0  0  0  0  0  0  0  0  0  0  0
   37.7410   22.9210   40.6810 C   0  0  0  0  0  0  0  0  0  0  0  0
   37.8720   24.0390   41.5180 C   0  0  0  0  0  0  0  0  0  0  0  0
   37.4290   25.2860   41.1180 C   0  0  0  0  0  0  0  0  0  0  0  0
   36.8690   25.3340   39.8740 N   0  0  0  0  0  0  0  0  0  0  0  0
   36.7530   24.2580   39.0870 C   0  0  0  0  0  0  0  0  0  0  0  0
   37.1860   23.0600   39.4890 N   0  0  0  0  0  0  0  0  0  0  0  0
   38.0910   21.9470   41.0000 H   0  0  0  0  0  0  0  0  0  0  0  0
   38.3220   23.9430   42.4960 H   0  0  0  0  0  0  0  0  0  0  0  0
   36.2900   24.4910   38.1510 H   0  0  0  0  0  0  0  0  0  0  0  0
  1  2  1  0  0  0  0
  2  3  2  0  0  0  0
  2  7  1  0  0  0  0
  3  4  1  0  0  0  0
  4  8  1  0  0  0  0
  4  5  2  0  0  0  0
  5  9  1  0  0  0  0
  6  5  1  0  0  0  0
  6 10  1  0  0  0  0
  7  6  2  0  0  0  0
 11  7  1  0  0  0  0
 11 12  1  0  0  0  0
 12 17  1  0  0  0  0
 13 12  2  0  0  0  0
 13 18  1  0  0  0  0
 14 13  1  0  0  0  0
 15 16  1  0  0  0  0
 15 14  2  0  0  0  0
 16 11  2  0  0  0  0
 19 14  1  0  0  0  0
 20 15  1  0  0  0  0
 21 25  1  0  0  0  0
 21 16  1  0  0  0  0
 22 21  1  0  0  0  0
 23 22  1  0  0  0  0
 23 24  1  0  0  0  0
 24 25  1  0  0  0  0
 25 26  1  0  0  0  0
 27 33  1  0  0  0  0
 27 28  1  0  0  0  0
 28 34  1  0  0  0  0
 29 28  2  0  0  0  0
 29  3  1  0  0  0  0
 30 29  1  0  0  0  0
 31 32  1  0  0  0  0
 31 30  2  0  0  0  0
 32 27  2  0  0  0  0
 35 31  1  0  0  0  0
M  END
>  <minimizedAffinity>
-5.8092432

$$$$

 OpenBabel03242522283D

 35 38  0  0  0  0  0  0  0  0999 V2000
   40.1120   29.8100   40.1520 F   0  0  0  0  0  0  0  0  0  0  0  0
   39.3500   30.9530   40.1260 C   0  0  0  0  0  0  0  0  0  0  0  0
   39.7770   32.0420   39.4480 C   0  0  0  0  0  0  0  0  0  0  0  0
   38.9060   33.1100   39.3960 C   0  0  0  0  0  0  0  0  0  0  0  0
   37.6710   33.0880   39.9910 C   0  0  0  0  0  0  0  0  0  0  0  0
   37.3260   31.9380   40.6570 C   0  0  0  0  0  0  0  0  0  0  0  0
   38.1460   30.8490   40.7490 C   0  0  0  0  0  0  0  0  0  0  0  0
   39.3550   33.9420   38.8250 H   0  0  0  0  0  0  0  0  0  0  0  0
   37.1660   34.0180   39.8220 H   0  0  0  0  0  0  0  0  0  0  0  0
   36.3480   32.1830   40.9610 H   0  0  0  0  0  0  0  0  0  0  0  0
   37.6790   29.7240   41.5170 C   0  0  0  0  0  0  0  0  0  0  0  0
   38.1510   29.5410   42.8010 C   0  0  0  0  0  0  0  0  0  0  0  0
   37.7450   28.4220   43.4910 C   0  0  0  0  0  0  0  0  0  0  0  0
   36.8760   27.4860   42.9210 C   0  0  0  0  0  0  0  0  0  0  0  0
   36.4270   27.7310   41.6080 C   0  0  0  0  0  0  0  0  0  0  0  0
   36.8260   28.8480   40.9110 C   0  0  0  0  0  0  0  0  0  0  0  0
   38.8090   30.1150   43.3910 H   0  0  0  0  0  0  0  0  0  0  0  0
   38.0680   28.1950   44.5170 H   0  0  0  0  0  0  0  0  0  0  0  0
   36.5930   26.6110   43.5300 H   0  0  0  0  0  0  0  0  0  0  0  0
   35.7740   26.9300   41.3090 H   0  0  0  0  0  0  0  0  0  0  0  0
   36.0810   28.7980   39.7270 N   0  0  0  0  0  0  0  0  0  0  0  0
   36.5460   28.4560   38.3660 C   0  0  0  0  0  2  0  0  0  0  0  0
   35.3540   28.8870   37.5200 C   0  0  0  0  0  2  0  0  0  0  0  0
   34.1600   28.7200   38.4310 C   0  0  0  0  0  2  0  0  0  0  0  0
   34.6600   29.2180   39.7540 C   0  0  0  0  0  3  0  0  0  0  0  0
   34.1350   28.7600   40.6170 H   0  0  0  0  0  0  0  0  0  0  0  0
   43.4900   32.3340   38.7670 C   0  0  0  0  0  0  0  0  0  0  0  0
   42.2580   32.3920   39.4370 C   0  0  0  0  0  0  0  0  0  0  0  0
   41.0870   32.0070   38.8120 C   0  0  0  0  0  0  0  0  0  0  0  0
   41.2280   31.5750   37.5260 N   0  0  0  0  0  0  0  0  0  0  0  0
   42.4110   31.5260   36.9000 C   0  0  0  0  0  0  0  0  0  0  0  0
   43.5330   31.9020   37.5180 N   0  0  0  0  0  0  0  0  0  0  0  0
   44.4040   32.6370   39.2620 H   0  0  0  0  0  0  0  0  0  0  0  0
   42.2060   32.7420   40.4590 H   0  0  0  0  0  0  0  0  0  0  0  0
   42.3220   31.1610   35.8980 H   0  0  0  0  0  0  0  0  0  0  0  0
  2  1  1  0  0  0  0
  2  7  1  0  0  0  0
  3  2  2  0  0  0  0
  4  3  1  0  0  0  0
  4  5  2  0  0  0  0
  5  6  1  0  0  0  0
  6  7  2  0  0  0  0
  6 10  1  0  0  0  0
  7 11  1  0  0  0  0
  8  4  1  0  0  0  0
  9  5  1  0  0  0  0
 11 12  1  0  0  0  0
 12 17  1  0  0  0  0
 12 13  2  0  0  0  0
 13 18  1  0  0  0  0
 14 13  1  0  0  0  0
 14 19  1  0  0  0  0
 15 14  2  0  0  0  0
 16 11  2  0  0  0  0
 16 15  1  0  0  0  0
 20 15  1  0  0  0  0
 21 25  1  0  0  0  0
 21 16  1  0  0  0  0
 22 21  1  0  0  0  0
 23 22  1  0  0  0  0
 23 24  1  0  0  0  0
 24 25  1  0  0  0  0
 25 26  1  0  0  0  0
 27 33  1  0  0  0  0
 27 28  1  0  0  0  0
 28 34  1  0  0  0  0
 29 28  2  0  0  0  0
 29  3  1  0  0  0  0
 30 29  1  0  0  0  0
 31 32  1  0  0  0  0
 31 30  2  0  0  0  0
 32 27  2  0  0  0  0
 35 31  1  0  0  0  0
M  END
>  <minimizedAffinity>
-5.80775213

$$$$

 OpenBabel03242522283D

 35 38  0  0  0  0  0  0  0  0999 V2000
   38.0490   27.5560   39.7660 F   0  0  0  0  0  0  0  0  0  0  0  0
   37.5870   27.5860   41.0600 C   0  0  0  0  0  0  0  0  0  0  0  0
   37.3010   26.4340   41.7090 C   0  0  0  0  0  0  0  0  0  0  0  0
   36.9350   26.5540   43.0330 C   0  0  0  0  0  0  0  0  0  0  0  0
   36.8630   27.7630   43.6760 C   0  0  0  0  0  0  0  0  0  0  0  0
   37.1720   28.8770   42.9340 C   0  0  0  0  0  0  0  0  0  0  0  0
   37.5340   28.8250   41.6180 C   0  0  0  0  0  0  0  0  0  0  0  0
   36.7210   25.5590   43.4620 H   0  0  0  0  0  0  0  0  0  0  0  0
   36.5640   27.6200   44.6940 H   0  0  0  0  0  0  0  0  0  0  0  0
   37.0770   29.6250   43.6690 H   0  0  0  0  0  0  0  0  0  0  0  0
   37.7880   30.0730   40.9450 C   0  0  0  0  0  0  0  0  0  0  0  0
   38.8170   30.8800   41.3840 C   0  0  0  0  0  0  0  0  0  0  0  0
   38.9980   32.0980   40.7720 C   0  0  0  0  0  0  0  0  0  0  0  0
   38.1690   32.5230   39.7290 C   0  0  0  0  0  0  0  0  0  0  0  0
   37.1370   31.6530   39.3240 C   0  0  0  0  0  0  0  0  0  0  0  0
   36.9500   30.4320   39.9290 C   0  0  0  0  0  0  0  0  0  0  0  0
   39.5300   30.7460   42.1490 H   0  0  0  0  0  0  0  0  0  0  0  0
   39.7910   32.8050   41.0540 H   0  0  0  0  0  0  0  0  0  0  0  0
   38.3680   33.5120   39.2840 H   0  0  0  0  0  0  0  0  0  0  0  0
   36.5880   32.1140   38.5220 H   0  0  0  0  0  0  0  0  0  0  0  0
   35.9360   29.8270   39.1760 N   0  0  0  0  0  0  0  0  0  0  0  0
   34.6350   29.3030   39.6450 C   0  0  0  0  0  2  0  0  0  0  0  0
   34.1640   28.5210   38.4260 C   0  0  0  0  0  2  0  0  0  0  0  0
   34.7900   29.2360   37.2490 C   0  0  0  0  0  2  0  0  0  0  0  0
   36.1700   29.5650   37.7360 C   0  0  0  0  0  3  0  0  0  0  0  0
   36.6010   30.4590   37.2430 H   0  0  0  0  0  0  0  0  0  0  0  0
   38.4560   23.0360   40.5050 C   0  0  0  0  0  0  0  0  0  0  0  0
   38.4010   24.2330   41.2350 C   0  0  0  0  0  0  0  0  0  0  0  0
   37.4170   25.1740   40.9900 C   0  0  0  0  0  0  0  0  0  0  0  0
   36.5300   24.8460   40.0060 N   0  0  0  0  0  0  0  0  0  0  0  0
   36.5970   23.7000   39.3180 C   0  0  0  0  0  0  0  0  0  0  0  0
   37.5540   22.8020   39.5670 N   0  0  0  0  0  0  0  0  0  0  0  0
   39.2290   22.3040   40.7010 H   0  0  0  0  0  0  0  0  0  0  0  0
   39.1300   24.4400   42.0060 H   0  0  0  0  0  0  0  0  0  0  0  0
   35.8180   23.6210   38.5890 H   0  0  0  0  0  0  0  0  0  0  0  0
  1  2  1  0  0  0  0
  2  7  2  0  0  0  0
  2  3  1  0  0  0  0
  3  4  2  0  0  0  0
  4  8  1  0  0  0  0
  4  5  1  0  0  0  0
  5  9  1  0  0  0  0
  6 10  1  0  0  0  0
  6  5  2  0  0  0  0
  7  6  1  0  0  0  0
 11 12  1  0  0  0  0
 11  7  1  0  0  0  0
 12 17  1  0  0  0  0
 13 18  1  0  0  0  0
 13 12  2  0  0  0  0
 14 13  1  0  0  0  0
 15 14  2  0  0  0  0
 15 16  1  0  0  0  0
 16 11  2  0  0  0  0
 19 14  1  0  0  0  0
 20 15  1  0  0  0  0
 21 22  1  0  0  0  0
 21 16  1  0  0  0  0
 23 22  1  0  0  0  0
 24 25  1  0  0  0  0
 24 23  1  0  0  0  0
 25 21  1  0  0  0  0
 26 25  1  0  0  0  0
 27 33  1  0  0  0  0
 27 28  1  0  0  0  0
 28 34  1  0  0  0  0
 29 28  2  0  0  0  0
 29  3  1  0  0  0  0
 30 29  1  0  0  0  0
 31 32  1  0  0  0  0
 31 30  2  0  0  0  0
 32 27  2  0  0  0  0
 35 31  1  0  0  0  0
M  END
>  <minimizedAffinity>
-5.76782131

$$$$

 OpenBabel03242522283D

 35 38  0  0  0  0  0  0  0  0999 V2000
   39.4350   27.7100   40.4140 F   0  0  0  0  0  0  0  0  0  0  0  0
   38.5260   27.6730   41.4440 C   0  0  0  0  0  0  0  0  0  0  0  0
   38.9200   27.3180   42.6890 C   0  0  0  0  0  0  0  0  0  0  0  0
   37.9630   27.4000   43.6780 C   0  0  0  0  0  0  0  0  0  0  0  0
   36.6790   27.8180   43.4360 C   0  0  0  0  0  0  0  0  0  0  0  0
   36.3740   28.1580   42.1400 C   0  0  0  0  0  0  0  0  0  0  0  0
   37.2750   28.0910   41.1150 C   0  0  0  0  0  0  0  0  0  0  0  0
   38.3880   27.0850   44.6480 H   0  0  0  0  0  0  0  0  0  0  0  0
   36.1120   27.8070   44.3440 H   0  0  0  0  0  0  0  0  0  0  0  0
   35.3750   28.4700   42.2580 H   0  0  0  0  0  0  0  0  0  0  0  0
   36.8110   28.4320   39.7950 C   0  0  0  0  0  0  0  0  0  0  0  0
   36.0640   27.5150   39.0850 C   0  0  0  0  0  0  0  0  0  0  0  0
   35.6900   27.8350   37.8000 C   0  0  0  0  0  0  0  0  0  0  0  0
   36.0490   29.0530   37.2140 C   0  0  0  0  0  0  0  0  0  0  0  0
   36.8090   29.9480   37.9920 C   0  0  0  0  0  0  0  0  0  0  0  0
   37.1860   29.6390   39.2790 C   0  0  0  0  0  0  0  0  0  0  0  0
   35.7100   26.5560   39.3410 H   0  0  0  0  0  0  0  0  0  0  0  0
   35.0940   27.1680   37.1600 H   0  0  0  0  0  0  0  0  0  0  0  0
   35.7170   29.2430   36.1800 H   0  0  0  0  0  0  0  0  0  0  0  0
   37.0080   30.8320   37.4110 H   0  0  0  0  0  0  0  0  0  0  0  0
   37.8000   30.8060   39.7470 N   0  0  0  0  0  0  0  0  0  0  0  0
   39.2420   31.0670   39.9460 C   0  0  0  0  0  2  0  0  0  0  0  0
   39.2100   32.3620   40.7470 C   0  0  0  0  0  2  0  0  0  0  0  0
   37.9400   33.0530   40.3040 C   0  0  0  0  0  2  0  0  0  0  0  0
   36.9500   31.9300   40.2060 C   0  0  0  0  0  3  0  0  0  0  0  0
   36.1410   32.1300   39.4750 H   0  0  0  0  0  0  0  0  0  0  0  0
   42.6270   27.3060   43.4500 C   0  0  0  0  0  0  0  0  0  0  0  0
   41.3170   27.7690   43.2630 C   0  0  0  0  0  0  0  0  0  0  0  0
   40.3000   26.9060   42.9000 C   0  0  0  0  0  0  0  0  0  0  0  0
   40.6710   25.6010   42.7460 N   0  0  0  0  0  0  0  0  0  0  0  0
   41.9260   25.1750   42.9290 C   0  0  0  0  0  0  0  0  0  0  0  0
   42.8970   26.0220   43.2790 N   0  0  0  0  0  0  0  0  0  0  0  0
   43.4200   27.9870   43.7340 H   0  0  0  0  0  0  0  0  0  0  0  0
   41.0790   28.8150   43.4000 H   0  0  0  0  0  0  0  0  0  0  0  0
   42.0230   24.1230   42.7630 H   0  0  0  0  0  0  0  0  0  0  0  0
  1  2  1  0  0  0  0
  2  3  1  0  0  0  0
  3 29  1  0  0  0  0
  3  4  2  0  0  0  0
  4  8  1  0  0  0  0
  5  4  1  0  0  0  0
  5  9  1  0  0  0  0
  6 10  1  0  0  0  0
  6  5  2  0  0  0  0
  7  2  2  0  0  0  0
  7  6  1  0  0  0  0
 11  7  1  0  0  0  0
 12 17  1  0  0  0  0
 12 11  2  0  0  0  0
 13 12  1  0  0  0  0
 14 13  2  0  0  0  0
 14 15  1  0  0  0  0
 15 16  2  0  0  0  0
 16 21  1  0  0  0  0
 16 11  1  0  0  0  0
 18 13  1  0  0  0  0
 19 14  1  0  0  0  0
 20 15  1  0  0  0  0
 21 22  1  0  0  0  0
 21 25  1  0  0  0  0
 22 23  1  0  0  0  0
 24 23  1  0  0  0  0
 25 24  1  0  0  0  0
 26 25  1  0  0  0  0
 27 33  1  0  0  0  0
 28 34  1  0  0  0  0
 28 27  2  0  0  0  0
 29 28  1  0  0  0  0
 30 29  2  0  0  0  0
 30 31  1  0  0  0  0
 31 32  2  0  0  0  0
 32 27  1  0  0  0  0
 35 31  1  0  0  0  0
M  END
>  <minimizedAffinity>
-5.75253153

$$$$

 OpenBabel03242522283D

 35 38  0  0  0  0  0  0  0  0999 V2000
   39.9150   28.8090   40.9860 F   0  0  0  0  0  0  0  0  0  0  0  0
   38.5460   28.9230   41.0330 C   0  0  0  0  0  0  0  0  0  0  0  0
   37.9370   30.0280   40.5460 C   0  0  0  0  0  0  0  0  0  0  0  0
   36.5590   30.0160   40.5480 C   0  0  0  0  0  0  0  0  0  0  0  0
   35.8270   28.9530   41.0110 C   0  0  0  0  0  0  0  0  0  0  0  0
   36.5350   27.8750   41.4860 C   0  0  0  0  0  0  0  0  0  0  0  0
   37.9000   27.8290   41.5170 C   0  0  0  0  0  0  0  0  0  0  0  0
   36.1680   30.9640   40.1350 H   0  0  0  0  0  0  0  0  0  0  0  0
   34.7800   29.1580   40.9150 H   0  0  0  0  0  0  0  0  0  0  0  0
   35.7440   27.2210   41.7210 H   0  0  0  0  0  0  0  0  0  0  0  0
   38.5150   26.6570   42.0840 C   0  0  0  0  0  0  0  0  0  0  0  0
   39.3220   26.7890   43.1950 C   0  0  0  0  0  0  0  0  0  0  0  0
   39.9550   25.6670   43.6780 C   0  0  0  0  0  0  0  0  0  0  0  0
   39.7950   24.4180   43.0710 C   0  0  0  0  0  0  0  0  0  0  0  0
   38.9570   24.3480   41.9400 C   0  0  0  0  0  0  0  0  0  0  0  0
   38.3180   25.4640   41.4520 C   0  0  0  0  0  0  0  0  0  0  0  0
   39.5740   27.6310   43.7780 H   0  0  0  0  0  0  0  0  0  0  0  0
   40.6140   25.6770   44.5580 H   0  0  0  0  0  0  0  0  0  0  0  0
   40.3340   23.5610   43.5090 H   0  0  0  0  0  0  0  0  0  0  0  0
   38.9350   23.3320   41.5860 H   0  0  0  0  0  0  0  0  0  0  0  0
   37.4980   24.9700   40.4300 N   0  0  0  0  0  0  0  0  0  0  0  0
   37.5250   25.3060   38.9900 C   0  0  0  0  0  2  0  0  0  0  0  0
   36.2180   24.6900   38.5080 C   0  0  0  0  0  2  0  0  0  0  0  0
   35.9810   23.5220   39.4400 C   0  0  0  0  0  2  0  0  0  0  0  0
   36.3820   24.0610   40.7810 C   0  0  0  0  0  3  0  0  0  0  0  0
   36.7270   23.2720   41.4790 H   0  0  0  0  0  0  0  0  0  0  0  0
   39.9030   32.3520   38.2950 C   0  0  0  0  0  0  0  0  0  0  0  0
   39.1080   31.2750   38.7140 C   0  0  0  0  0  0  0  0  0  0  0  0
   38.7580   31.1200   40.0430 C   0  0  0  0  0  0  0  0  0  0  0  0
   39.2390   32.0800   40.8870 N   0  0  0  0  0  0  0  0  0  0  0  0
   39.9970   33.1010   40.4710 C   0  0  0  0  0  0  0  0  0  0  0  0
   40.3250   33.2360   39.1840 N   0  0  0  0  0  0  0  0  0  0  0  0
   40.1740   32.4680   37.2530 H   0  0  0  0  0  0  0  0  0  0  0  0
   38.7530   30.5440   38.0010 H   0  0  0  0  0  0  0  0  0  0  0  0
   40.2770   33.7480   41.2750 H   0  0  0  0  0  0  0  0  0  0  0  0
  1  2  1  0  0  0  0
  2  7  1  0  0  0  0
  3  4  1  0  0  0  0
  3  2  2  0  0  0  0
  4  5  2  0  0  0  0
  5  6  1  0  0  0  0
  6  7  2  0  0  0  0
  6 10  1  0  0  0  0
  7 11  1  0  0  0  0
  8  4  1  0  0  0  0
  9  5  1  0  0  0  0
 11 12  1  0  0  0  0
 12 13  2  0  0  0  0
 12 17  1  0  0  0  0
 13 18  1  0  0  0  0
 14 19  1  0  0  0  0
 14 13  1  0  0  0  0
 15 14  2  0  0  0  0
 16 15  1  0  0  0  0
 16 11  2  0  0  0  0
 20 15  1  0  0  0  0
 21 25  1  0  0  0  0
 21 16  1  0  0  0  0
 22 21  1  0  0  0  0
 23 22  1  0  0  0  0
 23 24  1  0  0  0  0
 24 25  1  0  0  0  0
 25 26  1  0  0  0  0
 27 28  2  0  0  0  0
 27 32  1  0  0  0  0
 28 29  1  0  0  0  0
 29  3  1  0  0  0  0
 29 30  2  0  0  0  0
 31 30  1  0  0  0  0
 31 35  1  0  0  0  0
 32 31  2  0  0  0  0
 33 27  1  0  0  0  0
 34 28  1  0  0  0  0
M  END
>  <minimizedAffinity>
-5.72742748

$$$$

 OpenBabel03242522283D

 35 38  0  0  0  0  0  0  0  0999 V2000
   39.9990   30.8980   38.2370 F   0  0  0  0  0  0  0  0  0  0  0  0
   39.3350   31.8940   38.9130 C   0  0  0  0  0  0  0  0  0  0  0  0
   39.9770   33.0370   39.2460 C   0  0  0  0  0  0  0  0  0  0  0  0
   39.2090   34.0180   39.8360 C   0  0  0  0  0  0  0  0  0  0  0  0
   37.8680   33.8650   40.0790 C   0  0  0  0  0  0  0  0  0  0  0  0
   37.3050   32.6690   39.7050 C   0  0  0  0  0  0  0  0  0  0  0  0
   38.0130   31.6560   39.1230 C   0  0  0  0  0  0  0  0  0  0  0  0
   39.8310   34.9010   40.0690 H   0  0  0  0  0  0  0  0  0  0  0  0
   37.4760   34.7490   40.5380 H   0  0  0  0  0  0  0  0  0  0  0  0
   36.3000   32.8470   39.9610 H   0  0  0  0  0  0  0  0  0  0  0  0
   37.3090   30.4360   38.8230 C   0  0  0  0  0  0  0  0  0  0  0  0
   36.6340   30.3240   37.6250 C   0  0  0  0  0  0  0  0  0  0  0  0
   35.9110   29.1770   37.3890 C   0  0  0  0  0  0  0  0  0  0  0  0
   35.8520   28.1430   38.3280 C   0  0  0  0  0  0  0  0  0  0  0  0
   36.5650   28.3160   39.5310 C   0  0  0  0  0  0  0  0  0  0  0  0
   37.2920   29.4580   39.7750 C   0  0  0  0  0  0  0  0  0  0  0  0
   36.5470   30.9850   36.8090 H   0  0  0  0  0  0  0  0  0  0  0  0
   35.3440   29.0000   36.4630 H   0  0  0  0  0  0  0  0  0  0  0  0
   35.2520   27.2530   38.0750 H   0  0  0  0  0  0  0  0  0  0  0  0
   36.4230   27.4460   40.1470 H   0  0  0  0  0  0  0  0  0  0  0  0
   37.9420   29.1990   40.9870 N   0  0  0  0  0  0  0  0  0  0  0  0
   39.3820   28.9550   41.2220 C   0  0  0  0  0  2  0  0  0  0  0  0
   39.3750   28.4430   42.6560 C   0  0  0  0  0  2  0  0  0  0  0  0
   38.1750   29.1080   43.2920 C   0  0  0  0  0  2  0  0  0  0  0  0
   37.1310   29.0430   42.2180 C   0  0  0  0  0  3  0  0  0  0  0  0
   36.3800   29.8550   42.2940 H   0  0  0  0  0  0  0  0  0  0  0  0
   43.2760   33.8880   37.5960 C   0  0  0  0  0  0  0  0  0  0  0  0
   41.8950   33.8040   37.8280 C   0  0  0  0  0  0  0  0  0  0  0  0
   41.3960   33.1600   38.9450 C   0  0  0  0  0  0  0  0  0  0  0  0
   42.3370   32.6300   39.7800 N   0  0  0  0  0  0  0  0  0  0  0  0
   43.6510   32.7180   39.5440 C   0  0  0  0  0  0  0  0  0  0  0  0
   44.1170   33.3440   38.4610 N   0  0  0  0  0  0  0  0  0  0  0  0
   43.6610   34.3930   36.7190 H   0  0  0  0  0  0  0  0  0  0  0  0
   41.1950   34.2450   37.1320 H   0  0  0  0  0  0  0  0  0  0  0  0
   44.2300   32.2430   40.3090 H   0  0  0  0  0  0  0  0  0  0  0  0
  1  2  1  0  0  0  0
  2  7  2  0  0  0  0
  2  3  1  0  0  0  0
  3  4  2  0  0  0  0
  4  8  1  0  0  0  0
  4  5  1  0  0  0  0
  5  9  1  0  0  0  0
  6 10  1  0  0  0  0
  6  5  2  0  0  0  0
  7  6  1  0  0  0  0
 11  7  1  0  0  0  0
 11 16  1  0  0  0  0
 12 11  2  0  0  0  0
 13 12  1  0  0  0  0
 13 14  2  0  0  0  0
 14 15  1  0  0  0  0
 15 16  2  0  0  0  0
 15 20  1  0  0  0  0
 16 21  1  0  0  0  0
 17 12  1  0  0  0  0
 18 13  1  0  0  0  0
 19 14  1  0  0  0  0
 21 22  1  0  0  0  0
 21 25  1  0  0  0  0
 22 23  1  0  0  0  0
 23 24  1  0  0  0  0
 25 26  1  0  0  0  0
 25 24  1  0  0  0  0
 27 28  2  0  0  0  0
 27 32  1  0  0  0  0
 28 29  1  0  0  0  0
 29  3  1  0  0  0  0
 29 30  2  0  0  0  0
 31 30  1  0  0  0  0
 31 35  1  0  0  0  0
 32 31  2  0  0  0  0
 33 27  1  0  0  0  0
 34 28  1  0  0  0  0
M  END
>  <minimizedAffinity>
-5.68635702

$$$$

 OpenBabel03242522283D

 35 38  0  0  0  0  0  0  0  0999 V2000
   37.2790   30.7170   37.4660 F   0  0  0  0  0  0  0  0  0  0  0  0
   36.4290   30.2520   38.4410 C   0  0  0  0  0  0  0  0  0  0  0  0
   35.5400   29.2730   38.1600 C   0  0  0  0  0  0  0  0  0  0  0  0
   34.7940   28.8030   39.2200 C   0  0  0  0  0  0  0  0  0  0  0  0
   34.9320   29.2860   40.4960 C   0  0  0  0  0  0  0  0  0  0  0  0
   35.8620   30.2800   40.6830 C   0  0  0  0  0  0  0  0  0  0  0  0
   36.6260   30.7920   39.6730 C   0  0  0  0  0  0  0  0  0  0  0  0
   34.1010   28.0130   38.8790 H   0  0  0  0  0  0  0  0  0  0  0  0
   34.2590   28.7770   41.1560 H   0  0  0  0  0  0  0  0  0  0  0  0
   35.7840   30.4160   41.7240 H   0  0  0  0  0  0  0  0  0  0  0  0
   37.5300   31.8650   39.9980 C   0  0  0  0  0  0  0  0  0  0  0  0
   37.1860   33.1600   39.6720 C   0  0  0  0  0  0  0  0  0  0  0  0
   38.0940   34.1610   39.9290 C   0  0  0  0  0  0  0  0  0  0  0  0
   39.3380   33.8900   40.5060 C   0  0  0  0  0  0  0  0  0  0  0  0
   39.6300   32.5470   40.8190 C   0  0  0  0  0  0  0  0  0  0  0  0
   38.7270   31.5400   40.5680 C   0  0  0  0  0  0  0  0  0  0  0  0
   36.3170   33.5600   39.2280 H   0  0  0  0  0  0  0  0  0  0  0  0
   37.9050   35.2210   39.7040 H   0  0  0  0  0  0  0  0  0  0  0  0
   40.0190   34.7390   40.6820 H   0  0  0  0  0  0  0  0  0  0  0  0
   40.6140   32.4970   41.2500 H   0  0  0  0  0  0  0  0  0  0  0  0
   39.3200   30.4010   41.1250 N   0  0  0  0  0  0  0  0  0  0  0  0
   40.1480   29.3770   40.4520 C   0  0  0  0  0  2  0  0  0  0  0  0
   40.2040   28.2850   41.5130 C   0  0  0  0  0  2  0  0  0  0  0  0
   40.0830   29.0240   42.8270 C   0  0  0  0  0  2  0  0  0  0  0  0
   39.0470   30.0700   42.5440 C   0  0  0  0  0  3  0  0  0  0  0  0
   39.1560   30.9710   43.1810 H   0  0  0  0  0  0  0  0  0  0  0  0
   36.1470   27.3820   34.9370 C   0  0  0  0  0  0  0  0  0  0  0  0
   36.2900   27.8170   36.2630 C   0  0  0  0  0  0  0  0  0  0  0  0
   35.4480   28.7770   36.7940 C   0  0  0  0  0  0  0  0  0  0  0  0
   34.4920   29.2480   35.9420 N   0  0  0  0  0  0  0  0  0  0  0  0
   34.3690   28.8230   34.6790 C   0  0  0  0  0  0  0  0  0  0  0  0
   35.1910   27.8950   34.1810 N   0  0  0  0  0  0  0  0  0  0  0  0
   36.8100   26.6300   34.5270 H   0  0  0  0  0  0  0  0  0  0  0  0
   37.0650   27.4070   36.8950 H   0  0  0  0  0  0  0  0  0  0  0  0
   33.5650   29.3080   34.1670 H   0  0  0  0  0  0  0  0  0  0  0  0
  1  2  1  0  0  0  0
  2  7  1  0  0  0  0
  3  2  2  0  0  0  0
  3  4  1  0  0  0  0
  4  5  2  0  0  0  0
  5  6  1  0  0  0  0
  5  9  1  0  0  0  0
  6 10  1  0  0  0  0
  7 11  1  0  0  0  0
  7  6  2  0  0  0  0
  8  4  1  0  0  0  0
 11 16  1  0  0  0  0
 12 13  1  0  0  0  0
 12 11  2  0  0  0  0
 13 14  2  0  0  0  0
 14 19  1  0  0  0  0
 14 15  1  0  0  0  0
 15 20  1  0  0  0  0
 16 15  2  0  0  0  0
 16 21  1  0  0  0  0
 17 12  1  0  0  0  0
 18 13  1  0  0  0  0
 21 25  1  0  0  0  0
 22 21  1  0  0  0  0
 22 23  1  0  0  0  0
 23 24  1  0  0  0  0
 25 24  1  0  0  0  0
 25 26  1  0  0  0  0
 27 28  1  0  0  0  0
 28 29  2  0  0  0  0
 28 34  1  0  0  0  0
 29  3  1  0  0  0  0
 30 29  1  0  0  0  0
 31 30  2  0  0  0  0
 32 31  1  0  0  0  0
 32 27  2  0  0  0  0
 33 27  1  0  0  0  0
 35 31  1  0  0  0  0
M  END
>  <minimizedAffinity>
-5.5650177

$$$$

 OpenBabel03242522283D

 35 38  0  0  0  0  0  0  0  0999 V2000
   38.8650   28.4600   38.7510 F   0  0  0  0  0  0  0  0  0  0  0  0
   37.8860   29.1550   39.4210 C   0  0  0  0  0  0  0  0  0  0  0  0
   38.0090   30.4880   39.6170 C   0  0  0  0  0  0  0  0  0  0  0  0
   36.9370   31.1180   40.2130 C   0  0  0  0  0  0  0  0  0  0  0  0
   35.8000   30.4500   40.5900 C   0  0  0  0  0  0  0  0  0  0  0  0
   35.7690   29.0980   40.3490 C   0  0  0  0  0  0  0  0  0  0  0  0
   36.8000   28.4150   39.7690 C   0  0  0  0  0  0  0  0  0  0  0  0
   37.1450   32.1970   40.3280 H   0  0  0  0  0  0  0  0  0  0  0  0
   35.1010   31.1350   41.0260 H   0  0  0  0  0  0  0  0  0  0  0  0
   34.7980   28.8700   40.6870 H   0  0  0  0  0  0  0  0  0  0  0  0
   36.6550   26.9910   39.6160 C   0  0  0  0  0  0  0  0  0  0  0  0
   35.9440   26.4960   38.5420 C   0  0  0  0  0  0  0  0  0  0  0  0
   35.7600   25.1360   38.4530 C   0  0  0  0  0  0  0  0  0  0  0  0
   36.2730   24.2630   39.4180 C   0  0  0  0  0  0  0  0  0  0  0  0
   36.9910   24.8290   40.4890 C   0  0  0  0  0  0  0  0  0  0  0  0
   37.1830   26.1880   40.5850 C   0  0  0  0  0  0  0  0  0  0  0  0
   35.4770   26.9820   37.7320 H   0  0  0  0  0  0  0  0  0  0  0  0
   35.2090   24.6530   37.6330 H   0  0  0  0  0  0  0  0  0  0  0  0
   36.0850   23.1840   39.2860 H   0  0  0  0  0  0  0  0  0  0  0  0
   37.3180   24.0400   41.1440 H   0  0  0  0  0  0  0  0  0  0  0  0
   38.0330   26.3380   41.6880 N   0  0  0  0  0  0  0  0  0  0  0  0
   39.4030   25.8100   41.8680 C   0  0  0  0  0  2  0  0  0  0  0  0
   39.6290   26.0490   43.3550 C   0  0  0  0  0  2  0  0  0  0  0  0
   38.7830   27.2600   43.6790 C   0  0  0  0  0  2  0  0  0  0  0  0
   37.5240   27.0220   42.8990 C   0  0  0  0  0  3  0  0  0  0  0  0
   37.0000   27.9600   42.6250 H   0  0  0  0  0  0  0  0  0  0  0  0
   40.6190   32.2710   37.5350 C   0  0  0  0  0  0  0  0  0  0  0  0
   39.4210   31.6360   37.8950 C   0  0  0  0  0  0  0  0  0  0  0  0
   39.2260   31.1550   39.1760 C   0  0  0  0  0  0  0  0  0  0  0  0
   40.2680   31.3460   40.0350 N   0  0  0  0  0  0  0  0  0  0  0  0
   41.4060   31.9530   39.6760 C   0  0  0  0  0  0  0  0  0  0  0  0
   41.5790   32.4130   38.4340 N   0  0  0  0  0  0  0  0  0  0  0  0
   40.7670   32.6460   36.5290 H   0  0  0  0  0  0  0  0  0  0  0  0
   38.6260   31.5130   37.1730 H   0  0  0  0  0  0  0  0  0  0  0  0
   42.1050   32.0100   40.4830 H   0  0  0  0  0  0  0  0  0  0  0  0
  1  2  1  0  0  0  0
  2  3  2  0  0  0  0
  2  7  1  0  0  0  0
  3  4  1  0  0  0  0
  4  8  1  0  0  0  0
  4  5  2  0  0  0  0
  5  9  1  0  0  0  0
  6  5  1  0  0  0  0
  6 10  1  0  0  0  0
  7  6  2  0  0  0  0
 11  7  1  0  0  0  0
 11 16  1  0  0  0  0
 12 11  2  0  0  0  0
 13 12  1  0  0  0  0
 13 14  2  0  0  0  0
 14 15  1  0  0  0  0
 15 16  2  0  0  0  0
 15 20  1  0  0  0  0
 16 21  1  0  0  0  0
 17 12  1  0  0  0  0
 18 13  1  0  0  0  0
 19 14  1  0  0  0  0
 21 22  1  0  0  0  0
 21 25  1  0  0  0  0
 22 23  1  0  0  0  0
 23 24  1  0  0  0  0
 25 24  1  0  0  0  0
 26 25  1  0  0  0  0
 27 28  2  0  0  0  0
 27 32  1  0  0  0  0
 28 29  1  0  0  0  0
 29  3  1  0  0  0  0
 29 30  2  0  0  0  0
 31 30  1  0  0  0  0
 31 35  1  0  0  0  0
 32 31  2  0  0  0  0
 33 27  1  0  0  0  0
 34 28  1  0  0  0  0
M  END
>  <minimizedAffinity>
-5.56428194

$$$$
