
 OpenBabel03242517303D

 44 47  0  0  1  0  0  0  0  0999 V2000
   45.0150   34.7230   44.9730 C   0  0  0  0  0  0  0  0  0  0  0  0
   45.8830   34.5770   43.8550 C   0  0  0  0  0  0  0  0  0  0  0  0
   46.9250   33.6620   43.9420 C   0  0  0  0  0  0  0  0  0  0  0  0
   47.0510   32.9620   45.0990 N   0  0  0  0  0  0  0  0  0  0  0  0
   46.2420   33.0960   46.1420 C   0  0  0  0  0  0  0  0  0  0  0  0
   45.2500   33.9770   46.0380 N   0  0  0  0  0  0  0  0  0  0  0  0
   46.4480   32.3330   47.2870 N   0  0  0  0  0  0  0  0  0  0  0  0
   47.7070   32.4020   47.9960 C   0  0  0  0  0  0  0  0  0  0  0  0
   47.9290   31.2600   48.9350 C   0  0  0  0  0  0  0  0  0  0  0  0
   46.7750   30.7150   49.5620 N   0  0  0  0  0  0  0  0  0  0  0  0
   45.5700   31.4290   49.2480 C   0  0  0  0  0  0  0  0  0  0  0  0
   45.3640   31.4520   47.7700 C   0  0  2  0  0  0  0  0  0  0  0  0
   44.1730   35.4200   44.9820 H   0  0  0  0  0  0  0  0  0  0  0  0
   45.6670   35.1960   43.0030 H   0  0  0  0  0  0  0  0  0  0  0  0
   47.5730   33.5520   43.1080 H   0  0  0  0  0  0  0  0  0  0  0  0
   48.5110   32.4140   47.2380 H   0  0  0  0  0  0  0  0  0  0  0  0
   47.7120   33.3430   48.5790 H   0  0  0  0  0  0  0  0  0  0  0  0
   48.6930   31.5550   49.6860 H   0  0  0  0  0  0  0  0  0  0  0  0
   48.4000   30.4360   48.3330 H   0  0  0  0  0  0  0  0  0  0  0  0
   46.7190   29.7010   49.6150 H   0  0  0  0  0  0  0  0  0  0  0  0
   45.7430   32.5040   49.5670 H   0  0  0  0  0  0  0  0  0  0  0  0
   44.7390   31.0910   49.8600 H   0  0  0  0  0  0  0  0  0  0  0  0
   44.4060   31.9260   47.5350 H   0  0  0  0  0  0  0  0  0  0  0  0
   45.4690   30.0820   47.1450 C   0  0  0  0  0  0  0  0  0  0  0  0
   44.8400   30.0640   46.2440 H   0  0  0  0  0  0  0  0  0  0  0  0
   46.4930   29.7560   46.9540 H   0  0  0  0  0  0  0  0  0  0  0  0
   44.8610   29.1270   48.1410 C   0  0  0  0  0  0  0  0  0  0  0  0
   44.9810   27.8130   47.9770 C   0  0  0  0  0  0  0  0  0  0  0  0
   44.4250   26.7920   48.8980 C   0  0  0  0  0  0  0  0  0  0  0  0
   45.2250   26.3980   49.5570 H   0  0  0  0  0  0  0  0  0  0  0  0
   43.6200   27.2850   49.4810 H   0  0  0  0  0  0  0  0  0  0  0  0
   43.7520   25.7060   48.0980 C   0  0  2  0  0  0  0  0  0  0  0  0
   44.5810   24.7250   47.3410 C   0  0  0  0  0  0  0  0  0  0  0  0
   43.7600   25.7600   46.6270 C   0  0  1  0  0  0  0  0  0  0  0  0
   42.8850   25.2080   48.6240 H   0  0  0  0  0  0  0  0  0  0  0  0
   45.6800   24.8970   47.3940 H   0  0  0  0  0  0  0  0  0  0  0  0
   44.2810   23.6870   47.2140 H   0  0  0  0  0  0  0  0  0  0  0  0
   44.3580   26.5990   46.1670 H   0  0  0  0  0  0  0  0  0  0  0  0
   42.5110   25.5080   46.0140 N   0  0  2  0  0  0  0  0  0  0  0  0
   41.3340   25.8120   46.7410 C   0  0  0  0  0  0  0  0  0  0  0  0
   40.2700   25.0640   45.9550 C   0  0  0  0  0  0  0  0  0  0  0  0
   40.9850   24.1870   44.9560 C   0  0  0  0  0  0  0  0  0  0  0  0
   42.4040   24.1560   45.5240 C   0  0  0  0  0  0  0  0  0  0  0  0
   43.1660   24.0130   44.7310 H   0  0  0  0  0  0  0  0  0  0  0  0
  1 13  1  0  0  0  0
  1  6  1  0  0  0  0
  2  3  1  0  0  0  0
  2  1  2  0  0  0  0
  3  4  2  0  0  0  0
  4  5  1  0  0  0  0
  5  7  1  0  0  0  0
  6  5  2  0  0  0  0
  7 12  1  0  0  0  0
  7  8  1  0  0  0  0
  8 17  1  0  0  0  0
  8  9  1  0  0  0  0
  9 10  1  0  0  0  0
  9 18  1  0  0  0  0
 10 20  1  0  0  0  0
 11 10  1  0  0  0  0
 11 21  1  0  0  0  0
 11 22  1  0  0  0  0
 12 23  1  6  0  0  0
 12 11  1  0  0  0  0
 14  2  1  0  0  0  0
 15  3  1  0  0  0  0
 16  8  1  0  0  0  0
 19  9  1  0  0  0  0
 24 12  1  0  0  0  0
 24 27  1  0  0  0  0
 25 24  1  0  0  0  0
 26 24  1  0  0  0  0
 28 27  2  0  0  0  0
 28 29  1  0  0  0  0
 29 31  1  0  0  0  0
 29 30  1  0  0  0  0
 32 35  1  1  0  0  0
 32 29  1  0  0  0  0
 33 36  1  0  0  0  0
 33 32  1  0  0  0  0
 34 38  1  6  0  0  0
 34 33  1  0  0  0  0
 34 32  1  0  0  0  0
 37 33  1  0  0  0  0
 39 34  1  0  0  0  0
 39 40  1  1  0  0  0
 41 40  1  0  0  0  0
 42 43  1  0  0  0  0
 42 41  1  0  0  0  0
 43 39  1  0  0  0  0
 44 43  1  0  0  0  0
M  END
>  <minimizedAffinity>
-5.92092657

>  <minimizedRMSD>
0.691891193

$$$$
