
 OpenBabel03252509353D

 41 43  0  0  1  0  0  0  0  0999 V2000
   44.5250   35.4740   44.0360 O   0  0  0  0  0  0  0  0  0  0  0  0
   45.3820   34.2670   44.3630 P   0  0  1  0  0  0  0  0  0  0  0  0
   44.7200   32.8490   43.7130 O   0  0  0  0  0  0  0  0  0  0  0  0
   44.3830   33.1100   42.8120 H   0  0  0  0  0  0  0  0  0  0  0  0
   46.9030   34.5300   43.7250 O   0  0  0  0  0  0  0  0  0  0  0  0
   47.0350   33.8350   42.5180 C   0  0  1  0  0  0  0  0  0  0  0  0
   46.4500   34.6650   41.3720 C   0  0  0  0  0  0  0  0  0  0  0  0
   46.9650   33.9050   40.1800 C   0  0  0  0  0  0  0  0  0  0  0  0
   48.2430   33.2300   40.6330 C   0  0  0  0  0  0  0  0  0  0  0  0
   48.4530   33.7000   42.0590 C   0  0  1  0  0  0  0  0  0  0  0  0
   46.5140   32.8800   42.5140 H   0  0  0  0  0  0  0  0  0  0  0  0
   46.7110   35.7170   41.4100 H   0  0  0  0  0  0  0  0  0  0  0  0
   45.3320   34.5830   41.4090 H   0  0  0  0  0  0  0  0  0  0  0  0
   47.2680   34.6120   39.3750 H   0  0  0  0  0  0  0  0  0  0  0  0
   46.2000   33.1860   39.8420 H   0  0  0  0  0  0  0  0  0  0  0  0
   49.1110   33.4500   39.9860 H   0  0  0  0  0  0  0  0  0  0  0  0
   48.0130   32.1390   40.6980 H   0  0  0  0  0  0  0  0  0  0  0  0
   48.9480   32.9040   42.6740 H   0  0  0  0  0  0  0  0  0  0  0  0
   49.2140   35.0010   42.1190 C   0  0  0  0  0  0  0  0  0  0  0  0
   48.5250   35.8920   42.1990 H   0  0  0  0  0  0  0  0  0  0  0  0
   49.8020   35.1470   41.1890 H   0  0  0  0  0  0  0  0  0  0  0  0
   50.0220   35.0760   43.2310 O   0  0  0  0  0  0  0  0  0  0  0  0
   50.5730   34.2980   43.4240 H   0  0  0  0  0  0  0  0  0  0  0  0
   45.4620   34.0380   46.0120 O   0  0  0  0  0  0  0  0  0  0  0  0
   46.3980   33.0890   46.2850 C   0  0  0  0  0  0  0  0  0  0  0  0
   46.9050   32.6100   45.4550 H   0  0  0  0  0  0  0  0  0  0  0  0
   47.2160   33.6290   46.8500 H   0  0  0  0  0  0  0  0  0  0  0  0
   45.3740   31.3830   49.4260 C   0  0  0  0  0  0  0  0  0  0  0  0
   45.8310   32.3770   48.5600 C   0  0  0  0  0  0  0  0  0  0  0  0
   45.9130   32.0520   47.2090 C   0  0  0  0  0  0  0  0  0  0  0  0
   45.5480   30.8010   46.8080 N   0  0  0  0  0  0  0  0  0  0  0  0
   45.1100   29.8570   47.6670 C   0  0  0  0  0  0  0  0  0  0  0  0
   45.0260   30.1510   48.9570 N   0  0  0  0  0  0  0  0  0  0  0  0
   45.3070   31.6220   50.4710 H   0  0  0  0  0  0  0  0  0  0  0  0
   46.1000   33.3450   48.9690 H   0  0  0  0  0  0  0  0  0  0  0  0
   44.7430   28.5670   47.1920 N   0  0  0  0  0  0  0  0  0  0  0  0
   43.9400   28.2160   46.0370 C   0  0  0  0  0  2  0  0  0  0  0  0
   44.4590   26.8500   45.5900 C   0  0  0  0  0  2  0  0  0  0  0  0
   45.5600   26.5150   46.5820 C   0  0  0  0  0  2  0  0  0  0  0  0
   45.1160   27.3030   47.7960 C   0  0  0  0  0  3  0  0  0  0  0  0
   45.9460   27.4050   48.5240 H   0  0  0  0  0  0  0  0  0  0  0  0
  2  1  2  6  0  0  0
  2 24  1  0  0  0  0
  3  2  1  0  0  0  0
  4  3  1  0  0  0  0
  5  2  1  0  0  0  0
  6 11  1  1  0  0  0
  6  5  1  0  0  0  0
  7 13  1  0  0  0  0
  7 12  1  0  0  0  0
  7  6  1  0  0  0  0
  8  9  1  0  0  0  0
  8  7  1  0  0  0  0
  9 17  1  0  0  0  0
  9 10  1  0  0  0  0
 10 19  1  0  0  0  0
 10  6  1  0  0  0  0
 10 18  1  1  0  0  0
 14  8  1  0  0  0  0
 15  8  1  0  0  0  0
 16  9  1  0  0  0  0
 19 20  1  0  0  0  0
 19 22  1  0  0  0  0
 21 19  1  0  0  0  0
 22 23  1  0  0  0  0
 24 25  1  0  0  0  0
 25 27  1  0  0  0  0
 25 30  1  0  0  0  0
 26 25  1  0  0  0  0
 28 34  1  0  0  0  0
 29 35  1  0  0  0  0
 29 28  2  0  0  0  0
 30 29  1  0  0  0  0
 31 30  2  0  0  0  0
 31 32  1  0  0  0  0
 32 33  2  0  0  0  0
 33 28  1  0  0  0  0
 36 32  1  0  0  0  0
 36 40  1  0  0  0  0
 37 36  1  0  0  0  0
 38 37  1  0  0  0  0
 38 39  1  0  0  0  0
 39 40  1  0  0  0  0
 40 41  1  0  0  0  0
M  END
>  <minimizedAffinity>
-6.1339736

>  <minimizedRMSD>
1.0408684

$$$$
