
 OpenBabel03242523503D

 40 43  0  0  1  0  0  0  0  0999 V2000
   42.8300   34.4630   38.7750 C   0  0  1  0  0  0  0  0  0  0  0  0
   42.9840   35.1740   40.1240 C   0  0  1  0  0  0  0  0  0  0  0  0
   41.7030   35.4770   40.6270 O   0  0  0  0  0  0  0  0  0  0  0  0
   40.7930   35.8070   39.6220 C   0  0  0  0  0  0  0  0  0  0  0  0
   40.4300   34.5660   38.8080 C   0  0  2  0  0  0  0  0  0  0  0  0
   41.6000   33.5860   38.9330 C   0  0  1  0  0  0  0  0  0  0  0  0
   43.7390   33.8440   38.5730 H   0  0  0  0  0  0  0  0  0  0  0  0
   43.5870   36.0880   40.0360 H   0  0  0  0  0  0  0  0  0  0  0  0
   41.1080   36.6520   39.0050 H   0  0  0  0  0  0  0  0  0  0  0  0
   39.8740   36.1070   40.1580 H   0  0  0  0  0  0  0  0  0  0  0  0
   39.4790   34.1280   39.1130 H   0  0  0  0  0  0  0  0  0  0  0  0
   41.5750   33.2110   39.9690 H   0  0  0  0  0  0  0  0  0  0  0  0
   42.6280   35.3900   37.7550 O   0  0  0  0  0  0  0  0  0  0  0  0
   43.2660   36.1340   37.8230 H   0  0  0  0  0  0  0  0  0  0  0  0
   40.4530   34.9460   37.4480 O   0  0  0  0  0  0  0  0  0  0  0  0
   39.5940   34.6890   37.0150 H   0  0  0  0  0  0  0  0  0  0  0  0
   43.4860   34.2090   41.0080 O   0  0  0  0  0  0  0  0  0  0  0  0
   44.5980   34.3290   41.7380 C   0  0  0  0  0  0  0  0  0  0  0  0
   45.8430   34.4620   41.1280 C   0  0  0  0  0  0  0  0  0  0  0  0
   46.9660   34.5870   41.9300 C   0  0  0  0  0  0  0  0  0  0  0  0
   46.8230   34.5750   43.3020 N   0  0  0  0  0  0  0  0  0  0  0  0
   45.6070   34.4450   43.8590 C   0  0  0  0  0  0  0  0  0  0  0  0
   44.4980   34.3220   43.0890 N   0  0  0  0  0  0  0  0  0  0  0  0
   45.9590   34.4710   40.0590 H   0  0  0  0  0  0  0  0  0  0  0  0
   45.4910   34.4360   44.9350 H   0  0  0  0  0  0  0  0  0  0  0  0
   48.3380   34.7140   41.3230 C   0  0  0  0  0  0  0  0  0  0  0  0
   49.0690   36.0220   41.5140 C   0  0  0  0  0  0  0  0  0  0  0  0
   49.4980   34.7060   42.1740 C   0  0  0  0  0  0  0  0  0  0  0  0
   48.3750   34.2710   40.3070 H   0  0  0  0  0  0  0  0  0  0  0  0
   48.5330   36.7760   42.0930 H   0  0  0  0  0  0  0  0  0  0  0  0
   49.6810   36.3580   40.6560 H   0  0  0  0  0  0  0  0  0  0  0  0
   49.2920   34.7280   43.2840 H   0  0  0  0  0  0  0  0  0  0  0  0
   50.4840   34.2970   41.9120 H   0  0  0  0  0  0  0  0  0  0  0  0
   41.5080   32.5870   37.9840 O   0  0  0  0  0  0  0  0  0  0  0  0
   40.7070   31.9800   40.3810 H   0  0  0  0  0  0  0  0  0  0  0  0
   41.3980   31.2990   39.9580 N   0  0  0  0  0  0  0  0  0  0  0  0
   40.8750   29.9710   40.2450 C   0  0  0  0  0  2  0  0  0  0  0  0
   39.5210   30.0560   39.5570 C   0  0  0  0  0  2  0  0  0  0  0  0
   39.7180   31.0300   38.4080 C   0  0  0  0  0  2  0  0  0  0  0  0
   41.1950   31.3500   38.5030 C   0  0  1  0  0  3  0  0  0  0  0  0
  1  7  1  6  0  0  0
  1  6  1  0  0  0  0
  1  2  1  0  0  0  0
  2  8  1  6  0  0  0
  2  3  1  0  0  0  0
  2 17  1  0  0  0  0
  4 10  1  0  0  0  0
  4  3  1  0  0  0  0
  5  6  1  0  0  0  0
  5 11  1  1  0  0  0
  5  4  1  0  0  0  0
  6 12  1  1  0  0  0
  9  4  1  0  0  0  0
 13 14  1  0  0  0  0
 13  1  1  0  0  0  0
 15  5  1  0  0  0  0
 16 15  1  0  0  0  0
 17 18  1  0  0  0  0
 18 23  1  0  0  0  0
 19 18  2  0  0  0  0
 19 20  1  0  0  0  0
 20 21  2  0  0  0  0
 21 22  1  0  0  0  0
 22 25  1  0  0  0  0
 23 22  2  0  0  0  0
 24 19  1  0  0  0  0
 26 27  1  0  0  0  0
 26 20  1  0  0  0  0
 26 28  1  0  0  0  0
 27 30  1  0  0  0  0
 27 28  1  0  0  0  0
 28 32  1  0  0  0  0
 29 26  1  0  0  0  0
 31 27  1  0  0  0  0
 33 28  1  0  0  0  0
 34  6  1  0  0  0  0
 36 37  1  0  0  0  0
 36 35  1  0  0  0  0
 38 37  1  0  0  0  0
 39 40  1  0  0  0  0
 39 38  1  0  0  0  0
 40 34  1  1  0  0  0
 40 36  1  0  0  0  0
M  END
>  <minimizedAffinity>
-5.91280937

>  <minimizedRMSD>
0.736699343

$$$$
