
 OpenBabel03242517433D

 16 17  0  0  1  0  0  0  0  0999 V2000
   39.0830   31.6980   41.1160 C   0  0  0  0  0  0  0  0  0  0  0  0
   37.7720   31.9220   40.6510 C   0  0  0  0  0  0  0  0  0  0  0  0
   37.4350   33.0980   40.0000 C   0  0  0  0  0  0  0  0  0  0  0  0
   38.4380   34.0150   39.8350 N   0  0  0  0  0  0  0  0  0  0  0  0
   39.6780   33.7870   40.2820 C   0  0  0  0  0  0  0  0  0  0  0  0
   40.0400   32.6530   40.9210 N   0  0  0  0  0  0  0  0  0  0  0  0
   39.3220   30.7760   41.6210 H   0  0  0  0  0  0  0  0  0  0  0  0
   36.4490   33.2780   39.6440 H   0  0  0  0  0  0  0  0  0  0  0  0
   40.4520   34.5380   40.1350 H   0  0  0  0  0  0  0  0  0  0  0  0
   36.5210   30.6530   40.9150 S   0  0  0  0  0  0  0  0  0  0  0  0
   36.2830   29.8110   43.5430 H   0  0  0  0  0  0  0  0  0  0  0  0
   37.1530   29.3750   43.2150 N   0  0  0  0  0  0  0  0  0  0  0  0
   37.4010   28.0370   43.6690 C   0  0  0  0  0  2  0  0  0  0  0  0
   36.7240   27.1500   42.6470 C   0  0  0  0  0  2  0  0  0  0  0  0
   36.5680   27.9700   41.3980 C   0  0  0  0  0  2  0  0  0  0  0  0
   37.2630   29.2480   41.7750 C   0  0  1  0  0  3  0  0  0  0  0  0
  1  7  1  0  0  0  0
  2 10  1  0  0  0  0
  2  1  2  0  0  0  0
  3  2  1  0  0  0  0
  4  3  2  0  0  0  0
  4  5  1  0  0  0  0
  5  6  2  0  0  0  0
  6  1  1  0  0  0  0
  8  3  1  0  0  0  0
  9  5  1  0  0  0  0
 12 11  1  0  0  0  0
 12 13  1  0  0  0  0
 14 13  1  0  0  0  0
 15 16  1  0  0  0  0
 15 14  1  0  0  0  0
 16 10  1  6  0  0  0
 16 12  1  0  0  0  0
M  END
>  <minimizedAffinity>
-4.19396782

$$$$

 OpenBabel03242517433D

 16 17  0  0  1  0  0  0  0  0999 V2000
   37.6880   29.1400   42.9590 C   0  0  0  0  0  0  0  0  0  0  0  0
   37.3660   29.2680   41.5930 C   0  0  0  0  0  0  0  0  0  0  0  0
   37.7710   28.3170   40.6710 C   0  0  0  0  0  0  0  0  0  0  0  0
   38.4920   27.2600   41.1580 N   0  0  0  0  0  0  0  0  0  0  0  0
   38.7900   27.1520   42.4570 C   0  0  0  0  0  0  0  0  0  0  0  0
   38.4110   28.0610   43.3830 N   0  0  0  0  0  0  0  0  0  0  0  0
   37.3630   29.8920   43.6590 H   0  0  0  0  0  0  0  0  0  0  0  0
   37.5340   28.4030   39.6370 H   0  0  0  0  0  0  0  0  0  0  0  0
   39.3650   26.2990   42.8120 H   0  0  0  0  0  0  0  0  0  0  0  0
   36.4120   30.6960   41.0490 S   0  0  0  0  0  0  0  0  0  0  0  0
   36.3350   33.4630   40.9710 H   0  0  0  0  0  0  0  0  0  0  0  0
   36.9170   33.2030   40.1660 N   0  0  0  0  0  0  0  0  0  0  0  0
   38.0490   34.0450   39.9070 C   0  0  0  0  0  2  0  0  0  0  0  0
   39.1670   33.4570   40.7410 C   0  0  0  0  0  2  0  0  0  0  0  0
   38.7890   32.0330   41.0300 C   0  0  0  0  0  2  0  0  0  0  0  0
   37.5130   31.8840   40.2490 C   0  0  1  0  0  3  0  0  0  0  0  0
  1  6  1  0  0  0  0
  1  7  1  0  0  0  0
  2  1  2  0  0  0  0
  3  4  2  0  0  0  0
  3  2  1  0  0  0  0
  4  5  1  0  0  0  0
  5  9  1  0  0  0  0
  5  6  2  0  0  0  0
  8  3  1  0  0  0  0
 10  2  1  0  0  0  0
 12 16  1  0  0  0  0
 12 11  1  0  0  0  0
 13 12  1  0  0  0  0
 13 14  1  0  0  0  0
 14 15  1  0  0  0  0
 16 15  1  0  0  0  0
 16 10  1  1  0  0  0
M  END
>  <minimizedAffinity>
-3.88697767

$$$$

 OpenBabel03242517433D

 16 17  0  0  1  0  0  0  0  0999 V2000
   36.5740   29.7120   37.8330 C   0  0  0  0  0  0  0  0  0  0  0  0
   36.4550   30.3250   39.0960 C   0  0  0  0  0  0  0  0  0  0  0  0
   36.9640   31.5940   39.3260 C   0  0  0  0  0  0  0  0  0  0  0  0
   37.5780   32.2070   38.2680 N   0  0  0  0  0  0  0  0  0  0  0  0
   37.6830   31.6110   37.0750 C   0  0  0  0  0  0  0  0  0  0  0  0
   37.1990   30.3760   36.8170 N   0  0  0  0  0  0  0  0  0  0  0  0
   36.1710   28.7250   37.6780 H   0  0  0  0  0  0  0  0  0  0  0  0
   36.8800   32.0670   40.2750 H   0  0  0  0  0  0  0  0  0  0  0  0
   38.1790   32.1270   36.2540 H   0  0  0  0  0  0  0  0  0  0  0  0
   35.6270   29.4370   40.4270 S   0  0  0  0  0  0  0  0  0  0  0  0
   36.1810   30.1010   43.0570 H   0  0  0  0  0  0  0  0  0  0  0  0
   37.0400   29.6460   42.7250 N   0  0  0  0  0  0  0  0  0  0  0  0
   37.7030   28.7870   43.6620 C   0  0  0  0  0  2  0  0  0  0  0  0
   37.0620   27.4300   43.4630 C   0  0  0  0  0  2  0  0  0  0  0  0
   36.4410   27.4410   42.0970 C   0  0  0  0  0  2  0  0  0  0  0  0
   36.8620   28.7850   41.5720 C   0  0  1  0  0  3  0  0  0  0  0  0
  1  2  1  0  0  0  0
  2  3  2  0  0  0  0
  2 10  1  0  0  0  0
  3  8  1  0  0  0  0
  4  3  1  0  0  0  0
  5  4  2  0  0  0  0
  6  5  1  0  0  0  0
  6  1  2  0  0  0  0
  7  1  1  0  0  0  0
  9  5  1  0  0  0  0
 12 11  1  0  0  0  0
 12 13  1  0  0  0  0
 14 13  1  0  0  0  0
 15 14  1  0  0  0  0
 16 10  1  6  0  0  0
 16 15  1  0  0  0  0
 16 12  1  0  0  0  0
M  END
>  <minimizedAffinity>
-3.84913969

$$$$

 OpenBabel03242517433D

 16 17  0  0  1  0  0  0  0  0999 V2000
   37.6410   25.9430   42.3080 C   0  0  0  0  0  0  0  0  0  0  0  0
   38.2650   26.9290   43.0980 C   0  0  0  0  0  0  0  0  0  0  0  0
   39.5040   26.7050   43.6760 C   0  0  0  0  0  0  0  0  0  0  0  0
   40.0790   25.4860   43.4370 N   0  0  0  0  0  0  0  0  0  0  0  0
   39.4740   24.5600   42.6840 C   0  0  0  0  0  0  0  0  0  0  0  0
   38.2670   24.7460   42.1060 N   0  0  0  0  0  0  0  0  0  0  0  0
   36.6770   26.1400   41.8690 H   0  0  0  0  0  0  0  0  0  0  0  0
   39.9840   27.4410   44.2740 H   0  0  0  0  0  0  0  0  0  0  0  0
   39.9590   23.6000   42.5140 H   0  0  0  0  0  0  0  0  0  0  0  0
   37.4280   28.5040   43.3550 S   0  0  0  0  0  0  0  0  0  0  0  0
   35.8370   30.6380   42.5920 H   0  0  0  0  0  0  0  0  0  0  0  0
   36.1190   30.2030   41.7050 N   0  0  0  0  0  0  0  0  0  0  0  0
   36.4180   31.1000   40.6270 C   0  0  0  0  0  2  0  0  0  0  0  0
   37.8890   31.4190   40.7870 C   0  0  0  0  0  2  0  0  0  0  0  0
   38.4850   30.3160   41.6130 C   0  0  0  0  0  2  0  0  0  0  0  0
   37.3150   29.3870   41.7830 C   0  0  1  0  0  3  0  0  0  0  0  0
  1  2  1  0  0  0  0
  2 10  1  0  0  0  0
  2  3  2  0  0  0  0
  3  8  1  0  0  0  0
  4  3  1  0  0  0  0
  5  4  2  0  0  0  0
  6  1  2  0  0  0  0
  6  5  1  0  0  0  0
  7  1  1  0  0  0  0
  9  5  1  0  0  0  0
 12 16  1  0  0  0  0
 12 11  1  0  0  0  0
 13 14  1  0  0  0  0
 13 12  1  0  0  0  0
 14 15  1  0  0  0  0
 15 16  1  0  0  0  0
 16 10  1  1  0  0  0
M  END
>  <minimizedAffinity>
-3.83142328

$$$$

 OpenBabel03242517433D

 16 17  0  0  1  0  0  0  0  0999 V2000
   39.2270   30.4990   39.6650 C   0  0  0  0  0  0  0  0  0  0  0  0
   38.4780   30.7190   40.8380 C   0  0  0  0  0  0  0  0  0  0  0  0
   37.2060   31.2660   40.7820 C   0  0  0  0  0  0  0  0  0  0  0  0
   36.7270   31.5730   39.5370 N   0  0  0  0  0  0  0  0  0  0  0  0
   37.4500   31.3580   38.4330 C   0  0  0  0  0  0  0  0  0  0  0  0
   38.6930   30.8270   38.4520 N   0  0  0  0  0  0  0  0  0  0  0  0
   40.2150   30.0730   39.7330 H   0  0  0  0  0  0  0  0  0  0  0  0
   36.6310   31.4370   41.6600 H   0  0  0  0  0  0  0  0  0  0  0  0
   37.0390   31.6140   37.4580 H   0  0  0  0  0  0  0  0  0  0  0  0
   39.1960   30.2800   42.4310 S   0  0  0  0  0  0  0  0  0  0  0  0
   36.6160   29.7130   43.2610 H   0  0  0  0  0  0  0  0  0  0  0  0
   37.1840   28.9640   43.6730 N   0  0  0  0  0  0  0  0  0  0  0  0
   36.5980   27.6550   43.6800 C   0  0  0  0  0  2  0  0  0  0  0  0
   36.9940   27.0470   42.3510 C   0  0  0  0  0  2  0  0  0  0  0  0
   38.1960   27.8060   41.8690 C   0  0  0  0  0  2  0  0  0  0  0  0
   38.4580   28.7390   43.0180 C   0  0  1  0  0  3  0  0  0  0  0  0
  1  7  1  0  0  0  0
  1  2  1  0  0  0  0
  2 10  1  0  0  0  0
  3  2  2  0  0  0  0
  3  8  1  0  0  0  0
  4  3  1  0  0  0  0
  5  6  1  0  0  0  0
  5  4  2  0  0  0  0
  6  1  2  0  0  0  0
  9  5  1  0  0  0  0
 11 12  1  0  0  0  0
 12 13  1  0  0  0  0
 14 13  1  0  0  0  0
 15 14  1  0  0  0  0
 15 16  1  0  0  0  0
 16 10  1  6  0  0  0
 16 12  1  0  0  0  0
M  END
>  <minimizedAffinity>
-3.72493029

$$$$

 OpenBabel03242517433D

 16 17  0  0  1  0  0  0  0  0999 V2000
   38.8160   28.4300   43.1940 C   0  0  0  0  0  0  0  0  0  0  0  0
   38.4930   29.5610   42.4160 C   0  0  0  0  0  0  0  0  0  0  0  0
   37.3020   29.6290   41.7130 C   0  0  0  0  0  0  0  0  0  0  0  0
   36.4670   28.5490   41.8170 N   0  0  0  0  0  0  0  0  0  0  0  0
   36.7870   27.4830   42.5590 C   0  0  0  0  0  0  0  0  0  0  0  0
   37.9400   27.3840   43.2570 N   0  0  0  0  0  0  0  0  0  0  0  0
   39.7480   28.3990   43.7320 H   0  0  0  0  0  0  0  0  0  0  0  0
   37.0480   30.4770   41.1220 H   0  0  0  0  0  0  0  0  0  0  0  0
   36.1000   26.6410   42.6200 H   0  0  0  0  0  0  0  0  0  0  0  0
   39.6580   30.9330   42.3430 S   0  0  0  0  0  0  0  0  0  0  0  0
   39.5850   33.6990   42.2180 H   0  0  0  0  0  0  0  0  0  0  0  0
   38.9660   33.3950   41.4570 N   0  0  0  0  0  0  0  0  0  0  0  0
   39.0300   34.1600   40.2460 C   0  0  0  0  0  2  0  0  0  0  0  0
   40.1300   33.5080   39.4350 C   0  0  0  0  0  2  0  0  0  0  0  0
   40.2940   32.1150   39.9690 C   0  0  0  0  0  2  0  0  0  0  0  0
   39.1960   32.0410   40.9920 C   0  0  1  0  0  3  0  0  0  0  0  0
  1  6  1  0  0  0  0
  1  7  1  0  0  0  0
  2  1  2  0  0  0  0
  3  4  2  0  0  0  0
  3  2  1  0  0  0  0
  4  5  1  0  0  0  0
  5  9  1  0  0  0  0
  5  6  2  0  0  0  0
  8  3  1  0  0  0  0
 10  2  1  0  0  0  0
 12 11  1  0  0  0  0
 13 12  1  0  0  0  0
 14 15  1  0  0  0  0
 14 13  1  0  0  0  0
 15 16  1  0  0  0  0
 16 12  1  0  0  0  0
 16 10  1  1  0  0  0
M  END
>  <minimizedAffinity>
-3.61815834

$$$$

 OpenBabel03242517433D

 16 17  0  0  1  0  0  0  0  0999 V2000
   39.7070   31.9030   38.2750 C   0  0  0  0  0  0  0  0  0  0  0  0
   39.0770   32.7150   39.2390 C   0  0  0  0  0  0  0  0  0  0  0  0
   39.8080   33.5950   40.0220 C   0  0  0  0  0  0  0  0  0  0  0  0
   41.1580   33.6280   39.8060 N   0  0  0  0  0  0  0  0  0  0  0  0
   41.7430   32.8510   38.8860 C   0  0  0  0  0  0  0  0  0  0  0  0
   41.0600   31.9840   38.1070 N   0  0  0  0  0  0  0  0  0  0  0  0
   39.1190   31.2270   37.6770 H   0  0  0  0  0  0  0  0  0  0  0  0
   39.3430   34.2120   40.7520 H   0  0  0  0  0  0  0  0  0  0  0  0
   42.8200   32.9030   38.7400 H   0  0  0  0  0  0  0  0  0  0  0  0
   37.2910   32.5990   39.4490 S   0  0  0  0  0  0  0  0  0  0  0  0
   35.0770   31.5150   40.7100 H   0  0  0  0  0  0  0  0  0  0  0  0
   35.7800   30.7670   40.7450 N   0  0  0  0  0  0  0  0  0  0  0  0
   35.2940   29.4330   40.5380 C   0  0  0  0  0  2  0  0  0  0  0  0
   35.3420   29.2320   39.0390 C   0  0  0  0  0  2  0  0  0  0  0  0
   36.3180   30.2360   38.4980 C   0  0  0  0  0  2  0  0  0  0  0  0
   36.8340   30.8780   39.7550 C   0  0  1  0  0  3  0  0  0  0  0  0
  1  2  1  0  0  0  0
  2 10  1  0  0  0  0
  2  3  2  0  0  0  0
  3  8  1  0  0  0  0
  4  3  1  0  0  0  0
  5  4  2  0  0  0  0
  6  1  2  0  0  0  0
  6  5  1  0  0  0  0
  7  1  1  0  0  0  0
  9  5  1  0  0  0  0
 11 12  1  0  0  0  0
 13 12  1  0  0  0  0
 14 13  1  0  0  0  0
 15 14  1  0  0  0  0
 15 16  1  0  0  0  0
 16 10  1  6  0  0  0
 16 12  1  0  0  0  0
M  END
>  <minimizedAffinity>
-3.44658518

$$$$

 OpenBabel03242517433D

 16 17  0  0  1  0  0  0  0  0999 V2000
   39.3080   25.7040   41.5530 C   0  0  0  0  0  0  0  0  0  0  0  0
   38.0430   25.9230   42.1350 C   0  0  0  0  0  0  0  0  0  0  0  0
   37.0600   24.9470   42.0980 C   0  0  0  0  0  0  0  0  0  0  0  0
   37.3860   23.7740   41.4740 N   0  0  0  0  0  0  0  0  0  0  0  0
   38.5910   23.5800   40.9270 C   0  0  0  0  0  0  0  0  0  0  0  0
   39.5710   24.5100   40.9440 N   0  0  0  0  0  0  0  0  0  0  0  0
   40.0570   26.4770   41.5930 H   0  0  0  0  0  0  0  0  0  0  0  0
   36.1020   25.1010   42.5340 H   0  0  0  0  0  0  0  0  0  0  0  0
   38.8180   22.6350   40.4370 H   0  0  0  0  0  0  0  0  0  0  0  0
   37.7090   27.5020   42.9350 S   0  0  0  0  0  0  0  0  0  0  0  0
   37.5230   30.2590   42.7410 H   0  0  0  0  0  0  0  0  0  0  0  0
   36.6650   29.9140   42.2920 N   0  0  0  0  0  0  0  0  0  0  0  0
   36.2360   30.6230   41.1210 C   0  0  0  0  0  2  0  0  0  0  0  0
   36.9530   29.9450   39.9740 C   0  0  0  0  0  2  0  0  0  0  0  0
   37.3470   28.5790   40.4560 C   0  0  0  0  0  2  0  0  0  0  0  0
   36.7330   28.5420   41.8270 C   0  0  1  0  0  3  0  0  0  0  0  0
  1  7  1  0  0  0  0
  1  2  1  0  0  0  0
  2 10  1  0  0  0  0
  3  2  2  0  0  0  0
  3  8  1  0  0  0  0
  4  3  1  0  0  0  0
  5  6  1  0  0  0  0
  5  4  2  0  0  0  0
  6  1  2  0  0  0  0
  9  5  1  0  0  0  0
 12 11  1  0  0  0  0
 13 12  1  0  0  0  0
 14 15  1  0  0  0  0
 14 13  1  0  0  0  0
 15 16  1  0  0  0  0
 16 12  1  0  0  0  0
 16 10  1  1  0  0  0
M  END
>  <minimizedAffinity>
-3.39027691

$$$$

 OpenBabel03242517433D

 16 17  0  0  1  0  0  0  0  0999 V2000
   40.7920   31.1720   40.3040 C   0  0  0  0  0  0  0  0  0  0  0  0
   39.7140   31.3670   41.1900 C   0  0  0  0  0  0  0  0  0  0  0  0
   38.8300   32.4210   41.0200 C   0  0  0  0  0  0  0  0  0  0  0  0
   39.0630   33.2490   39.9550 N   0  0  0  0  0  0  0  0  0  0  0  0
   40.0910   33.0500   39.1230 C   0  0  0  0  0  0  0  0  0  0  0  0
   40.9710   32.0340   39.2600 N   0  0  0  0  0  0  0  0  0  0  0  0
   41.4670   30.3460   40.4560 H   0  0  0  0  0  0  0  0  0  0  0  0
   38.0130   32.5790   41.6820 H   0  0  0  0  0  0  0  0  0  0  0  0
   40.2480   33.7280   38.2860 H   0  0  0  0  0  0  0  0  0  0  0  0
   39.4900   30.2220   42.5630 S   0  0  0  0  0  0  0  0  0  0  0  0
   38.3680   28.3330   40.8770 H   0  0  0  0  0  0  0  0  0  0  0  0
   37.5620   28.8410   41.2600 N   0  0  0  0  0  0  0  0  0  0  0  0
   36.4070   28.0500   41.5730 C   0  0  0  0  0  2  0  0  0  0  0  0
   36.6290   27.5890   42.9980 C   0  0  0  0  0  2  0  0  0  0  0  0
   37.6200   28.5360   43.6100 C   0  0  0  0  0  2  0  0  0  0  0  0
   37.8200   29.5360   42.5060 C   0  0  1  0  0  3  0  0  0  0  0  0
  1  7  1  0  0  0  0
  1  2  1  0  0  0  0
  2 10  1  0  0  0  0
  3  2  2  0  0  0  0
  3  8  1  0  0  0  0
  4  3  1  0  0  0  0
  5  6  1  0  0  0  0
  5  4  2  0  0  0  0
  6  1  2  0  0  0  0
  9  5  1  0  0  0  0
 11 12  1  0  0  0  0
 12 13  1  0  0  0  0
 12 16  1  0  0  0  0
 13 14  1  0  0  0  0
 14 15  1  0  0  0  0
 16 10  1  6  0  0  0
 16 15  1  0  0  0  0
M  END
>  <minimizedAffinity>
-3.38707399

$$$$
