
 OpenBabel03242523503D

 40 43  0  0  1  0  0  0  0  0999 V2000
   42.8310   34.5170   38.7480 C   0  0  1  0  0  0  0  0  0  0  0  0
   42.9630   35.1920   40.1170 C   0  0  1  0  0  0  0  0  0  0  0  0
   41.6730   35.4590   40.6180 O   0  0  0  0  0  0  0  0  0  0  0  0
   40.7650   35.8010   39.6150 C   0  0  0  0  0  0  0  0  0  0  0  0
   40.4300   34.5760   38.7640 C   0  0  2  0  0  0  0  0  0  0  0  0
   41.6160   33.6140   38.8710 C   0  0  1  0  0  0  0  0  0  0  0  0
   43.7530   33.9190   38.5360 H   0  0  0  0  0  0  0  0  0  0  0  0
   43.5500   36.1190   40.0590 H   0  0  0  0  0  0  0  0  0  0  0  0
   41.0690   36.6690   39.0250 H   0  0  0  0  0  0  0  0  0  0  0  0
   39.8370   36.0690   40.1520 H   0  0  0  0  0  0  0  0  0  0  0  0
   39.4850   34.1140   39.0500 H   0  0  0  0  0  0  0  0  0  0  0  0
   41.5900   33.2100   39.8960 H   0  0  0  0  0  0  0  0  0  0  0  0
   42.6210   35.4690   37.7520 O   0  0  0  0  0  0  0  0  0  0  0  0
   43.2440   36.2210   37.8460 H   0  0  0  0  0  0  0  0  0  0  0  0
   40.4570   34.9960   37.4150 O   0  0  0  0  0  0  0  0  0  0  0  0
   39.6060   34.7360   36.9690 H   0  0  0  0  0  0  0  0  0  0  0  0
   43.4750   34.2110   40.9770 O   0  0  0  0  0  0  0  0  0  0  0  0
   44.5820   34.3290   41.7150 C   0  0  0  0  0  0  0  0  0  0  0  0
   45.8320   34.4540   41.1130 C   0  0  0  0  0  0  0  0  0  0  0  0
   46.9510   34.5760   41.9230 C   0  0  0  0  0  0  0  0  0  0  0  0
   46.7980   34.5680   43.2930 N   0  0  0  0  0  0  0  0  0  0  0  0
   45.5780   34.4450   43.8420 C   0  0  0  0  0  0  0  0  0  0  0  0
   44.4730   34.3260   43.0650 N   0  0  0  0  0  0  0  0  0  0  0  0
   45.9560   34.4600   40.0450 H   0  0  0  0  0  0  0  0  0  0  0  0
   45.4540   34.4390   44.9180 H   0  0  0  0  0  0  0  0  0  0  0  0
   48.3270   34.6950   41.3250 C   0  0  0  0  0  0  0  0  0  0  0  0
   49.0570   36.0050   41.5040 C   0  0  0  0  0  0  0  0  0  0  0  0
   49.4810   34.6980   42.1850 C   0  0  0  0  0  0  0  0  0  0  0  0
   48.3720   34.2390   40.3150 H   0  0  0  0  0  0  0  0  0  0  0  0
   48.5170   36.7660   42.0700 H   0  0  0  0  0  0  0  0  0  0  0  0
   49.6760   36.3300   40.6470 H   0  0  0  0  0  0  0  0  0  0  0  0
   49.2660   34.7330   43.2930 H   0  0  0  0  0  0  0  0  0  0  0  0
   50.4690   34.2850   41.9360 H   0  0  0  0  0  0  0  0  0  0  0  0
   41.5490   32.6410   37.8930 O   0  0  0  0  0  0  0  0  0  0  0  0
   40.5890   31.9760   40.2160 H   0  0  0  0  0  0  0  0  0  0  0  0
   41.3320   31.3230   39.8390 N   0  0  0  0  0  0  0  0  0  0  0  0
   40.8330   29.9740   40.0700 C   0  0  0  0  0  2  0  0  0  0  0  0
   39.5350   30.0250   39.2820 C   0  0  0  0  0  2  0  0  0  0  0  0
   39.7850   31.0210   38.1620 C   0  0  0  0  0  2  0  0  0  0  0  0
   41.2390   31.3870   38.3730 C   0  0  1  0  0  3  0  0  0  0  0  0
  1  7  1  6  0  0  0
  1  6  1  0  0  0  0
  1  2  1  0  0  0  0
  2  8  1  6  0  0  0
  2  3  1  0  0  0  0
  2 17  1  0  0  0  0
  4 10  1  0  0  0  0
  4  3  1  0  0  0  0
  5  6  1  0  0  0  0
  5 11  1  1  0  0  0
  5  4  1  0  0  0  0
  6 12  1  1  0  0  0
  9  4  1  0  0  0  0
 13 14  1  0  0  0  0
 13  1  1  0  0  0  0
 15  5  1  0  0  0  0
 16 15  1  0  0  0  0
 17 18  1  0  0  0  0
 18 23  1  0  0  0  0
 19 18  2  0  0  0  0
 19 20  1  0  0  0  0
 20 21  2  0  0  0  0
 21 22  1  0  0  0  0
 22 25  1  0  0  0  0
 23 22  2  0  0  0  0
 24 19  1  0  0  0  0
 26 27  1  0  0  0  0
 26 20  1  0  0  0  0
 26 28  1  0  0  0  0
 27 30  1  0  0  0  0
 27 28  1  0  0  0  0
 28 32  1  0  0  0  0
 29 26  1  0  0  0  0
 31 27  1  0  0  0  0
 33 28  1  0  0  0  0
 34  6  1  0  0  0  0
 36 37  1  0  0  0  0
 36 35  1  0  0  0  0
 38 37  1  0  0  0  0
 39 40  1  0  0  0  0
 39 38  1  0  0  0  0
 40 34  1  1  0  0  0
 40 36  1  0  0  0  0
M  END
>  <minimizedAffinity>
-5.92157459

>  <minimizedRMSD>
0.438357592

$$$$
