
 OpenBabel03242523503D

 40 43  0  0  1  0  0  0  0  0999 V2000
   42.8220   34.4840   38.7420 C   0  0  1  0  0  0  0  0  0  0  0  0
   42.9730   35.1740   40.1020 C   0  0  1  0  0  0  0  0  0  0  0  0
   41.6910   35.4640   40.6090 O   0  0  0  0  0  0  0  0  0  0  0  0
   40.7800   35.8060   39.6100 C   0  0  0  0  0  0  0  0  0  0  0  0
   40.4220   34.5750   38.7760 C   0  0  2  0  0  0  0  0  0  0  0  0
   41.5960   33.5990   38.8850 C   0  0  1  0  0  0  0  0  0  0  0  0
   43.7340   33.8720   38.5310 H   0  0  0  0  0  0  0  0  0  0  0  0
   43.5720   36.0920   40.0290 H   0  0  0  0  0  0  0  0  0  0  0  0
   41.0900   36.6620   39.0060 H   0  0  0  0  0  0  0  0  0  0  0  0
   39.8590   36.0920   40.1500 H   0  0  0  0  0  0  0  0  0  0  0  0
   39.4730   34.1290   39.0740 H   0  0  0  0  0  0  0  0  0  0  0  0
   41.5720   33.2080   39.9150 H   0  0  0  0  0  0  0  0  0  0  0  0
   42.6170   35.4270   37.7370 O   0  0  0  0  0  0  0  0  0  0  0  0
   43.2510   36.1720   37.8160 H   0  0  0  0  0  0  0  0  0  0  0  0
   40.4440   34.9780   37.4220 O   0  0  0  0  0  0  0  0  0  0  0  0
   39.5860   34.7240   36.9850 H   0  0  0  0  0  0  0  0  0  0  0  0
   43.4780   34.1970   40.9700 O   0  0  0  0  0  0  0  0  0  0  0  0
   44.5850   34.3150   41.7100 C   0  0  0  0  0  0  0  0  0  0  0  0
   45.8350   34.4470   41.1100 C   0  0  0  0  0  0  0  0  0  0  0  0
   46.9520   34.5690   41.9210 C   0  0  0  0  0  0  0  0  0  0  0  0
   46.7980   34.5550   43.2920 N   0  0  0  0  0  0  0  0  0  0  0  0
   45.5780   34.4250   43.8390 C   0  0  0  0  0  0  0  0  0  0  0  0
   44.4750   34.3050   43.0600 N   0  0  0  0  0  0  0  0  0  0  0  0
   45.9600   34.4580   40.0420 H   0  0  0  0  0  0  0  0  0  0  0  0
   45.4530   34.4130   44.9140 H   0  0  0  0  0  0  0  0  0  0  0  0
   48.3290   34.6950   41.3260 C   0  0  0  0  0  0  0  0  0  0  0  0
   49.0550   36.0060   41.5150 C   0  0  0  0  0  0  0  0  0  0  0  0
   49.4820   34.6950   42.1860 C   0  0  0  0  0  0  0  0  0  0  0  0
   48.3750   34.2470   40.3130 H   0  0  0  0  0  0  0  0  0  0  0  0
   48.5130   36.7620   42.0850 H   0  0  0  0  0  0  0  0  0  0  0  0
   49.6750   36.3390   40.6600 H   0  0  0  0  0  0  0  0  0  0  0  0
   49.2660   34.7230   43.2950 H   0  0  0  0  0  0  0  0  0  0  0  0
   50.4710   34.2860   41.9350 H   0  0  0  0  0  0  0  0  0  0  0  0
   41.5080   32.6150   37.9210 O   0  0  0  0  0  0  0  0  0  0  0  0
   40.3380   32.0800   40.1790 H   0  0  0  0  0  0  0  0  0  0  0  0
   41.0530   31.3640   39.8700 N   0  0  0  0  0  0  0  0  0  0  0  0
   40.4350   30.0630   40.0870 C   0  0  0  0  0  2  0  0  0  0  0  0
   39.2030   30.1940   39.2060 C   0  0  0  0  0  2  0  0  0  0  0  0
   39.6110   31.1420   38.0890 C   0  0  0  0  0  2  0  0  0  0  0  0
   41.0690   31.4000   38.3990 C   0  0  1  0  0  3  0  0  0  0  0  0
  1  7  1  6  0  0  0
  1  6  1  0  0  0  0
  1  2  1  0  0  0  0
  2  8  1  6  0  0  0
  2  3  1  0  0  0  0
  2 17  1  0  0  0  0
  4 10  1  0  0  0  0
  4  3  1  0  0  0  0
  5  6  1  0  0  0  0
  5 11  1  1  0  0  0
  5  4  1  0  0  0  0
  6 12  1  1  0  0  0
  9  4  1  0  0  0  0
 13 14  1  0  0  0  0
 13  1  1  0  0  0  0
 15  5  1  0  0  0  0
 16 15  1  0  0  0  0
 17 18  1  0  0  0  0
 18 23  1  0  0  0  0
 19 18  2  0  0  0  0
 19 20  1  0  0  0  0
 20 21  2  0  0  0  0
 21 22  1  0  0  0  0
 22 25  1  0  0  0  0
 23 22  2  0  0  0  0
 24 19  1  0  0  0  0
 26 27  1  0  0  0  0
 26 20  1  0  0  0  0
 26 28  1  0  0  0  0
 27 30  1  0  0  0  0
 27 28  1  0  0  0  0
 28 32  1  0  0  0  0
 29 26  1  0  0  0  0
 31 27  1  0  0  0  0
 33 28  1  0  0  0  0
 34  6  1  0  0  0  0
 36 37  1  0  0  0  0
 36 35  1  0  0  0  0
 38 37  1  0  0  0  0
 39 40  1  0  0  0  0
 39 38  1  0  0  0  0
 40 34  1  1  0  0  0
 40 36  1  0  0  0  0
M  END
>  <minimizedAffinity>
-5.98081875

>  <minimizedRMSD>
0.740969777

$$$$
