REMARK  Name = 
REMARK  7 active torsions:
REMARK  status: ('A' for Active; 'I' for Inactive)
REMARK    1  A    between atoms: C_1  and  O_10
REMARK    2  A    between atoms: C_3  and  C_7
REMARK    3  A    between atoms: O_10  and  C_12
REMARK    4  A    between atoms: C_11  and  O_17
REMARK    5  A    between atoms: C_15  and  O_18
REMARK    6  A    between atoms: C_16  and  O_19
REMARK    7  A    between atoms: O_19  and  C_40
REMARK                            x       y       z     vdW  Elec       q    Type
REMARK                         _______ _______ _______ _____ _____    ______ ____
ROOT
ATOM      1  C   UNL     1      42.879  34.587  38.641  0.00  0.00    +0.000 C 
ATOM      2  C   UNL     1      42.961  35.164  40.058  0.00  0.00    +0.000 C 
ATOM      3  O   UNL     1      41.656  35.286  40.575  0.00  0.00    +0.000 OA
ATOM      4  C   UNL     1      40.719  35.629  39.600  0.00  0.00    +0.000 C 
ATOM      5  C   UNL     1      40.481  34.450  38.657  0.00  0.00    +0.000 C 
ATOM      6  C   UNL     1      41.741  33.582  38.692  0.00  0.00    +0.000 C 
ATOM      7  H   UNL     1      43.845  34.084  38.386  0.00  0.00    +0.000 HD
ATOM      8  H   UNL     1      43.471  36.137  40.073  0.00  0.00    +0.000 HD
ATOM      9  H   UNL     1      40.949  36.561  39.078  0.00  0.00    +0.000 HD
ATOM     10  H   UNL     1      39.774  35.779  40.154  0.00  0.00    +0.000 HD
ATOM     11  H   UNL     1      39.577  33.892  38.904  0.00  0.00    +0.000 HD
ATOM     12  H   UNL     1      41.752  33.100  39.683  0.00  0.00    +0.000 HD
ENDROOT
BRANCH   1  13
ATOM     13  O   UNL     1      42.588  35.592  37.721  0.00  0.00    +0.000 OA
ATOM     14  H   UNL     1      43.149  36.383  37.873  0.00  0.00    +0.000 HD
ENDBRANCH   1  13
BRANCH   5  15
ATOM     15  O   UNL     1      40.468  34.972  37.344  0.00  0.00    +0.000 OA
ATOM     16  H   UNL     1      39.639  34.679  36.877  0.00  0.00    +0.000 HD
ENDBRANCH   5  15
BRANCH   2  17
ATOM     17  O   UNL     1      43.554  34.165  40.842  0.00  0.00    +0.000 OA
BRANCH  17  18
ATOM     18  C   UNL     1      44.629  34.325  41.619  0.00  0.00    +0.000 A 
ATOM     19  C   UNL     1      45.902  34.434  41.064  0.00  0.00    +0.000 A 
ATOM     20  C   UNL     1      46.985  34.602  41.913  0.00  0.00    +0.000 A 
ATOM     21  N   UNL     1      46.775  34.655  43.275  0.00  0.00    +0.000 NA
ATOM     22  C   UNL     1      45.534  34.546  43.778  0.00  0.00    +0.000 A 
ATOM     23  N   UNL     1      44.464  34.382  42.962  0.00  0.00    +0.000 NA
ATOM     24  H   UNL     1      46.070  34.393  40.003  0.00  0.00    +0.000 HD
ATOM     25  H   UNL     1      45.366  34.587  44.847  0.00  0.00    +0.000 HD
BRANCH  20  26
ATOM     26  C   UNL     1      48.384  34.706  41.368  0.00  0.00    +0.000 C 
ATOM     27  C   UNL     1      49.085  36.039  41.489  0.00  0.00    +0.000 C 
ATOM     28  C   UNL     1      49.499  34.788  42.274  0.00  0.00    +0.000 C 
ATOM     29  H   UNL     1      48.480  34.185  40.394  0.00  0.00    +0.000 HD
ATOM     30  H   UNL     1      48.509  36.826  41.978  0.00  0.00    +0.000 HD
ATOM     31  H   UNL     1      49.736  36.317  40.639  0.00  0.00    +0.000 HD
ATOM     32  H   UNL     1      49.235  34.894  43.367  0.00  0.00    +0.000 HD
ATOM     33  H   UNL     1      50.503  34.378  42.096  0.00  0.00    +0.000 HD
ENDBRANCH  20  26
ENDBRANCH  17  18
ENDBRANCH   2  17
BRANCH   6  34
ATOM     34  O   UNL     1      41.749  32.684  37.643  0.00  0.00    +0.000 OA
BRANCH  34  40
ATOM     35  H   UNL     1      42.340  31.686  39.969  0.00  0.00    +0.000 HD
ATOM     36  N   UNL     1      42.710  31.136  39.144  0.00  0.00    +0.000 NA
ATOM     37  C   UNL     1      42.429  29.738  39.437  0.00  0.00    +0.000 C 
ATOM     38  C   UNL     1      40.916  29.787  39.577  0.00  0.00    +0.000 C 
ATOM     39  C   UNL     1      40.468  30.922  38.671  0.00  0.00    +0.000 C 
ATOM     40  C   UNL     1      41.769  31.364  38.037  0.00  0.00    +0.000 C 
ENDBRANCH  34  40
ENDBRANCH   6  34
TORSDOF 7
