REMARK  Name = 
REMARK  12 active torsions:
REMARK  status: ('A' for Active; 'I' for Inactive)
REMARK    1  A    between atoms: C_1  and  C_2
REMARK    2  A    between atoms: C_1  and  C_12
REMARK    3  A    between atoms: C_3  and  S_8
REMARK    4  A    between atoms: S_8  and  C_9
REMARK    5  A    between atoms: C_9  and  C_10
REMARK    6  A    between atoms: C_10  and  N_11
REMARK    7  A    between atoms: C_12  and  C_13
REMARK    8  A    between atoms: C_16  and  O_18
REMARK    9  A    between atoms: O_18  and  P_20
REMARK   10  A    between atoms: P_20  and  O_21
REMARK   11  A    between atoms: P_20  and  O_22
REMARK   12  A    between atoms: O_22  and  C_42
REMARK                            x       y       z     vdW  Elec       q    Type
REMARK                         _______ _______ _______ _____ _____    ______ ____
ROOT
ATOM      1  C   UNL     1      47.525  34.458  40.770  0.00  0.00    +0.000 C 
ATOM      2  H   UNL     1      46.872  33.827  40.160  0.00  0.00    +0.000 HD
ATOM      3  H   UNL     1      47.744  35.356  40.137  0.00  0.00    +0.000 HD
ENDROOT
BRANCH   1   4
ATOM      4  C   UNL     1      48.781  33.774  41.129  0.00  0.00    +0.000 A 
ATOM      5  C   UNL     1      49.110  32.631  40.416  0.00  0.00    +0.000 A 
ATOM      6  C   UNL     1      50.264  31.924  40.681  0.00  0.00    +0.000 A 
ATOM      7  N   UNL     1      51.070  32.416  41.691  0.00  0.00    +0.000 NA
ATOM      8  C   UNL     1      50.711  33.544  42.370  0.00  0.00    +0.000 A 
ATOM      9  N   UNL     1      49.589  34.194  42.081  0.00  0.00    +0.000 NA
ATOM     10  H   UNL     1      50.534  31.035  40.137  0.00  0.00    +0.000 HD
ATOM     11  H   UNL     1      51.415  33.846  43.144  0.00  0.00    +0.000 HD
BRANCH   5  12
ATOM     12  S   UNL     1      48.020  32.052  39.123  0.00  0.00    +0.000 S 
BRANCH  12  13
ATOM     13  C   UNL     1      48.828  32.165  37.506  0.00  0.00    +0.000 C 
ATOM     14  H   UNL     1      49.909  32.109  37.632  0.00  0.00    +0.000 HD
ATOM     15  H   UNL     1      48.417  31.336  36.885  0.00  0.00    +0.000 HD
BRANCH  13  16
ATOM     16  C   UNL     1      48.493  33.500  36.893  0.00  0.00    +0.000 C 
ATOM     17  H   UNL     1      49.318  34.234  36.993  0.00  0.00    +0.000 HD
ATOM     18  H   UNL     1      47.591  33.922  37.392  0.00  0.00    +0.000 HD
BRANCH  16  19
ATOM     19  N   UNL     1      48.185  33.280  35.511  0.00  0.00    +0.000 NA
ATOM     20  H   UNL     1      48.296  34.163  34.971  0.00  0.00    +0.000 HD
ATOM     21  H   UNL     1      47.227  32.910  35.362  0.00  0.00    +0.000 HD
ENDBRANCH  16  19
ENDBRANCH  13  16
ENDBRANCH  12  13
ENDBRANCH   5  12
ENDBRANCH   1   4
BRANCH   1  22
ATOM     22  C   UNL     1      46.750  34.937  41.948  0.00  0.00    +0.000 C 
ATOM     23  H   UNL     1      46.943  34.201  42.778  0.00  0.00    +0.000 HD
ATOM     24  H   UNL     1      47.109  35.915  42.366  0.00  0.00    +0.000 HD
BRANCH  22  25
ATOM     25  C   UNL     1      45.277  34.928  41.745  0.00  0.00    +0.000 A 
ATOM     26  C   UNL     1      44.441  35.612  42.685  0.00  0.00    +0.000 A 
ATOM     27  S   UNL     1      42.764  35.321  42.023  0.00  0.00    +0.000 S 
ATOM     28  C   UNL     1      43.483  34.309  40.565  0.00  0.00    +0.000 A 
ATOM     29  N   UNL     1      44.598  34.363  40.792  0.00  0.00    +0.000 NA
ATOM     30  H   UNL     1      44.739  36.158  43.559  0.00  0.00    +0.000 HD
BRANCH  28  31
ATOM     31  O   UNL     1      42.694  33.730  39.578  0.00  0.00    +0.000 OA
BRANCH  31  33
ATOM     32  O   UNL     1      40.749  33.994  37.788  0.00  0.00    +0.000 OA
ATOM     33  P   UNL     1      41.784  34.783  38.607  0.00  0.00    +0.000 P 
BRANCH  33  34
ATOM     34  O   UNL     1      40.937  35.832  39.640  0.00  0.00    +0.000 OA
ATOM     35  H   UNL     1      41.081  36.772  39.421  0.00  0.00    +0.000 HD
ENDBRANCH  33  34
BRANCH  33  36
ATOM     36  O   UNL     1      42.781  35.702  37.611  0.00  0.00    +0.000 OA
BRANCH  36  42
ATOM     37  H   UNL     1      44.096  36.047  35.106  0.00  0.00    +0.000 HD
ATOM     38  N   UNL     1      44.374  35.587  35.978  0.00  0.00    +0.000 NA
ATOM     39  C   UNL     1      45.539  34.737  35.888  0.00  0.00    +0.000 C 
ATOM     40  C   UNL     1      45.400  33.696  36.971  0.00  0.00    +0.000 C 
ATOM     41  C   UNL     1      43.913  33.610  37.237  0.00  0.00    +0.000 C 
ATOM     42  C   UNL     1      43.330  34.852  36.654  0.00  0.00    +0.000 C 
ENDBRANCH  36  42
ENDBRANCH  33  36
ENDBRANCH  31  33
ENDBRANCH  28  31
ENDBRANCH  22  25
ENDBRANCH   1  22
TORSDOF 12
