
 OpenBabel03242516413D

 29 30  0  0  1  0  0  0  0  0999 V2000
   49.1010   33.6090   42.7380 C   0  0  0  0  0  0  0  0  0  0  0  0
   49.8980   34.2980   42.4570 H   0  0  0  0  0  0  0  0  0  0  0  0
   49.1060   33.5370   43.8460 H   0  0  0  0  0  0  0  0  0  0  0  0
   47.7880   34.1770   42.2700 C   0  0  0  0  0  0  0  0  0  0  0  0
   47.9290   35.1850   41.8120 H   0  0  0  0  0  0  0  0  0  0  0  0
   47.3160   33.5400   41.4910 H   0  0  0  0  0  0  0  0  0  0  0  0
   44.8400   35.1010   44.4250 C   0  0  0  0  0  0  0  0  0  0  0  0
   45.7420   35.0540   43.3320 C   0  0  0  0  0  0  0  0  0  0  0  0
   46.8490   34.2210   43.4160 C   0  0  0  0  0  0  0  0  0  0  0  0
   47.0300   33.4870   44.5310 N   0  0  0  0  0  0  0  0  0  0  0  0
   46.1510   33.5520   45.5610 C   0  0  0  0  0  0  0  0  0  0  0  0
   45.0660   34.3530   45.5060 N   0  0  0  0  0  0  0  0  0  0  0  0
   43.7150   35.9230   44.3680 N   0  0  0  0  0  0  0  0  0  0  0  0
   45.5390   35.6670   42.4700 H   0  0  0  0  0  0  0  0  0  0  0  0
   46.3950   32.9190   46.4060 H   0  0  0  0  0  0  0  0  0  0  0  0
   43.8690   36.9110   44.0590 H   0  0  0  0  0  0  0  0  0  0  0  0
   42.7920   35.4780   44.6420 H   0  0  0  0  0  0  0  0  0  0  0  0
   49.2220   32.3160   42.2650 O   0  0  0  0  0  0  0  0  0  0  0  0
   51.3860   30.9700   42.8320 O   0  0  0  0  0  0  0  0  0  0  0  0
   50.8150   31.9470   41.8310 P   0  0  2  0  0  0  0  0  0  0  0  0
   51.6710   33.3920   41.8240 O   0  0  0  0  0  0  0  0  0  0  0  0
   51.6150   33.8930   41.0030 H   0  0  0  0  0  0  0  0  0  0  0  0
   50.8440   31.3300   40.2750 O   0  0  0  0  0  0  0  0  0  0  0  0
   52.9680   31.7240   41.4050 H   0  0  0  0  0  0  0  0  0  0  0  0
   53.1860   31.4730   40.4330 N   0  0  0  0  0  0  0  0  0  0  0  0
   53.8480   30.2260   40.2230 C   0  0  0  0  0  0  0  0  0  0  0  0
   53.5230   29.7730   38.8390 C   0  0  0  0  0  0  0  0  0  0  0  0
   52.1410   30.3390   38.6100 C   0  0  0  0  0  0  0  0  0  0  0  0
   52.0020   31.5060   39.5720 C   0  0  1  0  0  0  0  0  0  0  0  0
  1  3  1  0  0  0  0
  2  1  1  0  0  0  0
  4  1  1  0  0  0  0
  4  9  1  0  0  0  0
  5  4  1  0  0  0  0
  6  4  1  0  0  0  0
  7 12  1  0  0  0  0
  8  9  1  0  0  0  0
  8  7  2  0  0  0  0
  9 10  2  0  0  0  0
 10 11  1  0  0  0  0
 11 15  1  0  0  0  0
 12 11  2  0  0  0  0
 13  7  1  0  0  0  0
 13 17  1  0  0  0  0
 14  8  1  0  0  0  0
 16 13  1  0  0  0  0
 18  1  1  0  0  0  0
 20 18  1  0  0  0  0
 20 19  2  1  0  0  0
 21 20  1  0  0  0  0
 22 21  1  0  0  0  0
 23 20  1  0  0  0  0
 25 24  1  0  0  0  0
 26 25  1  0  0  0  0
 27 26  1  0  0  0  0
 28 27  1  0  0  0  0
 28 29  1  0  0  0  0
 29 23  1  1  0  0  0
 29 25  1  0  0  0  0
M  END
>  <minimizedAffinity>
-4.60745955

>  <minimizedRMSD>
1.41665661

$$$$
