
 OpenBabel03242518283D

 18 19  0  0  1  0  0  0  0  0999 V2000
   45.7550   34.0470   43.8970 C   0  0  0  0  0  0  0  0  0  0  0  0
   45.7350   33.8960   42.5060 C   0  0  0  0  0  0  0  0  0  0  0  0
   44.9890   34.8270   41.7640 C   0  0  0  0  0  0  0  0  0  0  0  0
   44.3370   35.8100   42.4190 N   0  0  0  0  0  0  0  0  0  0  0  0
   44.3890   35.9120   43.7740 C   0  0  0  0  0  0  0  0  0  0  0  0
   45.0960   35.0320   44.4990 N   0  0  0  0  0  0  0  0  0  0  0  0
   46.2340   33.1370   41.9540 H   0  0  0  0  0  0  0  0  0  0  0  0
   44.9590   34.7270   40.6770 H   0  0  0  0  0  0  0  0  0  0  0  0
   43.8470   36.7210   44.2510 H   0  0  0  0  0  0  0  0  0  0  0  0
   46.5370   33.0570   44.5640 C   0  0  0  0  0  0  0  0  0  0  0  0
   47.6760   32.6460   44.2560 O   0  0  0  0  0  0  0  0  0  0  0  0
   45.9270   32.5040   45.6920 O   0  0  0  0  0  0  0  0  0  0  0  0
   44.0890   33.0770   47.2560 H   0  0  0  0  0  0  0  0  0  0  0  0
   44.9580   32.9500   47.8160 N   0  0  0  0  0  0  0  0  0  0  0  0
   44.9390   31.7530   48.6180 C   0  0  0  0  0  0  0  0  0  0  0  0
   46.4040   31.5590   48.9300 C   0  0  0  0  0  0  0  0  0  0  0  0
   47.1670   32.0860   47.7590 C   0  0  0  0  0  0  0  0  0  0  0  0
   46.1550   32.9130   47.0120 C   0  0  1  0  0  0  0  0  0  0  0  0
  1  6  1  0  0  0  0
  1 10  1  0  0  0  0
  2  1  2  0  0  0  0
  3  4  2  0  0  0  0
  3  2  1  0  0  0  0
  4  5  1  0  0  0  0
  5  9  1  0  0  0  0
  5  6  2  0  0  0  0
  7  2  1  0  0  0  0
  8  3  1  0  0  0  0
 10 12  1  0  0  0  0
 11 10  2  0  0  0  0
 13 14  1  0  0  0  0
 14 15  1  0  0  0  0
 15 16  1  0  0  0  0
 17 16  1  0  0  0  0
 18 12  1  6  0  0  0
 18 17  1  0  0  0  0
 18 14  1  0  0  0  0
M  END
>  <minimizedAffinity>
-4.13087606

>  <minimizedRMSD>
6.47440863

$$$$
