
 OpenBabel03252504223D

 29 32  0  0  1  0  0  0  0  0999 V2000
   47.6860   33.5070   40.0990 C   0  0  0  0  0  0  0  0  0  0  0  0
   49.0270   33.2220   40.3550 C   0  0  0  0  0  0  0  0  0  0  0  0
   49.4930   33.2910   41.6930 C   0  0  0  0  0  0  0  0  0  0  0  0
   48.5800   33.6390   42.6500 N   0  0  0  0  0  0  0  0  0  0  0  0
   47.2870   33.9080   42.3540 C   0  0  0  0  0  0  0  0  0  0  0  0
   46.8570   33.8410   41.0950 N   0  0  0  0  0  0  0  0  0  0  0  0
   46.4060   34.2620   43.4190 N   0  0  0  0  0  0  0  0  0  0  0  0
   45.4990   35.2490   43.4160 C   0  0  0  0  0  0  0  0  0  0  0  0
   44.8670   35.2560   44.6210 N   0  0  0  0  0  0  0  0  0  0  0  0
   45.4010   34.2710   45.3410 C   0  0  0  0  0  0  0  0  0  0  0  0
   45.1940   33.7820   46.6080 C   0  0  0  0  0  0  0  0  0  0  0  0
   45.8660   32.7650   47.1190 N   0  0  0  0  0  0  0  0  0  0  0  0
   46.8250   32.1240   46.4080 C   0  0  0  0  0  0  0  0  0  0  0  0
   47.0320   32.5980   45.1670 N   0  0  0  0  0  0  0  0  0  0  0  0
   46.3780   33.6240   44.6060 C   0  0  0  0  0  0  0  0  0  0  0  0
   49.7390   32.9490   39.6000 H   0  0  0  0  0  0  0  0  0  0  0  0
   50.5180   33.0810   41.9550 H   0  0  0  0  0  0  0  0  0  0  0  0
   45.2600   35.9510   42.6290 H   0  0  0  0  0  0  0  0  0  0  0  0
   47.4040   31.2880   46.7770 H   0  0  0  0  0  0  0  0  0  0  0  0
   44.2280   34.3460   47.4780 N   0  0  0  0  0  0  0  0  0  0  0  0
   43.5500   33.7420   48.0040 H   0  0  0  0  0  0  0  0  0  0  0  0
   44.1110   35.3750   47.6650 H   0  0  0  0  0  0  0  0  0  0  0  0
   47.2230   33.3830   38.3750 S   0  0  0  0  0  0  0  0  0  0  0  0
   45.9840   30.9390   39.6820 H   0  0  0  0  0  0  0  0  0  0  0  0
   45.3590   31.6800   39.3530 N   0  0  0  0  0  0  0  0  0  0  0  0
   44.0530   31.1430   38.9580 C   0  0  0  0  0  2  0  0  0  0  0  0
   43.4130   32.2250   38.1510 C   0  0  0  0  0  2  0  0  0  0  0  0
   44.5470   33.1580   37.7850 C   0  0  0  0  0  2  0  0  0  0  0  0
   45.7630   32.3440   38.1550 C   0  0  1  0  0  3  0  0  0  0  0  0
  1  2  2  0  0  0  0
  1  6  1  0  0  0  0
  2  3  1  0  0  0  0
  3 17  1  0  0  0  0
  3  4  2  0  0  0  0
  5  4  1  0  0  0  0
  5  7  1  0  0  0  0
  6  5  2  0  0  0  0
  7 15  1  0  0  0  0
  8  7  1  0  0  0  0
  8  9  2  0  0  0  0
  9 10  1  0  0  0  0
 10 11  1  0  0  0  0
 11 12  2  0  0  0  0
 11 20  1  0  0  0  0
 13 19  1  0  0  0  0
 13 12  1  0  0  0  0
 14 13  2  0  0  0  0
 15 14  1  0  0  0  0
 15 10  2  0  0  0  0
 16  2  1  0  0  0  0
 18  8  1  0  0  0  0
 20 22  1  0  0  0  0
 20 21  1  0  0  0  0
 23  1  1  0  0  0  0
 25 24  1  0  0  0  0
 26 25  1  0  0  0  0
 27 26  1  0  0  0  0
 28 27  1  0  0  0  0
 28 29  1  0  0  0  0
 29 23  1  1  0  0  0
 29 25  1  0  0  0  0
M  END
>  <minimizedAffinity>
-5.35846186

>  <minimizedRMSD>
1.32262909

$$$$
