
 OpenBabel03252504223D

 29 32  0  0  1  0  0  0  0  0999 V2000
   47.6910   33.5470   40.1280 C   0  0  0  0  0  0  0  0  0  0  0  0
   49.0310   33.2590   40.3840 C   0  0  0  0  0  0  0  0  0  0  0  0
   49.4950   33.3180   41.7230 C   0  0  0  0  0  0  0  0  0  0  0  0
   48.5800   33.6590   42.6810 N   0  0  0  0  0  0  0  0  0  0  0  0
   47.2880   33.9310   42.3860 C   0  0  0  0  0  0  0  0  0  0  0  0
   46.8600   33.8730   41.1260 N   0  0  0  0  0  0  0  0  0  0  0  0
   46.4050   34.2770   43.4520 N   0  0  0  0  0  0  0  0  0  0  0  0
   45.4990   35.2640   43.4540 C   0  0  0  0  0  0  0  0  0  0  0  0
   44.8650   35.2630   44.6590 N   0  0  0  0  0  0  0  0  0  0  0  0
   45.3980   34.2720   45.3720 C   0  0  0  0  0  0  0  0  0  0  0  0
   45.1880   33.7740   46.6350 C   0  0  0  0  0  0  0  0  0  0  0  0
   45.8590   32.7530   47.1400 N   0  0  0  0  0  0  0  0  0  0  0  0
   46.8190   32.1160   46.4250 C   0  0  0  0  0  0  0  0  0  0  0  0
   47.0280   32.6000   45.1880 N   0  0  0  0  0  0  0  0  0  0  0  0
   46.3760   33.6310   44.6340 C   0  0  0  0  0  0  0  0  0  0  0  0
   49.7450   32.9910   39.6280 H   0  0  0  0  0  0  0  0  0  0  0  0
   50.5190   33.1060   41.9860 H   0  0  0  0  0  0  0  0  0  0  0  0
   45.2610   35.9720   42.6730 H   0  0  0  0  0  0  0  0  0  0  0  0
   47.3960   31.2780   46.7890 H   0  0  0  0  0  0  0  0  0  0  0  0
   44.2210   34.3310   47.5080 N   0  0  0  0  0  0  0  0  0  0  0  0
   43.5410   33.7240   48.0280 H   0  0  0  0  0  0  0  0  0  0  0  0
   44.1040   35.3590   47.7030 H   0  0  0  0  0  0  0  0  0  0  0  0
   47.2300   33.4360   38.4030 S   0  0  0  0  0  0  0  0  0  0  0  0
   45.1450   33.1650   36.2130 H   0  0  0  0  0  0  0  0  0  0  0  0
   45.2850   32.3740   36.8470 N   0  0  0  0  0  0  0  0  0  0  0  0
   44.0530   31.5960   37.0130 C   0  0  0  0  0  2  0  0  0  0  0  0
   44.2830   30.7550   38.2260 C   0  0  0  0  0  2  0  0  0  0  0  0
   45.4670   31.3920   38.9220 C   0  0  0  0  0  2  0  0  0  0  0  0
   45.5880   32.7130   38.2010 C   0  0  1  0  0  3  0  0  0  0  0  0
  1  2  2  0  0  0  0
  1  6  1  0  0  0  0
  2  3  1  0  0  0  0
  3 17  1  0  0  0  0
  3  4  2  0  0  0  0
  5  4  1  0  0  0  0
  5  7  1  0  0  0  0
  6  5  2  0  0  0  0
  7  8  1  0  0  0  0
  7 15  1  0  0  0  0
  8  9  2  0  0  0  0
  9 10  1  0  0  0  0
 10 11  1  0  0  0  0
 11 12  2  0  0  0  0
 11 20  1  0  0  0  0
 13 19  1  0  0  0  0
 13 12  1  0  0  0  0
 14 13  2  0  0  0  0
 15 14  1  0  0  0  0
 15 10  2  0  0  0  0
 16  2  1  0  0  0  0
 18  8  1  0  0  0  0
 20 22  1  0  0  0  0
 20 21  1  0  0  0  0
 23  1  1  0  0  0  0
 24 25  1  0  0  0  0
 25 26  1  0  0  0  0
 25 29  1  0  0  0  0
 26 27  1  0  0  0  0
 27 28  1  0  0  0  0
 29 23  1  6  0  0  0
 29 28  1  0  0  0  0
M  END
>  <minimizedAffinity>
-5.3341732

>  <minimizedRMSD>
0.850341499

$$$$
