
 OpenBabel03242520483D

 16 17  0  0  1  0  0  0  0  0999 V2000
   44.6630   36.2020   44.4940 C   0  0  0  0  0  0  0  0  0  0  0  0
   45.2650   36.1360   43.2260 C   0  0  0  0  0  0  0  0  0  0  0  0
   45.9360   34.9600   42.8690 C   0  0  0  0  0  0  0  0  0  0  0  0
   45.9670   33.9520   43.7650 N   0  0  0  0  0  0  0  0  0  0  0  0
   45.3800   34.0330   44.9840 C   0  0  0  0  0  0  0  0  0  0  0  0
   44.7270   35.1730   45.3350 N   0  0  0  0  0  0  0  0  0  0  0  0
   44.1500   37.1220   44.7460 H   0  0  0  0  0  0  0  0  0  0  0  0
   45.2430   36.9310   42.5130 H   0  0  0  0  0  0  0  0  0  0  0  0
   45.4600   33.1630   45.6390 H   0  0  0  0  0  0  0  0  0  0  0  0
   46.5680   34.7640   41.6590 O   0  0  0  0  0  0  0  0  0  0  0  0
   49.4190   34.3370   40.2900 H   0  0  0  0  0  0  0  0  0  0  0  0
   48.5870   34.9240   40.5360 N   0  0  0  0  0  0  0  0  0  0  0  0
   49.1200   36.0180   41.3670 C   0  0  0  0  0  0  0  0  0  0  0  0
   49.7750   35.1920   42.4620 C   0  0  0  0  0  0  0  0  0  0  0  0
   48.6350   34.2520   42.8150 C   0  0  0  0  0  0  0  0  0  0  0  0
   47.8360   34.1790   41.5320 C   0  0  1  0  0  0  0  0  0  0  0  0
  1  7  1  0  0  0  0
  1  6  1  0  0  0  0
  2  1  2  0  0  0  0
  3  2  1  0  0  0  0
  3  4  2  0  0  0  0
  4  5  1  0  0  0  0
  5  6  2  0  0  0  0
  5  9  1  0  0  0  0
  8  2  1  0  0  0  0
 10  3  1  0  0  0  0
 11 12  1  0  0  0  0
 12 13  1  0  0  0  0
 12 16  1  0  0  0  0
 13 14  1  0  0  0  0
 14 15  1  0  0  0  0
 16 10  1  1  0  0  0
 16 15  1  0  0  0  0
M  END
>  <minimizedAffinity>
-4.5831728

>  <minimizedRMSD>
1.73732603

$$$$
