
     RDKit          3D

 36 39  0  0  0  0  0  0  0  0999 V2000
   47.6964   33.4934   40.1237 C   0  0  0  0  0  0  0  0  0  0  0  0
   49.0380   33.2135   40.3808 C   0  0  0  0  0  0  0  0  0  0  0  0
   49.5037   33.2875   41.7186 C   0  0  0  0  0  0  0  0  0  0  0  0
   48.5885   33.6336   42.6746 N   0  0  0  0  0  0  0  0  0  0  0  0
   47.2946   33.8969   42.3786 C   0  0  0  0  0  0  0  0  0  0  0  0
   46.8647   33.8254   41.1203 N   0  0  0  0  0  0  0  0  0  0  0  0
   46.4123   34.2490   43.4430 N   0  0  0  0  0  0  0  0  0  0  0  0
   45.5005   35.2320   43.4373 C   0  0  0  0  0  0  0  0  0  0  0  0
   44.8689   35.2385   44.6419 N   0  0  0  0  0  0  0  0  0  0  0  0
   45.4071   34.2576   45.3635 C   0  0  0  0  0  0  0  0  0  0  0  0
   45.2020   33.7709   46.6323 C   0  0  0  0  0  0  0  0  0  0  0  0
   45.8783   32.7576   47.1459 N   0  0  0  0  0  0  0  0  0  0  0  0
   46.8403   32.1194   46.4364 C   0  0  0  0  0  0  0  0  0  0  0  0
   47.0453   32.5918   45.1942 N   0  0  0  0  0  0  0  0  0  0  0  0
   46.3866   33.6137   44.6310 C   0  0  0  0  0  0  0  0  0  0  0  0
   44.2328   34.3320   47.5011 N   0  0  0  0  0  0  0  0  0  0  0  0
   47.2340   33.3632   38.4008 S   0  0  0  0  0  0  0  0  0  0  0  0
   49.7520   32.9422   39.6268 H   0  0  0  0  0  0  0  0  0  0  0  0
   50.5285   33.0830   41.9816 H   0  0  0  0  0  0  0  0  0  0  0  0
   45.2589   35.9308   42.6493 H   0  0  0  0  0  0  0  0  0  0  0  0
   47.4221   31.2870   46.8073 H   0  0  0  0  0  0  0  0  0  0  0  0
   43.5568   33.7272   48.0281 H   0  0  0  0  0  0  0  0  0  0  0  0
   44.1115   35.3614   47.6858 H   0  0  0  0  0  0  0  0  0  0  0  0
   45.0356   32.6797   36.4213 H   0  0  0  0  0  0  0  0  0  0  0  0
   44.7887   32.7538   37.4117 N   0  0  0  0  0  0  0  0  0  0  0  0
   43.3979   33.1867   37.5851 C   0  0  0  0  0  0  0  0  0  0  0  0
   43.3009   33.6266   39.0099 C   0  0  0  0  0  0  0  0  0  0  0  0
   44.7354   33.8059   39.4594 C   0  0  0  0  0  0  0  0  0  0  0  0
   45.4892   33.7537   38.1518 C   0  0  1  0  0  0  0  0  0  0  0  0
   43.2798   34.0836   36.9412 H   0  0  0  0  0  0  0  0  0  0  0  0
   42.7125   32.3553   37.3222 H   0  0  0  0  0  0  0  0  0  0  0  0
   42.7810   32.8936   39.6613 H   0  0  0  0  0  0  0  0  0  0  0  0
   42.7914   34.6073   39.1084 H   0  0  0  0  0  0  0  0  0  0  0  0
   44.8960   34.7667   39.9918 H   0  0  0  0  0  0  0  0  0  0  0  0
   45.0089   32.9220   40.1022 H   0  0  0  0  0  0  0  0  0  0  0  0
   45.3533   34.7274   37.6672 H   0  0  0  0  0  0  0  0  0  0  0  0
  1  2  2  0
  1  6  1  0
  2  3  1  0
  3  4  2  0
  5  4  1  0
  5  7  1  0
  6  5  2  0
  7 15  1  0
  8  7  1  0
  8  9  2  0
  9 10  1  0
 10 11  2  0
 11 12  1  0
 11 16  1  0
 13 12  2  0
 14 13  1  0
 15 14  2  0
 15 10  1  0
 17  1  1  0
  2 18  1  0
  3 19  1  0
  8 20  1  0
 13 21  1  0
 16 22  1  0
 16 23  1  0
 24 25  1  0
 25 26  1  0
 26 27  1  0
 27 28  1  0
 28 29  1  0
 29 25  1  0
 26 30  1  0
 26 31  1  0
 27 32  1  0
 27 33  1  0
 28 34  1  0
 28 35  1  0
 29 36  1  6
 17 29  1  0
M  ISO  5  18  14  19  14  20  14  21  14  24   5
M  END
>  <DihAtoms>  (1) 
0,16,28,27

>  <DihDeg>  (1) 
-177.5267270811157

$$$$
