
 OpenBabel03252509143D

 45 49  0  0  1  0  0  0  0  0999 V2000
   49.0840   33.0680   40.8480 S   0  0  0  0  0  0  0  0  0  0  0  0
   50.8310   29.9510   38.8600 C   0  0  0  0  0  0  0  0  0  0  0  0
   50.0590   31.0640   39.1930 C   0  0  0  0  0  0  0  0  0  0  0  0
   50.0730   31.6540   40.4470 C   0  0  0  0  0  0  0  0  0  0  0  0
   50.9030   31.1110   41.4420 C   0  0  0  0  0  0  0  0  0  0  0  0
   51.1740   31.3990   42.7300 N   0  0  0  0  0  0  0  0  0  0  0  0
   52.0730   30.5240   43.2130 C   0  0  0  0  0  0  0  0  0  0  0  0
   52.3510   29.6880   42.1960 N   0  0  0  0  0  0  0  0  0  0  0  0
   51.6530   30.0170   41.0930 C   0  0  0  0  0  0  0  0  0  0  0  0
   51.6570   29.4080   39.8450 C   0  0  0  0  0  0  0  0  0  0  0  0
   50.7600   29.5600   37.8710 H   0  0  0  0  0  0  0  0  0  0  0  0
   50.7310   32.2040   43.2620 H   0  0  0  0  0  0  0  0  0  0  0  0
   52.4950   30.4860   44.2130 H   0  0  0  0  0  0  0  0  0  0  0  0
   52.2610   28.5510   39.6160 H   0  0  0  0  0  0  0  0  0  0  0  0
   47.2250   31.5550   36.9220 C   0  0  0  0  0  0  0  0  0  0  0  0
   47.5690   32.7340   36.2500 C   0  0  0  0  0  0  0  0  0  0  0  0
   48.7750   33.3510   36.5830 C   0  0  0  0  0  0  0  0  0  0  0  0
   49.5640   32.7870   37.5420 N   0  0  0  0  0  0  0  0  0  0  0  0
   49.1880   31.6440   38.1670 C   0  0  0  0  0  0  0  0  0  0  0  0
   48.0290   31.0050   37.8820 N   0  0  0  0  0  0  0  0  0  0  0  0
   46.2840   31.1270   36.6230 H   0  0  0  0  0  0  0  0  0  0  0  0
   46.9540   33.1760   35.5000 H   0  0  0  0  0  0  0  0  0  0  0  0
   49.1400   34.2600   36.1300 H   0  0  0  0  0  0  0  0  0  0  0  0
   46.5750   32.7590   40.0930 N   0  0  0  0  0  0  0  0  0  0  0  0
   47.3810   32.6540   41.2970 C   0  0  1  0  0  0  0  0  0  0  0  0
   47.4320   31.2090   41.8100 C   0  0  0  0  0  0  0  0  0  0  0  0
   46.2110   30.5680   41.7590 O   0  0  0  0  0  0  0  0  0  0  0  0
   45.1290   31.3740   41.4850 C   0  0  0  0  0  0  0  0  0  0  0  0
   45.3550   32.0390   40.1530 C   0  0  1  0  0  0  0  0  0  0  0  0
   46.5250   33.7540   39.8550 H   0  0  0  0  0  0  0  0  0  0  0  0
   46.9830   33.2860   42.0930 H   0  0  0  0  0  0  0  0  0  0  0  0
   48.2190   30.6630   41.2480 H   0  0  0  0  0  0  0  0  0  0  0  0
   47.6950   31.2170   42.8620 H   0  0  0  0  0  0  0  0  0  0  0  0
   45.0630   32.1440   42.2770 H   0  0  0  0  0  0  0  0  0  0  0  0
   44.2380   30.7510   41.4540 H   0  0  0  0  0  0  0  0  0  0  0  0
   45.4020   31.2360   39.3860 H   0  0  0  0  0  0  0  0  0  0  0  0
   43.9100   33.9620   40.8630 C   0  0  2  0  0  3  0  0  0  0  0  0
   44.1330   32.8490   39.8410 C   0  0  2  0  0  3  0  0  0  0  0  0
   42.9370   32.1900   39.9110 O   0  0  0  0  0  0  0  0  0  0  0  0
   42.0170   33.2150   39.7050 C   0  0  0  0  0  2  0  0  0  0  0  0
   42.5620   34.4690   40.3320 C   0  0  2  0  0  3  0  0  0  0  0  0
   44.8650   34.9480   40.8110 O   0  0  0  0  0  0  0  0  0  0  0  0
   45.5920   34.7280   41.4640 H   0  0  0  0  0  0  0  0  0  0  0  0
   42.9090   35.3800   39.3080 O   0  0  0  0  0  0  0  0  0  0  0  0
   42.7470   34.9610   38.4240 H   0  0  0  0  0  0  0  0  0  0  0  0
  1 25  1  0  0  0  0
  2  3  2  0  0  0  0
  2 10  1  0  0  0  0
  3  4  1  0  0  0  0
  4  1  1  0  0  0  0
  4  5  2  0  0  0  0
  5  6  1  0  0  0  0
  6  7  1  0  0  0  0
  6 12  1  0  0  0  0
  7 13  1  0  0  0  0
  8  7  2  0  0  0  0
  9  5  1  0  0  0  0
  9  8  1  0  0  0  0
 10  9  2  0  0  0  0
 11  2  1  0  0  0  0
 14 10  1  0  0  0  0
 15 20  1  0  0  0  0
 16 17  1  0  0  0  0
 16 15  2  0  0  0  0
 17 18  2  0  0  0  0
 18 19  1  0  0  0  0
 19  3  1  0  0  0  0
 20 19  2  0  0  0  0
 21 15  1  0  0  0  0
 22 16  1  0  0  0  0
 23 17  1  0  0  0  0
 24 29  1  0  0  0  0
 24 25  1  0  0  0  0
 25 26  1  0  0  0  0
 25 31  1  1  0  0  0
 26 33  1  0  0  0  0
 27 26  1  0  0  0  0
 28 27  1  0  0  0  0
 28 34  1  0  0  0  0
 29 36  1  6  0  0  0
 29 28  1  0  0  0  0
 30 24  1  0  0  0  0
 32 26  1  0  0  0  0
 35 28  1  0  0  0  0
 37 42  1  6  0  0  0
 38 39  1  1  0  0  0
 38 29  1  0  0  0  0
 38 37  1  0  0  0  0
 40 39  1  0  0  0  0
 40 41  1  0  0  0  0
 41 44  1  6  0  0  0
 41 37  1  0  0  0  0
 42 43  1  0  0  0  0
 45 44  1  0  0  0  0
M  END
>  <minimizedAffinity>
-3.96175075

>  <minimizedRMSD>
6.13807678

$$$$
