
 OpenBabel03242510093D

 28 30  0  0  1  0  0  0  0  0999 V2000
   44.6390   33.1730   41.1150 Br  0  0  0  0  0  0  0  0  0  0  0  0
   46.3400   34.0310   40.8960 C   0  0  0  0  0  0  0  0  0  0  0  0
   46.8770   34.7750   41.9320 C   0  0  0  0  0  0  0  0  0  0  0  0
   48.1080   35.4010   41.7850 C   0  0  0  0  0  0  0  0  0  0  0  0
   48.7690   35.2600   40.5960 C   0  0  0  0  0  0  0  0  0  0  0  0
   48.2100   34.5170   39.5900 C   0  0  0  0  0  0  0  0  0  0  0  0
   47.0060   33.8900   39.7010 C   0  0  0  0  0  0  0  0  0  0  0  0
   48.5360   35.9800   42.5760 H   0  0  0  0  0  0  0  0  0  0  0  0
   49.7310   35.7390   40.4560 H   0  0  0  0  0  0  0  0  0  0  0  0
   48.7530   34.4220   38.6620 H   0  0  0  0  0  0  0  0  0  0  0  0
   45.6430   34.0230   45.2850 C   0  0  0  0  0  0  0  0  0  0  0  0
   44.7220   35.0680   45.5380 C   0  0  0  0  0  0  0  0  0  0  0  0
   44.5420   36.0260   44.5310 C   0  0  0  0  0  0  0  0  0  0  0  0
   45.2560   35.8930   43.3900 N   0  0  0  0  0  0  0  0  0  0  0  0
   46.1280   34.8870   43.1700 C   0  0  0  0  0  0  0  0  0  0  0  0
   46.3160   33.9490   44.1330 N   0  0  0  0  0  0  0  0  0  0  0  0
   45.7220   33.3280   46.1090 H   0  0  0  0  0  0  0  0  0  0  0  0
   44.1550   35.1750   46.4460 H   0  0  0  0  0  0  0  0  0  0  0  0
   43.8730   36.8670   44.6030 H   0  0  0  0  0  0  0  0  0  0  0  0
   46.8750   31.6560   38.5860 C   0  0  1  0  0  3  0  0  0  0  0  0
   46.3990   33.0950   38.6380 C   0  0  2  0  0  3  0  0  0  0  0  0
   46.6770   33.5040   37.3440 O   0  0  0  0  0  0  0  0  0  0  0  0
   45.9640   32.5330   36.6060 C   0  0  0  0  0  2  0  0  0  0  0  0
   46.1870   31.2220   37.2940 C   0  0  2  0  0  3  0  0  0  0  0  0
   48.2450   31.5830   38.3170 O   0  0  0  0  0  0  0  0  0  0  0  0
   48.4430   31.7560   37.3620 H   0  0  0  0  0  0  0  0  0  0  0  0
   44.9720   30.6290   37.6630 O   0  0  0  0  0  0  0  0  0  0  0  0
   44.3080   31.3220   37.8340 H   0  0  0  0  0  0  0  0  0  0  0  0
  2  1  1  0  0  0  0
  2  3  1  0  0  0  0
  3 15  1  0  0  0  0
  4  3  2  0  0  0  0
  4  8  1  0  0  0  0
  5  4  1  0  0  0  0
  6  7  1  0  0  0  0
  6  5  2  0  0  0  0
  7  2  2  0  0  0  0
  9  5  1  0  0  0  0
 10  6  1  0  0  0  0
 11 12  1  0  0  0  0
 11 17  1  0  0  0  0
 12 18  1  0  0  0  0
 13 19  1  0  0  0  0
 13 12  2  0  0  0  0
 14 13  1  0  0  0  0
 15 14  2  0  0  0  0
 15 16  1  0  0  0  0
 16 11  2  0  0  0  0
 20 25  1  6  0  0  0
 20 21  1  0  0  0  0
 21  7  1  1  0  0  0
 22 21  1  0  0  0  0
 23 24  1  0  0  0  0
 23 22  1  0  0  0  0
 24 27  1  1  0  0  0
 24 20  1  0  0  0  0
 26 25  1  0  0  0  0
 27 28  1  0  0  0  0
M  END
>  <minimizedAffinity>
-5.65642214

>  <minimizedRMSD>
0.132073686

$$$$
