
 OpenBabel03252507143D

 42 44  0  0  1  0  0  0  0  0999 V2000
   37.5050   26.9390   41.0010 C   0  0  2  0  0  0  0  0  0  0  0  0
   37.1630   26.0150   39.8940 C   0  0  0  0  0  0  0  0  0  0  0  0
   37.9150   24.7390   40.0090 C   0  0  0  0  0  0  0  0  0  0  0  0
   37.5920   23.9920   41.1320 O   0  0  0  0  0  0  0  0  0  0  0  0
   37.0560   24.7850   42.1240 C   0  0  0  0  0  0  0  0  0  0  0  0
   37.8290   26.0980   42.2110 C   0  0  1  0  0  0  0  0  0  0  0  0
   38.4190   27.5150   40.6820 H   0  0  0  0  0  0  0  0  0  0  0  0
   36.0760   25.7570   39.8700 H   0  0  0  0  0  0  0  0  0  0  0  0
   37.3750   26.4440   38.8770 H   0  0  0  0  0  0  0  0  0  0  0  0
   38.9760   24.7580   39.7420 H   0  0  0  0  0  0  0  0  0  0  0  0
   37.4790   24.0980   39.1670 H   0  0  0  0  0  0  0  0  0  0  0  0
   35.9850   25.0550   41.8880 H   0  0  0  0  0  0  0  0  0  0  0  0
   37.0770   24.3350   43.1150 H   0  0  0  0  0  0  0  0  0  0  0  0
   37.1710   26.5910   43.0110 H   0  0  0  0  0  0  0  0  0  0  0  0
   39.7760   25.0140   43.5610 C   0  0  2  0  0  3  0  0  0  0  0  0
   39.1170   26.0630   42.8450 C   0  0  1  0  0  3  0  0  0  0  0  0
   40.1670   26.6070   42.0500 O   0  0  0  0  0  0  0  0  0  0  0  0
   41.1420   26.8470   43.0520 C   0  0  0  0  0  2  0  0  0  0  0  0
   41.2560   25.4270   43.5630 C   0  0  2  0  0  3  0  0  0  0  0  0
   39.7860   23.7160   43.1740 O   0  0  0  0  0  0  0  0  0  0  0  0
   40.1490   23.5090   42.2990 H   0  0  0  0  0  0  0  0  0  0  0  0
   41.8970   24.7080   42.5880 O   0  0  0  0  0  0  0  0  0  0  0  0
   42.6710   24.1860   42.8530 H   0  0  0  0  0  0  0  0  0  0  0  0
   36.6020   27.9020   41.2520 O   0  0  0  0  0  0  0  0  0  0  0  0
   37.6170   29.3170   43.2160 O   0  0  0  0  0  0  0  0  0  0  0  0
   37.1470   29.3570   41.8130 P   0  0  2  0  0  0  0  0  0  0  0  0
   35.8570   30.4670   41.7590 O   0  0  0  0  0  0  0  0  0  0  0  0
   36.2450   31.3770   41.6940 H   0  0  0  0  0  0  0  0  0  0  0  0
   38.3870   29.9750   40.7840 O   0  0  0  0  0  0  0  0  0  0  0  0
   37.6540   31.7000   39.3530 C   0  0  0  0  0  0  0  0  0  0  0  0
   38.1090   30.4110   39.5040 C   0  0  0  0  0  0  0  0  0  0  0  0
   38.2670   29.6040   38.3490 C   0  0  0  0  0  0  0  0  0  0  0  0
   37.9550   30.1670   37.1570 N   0  0  0  0  0  0  0  0  0  0  0  0
   37.5230   31.4050   37.0480 C   0  0  0  0  0  0  0  0  0  0  0  0
   37.3760   32.1680   38.1620 N   0  0  0  0  0  0  0  0  0  0  0  0
   38.4160   33.5730   40.8030 C   0  0  0  0  0  0  0  0  0  0  0  0
   39.6430   33.2370   40.7330 O   0  0  0  0  0  0  0  0  0  0  0  0
   37.3420   32.8450   40.1330 N   0  0  0  0  0  0  0  0  0  0  0  0
   38.6250   28.6090   38.5450 H   0  0  0  0  0  0  0  0  0  0  0  0
   37.2930   31.7850   36.0530 H   0  0  0  0  0  0  0  0  0  0  0  0
   38.2610   34.4400   41.4000 H   0  0  0  0  0  0  0  0  0  0  0  0
   36.4200   33.2610   40.3110 H   0  0  0  0  0  0  0  0  0  0  0  0
  1  7  1  6  0  0  0
  1 24  1  0  0  0  0
  1  6  1  0  0  0  0
  2  3  1  0  0  0  0
  2  1  1  0  0  0  0
  3  4  1  0  0  0  0
  4  5  1  0  0  0  0
  5  6  1  0  0  0  0
  5 13  1  0  0  0  0
  6 16  1  0  0  0  0
  6 14  1  1  0  0  0
  8  2  1  0  0  0  0
  9  2  1  0  0  0  0
 10  3  1  0  0  0  0
 11  3  1  0  0  0  0
 12  5  1  0  0  0  0
 15 20  1  6  0  0  0
 15 19  1  0  0  0  0
 16 17  1  6  0  0  0
 16 15  1  0  0  0  0
 17 18  1  0  0  0  0
 18 19  1  0  0  0  0
 19 22  1  6  0  0  0
 21 20  1  0  0  0  0
 22 23  1  0  0  0  0
 24 26  1  0  0  0  0
 26 25  2  1  0  0  0
 27 26  1  0  0  0  0
 28 27  1  0  0  0  0
 29 26  1  0  0  0  0
 30 31  1  0  0  0  0
 30 38  1  0  0  0  0
 31 29  1  0  0  0  0
 32 39  1  0  0  0  0
 32 31  2  0  0  0  0
 33 32  1  0  0  0  0
 34 33  2  0  0  0  0
 34 35  1  0  0  0  0
 35 30  2  0  0  0  0
 36 41  1  0  0  0  0
 37 36  2  0  0  0  0
 38 42  1  0  0  0  0
 38 36  1  0  0  0  0
 40 34  1  0  0  0  0
M  END
>  <minimizedAffinity>
-6.55239487

$$$$

 OpenBabel03252507143D

 42 44  0  0  1  0  0  0  0  0999 V2000
   38.3230   31.0130   39.4730 C   0  0  2  0  0  0  0  0  0  0  0  0
   37.1620   30.6900   38.6130 C   0  0  0  0  0  0  0  0  0  0  0  0
   36.3570   29.5830   39.1920 C   0  0  0  0  0  0  0  0  0  0  0  0
   35.7560   29.8950   40.4020 O   0  0  0  0  0  0  0  0  0  0  0  0
   36.4160   30.9240   41.0390 C   0  0  0  0  0  0  0  0  0  0  0  0
   37.9240   30.7360   40.9010 C   0  0  1  0  0  0  0  0  0  0  0  0
   39.1610   30.3240   39.1720 H   0  0  0  0  0  0  0  0  0  0  0  0
   36.4730   31.5600   38.4740 H   0  0  0  0  0  0  0  0  0  0  0  0
   37.4520   30.3890   37.5700 H   0  0  0  0  0  0  0  0  0  0  0  0
   36.7690   28.5720   39.1150 H   0  0  0  0  0  0  0  0  0  0  0  0
   35.4560   29.5170   38.4910 H   0  0  0  0  0  0  0  0  0  0  0  0
   36.1670   31.9170   40.5610 H   0  0  0  0  0  0  0  0  0  0  0  0
   36.1970   31.0030   42.1030 H   0  0  0  0  0  0  0  0  0  0  0  0
   38.2300   31.7150   41.4160 H   0  0  0  0  0  0  0  0  0  0  0  0
   38.2530   29.3350   43.0730 C   0  0  2  0  0  3  0  0  0  0  0  0
   38.5410   29.7410   41.7310 C   0  0  1  0  0  3  0  0  0  0  0  0
   38.7690   28.4990   41.0700 O   0  0  0  0  0  0  0  0  0  0  0  0
   39.7410   27.9310   41.9330 C   0  0  0  0  0  2  0  0  0  0  0  0
   38.9190   27.9570   43.2040 C   0  0  2  0  0  3  0  0  0  0  0  0
   37.0040   29.1560   43.5630 O   0  0  0  0  0  0  0  0  0  0  0  0
   36.4320   28.5120   43.1190 H   0  0  0  0  0  0  0  0  0  0  0  0
   37.9460   27.0010   43.0620 O   0  0  0  0  0  0  0  0  0  0  0  0
   37.8530   26.3490   43.7740 H   0  0  0  0  0  0  0  0  0  0  0  0
   38.8510   32.2380   39.3000 O   0  0  0  0  0  0  0  0  0  0  0  0
   40.9110   33.6630   38.5160 O   0  0  0  0  0  0  0  0  0  0  0  0
   40.1840   32.3860   38.3360 P   0  0  2  0  0  0  0  0  0  0  0  0
   39.6760   32.3360   36.7110 O   0  0  0  0  0  0  0  0  0  0  0  0
   40.4400   32.0190   36.1660 H   0  0  0  0  0  0  0  0  0  0  0  0
   41.2500   31.0510   38.5720 O   0  0  0  0  0  0  0  0  0  0  0  0
   42.9370   31.2880   36.9410 C   0  0  0  0  0  0  0  0  0  0  0  0
   41.9670   30.5080   37.5240 C   0  0  0  0  0  0  0  0  0  0  0  0
   41.7530   29.1970   37.0250 C   0  0  0  0  0  0  0  0  0  0  0  0
   42.5330   28.7980   35.9910 N   0  0  0  0  0  0  0  0  0  0  0  0
   43.4540   29.5720   35.4560 C   0  0  0  0  0  0  0  0  0  0  0  0
   43.6480   30.8240   35.9440 N   0  0  0  0  0  0  0  0  0  0  0  0
   44.3100   32.9130   38.2300 C   0  0  0  0  0  0  0  0  0  0  0  0
   44.5290   32.0980   39.1840 O   0  0  0  0  0  0  0  0  0  0  0  0
   43.5100   32.5820   37.0550 N   0  0  0  0  0  0  0  0  0  0  0  0
   40.9790   28.6480   37.5300 H   0  0  0  0  0  0  0  0  0  0  0  0
   44.0400   29.1770   34.6270 H   0  0  0  0  0  0  0  0  0  0  0  0
   44.7730   33.8590   38.3840 H   0  0  0  0  0  0  0  0  0  0  0  0
   43.4390   33.3690   36.3980 H   0  0  0  0  0  0  0  0  0  0  0  0
  1  7  1  6  0  0  0
  1  6  1  0  0  0  0
  2  3  1  0  0  0  0
  2  1  1  0  0  0  0
  3  4  1  0  0  0  0
  4  5  1  0  0  0  0
  5 13  1  0  0  0  0
  6  5  1  0  0  0  0
  6 14  1  1  0  0  0
  6 16  1  0  0  0  0
  8  2  1  0  0  0  0
  9  2  1  0  0  0  0
 10  3  1  0  0  0  0
 11  3  1  0  0  0  0
 12  5  1  0  0  0  0
 15 19  1  0  0  0  0
 15 20  1  6  0  0  0
 16 17  1  6  0  0  0
 16 15  1  0  0  0  0
 17 18  1  0  0  0  0
 18 19  1  0  0  0  0
 19 22  1  6  0  0  0
 21 20  1  0  0  0  0
 22 23  1  0  0  0  0
 24  1  1  0  0  0  0
 26 25  2  1  0  0  0
 26 29  1  0  0  0  0
 26 24  1  0  0  0  0
 27 26  1  0  0  0  0
 28 27  1  0  0  0  0
 30 38  1  0  0  0  0
 30 31  1  0  0  0  0
 31 29  1  0  0  0  0
 32 31  2  0  0  0  0
 32 39  1  0  0  0  0
 33 32  1  0  0  0  0
 34 35  1  0  0  0  0
 34 33  2  0  0  0  0
 35 30  2  0  0  0  0
 36 41  1  0  0  0  0
 36 37  2  0  0  0  0
 38 36  1  0  0  0  0
 40 34  1  0  0  0  0
 42 38  1  0  0  0  0
M  END
>  <minimizedAffinity>
-6.29323149

$$$$

 OpenBabel03252507143D

 42 44  0  0  1  0  0  0  0  0999 V2000
   37.3820   26.7460   40.9370 C   0  0  2  0  0  0  0  0  0  0  0  0
   37.0170   25.7550   39.8990 C   0  0  0  0  0  0  0  0  0  0  0  0
   37.7940   24.4990   40.0600 C   0  0  0  0  0  0  0  0  0  0  0  0
   37.5240   23.8150   41.2350 O   0  0  0  0  0  0  0  0  0  0  0  0
   37.0100   24.6560   42.1990 C   0  0  0  0  0  0  0  0  0  0  0  0
   37.7630   25.9830   42.1810 C   0  0  1  0  0  0  0  0  0  0  0  0
   38.2740   27.3160   40.5530 H   0  0  0  0  0  0  0  0  0  0  0  0
   35.9340   25.4790   39.9290 H   0  0  0  0  0  0  0  0  0  0  0  0
   37.1860   26.1260   38.8510 H   0  0  0  0  0  0  0  0  0  0  0  0
   38.8440   24.5180   39.7550 H   0  0  0  0  0  0  0  0  0  0  0  0
   37.3390   23.8040   39.2730 H   0  0  0  0  0  0  0  0  0  0  0  0
   35.9270   24.8960   41.9860 H   0  0  0  0  0  0  0  0  0  0  0  0
   37.0730   24.2640   43.2120 H   0  0  0  0  0  0  0  0  0  0  0  0
   37.1250   26.5120   42.9750 H   0  0  0  0  0  0  0  0  0  0  0  0
   39.7740   25.0090   43.5220 C   0  0  2  0  0  3  0  0  0  0  0  0
   39.0730   26.0040   42.7690 C   0  0  1  0  0  3  0  0  0  0  0  0
   40.0850   26.5150   41.9050 O   0  0  0  0  0  0  0  0  0  0  0  0
   41.0900   26.8280   42.8560 C   0  0  0  0  0  2  0  0  0  0  0  0
   41.2460   25.4430   43.4450 C   0  0  2  0  0  3  0  0  0  0  0  0
   39.7920   23.6910   43.2110 O   0  0  0  0  0  0  0  0  0  0  0  0
   40.1260   23.4370   42.3380 H   0  0  0  0  0  0  0  0  0  0  0  0
   41.8640   24.6760   42.4910 O   0  0  0  0  0  0  0  0  0  0  0  0
   42.6550   24.1820   42.7580 H   0  0  0  0  0  0  0  0  0  0  0  0
   36.4720   27.7100   41.1650 O   0  0  0  0  0  0  0  0  0  0  0  0
   37.4870   29.2970   42.9920 O   0  0  0  0  0  0  0  0  0  0  0  0
   37.0140   29.2110   41.5920 P   0  0  2  0  0  0  0  0  0  0  0  0
   35.7190   30.3070   41.4440 O   0  0  0  0  0  0  0  0  0  0  0  0
   36.1030   31.2080   41.2960 H   0  0  0  0  0  0  0  0  0  0  0  0
   38.2470   29.7390   40.5080 O   0  0  0  0  0  0  0  0  0  0  0  0
   39.2310   31.7430   41.2670 C   0  0  0  0  0  0  0  0  0  0  0  0
   38.5040   31.0800   40.3070 C   0  0  0  0  0  0  0  0  0  0  0  0
   38.0580   31.8010   39.1700 C   0  0  0  0  0  0  0  0  0  0  0  0
   38.3840   33.1140   39.1070 N   0  0  0  0  0  0  0  0  0  0  0  0
   39.0840   33.7180   40.0450 C   0  0  0  0  0  0  0  0  0  0  0  0
   39.5050   33.0160   41.1280 N   0  0  0  0  0  0  0  0  0  0  0  0
   41.0610   30.6550   42.5560 C   0  0  0  0  0  0  0  0  0  0  0  0
   41.5710   30.1060   41.5270 O   0  0  0  0  0  0  0  0  0  0  0  0
   39.8710   31.5010   42.5110 N   0  0  0  0  0  0  0  0  0  0  0  0
   37.4940   31.2180   38.4640 H   0  0  0  0  0  0  0  0  0  0  0  0
   39.3060   34.7770   39.9210 H   0  0  0  0  0  0  0  0  0  0  0  0
   41.5950   30.4310   43.4490 H   0  0  0  0  0  0  0  0  0  0  0  0
   39.6050   31.8470   43.4410 H   0  0  0  0  0  0  0  0  0  0  0  0
  1  7  1  6  0  0  0
  1 24  1  0  0  0  0
  1  6  1  0  0  0  0
  2  8  1  0  0  0  0
  2  3  1  0  0  0  0
  2  1  1  0  0  0  0
  3  4  1  0  0  0  0
  4  5  1  0  0  0  0
  5 13  1  0  0  0  0
  6  5  1  0  0  0  0
  6 16  1  0  0  0  0
  6 14  1  1  0  0  0
  9  2  1  0  0  0  0
 10  3  1  0  0  0  0
 11  3  1  0  0  0  0
 12  5  1  0  0  0  0
 15 20  1  6  0  0  0
 16 17  1  6  0  0  0
 16 15  1  0  0  0  0
 17 18  1  0  0  0  0
 18 19  1  0  0  0  0
 19 22  1  6  0  0  0
 19 15  1  0  0  0  0
 21 20  1  0  0  0  0
 22 23  1  0  0  0  0
 24 26  1  0  0  0  0
 26 25  2  1  0  0  0
 27 26  1  0  0  0  0
 28 27  1  0  0  0  0
 29 26  1  0  0  0  0
 30 38  1  0  0  0  0
 31 29  1  0  0  0  0
 31 30  2  0  0  0  0
 32 31  1  0  0  0  0
 33 32  2  0  0  0  0
 33 34  1  0  0  0  0
 34 35  2  0  0  0  0
 35 30  1  0  0  0  0
 36 41  1  0  0  0  0
 37 36  2  0  0  0  0
 38 36  1  0  0  0  0
 38 42  1  0  0  0  0
 39 32  1  0  0  0  0
 40 34  1  0  0  0  0
M  END
>  <minimizedAffinity>
-6.26849556

$$$$

 OpenBabel03252507143D

 42 44  0  0  1  0  0  0  0  0999 V2000
   37.3730   26.6950   40.9440 C   0  0  2  0  0  0  0  0  0  0  0  0
   36.9720   25.6880   39.9350 C   0  0  0  0  0  0  0  0  0  0  0  0
   37.7280   24.4220   40.1100 C   0  0  0  0  0  0  0  0  0  0  0  0
   37.4670   23.7690   41.3060 O   0  0  0  0  0  0  0  0  0  0  0  0
   36.9850   24.6410   42.2580 C   0  0  0  0  0  0  0  0  0  0  0  0
   37.7610   25.9530   42.1980 C   0  0  1  0  0  0  0  0  0  0  0  0
   38.2680   27.2400   40.5320 H   0  0  0  0  0  0  0  0  0  0  0  0
   35.8850   25.4320   39.9890 H   0  0  0  0  0  0  0  0  0  0  0  0
   37.1290   26.0330   38.8770 H   0  0  0  0  0  0  0  0  0  0  0  0
   38.7740   24.4150   39.7870 H   0  0  0  0  0  0  0  0  0  0  0  0
   37.2480   23.7180   39.3480 H   0  0  0  0  0  0  0  0  0  0  0  0
   35.9030   24.8950   42.0590 H   0  0  0  0  0  0  0  0  0  0  0  0
   37.0590   24.2700   43.2790 H   0  0  0  0  0  0  0  0  0  0  0  0
   37.1470   26.5110   42.9900 H   0  0  0  0  0  0  0  0  0  0  0  0
   39.7870   24.9620   43.5030 C   0  0  2  0  0  3  0  0  0  0  0  0
   39.0810   25.9630   42.7630 C   0  0  1  0  0  3  0  0  0  0  0  0
   40.0820   26.4660   41.8820 O   0  0  0  0  0  0  0  0  0  0  0  0
   41.1060   26.7710   42.8160 C   0  0  0  0  0  2  0  0  0  0  0  0
   41.2610   25.3840   43.4010 C   0  0  2  0  0  3  0  0  0  0  0  0
   39.7890   23.6440   43.1910 O   0  0  0  0  0  0  0  0  0  0  0  0
   40.1070   23.3880   42.3120 H   0  0  0  0  0  0  0  0  0  0  0  0
   41.8570   24.6130   42.4360 O   0  0  0  0  0  0  0  0  0  0  0  0
   42.6490   24.1130   42.6890 H   0  0  0  0  0  0  0  0  0  0  0  0
   36.4840   27.6800   41.1660 O   0  0  0  0  0  0  0  0  0  0  0  0
   37.2980   29.2380   43.1140 O   0  0  0  0  0  0  0  0  0  0  0  0
   37.0540   29.1500   41.6570 P   0  0  2  0  0  0  0  0  0  0  0  0
   35.8810   30.3280   41.2850 O   0  0  0  0  0  0  0  0  0  0  0  0
   36.3470   31.1970   41.1910 H   0  0  0  0  0  0  0  0  0  0  0  0
   38.4810   29.5670   40.7830 O   0  0  0  0  0  0  0  0  0  0  0  0
   38.7530   31.2220   39.1250 C   0  0  0  0  0  0  0  0  0  0  0  0
   38.7690   30.8770   40.4560 C   0  0  0  0  0  0  0  0  0  0  0  0
   39.0760   31.8750   41.4150 C   0  0  0  0  0  0  0  0  0  0  0  0
   39.3380   33.1190   40.9470 N   0  0  0  0  0  0  0  0  0  0  0  0
   39.3140   33.4150   39.6650 C   0  0  0  0  0  0  0  0  0  0  0  0
   39.0170   32.4500   38.7570 N   0  0  0  0  0  0  0  0  0  0  0  0
   37.1740   30.2060   37.4920 C   0  0  0  0  0  0  0  0  0  0  0  0
   36.1710   30.3160   38.2690 O   0  0  0  0  0  0  0  0  0  0  0  0
   38.5210   30.6400   37.8500 N   0  0  0  0  0  0  0  0  0  0  0  0
   39.0710   31.5320   42.4350 H   0  0  0  0  0  0  0  0  0  0  0  0
   39.5350   34.4400   39.3680 H   0  0  0  0  0  0  0  0  0  0  0  0
   36.9230   29.7650   36.5560 H   0  0  0  0  0  0  0  0  0  0  0  0
   39.1990   30.4630   37.0990 H   0  0  0  0  0  0  0  0  0  0  0  0
  1  7  1  6  0  0  0
  1 24  1  0  0  0  0
  1  6  1  0  0  0  0
  2  8  1  0  0  0  0
  2  3  1  0  0  0  0
  2  1  1  0  0  0  0
  3  4  1  0  0  0  0
  4  5  1  0  0  0  0
  5 13  1  0  0  0  0
  6  5  1  0  0  0  0
  6 16  1  0  0  0  0
  6 14  1  1  0  0  0
  9  2  1  0  0  0  0
 10  3  1  0  0  0  0
 11  3  1  0  0  0  0
 12  5  1  0  0  0  0
 15 20  1  6  0  0  0
 16 17  1  6  0  0  0
 16 15  1  0  0  0  0
 17 18  1  0  0  0  0
 18 19  1  0  0  0  0
 19 22  1  6  0  0  0
 19 15  1  0  0  0  0
 21 20  1  0  0  0  0
 22 23  1  0  0  0  0
 24 26  1  0  0  0  0
 26 25  2  1  0  0  0
 27 26  1  0  0  0  0
 28 27  1  0  0  0  0
 29 26  1  0  0  0  0
 30 31  1  0  0  0  0
 31 29  1  0  0  0  0
 31 32  2  0  0  0  0
 32 39  1  0  0  0  0
 33 32  1  0  0  0  0
 34 33  2  0  0  0  0
 35 30  2  0  0  0  0
 35 34  1  0  0  0  0
 36 38  1  0  0  0  0
 36 37  2  0  0  0  0
 38 30  1  0  0  0  0
 40 34  1  0  0  0  0
 41 36  1  0  0  0  0
 42 38  1  0  0  0  0
M  END
>  <minimizedAffinity>
-6.2006135

$$$$

 OpenBabel03252507143D

 42 44  0  0  1  0  0  0  0  0999 V2000
   37.1510   29.1820   39.8780 C   0  0  2  0  0  0  0  0  0  0  0  0
   36.1350   28.6490   38.9420 C   0  0  0  0  0  0  0  0  0  0  0  0
   35.9450   29.5570   37.7820 C   0  0  0  0  0  0  0  0  0  0  0  0
   37.0630   29.6790   36.9710 O   0  0  0  0  0  0  0  0  0  0  0  0
   38.2170   29.3640   37.6580 C   0  0  0  0  0  0  0  0  0  0  0  0
   38.1600   29.9540   39.0640 C   0  0  1  0  0  0  0  0  0  0  0  0
   36.6190   29.8790   40.5850 H   0  0  0  0  0  0  0  0  0  0  0  0
   36.4090   27.6450   38.5340 H   0  0  0  0  0  0  0  0  0  0  0  0
   35.1290   28.4950   39.4200 H   0  0  0  0  0  0  0  0  0  0  0  0
   35.3850   30.4810   37.9560 H   0  0  0  0  0  0  0  0  0  0  0  0
   35.2270   28.9780   37.1070 H   0  0  0  0  0  0  0  0  0  0  0  0
   38.3180   28.2450   37.7790 H   0  0  0  0  0  0  0  0  0  0  0  0
   39.1280   29.7330   37.1910 H   0  0  0  0  0  0  0  0  0  0  0  0
   39.1460   29.5040   39.4400 H   0  0  0  0  0  0  0  0  0  0  0  0
   37.5200   32.4160   39.6230 C   0  0  2  0  0  3  0  0  0  0  0  0
   38.3910   31.3640   39.1950 C   0  0  1  0  0  3  0  0  0  0  0  0
   39.6180   31.6900   39.8430 O   0  0  0  0  0  0  0  0  0  0  0  0
   39.7690   33.0380   39.4270 C   0  0  0  0  0  2  0  0  0  0  0  0
   38.4680   33.5680   39.9910 C   0  0  2  0  0  3  0  0  0  0  0  0
   36.6740   32.3240   40.6760 O   0  0  0  0  0  0  0  0  0  0  0  0
   37.0540   32.1240   41.5450 H   0  0  0  0  0  0  0  0  0  0  0  0
   38.6070   33.5830   41.3550 O   0  0  0  0  0  0  0  0  0  0  0  0
   38.4030   34.4120   41.8160 H   0  0  0  0  0  0  0  0  0  0  0  0
   37.7150   28.2780   40.6990 O   0  0  0  0  0  0  0  0  0  0  0  0
   36.5000   27.4250   42.8640 O   0  0  0  0  0  0  0  0  0  0  0  0
   37.4490   28.4240   42.3230 P   0  0  2  0  0  0  0  0  0  0  0  0
   36.7660   29.9560   42.6160 O   0  0  0  0  0  0  0  0  0  0  0  0
   36.9780   30.2070   43.5510 H   0  0  0  0  0  0  0  0  0  0  0  0
   38.9410   28.3640   43.1870 O   0  0  0  0  0  0  0  0  0  0  0  0
   40.8560   27.5380   42.0870 C   0  0  0  0  0  0  0  0  0  0  0  0
   39.8430   27.3370   42.9940 C   0  0  0  0  0  0  0  0  0  0  0  0
   39.7780   26.0970   43.6800 C   0  0  0  0  0  0  0  0  0  0  0  0
   40.7330   25.1820   43.3890 N   0  0  0  0  0  0  0  0  0  0  0  0
   41.6900   25.4080   42.5140 C   0  0  0  0  0  0  0  0  0  0  0  0
   41.7410   26.5990   41.8650 N   0  0  0  0  0  0  0  0  0  0  0  0
   41.9210   29.7590   41.7320 C   0  0  0  0  0  0  0  0  0  0  0  0
   42.0220   30.0020   42.9780 O   0  0  0  0  0  0  0  0  0  0  0  0
   41.3400   28.5320   41.1950 N   0  0  0  0  0  0  0  0  0  0  0  0
   38.9590   26.0120   44.3720 H   0  0  0  0  0  0  0  0  0  0  0  0
   42.4210   24.6200   42.3350 H   0  0  0  0  0  0  0  0  0  0  0  0
   42.3070   30.5460   41.1270 H   0  0  0  0  0  0  0  0  0  0  0  0
   41.3380   28.5190   40.1680 H   0  0  0  0  0  0  0  0  0  0  0  0
  1  7  1  1  0  0  0
  1 24  1  0  0  0  0
  2  9  1  0  0  0  0
  2  1  1  0  0  0  0
  3 10  1  0  0  0  0
  3  2  1  0  0  0  0
  4  5  1  0  0  0  0
  4  3  1  0  0  0  0
  5 12  1  0  0  0  0
  5  6  1  0  0  0  0
  6 16  1  0  0  0  0
  6 14  1  1  0  0  0
  6  1  1  0  0  0  0
  8  2  1  0  0  0  0
 11  3  1  0  0  0  0
 13  5  1  0  0  0  0
 15 19  1  0  0  0  0
 15 20  1  1  0  0  0
 16 15  1  0  0  0  0
 16 17  1  1  0  0  0
 18 17  1  0  0  0  0
 18 19  1  0  0  0  0
 19 22  1  1  0  0  0
 20 21  1  0  0  0  0
 22 23  1  0  0  0  0
 24 26  1  0  0  0  0
 26 27  1  0  0  0  0
 26 25  2  1  0  0  0
 26 29  1  0  0  0  0
 27 28  1  0  0  0  0
 30 31  1  0  0  0  0
 31 29  1  0  0  0  0
 31 32  2  0  0  0  0
 32 39  1  0  0  0  0
 33 32  1  0  0  0  0
 34 33  2  0  0  0  0
 35 30  2  0  0  0  0
 35 34  1  0  0  0  0
 36 37  2  0  0  0  0
 38 36  1  0  0  0  0
 38 30  1  0  0  0  0
 40 34  1  0  0  0  0
 41 36  1  0  0  0  0
 42 38  1  0  0  0  0
M  END
>  <minimizedAffinity>
-5.93317986

$$$$

 OpenBabel03252507143D

 42 44  0  0  1  0  0  0  0  0999 V2000
   37.5040   28.8760   37.5590 C   0  0  2  0  0  0  0  0  0  0  0  0
   37.5570   27.7400   36.6110 C   0  0  0  0  0  0  0  0  0  0  0  0
   37.5120   26.4400   37.3280 C   0  0  0  0  0  0  0  0  0  0  0  0
   36.3230   26.2100   38.0050 O   0  0  0  0  0  0  0  0  0  0  0  0
   35.6710   27.3910   38.2900 C   0  0  0  0  0  0  0  0  0  0  0  0
   36.6800   28.4410   38.7460 C   0  0  1  0  0  0  0  0  0  0  0  0
   38.5610   29.0850   37.8870 H   0  0  0  0  0  0  0  0  0  0  0  0
   36.7080   27.7450   35.8840 H   0  0  0  0  0  0  0  0  0  0  0  0
   38.4800   27.7400   35.9690 H   0  0  0  0  0  0  0  0  0  0  0  0
   38.4210   26.1230   37.8490 H   0  0  0  0  0  0  0  0  0  0  0  0
   37.4530   25.6720   36.4830 H   0  0  0  0  0  0  0  0  0  0  0  0
   35.1680   27.8040   37.3670 H   0  0  0  0  0  0  0  0  0  0  0  0
   34.9190   27.3080   39.0720 H   0  0  0  0  0  0  0  0  0  0  0  0
   35.9380   29.3120   38.8360 H   0  0  0  0  0  0  0  0  0  0  0  0
   38.0370   29.2010   40.8360 C   0  0  2  0  0  3  0  0  0  0  0  0
   37.1910   28.3260   40.0820 C   0  0  1  0  0  3  0  0  0  0  0  0
   36.2140   27.9310   41.0410 O   0  0  0  0  0  0  0  0  0  0  0  0
   37.0590   27.4790   42.0880 C   0  0  0  0  0  2  0  0  0  0  0  0
   37.8250   28.7680   42.2950 C   0  0  2  0  0  3  0  0  0  0  0  0
   37.9110   30.5490   40.8610 O   0  0  0  0  0  0  0  0  0  0  0  0
   37.0650   30.9180   41.1560 H   0  0  0  0  0  0  0  0  0  0  0  0
   36.9560   29.6540   42.8780 O   0  0  0  0  0  0  0  0  0  0  0  0
   37.2470   30.0980   43.6900 H   0  0  0  0  0  0  0  0  0  0  0  0
   37.1030   30.0490   37.0380 O   0  0  0  0  0  0  0  0  0  0  0  0
   37.1730   32.2880   38.4040 O   0  0  0  0  0  0  0  0  0  0  0  0
   37.9210   31.4170   37.4700 P   0  0  2  0  0  0  0  0  0  0  0  0
   38.2040   32.3360   36.0640 O   0  0  0  0  0  0  0  0  0  0  0  0
   39.0000   32.9020   36.2300 H   0  0  0  0  0  0  0  0  0  0  0  0
   39.4640   31.0160   38.1290 O   0  0  0  0  0  0  0  0  0  0  0  0
   40.6030   33.0540   38.4570 C   0  0  0  0  0  0  0  0  0  0  0  0
   40.5740   31.8010   37.8930 C   0  0  0  0  0  0  0  0  0  0  0  0
   41.6760   31.3820   37.1040 C   0  0  0  0  0  0  0  0  0  0  0  0
   42.6970   32.2600   36.9590 N   0  0  0  0  0  0  0  0  0  0  0  0
   42.6930   33.4540   37.5140 C   0  0  0  0  0  0  0  0  0  0  0  0
   41.6320   33.8420   38.2670 N   0  0  0  0  0  0  0  0  0  0  0  0
   39.5990   33.5510   40.6790 C   0  0  0  0  0  0  0  0  0  0  0  0
   40.0910   32.5110   41.2260 O   0  0  0  0  0  0  0  0  0  0  0  0
   39.8090   33.9000   39.2770 N   0  0  0  0  0  0  0  0  0  0  0  0
   41.5820   30.3920   36.6950 H   0  0  0  0  0  0  0  0  0  0  0  0
   43.5530   34.1020   37.3500 H   0  0  0  0  0  0  0  0  0  0  0  0
   39.0210   34.1360   41.3550 H   0  0  0  0  0  0  0  0  0  0  0  0
   39.3280   34.7690   39.0160 H   0  0  0  0  0  0  0  0  0  0  0  0
  1  7  1  1  0  0  0
  1  6  1  0  0  0  0
  2  3  1  0  0  0  0
  2  1  1  0  0  0  0
  3 10  1  0  0  0  0
  3  4  1  0  0  0  0
  4  5  1  0  0  0  0
  5  6  1  0  0  0  0
  5 13  1  0  0  0  0
  6 14  1  1  0  0  0
  6 16  1  0  0  0  0
  8  2  1  0  0  0  0
  9  2  1  0  0  0  0
 11  3  1  0  0  0  0
 12  5  1  0  0  0  0
 15 20  1  1  0  0  0
 15 19  1  0  0  0  0
 16 15  1  0  0  0  0
 16 17  1  1  0  0  0
 17 18  1  0  0  0  0
 18 19  1  0  0  0  0
 19 22  1  1  0  0  0
 20 21  1  0  0  0  0
 22 23  1  0  0  0  0
 24 26  1  0  0  0  0
 24  1  1  0  0  0  0
 26 29  1  0  0  0  0
 26 25  2  1  0  0  0
 27 28  1  0  0  0  0
 27 26  1  0  0  0  0
 30 38  1  0  0  0  0
 31 29  1  0  0  0  0
 31 30  2  0  0  0  0
 32 31  1  0  0  0  0
 33 32  2  0  0  0  0
 33 34  1  0  0  0  0
 34 35  2  0  0  0  0
 35 30  1  0  0  0  0
 36 37  2  0  0  0  0
 36 41  1  0  0  0  0
 38 36  1  0  0  0  0
 39 32  1  0  0  0  0
 40 34  1  0  0  0  0
 42 38  1  0  0  0  0
M  END
>  <minimizedAffinity>
-5.86715412

$$$$

 OpenBabel03252507143D

 42 44  0  0  1  0  0  0  0  0999 V2000
   37.0180   28.8740   40.3900 C   0  0  2  0  0  0  0  0  0  0  0  0
   35.9800   28.4650   39.4160 C   0  0  0  0  0  0  0  0  0  0  0  0
   35.8870   29.4330   38.2930 C   0  0  0  0  0  0  0  0  0  0  0  0
   37.0270   29.4950   37.5060 O   0  0  0  0  0  0  0  0  0  0  0  0
   38.1370   29.0580   38.1960 C   0  0  0  0  0  0  0  0  0  0  0  0
   38.1020   29.5920   39.6250 C   0  0  1  0  0  0  0  0  0  0  0  0
   36.5310   29.5830   41.1160 H   0  0  0  0  0  0  0  0  0  0  0  0
   36.1790   27.4600   38.9700 H   0  0  0  0  0  0  0  0  0  0  0  0
   34.9560   28.3740   39.8710 H   0  0  0  0  0  0  0  0  0  0  0  0
   35.4010   30.3910   38.4970 H   0  0  0  0  0  0  0  0  0  0  0  0
   35.1370   28.9420   37.5820 H   0  0  0  0  0  0  0  0  0  0  0  0
   38.1450   27.9310   38.2720 H   0  0  0  0  0  0  0  0  0  0  0  0
   39.0850   29.3700   37.7600 H   0  0  0  0  0  0  0  0  0  0  0  0
   39.0400   29.0480   39.9980 H   0  0  0  0  0  0  0  0  0  0  0  0
   38.4070   32.0800   38.9140 C   0  0  2  0  0  3  0  0  0  0  0  0
   38.4440   30.9730   39.8200 C   0  0  1  0  0  3  0  0  0  0  0  0
   37.9200   31.5330   41.0210 O   0  0  0  0  0  0  0  0  0  0  0  0
   38.7590   32.6700   41.1530 C   0  0  0  0  0  2  0  0  0  0  0  0
   38.4280   33.3170   39.8250 C   0  0  2  0  0  3  0  0  0  0  0  0
   37.4000   32.3180   38.0420 O   0  0  0  0  0  0  0  0  0  0  0  0
   36.5070   32.4300   38.4020 H   0  0  0  0  0  0  0  0  0  0  0  0
   37.1450   33.7900   39.9260 O   0  0  0  0  0  0  0  0  0  0  0  0
   36.9900   34.7180   39.6910 H   0  0  0  0  0  0  0  0  0  0  0  0
   37.4900   27.8940   41.1800 O   0  0  0  0  0  0  0  0  0  0  0  0
   36.2380   27.2410   43.3930 O   0  0  0  0  0  0  0  0  0  0  0  0
   37.3260   28.0610   42.8150 P   0  0  2  0  0  0  0  0  0  0  0  0
   36.9430   29.6870   43.1490 O   0  0  0  0  0  0  0  0  0  0  0  0
   37.2380   29.8820   44.0750 H   0  0  0  0  0  0  0  0  0  0  0  0
   38.8190   27.7220   43.6100 O   0  0  0  0  0  0  0  0  0  0  0  0
   40.7810   26.6440   42.8700 C   0  0  0  0  0  0  0  0  0  0  0  0
   40.0240   27.7890   42.9390 C   0  0  0  0  0  0  0  0  0  0  0  0
   40.5130   28.9690   42.3230 C   0  0  0  0  0  0  0  0  0  0  0  0
   41.7130   28.8860   41.7000 N   0  0  0  0  0  0  0  0  0  0  0  0
   42.4120   27.7720   41.6520 C   0  0  0  0  0  0  0  0  0  0  0  0
   41.9320   26.6490   42.2450 N   0  0  0  0  0  0  0  0  0  0  0  0
   39.7760   24.3740   42.7010 C   0  0  0  0  0  0  0  0  0  0  0  0
   38.9310   24.7250   41.8140 O   0  0  0  0  0  0  0  0  0  0  0  0
   40.7500   25.2880   43.2910 N   0  0  0  0  0  0  0  0  0  0  0  0
   39.8670   29.8240   42.4190 H   0  0  0  0  0  0  0  0  0  0  0  0
   43.3690   27.7860   41.1310 H   0  0  0  0  0  0  0  0  0  0  0  0
   39.6940   23.3460   42.9620 H   0  0  0  0  0  0  0  0  0  0  0  0
   41.3400   24.8260   43.9930 H   0  0  0  0  0  0  0  0  0  0  0  0
  1  7  1  1  0  0  0
  1 24  1  0  0  0  0
  2  9  1  0  0  0  0
  2  1  1  0  0  0  0
  3 10  1  0  0  0  0
  3  2  1  0  0  0  0
  4  5  1  0  0  0  0
  4  3  1  0  0  0  0
  5 12  1  0  0  0  0
  5  6  1  0  0  0  0
  6 16  1  0  0  0  0
  6 14  1  1  0  0  0
  6  1  1  0  0  0  0
  8  2  1  0  0  0  0
 11  3  1  0  0  0  0
 13  5  1  0  0  0  0
 15 20  1  1  0  0  0
 15 16  1  0  0  0  0
 15 19  1  0  0  0  0
 16 17  1  1  0  0  0
 17 18  1  0  0  0  0
 19 22  1  1  0  0  0
 19 18  1  0  0  0  0
 20 21  1  0  0  0  0
 23 22  1  0  0  0  0
 24 26  1  0  0  0  0
 26 27  1  0  0  0  0
 26 25  2  1  0  0  0
 26 29  1  0  0  0  0
 27 28  1  0  0  0  0
 30 31  1  0  0  0  0
 30 38  1  0  0  0  0
 31 29  1  0  0  0  0
 32 39  1  0  0  0  0
 32 31  2  0  0  0  0
 33 32  1  0  0  0  0
 34 33  2  0  0  0  0
 34 35  1  0  0  0  0
 35 30  2  0  0  0  0
 36 41  1  0  0  0  0
 36 38  1  0  0  0  0
 37 36  2  0  0  0  0
 38 42  1  0  0  0  0
 40 34  1  0  0  0  0
M  END
>  <minimizedAffinity>
-5.86162567

$$$$

 OpenBabel03252507143D

 42 44  0  0  1  0  0  0  0  0999 V2000
   38.7270   29.3000   42.2360 C   0  0  2  0  0  0  0  0  0  0  0  0
   37.3330   29.5690   41.8140 C   0  0  0  0  0  0  0  0  0  0  0  0
   36.5890   28.3040   41.5840 C   0  0  0  0  0  0  0  0  0  0  0  0
   36.4130   27.5360   42.7250 O   0  0  0  0  0  0  0  0  0  0  0  0
   37.3620   27.8320   43.6800 C   0  0  0  0  0  0  0  0  0  0  0  0
   38.7250   28.0090   43.0170 C   0  0  1  0  0  0  0  0  0  0  0  0
   39.3400   29.1780   41.3000 H   0  0  0  0  0  0  0  0  0  0  0  0
   36.7580   30.1560   42.5730 H   0  0  0  0  0  0  0  0  0  0  0  0
   37.2640   30.1800   40.8730 H   0  0  0  0  0  0  0  0  0  0  0  0
   36.8190   27.7480   40.6700 H   0  0  0  0  0  0  0  0  0  0  0  0
   35.5220   28.6590   41.3720 H   0  0  0  0  0  0  0  0  0  0  0  0
   37.1230   28.8090   44.1940 H   0  0  0  0  0  0  0  0  0  0  0  0
   37.4750   27.0690   44.4480 H   0  0  0  0  0  0  0  0  0  0  0  0
   39.2980   28.3160   43.9620 H   0  0  0  0  0  0  0  0  0  0  0  0
   40.7020   26.6500   42.0020 C   0  0  2  0  0  3  0  0  0  0  0  0
   39.4160   26.8200   42.6060 C   0  0  1  0  0  3  0  0  0  0  0  0
   39.3810   25.7700   43.5700 O   0  0  0  0  0  0  0  0  0  0  0  0
   39.7090   24.6630   42.7450 C   0  0  0  0  0  2  0  0  0  0  0  0
   41.0450   25.1720   42.2500 C   0  0  2  0  0  3  0  0  0  0  0  0
   41.8150   27.3240   42.3760 O   0  0  0  0  0  0  0  0  0  0  0  0
   42.1050   27.2420   43.2970 H   0  0  0  0  0  0  0  0  0  0  0  0
   41.9090   25.1110   43.3130 O   0  0  0  0  0  0  0  0  0  0  0  0
   42.7540   24.6550   43.1770 H   0  0  0  0  0  0  0  0  0  0  0  0
   39.3420   30.3070   42.8820 O   0  0  0  0  0  0  0  0  0  0  0  0
   41.4780   30.0550   41.3770 O   0  0  0  0  0  0  0  0  0  0  0  0
   40.6600   31.0020   42.1690 P   0  0  2  0  0  0  0  0  0  0  0  0
   41.6700   31.6140   43.3960 O   0  0  0  0  0  0  0  0  0  0  0  0
   42.2070   32.3490   43.0050 H   0  0  0  0  0  0  0  0  0  0  0  0
   40.1830   32.3430   41.1940 O   0  0  0  0  0  0  0  0  0  0  0  0
   39.7440   32.0000   38.9030 C   0  0  0  0  0  0  0  0  0  0  0  0
   40.5920   32.4610   39.8810 C   0  0  0  0  0  0  0  0  0  0  0  0
   41.8340   33.0280   39.4950 C   0  0  0  0  0  0  0  0  0  0  0  0
   42.1020   33.0770   38.1690 N   0  0  0  0  0  0  0  0  0  0  0  0
   41.2660   32.6270   37.2570 C   0  0  0  0  0  0  0  0  0  0  0  0
   40.0800   32.0870   37.6400 N   0  0  0  0  0  0  0  0  0  0  0  0
   37.2670   32.1450   39.0940 C   0  0  0  0  0  0  0  0  0  0  0  0
   37.2870   33.3480   39.5120 O   0  0  0  0  0  0  0  0  0  0  0  0
   38.4700   31.3870   38.7630 N   0  0  0  0  0  0  0  0  0  0  0  0
   42.4450   33.3650   40.3140 H   0  0  0  0  0  0  0  0  0  0  0  0
   41.5550   32.7040   36.2100 H   0  0  0  0  0  0  0  0  0  0  0  0
   36.2800   31.7550   39.0120 H   0  0  0  0  0  0  0  0  0  0  0  0
   38.2550   30.4320   38.4510 H   0  0  0  0  0  0  0  0  0  0  0  0
  1  7  1  6  0  0  0
  1 24  1  0  0  0  0
  1  6  1  0  0  0  0
  2  1  1  0  0  0  0
  2  8  1  0  0  0  0
  3  2  1  0  0  0  0
  3  4  1  0  0  0  0
  4  5  1  0  0  0  0
  5 12  1  0  0  0  0
  5 13  1  0  0  0  0
  6  5  1  0  0  0  0
  6 14  1  1  0  0  0
  9  2  1  0  0  0  0
 10  3  1  0  0  0  0
 11  3  1  0  0  0  0
 15 19  1  0  0  0  0
 15 20  1  1  0  0  0
 15 16  1  0  0  0  0
 16  6  1  0  0  0  0
 16 17  1  1  0  0  0
 18 17  1  0  0  0  0
 19 18  1  0  0  0  0
 19 22  1  1  0  0  0
 20 21  1  0  0  0  0
 23 22  1  0  0  0  0
 26 25  2  6  0  0  0
 26 24  1  0  0  0  0
 26 27  1  0  0  0  0
 28 27  1  0  0  0  0
 29 26  1  0  0  0  0
 30 31  1  0  0  0  0
 31 29  1  0  0  0  0
 32 31  2  0  0  0  0
 32 39  1  0  0  0  0
 33 32  1  0  0  0  0
 34 35  1  0  0  0  0
 34 33  2  0  0  0  0
 35 30  2  0  0  0  0
 36 37  2  0  0  0  0
 38 30  1  0  0  0  0
 38 36  1  0  0  0  0
 40 34  1  0  0  0  0
 41 36  1  0  0  0  0
 42 38  1  0  0  0  0
M  END
>  <minimizedAffinity>
-5.85374594

$$$$

 OpenBabel03252507143D

 42 44  0  0  1  0  0  0  0  0999 V2000
   39.4140   30.1490   41.1190 C   0  0  2  0  0  0  0  0  0  0  0  0
   40.1750   29.1950   41.9580 C   0  0  0  0  0  0  0  0  0  0  0  0
   41.6260   29.2420   41.6430 C   0  0  0  0  0  0  0  0  0  0  0  0
   42.2300   30.4540   41.9440 O   0  0  0  0  0  0  0  0  0  0  0  0
   41.3080   31.4780   41.9810 C   0  0  0  0  0  0  0  0  0  0  0  0
   40.3150   31.3240   40.8320 C   0  0  1  0  0  0  0  0  0  0  0  0
   39.1640   29.6180   40.1570 H   0  0  0  0  0  0  0  0  0  0  0  0
   40.0680   29.4040   43.0520 H   0  0  0  0  0  0  0  0  0  0  0  0
   39.8360   28.1300   41.8390 H   0  0  0  0  0  0  0  0  0  0  0  0
   41.9510   28.7710   40.7110 H   0  0  0  0  0  0  0  0  0  0  0  0
   42.0900   28.5490   42.4250 H   0  0  0  0  0  0  0  0  0  0  0  0
   40.7060   31.4420   42.9360 H   0  0  0  0  0  0  0  0  0  0  0  0
   41.7430   32.4730   41.8980 H   0  0  0  0  0  0  0  0  0  0  0  0
   39.6380   32.2040   41.1180 H   0  0  0  0  0  0  0  0  0  0  0  0
   40.6760   30.9930   38.2730 C   0  0  2  0  0  3  0  0  0  0  0  0
   40.7660   31.6910   39.5190 C   0  0  1  0  0  3  0  0  0  0  0  0
   40.4440   33.0300   39.1530 O   0  0  0  0  0  0  0  0  0  0  0  0
   41.3620   33.2260   38.0890 C   0  0  0  0  0  2  0  0  0  0  0  0
   40.8960   32.0830   37.2120 C   0  0  2  0  0  3  0  0  0  0  0  0
   39.5770   30.3260   37.8510 O   0  0  0  0  0  0  0  0  0  0  0  0
   38.7500   30.8240   37.7680 H   0  0  0  0  0  0  0  0  0  0  0  0
   39.6700   32.4430   36.7150 O   0  0  0  0  0  0  0  0  0  0  0  0
   39.5430   32.3880   35.7550 H   0  0  0  0  0  0  0  0  0  0  0  0
   38.2100   30.5100   41.5970 O   0  0  0  0  0  0  0  0  0  0  0  0
   37.1260   31.4440   39.3970 O   0  0  0  0  0  0  0  0  0  0  0  0
   36.9310   30.5390   40.5530 P   0  0  2  0  0  0  0  0  0  0  0  0
   35.5660   31.1090   41.3960 O   0  0  0  0  0  0  0  0  0  0  0  0
   34.7610   30.7570   40.9390 H   0  0  0  0  0  0  0  0  0  0  0  0
   36.5580   28.9450   40.0100 O   0  0  0  0  0  0  0  0  0  0  0  0
   37.2010   26.6850   40.2130 C   0  0  0  0  0  0  0  0  0  0  0  0
   36.7670   27.8430   40.8140 C   0  0  0  0  0  0  0  0  0  0  0  0
   36.5580   27.8460   42.2170 C   0  0  0  0  0  0  0  0  0  0  0  0
   36.8050   26.6900   42.8780 N   0  0  0  0  0  0  0  0  0  0  0  0
   37.2200   25.5980   42.2710 C   0  0  0  0  0  0  0  0  0  0  0  0
   37.4160   25.6090   40.9270 N   0  0  0  0  0  0  0  0  0  0  0  0
   38.7370   26.6810   38.2560 C   0  0  0  0  0  0  0  0  0  0  0  0
   39.5130   27.5570   38.7580 O   0  0  0  0  0  0  0  0  0  0  0  0
   37.5400   26.1840   38.9280 N   0  0  0  0  0  0  0  0  0  0  0  0
   36.2180   28.7850   42.6160 H   0  0  0  0  0  0  0  0  0  0  0  0
   37.3960   24.7080   42.8730 H   0  0  0  0  0  0  0  0  0  0  0  0
   39.0570   26.3520   37.2950 H   0  0  0  0  0  0  0  0  0  0  0  0
   37.0380   25.4880   38.3640 H   0  0  0  0  0  0  0  0  0  0  0  0
  1  7  1  6  0  0  0
  1 24  1  0  0  0  0
  1  2  1  0  0  0  0
  2  8  1  0  0  0  0
  3  4  1  0  0  0  0
  3  2  1  0  0  0  0
  3 11  1  0  0  0  0
  4  5  1  0  0  0  0
  5 12  1  0  0  0  0
  6 14  1  1  0  0  0
  6  1  1  0  0  0  0
  6  5  1  0  0  0  0
  9  2  1  0  0  0  0
 10  3  1  0  0  0  0
 13  5  1  0  0  0  0
 15 20  1  6  0  0  0
 15 16  1  0  0  0  0
 16 17  1  6  0  0  0
 16  6  1  0  0  0  0
 18 17  1  0  0  0  0
 19 22  1  1  0  0  0
 19 18  1  0  0  0  0
 19 15  1  0  0  0  0
 21 20  1  0  0  0  0
 23 22  1  0  0  0  0
 26 25  2  6  0  0  0
 26 27  1  0  0  0  0
 26 24  1  0  0  0  0
 28 27  1  0  0  0  0
 29 26  1  0  0  0  0
 29 31  1  0  0  0  0
 30 31  2  0  0  0  0
 30 35  1  0  0  0  0
 31 32  1  0  0  0  0
 32 39  1  0  0  0  0
 32 33  2  0  0  0  0
 34 40  1  0  0  0  0
 34 33  1  0  0  0  0
 35 34  2  0  0  0  0
 36 37  2  0  0  0  0
 36 38  1  0  0  0  0
 38 30  1  0  0  0  0
 41 36  1  0  0  0  0
 42 38  1  0  0  0  0
M  END
>  <minimizedAffinity>
-5.79058838

$$$$
