
 OpenBabel03252508293D

 39 42  0  0  1  0  0  0  0  0999 V2000
   40.9040   34.0100   40.5470 N   0  0  0  0  0  0  0  0  0  0  0  0
   41.9690   34.9340   40.1610 C   0  0  2  0  0  0  0  0  0  0  0  0
   42.1210   35.0630   38.7100 C   0  0  0  0  0  0  0  0  0  0  0  0
   41.2730   34.2130   37.8890 N   0  0  0  0  0  0  0  0  0  0  0  0
   40.8340   32.9910   38.4360 C   0  0  0  0  0  0  0  0  0  0  0  0
   41.2460   32.7750   39.8600 C   0  0  2  0  0  0  0  0  0  0  0  0
   41.0120   33.8400   41.5790 H   0  0  0  0  0  0  0  0  0  0  0  0
   41.6780   35.8900   40.7030 H   0  0  0  0  0  0  0  0  0  0  0  0
   41.6620   36.0940   38.4860 H   0  0  0  0  0  0  0  0  0  0  0  0
   43.0900   35.1910   38.2570 H   0  0  0  0  0  0  0  0  0  0  0  0
   40.6340   34.6850   37.2540 H   0  0  0  0  0  0  0  0  0  0  0  0
   41.3280   32.1680   37.8450 H   0  0  0  0  0  0  0  0  0  0  0  0
   39.7660   32.8770   38.2460 H   0  0  0  0  0  0  0  0  0  0  0  0
   42.3200   32.6190   39.9050 H   0  0  0  0  0  0  0  0  0  0  0  0
   44.7290   33.9670   42.2340 C   0  0  0  0  0  0  0  0  0  0  0  0
   45.2970   34.0150   40.9780 C   0  0  0  0  0  0  0  0  0  0  0  0
   44.2890   34.3820   40.0650 C   0  0  0  0  0  0  0  0  0  0  0  0
   43.1910   34.5360   40.7910 N   0  0  0  0  0  0  0  0  0  0  0  0
   43.4310   34.2970   42.0530 N   0  0  0  0  0  0  0  0  0  0  0  0
   46.3530   33.7890   40.8350 H   0  0  0  0  0  0  0  0  0  0  0  0
   44.6720   34.4330   39.0510 H   0  0  0  0  0  0  0  0  0  0  0  0
   47.0700   32.3960   44.7380 C   0  0  0  0  0  0  0  0  0  0  0  0
   46.4580   32.6850   43.4930 C   0  0  0  0  0  0  0  0  0  0  0  0
   45.4180   33.6140   43.4770 C   0  0  0  0  0  0  0  0  0  0  0  0
   45.0360   34.1940   44.6280 N   0  0  0  0  0  0  0  0  0  0  0  0
   45.6350   33.9030   45.8120 C   0  0  0  0  0  0  0  0  0  0  0  0
   46.6380   33.0110   45.8380 N   0  0  0  0  0  0  0  0  0  0  0  0
   47.8510   31.6700   44.6070 H   0  0  0  0  0  0  0  0  0  0  0  0
   46.7400   32.2330   42.5350 H   0  0  0  0  0  0  0  0  0  0  0  0
   45.3220   34.3770   46.7410 H   0  0  0  0  0  0  0  0  0  0  0  0
   40.5680   31.6680   42.0340 C   0  0  1  0  0  0  0  0  0  0  0  0
   40.5600   31.6700   40.5590 C   0  0  2  0  0  0  0  0  0  0  0  0
   41.0840   30.4190   40.2430 O   0  0  0  0  0  0  0  0  0  0  0  0
   40.7080   29.5170   41.2000 C   0  0  0  0  0  0  0  0  0  0  0  0
   39.9530   30.2820   42.2760 C   0  0  1  0  0  0  0  0  0  0  0  0
   41.7940   31.6390   42.6440 O   0  0  0  0  0  0  0  0  0  0  0  0
   42.3740   30.9130   42.3750 H   0  0  0  0  0  0  0  0  0  0  0  0
   40.1900   29.8100   43.5480 O   0  0  0  0  0  0  0  0  0  0  0  0
   39.3470   29.8620   44.0680 H   0  0  0  0  0  0  0  0  0  0  0  0
  1  7  1  0  0  0  0
  2  1  1  0  0  0  0
  2  8  1  1  0  0  0
  2 18  1  0  0  0  0
  3  2  1  0  0  0  0
  4  5  1  0  0  0  0
  4  3  1  0  0  0  0
  5  6  1  0  0  0  0
  6 14  1  1  0  0  0
  6  1  1  0  0  0  0
  6 32  1  0  0  0  0
  9  3  1  0  0  0  0
 10  3  1  0  0  0  0
 11  4  1  0  0  0  0
 12  5  1  0  0  0  0
 13  5  1  0  0  0  0
 15 24  1  0  0  0  0
 16 15  1  0  0  0  0
 17 18  1  0  0  0  0
 17 16  2  0  0  0  0
 18 19  1  0  0  0  0
 19 15  2  0  0  0  0
 20 16  1  0  0  0  0
 21 17  1  0  0  0  0
 22 27  1  0  0  0  0
 23 22  2  0  0  0  0
 24 23  1  0  0  0  0
 24 25  2  0  0  0  0
 25 26  1  0  0  0  0
 26 27  2  0  0  0  0
 26 30  1  0  0  0  0
 28 22  1  0  0  0  0
 29 23  1  0  0  0  0
 31 35  1  0  0  0  0
 31 36  1  6  0  0  0
 32 33  1  6  0  0  0
 32 31  1  0  0  0  0
 33 34  1  0  0  0  0
 34 35  1  0  0  0  0
 35 38  1  1  0  0  0
 37 36  1  0  0  0  0
 38 39  1  0  0  0  0
M  END
>  <minimizedAffinity>
-5.34454346

>  <minimizedRMSD>
4.7968502

$$$$
