
     RDKit          3D

 47 49  0  0  0  0  0  0  0  0999 V2000
   50.2210   34.9051   42.7067 O   0  0  0  0  0  0  0  0  0  0  0  0
   49.0561   34.6178   41.8405 P   0  0  1  0  0  0  0  0  0  0  0  0
   48.9713   35.8800   40.6995 O   0  0  0  0  0  0  0  0  0  0  0  0
   49.3107   33.1582   40.9570 O   0  0  0  0  0  0  0  0  0  0  0  0
   49.5300   31.4385   42.5558 C   0  0  0  0  0  0  0  0  0  0  0  0
   50.0531   32.1193   41.4820 C   0  0  0  0  0  0  0  0  0  0  0  0
   51.3164   31.7232   40.9733 C   0  0  0  0  0  0  0  0  0  0  0  0
   51.9299   30.6850   41.5900 N   0  0  0  0  0  0  0  0  0  0  0  0
   51.3995   30.0545   42.6175 C   0  0  0  0  0  0  0  0  0  0  0  0
   50.1899   30.4437   43.0945 N   0  0  0  0  0  0  0  0  0  0  0  0
   47.0901   31.0399   42.8358 C   0  0  0  0  0  0  0  0  0  0  0  0
   46.9242   30.6925   41.6223 O   0  0  0  0  0  0  0  0  0  0  0  0
   48.3814   31.4361   43.3906 N   0  0  0  0  0  0  0  0  0  0  0  0
   47.6203   34.5584   42.6542 O   0  0  0  0  0  0  0  0  0  0  0  0
   46.5406   35.1224   42.0825 C   0  0  2  0  0  0  0  0  0  0  0  0
   45.4991   35.6009   43.0205 C   0  0  0  0  0  0  0  0  0  0  0  0
   44.1851   35.7323   42.3399 C   0  0  0  0  0  0  0  0  0  0  0  0
   43.6570   34.5286   41.8949 O   0  0  0  0  0  0  0  0  0  0  0  0
   44.6442   33.5825   41.7186 C   0  0  0  0  0  0  0  0  0  0  0  0
   45.8681   34.2262   41.0728 C   0  0  1  0  0  0  0  0  0  0  0  0
   49.6098   35.6721   39.9725 H   0  0  0  0  0  0  0  0  0  0  0  0
   51.6612   32.3011   40.1338 H   0  0  0  0  0  0  0  0  0  0  0  0
   51.9568   29.2285   43.0580 H   0  0  0  0  0  0  0  0  0  0  0  0
   46.1869   31.0097   43.3991 H   0  0  0  0  0  0  0  0  0  0  0  0
   48.3158   31.6899   44.3840 H   0  0  0  0  0  0  0  0  0  0  0  0
   46.9638   36.0277   41.5648 H   0  0  0  0  0  0  0  0  0  0  0  0
   45.3526   34.9139   43.8900 H   0  0  0  0  0  0  0  0  0  0  0  0
   45.7420   36.5955   43.4825 H   0  0  0  0  0  0  0  0  0  0  0  0
   44.0532   36.5837   41.6659 H   0  0  0  0  0  0  0  0  0  0  0  0
   43.4707   36.0006   43.1918 H   0  0  0  0  0  0  0  0  0  0  0  0
   44.9825   33.1675   42.7127 H   0  0  0  0  0  0  0  0  0  0  0  0
   44.3513   32.7447   41.0885 H   0  0  0  0  0  0  0  0  0  0  0  0
   46.5430   33.2986   41.1084 H   0  0  0  0  0  0  0  0  0  0  0  0
   48.0681   34.4231   38.7166 O   0  0  0  0  0  0  0  0  0  0  0  0
   46.8118   34.9273   38.7478 C   0  0  2  0  0  0  0  0  0  0  0  0
   45.7977   34.5076   39.6671 C   0  0  1  0  0  0  0  0  0  0  0  0
   45.0795   33.5313   38.9178 O   0  0  0  0  0  0  0  0  0  0  0  0
   44.7999   34.2742   37.7422 C   0  0  0  0  0  0  0  0  0  0  0  0
   46.2302   34.5960   37.3651 C   0  0  2  0  0  0  0  0  0  0  0  0
   46.7977   33.4244   36.9356 O   0  0  0  0  0  0  0  0  0  0  0  0
   48.1692   33.4690   38.5777 H   0  0  0  0  0  0  0  0  0  0  0  0
   46.9431   36.0510   38.7186 H   0  0  0  0  0  0  0  0  0  0  0  0
   45.0054   35.3446   39.6195 H   0  0  0  0  0  0  0  0  0  0  0  0
   44.3072   33.6057   37.0158 H   0  0  0  0  0  0  0  0  0  0  0  0
   44.2413   35.1892   37.9865 H   0  0  0  0  0  0  0  0  0  0  0  0
   46.3074   35.4306   36.6550 H   0  0  0  0  0  0  0  0  0  0  0  0
   47.2426   33.4316   36.0743 H   0  0  0  0  0  0  0  0  0  0  0  0
  2 14  1  1
  2  1  2  0
  3  2  1  0
  4  6  1  0
  4  2  1  0
  5 10  2  0
  5 13  1  0
  6  5  1  0
  7  6  2  0
  7  8  1  0
  8  9  2  0
  9 10  1  0
 11 13  1  0
 12 11  2  0
 15 14  1  0
 15 16  1  0
 17 16  1  0
 18 17  1  0
 19 18  1  0
 20 19  1  0
 20 15  1  0
  3 21  1  0
  7 22  1  0
  9 23  1  0
 11 24  1  0
 13 25  1  0
 15 26  1  6
 16 27  1  0
 16 28  1  0
 17 29  1  0
 17 30  1  0
 19 31  1  0
 19 32  1  0
 20 33  1  6
 34 35  1  0
 35 36  1  0
 36 37  1  0
 37 38  1  0
 38 39  1  0
 39 40  1  0
 39 35  1  0
 34 41  1  0
 35 42  1  6
 36 43  1  1
 38 44  1  0
 38 45  1  0
 39 46  1  6
 40 47  1  0
 20 36  1  0
M  ISO  8  21   3  22  14  23  14  24   6  26  13  27  13  28  13  29  13
M  ISO  4  30  13  31  13  32  13  33  13
M  END
>  <DihAtoms>  (1) 
18,19,35,34

>  <DihDeg>  (1) 
84.53810403364625

$$$$
