
 OpenBabel03252507573D

 27 29  0  0  1  0  0  0  0  0999 V2000
   46.3920   32.6860   45.7520 C   0  0  1  0  0  0  0  0  0  0  0  0
   47.1270   33.0050   47.0160 C   0  0  0  0  0  0  0  0  0  0  0  0
   45.6460   32.8470   47.0380 C   0  0  2  0  0  0  0  0  0  0  0  0
   46.5070   31.7030   45.2980 H   0  0  0  0  0  0  0  0  0  0  0  0
   47.6160   34.0040   47.0150 H   0  0  0  0  0  0  0  0  0  0  0  0
   47.7690   32.1850   47.4020 H   0  0  0  0  0  0  0  0  0  0  0  0
   45.1180   33.8220   47.2390 H   0  0  0  0  0  0  0  0  0  0  0  0
   46.6520   34.8740   42.8160 C   0  0  0  0  0  0  0  0  0  0  0  0
   45.5640   35.7710   42.9710 C   0  0  0  0  0  0  0  0  0  0  0  0
   44.7500   35.5920   44.1020 C   0  0  0  0  0  0  0  0  0  0  0  0
   45.0500   34.5830   44.9700 N   0  0  0  0  0  0  0  0  0  0  0  0
   46.1150   33.7620   44.7510 C   0  0  0  0  0  0  0  0  0  0  0  0
   46.9200   33.8820   43.7000 N   0  0  0  0  0  0  0  0  0  0  0  0
   45.3640   36.5500   42.2670 H   0  0  0  0  0  0  0  0  0  0  0  0
   43.9170   36.2350   44.2720 H   0  0  0  0  0  0  0  0  0  0  0  0
   47.4500   35.1150   41.6500 C   0  0  0  0  0  0  0  0  0  0  0  0
   48.5620   35.7290   41.6380 O   0  0  0  0  0  0  0  0  0  0  0  0
   47.1460   34.7740   40.6480 H   0  0  0  0  0  0  0  0  0  0  0  0
   45.4490   30.3340   47.2260 C   0  0  2  0  0  3  0  0  0  0  0  0
   45.0910   31.6810   47.7740 C   0  0  1  0  0  3  0  0  0  0  0  0
   45.5590   31.5800   49.0810 O   0  0  0  0  0  0  0  0  0  0  0  0
   45.1410   30.3550   49.5400 C   0  0  0  0  0  2  0  0  0  0  0  0
   44.9070   29.4470   48.3540 C   0  0  2  0  0  3  0  0  0  0  0  0
   46.8170   30.2190   47.1580 O   0  0  0  0  0  0  0  0  0  0  0  0
   47.1840   29.7600   47.9570 H   0  0  0  0  0  0  0  0  0  0  0  0
   45.6560   28.2860   48.3980 O   0  0  0  0  0  0  0  0  0  0  0  0
   45.0230   27.5480   48.5830 H   0  0  0  0  0  0  0  0  0  0  0  0
  1  4  1  6  0  0  0
  1  2  1  0  0  0  0
  1  3  1  0  0  0  0
  2  3  1  0  0  0  0
  2  6  1  0  0  0  0
  3  7  1  1  0  0  0
  3 20  1  0  0  0  0
  5  2  1  0  0  0  0
  8  9  2  0  0  0  0
  8 13  1  0  0  0  0
  9 10  1  0  0  0  0
 10 15  1  0  0  0  0
 10 11  2  0  0  0  0
 12 11  1  0  0  0  0
 12  1  1  0  0  0  0
 13 12  2  0  0  0  0
 14  9  1  0  0  0  0
 16  8  1  0  0  0  0
 17 16  2  0  0  0  0
 18 16  1  0  0  0  0
 19 24  1  1  0  0  0
 19 20  1  0  0  0  0
 19 23  1  0  0  0  0
 20 21  1  1  0  0  0
 21 22  1  0  0  0  0
 23 26  1  1  0  0  0
 23 22  1  0  0  0  0
 24 25  1  0  0  0  0
 26 27  1  0  0  0  0
M  END
>  <minimizedAffinity>
-4.67653275

>  <minimizedRMSD>
0.827785432

$$$$
