
 OpenBabel03242521403D

 21 22  0  0  1  0  0  0  0  0999 V2000
   38.5860   24.9000   42.0210 C   0  0  0  0  0  0  0  0  0  0  0  0
   38.2270   26.1730   41.5500 C   0  0  0  0  0  0  0  0  0  0  0  0
   38.7640   27.2830   42.2110 C   0  0  0  0  0  0  0  0  0  0  0  0
   39.5900   27.0730   43.2590 N   0  0  0  0  0  0  0  0  0  0  0  0
   39.9100   25.8230   43.6800 C   0  0  0  0  0  0  0  0  0  0  0  0
   39.4070   24.7420   43.0610 N   0  0  0  0  0  0  0  0  0  0  0  0
   37.5570   26.2590   40.7010 H   0  0  0  0  0  0  0  0  0  0  0  0
   40.5700   25.7210   44.5150 H   0  0  0  0  0  0  0  0  0  0  0  0
   37.1010   29.1330   42.3280 C   0  0  2  0  0  3  0  0  0  0  0  0
   38.3920   28.6070   41.7230 C   0  0  2  0  0  3  0  0  0  0  0  0
   38.0540   28.6480   40.3690 O   0  0  0  0  0  0  0  0  0  0  0  0
   37.5440   29.9110   40.1770 C   0  0  0  0  0  2  0  0  0  0  0  0
   36.9580   30.4020   41.4770 C   0  0  1  0  0  3  0  0  0  0  0  0
   37.2340   29.4150   43.6770 O   0  0  0  0  0  0  0  0  0  0  0  0
   36.6060   30.1370   43.9100 H   0  0  0  0  0  0  0  0  0  0  0  0
   35.6350   30.7640   41.4010 O   0  0  0  0  0  0  0  0  0  0  0  0
   35.5000   31.7260   41.2180 H   0  0  0  0  0  0  0  0  0  0  0  0
   38.0110   23.7000   41.3120 C   0  0  0  0  0  0  0  0  0  0  0  0
   38.2550   22.8010   41.9110 H   0  0  0  0  0  0  0  0  0  0  0  0
   36.9400   23.7930   41.1270 H   0  0  0  0  0  0  0  0  0  0  0  0
   38.4990   23.6310   40.3160 H   0  0  0  0  0  0  0  0  0  0  0  0
  1  6  1  0  0  0  0
  2  1  2  0  0  0  0
  2  3  1  0  0  0  0
  3  4  2  0  0  0  0
  4  5  1  0  0  0  0
  5  8  1  0  0  0  0
  6  5  2  0  0  0  0
  7  2  1  0  0  0  0
  9 14  1  1  0  0  0
 10  3  1  1  0  0  0
 10  9  1  0  0  0  0
 11 10  1  0  0  0  0
 12 11  1  0  0  0  0
 12 13  1  0  0  0  0
 13 16  1  6  0  0  0
 13  9  1  0  0  0  0
 14 15  1  0  0  0  0
 17 16  1  0  0  0  0
 18 19  1  0  0  0  0
 18  1  1  0  0  0  0
 20 18  1  0  0  0  0
 21 18  1  0  0  0  0
M  END
>  <minimizedAffinity>
-4.91089249

$$$$

 OpenBabel03242521403D

 21 22  0  0  1  0  0  0  0  0999 V2000
   39.0990   27.3510   43.0450 C   0  0  0  0  0  0  0  0  0  0  0  0
   39.1480   28.6970   42.6500 C   0  0  0  0  0  0  0  0  0  0  0  0
   38.0010   29.2420   42.0620 C   0  0  0  0  0  0  0  0  0  0  0  0
   36.9170   28.4500   41.9070 N   0  0  0  0  0  0  0  0  0  0  0  0
   36.9160   27.1530   42.3050 C   0  0  0  0  0  0  0  0  0  0  0  0
   38.0050   26.6080   42.8710 N   0  0  0  0  0  0  0  0  0  0  0  0
   40.0570   29.2680   42.8090 H   0  0  0  0  0  0  0  0  0  0  0  0
   36.0270   26.5760   42.1560 H   0  0  0  0  0  0  0  0  0  0  0  0
   36.8890   31.0490   40.7590 C   0  0  2  0  0  3  0  0  0  0  0  0
   38.0500   30.6410   41.6510 C   0  0  2  0  0  3  0  0  0  0  0  0
   39.1190   30.9580   40.8100 O   0  0  0  0  0  0  0  0  0  0  0  0
   38.8580   32.2390   40.3840 C   0  0  0  0  0  2  0  0  0  0  0  0
   37.3670   32.4660   40.4090 C   0  0  1  0  0  3  0  0  0  0  0  0
   35.6840   31.0530   41.4410 O   0  0  0  0  0  0  0  0  0  0  0  0
   35.0910   31.7210   41.0250 H   0  0  0  0  0  0  0  0  0  0  0  0
   36.8320   32.8500   39.2030 O   0  0  0  0  0  0  0  0  0  0  0  0
   36.7690   33.8310   39.0960 H   0  0  0  0  0  0  0  0  0  0  0  0
   40.3330   26.7590   43.6790 C   0  0  0  0  0  0  0  0  0  0  0  0
   40.1790   25.6660   43.7670 H   0  0  0  0  0  0  0  0  0  0  0  0
   41.2450   27.0050   43.1340 H   0  0  0  0  0  0  0  0  0  0  0  0
   40.4390   27.2060   44.6910 H   0  0  0  0  0  0  0  0  0  0  0  0
  1 18  1  0  0  0  0
  2  7  1  0  0  0  0
  2  1  2  0  0  0  0
  3  2  1  0  0  0  0
  4  3  2  0  0  0  0
  4  5  1  0  0  0  0
  5  6  2  0  0  0  0
  6  1  1  0  0  0  0
  8  5  1  0  0  0  0
  9 14  1  1  0  0  0
  9 10  1  0  0  0  0
 10  3  1  6  0  0  0
 11 10  1  0  0  0  0
 12 13  1  0  0  0  0
 12 11  1  0  0  0  0
 13 16  1  6  0  0  0
 13  9  1  0  0  0  0
 15 14  1  0  0  0  0
 17 16  1  0  0  0  0
 18 19  1  0  0  0  0
 18 21  1  0  0  0  0
 20 18  1  0  0  0  0
M  END
>  <minimizedAffinity>
-4.89103985

$$$$

 OpenBabel03242521403D

 21 22  0  0  1  0  0  0  0  0999 V2000
   36.9880   26.2490   41.0610 C   0  0  0  0  0  0  0  0  0  0  0  0
   37.3960   27.5650   41.3320 C   0  0  0  0  0  0  0  0  0  0  0  0
   37.2400   28.5130   40.3150 C   0  0  0  0  0  0  0  0  0  0  0  0
   36.7100   28.1160   39.1370 N   0  0  0  0  0  0  0  0  0  0  0  0
   36.3290   26.8310   38.9210 C   0  0  0  0  0  0  0  0  0  0  0  0
   36.4690   25.9030   39.8820 N   0  0  0  0  0  0  0  0  0  0  0  0
   37.8130   27.8060   42.3040 H   0  0  0  0  0  0  0  0  0  0  0  0
   35.9150   26.5780   37.9680 H   0  0  0  0  0  0  0  0  0  0  0  0
   36.5560   30.9050   40.4170 C   0  0  2  0  0  3  0  0  0  0  0  0
   37.6640   29.8810   40.5940 C   0  0  2  0  0  3  0  0  0  0  0  0
   38.6030   30.3890   39.6940 O   0  0  0  0  0  0  0  0  0  0  0  0
   38.6990   31.7240   40.0080 C   0  0  0  0  0  2  0  0  0  0  0  0
   37.3940   32.1760   40.6160 C   0  0  1  0  0  3  0  0  0  0  0  0
   35.5650   30.7730   41.3760 O   0  0  0  0  0  0  0  0  0  0  0  0
   35.1550   31.6550   41.5270 H   0  0  0  0  0  0  0  0  0  0  0  0
   36.8000   33.2300   39.9640 O   0  0  0  0  0  0  0  0  0  0  0  0
   37.0400   34.1110   40.3420 H   0  0  0  0  0  0  0  0  0  0  0  0
   37.1540   25.2230   42.1540 C   0  0  0  0  0  0  0  0  0  0  0  0
   36.9470   24.2260   41.7180 H   0  0  0  0  0  0  0  0  0  0  0  0
   38.1340   25.2700   42.6300 H   0  0  0  0  0  0  0  0  0  0  0  0
   36.4070   25.4500   42.9450 H   0  0  0  0  0  0  0  0  0  0  0  0
  1  2  1  0  0  0  0
  1 18  1  0  0  0  0
  2  7  1  0  0  0  0
  3  2  2  0  0  0  0
  4  3  1  0  0  0  0
  5  4  2  0  0  0  0
  5  6  1  0  0  0  0
  6  1  2  0  0  0  0
  8  5  1  0  0  0  0
  9 10  1  0  0  0  0
  9 13  1  0  0  0  0
  9 14  1  1  0  0  0
 10  3  1  6  0  0  0
 11 12  1  0  0  0  0
 11 10  1  0  0  0  0
 12 13  1  0  0  0  0
 13 16  1  6  0  0  0
 14 15  1  0  0  0  0
 16 17  1  0  0  0  0
 18 20  1  0  0  0  0
 18 21  1  0  0  0  0
 19 18  1  0  0  0  0
M  END
>  <minimizedAffinity>
-4.6633153

$$$$

 OpenBabel03242521403D

 21 22  0  0  1  0  0  0  0  0999 V2000
   40.1170   33.1640   40.2420 C   0  0  0  0  0  0  0  0  0  0  0  0
   39.6600   31.8520   40.4450 C   0  0  0  0  0  0  0  0  0  0  0  0
   38.2850   31.6200   40.3260 C   0  0  0  0  0  0  0  0  0  0  0  0
   37.4780   32.6610   40.0260 N   0  0  0  0  0  0  0  0  0  0  0  0
   37.9660   33.9130   39.8380 C   0  0  0  0  0  0  0  0  0  0  0  0
   39.2820   34.1610   39.9470 N   0  0  0  0  0  0  0  0  0  0  0  0
   40.3720   31.0680   40.6840 H   0  0  0  0  0  0  0  0  0  0  0  0
   37.2770   34.6970   39.6010 H   0  0  0  0  0  0  0  0  0  0  0  0
   36.7530   30.1480   41.6250 C   0  0  2  0  0  3  0  0  0  0  0  0
   37.8080   30.2570   40.5370 C   0  0  2  0  0  3  0  0  0  0  0  0
   38.7680   29.3820   41.0490 O   0  0  0  0  0  0  0  0  0  0  0  0
   38.0670   28.2410   41.3630 C   0  0  0  0  0  2  0  0  0  0  0  0
   36.6390   28.6180   41.6720 C   0  0  1  0  0  3  0  0  0  0  0  0
   35.5620   30.7540   41.2610 O   0  0  0  0  0  0  0  0  0  0  0  0
   34.8230   30.2950   41.7210 H   0  0  0  0  0  0  0  0  0  0  0  0
   36.2050   28.2230   42.9140 O   0  0  0  0  0  0  0  0  0  0  0  0
   35.7530   27.3430   42.9110 H   0  0  0  0  0  0  0  0  0  0  0  0
   41.5980   33.4190   40.3690 C   0  0  0  0  0  0  0  0  0  0  0  0
   41.7570   34.5150   40.3510 H   0  0  0  0  0  0  0  0  0  0  0  0
   42.0310   32.9550   41.2570 H   0  0  0  0  0  0  0  0  0  0  0  0
   42.0970   32.9510   39.4940 H   0  0  0  0  0  0  0  0  0  0  0  0
  1 18  1  0  0  0  0
  1  2  1  0  0  0  0
  2  7  1  0  0  0  0
  3  2  2  0  0  0  0
  4  3  1  0  0  0  0
  5  6  1  0  0  0  0
  5  4  2  0  0  0  0
  6  1  2  0  0  0  0
  8  5  1  0  0  0  0
  9 14  1  6  0  0  0
  9 13  1  0  0  0  0
 10  3  1  1  0  0  0
 10 11  1  0  0  0  0
 10  9  1  0  0  0  0
 11 12  1  0  0  0  0
 12 13  1  0  0  0  0
 13 16  1  1  0  0  0
 14 15  1  0  0  0  0
 17 16  1  0  0  0  0
 18 20  1  0  0  0  0
 19 18  1  0  0  0  0
 21 18  1  0  0  0  0
M  END
>  <minimizedAffinity>
-4.58533382

$$$$

 OpenBabel03242521403D

 21 22  0  0  1  0  0  0  0  0999 V2000
   37.7080   28.1270   42.9650 C   0  0  0  0  0  0  0  0  0  0  0  0
   37.4740   29.0700   41.9500 C   0  0  0  0  0  0  0  0  0  0  0  0
   38.5860   29.7180   41.4010 C   0  0  0  0  0  0  0  0  0  0  0  0
   39.8140   29.4060   41.8710 N   0  0  0  0  0  0  0  0  0  0  0  0
   39.9910   28.4870   42.8540 C   0  0  0  0  0  0  0  0  0  0  0  0
   38.9390   27.8520   43.3970 N   0  0  0  0  0  0  0  0  0  0  0  0
   36.4580   29.2660   41.6260 H   0  0  0  0  0  0  0  0  0  0  0  0
   40.9870   28.2820   43.1850 H   0  0  0  0  0  0  0  0  0  0  0  0
   38.1200   32.1060   40.8710 C   0  0  2  0  0  3  0  0  0  0  0  0
   38.3460   30.6980   40.3470 C   0  0  2  0  0  3  0  0  0  0  0  0
   37.1530   30.5110   39.6460 O   0  0  0  0  0  0  0  0  0  0  0  0
   37.0270   31.6370   38.8670 C   0  0  0  0  0  2  0  0  0  0  0  0
   37.7430   32.7790   39.5440 C   0  0  1  0  0  3  0  0  0  0  0  0
   39.2670   32.6460   41.4290 O   0  0  0  0  0  0  0  0  0  0  0  0
   39.2350   33.6240   41.3260 H   0  0  0  0  0  0  0  0  0  0  0  0
   36.9540   33.8770   39.7890 O   0  0  0  0  0  0  0  0  0  0  0  0
   36.9910   34.5550   39.0700 H   0  0  0  0  0  0  0  0  0  0  0  0
   36.5130   27.4260   43.5600 C   0  0  0  0  0  0  0  0  0  0  0  0
   36.8590   26.8580   44.4460 H   0  0  0  0  0  0  0  0  0  0  0  0
   35.6990   28.1120   43.8020 H   0  0  0  0  0  0  0  0  0  0  0  0
   36.1180   26.7240   42.7950 H   0  0  0  0  0  0  0  0  0  0  0  0
  1  6  1  0  0  0  0
  1 18  1  0  0  0  0
  2  1  2  0  0  0  0
  3  4  2  0  0  0  0
  3  2  1  0  0  0  0
  4  5  1  0  0  0  0
  5  8  1  0  0  0  0
  5  6  2  0  0  0  0
  7  2  1  0  0  0  0
  9 14  1  6  0  0  0
 10  9  1  0  0  0  0
 10  3  1  1  0  0  0
 11 10  1  0  0  0  0
 12 13  1  0  0  0  0
 12 11  1  0  0  0  0
 13 16  1  1  0  0  0
 13  9  1  0  0  0  0
 15 14  1  0  0  0  0
 17 16  1  0  0  0  0
 18 20  1  0  0  0  0
 18 19  1  0  0  0  0
 21 18  1  0  0  0  0
M  END
>  <minimizedAffinity>
-4.5628581

$$$$

 OpenBabel03242521403D

 21 22  0  0  1  0  0  0  0  0999 V2000
   37.7850   29.3410   42.2800 C   0  0  0  0  0  0  0  0  0  0  0  0
   38.7190   30.3570   42.0240 C   0  0  0  0  0  0  0  0  0  0  0  0
   38.3270   31.3980   41.1750 C   0  0  0  0  0  0  0  0  0  0  0  0
   37.0820   31.3700   40.6510 N   0  0  0  0  0  0  0  0  0  0  0  0
   36.2120   30.3650   40.9280 C   0  0  0  0  0  0  0  0  0  0  0  0
   36.5660   29.3560   41.7390 N   0  0  0  0  0  0  0  0  0  0  0  0
   39.7010   30.3090   42.4830 H   0  0  0  0  0  0  0  0  0  0  0  0
   35.2400   30.3990   40.4830 H   0  0  0  0  0  0  0  0  0  0  0  0
   39.3040   32.9150   39.4590 C   0  0  2  0  0  3  0  0  0  0  0  0
   39.2970   32.4550   40.9070 C   0  0  2  0  0  3  0  0  0  0  0  0
   40.6300   32.0620   41.0380 O   0  0  0  0  0  0  0  0  0  0  0  0
   41.3550   33.1220   40.5460 C   0  0  0  0  0  2  0  0  0  0  0  0
   40.5150   33.8560   39.5310 C   0  0  1  0  0  3  0  0  0  0  0  0
   38.1390   33.5810   39.1160 O   0  0  0  0  0  0  0  0  0  0  0  0
   38.3460   34.2280   38.4040 H   0  0  0  0  0  0  0  0  0  0  0  0
   41.0930   33.9650   38.2890 O   0  0  0  0  0  0  0  0  0  0  0  0
   41.6020   34.8030   38.1650 H   0  0  0  0  0  0  0  0  0  0  0  0
   38.2030   28.2170   43.1940 C   0  0  0  0  0  0  0  0  0  0  0  0
   37.4230   27.4320   43.1470 H   0  0  0  0  0  0  0  0  0  0  0  0
   39.1940   27.8270   42.9570 H   0  0  0  0  0  0  0  0  0  0  0  0
   38.2630   28.6260   44.2260 H   0  0  0  0  0  0  0  0  0  0  0  0
  1 18  1  0  0  0  0
  2  1  1  0  0  0  0
  2  7  1  0  0  0  0
  3  2  2  0  0  0  0
  4  5  2  0  0  0  0
  4  3  1  0  0  0  0
  5  6  1  0  0  0  0
  6  1  2  0  0  0  0
  8  5  1  0  0  0  0
  9 14  1  1  0  0  0
  9 13  1  0  0  0  0
  9 10  1  0  0  0  0
 10 11  1  0  0  0  0
 10  3  1  6  0  0  0
 12 11  1  0  0  0  0
 13 16  1  6  0  0  0
 13 12  1  0  0  0  0
 15 14  1  0  0  0  0
 17 16  1  0  0  0  0
 18 21  1  0  0  0  0
 19 18  1  0  0  0  0
 20 18  1  0  0  0  0
M  END
>  <minimizedAffinity>
-4.24519587

$$$$

 OpenBabel03242521403D

 21 22  0  0  1  0  0  0  0  0999 V2000
   37.2260   26.9410   41.6920 C   0  0  0  0  0  0  0  0  0  0  0  0
   37.3770   28.0990   40.9120 C   0  0  0  0  0  0  0  0  0  0  0  0
   37.6280   29.3020   41.5810 C   0  0  0  0  0  0  0  0  0  0  0  0
   37.7110   29.2860   42.9300 N   0  0  0  0  0  0  0  0  0  0  0  0
   37.5590   28.1410   43.6420 C   0  0  0  0  0  0  0  0  0  0  0  0
   37.3160   26.9740   43.0220 N   0  0  0  0  0  0  0  0  0  0  0  0
   37.2960   28.0310   39.8320 H   0  0  0  0  0  0  0  0  0  0  0  0
   37.6360   28.1920   44.7080 H   0  0  0  0  0  0  0  0  0  0  0  0
   38.5540   31.6120   41.4780 C   0  0  2  0  0  3  0  0  0  0  0  0
   37.7850   30.5070   40.7730 C   0  0  2  0  0  3  0  0  0  0  0  0
   36.5920   31.1810   40.5040 O   0  0  0  0  0  0  0  0  0  0  0  0
   36.9850   32.3660   39.9280 C   0  0  0  0  0  2  0  0  0  0  0  0
   38.3630   32.7180   40.4300 C   0  0  1  0  0  3  0  0  0  0  0  0
   39.8870   31.2850   41.6630 O   0  0  0  0  0  0  0  0  0  0  0  0
   40.4140   32.1160   41.6730 H   0  0  0  0  0  0  0  0  0  0  0  0
   38.4500   33.9490   41.0340 O   0  0  0  0  0  0  0  0  0  0  0  0
   38.7180   34.6720   40.4160 H   0  0  0  0  0  0  0  0  0  0  0  0
   36.9540   25.6430   40.9750 C   0  0  0  0  0  0  0  0  0  0  0  0
   36.6950   24.8810   41.7380 H   0  0  0  0  0  0  0  0  0  0  0  0
   36.1830   25.7370   40.2090 H   0  0  0  0  0  0  0  0  0  0  0  0
   37.8870   25.3460   40.4500 H   0  0  0  0  0  0  0  0  0  0  0  0
  1  6  1  0  0  0  0
  2  3  1  0  0  0  0
  2  1  2  0  0  0  0
  3  4  2  0  0  0  0
  4  5  1  0  0  0  0
  5  8  1  0  0  0  0
  6  5  2  0  0  0  0
  7  2  1  0  0  0  0
  9 14  1  6  0  0  0
 10  9  1  0  0  0  0
 10  3  1  1  0  0  0
 11 10  1  0  0  0  0
 12 13  1  0  0  0  0
 12 11  1  0  0  0  0
 13 16  1  1  0  0  0
 13  9  1  0  0  0  0
 14 15  1  0  0  0  0
 17 16  1  0  0  0  0
 18  1  1  0  0  0  0
 18 19  1  0  0  0  0
 20 18  1  0  0  0  0
 21 18  1  0  0  0  0
M  END
>  <minimizedAffinity>
-4.17464399

$$$$

 OpenBabel03242521403D

 21 22  0  0  1  0  0  0  0  0999 V2000
   39.0600   26.8580   42.4850 C   0  0  0  0  0  0  0  0  0  0  0  0
   38.3980   27.1550   41.2830 C   0  0  0  0  0  0  0  0  0  0  0  0
   37.3100   28.0340   41.3430 C   0  0  0  0  0  0  0  0  0  0  0  0
   36.9590   28.5450   42.5430 N   0  0  0  0  0  0  0  0  0  0  0  0
   37.6300   28.2290   43.6800 C   0  0  0  0  0  0  0  0  0  0  0  0
   38.6760   27.3880   43.6470 N   0  0  0  0  0  0  0  0  0  0  0  0
   38.7410   26.7040   40.3580 H   0  0  0  0  0  0  0  0  0  0  0  0
   37.3040   28.6660   44.6000 H   0  0  0  0  0  0  0  0  0  0  0  0
   35.2460   28.9580   40.3010 C   0  0  2  0  0  3  0  0  0  0  0  0
   36.6210   28.3440   40.0950 C   0  0  2  0  0  3  0  0  0  0  0  0
   36.2700   27.2250   39.3370 O   0  0  0  0  0  0  0  0  0  0  0  0
   35.4650   27.7210   38.3380 C   0  0  0  0  0  2  0  0  0  0  0  0
   34.7880   28.9740   38.8360 C   0  0  1  0  0  3  0  0  0  0  0  0
   35.3180   30.2290   40.8450 O   0  0  0  0  0  0  0  0  0  0  0  0
   34.5350   30.7440   40.5430 H   0  0  0  0  0  0  0  0  0  0  0  0
   33.4160   28.9380   38.7780 O   0  0  0  0  0  0  0  0  0  0  0  0
   33.0480   29.3210   37.9440 H   0  0  0  0  0  0  0  0  0  0  0  0
   40.2320   25.9120   42.4250 C   0  0  0  0  0  0  0  0  0  0  0  0
   40.5190   25.6590   43.4650 H   0  0  0  0  0  0  0  0  0  0  0  0
   40.0260   25.0220   41.8280 H   0  0  0  0  0  0  0  0  0  0  0  0
   41.0690   26.4420   41.9230 H   0  0  0  0  0  0  0  0  0  0  0  0
  1  6  1  0  0  0  0
  2  3  1  0  0  0  0
  2  1  2  0  0  0  0
  3  4  2  0  0  0  0
  4  5  1  0  0  0  0
  5  8  1  0  0  0  0
  6  5  2  0  0  0  0
  7  2  1  0  0  0  0
  9 14  1  6  0  0  0
 10  9  1  0  0  0  0
 10  3  1  1  0  0  0
 11 10  1  0  0  0  0
 12 13  1  0  0  0  0
 12 11  1  0  0  0  0
 13 16  1  1  0  0  0
 13  9  1  0  0  0  0
 15 14  1  0  0  0  0
 17 16  1  0  0  0  0
 18  1  1  0  0  0  0
 18 19  1  0  0  0  0
 20 18  1  0  0  0  0
 21 18  1  0  0  0  0
M  END
>  <minimizedAffinity>
-4.10430908

$$$$

 OpenBabel03242521403D

 21 22  0  0  1  0  0  0  0  0999 V2000
   37.4910   27.7140   41.7590 C   0  0  0  0  0  0  0  0  0  0  0  0
   37.1380   28.7740   40.9080 C   0  0  0  0  0  0  0  0  0  0  0  0
   37.9110   28.9660   39.7570 C   0  0  0  0  0  0  0  0  0  0  0  0
   38.9470   28.1290   39.5290 N   0  0  0  0  0  0  0  0  0  0  0  0
   39.2500   27.1160   40.3810 C   0  0  0  0  0  0  0  0  0  0  0  0
   38.5230   26.9130   41.4910 N   0  0  0  0  0  0  0  0  0  0  0  0
   36.2910   29.4030   41.1610 H   0  0  0  0  0  0  0  0  0  0  0  0
   40.0820   26.4860   40.1450 H   0  0  0  0  0  0  0  0  0  0  0  0
   38.5530   30.3050   37.7590 C   0  0  2  0  0  3  0  0  0  0  0  0
   37.5460   30.0670   38.8720 C   0  0  2  0  0  3  0  0  0  0  0  0
   37.5610   31.3240   39.4790 O   0  0  0  0  0  0  0  0  0  0  0  0
   37.4010   32.2120   38.4420 C   0  0  0  0  0  2  0  0  0  0  0  0
   37.9420   31.5890   37.1790 C   0  0  1  0  0  3  0  0  0  0  0  0
   38.5710   29.2690   36.8400 O   0  0  0  0  0  0  0  0  0  0  0  0
   38.8390   29.6310   35.9650 H   0  0  0  0  0  0  0  0  0  0  0  0
   38.9200   32.3270   36.5570 O   0  0  0  0  0  0  0  0  0  0  0  0
   38.5690   32.9330   35.8580 H   0  0  0  0  0  0  0  0  0  0  0  0
   36.6600   27.5040   43.0000 C   0  0  0  0  0  0  0  0  0  0  0  0
   37.1750   26.7510   43.6290 H   0  0  0  0  0  0  0  0  0  0  0  0
   36.4690   28.4320   43.5410 H   0  0  0  0  0  0  0  0  0  0  0  0
   35.6700   27.1140   42.6810 H   0  0  0  0  0  0  0  0  0  0  0  0
  1 18  1  0  0  0  0
  2  7  1  0  0  0  0
  2  1  2  0  0  0  0
  3  2  1  0  0  0  0
  4  3  2  0  0  0  0
  4  5  1  0  0  0  0
  5  6  2  0  0  0  0
  6  1  1  0  0  0  0
  8  5  1  0  0  0  0
  9 14  1  6  0  0  0
  9 10  1  0  0  0  0
 10 11  1  0  0  0  0
 10  3  1  1  0  0  0
 12 11  1  0  0  0  0
 13 16  1  1  0  0  0
 13  9  1  0  0  0  0
 13 12  1  0  0  0  0
 15 14  1  0  0  0  0
 17 16  1  0  0  0  0
 18 20  1  0  0  0  0
 18 19  1  0  0  0  0
 21 18  1  0  0  0  0
M  END
>  <minimizedAffinity>
-4.09674311

$$$$
