
 OpenBabel03252505153D

 25 27  0  0  1  0  0  0  0  0999 V2000
   44.8860   35.6860   44.5600 C   0  0  0  0  0  0  0  0  0  0  0  0
   45.5850   35.8120   43.3500 C   0  0  0  0  0  0  0  0  0  0  0  0
   46.3500   34.7020   43.0020 C   0  0  0  0  0  0  0  0  0  0  0  0
   46.3770   33.5960   43.8210 N   0  0  0  0  0  0  0  0  0  0  0  0
   45.6780   33.5370   44.9760 C   0  0  0  0  0  0  0  0  0  0  0  0
   44.9360   34.5990   45.3270 N   0  0  0  0  0  0  0  0  0  0  0  0
   44.2850   36.5100   44.8710 H   0  0  0  0  0  0  0  0  0  0  0  0
   45.5700   36.6680   42.7080 H   0  0  0  0  0  0  0  0  0  0  0  0
   47.1430   34.6880   41.7240 C   0  0  0  0  0  0  0  0  0  0  0  0
   48.4060   35.5150   41.8130 C   0  0  0  0  0  0  0  0  0  0  0  0
   48.4090   33.9660   41.7070 C   0  0  0  0  0  0  0  0  0  0  0  0
   46.5520   34.7720   40.7810 H   0  0  0  0  0  0  0  0  0  0  0  0
   48.6490   36.0650   40.8880 H   0  0  0  0  0  0  0  0  0  0  0  0
   48.6680   35.9520   42.7780 H   0  0  0  0  0  0  0  0  0  0  0  0
   48.8230   33.5830   40.7360 H   0  0  0  0  0  0  0  0  0  0  0  0
   48.7970   33.4770   42.6160 H   0  0  0  0  0  0  0  0  0  0  0  0
   45.5150   32.3570   47.1490 C   0  0  2  0  0  3  0  0  0  0  0  0
   45.8710   32.2410   45.6790 C   0  0  2  0  0  3  0  0  0  0  0  0
   47.1990   31.8430   45.6040 O   0  0  0  0  0  0  0  0  0  0  0  0
   47.4790   31.1610   46.7860 C   0  0  0  0  0  2  0  0  0  0  0  0
   46.8710   32.1410   47.7950 C   0  0  1  0  0  3  0  0  0  0  0  0
   44.6910   31.3130   47.5610 O   0  0  0  0  0  0  0  0  0  0  0  0
   43.7790   31.3770   47.1670 H   0  0  0  0  0  0  0  0  0  0  0  0
   47.5660   33.3440   47.7100 O   0  0  0  0  0  0  0  0  0  0  0  0
   48.5120   33.1170   47.4490 H   0  0  0  0  0  0  0  0  0  0  0  0
  1  7  1  0  0  0  0
  1  6  1  0  0  0  0
  2  1  2  0  0  0  0
  3  2  1  0  0  0  0
  3  4  2  0  0  0  0
  4  5  1  0  0  0  0
  5  6  2  0  0  0  0
  8  2  1  0  0  0  0
  9 10  1  0  0  0  0
  9  3  1  0  0  0  0
 10 14  1  0  0  0  0
 11  9  1  0  0  0  0
 11 10  1  0  0  0  0
 11 16  1  0  0  0  0
 12  9  1  0  0  0  0
 13 10  1  0  0  0  0
 15 11  1  0  0  0  0
 17 22  1  1  0  0  0
 17 21  1  0  0  0  0
 18  5  1  6  0  0  0
 18 17  1  0  0  0  0
 19 18  1  0  0  0  0
 19 20  1  0  0  0  0
 20 21  1  0  0  0  0
 21 24  1  6  0  0  0
 23 22  1  0  0  0  0
 25 24  1  0  0  0  0
M  END
>  <minimizedAffinity>
-5.30361366

>  <minimizedRMSD>
0.81309098

$$$$
