
     RDKit          3D

 39 42  0  0  0  0  0  0  0  0999 V2000
   44.5307   35.8327   44.6584 C   0  0  0  0  0  0  0  0  0  0  0  0
   45.1746   35.7950   43.3990 C   0  0  0  0  0  0  0  0  0  0  0  0
   46.1028   34.7928   43.2363 C   0  0  0  0  0  0  0  0  0  0  0  0
   46.3706   33.8993   44.2437 N   0  0  0  0  0  0  0  0  0  0  0  0
   45.7162   33.9800   45.4480 C   0  0  0  0  0  0  0  0  0  0  0  0
   44.8044   34.9474   45.6381 N   0  0  0  0  0  0  0  0  0  0  0  0
   46.8218   34.6407   41.9287 C   0  0  0  0  0  0  0  0  0  0  0  0
   48.1809   35.3412   41.9315 C   0  0  0  0  0  0  0  0  0  0  0  0
   47.9825   33.7928   41.8596 C   0  0  0  0  0  0  0  0  0  0  0  0
   46.0254   33.0000   46.4853 C   0  0  0  0  0  0  0  0  0  0  0  0
   45.2102   32.9398   47.5964 C   0  0  0  0  0  0  0  0  0  0  0  0
   45.4813   32.0159   48.5953 C   0  0  0  0  0  0  0  0  0  0  0  0
   46.5738   31.1851   48.4274 C   0  0  0  0  0  0  0  0  0  0  0  0
   47.3582   31.2921   47.2871 C   0  0  0  0  0  0  0  0  0  0  0  0
   47.0936   32.1952   46.3104 N   0  0  0  0  0  0  0  0  0  0  0  0
   43.7837   36.6202   44.8232 H   0  0  0  0  0  0  0  0  0  0  0  0
   44.9399   36.5148   42.6268 H   0  0  0  0  0  0  0  0  0  0  0  0
   46.1969   34.8394   41.0282 H   0  0  0  0  0  0  0  0  0  0  0  0
   48.5784   35.6950   42.9035 H   0  0  0  0  0  0  0  0  0  0  0  0
   48.4360   35.8485   41.0040 H   0  0  0  0  0  0  0  0  0  0  0  0
   48.3524   33.2177   42.7386 H   0  0  0  0  0  0  0  0  0  0  0  0
   48.2920   33.3735   40.8863 H   0  0  0  0  0  0  0  0  0  0  0  0
   44.3508   33.5889   47.7351 H   0  0  0  0  0  0  0  0  0  0  0  0
   44.8368   31.9731   49.4667 H   0  0  0  0  0  0  0  0  0  0  0  0
   46.7982   30.4689   49.1838 H   0  0  0  0  0  0  0  0  0  0  0  0
   48.0333   29.1709   49.2015 O   0  0  0  0  0  0  0  0  0  0  0  0
   48.3713   29.0782   47.8743 C   0  0  1  0  0  0  0  0  0  0  0  0
   48.5133   30.3820   47.1557 C   0  0  2  0  0  0  0  0  0  0  0  0
   49.6865   30.8958   47.6961 O   0  0  0  0  0  0  0  0  0  0  0  0
   50.5714   29.8457   47.6031 C   0  0  0  0  0  0  0  0  0  0  0  0
   49.8109   28.5567   47.7627 C   0  0  2  0  0  0  0  0  0  0  0  0
   49.9829   27.8305   46.5683 O   0  0  0  0  0  0  0  0  0  0  0  0
   47.0654   29.1017   49.3942 H   0  0  0  0  0  0  0  0  0  0  0  0
   47.6774   28.4179   47.3060 H   0  0  0  0  0  0  0  0  0  0  0  0
   48.7511   30.1420   46.0993 H   0  0  0  0  0  0  0  0  0  0  0  0
   51.0785   29.9465   46.6192 H   0  0  0  0  0  0  0  0  0  0  0  0
   51.3689   29.8619   48.3728 H   0  0  0  0  0  0  0  0  0  0  0  0
   50.1185   27.9860   48.6379 H   0  0  0  0  0  0  0  0  0  0  0  0
   49.4129   28.2100   45.8529 H   0  0  0  0  0  0  0  0  0  0  0  0
  1  6  2  0
  2  1  1  0
  3  2  2  0
  3  4  1  0
  4  5  2  0
  5  6  1  0
  5 10  1  0
  7  3  1  0
  8  7  1  0
  9  8  1  0
  9  7  1  0
 10 11  2  0
 11 12  1  0
 13 12  2  0
 14 13  1  0
 15 10  1  0
 15 14  2  0
  1 16  1  0
  2 17  1  0
  7 18  1  0
  8 19  1  0
  8 20  1  0
  9 21  1  0
  9 22  1  0
 11 23  1  0
 12 24  1  0
 13 25  1  0
 26 27  1  0
 27 28  1  0
 28 29  1  0
 29 30  1  0
 30 31  1  0
 31 32  1  0
 31 27  1  0
 26 33  1  0
 27 34  1  6
 28 35  1  6
 30 36  1  0
 30 37  1  0
 31 38  1  1
 32 39  1  0
 14 28  1  0
M  ISO  8  16  14  17  14  18  13  19  13  20  13  21  13  22  13  23  14
M  ISO  2  24  14  25  14
M  END
>  <DihAtoms>  (1) 
12,13,27,26

>  <DihDeg>  (1) 
72.37891370587529

$$$$
