REMARK  Name = 
REMARK  5 active torsions:
REMARK  status: ('A' for Active; 'I' for Inactive)
REMARK    1  A    between atoms: C_2  and  C_14
REMARK    2  A    between atoms: C_9  and  C_16
REMARK    3  A    between atoms: C_19  and  C_32
REMARK    4  A    between atoms: O_30  and  C_31
REMARK    5  A    between atoms: C_35  and  O_36
REMARK                            x       y       z     vdW  Elec       q    Type
REMARK                         _______ _______ _______ _____ _____    ______ ____
ROOT
ATOM      1  C   UNL     1      47.266  31.393  45.151  0.00  0.00    +0.000 A 
ATOM      2  C   UNL     1      46.873  32.717  45.138  0.00  0.00    +0.000 A 
ATOM      3  C   UNL     1      46.237  33.323  46.204  0.00  0.00    +0.000 A 
ATOM      4  C   UNL     1      45.965  32.600  47.354  0.00  0.00    +0.000 A 
ATOM      5  N   UNL     1      45.378  32.845  48.561  0.00  0.00    +0.000 N 
ATOM      6  C   UNL     1      45.410  31.706  49.294  0.00  0.00    +0.000 A 
ATOM      7  N   UNL     1      46.018  30.763  48.530  0.00  0.00    +0.000 NA
ATOM      8  C   UNL     1      46.367  31.279  47.346  0.00  0.00    +0.000 A 
ATOM      9  C   UNL     1      46.998  30.652  46.303  0.00  0.00    +0.000 A 
ATOM     10  H   UNL     1      47.759  30.929  44.319  0.00  0.00    +0.000 HD
ATOM     11  H   UNL     1      45.926  34.369  46.196  0.00  0.00    +0.000 HD
ATOM     12  H   UNL     1      44.990  33.783  48.812  0.00  0.00    +0.000 HD
ATOM     13  H   UNL     1      45.005  31.613  50.312  0.00  0.00    +0.000 HD
ENDROOT
BRANCH   2  18
ATOM     14  C   UNL     1      46.484  35.192  42.435  0.00  0.00    +0.000 A 
ATOM     15  C   UNL     1      47.654  35.019  41.702  0.00  0.00    +0.000 A 
ATOM     16  C   UNL     1      48.570  34.065  42.125  0.00  0.00    +0.000 A 
ATOM     17  N   UNL     1      48.278  33.334  43.252  0.00  0.00    +0.000 NA
ATOM     18  C   UNL     1      47.139  33.519  43.946  0.00  0.00    +0.000 A 
ATOM     19  N   UNL     1      46.254  34.438  43.540  0.00  0.00    +0.000 NA
ATOM     20  H   UNL     1      45.748  35.923  42.137  0.00  0.00    +0.000 HD
ATOM     21  H   UNL     1      47.836  35.614  40.829  0.00  0.00    +0.000 HD
ATOM     22  H   UNL     1      49.496  33.884  41.598  0.00  0.00    +0.000 HD
ENDBRANCH   2  18
BRANCH   9  23
ATOM     23  C   UNL     1      47.385  29.238  46.396  0.00  0.00    +0.000 A 
ATOM     24  C   UNL     1      48.679  28.795  46.613  0.00  0.00    +0.000 A 
ATOM     25  C   UNL     1      48.549  27.404  46.624  0.00  0.00    +0.000 A 
ATOM     26  C   UNL     1      47.207  27.088  46.416  0.00  0.00    +0.000 A 
ATOM     27  O   UNL     1      46.559  28.227  46.287  0.00  0.00    +0.000 OA
ATOM     28  H   UNL     1      49.596  29.353  46.747  0.00  0.00    +0.000 HD
ATOM     29  H   UNL     1      49.325  26.674  46.764  0.00  0.00    +0.000 HD
BRANCH  26  31
ATOM     30  C   UNL     1      46.001  25.458  44.953  0.00  0.00    +0.000 C 
ATOM     31  C   UNL     1      46.556  25.776  46.342  0.00  0.00    +0.000 C 
ATOM     32  O   UNL     1      47.421  24.696  46.504  0.00  0.00    +0.000 OA
ATOM     33  C   UNL     1      46.558  23.616  46.312  0.00  0.00    +0.000 C 
ATOM     34  C   UNL     1      45.661  23.988  45.153  0.00  0.00    +0.000 C 
BRANCH  30  35
ATOM     35  O   UNL     1      47.047  25.501  44.012  0.00  0.00    +0.000 OA
ATOM     36  H   UNL     1      47.569  24.651  44.037  0.00  0.00    +0.000 HD
ENDBRANCH  30  35
BRANCH  34  37
ATOM     37  O   UNL     1      45.911  23.221  44.022  0.00  0.00    +0.000 OA
ATOM     38  H   UNL     1      45.532  23.708  43.246  0.00  0.00    +0.000 HD
ENDBRANCH  34  37
ENDBRANCH  26  31
ENDBRANCH   9  23
TORSDOF 5
