
     RDKit          3D

 24 25  0  0  0  0  0  0  0  0999 V2000
   45.0013   35.4855   44.1871 C   0  0  0  0  0  0  0  0  0  0  0  0
   45.9784   34.9304   43.3427 C   0  0  0  0  0  0  0  0  0  0  0  0
   46.7082   33.8403   43.8352 C   0  0  0  0  0  0  0  0  0  0  0  0
   46.4420   33.3750   45.0907 N   0  0  0  0  0  0  0  0  0  0  0  0
   45.4928   33.9440   45.8618 C   0  0  0  0  0  0  0  0  0  0  0  0
   44.7839   34.9812   45.4194 N   0  0  0  0  0  0  0  0  0  0  0  0
   44.2913   36.5466   43.7071 O   0  0  0  0  0  0  0  0  0  0  0  0
   46.2046   35.2799   42.3522 H   0  0  0  0  0  0  0  0  0  0  0  0
   45.3360   33.5179   46.8541 H   0  0  0  0  0  0  0  0  0  0  0  0
   44.7777   37.2351   43.1450 H   0  0  0  0  0  0  0  0  0  0  0  0
   46.8028   30.9338   42.7863 O   0  0  0  0  0  0  0  0  0  0  0  0
   47.2596   32.0743   42.1484 C   0  0  1  0  0  0  0  0  0  0  0  0
   47.7551   33.1423   43.1020 C   0  0  1  0  0  0  0  0  0  0  0  0
   48.4237   33.9767   42.2118 O   0  0  0  0  0  0  0  0  0  0  0  0
   49.2014   33.1639   41.4126 C   0  0  0  0  0  0  0  0  0  0  0  0
   48.5657   31.7988   41.3938 C   0  0  2  0  0  0  0  0  0  0  0  0
   48.3268   31.3237   40.1199 O   0  0  0  0  0  0  0  0  0  0  0  0
   46.0085   30.5235   42.3214 H   0  0  0  0  0  0  0  0  0  0  0  0
   46.5333   32.5609   41.4880 H   0  0  0  0  0  0  0  0  0  0  0  0
   48.5330   32.6530   43.7298 H   0  0  0  0  0  0  0  0  0  0  0  0
   49.3576   33.5865   40.3877 H   0  0  0  0  0  0  0  0  0  0  0  0
   50.2160   33.1277   41.9074 H   0  0  0  0  0  0  0  0  0  0  0  0
   49.1782   31.1291   42.0178 H   0  0  0  0  0  0  0  0  0  0  0  0
   48.6181   30.3772   40.0153 H   0  0  0  0  0  0  0  0  0  0  0  0
  1  6  2  0
  2  3  2  0
  2  1  1  0
  3  4  1  0
  4  5  2  0
  6  5  1  0
  7  1  1  0
  2  8  1  0
  5  9  1  0
  7 10  1  0
 11 12  1  0
 12 13  1  0
 13 14  1  0
 14 15  1  0
 15 16  1  0
 16 17  1  0
 16 12  1  0
 11 18  1  0
 12 19  1  6
 13 20  1  1
 15 21  1  0
 15 22  1  0
 16 23  1  1
 17 24  1  0
  3 13  1  0
M  ISO  3   8  14   9  14  10   3
M  END
>  <DihAtoms>  (1) 
1,2,12,11

>  <DihDeg>  (1) 
21.352162942984876

$$$$
