
     RDKit          3D

 48 51  0  0  0  0  0  0  0  0999 V2000
   46.7171   33.4668   44.9038 F   0  0  0  0  0  0  0  0  0  0  0  0
   47.2959   32.2671   44.6356 C   0  0  0  0  0  0  0  0  0  0  0  0
   48.0881   32.1651   43.5217 C   0  0  0  0  0  0  0  0  0  0  0  0
   48.6653   30.9458   43.2652 C   0  0  0  0  0  0  0  0  0  0  0  0
   48.4401   29.8826   44.1112 C   0  0  0  0  0  0  0  0  0  0  0  0
   47.6456   29.9850   45.2281 C   0  0  0  0  0  0  0  0  0  0  0  0
   47.0619   31.2212   45.4861 C   0  0  0  0  0  0  0  0  0  0  0  0
   46.2448   31.2887   46.6531 N   0  0  0  0  0  0  0  0  0  0  0  0
   45.1707   30.4445   47.1006 C   0  0  0  0  0  0  0  0  0  0  0  0
   45.5707   30.1415   48.5516 C   0  0  0  0  0  0  0  0  0  0  0  0
   46.4542   31.3039   48.9301 C   0  0  0  0  0  0  0  0  0  0  0  0
   46.2497   32.2380   47.7522 C   0  0  2  0  0  0  0  0  0  0  0  0
   45.0280   33.0817   47.8327 C   0  0  0  0  0  0  0  0  0  0  0  0
   49.4904   35.2591   42.1527 C   0  0  0  0  0  0  0  0  0  0  0  0
   48.7008   35.4887   41.0220 C   0  0  0  0  0  0  0  0  0  0  0  0
   47.6969   34.5625   40.7591 C   0  0  0  0  0  0  0  0  0  0  0  0
   47.5336   33.4990   41.5968 N   0  0  0  0  0  0  0  0  0  0  0  0
   48.2991   33.3172   42.6535 C   0  0  0  0  0  0  0  0  0  0  0  0
   49.2741   34.1897   42.9348 N   0  0  0  0  0  0  0  0  0  0  0  0
   49.2889   30.9000   42.3718 H   0  0  0  0  0  0  0  0  0  0  0  0
   48.9453   28.9616   43.8159 H   0  0  0  0  0  0  0  0  0  0  0  0
   47.4984   29.1216   45.8627 H   0  0  0  0  0  0  0  0  0  0  0  0
   45.1263   29.4797   46.5405 H   0  0  0  0  0  0  0  0  0  0  0  0
   44.1857   30.9089   47.0963 H   0  0  0  0  0  0  0  0  0  0  0  0
   44.6851   30.0274   49.2068 H   0  0  0  0  0  0  0  0  0  0  0  0
   46.1667   29.2192   48.5765 H   0  0  0  0  0  0  0  0  0  0  0  0
   46.2095   31.7602   49.9018 H   0  0  0  0  0  0  0  0  0  0  0  0
   47.5447   31.0204   48.9298 H   0  0  0  0  0  0  0  0  0  0  0  0
   47.1775   32.8726   47.6967 H   0  0  0  0  0  0  0  0  0  0  0  0
   45.3290   34.1650   47.8634 H   0  0  0  0  0  0  0  0  0  0  0  0
   44.3492   33.0058   46.9559 H   0  0  0  0  0  0  0  0  0  0  0  0
   44.4884   32.9039   48.8012 H   0  0  0  0  0  0  0  0  0  0  0  0
   50.2789   35.9625   42.3822 H   0  0  0  0  0  0  0  0  0  0  0  0
   48.9144   36.3485   40.4388 H   0  0  0  0  0  0  0  0  0  0  0  0
   44.5019   34.2637   39.3808 O   0  0  0  0  0  0  0  0  0  0  0  0
   45.7845   33.7303   39.4982 C   0  0  2  0  0  0  0  0  0  0  0  0
   46.8391   34.7776   39.5639 C   0  0  2  0  0  0  0  0  0  0  0  0
   47.5607   34.7948   38.3945 O   0  0  0  0  0  0  0  0  0  0  0  0
   47.0833   33.8279   37.5562 C   0  0  0  0  0  0  0  0  0  0  0  0
   46.1608   32.9170   38.2955 C   0  0  1  0  0  0  0  0  0  0  0  0
   46.7588   31.6986   38.5995 O   0  0  0  0  0  0  0  0  0  0  0  0
   43.9921   34.0182   40.1934 H   0  0  0  0  0  0  0  0  0  0  0  0
   45.8436   33.0540   40.4002 H   0  0  0  0  0  0  0  0  0  0  0  0
   46.3094   35.7630   39.6597 H   0  0  0  0  0  0  0  0  0  0  0  0
   47.9023   33.1714   37.1400 H   0  0  0  0  0  0  0  0  0  0  0  0
   46.5291   34.2443   36.6650 H   0  0  0  0  0  0  0  0  0  0  0  0
   45.2627   32.6498   37.6720 H   0  0  0  0  0  0  0  0  0  0  0  0
   47.6424   31.5682   38.1648 H   0  0  0  0  0  0  0  0  0  0  0  0
  2  1  1  0
  2  7  2  0
  3  2  1  0
  4  3  2  0
  4  5  1  0
  5  6  2  0
  6  7  1  0
  7  8  1  0
  8  9  1  0
  8 12  1  0
  9 10  1  0
 10 11  1  0
 12 13  1  0
 12 11  1  0
 14 19  2  0
 15 14  1  0
 16 15  2  0
 16 17  1  0
 17 18  2  0
 18 19  1  0
 18  3  1  0
  4 20  1  0
  5 21  1  0
  6 22  1  0
  9 23  1  0
  9 24  1  0
 10 25  1  0
 10 26  1  0
 11 27  1  0
 11 28  1  0
 12 29  1  6
 13 30  1  0
 13 31  1  0
 13 32  1  0
 14 33  1  0
 15 34  1  0
 35 36  1  0
 36 37  1  0
 37 38  1  0
 38 39  1  0
 39 40  1  0
 40 41  1  0
 40 36  1  0
 35 42  1  0
 36 43  1  1
 37 44  1  1
 39 45  1  0
 39 46  1  0
 40 47  1  6
 41 48  1  0
 16 37  1  0
M  ISO  8  20  14  21  14  22  14  23  13  24  13  25  13  26  13  27  13
M  ISO  7  28  13  29  13  30   8  31   8  32   8  33  14  34  14
M  END
>  <DihAtoms>  (1) 
14,15,36,35

>  <DihDeg>  (1) 
78.1537612264862

$$$$
