
 OpenBabel03242514513D

 44 47  0  0  1  0  0  0  0  0999 V2000
   36.3620   30.0180   39.3310 C   0  0  0  0  0  0  0  0  0  0  0  0
   37.0770   31.1710   39.0520 C   0  0  0  0  0  0  0  0  0  0  0  0
   37.5020   31.3430   37.7220 C   0  0  0  0  0  0  0  0  0  0  0  0
   37.2020   30.3980   36.7960 N   0  0  0  0  0  0  0  0  0  0  0  0
   36.5050   29.2980   37.1270 C   0  0  0  0  0  0  0  0  0  0  0  0
   36.0990   29.1210   38.3720 N   0  0  0  0  0  0  0  0  0  0  0  0
   38.0640   32.2040   37.3900 H   0  0  0  0  0  0  0  0  0  0  0  0
   36.3280   28.6180   36.3110 H   0  0  0  0  0  0  0  0  0  0  0  0
   38.8070   32.0920   40.5960 C   0  0  2  0  0  0  0  0  0  0  0  0
   37.3560   32.2370   40.0530 C   0  0  1  0  0  0  0  0  0  0  0  0
   37.1670   33.4990   39.6450 O   0  0  0  0  0  0  0  0  0  0  0  0
   38.3690   34.1610   39.5620 C   0  0  0  0  0  0  0  0  0  0  0  0
   39.1750   33.5880   40.6880 C   0  0  1  0  0  0  0  0  0  0  0  0
   38.8980   31.7310   41.6120 H   0  0  0  0  0  0  0  0  0  0  0  0
   36.9430   32.1450   41.0150 H   0  0  0  0  0  0  0  0  0  0  0  0
   38.7970   34.0150   38.5660 H   0  0  0  0  0  0  0  0  0  0  0  0
   38.1360   35.2480   39.7360 H   0  0  0  0  0  0  0  0  0  0  0  0
   40.2630   33.6960   40.5650 H   0  0  0  0  0  0  0  0  0  0  0  0
   39.6520   31.4370   39.7990 O   0  0  0  0  0  0  0  0  0  0  0  0
   40.0650   32.0650   39.1370 H   0  0  0  0  0  0  0  0  0  0  0  0
   38.6950   34.1580   41.8480 O   0  0  0  0  0  0  0  0  0  0  0  0
   37.7820   34.5320   41.7680 H   0  0  0  0  0  0  0  0  0  0  0  0
   35.9190   29.8100   40.7370 C   0  0  0  0  0  0  0  0  0  0  0  0
   34.8920   29.5270   40.8780 H   0  0  0  0  0  0  0  0  0  0  0  0
   35.9770   30.8610   41.1700 H   0  0  0  0  0  0  0  0  0  0  0  0
   36.2040   26.9750   40.3670 F   0  0  0  0  0  0  0  0  0  0  0  0
   36.9200   27.6060   41.2910 C   0  0  0  0  0  0  0  0  0  0  0  0
   36.8310   28.9620   41.5150 C   0  0  0  0  0  0  0  0  0  0  0  0
   37.6130   29.5420   42.4880 C   0  0  0  0  0  0  0  0  0  0  0  0
   38.4630   28.7200   43.2030 C   0  0  0  0  0  0  0  0  0  0  0  0
   38.5960   27.3670   43.0270 C   0  0  0  0  0  0  0  0  0  0  0  0
   37.7920   26.8050   42.0330 C   0  0  0  0  0  0  0  0  0  0  0  0
   37.5860   30.5970   42.7070 H   0  0  0  0  0  0  0  0  0  0  0  0
   39.0750   29.1980   43.9700 H   0  0  0  0  0  0  0  0  0  0  0  0
   39.2750   26.7900   43.6170 H   0  0  0  0  0  0  0  0  0  0  0  0
   38.3740   24.9980   40.4110 C   0  0  2  0  0  3  0  0  0  0  0  0
   37.9100   25.3370   41.8130 C   0  0  2  0  0  3  0  0  0  0  0  0
   36.6480   24.7830   41.9620 O   0  0  0  0  0  0  0  0  0  0  0  0
   36.3840   23.9370   40.9170 C   0  0  0  0  0  2  0  0  0  0  0  0
   37.7240   23.6210   40.2650 C   0  0  2  0  0  3  0  0  0  0  0  0
   39.7610   24.9060   40.3360 O   0  0  0  0  0  0  0  0  0  0  0  0
   40.0740   25.6210   39.7250 H   0  0  0  0  0  0  0  0  0  0  0  0
   38.3590   22.7060   41.0660 O   0  0  0  0  0  0  0  0  0  0  0  0
   37.9170   22.5860   41.9440 H   0  0  0  0  0  0  0  0  0  0  0  0
  1 23  1  0  0  0  0
  2  1  1  0  0  0  0
  2 10  1  0  0  0  0
  3  2  2  0  0  0  0
  4  5  2  0  0  0  0
  4  3  1  0  0  0  0
  5  6  1  0  0  0  0
  6  1  2  0  0  0  0
  7  3  1  0  0  0  0
  8  5  1  0  0  0  0
  9 13  1  0  0  0  0
  9 14  1  1  0  0  0
 10  9  1  0  0  0  0
 10 15  1  1  0  0  0
 11 10  1  0  0  0  0
 12 11  1  0  0  0  0
 12 17  1  0  0  0  0
 12 13  1  0  0  0  0
 13 18  1  6  0  0  0
 13 21  1  0  0  0  0
 16 12  1  0  0  0  0
 19  9  1  0  0  0  0
 20 19  1  0  0  0  0
 22 21  1  0  0  0  0
 23 24  1  0  0  0  0
 23 25  1  0  0  0  0
 23 28  1  0  0  0  0
 26 27  1  0  0  0  0
 27 28  2  0  0  0  0
 27 32  1  0  0  0  0
 28 29  1  0  0  0  0
 29 33  1  0  0  0  0
 29 30  2  0  0  0  0
 30 34  1  0  0  0  0
 31 30  1  0  0  0  0
 31 35  1  0  0  0  0
 32 31  2  0  0  0  0
 36 41  1  1  0  0  0
 36 37  1  0  0  0  0
 37 38  1  0  0  0  0
 37 32  1  6  0  0  0
 39 38  1  0  0  0  0
 40 36  1  0  0  0  0
 40 39  1  0  0  0  0
 40 43  1  1  0  0  0
 42 41  1  0  0  0  0
 43 44  1  0  0  0  0
M  END
>  <minimizedAffinity>
-6.99452972

$$$$

 OpenBabel03242514513D

 44 47  0  0  1  0  0  0  0  0999 V2000
   39.9500   31.5440   40.8890 C   0  0  0  0  0  0  0  0  0  0  0  0
   38.9770   31.1070   40.0060 C   0  0  0  0  0  0  0  0  0  0  0  0
   39.1240   31.5000   38.6620 C   0  0  0  0  0  0  0  0  0  0  0  0
   40.1830   32.2680   38.3010 N   0  0  0  0  0  0  0  0  0  0  0  0
   41.0950   32.6620   39.2050 C   0  0  0  0  0  0  0  0  0  0  0  0
   40.9720   32.3020   40.4700 N   0  0  0  0  0  0  0  0  0  0  0  0
   38.4280   31.2160   37.8860 H   0  0  0  0  0  0  0  0  0  0  0  0
   41.8890   33.2680   38.8040 H   0  0  0  0  0  0  0  0  0  0  0  0
   36.6610   31.0630   40.9310 C   0  0  2  0  0  0  0  0  0  0  0  0
   37.8480   30.2160   40.3880 C   0  0  1  0  0  0  0  0  0  0  0  0
   37.3950   29.3900   39.4370 O   0  0  0  0  0  0  0  0  0  0  0  0
   36.1280   29.7540   39.0480 C   0  0  0  0  0  0  0  0  0  0  0  0
   35.4970   30.2630   40.3090 C   0  0  1  0  0  0  0  0  0  0  0  0
   36.4860   31.0040   41.9970 H   0  0  0  0  0  0  0  0  0  0  0  0
   37.9200   29.6680   41.2820 H   0  0  0  0  0  0  0  0  0  0  0  0
   36.1910   30.4830   38.2360 H   0  0  0  0  0  0  0  0  0  0  0  0
   35.6290   28.8090   38.6930 H   0  0  0  0  0  0  0  0  0  0  0  0
   34.6450   30.9410   40.1460 H   0  0  0  0  0  0  0  0  0  0  0  0
   36.6370   32.3350   40.5310 O   0  0  0  0  0  0  0  0  0  0  0  0
   36.1670   32.4160   39.6510 H   0  0  0  0  0  0  0  0  0  0  0  0
   35.1800   29.1560   41.0670 O   0  0  0  0  0  0  0  0  0  0  0  0
   35.6840   28.3400   40.8240 H   0  0  0  0  0  0  0  0  0  0  0  0
   39.8020   31.1540   42.3180 C   0  0  0  0  0  0  0  0  0  0  0  0
   38.7960   31.0590   42.6860 H   0  0  0  0  0  0  0  0  0  0  0  0
   40.2100   32.0630   42.8650 H   0  0  0  0  0  0  0  0  0  0  0  0
   38.7870   28.5020   42.7600 F   0  0  0  0  0  0  0  0  0  0  0  0
   40.0840   28.7550   42.8950 C   0  0  0  0  0  0  0  0  0  0  0  0
   40.6310   30.0020   42.6950 C   0  0  0  0  0  0  0  0  0  0  0  0
   41.9880   30.1810   42.8480 C   0  0  0  0  0  0  0  0  0  0  0  0
   42.7450   29.0800   43.2020 C   0  0  0  0  0  0  0  0  0  0  0  0
   42.2590   27.8160   43.4140 C   0  0  0  0  0  0  0  0  0  0  0  0
   40.8800   27.6630   43.2510 C   0  0  0  0  0  0  0  0  0  0  0  0
   42.4710   31.1340   42.7050 H   0  0  0  0  0  0  0  0  0  0  0  0
   43.8170   29.2410   43.3190 H   0  0  0  0  0  0  0  0  0  0  0  0
   42.9020   27.0070   43.6860 H   0  0  0  0  0  0  0  0  0  0  0  0
   40.8880   25.2760   42.5170 C   0  0  2  0  0  3  0  0  0  0  0  0
   40.3160   26.3030   43.4750 C   0  0  2  0  0  3  0  0  0  0  0  0
   38.9530   26.3620   43.2300 O   0  0  0  0  0  0  0  0  0  0  0  0
   38.5790   25.3250   42.4170 C   0  0  0  0  0  2  0  0  0  0  0  0
   39.7080   24.3040   42.4700 C   0  0  2  0  0  3  0  0  0  0  0  0
   42.0210   24.6610   43.0400 O   0  0  0  0  0  0  0  0  0  0  0  0
   42.7850   24.8940   42.4510 H   0  0  0  0  0  0  0  0  0  0  0  0
   39.5930   23.6340   43.6610 O   0  0  0  0  0  0  0  0  0  0  0  0
   38.9470   24.0540   44.2820 H   0  0  0  0  0  0  0  0  0  0  0  0
  1 23  1  0  0  0  0
  2 10  1  0  0  0  0
  2  1  2  0  0  0  0
  3  2  1  0  0  0  0
  4  3  2  0  0  0  0
  4  5  1  0  0  0  0
  5  6  2  0  0  0  0
  6  1  1  0  0  0  0
  7  3  1  0  0  0  0
  8  5  1  0  0  0  0
  9 14  1  1  0  0  0
 10  9  1  0  0  0  0
 10 15  1  1  0  0  0
 11 10  1  0  0  0  0
 12 11  1  0  0  0  0
 12 13  1  0  0  0  0
 13 18  1  6  0  0  0
 13  9  1  0  0  0  0
 13 21  1  0  0  0  0
 16 12  1  0  0  0  0
 17 12  1  0  0  0  0
 19  9  1  0  0  0  0
 20 19  1  0  0  0  0
 22 21  1  0  0  0  0
 23 24  1  0  0  0  0
 23 28  1  0  0  0  0
 23 25  1  0  0  0  0
 26 27  1  0  0  0  0
 27 32  1  0  0  0  0
 28 29  1  0  0  0  0
 28 27  2  0  0  0  0
 29 30  2  0  0  0  0
 30 34  1  0  0  0  0
 30 31  1  0  0  0  0
 31 35  1  0  0  0  0
 32 31  2  0  0  0  0
 33 29  1  0  0  0  0
 36 41  1  1  0  0  0
 36 37  1  0  0  0  0
 37 32  1  6  0  0  0
 38 37  1  0  0  0  0
 39 40  1  0  0  0  0
 39 38  1  0  0  0  0
 40 36  1  0  0  0  0
 40 43  1  1  0  0  0
 42 41  1  0  0  0  0
 43 44  1  0  0  0  0
M  END
>  <minimizedAffinity>
-6.92817354

$$$$

 OpenBabel03242514513D

 44 47  0  0  1  0  0  0  0  0999 V2000
   38.3100   29.4290   42.2710 C   0  0  0  0  0  0  0  0  0  0  0  0
   37.9870   29.8350   40.9870 C   0  0  0  0  0  0  0  0  0  0  0  0
   38.6520   30.9760   40.5000 C   0  0  0  0  0  0  0  0  0  0  0  0
   39.5560   31.6110   41.2880 N   0  0  0  0  0  0  0  0  0  0  0  0
   39.8270   31.1690   42.5280 C   0  0  0  0  0  0  0  0  0  0  0  0
   39.2110   30.1000   43.0000 N   0  0  0  0  0  0  0  0  0  0  0  0
   38.4810   31.3810   39.5140 H   0  0  0  0  0  0  0  0  0  0  0  0
   40.5590   31.7520   43.0600 H   0  0  0  0  0  0  0  0  0  0  0  0
   35.5740   29.4870   40.4560 C   0  0  2  0  0  0  0  0  0  0  0  0
   37.0400   29.1060   40.0990 C   0  0  1  0  0  0  0  0  0  0  0  0
   37.2220   29.2610   38.7810 O   0  0  0  0  0  0  0  0  0  0  0  0
   36.1810   29.9690   38.2320 C   0  0  0  0  0  0  0  0  0  0  0  0
   34.9880   29.5320   39.0280 C   0  0  1  0  0  0  0  0  0  0  0  0
   34.9950   28.7240   40.9580 H   0  0  0  0  0  0  0  0  0  0  0  0
   36.8630   28.0870   40.2810 H   0  0  0  0  0  0  0  0  0  0  0  0
   36.4020   31.0390   38.2810 H   0  0  0  0  0  0  0  0  0  0  0  0
   36.1060   29.6300   37.1610 H   0  0  0  0  0  0  0  0  0  0  0  0
   34.1470   30.2410   39.0090 H   0  0  0  0  0  0  0  0  0  0  0  0
   35.4230   30.6600   41.0730 O   0  0  0  0  0  0  0  0  0  0  0  0
   35.3510   31.4010   40.4030 H   0  0  0  0  0  0  0  0  0  0  0  0
   34.6530   28.2730   38.5790 O   0  0  0  0  0  0  0  0  0  0  0  0
   35.3870   27.8000   38.1110 H   0  0  0  0  0  0  0  0  0  0  0  0
   37.6030   28.2350   42.8090 C   0  0  0  0  0  0  0  0  0  0  0  0
   36.6120   28.0560   42.4330 H   0  0  0  0  0  0  0  0  0  0  0  0
   37.4370   28.5170   43.8980 H   0  0  0  0  0  0  0  0  0  0  0  0
   37.1850   26.0320   41.0120 F   0  0  0  0  0  0  0  0  0  0  0  0
   38.1690   25.9930   41.9030 C   0  0  0  0  0  0  0  0  0  0  0  0
   38.4220   27.0160   42.7880 C   0  0  0  0  0  0  0  0  0  0  0  0
   39.4670   26.9020   43.6780 C   0  0  0  0  0  0  0  0  0  0  0  0
   40.2230   25.7450   43.6350 C   0  0  0  0  0  0  0  0  0  0  0  0
   40.0210   24.6950   42.7790 C   0  0  0  0  0  0  0  0  0  0  0  0
   38.9550   24.8370   41.8870 C   0  0  0  0  0  0  0  0  0  0  0  0
   39.7120   27.6710   44.3930 H   0  0  0  0  0  0  0  0  0  0  0  0
   41.0470   25.6730   44.3470 H   0  0  0  0  0  0  0  0  0  0  0  0
   40.6450   23.8280   42.8000 H   0  0  0  0  0  0  0  0  0  0  0  0
   38.7960   24.1490   39.4920 C   0  0  2  0  0  3  0  0  0  0  0  0
   38.7050   23.7140   40.9420 C   0  0  2  0  0  3  0  0  0  0  0  0
   37.4090   23.2680   41.1450 O   0  0  0  0  0  0  0  0  0  0  0  0
   36.7650   23.1420   39.9420 C   0  0  0  0  0  2  0  0  0  0  0  0
   37.8470   23.1230   38.8710 C   0  0  2  0  0  3  0  0  0  0  0  0
   40.0870   24.0030   38.9920 O   0  0  0  0  0  0  0  0  0  0  0  0
   40.4190   24.9070   38.7590 H   0  0  0  0  0  0  0  0  0  0  0  0
   38.4150   21.8740   38.8890 O   0  0  0  0  0  0  0  0  0  0  0  0
   38.1410   21.3360   39.6740 H   0  0  0  0  0  0  0  0  0  0  0  0
  1 23  1  0  0  0  0
  1  6  1  0  0  0  0
  2  1  2  0  0  0  0
  3  2  1  0  0  0  0
  3  4  2  0  0  0  0
  4  5  1  0  0  0  0
  5  6  2  0  0  0  0
  5  8  1  0  0  0  0
  7  3  1  0  0  0  0
  9 14  1  1  0  0  0
  9 19  1  0  0  0  0
 10 15  1  1  0  0  0
 10  9  1  0  0  0  0
 10  2  1  0  0  0  0
 11 10  1  0  0  0  0
 12 16  1  0  0  0  0
 12 11  1  0  0  0  0
 12 13  1  0  0  0  0
 13 18  1  6  0  0  0
 13  9  1  0  0  0  0
 17 12  1  0  0  0  0
 20 19  1  0  0  0  0
 21 13  1  0  0  0  0
 22 21  1  0  0  0  0
 23 25  1  0  0  0  0
 24 23  1  0  0  0  0
 26 27  1  0  0  0  0
 27 28  1  0  0  0  0
 28 23  1  0  0  0  0
 28 29  2  0  0  0  0
 29 33  1  0  0  0  0
 30 29  1  0  0  0  0
 30 34  1  0  0  0  0
 31 35  1  0  0  0  0
 31 30  2  0  0  0  0
 32 27  2  0  0  0  0
 32 31  1  0  0  0  0
 36 41  1  6  0  0  0
 36 37  1  0  0  0  0
 37 38  1  0  0  0  0
 37 32  1  1  0  0  0
 39 38  1  0  0  0  0
 40 43  1  1  0  0  0
 40 36  1  0  0  0  0
 40 39  1  0  0  0  0
 42 41  1  0  0  0  0
 43 44  1  0  0  0  0
M  END
>  <minimizedAffinity>
-6.42533922

$$$$

 OpenBabel03242514513D

 44 47  0  0  1  0  0  0  0  0999 V2000
   38.0210   26.5500   42.1520 C   0  0  0  0  0  0  0  0  0  0  0  0
   37.1470   27.1310   41.2490 C   0  0  0  0  0  0  0  0  0  0  0  0
   36.7450   26.3350   40.1590 C   0  0  0  0  0  0  0  0  0  0  0  0
   37.2190   25.0690   40.0450 N   0  0  0  0  0  0  0  0  0  0  0  0
   38.0670   24.5610   40.9540 C   0  0  0  0  0  0  0  0  0  0  0  0
   38.4540   25.2940   41.9830 N   0  0  0  0  0  0  0  0  0  0  0  0
   36.0650   26.6830   39.3950 H   0  0  0  0  0  0  0  0  0  0  0  0
   38.3770   23.5480   40.7590 H   0  0  0  0  0  0  0  0  0  0  0  0
   37.4000   29.5150   40.5600 C   0  0  2  0  0  0  0  0  0  0  0  0
   36.5800   28.4990   41.4050 C   0  0  1  0  0  0  0  0  0  0  0  0
   35.2800   28.6390   41.1150 O   0  0  0  0  0  0  0  0  0  0  0  0
   35.1200   29.4020   39.9830 C   0  0  0  0  0  0  0  0  0  0  0  0
   36.2370   30.3980   40.0590 C   0  0  1  0  0  0  0  0  0  0  0  0
   38.0310   30.1950   41.1170 H   0  0  0  0  0  0  0  0  0  0  0  0
   36.7680   29.0230   42.2950 H   0  0  0  0  0  0  0  0  0  0  0  0
   35.1380   28.7550   39.1010 H   0  0  0  0  0  0  0  0  0  0  0  0
   34.1170   29.9020   40.0850 H   0  0  0  0  0  0  0  0  0  0  0  0
   36.5160   30.8410   39.0910 H   0  0  0  0  0  0  0  0  0  0  0  0
   38.0790   28.9920   39.5380 O   0  0  0  0  0  0  0  0  0  0  0  0
   37.4970   28.9330   38.7250 H   0  0  0  0  0  0  0  0  0  0  0  0
   35.8690   31.3330   41.0030 O   0  0  0  0  0  0  0  0  0  0  0  0
   35.1730   31.0210   41.6340 H   0  0  0  0  0  0  0  0  0  0  0  0
   38.4700   27.3820   43.3020 C   0  0  0  0  0  0  0  0  0  0  0  0
   38.3090   26.9720   44.2820 H   0  0  0  0  0  0  0  0  0  0  0  0
   37.7600   28.2690   43.2550 H   0  0  0  0  0  0  0  0  0  0  0  0
   39.1170   30.1590   42.9410 F   0  0  0  0  0  0  0  0  0  0  0  0
   40.0800   29.2450   42.9740 C   0  0  0  0  0  0  0  0  0  0  0  0
   39.8350   27.9010   43.1460 C   0  0  0  0  0  0  0  0  0  0  0  0
   40.8900   27.0170   43.1750 C   0  0  0  0  0  0  0  0  0  0  0  0
   42.1650   27.5330   43.0280 C   0  0  0  0  0  0  0  0  0  0  0  0
   42.4710   28.8570   42.8540 C   0  0  0  0  0  0  0  0  0  0  0  0
   41.3820   29.7320   42.8290 C   0  0  0  0  0  0  0  0  0  0  0  0
   40.7590   25.9550   43.3070 H   0  0  0  0  0  0  0  0  0  0  0  0
   42.9870   26.8170   43.0540 H   0  0  0  0  0  0  0  0  0  0  0  0
   43.4810   29.1890   42.7460 H   0  0  0  0  0  0  0  0  0  0  0  0
   42.1600   31.4930   41.2390 C   0  0  2  0  0  3  0  0  0  0  0  0
   41.6770   31.1800   42.6410 C   0  0  2  0  0  3  0  0  0  0  0  0
   42.7070   31.5180   43.5040 O   0  0  0  0  0  0  0  0  0  0  0  0
   43.6640   32.2310   42.8300 C   0  0  0  0  0  2  0  0  0  0  0  0
   43.0130   32.7240   41.5450 C   0  0  2  0  0  3  0  0  0  0  0  0
   41.1030   31.8160   40.3910 O   0  0  0  0  0  0  0  0  0  0  0  0
   41.0690   31.1240   39.6820 H   0  0  0  0  0  0  0  0  0  0  0  0
   42.2150   33.7890   41.8780 O   0  0  0  0  0  0  0  0  0  0  0  0
   42.0940   33.8920   42.8550 H   0  0  0  0  0  0  0  0  0  0  0  0
  1 23  1  0  0  0  0
  2 10  1  0  0  0  0
  2  1  2  0  0  0  0
  3  2  1  0  0  0  0
  4  3  2  0  0  0  0
  4  5  1  0  0  0  0
  5  6  2  0  0  0  0
  6  1  1  0  0  0  0
  7  3  1  0  0  0  0
  8  5  1  0  0  0  0
  9 14  1  1  0  0  0
  9 10  1  0  0  0  0
 10 15  1  1  0  0  0
 11 10  1  0  0  0  0
 12 13  1  0  0  0  0
 12 17  1  0  0  0  0
 12 11  1  0  0  0  0
 13 18  1  6  0  0  0
 13  9  1  0  0  0  0
 13 21  1  0  0  0  0
 16 12  1  0  0  0  0
 19  9  1  0  0  0  0
 20 19  1  0  0  0  0
 21 22  1  0  0  0  0
 23 24  1  0  0  0  0
 25 23  1  0  0  0  0
 26 27  1  0  0  0  0
 27 28  1  0  0  0  0
 28 29  2  0  0  0  0
 28 23  1  0  0  0  0
 29 33  1  0  0  0  0
 30 34  1  0  0  0  0
 30 29  1  0  0  0  0
 31 30  2  0  0  0  0
 32 31  1  0  0  0  0
 32 27  2  0  0  0  0
 35 31  1  0  0  0  0
 36 41  1  6  0  0  0
 36 40  1  0  0  0  0
 36 37  1  0  0  0  0
 37 32  1  6  0  0  0
 37 38  1  0  0  0  0
 39 38  1  0  0  0  0
 40 43  1  1  0  0  0
 40 39  1  0  0  0  0
 42 41  1  0  0  0  0
 43 44  1  0  0  0  0
M  END
>  <minimizedAffinity>
-6.33390331

$$$$

 OpenBabel03242514513D

 44 47  0  0  1  0  0  0  0  0999 V2000
   38.2730   26.6910   42.4700 C   0  0  0  0  0  0  0  0  0  0  0  0
   38.0110   25.5650   41.7080 C   0  0  0  0  0  0  0  0  0  0  0  0
   38.7840   24.4220   41.9860 C   0  0  0  0  0  0  0  0  0  0  0  0
   39.7260   24.4730   42.9600 N   0  0  0  0  0  0  0  0  0  0  0  0
   39.9360   25.5970   43.6660 C   0  0  0  0  0  0  0  0  0  0  0  0
   39.2180   26.6780   43.4180 N   0  0  0  0  0  0  0  0  0  0  0  0
   38.6650   23.4880   41.4570 H   0  0  0  0  0  0  0  0  0  0  0  0
   40.7090   25.5190   44.4120 H   0  0  0  0  0  0  0  0  0  0  0  0
   37.4840   25.9640   39.3020 C   0  0  2  0  0  0  0  0  0  0  0  0
   36.9370   25.4900   40.6790 C   0  0  1  0  0  0  0  0  0  0  0  0
   36.3440   24.2990   40.5260 O   0  0  0  0  0  0  0  0  0  0  0  0
   36.6620   23.7580   39.3030 C   0  0  0  0  0  0  0  0  0  0  0  0
   36.7570   24.9480   38.3970 C   0  0  1  0  0  0  0  0  0  0  0  0
   37.1330   26.9270   38.9590 H   0  0  0  0  0  0  0  0  0  0  0  0
   36.1870   26.2250   40.6800 H   0  0  0  0  0  0  0  0  0  0  0  0
   37.5790   23.1700   39.3920 H   0  0  0  0  0  0  0  0  0  0  0  0
   35.7950   23.0960   39.0230 H   0  0  0  0  0  0  0  0  0  0  0  0
   37.3600   24.7790   37.4920 H   0  0  0  0  0  0  0  0  0  0  0  0
   38.8070   25.8780   39.1540 O   0  0  0  0  0  0  0  0  0  0  0  0
   39.0640   24.9650   38.8330 H   0  0  0  0  0  0  0  0  0  0  0  0
   35.4640   25.3440   38.1280 O   0  0  0  0  0  0  0  0  0  0  0  0
   34.7960   25.0230   38.7840 H   0  0  0  0  0  0  0  0  0  0  0  0
   37.4760   27.9150   42.1780 C   0  0  0  0  0  0  0  0  0  0  0  0
   36.6620   28.1260   42.8470 H   0  0  0  0  0  0  0  0  0  0  0  0
   36.9650   27.6470   41.1990 H   0  0  0  0  0  0  0  0  0  0  0  0
   37.7120   29.2300   39.6350 F   0  0  0  0  0  0  0  0  0  0  0  0
   38.3760   29.6870   40.6900 C   0  0  0  0  0  0  0  0  0  0  0  0
   38.3040   29.1030   41.9350 C   0  0  0  0  0  0  0  0  0  0  0  0
   39.0190   29.6410   42.9810 C   0  0  0  0  0  0  0  0  0  0  0  0
   39.7880   30.7610   42.7230 C   0  0  0  0  0  0  0  0  0  0  0  0
   39.9010   31.3860   41.5090 C   0  0  0  0  0  0  0  0  0  0  0  0
   39.1640   30.8200   40.4660 C   0  0  0  0  0  0  0  0  0  0  0  0
   39.0000   29.2270   43.9760 H   0  0  0  0  0  0  0  0  0  0  0  0
   40.3480   31.1730   43.5640 H   0  0  0  0  0  0  0  0  0  0  0  0
   40.5150   32.2510   41.3800 H   0  0  0  0  0  0  0  0  0  0  0  0
   40.3270   30.8410   38.2570 C   0  0  2  0  0  3  0  0  0  0  0  0
   39.2630   31.4730   39.1310 C   0  0  2  0  0  3  0  0  0  0  0  0
   39.6390   32.7910   39.3300 O   0  0  0  0  0  0  0  0  0  0  0  0
   40.6690   33.1150   38.4850 C   0  0  0  0  0  2  0  0  0  0  0  0
   40.6850   32.0520   37.3950 C   0  0  2  0  0  3  0  0  0  0  0  0
   39.8080   29.8100   37.4780 O   0  0  0  0  0  0  0  0  0  0  0  0
   40.2560   28.9710   37.7590 H   0  0  0  0  0  0  0  0  0  0  0  0
   39.6610   32.3430   36.5300 O   0  0  0  0  0  0  0  0  0  0  0  0
   39.0460   33.0380   36.8770 H   0  0  0  0  0  0  0  0  0  0  0  0
  1  6  1  0  0  0  0
  2  3  1  0  0  0  0
  2  1  2  0  0  0  0
  3  4  2  0  0  0  0
  4  5  1  0  0  0  0
  5  8  1  0  0  0  0
  6  5  2  0  0  0  0
  7  3  1  0  0  0  0
  9 14  1  6  0  0  0
  9 10  1  0  0  0  0
 10 15  1  1  0  0  0
 10  2  1  0  0  0  0
 11 10  1  0  0  0  0
 12 16  1  0  0  0  0
 12 11  1  0  0  0  0
 13 18  1  6  0  0  0
 13  9  1  0  0  0  0
 13 12  1  0  0  0  0
 17 12  1  0  0  0  0
 19  9  1  0  0  0  0
 20 19  1  0  0  0  0
 21 13  1  0  0  0  0
 21 22  1  0  0  0  0
 23  1  1  0  0  0  0
 23 24  1  0  0  0  0
 25 23  1  0  0  0  0
 26 27  1  0  0  0  0
 27 28  1  0  0  0  0
 28 23  1  0  0  0  0
 28 29  2  0  0  0  0
 29 33  1  0  0  0  0
 30 29  1  0  0  0  0
 30 34  1  0  0  0  0
 31 30  2  0  0  0  0
 32 27  2  0  0  0  0
 32 31  1  0  0  0  0
 35 31  1  0  0  0  0
 36 41  1  6  0  0  0
 36 37  1  0  0  0  0
 37 38  1  0  0  0  0
 37 32  1  1  0  0  0
 39 38  1  0  0  0  0
 40 43  1  6  0  0  0
 40 36  1  0  0  0  0
 40 39  1  0  0  0  0
 41 42  1  0  0  0  0
 43 44  1  0  0  0  0
M  END
>  <minimizedAffinity>
-6.31592655

$$$$

 OpenBabel03242514513D

 44 47  0  0  1  0  0  0  0  0999 V2000
   37.0770   30.6610   39.9970 C   0  0  0  0  0  0  0  0  0  0  0  0
   38.0280   30.3830   39.0290 C   0  0  0  0  0  0  0  0  0  0  0  0
   38.8520   31.4510   38.6300 C   0  0  0  0  0  0  0  0  0  0  0  0
   38.6850   32.6730   39.1960 N   0  0  0  0  0  0  0  0  0  0  0  0
   37.7430   32.8820   40.1310 C   0  0  0  0  0  0  0  0  0  0  0  0
   36.9610   31.8900   40.5160 N   0  0  0  0  0  0  0  0  0  0  0  0
   39.6280   31.3500   37.8860 H   0  0  0  0  0  0  0  0  0  0  0  0
   37.7020   33.8900   40.5070 H   0  0  0  0  0  0  0  0  0  0  0  0
   37.6150   28.9430   37.0340 C   0  0  2  0  0  0  0  0  0  0  0  0
   38.2520   29.0290   38.4500 C   0  0  1  0  0  0  0  0  0  0  0  0
   39.5240   28.6170   38.3820 O   0  0  0  0  0  0  0  0  0  0  0  0
   39.9340   28.5370   37.0730 C   0  0  0  0  0  0  0  0  0  0  0  0
   38.7040   28.0990   36.3370 C   0  0  1  0  0  0  0  0  0  0  0  0
   36.7190   28.3420   36.9540 H   0  0  0  0  0  0  0  0  0  0  0  0
   37.6730   28.2280   38.8050 H   0  0  0  0  0  0  0  0  0  0  0  0
   40.3420   29.5020   36.7590 H   0  0  0  0  0  0  0  0  0  0  0  0
   40.7320   27.7430   37.0460 H   0  0  0  0  0  0  0  0  0  0  0  0
   38.7100   28.3400   35.2630 H   0  0  0  0  0  0  0  0  0  0  0  0
   37.4420   30.1110   36.4130 O   0  0  0  0  0  0  0  0  0  0  0  0
   38.2730   30.3700   35.9180 H   0  0  0  0  0  0  0  0  0  0  0  0
   38.5460   26.7540   36.5960 O   0  0  0  0  0  0  0  0  0  0  0  0
   39.0190   26.4390   37.4060 H   0  0  0  0  0  0  0  0  0  0  0  0
   36.1840   29.5470   40.4180 C   0  0  0  0  0  0  0  0  0  0  0  0
   35.7000   28.9980   39.6310 H   0  0  0  0  0  0  0  0  0  0  0  0
   35.3320   30.0970   40.9330 H   0  0  0  0  0  0  0  0  0  0  0  0
   36.5410   26.7200   40.0500 F   0  0  0  0  0  0  0  0  0  0  0  0
   36.9370   27.3050   41.1750 C   0  0  0  0  0  0  0  0  0  0  0  0
   36.7960   28.6540   41.4100 C   0  0  0  0  0  0  0  0  0  0  0  0
   37.2390   29.1860   42.6000 C   0  0  0  0  0  0  0  0  0  0  0  0
   37.8140   28.3230   43.5150 C   0  0  0  0  0  0  0  0  0  0  0  0
   37.9810   26.9740   43.3380 C   0  0  0  0  0  0  0  0  0  0  0  0
   37.5240   26.4610   42.1220 C   0  0  0  0  0  0  0  0  0  0  0  0
   37.1560   30.2340   42.8390 H   0  0  0  0  0  0  0  0  0  0  0  0
   38.1590   28.7620   44.4510 H   0  0  0  0  0  0  0  0  0  0  0  0
   38.4350   26.3640   44.0890 H   0  0  0  0  0  0  0  0  0  0  0  0
   38.4820   24.6950   40.6400 C   0  0  2  0  0  3  0  0  0  0  0  0
   37.6890   24.9990   41.8960 C   0  0  2  0  0  3  0  0  0  0  0  0
   36.4290   24.4520   41.7150 O   0  0  0  0  0  0  0  0  0  0  0  0
   36.4270   23.6380   40.6130 C   0  0  0  0  0  2  0  0  0  0  0  0
   37.8850   23.3290   40.3000 C   0  0  2  0  0  3  0  0  0  0  0  0
   39.8450   24.5930   40.9050 O   0  0  0  0  0  0  0  0  0  0  0  0
   40.3000   25.3220   40.4100 H   0  0  0  0  0  0  0  0  0  0  0  0
   38.3030   22.3860   41.2050 O   0  0  0  0  0  0  0  0  0  0  0  0
   37.6590   22.2460   41.9440 H   0  0  0  0  0  0  0  0  0  0  0  0
  1 23  1  0  0  0  0
  1  6  1  0  0  0  0
  2  1  2  0  0  0  0
  3  2  1  0  0  0  0
  3  4  2  0  0  0  0
  4  5  1  0  0  0  0
  5  8  1  0  0  0  0
  5  6  2  0  0  0  0
  7  3  1  0  0  0  0
  9 14  1  1  0  0  0
  9 10  1  0  0  0  0
 10 15  1  1  0  0  0
 10  2  1  0  0  0  0
 11 10  1  0  0  0  0
 12 11  1  0  0  0  0
 13 18  1  6  0  0  0
 13 21  1  0  0  0  0
 13  9  1  0  0  0  0
 13 12  1  0  0  0  0
 16 12  1  0  0  0  0
 17 12  1  0  0  0  0
 19  9  1  0  0  0  0
 20 19  1  0  0  0  0
 21 22  1  0  0  0  0
 23 25  1  0  0  0  0
 23 28  1  0  0  0  0
 24 23  1  0  0  0  0
 26 27  1  0  0  0  0
 27 28  2  0  0  0  0
 27 32  1  0  0  0  0
 28 29  1  0  0  0  0
 29 33  1  0  0  0  0
 29 30  2  0  0  0  0
 30 34  1  0  0  0  0
 31 30  1  0  0  0  0
 31 35  1  0  0  0  0
 32 31  2  0  0  0  0
 36 41  1  1  0  0  0
 36 37  1  0  0  0  0
 37 32  1  6  0  0  0
 38 37  1  0  0  0  0
 39 38  1  0  0  0  0
 40 39  1  0  0  0  0
 40 36  1  0  0  0  0
 40 43  1  1  0  0  0
 42 41  1  0  0  0  0
 43 44  1  0  0  0  0
M  END
>  <minimizedAffinity>
-6.2942152

$$$$

 OpenBabel03242514513D

 44 47  0  0  1  0  0  0  0  0999 V2000
   38.1190   27.1410   41.4370 C   0  0  0  0  0  0  0  0  0  0  0  0
   38.2620   25.7650   41.5050 C   0  0  0  0  0  0  0  0  0  0  0  0
   39.0030   25.2610   42.5910 C   0  0  0  0  0  0  0  0  0  0  0  0
   39.5300   26.1220   43.4980 N   0  0  0  0  0  0  0  0  0  0  0  0
   39.3580   27.4490   43.3770 C   0  0  0  0  0  0  0  0  0  0  0  0
   38.6650   27.9370   42.3640 N   0  0  0  0  0  0  0  0  0  0  0  0
   39.1770   24.2060   42.7470 H   0  0  0  0  0  0  0  0  0  0  0  0
   39.8220   28.0320   44.1540 H   0  0  0  0  0  0  0  0  0  0  0  0
   38.5810   24.5800   39.3330 C   0  0  2  0  0  0  0  0  0  0  0  0
   37.6350   24.8160   40.5450 C   0  0  1  0  0  0  0  0  0  0  0  0
   37.2580   23.6300   41.0410 O   0  0  0  0  0  0  0  0  0  0  0  0
   38.0410   22.6240   40.5270 C   0  0  0  0  0  0  0  0  0  0  0  0
   38.3280   23.0720   39.1260 C   0  0  1  0  0  0  0  0  0  0  0  0
   38.2770   25.0330   38.3990 H   0  0  0  0  0  0  0  0  0  0  0  0
   36.8610   25.1650   39.9260 H   0  0  0  0  0  0  0  0  0  0  0  0
   38.9230   22.4890   41.1590 H   0  0  0  0  0  0  0  0  0  0  0  0
   37.4010   21.6980   40.5390 H   0  0  0  0  0  0  0  0  0  0  0  0
   39.2250   22.6170   38.6810 H   0  0  0  0  0  0  0  0  0  0  0  0
   39.8720   24.8230   39.5620 O   0  0  0  0  0  0  0  0  0  0  0  0
   40.3180   24.0120   39.9440 H   0  0  0  0  0  0  0  0  0  0  0  0
   37.1800   22.8470   38.3960 O   0  0  0  0  0  0  0  0  0  0  0  0
   36.3600   22.7660   38.9440 H   0  0  0  0  0  0  0  0  0  0  0  0
   37.3530   27.6920   40.2860 C   0  0  0  0  0  0  0  0  0  0  0  0
   36.3750   27.2790   40.1200 H   0  0  0  0  0  0  0  0  0  0  0  0
   37.9590   27.3320   39.3930 H   0  0  0  0  0  0  0  0  0  0  0  0
   39.3610   29.2990   39.0050 F   0  0  0  0  0  0  0  0  0  0  0  0
   38.3330   29.8740   39.6180 C   0  0  0  0  0  0  0  0  0  0  0  0
   37.3380   29.1600   40.2470 C   0  0  0  0  0  0  0  0  0  0  0  0
   36.3010   29.8310   40.8550 C   0  0  0  0  0  0  0  0  0  0  0  0
   36.3110   31.2120   40.8010 C   0  0  0  0  0  0  0  0  0  0  0  0
   37.2700   31.9770   40.1920 C   0  0  0  0  0  0  0  0  0  0  0  0
   38.3100   31.2710   39.5820 C   0  0  0  0  0  0  0  0  0  0  0  0
   35.4950   29.3250   41.3620 H   0  0  0  0  0  0  0  0  0  0  0  0
   35.4810   31.7260   41.2880 H   0  0  0  0  0  0  0  0  0  0  0  0
   37.2160   33.0450   40.1880 H   0  0  0  0  0  0  0  0  0  0  0  0
   39.6240   31.6130   37.4870 C   0  0  2  0  0  3  0  0  0  0  0  0
   39.3720   32.0700   38.9100 C   0  0  2  0  0  3  0  0  0  0  0  0
   40.5540   31.8780   39.6070 O   0  0  0  0  0  0  0  0  0  0  0  0
   41.5700   31.5940   38.7330 C   0  0  0  0  0  2  0  0  0  0  0  0
   41.0900   32.0280   37.3540 C   0  0  2  0  0  3  0  0  0  0  0  0
   38.8260   32.3020   36.5770 O   0  0  0  0  0  0  0  0  0  0  0  0
   38.2250   31.6400   36.1480 H   0  0  0  0  0  0  0  0  0  0  0  0
   41.1970   33.3940   37.2990 O   0  0  0  0  0  0  0  0  0  0  0  0
   41.3820   33.8050   38.1810 H   0  0  0  0  0  0  0  0  0  0  0  0
  1  2  2  0  0  0  0
  1  6  1  0  0  0  0
  2  3  1  0  0  0  0
  3  7  1  0  0  0  0
  3  4  2  0  0  0  0
  5  4  1  0  0  0  0
  5  8  1  0  0  0  0
  6  5  2  0  0  0  0
  9 14  1  6  0  0  0
  9 19  1  0  0  0  0
  9 10  1  0  0  0  0
 10 15  1  6  0  0  0
 10 11  1  0  0  0  0
 10  2  1  0  0  0  0
 12 17  1  0  0  0  0
 12 11  1  0  0  0  0
 12 16  1  0  0  0  0
 13 18  1  6  0  0  0
 13  9  1  0  0  0  0
 13 12  1  0  0  0  0
 19 20  1  0  0  0  0
 21 22  1  0  0  0  0
 21 13  1  0  0  0  0
 23  1  1  0  0  0  0
 24 23  1  0  0  0  0
 25 23  1  0  0  0  0
 26 27  1  0  0  0  0
 27 28  1  0  0  0  0
 28 23  1  0  0  0  0
 28 29  2  0  0  0  0
 29 33  1  0  0  0  0
 30 29  1  0  0  0  0
 30 34  1  0  0  0  0
 31 30  2  0  0  0  0
 32 27  2  0  0  0  0
 32 31  1  0  0  0  0
 35 31  1  0  0  0  0
 36 41  1  6  0  0  0
 36 37  1  0  0  0  0
 37 32  1  1  0  0  0
 37 38  1  0  0  0  0
 39 38  1  0  0  0  0
 40 43  1  1  0  0  0
 40 36  1  0  0  0  0
 40 39  1  0  0  0  0
 42 41  1  0  0  0  0
 43 44  1  0  0  0  0
M  END
>  <minimizedAffinity>
-6.28144407

$$$$

 OpenBabel03242514513D

 44 47  0  0  1  0  0  0  0  0999 V2000
   37.3330   28.0900   40.3110 C   0  0  0  0  0  0  0  0  0  0  0  0
   37.6020   29.3210   40.8850 C   0  0  0  0  0  0  0  0  0  0  0  0
   37.4900   29.4020   42.2860 C   0  0  0  0  0  0  0  0  0  0  0  0
   37.1340   28.3000   42.9930 N   0  0  0  0  0  0  0  0  0  0  0  0
   36.8840   27.1310   42.3780 C   0  0  0  0  0  0  0  0  0  0  0  0
   36.9850   27.0390   41.0640 N   0  0  0  0  0  0  0  0  0  0  0  0
   37.6770   30.3100   42.8400 H   0  0  0  0  0  0  0  0  0  0  0  0
   36.6100   26.3280   43.0410 H   0  0  0  0  0  0  0  0  0  0  0  0
   36.8930   31.5510   40.0190 C   0  0  2  0  0  0  0  0  0  0  0  0
   38.0500   30.5150   40.1170 C   0  0  1  0  0  0  0  0  0  0  0  0
   39.1510   31.1320   40.5660 O   0  0  0  0  0  0  0  0  0  0  0  0
   38.8360   32.3730   41.0660 C   0  0  0  0  0  0  0  0  0  0  0  0
   37.7210   32.8440   40.1820 C   0  0  1  0  0  0  0  0  0  0  0  0
   36.4290   31.6520   39.0470 H   0  0  0  0  0  0  0  0  0  0  0  0
   38.1280   30.4410   39.0720 H   0  0  0  0  0  0  0  0  0  0  0  0
   38.5810   32.2860   42.1250 H   0  0  0  0  0  0  0  0  0  0  0  0
   39.7590   33.0030   40.9320 H   0  0  0  0  0  0  0  0  0  0  0  0
   37.0840   33.6210   40.6330 H   0  0  0  0  0  0  0  0  0  0  0  0
   35.9600   31.4560   40.9670 O   0  0  0  0  0  0  0  0  0  0  0  0
   36.2300   31.9780   41.7770 H   0  0  0  0  0  0  0  0  0  0  0  0
   38.2970   33.2300   38.9910 O   0  0  0  0  0  0  0  0  0  0  0  0
   39.1940   32.8450   38.8290 H   0  0  0  0  0  0  0  0  0  0  0  0
   37.4300   27.9900   38.8290 C   0  0  0  0  0  0  0  0  0  0  0  0
   38.2340   27.3920   38.4410 H   0  0  0  0  0  0  0  0  0  0  0  0
   37.7070   29.0520   38.5290 H   0  0  0  0  0  0  0  0  0  0  0  0
   35.5600   29.9520   37.8740 F   0  0  0  0  0  0  0  0  0  0  0  0
   35.2950   28.6560   37.7480 C   0  0  0  0  0  0  0  0  0  0  0  0
   36.1510   27.6690   38.1830 C   0  0  0  0  0  0  0  0  0  0  0  0
   35.8060   26.3470   38.0100 C   0  0  0  0  0  0  0  0  0  0  0  0
   34.5980   26.0740   37.3970 C   0  0  0  0  0  0  0  0  0  0  0  0
   33.7060   27.0110   36.9440 C   0  0  0  0  0  0  0  0  0  0  0  0
   34.0810   28.3430   37.1320 C   0  0  0  0  0  0  0  0  0  0  0  0
   36.4360   25.5330   38.3290 H   0  0  0  0  0  0  0  0  0  0  0  0
   34.3420   25.0210   37.2680 H   0  0  0  0  0  0  0  0  0  0  0  0
   32.7870   26.7290   36.4780 H   0  0  0  0  0  0  0  0  0  0  0  0
   31.6930   29.0560   36.9760 C   0  0  2  0  0  3  0  0  0  0  0  0
   33.1350   29.3890   36.6520 C   0  0  2  0  0  3  0  0  0  0  0  0
   33.2320   29.4470   35.2710 O   0  0  0  0  0  0  0  0  0  0  0  0
   31.9800   29.4380   34.7150 C   0  0  0  0  0  2  0  0  0  0  0  0
   31.0080   29.8010   35.8290 C   0  0  2  0  0  3  0  0  0  0  0  0
   31.3090   29.5760   38.2090 O   0  0  0  0  0  0  0  0  0  0  0  0
   31.0920   28.8110   38.8000 H   0  0  0  0  0  0  0  0  0  0  0  0
   31.0970   31.1560   36.0190 O   0  0  0  0  0  0  0  0  0  0  0  0
   31.8630   31.5650   35.5440 H   0  0  0  0  0  0  0  0  0  0  0  0
  1  2  2  0  0  0  0
  1  6  1  0  0  0  0
  2  3  1  0  0  0  0
  3  7  1  0  0  0  0
  3  4  2  0  0  0  0
  5  4  1  0  0  0  0
  5  8  1  0  0  0  0
  6  5  2  0  0  0  0
  9 14  1  6  0  0  0
  9 10  1  0  0  0  0
  9 13  1  0  0  0  0
  9 19  1  0  0  0  0
 10 15  1  6  0  0  0
 10 11  1  0  0  0  0
 10  2  1  0  0  0  0
 11 12  1  0  0  0  0
 12 16  1  0  0  0  0
 13 18  1  1  0  0  0
 13 12  1  0  0  0  0
 17 12  1  0  0  0  0
 19 20  1  0  0  0  0
 21 13  1  0  0  0  0
 22 21  1  0  0  0  0
 23  1  1  0  0  0  0
 24 23  1  0  0  0  0
 25 23  1  0  0  0  0
 27 26  1  0  0  0  0
 27 28  1  0  0  0  0
 28 23  1  0  0  0  0
 29 28  2  0  0  0  0
 29 33  1  0  0  0  0
 30 29  1  0  0  0  0
 31 32  1  0  0  0  0
 31 30  2  0  0  0  0
 32 27  2  0  0  0  0
 34 30  1  0  0  0  0
 35 31  1  0  0  0  0
 36 41  1  1  0  0  0
 37 36  1  0  0  0  0
 37 32  1  6  0  0  0
 38 37  1  0  0  0  0
 39 38  1  0  0  0  0
 39 40  1  0  0  0  0
 40 43  1  1  0  0  0
 40 36  1  0  0  0  0
 41 42  1  0  0  0  0
 44 43  1  0  0  0  0
M  END
>  <minimizedAffinity>
-6.27924633

$$$$

 OpenBabel03242514513D

 44 47  0  0  1  0  0  0  0  0999 V2000
   37.6440   26.2130   41.3420 C   0  0  0  0  0  0  0  0  0  0  0  0
   38.8930   25.6260   41.2300 C   0  0  0  0  0  0  0  0  0  0  0  0
   39.0070   24.5540   40.3250 C   0  0  0  0  0  0  0  0  0  0  0  0
   37.9180   24.1540   39.6210 N   0  0  0  0  0  0  0  0  0  0  0  0
   36.7300   24.7640   39.7740 C   0  0  0  0  0  0  0  0  0  0  0  0
   36.6070   25.7710   40.6190 N   0  0  0  0  0  0  0  0  0  0  0  0
   39.9320   24.0230   40.1540 H   0  0  0  0  0  0  0  0  0  0  0  0
   35.9390   24.3600   39.1650 H   0  0  0  0  0  0  0  0  0  0  0  0
   40.3920   25.1750   43.1730 C   0  0  2  0  0  0  0  0  0  0  0  0
   40.1030   26.1010   41.9570 C   0  0  1  0  0  0  0  0  0  0  0  0
   41.2200   26.2290   41.2300 O   0  0  0  0  0  0  0  0  0  0  0  0
   42.1510   25.2920   41.6110 C   0  0  0  0  0  0  0  0  0  0  0  0
   41.9330   25.1490   43.0870 C   0  0  1  0  0  0  0  0  0  0  0  0
   40.1850   25.5950   44.1480 H   0  0  0  0  0  0  0  0  0  0  0  0
   40.0200   26.9500   42.5700 H   0  0  0  0  0  0  0  0  0  0  0  0
   42.0050   24.3770   41.0310 H   0  0  0  0  0  0  0  0  0  0  0  0
   43.1560   25.7460   41.3870 H   0  0  0  0  0  0  0  0  0  0  0  0
   42.2980   24.2000   43.5080 H   0  0  0  0  0  0  0  0  0  0  0  0
   39.8860   23.9440   43.0850 O   0  0  0  0  0  0  0  0  0  0  0  0
   40.5180   23.3400   42.5980 H   0  0  0  0  0  0  0  0  0  0  0  0
   42.4920   26.2620   43.6790 O   0  0  0  0  0  0  0  0  0  0  0  0
   42.6120   27.0300   43.0670 H   0  0  0  0  0  0  0  0  0  0  0  0
   37.5010   27.3370   42.3070 C   0  0  0  0  0  0  0  0  0  0  0  0
   38.2220   27.3790   43.1030 H   0  0  0  0  0  0  0  0  0  0  0  0
   36.5250   27.0860   42.8340 H   0  0  0  0  0  0  0  0  0  0  0  0
   39.6160   29.2430   41.9180 F   0  0  0  0  0  0  0  0  0  0  0  0
   38.3830   29.5140   41.5030 C   0  0  0  0  0  0  0  0  0  0  0  0
   37.3290   28.6430   41.6590 C   0  0  0  0  0  0  0  0  0  0  0  0
   36.0820   28.9970   41.1950 C   0  0  0  0  0  0  0  0  0  0  0  0
   35.9490   30.2310   40.5870 C   0  0  0  0  0  0  0  0  0  0  0  0
   36.9580   31.1390   40.4030 C   0  0  0  0  0  0  0  0  0  0  0  0
   38.2130   30.7550   40.8820 C   0  0  0  0  0  0  0  0  0  0  0  0
   35.2200   28.3550   41.2890 H   0  0  0  0  0  0  0  0  0  0  0  0
   34.9540   30.4930   40.2260 H   0  0  0  0  0  0  0  0  0  0  0  0
   36.7860   32.0780   39.9230 H   0  0  0  0  0  0  0  0  0  0  0  0
   38.8470   33.1190   40.3870 C   0  0  2  0  0  3  0  0  0  0  0  0
   39.3340   31.7180   40.7010 C   0  0  2  0  0  3  0  0  0  0  0  0
   40.0810   31.3000   39.6100 O   0  0  0  0  0  0  0  0  0  0  0  0
   40.3200   32.3600   38.7750 C   0  0  0  0  0  2  0  0  0  0  0  0
   40.0500   33.6200   39.5860 C   0  0  2  0  0  3  0  0  0  0  0  0
   38.6690   33.8720   41.5440 O   0  0  0  0  0  0  0  0  0  0  0  0
   37.7040   34.0940   41.6080 H   0  0  0  0  0  0  0  0  0  0  0  0
   41.1280   33.8110   40.4120 O   0  0  0  0  0  0  0  0  0  0  0  0
   41.7400   33.0320   40.4360 H   0  0  0  0  0  0  0  0  0  0  0  0
  1 23  1  0  0  0  0
  2  1  1  0  0  0  0
  2 10  1  0  0  0  0
  3  2  2  0  0  0  0
  4  5  2  0  0  0  0
  4  3  1  0  0  0  0
  5  6  1  0  0  0  0
  6  1  2  0  0  0  0
  7  3  1  0  0  0  0
  8  5  1  0  0  0  0
  9 14  1  1  0  0  0
 10 15  1  1  0  0  0
 10  9  1  0  0  0  0
 11 12  1  0  0  0  0
 11 10  1  0  0  0  0
 12 13  1  0  0  0  0
 13  9  1  0  0  0  0
 13 18  1  1  0  0  0
 13 21  1  0  0  0  0
 16 12  1  0  0  0  0
 17 12  1  0  0  0  0
 19  9  1  0  0  0  0
 20 19  1  0  0  0  0
 22 21  1  0  0  0  0
 23 25  1  0  0  0  0
 23 24  1  0  0  0  0
 27 28  1  0  0  0  0
 27 26  1  0  0  0  0
 28 23  1  0  0  0  0
 29 33  1  0  0  0  0
 29 28  2  0  0  0  0
 30 29  1  0  0  0  0
 31 30  2  0  0  0  0
 31 32  1  0  0  0  0
 32 27  2  0  0  0  0
 34 30  1  0  0  0  0
 35 31  1  0  0  0  0
 36 37  1  0  0  0  0
 36 41  1  1  0  0  0
 37 32  1  6  0  0  0
 38 37  1  0  0  0  0
 39 40  1  0  0  0  0
 39 38  1  0  0  0  0
 40 36  1  0  0  0  0
 40 43  1  1  0  0  0
 41 42  1  0  0  0  0
 43 44  1  0  0  0  0
M  END
>  <minimizedAffinity>
-6.27047729

$$$$
