
 OpenBabel03242510093D

 28 30  0  0  1  0  0  0  0  0999 V2000
   44.6380   33.1720   41.1160 Br  0  0  0  0  0  0  0  0  0  0  0  0
   46.3390   34.0300   40.8960 C   0  0  0  0  0  0  0  0  0  0  0  0
   46.8770   34.7740   41.9310 C   0  0  0  0  0  0  0  0  0  0  0  0
   48.1070   35.4000   41.7840 C   0  0  0  0  0  0  0  0  0  0  0  0
   48.7680   35.2590   40.5940 C   0  0  0  0  0  0  0  0  0  0  0  0
   48.2090   34.5160   39.5890 C   0  0  0  0  0  0  0  0  0  0  0  0
   47.0050   33.8890   39.7010 C   0  0  0  0  0  0  0  0  0  0  0  0
   48.5360   35.9790   42.5750 H   0  0  0  0  0  0  0  0  0  0  0  0
   49.7300   35.7380   40.4550 H   0  0  0  0  0  0  0  0  0  0  0  0
   48.7520   34.4210   38.6610 H   0  0  0  0  0  0  0  0  0  0  0  0
   45.6420   34.0230   45.2840 C   0  0  0  0  0  0  0  0  0  0  0  0
   44.7220   35.0690   45.5380 C   0  0  0  0  0  0  0  0  0  0  0  0
   44.5420   36.0260   44.5310 C   0  0  0  0  0  0  0  0  0  0  0  0
   45.2560   35.8930   43.3890 N   0  0  0  0  0  0  0  0  0  0  0  0
   46.1270   34.8870   43.1700 C   0  0  0  0  0  0  0  0  0  0  0  0
   46.3150   33.9480   44.1330 N   0  0  0  0  0  0  0  0  0  0  0  0
   45.7220   33.3280   46.1090 H   0  0  0  0  0  0  0  0  0  0  0  0
   44.1550   35.1760   46.4460 H   0  0  0  0  0  0  0  0  0  0  0  0
   43.8730   36.8680   44.6030 H   0  0  0  0  0  0  0  0  0  0  0  0
   46.8730   31.6540   38.5860 C   0  0  1  0  0  3  0  0  0  0  0  0
   46.3980   33.0930   38.6380 C   0  0  2  0  0  3  0  0  0  0  0  0
   46.6740   33.5020   37.3440 O   0  0  0  0  0  0  0  0  0  0  0  0
   45.9610   32.5320   36.6060 C   0  0  0  0  0  2  0  0  0  0  0  0
   46.1840   31.2200   37.2930 C   0  0  2  0  0  3  0  0  0  0  0  0
   48.2430   31.5820   38.3170 O   0  0  0  0  0  0  0  0  0  0  0  0
   48.4400   31.7550   37.3610 H   0  0  0  0  0  0  0  0  0  0  0  0
   44.9700   30.6270   37.6640 O   0  0  0  0  0  0  0  0  0  0  0  0
   44.3060   31.3210   37.8350 H   0  0  0  0  0  0  0  0  0  0  0  0
  2  1  1  0  0  0  0
  2  3  1  0  0  0  0
  3 15  1  0  0  0  0
  4  3  2  0  0  0  0
  4  8  1  0  0  0  0
  5  4  1  0  0  0  0
  6  7  1  0  0  0  0
  6  5  2  0  0  0  0
  7  2  2  0  0  0  0
  9  5  1  0  0  0  0
 10  6  1  0  0  0  0
 11 12  1  0  0  0  0
 11 17  1  0  0  0  0
 12 18  1  0  0  0  0
 13 19  1  0  0  0  0
 13 12  2  0  0  0  0
 14 13  1  0  0  0  0
 15 14  2  0  0  0  0
 15 16  1  0  0  0  0
 16 11  2  0  0  0  0
 20 25  1  6  0  0  0
 20 21  1  0  0  0  0
 21  7  1  1  0  0  0
 22 21  1  0  0  0  0
 23 24  1  0  0  0  0
 23 22  1  0  0  0  0
 24 27  1  1  0  0  0
 24 20  1  0  0  0  0
 26 25  1  0  0  0  0
 27 28  1  0  0  0  0
M  END
>  <minimizedAffinity>
-5.65667582

>  <minimizedRMSD>
0.150448948

$$$$
