
     RDKit          3D

 30 32  0  0  0  0  0  0  0  0999 V2000
   44.6163   35.9505   44.3379 C   0  0  0  0  0  0  0  0  0  0  0  0
   45.3527   35.9187   43.1360 C   0  0  0  0  0  0  0  0  0  0  0  0
   46.2744   34.8917   43.0101 C   0  0  0  0  0  0  0  0  0  0  0  0
   46.4399   33.9708   44.0159 N   0  0  0  0  0  0  0  0  0  0  0  0
   45.7058   34.0373   45.1637 C   0  0  0  0  0  0  0  0  0  0  0  0
   44.8033   35.0282   45.3080 N   0  0  0  0  0  0  0  0  0  0  0  0
   47.0903   34.7571   41.7556 C   0  0  1  0  0  0  0  0  0  0  0  0
   48.4062   35.5023   41.8238 C   0  0  0  0  0  0  0  0  0  0  0  0
   48.3081   33.9574   41.8070 C   0  0  2  0  0  0  0  0  0  0  0  0
   43.8966   36.7308   44.4673 H   0  0  0  0  0  0  0  0  0  0  0  0
   45.2018   36.6566   42.3609 H   0  0  0  0  0  0  0  0  0  0  0  0
   45.9372   33.2507   45.8691 H   0  0  0  0  0  0  0  0  0  0  0  0
   46.5004   34.9028   40.8194 H   0  0  0  0  0  0  0  0  0  0  0  0
   48.6922   35.9967   40.8947 H   0  0  0  0  0  0  0  0  0  0  0  0
   48.6704   35.9977   42.7549 H   0  0  0  0  0  0  0  0  0  0  0  0
   48.5735   33.5182   42.7964 H   0  0  0  0  0  0  0  0  0  0  0  0
   49.7841   31.1214   41.0779 O   0  0  0  0  0  0  0  0  0  0  0  0
   48.6418   31.8108   40.6209 C   0  0  1  0  0  0  0  0  0  0  0  0
   48.9018   33.2969   40.6010 C   0  0  1  0  0  0  0  0  0  0  0  0
   48.3173   33.7918   39.4594 O   0  0  0  0  0  0  0  0  0  0  0  0
   48.2699   32.8129   38.4970 C   0  0  0  0  0  0  0  0  0  0  0  0
   48.4737   31.4761   39.1518 C   0  0  2  0  0  0  0  0  0  0  0  0
   47.3349   30.6950   38.9513 O   0  0  0  0  0  0  0  0  0  0  0  0
   50.5949   31.6948   41.0824 H   0  0  0  0  0  0  0  0  0  0  0  0
   47.7489   31.5163   41.1915 H   0  0  0  0  0  0  0  0  0  0  0  0
   49.9997   33.4402   40.5987 H   0  0  0  0  0  0  0  0  0  0  0  0
   47.2811   32.8546   37.9531 H   0  0  0  0  0  0  0  0  0  0  0  0
   49.0900   33.0225   37.7519 H   0  0  0  0  0  0  0  0  0  0  0  0
   49.3880   30.9854   38.7292 H   0  0  0  0  0  0  0  0  0  0  0  0
   47.0907   30.7168   37.9933 H   0  0  0  0  0  0  0  0  0  0  0  0
  1  6  2  0
  2  1  1  0
  3  2  2  0
  3  4  1  0
  4  5  2  0
  5  6  1  0
  7  8  1  0
  7  9  1  0
  7  3  1  0
  8  9  1  0
  1 10  1  0
  2 11  1  0
  5 12  1  0
  7 13  1  6
  8 14  1  0
  8 15  1  0
  9 16  1  1
 17 18  1  0
 18 19  1  0
 19 20  1  0
 20 21  1  0
 21 22  1  0
 22 23  1  0
 22 18  1  0
 17 24  1  0
 18 25  1  1
 19 26  1  6
 21 27  1  0
 21 28  1  0
 22 29  1  6
 23 30  1  0
  9 19  1  0
M  ISO  7  10  14  11  14  12  14  13  13  14  13  15  13  16  13
M  END
>  <DihAtoms>  (1) 
6,8,18,17

>  <DihDeg>  (1) 
-60.02382293189363

$$$$
