
 OpenBabel03252502543D

 31 33  0  0  1  0  0  0  0  0999 V2000
   39.4020   31.1310   41.7530 Br  0  0  0  0  0  0  0  0  0  0  0  0
   37.7590   30.2120   41.3070 C   0  0  0  0  0  0  0  0  0  0  0  0
   37.4050   29.1740   42.1250 C   0  0  0  0  0  0  0  0  0  0  0  0
   36.2110   28.5350   41.7680 C   0  0  0  0  0  0  0  0  0  0  0  0
   35.4400   28.9090   40.6840 C   0  0  0  0  0  0  0  0  0  0  0  0
   35.8650   29.9680   39.9070 C   0  0  0  0  0  0  0  0  0  0  0  0
   37.0430   30.6390   40.2140 C   0  0  0  0  0  0  0  0  0  0  0  0
   35.8820   27.6990   42.3880 H   0  0  0  0  0  0  0  0  0  0  0  0
   34.5360   28.3800   40.4630 H   0  0  0  0  0  0  0  0  0  0  0  0
   35.2940   30.2970   39.0470 H   0  0  0  0  0  0  0  0  0  0  0  0
   38.0380   31.3540   38.0510 C   0  0  1  0  0  3  0  0  0  0  0  0
   37.4830   31.7760   39.3640 C   0  0  2  0  0  3  0  0  0  0  0  0
   38.3160   32.6640   39.9790 O   0  0  0  0  0  0  0  0  0  0  0  0
   39.3770   32.9570   39.1490 C   0  0  0  0  0  2  0  0  0  0  0  0
   39.4550   31.8710   38.1100 C   0  0  2  0  0  3  0  0  0  0  0  0
   38.0450   29.9700   37.8760 O   0  0  0  0  0  0  0  0  0  0  0  0
   38.0720   29.7110   36.9300 H   0  0  0  0  0  0  0  0  0  0  0  0
   39.8980   32.3430   36.8740 O   0  0  0  0  0  0  0  0  0  0  0  0
   40.6690   32.9410   37.0330 H   0  0  0  0  0  0  0  0  0  0  0  0
   38.1410   28.6920   43.2950 C   0  0  0  0  0  0  0  0  0  0  0  0
   37.4250   28.4100   44.1000 H   0  0  0  0  0  0  0  0  0  0  0  0
   38.7830   29.4870   43.7600 H   0  0  0  0  0  0  0  0  0  0  0  0
   39.2700   25.2380   42.4430 C   0  0  0  0  0  0  0  0  0  0  0  0
   40.6600   25.3630   42.5130 C   0  0  0  0  0  0  0  0  0  0  0  0
   41.1740   26.6010   42.8440 C   0  0  0  0  0  0  0  0  0  0  0  0
   40.3370   27.6430   43.0880 N   0  0  0  0  0  0  0  0  0  0  0  0
   38.9660   27.4850   43.0090 C   0  0  0  0  0  0  0  0  0  0  0  0
   38.4780   26.2750   42.6870 N   0  0  0  0  0  0  0  0  0  0  0  0
   38.7670   24.3080   42.1910 H   0  0  0  0  0  0  0  0  0  0  0  0
   41.2640   24.4990   42.3100 H   0  0  0  0  0  0  0  0  0  0  0  0
   42.2490   26.7250   42.9060 H   0  0  0  0  0  0  0  0  0  0  0  0
  2  1  1  0  0  0  0
  2  3  1  0  0  0  0
  3 20  1  0  0  0  0
  4  3  2  0  0  0  0
  4  8  1  0  0  0  0
  5  4  1  0  0  0  0
  6  7  1  0  0  0  0
  6  5  2  0  0  0  0
  7  2  2  0  0  0  0
  9  5  1  0  0  0  0
 10  6  1  0  0  0  0
 11 16  1  1  0  0  0
 11 15  1  0  0  0  0
 11 12  1  0  0  0  0
 12 13  1  0  0  0  0
 12  7  1  1  0  0  0
 14 13  1  0  0  0  0
 15 18  1  6  0  0  0
 15 14  1  0  0  0  0
 17 16  1  0  0  0  0
 18 19  1  0  0  0  0
 20 22  1  0  0  0  0
 20 21  1  0  0  0  0
 23 24  2  0  0  0  0
 23 28  1  0  0  0  0
 24 25  1  0  0  0  0
 25 31  1  0  0  0  0
 25 26  2  0  0  0  0
 27 26  1  0  0  0  0
 27 20  1  0  0  0  0
 28 27  2  0  0  0  0
 29 23  1  0  0  0  0
 30 24  1  0  0  0  0
M  END
>  <minimizedAffinity>
-5.71068525

$$$$

 OpenBabel03252502543D

 31 33  0  0  1  0  0  0  0  0999 V2000
   36.8840   29.7460   41.1540 Br  0  0  0  0  0  0  0  0  0  0  0  0
   38.7810   29.7290   41.5320 C   0  0  0  0  0  0  0  0  0  0  0  0
   39.1860   28.9240   42.5620 C   0  0  0  0  0  0  0  0  0  0  0  0
   40.5650   28.9410   42.8040 C   0  0  0  0  0  0  0  0  0  0  0  0
   41.4590   29.7000   42.0720 C   0  0  0  0  0  0  0  0  0  0  0  0
   40.9720   30.4860   41.0480 C   0  0  0  0  0  0  0  0  0  0  0  0
   39.6110   30.5090   40.7630 C   0  0  0  0  0  0  0  0  0  0  0  0
   40.9420   28.3160   43.6160 H   0  0  0  0  0  0  0  0  0  0  0  0
   42.5030   29.6680   42.3070 H   0  0  0  0  0  0  0  0  0  0  0  0
   41.6340   31.0980   40.4470 H   0  0  0  0  0  0  0  0  0  0  0  0
   38.8090   32.7580   40.0720 C   0  0  1  0  0  3  0  0  0  0  0  0
   39.1080   31.3630   39.6560 C   0  0  2  0  0  3  0  0  0  0  0  0
   38.0660   30.8340   38.9510 O   0  0  0  0  0  0  0  0  0  0  0  0
   37.0910   31.7930   38.7740 C   0  0  0  0  0  2  0  0  0  0  0  0
   37.3310   32.8780   39.7890 C   0  0  2  0  0  3  0  0  0  0  0  0
   39.0510   32.9910   41.4260 O   0  0  0  0  0  0  0  0  0  0  0  0
   39.1940   33.9420   41.6240 H   0  0  0  0  0  0  0  0  0  0  0  0
   36.9850   34.1420   39.3120 O   0  0  0  0  0  0  0  0  0  0  0  0
   36.1120   34.0680   38.8540 H   0  0  0  0  0  0  0  0  0  0  0  0
   38.3320   28.0810   43.4020 C   0  0  0  0  0  0  0  0  0  0  0  0
   37.3070   28.5130   43.4470 H   0  0  0  0  0  0  0  0  0  0  0  0
   38.6710   28.0540   44.4720 H   0  0  0  0  0  0  0  0  0  0  0  0
   37.0800   24.9740   41.7580 C   0  0  0  0  0  0  0  0  0  0  0  0
   38.1210   24.0760   42.0070 C   0  0  0  0  0  0  0  0  0  0  0  0
   39.2100   24.5410   42.7170 C   0  0  0  0  0  0  0  0  0  0  0  0
   39.2430   25.8300   43.1480 N   0  0  0  0  0  0  0  0  0  0  0  0
   38.1940   26.6910   42.8840 C   0  0  0  0  0  0  0  0  0  0  0  0
   37.1410   26.2270   42.1930 N   0  0  0  0  0  0  0  0  0  0  0  0
   36.1810   24.7060   41.2100 H   0  0  0  0  0  0  0  0  0  0  0  0
   38.0320   23.0710   41.6390 H   0  0  0  0  0  0  0  0  0  0  0  0
   40.0320   23.8650   42.9240 H   0  0  0  0  0  0  0  0  0  0  0  0
  1  2  1  0  0  0  0
  2  3  1  0  0  0  0
  3  4  2  0  0  0  0
  3 20  1  0  0  0  0
  4  8  1  0  0  0  0
  5  9  1  0  0  0  0
  5  4  1  0  0  0  0
  6  5  2  0  0  0  0
  7  6  1  0  0  0  0
  7  2  2  0  0  0  0
 10  6  1  0  0  0  0
 11 16  1  1  0  0  0
 12 11  1  0  0  0  0
 12  7  1  1  0  0  0
 13 12  1  0  0  0  0
 14 13  1  0  0  0  0
 14 15  1  0  0  0  0
 15 18  1  6  0  0  0
 15 11  1  0  0  0  0
 16 17  1  0  0  0  0
 19 18  1  0  0  0  0
 20 21  1  0  0  0  0
 20 22  1  0  0  0  0
 23 24  2  0  0  0  0
 23 28  1  0  0  0  0
 24 25  1  0  0  0  0
 25 31  1  0  0  0  0
 25 26  2  0  0  0  0
 27 26  1  0  0  0  0
 27 20  1  0  0  0  0
 28 27  2  0  0  0  0
 29 23  1  0  0  0  0
 30 24  1  0  0  0  0
M  END
>  <minimizedAffinity>
-5.61024427

$$$$

 OpenBabel03252502543D

 31 33  0  0  1  0  0  0  0  0999 V2000
   40.0660   27.8790   40.2810 Br  0  0  0  0  0  0  0  0  0  0  0  0
   38.7220   27.7850   41.6700 C   0  0  0  0  0  0  0  0  0  0  0  0
   38.5660   28.9060   42.4390 C   0  0  0  0  0  0  0  0  0  0  0  0
   37.5860   28.7980   43.4320 C   0  0  0  0  0  0  0  0  0  0  0  0
   36.8270   27.6600   43.6340 C   0  0  0  0  0  0  0  0  0  0  0  0
   37.0430   26.5700   42.8160 C   0  0  0  0  0  0  0  0  0  0  0  0
   38.0050   26.6220   41.8130 C   0  0  0  0  0  0  0  0  0  0  0  0
   37.4210   29.6640   44.0750 H   0  0  0  0  0  0  0  0  0  0  0  0
   36.0910   27.6400   44.4120 H   0  0  0  0  0  0  0  0  0  0  0  0
   36.4730   25.6560   42.9360 H   0  0  0  0  0  0  0  0  0  0  0  0
   37.2890   25.3710   39.7870 C   0  0  1  0  0  3  0  0  0  0  0  0
   38.2220   25.4360   40.9430 C   0  0  2  0  0  3  0  0  0  0  0  0
   38.2620   24.2410   41.6000 O   0  0  0  0  0  0  0  0  0  0  0  0
   37.4850   23.3180   40.9340 C   0  0  0  0  0  2  0  0  0  0  0  0
   36.5500   24.0780   40.0310 C   0  0  2  0  0  3  0  0  0  0  0  0
   36.3850   26.4330   39.7500 O   0  0  0  0  0  0  0  0  0  0  0  0
   36.0240   26.5880   38.8500 H   0  0  0  0  0  0  0  0  0  0  0  0
   36.2760   23.3940   38.8470 O   0  0  0  0  0  0  0  0  0  0  0  0
   36.0960   22.4490   39.0740 H   0  0  0  0  0  0  0  0  0  0  0  0
   39.3110   30.1620   42.3160 C   0  0  0  0  0  0  0  0  0  0  0  0
   40.3170   29.9610   41.8830 H   0  0  0  0  0  0  0  0  0  0  0  0
   39.5260   30.6350   43.3120 H   0  0  0  0  0  0  0  0  0  0  0  0
   36.9760   31.8520   39.9470 C   0  0  0  0  0  0  0  0  0  0  0  0
   37.5580   33.1150   39.8200 C   0  0  0  0  0  0  0  0  0  0  0  0
   38.7150   33.3610   40.5330 C   0  0  0  0  0  0  0  0  0  0  0  0
   39.2470   32.3910   41.3210 N   0  0  0  0  0  0  0  0  0  0  0  0
   38.6450   31.1510   41.4240 C   0  0  0  0  0  0  0  0  0  0  0  0
   37.5200   30.9240   40.7250 N   0  0  0  0  0  0  0  0  0  0  0  0
   36.0670   31.5600   39.4280 H   0  0  0  0  0  0  0  0  0  0  0  0
   37.0860   33.8360   39.1780 H   0  0  0  0  0  0  0  0  0  0  0  0
   39.1870   34.3330   40.4520 H   0  0  0  0  0  0  0  0  0  0  0  0
  1  2  1  0  0  0  0
  2  7  2  0  0  0  0
  2  3  1  0  0  0  0
  3  4  2  0  0  0  0
  4  5  1  0  0  0  0
  4  8  1  0  0  0  0
  5  9  1  0  0  0  0
  6 10  1  0  0  0  0
  6  5  2  0  0  0  0
  7  6  1  0  0  0  0
 11 16  1  1  0  0  0
 11 15  1  0  0  0  0
 11 12  1  0  0  0  0
 12 13  1  0  0  0  0
 12  7  1  1  0  0  0
 14 13  1  0  0  0  0
 15 18  1  6  0  0  0
 15 14  1  0  0  0  0
 17 16  1  0  0  0  0
 18 19  1  0  0  0  0
 20  3  1  0  0  0  0
 20 22  1  0  0  0  0
 21 20  1  0  0  0  0
 23 28  1  0  0  0  0
 24 23  2  0  0  0  0
 24 25  1  0  0  0  0
 25 26  2  0  0  0  0
 26 27  1  0  0  0  0
 27 20  1  0  0  0  0
 28 27  2  0  0  0  0
 29 23  1  0  0  0  0
 30 24  1  0  0  0  0
 31 25  1  0  0  0  0
M  END
>  <minimizedAffinity>
-5.47226715

$$$$

 OpenBabel03252502543D

 31 33  0  0  1  0  0  0  0  0999 V2000
   36.6000   31.0450   40.5830 Br  0  0  0  0  0  0  0  0  0  0  0  0
   38.2690   30.4690   41.3720 C   0  0  0  0  0  0  0  0  0  0  0  0
   38.2030   29.3910   42.2110 C   0  0  0  0  0  0  0  0  0  0  0  0
   39.4310   29.0060   42.7620 C   0  0  0  0  0  0  0  0  0  0  0  0
   40.6230   29.6500   42.4910 C   0  0  0  0  0  0  0  0  0  0  0  0
   40.6080   30.7310   41.6340 C   0  0  0  0  0  0  0  0  0  0  0  0
   39.4170   31.1570   41.0580 C   0  0  0  0  0  0  0  0  0  0  0  0
   39.4340   28.1500   43.4390 H   0  0  0  0  0  0  0  0  0  0  0  0
   41.5310   29.3070   42.9450 H   0  0  0  0  0  0  0  0  0  0  0  0
   41.5180   31.2680   41.3920 H   0  0  0  0  0  0  0  0  0  0  0  0
   39.7040   31.9610   38.7230 C   0  0  1  0  0  3  0  0  0  0  0  0
   39.4230   32.3240   40.1370 C   0  0  2  0  0  3  0  0  0  0  0  0
   40.2100   33.3650   40.5340 O   0  0  0  0  0  0  0  0  0  0  0  0
   40.9640   33.8110   39.4700 C   0  0  0  0  0  2  0  0  0  0  0  0
   40.9760   32.7200   38.4330 C   0  0  2  0  0  3  0  0  0  0  0  0
   39.9150   30.5940   38.5380 O   0  0  0  0  0  0  0  0  0  0  0  0
   39.7530   30.3110   37.6120 H   0  0  0  0  0  0  0  0  0  0  0  0
   41.0090   33.2190   37.1310 O   0  0  0  0  0  0  0  0  0  0  0  0
   41.6760   33.9480   37.0990 H   0  0  0  0  0  0  0  0  0  0  0  0
   37.0010   28.6340   42.5690 C   0  0  0  0  0  0  0  0  0  0  0  0
   36.0960   29.1750   42.2110 H   0  0  0  0  0  0  0  0  0  0  0  0
   36.8560   28.5540   43.6800 H   0  0  0  0  0  0  0  0  0  0  0  0
   37.0720   24.9420   42.0290 C   0  0  0  0  0  0  0  0  0  0  0  0
   36.8620   24.8480   40.6510 C   0  0  0  0  0  0  0  0  0  0  0  0
   36.7030   26.0250   39.9470 C   0  0  0  0  0  0  0  0  0  0  0  0
   36.7530   27.2190   40.5950 N   0  0  0  0  0  0  0  0  0  0  0  0
   36.9630   27.2750   41.9600 C   0  0  0  0  0  0  0  0  0  0  0  0
   37.1170   26.1230   42.6330 N   0  0  0  0  0  0  0  0  0  0  0  0
   37.2090   24.0770   42.6710 H   0  0  0  0  0  0  0  0  0  0  0  0
   36.8340   23.8740   40.2010 H   0  0  0  0  0  0  0  0  0  0  0  0
   36.5380   25.9800   38.8760 H   0  0  0  0  0  0  0  0  0  0  0  0
  1  2  1  0  0  0  0
  2  3  1  0  0  0  0
  3 20  1  0  0  0  0
  3  4  2  0  0  0  0
  4  8  1  0  0  0  0
  5  4  1  0  0  0  0
  5  9  1  0  0  0  0
  6  5  2  0  0  0  0
  7  2  2  0  0  0  0
  7  6  1  0  0  0  0
 10  6  1  0  0  0  0
 11 16  1  1  0  0  0
 11 12  1  0  0  0  0
 12 13  1  0  0  0  0
 12  7  1  1  0  0  0
 14 13  1  0  0  0  0
 15 18  1  6  0  0  0
 15 11  1  0  0  0  0
 15 14  1  0  0  0  0
 17 16  1  0  0  0  0
 19 18  1  0  0  0  0
 20 22  1  0  0  0  0
 21 20  1  0  0  0  0
 23 28  1  0  0  0  0
 23 29  1  0  0  0  0
 24 23  2  0  0  0  0
 25 26  2  0  0  0  0
 25 24  1  0  0  0  0
 26 27  1  0  0  0  0
 27 20  1  0  0  0  0
 27 28  2  0  0  0  0
 30 24  1  0  0  0  0
 31 25  1  0  0  0  0
M  END
>  <minimizedAffinity>
-5.43596029

$$$$

 OpenBabel03252502543D

 31 33  0  0  1  0  0  0  0  0999 V2000
   35.9450   28.1550   40.0080 Br  0  0  0  0  0  0  0  0  0  0  0  0
   37.2630   28.9310   41.1930 C   0  0  0  0  0  0  0  0  0  0  0  0
   37.5420   28.2270   42.3330 C   0  0  0  0  0  0  0  0  0  0  0  0
   38.4990   28.8220   43.1640 C   0  0  0  0  0  0  0  0  0  0  0  0
   39.1230   30.0200   42.8720 C   0  0  0  0  0  0  0  0  0  0  0  0
   38.7880   30.6700   41.7020 C   0  0  0  0  0  0  0  0  0  0  0  0
   37.8430   30.1260   40.8390 C   0  0  0  0  0  0  0  0  0  0  0  0
   38.7590   28.3010   44.0870 H   0  0  0  0  0  0  0  0  0  0  0  0
   39.8480   30.4230   43.5490 H   0  0  0  0  0  0  0  0  0  0  0  0
   39.2500   31.6120   41.4300 H   0  0  0  0  0  0  0  0  0  0  0  0
   38.4600   30.5980   38.4780 C   0  0  1  0  0  3  0  0  0  0  0  0
   37.4970   30.8420   39.5840 C   0  0  2  0  0  3  0  0  0  0  0  0
   37.2570   32.1770   39.7320 O   0  0  0  0  0  0  0  0  0  0  0  0
   37.9230   32.8800   38.7500 C   0  0  0  0  0  2  0  0  0  0  0  0
   38.9950   31.9810   38.1950 C   0  0  2  0  0  3  0  0  0  0  0  0
   39.5080   29.7500   38.8380 O   0  0  0  0  0  0  0  0  0  0  0  0
   39.9270   29.3190   38.0620 H   0  0  0  0  0  0  0  0  0  0  0  0
   39.2200   32.1940   36.8350 O   0  0  0  0  0  0  0  0  0  0  0  0
   39.2530   33.1690   36.6790 H   0  0  0  0  0  0  0  0  0  0  0  0
   36.9450   26.9540   42.7430 C   0  0  0  0  0  0  0  0  0  0  0  0
   35.8750   26.9250   42.4370 H   0  0  0  0  0  0  0  0  0  0  0  0
   36.9190   26.8290   43.8580 H   0  0  0  0  0  0  0  0  0  0  0  0
   39.4580   24.5430   41.4010 C   0  0  0  0  0  0  0  0  0  0  0  0
   38.6440   23.5050   40.9410 C   0  0  0  0  0  0  0  0  0  0  0  0
   37.2790   23.6450   41.0960 C   0  0  0  0  0  0  0  0  0  0  0  0
   36.7710   24.7640   41.6770 N   0  0  0  0  0  0  0  0  0  0  0  0
   37.6060   25.7720   42.1210 C   0  0  0  0  0  0  0  0  0  0  0  0
   38.9310   25.6240   41.9640 N   0  0  0  0  0  0  0  0  0  0  0  0
   40.5410   24.5290   41.3250 H   0  0  0  0  0  0  0  0  0  0  0  0
   39.1100   22.6490   40.4900 H   0  0  0  0  0  0  0  0  0  0  0  0
   36.6260   22.8540   40.7480 H   0  0  0  0  0  0  0  0  0  0  0  0
  1  2  1  0  0  0  0
  2  3  1  0  0  0  0
  3 20  1  0  0  0  0
  3  4  2  0  0  0  0
  4  8  1  0  0  0  0
  5  4  1  0  0  0  0
  5  9  1  0  0  0  0
  6  5  2  0  0  0  0
  7  2  2  0  0  0  0
  7  6  1  0  0  0  0
 10  6  1  0  0  0  0
 11 16  1  1  0  0  0
 11 12  1  0  0  0  0
 12 13  1  0  0  0  0
 12  7  1  1  0  0  0
 14 13  1  0  0  0  0
 15 18  1  6  0  0  0
 15 11  1  0  0  0  0
 15 14  1  0  0  0  0
 17 16  1  0  0  0  0
 19 18  1  0  0  0  0
 20 22  1  0  0  0  0
 21 20  1  0  0  0  0
 23 28  1  0  0  0  0
 24 25  1  0  0  0  0
 24 23  2  0  0  0  0
 25 26  2  0  0  0  0
 26 27  1  0  0  0  0
 27 20  1  0  0  0  0
 28 27  2  0  0  0  0
 29 23  1  0  0  0  0
 30 24  1  0  0  0  0
 31 25  1  0  0  0  0
M  END
>  <minimizedAffinity>
-5.35458136

$$$$

 OpenBabel03252502543D

 31 33  0  0  1  0  0  0  0  0999 V2000
   38.6970   28.3790   39.4030 Br  0  0  0  0  0  0  0  0  0  0  0  0
   37.8540   27.8010   41.0450 C   0  0  0  0  0  0  0  0  0  0  0  0
   37.6230   26.4580   41.1680 C   0  0  0  0  0  0  0  0  0  0  0  0
   37.0120   26.0800   42.3690 C   0  0  0  0  0  0  0  0  0  0  0  0
   36.6630   26.9770   43.3620 C   0  0  0  0  0  0  0  0  0  0  0  0
   36.9290   28.3160   43.1630 C   0  0  0  0  0  0  0  0  0  0  0  0
   37.5350   28.7480   41.9890 C   0  0  0  0  0  0  0  0  0  0  0  0
   36.8050   25.0190   42.5190 H   0  0  0  0  0  0  0  0  0  0  0  0
   36.1970   26.6250   44.2590 H   0  0  0  0  0  0  0  0  0  0  0  0
   36.6740   29.0560   43.9130 H   0  0  0  0  0  0  0  0  0  0  0  0
   36.6460   30.9580   41.2750 C   0  0  1  0  0  3  0  0  0  0  0  0
   37.8120   30.1950   41.7950 C   0  0  2  0  0  3  0  0  0  0  0  0
   38.9340   30.4730   41.0710 O   0  0  0  0  0  0  0  0  0  0  0  0
   38.6530   31.4410   40.1310 C   0  0  0  0  0  2  0  0  0  0  0  0
   37.1580   31.4850   39.9570 C   0  0  2  0  0  3  0  0  0  0  0  0
   35.5200   30.1620   41.0620 O   0  0  0  0  0  0  0  0  0  0  0  0
   34.6870   30.6820   41.0620 H   0  0  0  0  0  0  0  0  0  0  0  0
   36.6890   32.7690   39.6830 O   0  0  0  0  0  0  0  0  0  0  0  0
   37.2840   33.1750   39.0060 H   0  0  0  0  0  0  0  0  0  0  0  0
   37.9480   25.4210   40.1850 C   0  0  0  0  0  0  0  0  0  0  0  0
   38.4350   24.5590   40.6960 H   0  0  0  0  0  0  0  0  0  0  0  0
   38.7080   25.7630   39.4320 H   0  0  0  0  0  0  0  0  0  0  0  0
   35.0580   23.3170   39.1170 C   0  0  0  0  0  0  0  0  0  0  0  0
   34.5340   24.0620   38.0580 C   0  0  0  0  0  0  0  0  0  0  0  0
   35.1660   25.2470   37.7360 C   0  0  0  0  0  0  0  0  0  0  0  0
   36.2570   25.6500   38.4390 N   0  0  0  0  0  0  0  0  0  0  0  0
   36.7490   24.8870   39.4820 C   0  0  0  0  0  0  0  0  0  0  0  0
   36.1250   23.7370   39.7850 N   0  0  0  0  0  0  0  0  0  0  0  0
   34.6340   22.3720   39.4480 H   0  0  0  0  0  0  0  0  0  0  0  0
   33.6700   23.6860   37.5440 H   0  0  0  0  0  0  0  0  0  0  0  0
   34.7800   25.8440   36.9180 H   0  0  0  0  0  0  0  0  0  0  0  0
  1  2  1  0  0  0  0
  2  3  2  0  0  0  0
  2  7  1  0  0  0  0
  3  4  1  0  0  0  0
  4  8  1  0  0  0  0
  4  5  2  0  0  0  0
  5  9  1  0  0  0  0
  6  5  1  0  0  0  0
  6 10  1  0  0  0  0
  7  6  2  0  0  0  0
 11 16  1  6  0  0  0
 11 12  1  0  0  0  0
 12  7  1  6  0  0  0
 13 12  1  0  0  0  0
 14 13  1  0  0  0  0
 15 18  1  1  0  0  0
 15 14  1  0  0  0  0
 15 11  1  0  0  0  0
 17 16  1  0  0  0  0
 19 18  1  0  0  0  0
 20 21  1  0  0  0  0
 20  3  1  0  0  0  0
 22 20  1  0  0  0  0
 23 29  1  0  0  0  0
 23 28  1  0  0  0  0
 24 23  2  0  0  0  0
 25 24  1  0  0  0  0
 25 26  2  0  0  0  0
 26 27  1  0  0  0  0
 27 28  2  0  0  0  0
 27 20  1  0  0  0  0
 30 24  1  0  0  0  0
 31 25  1  0  0  0  0
M  END
>  <minimizedAffinity>
-5.33211756

$$$$

 OpenBabel03252502543D

 31 33  0  0  1  0  0  0  0  0999 V2000
   38.7150   28.1370   42.1530 Br  0  0  0  0  0  0  0  0  0  0  0  0
   37.5550   27.9680   40.6140 C   0  0  0  0  0  0  0  0  0  0  0  0
   36.9790   26.7420   40.4210 C   0  0  0  0  0  0  0  0  0  0  0  0
   36.1490   26.6610   39.2970 C   0  0  0  0  0  0  0  0  0  0  0  0
   35.9170   27.7220   38.4420 C   0  0  0  0  0  0  0  0  0  0  0  0
   36.5350   28.9270   38.7040 C   0  0  0  0  0  0  0  0  0  0  0  0
   37.3710   29.0650   39.8060 C   0  0  0  0  0  0  0  0  0  0  0  0
   35.6630   25.7050   39.0960 H   0  0  0  0  0  0  0  0  0  0  0  0
   35.2700   27.5960   37.5980 H   0  0  0  0  0  0  0  0  0  0  0  0
   36.3840   29.7870   38.0620 H   0  0  0  0  0  0  0  0  0  0  0  0
   37.1030   31.3970   40.6270 C   0  0  1  0  0  3  0  0  0  0  0  0
   38.0270   30.3720   40.0710 C   0  0  2  0  0  3  0  0  0  0  0  0
   38.7390   30.8800   39.0240 O   0  0  0  0  0  0  0  0  0  0  0  0
   38.4380   32.2160   38.8610 C   0  0  0  0  0  2  0  0  0  0  0  0
   37.1390   32.4790   39.5760 C   0  0  2  0  0  3  0  0  0  0  0  0
   35.7970   30.9320   40.7830 O   0  0  0  0  0  0  0  0  0  0  0  0
   35.2910   31.4510   41.4450 H   0  0  0  0  0  0  0  0  0  0  0  0
   37.0840   33.7580   40.1300 O   0  0  0  0  0  0  0  0  0  0  0  0
   37.4260   34.3980   39.4590 H   0  0  0  0  0  0  0  0  0  0  0  0
   37.1520   25.5530   41.2580 C   0  0  0  0  0  0  0  0  0  0  0  0
   36.1590   25.1910   41.6060 H   0  0  0  0  0  0  0  0  0  0  0  0
   37.7170   25.7690   42.2040 H   0  0  0  0  0  0  0  0  0  0  0  0
   39.4570   23.4580   39.2020 C   0  0  0  0  0  0  0  0  0  0  0  0
   38.8410   22.2050   39.2660 C   0  0  0  0  0  0  0  0  0  0  0  0
   37.6740   22.1020   39.9960 C   0  0  0  0  0  0  0  0  0  0  0  0
   37.1630   23.1960   40.6200 N   0  0  0  0  0  0  0  0  0  0  0  0
   37.7980   24.4210   40.5360 C   0  0  0  0  0  0  0  0  0  0  0  0
   38.9320   24.5080   39.8220 N   0  0  0  0  0  0  0  0  0  0  0  0
   40.3760   23.6430   38.6540 H   0  0  0  0  0  0  0  0  0  0  0  0
   39.2980   21.3820   38.7480 H   0  0  0  0  0  0  0  0  0  0  0  0
   37.1770   21.1410   40.0620 H   0  0  0  0  0  0  0  0  0  0  0  0
  2  1  1  0  0  0  0
  3  2  1  0  0  0  0
  3 20  1  0  0  0  0
  4  3  2  0  0  0  0
  5  6  2  0  0  0  0
  5  4  1  0  0  0  0
  6  7  1  0  0  0  0
  7  2  2  0  0  0  0
  8  4  1  0  0  0  0
  9  5  1  0  0  0  0
 10  6  1  0  0  0  0
 11 16  1  6  0  0  0
 12  7  1  6  0  0  0
 12 11  1  0  0  0  0
 13 12  1  0  0  0  0
 14 13  1  0  0  0  0
 14 15  1  0  0  0  0
 15 18  1  1  0  0  0
 15 11  1  0  0  0  0
 16 17  1  0  0  0  0
 19 18  1  0  0  0  0
 20 21  1  0  0  0  0
 20 22  1  0  0  0  0
 23 24  2  0  0  0  0
 23 28  1  0  0  0  0
 24 25  1  0  0  0  0
 25 31  1  0  0  0  0
 25 26  2  0  0  0  0
 27 26  1  0  0  0  0
 27 20  1  0  0  0  0
 28 27  2  0  0  0  0
 29 23  1  0  0  0  0
 30 24  1  0  0  0  0
M  END
>  <minimizedAffinity>
-5.24992466

$$$$

 OpenBabel03252502543D

 31 33  0  0  1  0  0  0  0  0999 V2000
   36.8080   27.2520   40.2650 Br  0  0  0  0  0  0  0  0  0  0  0  0
   36.8860   29.1730   40.0510 C   0  0  0  0  0  0  0  0  0  0  0  0
   37.1780   29.8960   41.1750 C   0  0  0  0  0  0  0  0  0  0  0  0
   37.2230   31.2820   40.9780 C   0  0  0  0  0  0  0  0  0  0  0  0
   36.9960   31.8870   39.7570 C   0  0  0  0  0  0  0  0  0  0  0  0
   36.7070   31.0880   38.6690 C   0  0  0  0  0  0  0  0  0  0  0  0
   36.6490   29.7060   38.8060 C   0  0  0  0  0  0  0  0  0  0  0  0
   37.4520   31.9070   41.8430 H   0  0  0  0  0  0  0  0  0  0  0  0
   37.0460   32.9530   39.6710 H   0  0  0  0  0  0  0  0  0  0  0  0
   36.5220   31.5160   37.6910 H   0  0  0  0  0  0  0  0  0  0  0  0
   37.4370   28.8140   36.6230 C   0  0  1  0  0  3  0  0  0  0  0  0
   36.3360   28.8630   37.6220 C   0  0  2  0  0  3  0  0  0  0  0  0
   35.1460   29.1420   37.0170 O   0  0  0  0  0  0  0  0  0  0  0  0
   35.3220   29.2090   35.6510 C   0  0  0  0  0  2  0  0  0  0  0  0
   36.7920   29.4060   35.3930 C   0  0  2  0  0  3  0  0  0  0  0  0
   38.5460   29.5770   36.9890 O   0  0  0  0  0  0  0  0  0  0  0  0
   39.3680   29.2830   36.5410 H   0  0  0  0  0  0  0  0  0  0  0  0
   37.2170   28.7800   34.2210 O   0  0  0  0  0  0  0  0  0  0  0  0
   36.5540   28.9720   33.5140 H   0  0  0  0  0  0  0  0  0  0  0  0
   37.4350   29.3650   42.5150 C   0  0  0  0  0  0  0  0  0  0  0  0
   36.8140   28.4560   42.6840 H   0  0  0  0  0  0  0  0  0  0  0  0
   37.1190   30.0720   43.3280 H   0  0  0  0  0  0  0  0  0  0  0  0
   40.5440   27.4740   43.3430 C   0  0  0  0  0  0  0  0  0  0  0  0
   41.5390   28.4080   43.0390 C   0  0  0  0  0  0  0  0  0  0  0  0
   41.1350   29.6410   42.5650 C   0  0  0  0  0  0  0  0  0  0  0  0
   39.8130   29.9110   42.4110 N   0  0  0  0  0  0  0  0  0  0  0  0
   38.8550   28.9640   42.7220 C   0  0  0  0  0  0  0  0  0  0  0  0
   39.2600   27.7690   43.1820 N   0  0  0  0  0  0  0  0  0  0  0  0
   40.7570   26.4780   43.7210 H   0  0  0  0  0  0  0  0  0  0  0  0
   42.5650   28.1290   43.1840 H   0  0  0  0  0  0  0  0  0  0  0  0
   41.8870   30.3820   42.3220 H   0  0  0  0  0  0  0  0  0  0  0  0
  2  1  1  0  0  0  0
  2  3  1  0  0  0  0
  3 20  1  0  0  0  0
  4  3  2  0  0  0  0
  4  8  1  0  0  0  0
  5  4  1  0  0  0  0
  6  7  1  0  0  0  0
  6  5  2  0  0  0  0
  7  2  2  0  0  0  0
  9  5  1  0  0  0  0
 10  6  1  0  0  0  0
 11 16  1  1  0  0  0
 11 12  1  0  0  0  0
 12  7  1  1  0  0  0
 13 12  1  0  0  0  0
 14 13  1  0  0  0  0
 15 18  1  6  0  0  0
 15 14  1  0  0  0  0
 15 11  1  0  0  0  0
 17 16  1  0  0  0  0
 19 18  1  0  0  0  0
 20 21  1  0  0  0  0
 20 27  1  0  0  0  0
 20 22  1  0  0  0  0
 23 29  1  0  0  0  0
 24 30  1  0  0  0  0
 24 23  2  0  0  0  0
 25 24  1  0  0  0  0
 26 25  2  0  0  0  0
 26 27  1  0  0  0  0
 27 28  2  0  0  0  0
 28 23  1  0  0  0  0
 31 25  1  0  0  0  0
M  END
>  <minimizedAffinity>
-5.16719246

$$$$

 OpenBabel03252502543D

 31 33  0  0  1  0  0  0  0  0999 V2000
   38.3820   26.8880   38.9170 Br  0  0  0  0  0  0  0  0  0  0  0  0
   37.4780   28.2460   39.9570 C   0  0  0  0  0  0  0  0  0  0  0  0
   37.0070   27.8570   41.1810 C   0  0  0  0  0  0  0  0  0  0  0  0
   36.3600   28.8670   41.9020 C   0  0  0  0  0  0  0  0  0  0  0  0
   36.2000   30.1570   41.4330 C   0  0  0  0  0  0  0  0  0  0  0  0
   36.7040   30.4720   40.1870 C   0  0  0  0  0  0  0  0  0  0  0  0
   37.3560   29.5080   39.4270 C   0  0  0  0  0  0  0  0  0  0  0  0
   35.9640   28.6100   42.8870 H   0  0  0  0  0  0  0  0  0  0  0  0
   35.6950   30.8850   42.0330 H   0  0  0  0  0  0  0  0  0  0  0  0
   36.6040   31.4700   39.7760 H   0  0  0  0  0  0  0  0  0  0  0  0
   39.2250   30.5240   38.1390 C   0  0  1  0  0  3  0  0  0  0  0  0
   37.8920   29.8680   38.0880 C   0  0  2  0  0  3  0  0  0  0  0  0
   37.0340   30.5760   37.2980 O   0  0  0  0  0  0  0  0  0  0  0  0
   37.7000   31.6400   36.7260 C   0  0  0  0  0  2  0  0  0  0  0  0
   38.9520   31.8760   37.5270 C   0  0  2  0  0  3  0  0  0  0  0  0
   39.7100   30.6820   39.4380 O   0  0  0  0  0  0  0  0  0  0  0  0
   40.6870   30.7790   39.4660 H   0  0  0  0  0  0  0  0  0  0  0  0
   40.0130   32.3260   36.7420 O   0  0  0  0  0  0  0  0  0  0  0  0
   39.6690   33.0230   36.1320 H   0  0  0  0  0  0  0  0  0  0  0  0
   37.1180   26.5240   41.7780 C   0  0  0  0  0  0  0  0  0  0  0  0
   37.0060   25.7480   40.9870 H   0  0  0  0  0  0  0  0  0  0  0  0
   36.2880   26.3050   42.5030 H   0  0  0  0  0  0  0  0  0  0  0  0
   40.3030   26.9300   43.6790 C   0  0  0  0  0  0  0  0  0  0  0  0
   40.8600   25.6520   43.5850 C   0  0  0  0  0  0  0  0  0  0  0  0
   40.1500   24.6950   42.8880 C   0  0  0  0  0  0  0  0  0  0  0  0
   38.9550   25.0110   42.3230 N   0  0  0  0  0  0  0  0  0  0  0  0
   38.4330   26.2850   42.4350 C   0  0  0  0  0  0  0  0  0  0  0  0
   39.1340   27.2080   43.1150 N   0  0  0  0  0  0  0  0  0  0  0  0
   40.7820   27.7520   44.2040 H   0  0  0  0  0  0  0  0  0  0  0  0
   41.8090   25.4700   44.0550 H   0  0  0  0  0  0  0  0  0  0  0  0
   40.5600   23.6950   42.8010 H   0  0  0  0  0  0  0  0  0  0  0  0
  1  2  1  0  0  0  0
  2  3  1  0  0  0  0
  3 20  1  0  0  0  0
  3  4  2  0  0  0  0
  4  8  1  0  0  0  0
  5  4  1  0  0  0  0
  5  9  1  0  0  0  0
  6  5  2  0  0  0  0
  7  2  2  0  0  0  0
  7  6  1  0  0  0  0
 10  6  1  0  0  0  0
 11 16  1  1  0  0  0
 12 11  1  0  0  0  0
 12  7  1  1  0  0  0
 13 12  1  0  0  0  0
 14 13  1  0  0  0  0
 14 15  1  0  0  0  0
 15 18  1  6  0  0  0
 15 11  1  0  0  0  0
 16 17  1  0  0  0  0
 19 18  1  0  0  0  0
 20 27  1  0  0  0  0
 20 22  1  0  0  0  0
 21 20  1  0  0  0  0
 23 29  1  0  0  0  0
 24 23  1  0  0  0  0
 24 30  1  0  0  0  0
 25 24  2  0  0  0  0
 26 27  2  0  0  0  0
 26 25  1  0  0  0  0
 27 28  1  0  0  0  0
 28 23  2  0  0  0  0
 31 25  1  0  0  0  0
M  END
>  <minimizedAffinity>
-5.16394854

$$$$
