
     RDKit          3D

 33 35  0  0  0  0  0  0  0  0999 V2000
   44.9740   36.0105   43.2741 Cl  0  0  0  0  0  0  0  0  0  0  0  0
   45.6758   34.6924   44.1611 C   0  0  0  0  0  0  0  0  0  0  0  0
   46.6877   33.9659   43.6152 C   0  0  0  0  0  0  0  0  0  0  0  0
   47.1869   32.9356   44.3902 C   0  0  0  0  0  0  0  0  0  0  0  0
   46.7332   32.6068   45.6526 C   0  0  0  0  0  0  0  0  0  0  0  0
   45.7115   33.3637   46.1678 C   0  0  0  0  0  0  0  0  0  0  0  0
   45.1666   32.9129   47.7707 Cl  0  0  0  0  0  0  0  0  0  0  0  0
   45.1865   34.3958   45.4325 C   0  0  0  0  0  0  0  0  0  0  0  0
   48.7513   35.3958   40.9559 C   0  0  0  0  0  0  0  0  0  0  0  0
   48.2665   34.7842   39.8026 C   0  0  0  0  0  0  0  0  0  0  0  0
   47.2125   33.8642   39.9374 C   0  0  0  0  0  0  0  0  0  0  0  0
   46.7351   33.6316   41.1863 N   0  0  0  0  0  0  0  0  0  0  0  0
   47.2280   34.2428   42.2899 C   0  0  0  0  0  0  0  0  0  0  0  0
   48.2375   35.1259   42.1736 N   0  0  0  0  0  0  0  0  0  0  0  0
   48.0014   32.3439   43.9616 H   0  0  0  0  0  0  0  0  0  0  0  0
   44.3823   34.9523   45.8989 H   0  0  0  0  0  0  0  0  0  0  0  0
   49.5707   36.1040   40.8054 H   0  0  0  0  0  0  0  0  0  0  0  0
   48.6021   34.9293   38.8060 H   0  0  0  0  0  0  0  0  0  0  0  0
   46.7138   33.2998   39.1689 H   0  0  0  0  0  0  0  0  0  0  0  0
   45.3999   30.1015   46.1124 O   0  0  0  0  0  0  0  0  0  0  0  0
   46.3421   30.5664   47.0309 C   0  0  2  0  0  0  0  0  0  0  0  0
   47.3500   31.4872   46.3719 C   0  0  1  0  0  0  0  0  0  0  0  0
   48.0195   30.5999   45.5491 O   0  0  0  0  0  0  0  0  0  0  0  0
   48.3901   29.5806   46.4182 C   0  0  0  0  0  0  0  0  0  0  0  0
   47.2264   29.3848   47.3692 C   0  0  1  0  0  0  0  0  0  0  0  0
   47.6456   29.6009   48.7026 O   0  0  0  0  0  0  0  0  0  0  0  0
   44.9258   30.8324   45.6320 H   0  0  0  0  0  0  0  0  0  0  0  0
   45.8699   31.0058   47.9264 H   0  0  0  0  0  0  0  0  0  0  0  0
   48.0102   31.8384   47.2002 H   0  0  0  0  0  0  0  0  0  0  0  0
   49.3275   29.8887   46.9325 H   0  0  0  0  0  0  0  0  0  0  0  0
   48.6076   28.6295   45.8798 H   0  0  0  0  0  0  0  0  0  0  0  0
   46.7485   28.4106   47.2542 H   0  0  0  0  0  0  0  0  0  0  0  0
   48.3557   30.2929   48.7306 H   0  0  0  0  0  0  0  0  0  0  0  0
  1  2  1  0
  2  8  2  0
  3  2  1  0
  3  4  2  0
  4  5  1  0
  5  6  2  0
  6  7  1  0
  8  6  1  0
  9 14  2  0
 10 11  2  0
 10  9  1  0
 11 12  1  0
 12 13  2  0
 13  3  1  0
 14 13  1  0
  4 15  1  0
  8 16  1  0
  9 17  1  0
 10 18  1  0
 11 19  1  0
 20 21  1  0
 21 22  1  0
 22 23  1  0
 23 24  1  0
 24 25  1  0
 25 26  1  0
 25 21  1  0
 20 27  1  0
 21 28  1  1
 22 29  1  1
 24 30  1  0
 24 31  1  0
 25 32  1  1
 26 33  1  0
  5 22  1  0
M  ISO  5  15  14  16  14  17  14  18  14  19  14
M  END
>  <DihAtoms>  (1) 
3,4,21,20

>  <DihDeg>  (1) 
-89.99820187999426

$$$$
