
 OpenBabel03252506553D

 38 42  0  0  1  0  0  0  0  0999 V2000
   47.3480   31.2790   45.2230 C   0  0  0  0  0  0  0  0  0  0  0  0
   46.9290   32.5930   45.1430 C   0  0  0  0  0  0  0  0  0  0  0  0
   46.2680   33.2350   46.1720 C   0  0  0  0  0  0  0  0  0  0  0  0
   45.9950   32.5620   47.3510 C   0  0  0  0  0  0  0  0  0  0  0  0
   45.3880   32.8510   48.5380 N   0  0  0  0  0  0  0  0  0  0  0  0
   45.4330   31.7480   49.3240 C   0  0  0  0  0  0  0  0  0  0  0  0
   46.0690   30.7830   48.6130 N   0  0  0  0  0  0  0  0  0  0  0  0
   46.4230   31.2500   47.4100 C   0  0  0  0  0  0  0  0  0  0  0  0
   47.0790   30.5880   46.4050 C   0  0  0  0  0  0  0  0  0  0  0  0
   47.8600   30.7870   44.4200 H   0  0  0  0  0  0  0  0  0  0  0  0
   45.9370   34.2740   46.1110 H   0  0  0  0  0  0  0  0  0  0  0  0
   44.9790   33.7920   48.7400 H   0  0  0  0  0  0  0  0  0  0  0  0
   45.0170   31.6950   50.3410 H   0  0  0  0  0  0  0  0  0  0  0  0
   46.6280   35.0660   42.4270 C   0  0  0  0  0  0  0  0  0  0  0  0
   47.7080   34.7460   41.6110 C   0  0  0  0  0  0  0  0  0  0  0  0
   48.5350   33.6930   41.9830 C   0  0  0  0  0  0  0  0  0  0  0  0
   48.2460   33.0150   43.1430 N   0  0  0  0  0  0  0  0  0  0  0  0
   47.1950   33.3440   43.9180 C   0  0  0  0  0  0  0  0  0  0  0  0
   46.3970   34.3580   43.5620 N   0  0  0  0  0  0  0  0  0  0  0  0
   45.9630   35.8770   42.1710 H   0  0  0  0  0  0  0  0  0  0  0  0
   47.8910   35.3050   40.7150 H   0  0  0  0  0  0  0  0  0  0  0  0
   49.3880   33.3960   41.3910 H   0  0  0  0  0  0  0  0  0  0  0  0
   47.4930   29.1880   46.5690 C   0  0  0  0  0  0  0  0  0  0  0  0
   48.4870   28.5740   45.8250 C   0  0  0  0  0  0  0  0  0  0  0  0
   48.5170   27.2730   46.3330 C   0  0  0  0  0  0  0  0  0  0  0  0
   47.5570   27.1730   47.3390 C   0  0  0  0  0  0  0  0  0  0  0  0
   46.9760   28.3510   47.4350 O   0  0  0  0  0  0  0  0  0  0  0  0
   49.1120   28.9670   45.0340 H   0  0  0  0  0  0  0  0  0  0  0  0
   49.1550   26.4650   46.0270 H   0  0  0  0  0  0  0  0  0  0  0  0
   45.8920   25.3520   47.7460 C   0  0  2  0  0  3  0  0  0  0  0  0
   47.1960   26.0250   48.1770 C   0  0  1  0  0  3  0  0  0  0  0  0
   48.0670   24.9420   48.0720 O   0  0  0  0  0  0  0  0  0  0  0  0
   47.4440   24.0030   48.8960 C   0  0  0  0  0  2  0  0  0  0  0  0
   45.9620   24.1010   48.6100 C   0  0  2  0  0  3  0  0  0  0  0  0
   46.0080   24.9220   46.4110 O   0  0  0  0  0  0  0  0  0  0  0  0
   46.5090   24.0600   46.3680 H   0  0  0  0  0  0  0  0  0  0  0  0
   45.4730   22.9740   47.9620 O   0  0  0  0  0  0  0  0  0  0  0  0
   44.6130   23.2270   47.5410 H   0  0  0  0  0  0  0  0  0  0  0  0
  1  9  1  0  0  0  0
  2  1  2  0  0  0  0
  2  3  1  0  0  0  0
  3  4  2  0  0  0  0
  4  8  1  0  0  0  0
  4  5  1  0  0  0  0
  5 12  1  0  0  0  0
  5  6  1  0  0  0  0
  6 13  1  0  0  0  0
  7  6  2  0  0  0  0
  8  7  1  0  0  0  0
  9 23  1  0  0  0  0
  9  8  2  0  0  0  0
 10  1  1  0  0  0  0
 11  3  1  0  0  0  0
 14 19  1  0  0  0  0
 15 16  1  0  0  0  0
 15 14  2  0  0  0  0
 16 17  2  0  0  0  0
 17 18  1  0  0  0  0
 18  2  1  0  0  0  0
 19 18  2  0  0  0  0
 20 14  1  0  0  0  0
 21 15  1  0  0  0  0
 22 16  1  0  0  0  0
 23 27  1  0  0  0  0
 24 25  1  0  0  0  0
 24 23  2  0  0  0  0
 25 26  2  0  0  0  0
 26 27  1  0  0  0  0
 28 24  1  0  0  0  0
 29 25  1  0  0  0  0
 30 35  1  6  0  0  0
 30 31  1  0  0  0  0
 30 34  1  0  0  0  0
 31 26  1  6  0  0  0
 32 31  1  0  0  0  0
 32 33  1  0  0  0  0
 34 37  1  6  0  0  0
 34 33  1  0  0  0  0
 36 35  1  0  0  0  0
 38 37  1  0  0  0  0
M  END
>  <minimizedAffinity>
-5.90405464

>  <minimizedRMSD>
1.29952168

$$$$
