
 OpenBabel03252505183D

 34 37  0  0  1  0  0  0  0  0999 V2000
   46.0600   32.6190   46.8950 C   0  0  0  0  0  0  0  0  0  0  0  0
   45.0370   32.7230   47.8140 C   0  0  0  0  0  0  0  0  0  0  0  0
   45.0600   31.9360   48.9560 C   0  0  0  0  0  0  0  0  0  0  0  0
   46.1250   31.0700   49.1230 C   0  0  0  0  0  0  0  0  0  0  0  0
   47.1260   31.0090   48.1640 C   0  0  0  0  0  0  0  0  0  0  0  0
   47.1050   31.7780   47.0470 N   0  0  0  0  0  0  0  0  0  0  0  0
   44.1980   33.4010   47.6900 H   0  0  0  0  0  0  0  0  0  0  0  0
   44.2520   32.0220   49.6760 H   0  0  0  0  0  0  0  0  0  0  0  0
   46.1600   30.4580   49.9940 H   0  0  0  0  0  0  0  0  0  0  0  0
   45.0560   35.1690   44.4290 C   0  0  0  0  0  0  0  0  0  0  0  0
   45.9800   34.9940   43.3720 C   0  0  0  0  0  0  0  0  0  0  0  0
   46.9150   34.0030   43.5590 C   0  0  0  0  0  0  0  0  0  0  0  0
   46.9320   33.2460   44.7050 N   0  0  0  0  0  0  0  0  0  0  0  0
   46.0110   33.4570   45.7010 C   0  0  0  0  0  0  0  0  0  0  0  0
   45.0850   34.4170   45.5480 N   0  0  0  0  0  0  0  0  0  0  0  0
   44.2950   35.9520   44.3140 H   0  0  0  0  0  0  0  0  0  0  0  0
   45.9380   35.6080   42.4830 H   0  0  0  0  0  0  0  0  0  0  0  0
   47.9230   33.7100   42.4880 C   0  0  0  0  0  0  0  0  0  0  0  0
   49.1480   34.6200   42.5810 C   0  0  0  0  0  0  0  0  0  0  0  0
   49.1670   33.0810   42.8460 C   0  0  0  0  0  0  0  0  0  0  0  0
   47.4970   33.6060   41.4630 H   0  0  0  0  0  0  0  0  0  0  0  0
   49.2690   35.2310   43.4990 H   0  0  0  0  0  0  0  0  0  0  0  0
   49.5390   34.9610   41.6260 H   0  0  0  0  0  0  0  0  0  0  0  0
   49.3980   32.7730   43.8910 H   0  0  0  0  0  0  0  0  0  0  0  0
   49.7370   32.5280   42.0780 H   0  0  0  0  0  0  0  0  0  0  0  0
   49.1140   30.3950   49.5590 C   0  0  1  0  0  3  0  0  0  0  0  0
   48.2410   30.0680   48.3890 C   0  0  2  0  0  3  0  0  0  0  0  0
   49.1510   30.0270   47.3390 O   0  0  0  0  0  0  0  0  0  0  0  0
   50.1600   29.2230   47.8170 C   0  0  0  0  0  2  0  0  0  0  0  0
   50.2730   29.4210   49.3050 C   0  0  2  0  0  3  0  0  0  0  0  0
   49.6070   31.6770   49.5860 O   0  0  0  0  0  0  0  0  0  0  0  0
   49.0740   32.3200   50.1160 H   0  0  0  0  0  0  0  0  0  0  0  0
   50.0110   28.1740   49.9040 O   0  0  0  0  0  0  0  0  0  0  0  0
   49.0390   27.9850   49.8890 H   0  0  0  0  0  0  0  0  0  0  0  0
  1  6  2  0  0  0  0
  1  2  1  0  0  0  0
  2  3  2  0  0  0  0
  3  4  1  0  0  0  0
  3  8  1  0  0  0  0
  4  9  1  0  0  0  0
  5  4  2  0  0  0  0
  6  5  1  0  0  0  0
  7  2  1  0  0  0  0
 10 15  1  0  0  0  0
 11 12  1  0  0  0  0
 11 10  2  0  0  0  0
 12 13  2  0  0  0  0
 13 14  1  0  0  0  0
 14  1  1  0  0  0  0
 15 14  2  0  0  0  0
 16 10  1  0  0  0  0
 17 11  1  0  0  0  0
 18 19  1  0  0  0  0
 18 20  1  0  0  0  0
 18 12  1  0  0  0  0
 19 20  1  0  0  0  0
 19 22  1  0  0  0  0
 20 24  1  0  0  0  0
 21 18  1  0  0  0  0
 23 19  1  0  0  0  0
 25 20  1  0  0  0  0
 26 31  1  6  0  0  0
 27  5  1  6  0  0  0
 27 26  1  0  0  0  0
 28 29  1  0  0  0  0
 28 27  1  0  0  0  0
 29 30  1  0  0  0  0
 30 26  1  0  0  0  0
 30 33  1  1  0  0  0
 31 32  1  0  0  0  0
 34 33  1  0  0  0  0
M  END
>  <minimizedAffinity>
-5.9425869

>  <minimizedRMSD>
1.30773365

$$$$
