
     RDKit          3D

 24 25  0  0  0  0  0  0  0  0999 V2000
   45.0013   35.4855   44.1871 C   0  0  0  0  0  0  0  0  0  0  0  0
   45.9784   34.9304   43.3427 C   0  0  0  0  0  0  0  0  0  0  0  0
   46.7082   33.8403   43.8352 C   0  0  0  0  0  0  0  0  0  0  0  0
   46.4420   33.3750   45.0907 N   0  0  0  0  0  0  0  0  0  0  0  0
   45.4928   33.9440   45.8618 C   0  0  0  0  0  0  0  0  0  0  0  0
   44.7839   34.9812   45.4194 N   0  0  0  0  0  0  0  0  0  0  0  0
   44.2913   36.5466   43.7071 O   0  0  0  0  0  0  0  0  0  0  0  0
   46.2046   35.2799   42.3522 H   0  0  0  0  0  0  0  0  0  0  0  0
   45.3360   33.5179   46.8541 H   0  0  0  0  0  0  0  0  0  0  0  0
   44.7777   37.2351   43.1450 H   0  0  0  0  0  0  0  0  0  0  0  0
   47.1776   33.5933   40.7896 O   0  0  0  0  0  0  0  0  0  0  0  0
   48.1315   33.7725   41.7766 C   0  0  1  0  0  0  0  0  0  0  0  0
   47.7551   33.1423   43.1020 C   0  0  1  0  0  0  0  0  0  0  0  0
   48.9821   33.1922   43.7560 O   0  0  0  0  0  0  0  0  0  0  0  0
   49.9272   32.7276   42.8643 C   0  0  0  0  0  0  0  0  0  0  0  0
   49.3975   32.9621   41.4741 C   0  0  2  0  0  0  0  0  0  0  0  0
   50.2702   33.6638   40.6670 O   0  0  0  0  0  0  0  0  0  0  0  0
   47.0930   34.3947   40.1846 H   0  0  0  0  0  0  0  0  0  0  0  0
   48.3891   34.8156   41.9913 H   0  0  0  0  0  0  0  0  0  0  0  0
   47.5512   32.0704   42.8826 H   0  0  0  0  0  0  0  0  0  0  0  0
   50.9372   33.1816   43.0285 H   0  0  0  0  0  0  0  0  0  0  0  0
   50.0295   31.6226   43.0739 H   0  0  0  0  0  0  0  0  0  0  0  0
   49.0827   31.9907   41.0611 H   0  0  0  0  0  0  0  0  0  0  0  0
   50.3583   33.2493   39.7659 H   0  0  0  0  0  0  0  0  0  0  0  0
  1  6  2  0
  2  3  2  0
  2  1  1  0
  3  4  1  0
  4  5  2  0
  6  5  1  0
  7  1  1  0
  2  8  1  0
  5  9  1  0
  7 10  1  0
 11 12  1  0
 12 13  1  0
 13 14  1  0
 14 15  1  0
 15 16  1  0
 16 17  1  0
 16 12  1  0
 11 18  1  0
 12 19  1  1
 13 20  1  6
 15 21  1  0
 15 22  1  0
 16 23  1  6
 17 24  1  0
  3 13  1  0
M  ISO  3   8  14   9  14  10   3
M  END
>  <DihAtoms>  (1) 
1,2,12,11

>  <DihDeg>  (1) 
21.352162942984876

$$$$
