
 OpenBabel03252506513D

 31 34  0  0  1  0  0  0  0  0999 V2000
   47.2460   31.3830   45.1760 C   0  0  0  0  0  0  0  0  0  0  0  0
   46.8660   32.7070   45.1410 C   0  0  0  0  0  0  0  0  0  0  0  0
   46.2370   33.3160   46.2160 C   0  0  0  0  0  0  0  0  0  0  0  0
   45.9650   32.6040   47.3820 C   0  0  0  0  0  0  0  0  0  0  0  0
   45.3910   32.8580   48.5800 N   0  0  0  0  0  0  0  0  0  0  0  0
   45.4200   31.7200   49.3230 C   0  0  0  0  0  0  0  0  0  0  0  0
   46.0180   30.7680   48.5690 N   0  0  0  0  0  0  0  0  0  0  0  0
   46.3600   31.2880   47.3730 C   0  0  0  0  0  0  0  0  0  0  0  0
   46.9860   30.6450   46.3300 C   0  0  0  0  0  0  0  0  0  0  0  0
   47.7370   30.9600   44.2980 H   0  0  0  0  0  0  0  0  0  0  0  0
   45.9400   34.3520   46.1910 H   0  0  0  0  0  0  0  0  0  0  0  0
   45.0110   33.7930   48.8230 H   0  0  0  0  0  0  0  0  0  0  0  0
   45.0210   31.6540   50.3300 H   0  0  0  0  0  0  0  0  0  0  0  0
   46.4950   35.1890   42.4490 C   0  0  0  0  0  0  0  0  0  0  0  0
   47.6780   35.0140   41.7220 C   0  0  0  0  0  0  0  0  0  0  0  0
   48.5950   34.0480   42.1570 C   0  0  0  0  0  0  0  0  0  0  0  0
   48.2590   33.3410   43.2740 N   0  0  0  0  0  0  0  0  0  0  0  0
   47.1130   33.5230   43.9630 C   0  0  0  0  0  0  0  0  0  0  0  0
   46.2340   34.4440   43.5530 N   0  0  0  0  0  0  0  0  0  0  0  0
   45.7440   35.9200   42.1660 H   0  0  0  0  0  0  0  0  0  0  0  0
   47.8680   35.6210   40.8430 H   0  0  0  0  0  0  0  0  0  0  0  0
   49.5070   33.8840   41.6320 H   0  0  0  0  0  0  0  0  0  0  0  0
   46.3900   28.4140   47.2020 C   0  0  2  0  0  0  0  0  0  0  0  0
   47.3770   29.2390   46.3950 C   0  0  2  0  0  0  0  0  0  0  0  0
   48.5510   29.0280   47.1160 O   0  0  0  0  0  0  0  0  0  0  0  0
   48.6070   27.6910   47.4170 C   0  0  0  0  0  0  0  0  0  0  0  0
   47.2010   27.1440   47.3790 C   0  0  1  0  0  0  0  0  0  0  0  0
   45.1910   28.1990   46.5450 O   0  0  0  0  0  0  0  0  0  0  0  0
   44.5330   28.8210   46.9820 H   0  0  0  0  0  0  0  0  0  0  0  0
   46.8620   26.4770   48.5510 O   0  0  0  0  0  0  0  0  0  0  0  0
   45.9360   26.7830   48.7840 H   0  0  0  0  0  0  0  0  0  0  0  0
  1  9  1  0  0  0  0
  2  1  2  0  0  0  0
  2  3  1  0  0  0  0
  3  4  2  0  0  0  0
  4  5  1  0  0  0  0
  5 12  1  0  0  0  0
  5  6  1  0  0  0  0
  6 13  1  0  0  0  0
  7  6  2  0  0  0  0
  8  4  1  0  0  0  0
  8  7  1  0  0  0  0
  9  8  2  0  0  0  0
 10  1  1  0  0  0  0
 11  3  1  0  0  0  0
 14 19  1  0  0  0  0
 15 16  1  0  0  0  0
 15 14  2  0  0  0  0
 16 17  2  0  0  0  0
 17 18  1  0  0  0  0
 18  2  1  0  0  0  0
 19 18  2  0  0  0  0
 20 14  1  0  0  0  0
 21 15  1  0  0  0  0
 22 16  1  0  0  0  0
 23 28  1  6  0  0  0
 23 27  1  0  0  0  0
 24  9  1  1  0  0  0
 24 25  1  0  0  0  0
 24 23  1  0  0  0  0
 25 26  1  0  0  0  0
 27 26  1  0  0  0  0
 27 30  1  1  0  0  0
 28 29  1  0  0  0  0
 30 31  1  0  0  0  0
M  END
>  <minimizedAffinity>
-5.834373

>  <minimizedRMSD>
0.930889428

$$$$
