
     RDKit          3D

 36 39  0  0  0  0  0  0  0  0999 V2000
   47.2135   31.3557   45.0873 C   0  0  0  0  0  0  0  0  0  0  0  0
   46.8825   32.6878   45.0945 C   0  0  0  0  0  0  0  0  0  0  0  0
   46.2809   33.3324   46.1794 C   0  0  0  0  0  0  0  0  0  0  0  0
   45.9980   32.5822   47.3256 C   0  0  0  0  0  0  0  0  0  0  0  0
   45.4465   32.8195   48.5326 N   0  0  0  0  0  0  0  0  0  0  0  0
   45.4379   31.6581   49.2544 C   0  0  0  0  0  0  0  0  0  0  0  0
   45.9921   30.7093   48.4700 N   0  0  0  0  0  0  0  0  0  0  0  0
   46.3448   31.2372   47.2880 C   0  0  0  0  0  0  0  0  0  0  0  0
   46.9369   30.5956   46.2242 C   0  0  0  0  0  0  0  0  0  0  0  0
   46.4928   35.2042   42.4360 C   0  0  0  0  0  0  0  0  0  0  0  0
   47.6853   35.0778   41.7304 C   0  0  0  0  0  0  0  0  0  0  0  0
   48.6432   34.1182   42.1565 C   0  0  0  0  0  0  0  0  0  0  0  0
   48.3363   33.3547   43.2596 N   0  0  0  0  0  0  0  0  0  0  0  0
   47.1692   33.5064   43.9185 C   0  0  0  0  0  0  0  0  0  0  0  0
   46.3050   34.4129   43.4860 N   0  0  0  0  0  0  0  0  0  0  0  0
   47.6796   30.9241   44.2053 H   0  0  0  0  0  0  0  0  0  0  0  0
   45.0868   33.7088   48.8769 H   0  0  0  0  0  0  0  0  0  0  0  0
   45.0689   31.4965   50.2554 H   0  0  0  0  0  0  0  0  0  0  0  0
   47.1821   29.5465   46.2568 H   0  0  0  0  0  0  0  0  0  0  0  0
   45.7213   35.9109   42.1690 H   0  0  0  0  0  0  0  0  0  0  0  0
   47.8734   35.7048   40.8708 H   0  0  0  0  0  0  0  0  0  0  0  0
   49.5645   33.9981   41.6369 H   0  0  0  0  0  0  0  0  0  0  0  0
   45.0262   34.3294   44.0412 O   0  0  0  0  0  0  0  0  0  0  0  0
   45.4089   35.3170   44.9451 C   0  0  2  0  0  0  0  0  0  0  0  0
   45.8979   34.7615   46.2422 C   0  0  1  0  0  0  0  0  0  0  0  0
   44.8819   34.9786   47.1904 O   0  0  0  0  0  0  0  0  0  0  0  0
   44.2585   36.1496   46.8211 C   0  0  0  0  0  0  0  0  0  0  0  0
   44.1347   36.0678   45.3363 C   0  0  2  0  0  0  0  0  0  0  0  0
   43.0044   35.4180   44.8797 O   0  0  0  0  0  0  0  0  0  0  0  0
   44.4486   34.7534   43.3605 H   0  0  0  0  0  0  0  0  0  0  0  0
   46.0343   36.0531   44.4487 H   0  0  0  0  0  0  0  0  0  0  0  0
   46.7388   35.3874   46.6691 H   0  0  0  0  0  0  0  0  0  0  0  0
   43.2446   36.2114   47.2543 H   0  0  0  0  0  0  0  0  0  0  0  0
   44.8677   37.0537   47.0596 H   0  0  0  0  0  0  0  0  0  0  0  0
   44.1052   37.0897   44.8787 H   0  0  0  0  0  0  0  0  0  0  0  0
   42.2528   36.0440   44.7859 H   0  0  0  0  0  0  0  0  0  0  0  0
  1  2  2  0
  1  9  1  0
  2  3  1  0
  3  4  2  0
  4  5  1  0
  5  6  1  0
  7  6  2  0
  8  4  1  0
  8  7  1  0
  9  8  2  0
 10 15  2  0
 11 12  2  0
 11 10  1  0
 12 13  1  0
 13 14  2  0
 14  2  1  0
 15 14  1  0
  1 16  1  0
  5 17  1  0
  6 18  1  0
  9 19  1  0
 10 20  1  0
 11 21  1  0
 12 22  1  0
 23 24  1  0
 24 25  1  0
 25 26  1  0
 26 27  1  0
 27 28  1  0
 28 29  1  0
 28 24  1  0
 23 30  1  0
 24 31  1  6
 25 32  1  1
 27 33  1  0
 27 34  1  0
 28 35  1  6
 29 36  1  0
  3 25  1  0
M  ISO  7  16  14  17   9  18  14  19  14  20  14  21  14  22  14
M  END
>  <DihAtoms>  (1) 
1,2,24,23

>  <DihDeg>  (1) 
95.44907702963805

$$$$
