
 OpenBabel03252505183D

 34 37  0  0  1  0  0  0  0  0999 V2000
   45.9690   33.0560   46.3790 C   0  0  0  0  0  0  0  0  0  0  0  0
   45.1680   33.1040   47.5010 C   0  0  0  0  0  0  0  0  0  0  0  0
   45.3740   32.1960   48.5290 C   0  0  0  0  0  0  0  0  0  0  0  0
   46.3910   31.2700   48.3780 C   0  0  0  0  0  0  0  0  0  0  0  0
   47.1640   31.2700   47.2260 C   0  0  0  0  0  0  0  0  0  0  0  0
   46.9630   32.1580   46.2200 N   0  0  0  0  0  0  0  0  0  0  0  0
   44.3690   33.8280   47.6260 H   0  0  0  0  0  0  0  0  0  0  0  0
   44.7420   32.2370   49.4090 H   0  0  0  0  0  0  0  0  0  0  0  0
   46.5650   30.5640   49.1570 H   0  0  0  0  0  0  0  0  0  0  0  0
   44.5960   35.8630   44.4200 C   0  0  0  0  0  0  0  0  0  0  0  0
   45.3230   35.8110   43.2080 C   0  0  0  0  0  0  0  0  0  0  0  0
   46.2610   34.8090   43.1200 C   0  0  0  0  0  0  0  0  0  0  0  0
   46.4630   33.9290   44.1550 N   0  0  0  0  0  0  0  0  0  0  0  0
   45.7280   34.0230   45.3110 C   0  0  0  0  0  0  0  0  0  0  0  0
   44.8040   34.9900   45.4270 N   0  0  0  0  0  0  0  0  0  0  0  0
   43.8380   36.6500   44.5250 H   0  0  0  0  0  0  0  0  0  0  0  0
   45.1390   36.5210   42.4130 H   0  0  0  0  0  0  0  0  0  0  0  0
   47.0670   34.6430   41.8660 C   0  0  0  0  0  0  0  0  0  0  0  0
   48.3290   35.5050   41.8700 C   0  0  0  0  0  0  0  0  0  0  0  0
   48.3230   33.9440   41.9260 C   0  0  0  0  0  0  0  0  0  0  0  0
   46.4750   34.6880   40.9230 H   0  0  0  0  0  0  0  0  0  0  0  0
   48.6250   35.9830   42.8260 H   0  0  0  0  0  0  0  0  0  0  0  0
   48.5730   35.9640   40.9160 H   0  0  0  0  0  0  0  0  0  0  0  0
   48.7080   33.4920   42.8680 H   0  0  0  0  0  0  0  0  0  0  0  0
   48.7360   33.4880   41.0080 H   0  0  0  0  0  0  0  0  0  0  0  0
   48.4380   29.7090   45.7380 C   0  0  1  0  0  3  0  0  0  0  0  0
   48.2360   30.2620   47.1140 C   0  0  2  0  0  3  0  0  0  0  0  0
   48.0000   29.1160   47.8650 O   0  0  0  0  0  0  0  0  0  0  0  0
   49.0230   28.2720   47.4980 C   0  0  0  0  0  2  0  0  0  0  0  0
   49.3760   28.5360   46.0600 C   0  0  2  0  0  3  0  0  0  0  0  0
   47.3090   29.2200   45.1280 O   0  0  0  0  0  0  0  0  0  0  0  0
   46.8420   29.8600   44.5360 H   0  0  0  0  0  0  0  0  0  0  0  0
   50.7200   28.9580   46.0410 O   0  0  0  0  0  0  0  0  0  0  0  0
   50.7870   29.8980   46.3480 H   0  0  0  0  0  0  0  0  0  0  0  0
  1  2  1  0  0  0  0
  2  7  1  0  0  0  0
  2  3  2  0  0  0  0
  3  8  1  0  0  0  0
  4  3  1  0  0  0  0
  4  9  1  0  0  0  0
  5  4  2  0  0  0  0
  6  1  2  0  0  0  0
  6  5  1  0  0  0  0
 10 16  1  0  0  0  0
 10 15  1  0  0  0  0
 11 10  2  0  0  0  0
 12 11  1  0  0  0  0
 12 13  2  0  0  0  0
 13 14  1  0  0  0  0
 14 15  2  0  0  0  0
 14  1  1  0  0  0  0
 17 11  1  0  0  0  0
 18 19  1  0  0  0  0
 18 20  1  0  0  0  0
 18 12  1  0  0  0  0
 19 20  1  0  0  0  0
 19 22  1  0  0  0  0
 20 24  1  0  0  0  0
 21 18  1  0  0  0  0
 23 19  1  0  0  0  0
 25 20  1  0  0  0  0
 26 31  1  1  0  0  0
 26 30  1  0  0  0  0
 26 27  1  0  0  0  0
 27  5  1  6  0  0  0
 27 28  1  0  0  0  0
 29 28  1  0  0  0  0
 30 33  1  1  0  0  0
 30 29  1  0  0  0  0
 32 31  1  0  0  0  0
 33 34  1  0  0  0  0
M  END
>  <minimizedAffinity>
-5.75658083

>  <minimizedRMSD>
0.967354298

$$$$
