REMARK  Name = 
REMARK  5 active torsions:
REMARK  status: ('A' for Active; 'I' for Inactive)
REMARK    1  A    between atoms: CA_1  and  C_7
REMARK    2  A    between atoms: C_5  and  C_9
REMARK    3  A    between atoms: C_11  and  C_21
REMARK    4  A    between atoms: O_19  and  C_20
REMARK    5  A    between atoms: C_24  and  O_25
REMARK                            x       y       z     vdW  Elec       q    Type
REMARK                         _______ _______ _______ _____ _____    ______ ____
ROOT
ATOM      1  C   UNL     1      46.064  32.461  46.252  0.00  0.00    +0.000 C 
ATOM      2  C   UNL     1      46.996  32.630  47.410  0.00  0.00    +0.000 C 
ATOM      3  C   UNL     1      45.525  32.607  47.639  0.00  0.00    +0.000 C 
ATOM      4  H   UNL     1      46.016  31.503  45.737  0.00  0.00    +0.000 HD
ATOM      5  H   UNL     1      47.577  33.578  47.389  0.00  0.00    +0.000 HD
ATOM      6  H   UNL     1      47.601  31.732  47.657  0.00  0.00    +0.000 HD
ATOM      7  H   UNL     1      45.130  33.611  47.964  0.00  0.00    +0.000 HD
ENDROOT
BRANCH   1  12
ATOM      8  CA  UNL     1      46.071  34.759  43.389  0.00  0.00    +0.000 A 
ATOM      9  C   UNL     1      45.172  35.784  43.781  0.00  0.00    +0.000 A 
ATOM     10  C   UNL     1      44.571  35.651  45.044  0.00  0.00    +0.000 A 
ATOM     11  N   UNL     1      44.883  34.563  45.806  0.00  0.00    +0.000 NA
ATOM     12  C   UNL     1      45.758  33.620  45.357  0.00  0.00    +0.000 A 
ATOM     13  N   UNL     1      46.357  33.691  44.173  0.00  0.00    +0.000 NA
ATOM     14  H   UNL     1      44.955  36.621  43.154  0.00  0.00    +0.000 HD
ATOM     15  H   UNL     1      43.886  36.390  45.394  0.00  0.00    +0.000 HD
BRANCH   8  16
ATOM     16  C   UNL     1      46.658  34.956  42.096  0.00  0.00    +0.000 C 
ATOM     17  O   UNL     1      47.827  35.406  41.885  0.00  0.00    +0.000 OA
ATOM     18  H   UNL     1      46.121  34.725  41.164  0.00  0.00    +0.000 HD
ENDBRANCH   8  16
ENDBRANCH   1  12
BRANCH   3  20
ATOM     19  C   UNL     1      45.279  30.099  47.828  0.00  0.00    +0.000 C 
ATOM     20  C   UNL     1      44.965  31.452  48.388  0.00  0.00    +0.000 C 
ATOM     21  O   UNL     1      45.465  31.338  49.682  0.00  0.00    +0.000 OA
ATOM     22  C   UNL     1      45.033  30.121  50.150  0.00  0.00    +0.000 C 
ATOM     23  C   UNL     1      44.749  29.221  48.970  0.00  0.00    +0.000 C 
BRANCH  19  24
ATOM     24  O   UNL     1      46.642  29.954  47.724  0.00  0.00    +0.000 OA
ATOM     25  H   UNL     1      47.020  29.486  48.512  0.00  0.00    +0.000 HD
ENDBRANCH  19  24
BRANCH  23  26
ATOM     26  O   UNL     1      45.473  28.044  48.992  0.00  0.00    +0.000 OA
ATOM     27  H   UNL     1      44.829  27.320  49.193  0.00  0.00    +0.000 HD
ENDBRANCH  23  26
ENDBRANCH   3  20
TORSDOF 5
