
 OpenBabel03252509143D

 45 49  0  0  1  0  0  0  0  0999 V2000
   44.6050   35.0100   42.4590 S   0  0  0  0  0  0  0  0  0  0  0  0
   47.4810   32.5060   43.9350 C   0  0  0  0  0  0  0  0  0  0  0  0
   46.6810   33.2810   43.0940 C   0  0  0  0  0  0  0  0  0  0  0  0
   45.6080   34.0340   43.5450 C   0  0  0  0  0  0  0  0  0  0  0  0
   45.3000   34.0230   44.9150 C   0  0  0  0  0  0  0  0  0  0  0  0
   44.3690   34.6050   45.6960 N   0  0  0  0  0  0  0  0  0  0  0  0
   44.5500   34.2320   46.9750 C   0  0  0  0  0  0  0  0  0  0  0  0
   45.6120   33.4070   46.9680 N   0  0  0  0  0  0  0  0  0  0  0  0
   46.1000   33.2550   45.7230 C   0  0  0  0  0  0  0  0  0  0  0  0
   47.1800   32.4930   45.2970 C   0  0  0  0  0  0  0  0  0  0  0  0
   48.2880   31.9580   43.5050 H   0  0  0  0  0  0  0  0  0  0  0  0
   43.6150   35.2570   45.3310 H   0  0  0  0  0  0  0  0  0  0  0  0
   43.9670   34.5260   47.8430 H   0  0  0  0  0  0  0  0  0  0  0  0
   47.7790   31.9050   45.9650 H   0  0  0  0  0  0  0  0  0  0  0  0
   46.9170   32.2670   39.5810 C   0  0  0  0  0  0  0  0  0  0  0  0
   47.5660   33.3580   38.9880 C   0  0  0  0  0  0  0  0  0  0  0  0
   47.9170   34.4340   39.8020 C   0  0  0  0  0  0  0  0  0  0  0  0
   47.6180   34.3820   41.1330 N   0  0  0  0  0  0  0  0  0  0  0  0
   46.9880   33.3040   41.6620 C   0  0  0  0  0  0  0  0  0  0  0  0
   46.6250   32.2340   40.9170 N   0  0  0  0  0  0  0  0  0  0  0  0
   46.6700   31.4690   38.9020 H   0  0  0  0  0  0  0  0  0  0  0  0
   47.8000   33.3990   37.9490 H   0  0  0  0  0  0  0  0  0  0  0  0
   48.4200   35.3230   39.4540 H   0  0  0  0  0  0  0  0  0  0  0  0
   42.3570   34.1360   41.3910 N   0  0  0  0  0  0  0  0  0  0  0  0
   43.7890   34.0440   41.1660 C   0  0  1  0  0  0  0  0  0  0  0  0
   44.1890   34.7100   39.8430 C   0  0  0  0  0  0  0  0  0  0  0  0
   43.3250   34.4260   38.8050 O   0  0  0  0  0  0  0  0  0  0  0  0
   42.4020   33.4350   39.0560 C   0  0  0  0  0  0  0  0  0  0  0  0
   41.5740   33.8440   40.2450 C   0  0  1  0  0  0  0  0  0  0  0  0
   42.1570   33.6080   42.2460 H   0  0  0  0  0  0  0  0  0  0  0  0
   44.1170   33.0030   41.1390 H   0  0  0  0  0  0  0  0  0  0  0  0
   44.2960   35.8020   40.0160 H   0  0  0  0  0  0  0  0  0  0  0  0
   45.1460   34.3100   39.5220 H   0  0  0  0  0  0  0  0  0  0  0  0
   42.9520   32.5030   39.2900 H   0  0  0  0  0  0  0  0  0  0  0  0
   41.7750   33.3200   38.1750 H   0  0  0  0  0  0  0  0  0  0  0  0
   41.0300   34.7720   39.9660 H   0  0  0  0  0  0  0  0  0  0  0  0
   40.1810   32.6110   41.9270 C   0  0  2  0  0  3  0  0  0  0  0  0
   40.5300   32.7880   40.4510 C   0  0  2  0  0  3  0  0  0  0  0  0
   40.8870   31.5130   40.1130 O   0  0  0  0  0  0  0  0  0  0  0  0
   39.7830   30.7720   40.5320 C   0  0  0  0  0  2  0  0  0  0  0  0
   39.2320   31.4130   41.7760 C   0  0  2  0  0  3  0  0  0  0  0  0
   39.5300   33.6930   42.4660 O   0  0  0  0  0  0  0  0  0  0  0  0
   40.2080   34.3050   42.8780 H   0  0  0  0  0  0  0  0  0  0  0  0
   37.9790   31.9950   41.4750 O   0  0  0  0  0  0  0  0  0  0  0  0
   37.7820   31.8760   40.5100 H   0  0  0  0  0  0  0  0  0  0  0  0
  1  4  1  0  0  0  0
  2 10  1  0  0  0  0
  3  4  1  0  0  0  0
  3  2  2  0  0  0  0
  4  5  2  0  0  0  0
  5  6  1  0  0  0  0
  5  9  1  0  0  0  0
  6  7  1  0  0  0  0
  7 13  1  0  0  0  0
  8  7  2  0  0  0  0
  9  8  1  0  0  0  0
 10  9  2  0  0  0  0
 10 14  1  0  0  0  0
 11  2  1  0  0  0  0
 12  6  1  0  0  0  0
 15 20  1  0  0  0  0
 16 15  2  0  0  0  0
 16 17  1  0  0  0  0
 17 18  2  0  0  0  0
 18 19  1  0  0  0  0
 19  3  1  0  0  0  0
 20 19  2  0  0  0  0
 21 15  1  0  0  0  0
 22 16  1  0  0  0  0
 23 17  1  0  0  0  0
 24 30  1  0  0  0  0
 25 31  1  1  0  0  0
 25 24  1  0  0  0  0
 25  1  1  0  0  0  0
 26 32  1  0  0  0  0
 26 25  1  0  0  0  0
 27 28  1  0  0  0  0
 27 26  1  0  0  0  0
 28 34  1  0  0  0  0
 28 29  1  0  0  0  0
 29 36  1  6  0  0  0
 29 38  1  0  0  0  0
 29 24  1  0  0  0  0
 33 26  1  0  0  0  0
 35 28  1  0  0  0  0
 37 42  1  6  0  0  0
 38 39  1  1  0  0  0
 38 37  1  0  0  0  0
 39 40  1  0  0  0  0
 40 41  1  0  0  0  0
 41 44  1  6  0  0  0
 41 37  1  0  0  0  0
 42 43  1  0  0  0  0
 45 44  1  0  0  0  0
M  END
>  <minimizedAffinity>
-5.715765

>  <minimizedRMSD>
1.88140047

$$$$
