
 OpenBabel03252505453D

 25 27  0  0  1  0  0  0  0  0999 V2000
   43.0830   35.2800   41.7760 C   0  0  1  0  0  0  0  0  0  0  0  0
   43.8550   34.0240   42.1230 C   0  0  2  0  0  0  0  0  0  0  0  0
   44.4470   35.1400   41.3160 C   0  0  0  0  0  0  0  0  0  0  0  0
   42.8290   35.9650   42.6500 H   0  0  0  0  0  0  0  0  0  0  0  0
   44.2330   34.0300   43.1900 H   0  0  0  0  0  0  0  0  0  0  0  0
   45.2040   35.8200   41.7830 H   0  0  0  0  0  0  0  0  0  0  0  0
   44.5810   35.0690   40.2190 H   0  0  0  0  0  0  0  0  0  0  0  0
   41.8890   35.0690   40.9330 C   0  0  0  0  0  0  0  0  0  0  0  0
   42.0380   35.2990   39.5500 C   0  0  0  0  0  0  0  0  0  0  0  0
   40.9090   35.0970   38.7220 C   0  0  0  0  0  0  0  0  0  0  0  0
   39.7390   34.6880   39.3390 N   0  0  0  0  0  0  0  0  0  0  0  0
   39.6710   34.4890   40.6700 C   0  0  0  0  0  0  0  0  0  0  0  0
   40.7290   34.6760   41.4560 N   0  0  0  0  0  0  0  0  0  0  0  0
   42.9540   35.6190   39.0690 H   0  0  0  0  0  0  0  0  0  0  0  0
   40.9340   35.2510   37.6520 H   0  0  0  0  0  0  0  0  0  0  0  0
   38.7060   34.1660   41.0700 H   0  0  0  0  0  0  0  0  0  0  0  0
   44.7510   32.1290   40.7000 C   0  0  1  0  0  3  0  0  0  0  0  0
   43.6320   32.7060   41.4970 C   0  0  1  0  0  3  0  0  0  0  0  0
   43.4770   31.7690   42.5190 O   0  0  0  0  0  0  0  0  0  0  0  0
   44.8010   31.6370   42.9990 C   0  0  0  0  0  2  0  0  0  0  0  0
   45.6390   31.5060   41.7370 C   0  0  1  0  0  3  0  0  0  0  0  0
   44.2250   31.0940   39.9130 O   0  0  0  0  0  0  0  0  0  0  0  0
   44.0790   30.2980   40.4780 H   0  0  0  0  0  0  0  0  0  0  0  0
   45.7750   30.1270   41.5180 O   0  0  0  0  0  0  0  0  0  0  0  0
   46.4760   29.8080   42.1320 H   0  0  0  0  0  0  0  0  0  0  0  0
  1  2  1  0  0  0  0
  1  4  1  1  0  0  0
  2  5  1  1  0  0  0
  3  1  1  0  0  0  0
  3  6  1  0  0  0  0
  3  2  1  0  0  0  0
  7  3  1  0  0  0  0
  8 13  1  0  0  0  0
  8  1  1  0  0  0  0
  9  8  2  0  0  0  0
 10 11  2  0  0  0  0
 10  9  1  0  0  0  0
 11 12  1  0  0  0  0
 12 16  1  0  0  0  0
 12 13  2  0  0  0  0
 14  9  1  0  0  0  0
 15 10  1  0  0  0  0
 17 22  1  6  0  0  0
 17 18  1  0  0  0  0
 17 21  1  0  0  0  0
 18  2  1  0  0  0  0
 18 19  1  1  0  0  0
 19 20  1  0  0  0  0
 21 24  1  6  0  0  0
 21 20  1  0  0  0  0
 22 23  1  0  0  0  0
 24 25  1  0  0  0  0
M  END
>  <minimizedAffinity>
-3.35328746

>  <minimizedRMSD>
7.49815798

$$$$
