
     RDKit          3D

 30 32  0  0  0  0  0  0  0  0999 V2000
   45.5090   34.0586   44.6357 C   0  0  0  0  0  0  0  0  0  0  0  0
   46.4737   33.3330   43.9083 C   0  0  0  0  0  0  0  0  0  0  0  0
   47.2769   32.4089   44.6169 C   0  0  0  0  0  0  0  0  0  0  0  0
   47.0506   32.2898   45.9768 N   0  0  0  0  0  0  0  0  0  0  0  0
   46.1085   33.0184   46.6057 C   0  0  0  0  0  0  0  0  0  0  0  0
   45.3479   33.8901   45.9474 N   0  0  0  0  0  0  0  0  0  0  0  0
   44.6858   35.0216   43.8757 C   0  0  1  0  0  0  0  0  0  0  0  0
   44.7829   36.4591   44.3433 C   0  0  2  0  0  0  0  0  0  0  0  0
   45.2156   36.0216   42.9763 C   0  0  0  0  0  0  0  0  0  0  0  0
   46.6489   33.4282   42.8445 H   0  0  0  0  0  0  0  0  0  0  0  0
   48.0402   31.8110   44.1375 H   0  0  0  0  0  0  0  0  0  0  0  0
   46.0004   32.8577   47.6827 H   0  0  0  0  0  0  0  0  0  0  0  0
   43.6324   34.6127   43.7391 H   0  0  0  0  0  0  0  0  0  0  0  0
   43.7839   36.9905   44.3179 H   0  0  0  0  0  0  0  0  0  0  0  0
   44.5854   36.2781   42.0872 H   0  0  0  0  0  0  0  0  0  0  0  0
   46.2828   35.9084   42.7015 H   0  0  0  0  0  0  0  0  0  0  0  0
   47.5660   38.3884   45.8058 O   0  0  0  0  0  0  0  0  0  0  0  0
   46.4192   38.2761   45.0066 C   0  0  1  0  0  0  0  0  0  0  0  0
   45.7865   36.9597   45.3030 C   0  0  1  0  0  0  0  0  0  0  0  0
   45.1345   37.2056   46.5126 O   0  0  0  0  0  0  0  0  0  0  0  0
   44.4070   38.3826   46.2176 C   0  0  0  0  0  0  0  0  0  0  0  0
   45.4152   39.2726   45.5090 C   0  0  1  0  0  0  0  0  0  0  0  0
   45.9710   40.0840   46.5092 O   0  0  0  0  0  0  0  0  0  0  0  0
   47.2971   38.6085   46.7309 H   0  0  0  0  0  0  0  0  0  0  0  0
   46.7067   38.4472   43.9533 H   0  0  0  0  0  0  0  0  0  0  0  0
   46.5652   36.1966   45.5717 H   0  0  0  0  0  0  0  0  0  0  0  0
   44.0166   38.8556   47.1490 H   0  0  0  0  0  0  0  0  0  0  0  0
   43.5361   38.1919   45.5691 H   0  0  0  0  0  0  0  0  0  0  0  0
   44.9478   39.8695   44.7186 H   0  0  0  0  0  0  0  0  0  0  0  0
   45.3200   40.8015   46.6883 H   0  0  0  0  0  0  0  0  0  0  0  0
  1  6  1  0
  2  1  2  0
  2  3  1  0
  3  4  2  0
  4  5  1  0
  6  5  2  0
  7  8  1  0
  7  1  1  0
  9  7  1  0
  9  8  1  0
  2 10  1  0
  3 11  1  0
  5 12  1  0
  7 13  1  6
  8 14  1  6
  9 15  1  0
  9 16  1  0
 17 18  1  0
 18 19  1  0
 19 20  1  0
 20 21  1  0
 21 22  1  0
 22 23  1  0
 22 18  1  0
 17 24  1  0
 18 25  1  6
 19 26  1  1
 21 27  1  0
 21 28  1  0
 22 29  1  6
 23 30  1  0
  8 19  1  0
M  ISO  7  10  14  11  14  12  14  13  13  14  13  15  13  16  13
M  END
>  <DihAtoms>  (1) 
6,7,18,17

>  <DihDeg>  (1) 
63.00132242892011

$$$$
