
 OpenBabel03242517063D

 34 36  0  0  1  0  0  0  0  0999 V2000
   46.0680   33.8220   43.1300 C   0  0  2  0  0  0  0  0  0  0  0  0
   45.3390   34.9370   42.4860 C   0  0  2  0  0  0  0  0  0  0  0  0
   45.1910   36.1440   43.3530 C   0  0  0  0  0  0  0  0  0  0  0  0
   44.6080   35.8430   44.7180 C   0  0  0  0  0  0  0  0  0  0  0  0
   45.0530   34.5170   45.2890 C   0  0  0  0  0  0  0  0  0  0  0  0
   46.3110   34.0300   44.6160 C   0  0  0  0  0  0  0  0  0  0  0  0
   45.5090   32.8490   43.0640 H   0  0  0  0  0  0  0  0  0  0  0  0
   45.8960   35.2680   41.5790 H   0  0  0  0  0  0  0  0  0  0  0  0
   46.0470   36.8050   43.4320 H   0  0  0  0  0  0  0  0  0  0  0  0
   44.3920   36.7660   42.8490 H   0  0  0  0  0  0  0  0  0  0  0  0
   43.4940   35.9470   44.7460 H   0  0  0  0  0  0  0  0  0  0  0  0
   44.9750   36.6340   45.4080 H   0  0  0  0  0  0  0  0  0  0  0  0
   45.1380   34.5030   46.3710 H   0  0  0  0  0  0  0  0  0  0  0  0
   44.2510   33.7650   45.0310 H   0  0  0  0  0  0  0  0  0  0  0  0
   46.5490   33.0390   45.0710 H   0  0  0  0  0  0  0  0  0  0  0  0
   47.1740   34.6800   44.8180 H   0  0  0  0  0  0  0  0  0  0  0  0
   47.3770   33.5700   42.4980 C   0  0  0  0  0  0  0  0  0  0  0  0
   48.4390   34.3730   42.9510 C   0  0  0  0  0  0  0  0  0  0  0  0
   49.7270   34.2160   42.4200 C   0  0  0  0  0  0  0  0  0  0  0  0
   49.8600   33.2430   41.4510 N   0  0  0  0  0  0  0  0  0  0  0  0
   48.8220   32.4870   41.0350 C   0  0  0  0  0  0  0  0  0  0  0  0
   47.5820   32.6480   41.5560 N   0  0  0  0  0  0  0  0  0  0  0  0
   48.4200   35.1510   43.7010 H   0  0  0  0  0  0  0  0  0  0  0  0
   50.5780   34.7870   42.7150 H   0  0  0  0  0  0  0  0  0  0  0  0
   48.9850   31.7410   40.2740 H   0  0  0  0  0  0  0  0  0  0  0  0
   43.2580   35.4520   41.1550 C   0  0  1  0  0  0  0  0  0  0  0  0
   44.0020   34.4530   41.9800 C   0  0  1  0  0  0  0  0  0  0  0  0
   44.2160   33.3190   41.2230 O   0  0  0  0  0  0  0  0  0  0  0  0
   44.0690   33.6640   39.8810 C   0  0  0  0  0  0  0  0  0  0  0  0
   42.8650   34.5900   39.9480 C   0  0  2  0  0  0  0  0  0  0  0  0
   42.1040   35.9220   41.7420 O   0  0  0  0  0  0  0  0  0  0  0  0
   41.7910   36.7170   41.2700 H   0  0  0  0  0  0  0  0  0  0  0  0
   42.7690   35.3860   38.8110 O   0  0  0  0  0  0  0  0  0  0  0  0
   43.6540   35.4290   38.3670 H   0  0  0  0  0  0  0  0  0  0  0  0
  1  7  1  6  0  0  0
  1  6  1  0  0  0  0
  2  8  1  6  0  0  0
  2  1  1  0  0  0  0
  2  3  1  0  0  0  0
  3  9  1  0  0  0  0
  3  4  1  0  0  0  0
  4 11  1  0  0  0  0
  4  5  1  0  0  0  0
  4 12  1  0  0  0  0
  5 13  1  0  0  0  0
  6 16  1  0  0  0  0
  6 15  1  0  0  0  0
  6  5  1  0  0  0  0
 10  3  1  0  0  0  0
 14  5  1  0  0  0  0
 17 18  1  0  0  0  0
 17  1  1  0  0  0  0
 18 23  1  0  0  0  0
 19 24  1  0  0  0  0
 19 18  2  0  0  0  0
 20 19  1  0  0  0  0
 21 20  2  0  0  0  0
 21 22  1  0  0  0  0
 22 17  2  0  0  0  0
 25 21  1  0  0  0  0
 26 31  1  1  0  0  0
 26 27  1  0  0  0  0
 27 28  1  6  0  0  0
 27  2  1  0  0  0  0
 29 30  1  0  0  0  0
 29 28  1  0  0  0  0
 30 33  1  6  0  0  0
 30 26  1  0  0  0  0
 32 31  1  0  0  0  0
 34 33  1  0  0  0  0
M  END
>  <minimizedAffinity>
-5.63440514

>  <minimizedRMSD>
2.84251165

$$$$
