
 OpenBabel03252506553D

 38 42  0  0  1  0  0  0  0  0999 V2000
   47.4160   31.4310   45.2820 C   0  0  0  0  0  0  0  0  0  0  0  0
   46.8670   32.6980   45.2300 C   0  0  0  0  0  0  0  0  0  0  0  0
   46.1370   33.2440   46.2670 C   0  0  0  0  0  0  0  0  0  0  0  0
   45.9260   32.5170   47.4270 C   0  0  0  0  0  0  0  0  0  0  0  0
   45.2840   32.7140   48.6150 N   0  0  0  0  0  0  0  0  0  0  0  0
   45.4350   31.6030   49.3750 C   0  0  0  0  0  0  0  0  0  0  0  0
   46.1700   30.7250   48.6470 N   0  0  0  0  0  0  0  0  0  0  0  0
   46.4840   31.2550   47.4590 C   0  0  0  0  0  0  0  0  0  0  0  0
   47.2110   30.6870   46.4450 C   0  0  0  0  0  0  0  0  0  0  0  0
   47.9820   31.0130   44.4720 H   0  0  0  0  0  0  0  0  0  0  0  0
   45.7030   34.2440   46.2280 H   0  0  0  0  0  0  0  0  0  0  0  0
   44.7800   33.6040   48.8350 H   0  0  0  0  0  0  0  0  0  0  0  0
   45.0190   31.4830   50.3860 H   0  0  0  0  0  0  0  0  0  0  0  0
   46.3200   35.1710   42.5530 C   0  0  0  0  0  0  0  0  0  0  0  0
   47.4490   35.0040   41.7570 C   0  0  0  0  0  0  0  0  0  0  0  0
   48.3910   34.0550   42.1290 C   0  0  0  0  0  0  0  0  0  0  0  0
   48.1650   33.3220   43.2700 N   0  0  0  0  0  0  0  0  0  0  0  0
   47.0640   33.5010   44.0250 C   0  0  0  0  0  0  0  0  0  0  0  0
   46.1540   34.4160   43.6680 N   0  0  0  0  0  0  0  0  0  0  0  0
   45.5650   35.8990   42.2960 H   0  0  0  0  0  0  0  0  0  0  0  0
   47.5800   35.6000   40.8760 H   0  0  0  0  0  0  0  0  0  0  0  0
   49.2880   33.8780   41.5530 H   0  0  0  0  0  0  0  0  0  0  0  0
   47.7630   29.3330   46.5790 C   0  0  0  0  0  0  0  0  0  0  0  0
   48.8580   28.8620   45.8750 C   0  0  0  0  0  0  0  0  0  0  0  0
   49.0000   27.5500   46.3330 C   0  0  0  0  0  0  0  0  0  0  0  0
   48.0000   27.3030   47.2730 C   0  0  0  0  0  0  0  0  0  0  0  0
   47.2910   28.4080   47.3790 O   0  0  0  0  0  0  0  0  0  0  0  0
   49.4810   29.3540   45.1400 H   0  0  0  0  0  0  0  0  0  0  0  0
   49.7380   26.8270   46.0350 H   0  0  0  0  0  0  0  0  0  0  0  0
   46.2320   25.8990   48.3480 C   0  0  2  0  0  3  0  0  0  0  0  0
   47.7190   26.0870   48.0420 C   0  0  1  0  0  3  0  0  0  0  0  0
   47.9710   24.9020   47.3550 O   0  0  0  0  0  0  0  0  0  0  0  0
   47.5500   23.9470   48.2820 C   0  0  0  0  0  2  0  0  0  0  0  0
   46.2690   24.4760   48.8860 C   0  0  2  0  0  3  0  0  0  0  0  0
   45.5110   25.8500   47.1400 O   0  0  0  0  0  0  0  0  0  0  0  0
   45.5800   24.9410   46.7330 H   0  0  0  0  0  0  0  0  0  0  0  0
   45.1580   23.7310   48.5090 O   0  0  0  0  0  0  0  0  0  0  0  0
   44.3580   24.2940   48.6700 H   0  0  0  0  0  0  0  0  0  0  0  0
  1  9  1  0  0  0  0
  2  1  2  0  0  0  0
  2  3  1  0  0  0  0
  3  4  2  0  0  0  0
  4  8  1  0  0  0  0
  4  5  1  0  0  0  0
  5 12  1  0  0  0  0
  5  6  1  0  0  0  0
  6 13  1  0  0  0  0
  7  6  2  0  0  0  0
  8  7  1  0  0  0  0
  9 23  1  0  0  0  0
  9  8  2  0  0  0  0
 10  1  1  0  0  0  0
 11  3  1  0  0  0  0
 14 19  1  0  0  0  0
 15 16  1  0  0  0  0
 15 14  2  0  0  0  0
 16 17  2  0  0  0  0
 17 18  1  0  0  0  0
 18  2  1  0  0  0  0
 19 18  2  0  0  0  0
 20 14  1  0  0  0  0
 21 15  1  0  0  0  0
 22 16  1  0  0  0  0
 23 27  1  0  0  0  0
 24 25  1  0  0  0  0
 24 23  2  0  0  0  0
 25 26  2  0  0  0  0
 26 27  1  0  0  0  0
 28 24  1  0  0  0  0
 29 25  1  0  0  0  0
 30 35  1  6  0  0  0
 30 34  1  0  0  0  0
 31 26  1  6  0  0  0
 31 30  1  0  0  0  0
 32 31  1  0  0  0  0
 32 33  1  0  0  0  0
 33 34  1  0  0  0  0
 34 37  1  6  0  0  0
 36 35  1  0  0  0  0
 37 38  1  0  0  0  0
M  END
>  <minimizedAffinity>
-5.90227413

>  <minimizedRMSD>
1.59198749

$$$$
