
 OpenBabel03242510083D

 28 30  0  0  1  0  0  0  0  0999 V2000
   44.8000   32.6850   41.3810 Br  0  0  0  0  0  0  0  0  0  0  0  0
   46.3700   33.7220   41.0090 C   0  0  0  0  0  0  0  0  0  0  0  0
   46.8320   34.6340   41.9410 C   0  0  0  0  0  0  0  0  0  0  0  0
   47.9670   35.3910   41.6830 C   0  0  0  0  0  0  0  0  0  0  0  0
   48.6110   35.2090   40.4900 C   0  0  0  0  0  0  0  0  0  0  0  0
   48.1280   34.2970   39.5880 C   0  0  0  0  0  0  0  0  0  0  0  0
   47.0180   33.5400   39.8100 C   0  0  0  0  0  0  0  0  0  0  0  0
   48.3370   36.1010   42.3940 H   0  0  0  0  0  0  0  0  0  0  0  0
   49.4990   35.7870   40.2650 H   0  0  0  0  0  0  0  0  0  0  0  0
   48.6550   34.1730   38.6550 H   0  0  0  0  0  0  0  0  0  0  0  0
   45.6970   34.0110   45.3550 C   0  0  0  0  0  0  0  0  0  0  0  0
   44.7450   35.0350   45.5770 C   0  0  0  0  0  0  0  0  0  0  0  0
   44.5090   35.9340   44.5280 C   0  0  0  0  0  0  0  0  0  0  0  0
   45.2030   35.7680   43.3780 N   0  0  0  0  0  0  0  0  0  0  0  0
   46.1060   34.7840   43.1890 C   0  0  0  0  0  0  0  0  0  0  0  0
   46.3480   33.9020   44.1930 N   0  0  0  0  0  0  0  0  0  0  0  0
   45.8190   33.3630   46.2110 H   0  0  0  0  0  0  0  0  0  0  0  0
   44.1940   35.1680   46.4910 H   0  0  0  0  0  0  0  0  0  0  0  0
   43.8110   36.7530   44.5730 H   0  0  0  0  0  0  0  0  0  0  0  0
   45.7970   33.1770   37.6580 C   0  0  1  0  0  3  0  0  0  0  0  0
   46.4930   32.5650   38.8590 C   0  0  2  0  0  3  0  0  0  0  0  0
   45.4970   31.7300   39.3360 O   0  0  0  0  0  0  0  0  0  0  0  0
   45.2300   30.9580   38.1850 C   0  0  0  0  0  2  0  0  0  0  0  0
   45.2510   31.9010   37.0210 C   0  0  2  0  0  3  0  0  0  0  0  0
   44.6690   33.9080   38.0430 O   0  0  0  0  0  0  0  0  0  0  0  0
   43.9070   33.3160   38.2730 H   0  0  0  0  0  0  0  0  0  0  0  0
   46.1870   31.4990   36.0590 O   0  0  0  0  0  0  0  0  0  0  0  0
   46.9180   31.0210   36.4920 H   0  0  0  0  0  0  0  0  0  0  0  0
  2  1  1  0  0  0  0
  2  3  1  0  0  0  0
  3 15  1  0  0  0  0
  4  3  2  0  0  0  0
  4  8  1  0  0  0  0
  5  4  1  0  0  0  0
  6  7  1  0  0  0  0
  6  5  2  0  0  0  0
  7  2  2  0  0  0  0
  9  5  1  0  0  0  0
 10  6  1  0  0  0  0
 11 12  1  0  0  0  0
 11 17  1  0  0  0  0
 12 18  1  0  0  0  0
 13 19  1  0  0  0  0
 13 12  2  0  0  0  0
 14 13  1  0  0  0  0
 15 14  2  0  0  0  0
 15 16  1  0  0  0  0
 16 11  2  0  0  0  0
 20 25  1  1  0  0  0
 20 21  1  0  0  0  0
 21 22  1  0  0  0  0
 21  7  1  1  0  0  0
 23 22  1  0  0  0  0
 24 27  1  6  0  0  0
 24 20  1  0  0  0  0
 24 23  1  0  0  0  0
 25 26  1  0  0  0  0
 27 28  1  0  0  0  0
M  END
>  <minimizedAffinity>
-5.56903315

>  <minimizedRMSD>
0.652367651

$$$$
