
 OpenBabel03242523143D

 25 27  0  0  1  0  0  0  0  0999 V2000
   46.1830   33.9150   42.7270 C   0  0  0  0  0  0  0  0  0  0  0  0
   47.5640   33.5900   42.7040 C   0  0  0  0  0  0  0  0  0  0  0  0
   48.0880   32.7090   43.6860 C   0  0  0  0  0  0  0  0  0  0  0  0
   47.2160   32.2200   44.6130 N   0  0  0  0  0  0  0  0  0  0  0  0
   45.9250   32.5520   44.6050 C   0  0  0  0  0  0  0  0  0  0  0  0
   45.4110   33.3820   43.6830 N   0  0  0  0  0  0  0  0  0  0  0  0
   49.1440   32.5240   43.5780 H   0  0  0  0  0  0  0  0  0  0  0  0
   45.4270   32.0480   45.4310 H   0  0  0  0  0  0  0  0  0  0  0  0
   48.4870   34.2400   41.7260 C   0  0  0  0  0  0  0  0  0  0  0  0
   48.6550   35.6530   41.6550 C   0  0  0  0  0  0  0  0  0  0  0  0
   49.7700   34.9040   42.3120 C   0  0  0  0  0  0  0  0  0  0  0  0
   48.8750   33.4310   41.0160 H   0  0  0  0  0  0  0  0  0  0  0  0
   48.9610   36.1310   40.6520 H   0  0  0  0  0  0  0  0  0  0  0  0
   48.2250   36.3930   42.3190 H   0  0  0  0  0  0  0  0  0  0  0  0
   50.6730   34.6840   41.7300 H   0  0  0  0  0  0  0  0  0  0  0  0
   49.8930   34.9170   43.3920 H   0  0  0  0  0  0  0  0  0  0  0  0
   44.8260   34.0510   40.6050 C   0  0  2  0  0  0  0  0  0  0  0  0
   45.3310   34.7090   41.8310 C   0  0  1  0  0  0  0  0  0  0  0  0
   44.2930   35.4130   42.4480 O   0  0  0  0  0  0  0  0  0  0  0  0
   43.4870   35.8140   41.4090 C   0  0  0  0  0  0  0  0  0  0  0  0
   43.4650   34.6860   40.4210 C   0  0  1  0  0  0  0  0  0  0  0  0
   44.8360   32.6830   40.5750 O   0  0  0  0  0  0  0  0  0  0  0  0
   44.0330   32.3250   40.1420 H   0  0  0  0  0  0  0  0  0  0  0  0
   43.2480   35.1050   39.1100 O   0  0  0  0  0  0  0  0  0  0  0  0
   43.5410   36.0490   38.9620 H   0  0  0  0  0  0  0  0  0  0  0  0
  1  6  1  0  0  0  0
  2  1  2  0  0  0  0
  2  3  1  0  0  0  0
  3  4  2  0  0  0  0
  5  4  1  0  0  0  0
  5  8  1  0  0  0  0
  6  5  2  0  0  0  0
  7  3  1  0  0  0  0
  9 11  1  0  0  0  0
  9  2  1  0  0  0  0
 10  9  1  0  0  0  0
 10 11  1  0  0  0  0
 10 14  1  0  0  0  0
 11 16  1  0  0  0  0
 12  9  1  0  0  0  0
 13 10  1  0  0  0  0
 15 11  1  0  0  0  0
 17 22  1  1  0  0  0
 17 18  1  0  0  0  0
 18 19  1  0  0  0  0
 18  1  1  1  0  0  0
 20 19  1  0  0  0  0
 21 24  1  6  0  0  0
 21 17  1  0  0  0  0
 21 20  1  0  0  0  0
 23 22  1  0  0  0  0
 25 24  1  0  0  0  0
M  END
>  <minimizedAffinity>
-4.42053652

>  <minimizedRMSD>
1.92127836

$$$$
