
 OpenBabel03242520153D

 25 27  0  0  1  0  0  0  0  0999 V2000
   45.3210   34.4910   44.3180 C   0  0  0  0  0  0  0  0  0  0  0  0
   46.1810   33.8520   43.3990 C   0  0  0  0  0  0  0  0  0  0  0  0
   47.1000   32.8980   43.8870 C   0  0  0  0  0  0  0  0  0  0  0  0
   47.0980   32.6530   45.2270 N   0  0  0  0  0  0  0  0  0  0  0  0
   46.2480   33.2970   46.0690 C   0  0  0  0  0  0  0  0  0  0  0  0
   45.3680   34.2060   45.6180 N   0  0  0  0  0  0  0  0  0  0  0  0
   46.1280   34.0990   42.3320 H   0  0  0  0  0  0  0  0  0  0  0  0
   46.3440   33.0120   47.1220 H   0  0  0  0  0  0  0  0  0  0  0  0
   44.3670   35.4880   43.7810 C   0  0  0  0  0  0  0  0  0  0  0  0
   45.0540   36.8070   43.3400 C   0  0  0  0  0  0  0  0  0  0  0  0
   44.3390   35.8950   42.3920 C   0  0  0  0  0  0  0  0  0  0  0  0
   43.4550   35.6230   44.4090 H   0  0  0  0  0  0  0  0  0  0  0  0
   44.5780   37.7000   43.7740 H   0  0  0  0  0  0  0  0  0  0  0  0
   46.1600   36.8420   43.3620 H   0  0  0  0  0  0  0  0  0  0  0  0
   45.0370   35.4160   41.6500 H   0  0  0  0  0  0  0  0  0  0  0  0
   43.4020   36.2420   41.9270 H   0  0  0  0  0  0  0  0  0  0  0  0
   49.2530   32.9850   42.6530 C   0  0  1  0  0  0  0  0  0  0  0  0
   47.9970   32.2380   42.9030 C   0  0  2  0  0  0  0  0  0  0  0  0
   47.3060   32.1440   41.6990 O   0  0  0  0  0  0  0  0  0  0  0  0
   48.2540   32.1910   40.6860 C   0  0  0  0  0  0  0  0  0  0  0  0
   49.3750   33.0610   41.1540 C   0  0  2  0  0  0  0  0  0  0  0  0
   49.3050   34.2340   43.2600 O   0  0  0  0  0  0  0  0  0  0  0  0
   48.7970   34.8740   42.7280 H   0  0  0  0  0  0  0  0  0  0  0  0
   50.5890   32.5250   40.7060 O   0  0  0  0  0  0  0  0  0  0  0  0
   51.2930   33.1870   40.5820 H   0  0  0  0  0  0  0  0  0  0  0  0
  1  6  1  0  0  0  0
  2  3  1  0  0  0  0
  2  1  2  0  0  0  0
  3  4  2  0  0  0  0
  4  5  1  0  0  0  0
  5  8  1  0  0  0  0
  6  5  2  0  0  0  0
  7  2  1  0  0  0  0
  9  1  1  0  0  0  0
  9 12  1  0  0  0  0
 10 14  1  0  0  0  0
 10 13  1  0  0  0  0
 10  9  1  0  0  0  0
 11 10  1  0  0  0  0
 11  9  1  0  0  0  0
 15 11  1  0  0  0  0
 16 11  1  0  0  0  0
 17 18  1  0  0  0  0
 17 22  1  1  0  0  0
 18  3  1  1  0  0  0
 19 18  1  0  0  0  0
 20 21  1  0  0  0  0
 20 19  1  0  0  0  0
 21 24  1  1  0  0  0
 21 17  1  0  0  0  0
 23 22  1  0  0  0  0
 25 24  1  0  0  0  0
M  END
>  <minimizedAffinity>
-4.52792025

>  <minimizedRMSD>
1.32413268

$$$$
