
 OpenBabel03252506553D

 38 42  0  0  1  0  0  0  0  0999 V2000
   47.2630   31.2600   45.1750 C   0  0  0  0  0  0  0  0  0  0  0  0
   46.9190   32.5970   45.1380 C   0  0  0  0  0  0  0  0  0  0  0  0
   46.3170   33.2480   46.1970 C   0  0  0  0  0  0  0  0  0  0  0  0
   46.0300   32.5590   47.3640 C   0  0  0  0  0  0  0  0  0  0  0  0
   45.4640   32.8500   48.5710 N   0  0  0  0  0  0  0  0  0  0  0  0
   45.4610   31.7260   49.3270 C   0  0  0  0  0  0  0  0  0  0  0  0
   46.0260   30.7460   48.5770 N   0  0  0  0  0  0  0  0  0  0  0  0
   46.3820   31.2240   47.3800 C   0  0  0  0  0  0  0  0  0  0  0  0
   46.9790   30.5530   46.3440 C   0  0  0  0  0  0  0  0  0  0  0  0
   47.7300   30.7610   44.3480 H   0  0  0  0  0  0  0  0  0  0  0  0
   46.0450   34.3040   46.1700 H   0  0  0  0  0  0  0  0  0  0  0  0
   45.1140   33.8070   48.8060 H   0  0  0  0  0  0  0  0  0  0  0  0
   45.0630   31.6690   50.3510 H   0  0  0  0  0  0  0  0  0  0  0  0
   46.6420   35.0890   42.4370 C   0  0  0  0  0  0  0  0  0  0  0  0
   47.7500   34.7970   41.6470 C   0  0  0  0  0  0  0  0  0  0  0  0
   48.5860   33.7570   42.0310 C   0  0  0  0  0  0  0  0  0  0  0  0
   48.2800   33.0630   43.1780 N   0  0  0  0  0  0  0  0  0  0  0  0
   47.2030   33.3640   43.9270 C   0  0  0  0  0  0  0  0  0  0  0  0
   46.3940   34.3660   43.5580 N   0  0  0  0  0  0  0  0  0  0  0  0
   45.9680   35.8890   42.1700 H   0  0  0  0  0  0  0  0  0  0  0  0
   47.9450   35.3670   40.7610 H   0  0  0  0  0  0  0  0  0  0  0  0
   49.4610   33.4820   41.4600 H   0  0  0  0  0  0  0  0  0  0  0  0
   47.3150   29.1280   46.4630 C   0  0  0  0  0  0  0  0  0  0  0  0
   48.6060   28.6270   46.4650 C   0  0  0  0  0  0  0  0  0  0  0  0
   48.4190   27.2480   46.5990 C   0  0  0  0  0  0  0  0  0  0  0  0
   47.0500   26.9960   46.6680 C   0  0  0  0  0  0  0  0  0  0  0  0
   46.4390   28.1600   46.5820 O   0  0  0  0  0  0  0  0  0  0  0  0
   49.5550   29.1390   46.3860 H   0  0  0  0  0  0  0  0  0  0  0  0
   49.1750   26.4860   46.6420 H   0  0  0  0  0  0  0  0  0  0  0  0
   46.8680   24.8630   47.9600 C   0  0  2  0  0  3  0  0  0  0  0  0
   46.3400   25.7210   46.8100 C   0  0  1  0  0  3  0  0  0  0  0  0
   45.0080   25.8450   47.1990 O   0  0  0  0  0  0  0  0  0  0  0  0
   44.6280   24.5080   47.3230 C   0  0  0  0  0  2  0  0  0  0  0  0
   45.7820   23.7970   47.9920 C   0  0  2  0  0  3  0  0  0  0  0  0
   46.7580   25.5810   49.1660 O   0  0  0  0  0  0  0  0  0  0  0  0
   45.8230   25.5340   49.5120 H   0  0  0  0  0  0  0  0  0  0  0  0
   45.4750   23.3840   49.2830 O   0  0  0  0  0  0  0  0  0  0  0  0
   46.3320   23.2210   49.7530 H   0  0  0  0  0  0  0  0  0  0  0  0
  1  9  1  0  0  0  0
  2  1  2  0  0  0  0
  2  3  1  0  0  0  0
  3  4  2  0  0  0  0
  4  8  1  0  0  0  0
  4  5  1  0  0  0  0
  5 12  1  0  0  0  0
  5  6  1  0  0  0  0
  6 13  1  0  0  0  0
  7  6  2  0  0  0  0
  8  7  1  0  0  0  0
  9 23  1  0  0  0  0
  9  8  2  0  0  0  0
 10  1  1  0  0  0  0
 11  3  1  0  0  0  0
 14 19  1  0  0  0  0
 15 16  1  0  0  0  0
 15 14  2  0  0  0  0
 16 17  2  0  0  0  0
 17 18  1  0  0  0  0
 18  2  1  0  0  0  0
 19 18  2  0  0  0  0
 20 14  1  0  0  0  0
 21 15  1  0  0  0  0
 22 16  1  0  0  0  0
 23 24  2  0  0  0  0
 23 27  1  0  0  0  0
 24 25  1  0  0  0  0
 25 29  1  0  0  0  0
 25 26  2  0  0  0  0
 27 26  1  0  0  0  0
 28 24  1  0  0  0  0
 30 34  1  0  0  0  0
 30 35  1  1  0  0  0
 31 26  1  1  0  0  0
 31 32  1  0  0  0  0
 31 30  1  0  0  0  0
 32 33  1  0  0  0  0
 33 34  1  0  0  0  0
 34 37  1  1  0  0  0
 35 36  1  0  0  0  0
 37 38  1  0  0  0  0
M  END
>  <minimizedAffinity>
-6.41085148

>  <minimizedRMSD>
0.912163675

$$$$
