
 OpenBabel03242523463D

 19 20  0  0  1  0  0  0  0  0999 V2000
   44.8040   35.1360   44.4190 C   0  0  0  0  0  0  0  0  0  0  0  0
   45.5570   35.2230   43.2360 C   0  0  0  0  0  0  0  0  0  0  0  0
   46.7070   34.4270   43.1450 C   0  0  0  0  0  0  0  0  0  0  0  0
   47.0370   33.6160   44.1930 N   0  0  0  0  0  0  0  0  0  0  0  0
   46.2800   33.5690   45.3080 C   0  0  0  0  0  0  0  0  0  0  0  0
   45.1820   34.3150   45.4200 N   0  0  0  0  0  0  0  0  0  0  0  0
   45.3170   35.8540   42.3990 H   0  0  0  0  0  0  0  0  0  0  0  0
   46.6060   32.8970   46.1040 H   0  0  0  0  0  0  0  0  0  0  0  0
   48.3110   33.0670   41.7880 C   0  0  1  0  0  3  0  0  0  0  0  0
   47.6040   34.3890   41.9990 C   0  0  1  0  0  3  0  0  0  0  0  0
   46.9220   34.5000   40.7910 O   0  0  0  0  0  0  0  0  0  0  0  0
   47.8300   34.2030   39.7940 C   0  0  0  0  0  2  0  0  0  0  0  0
   48.8950   33.3230   40.3930 C   0  0  2  0  0  3  0  0  0  0  0  0
   49.3140   32.8220   42.7100 O   0  0  0  0  0  0  0  0  0  0  0  0
   49.3740   31.8510   42.9680 H   0  0  0  0  0  0  0  0  0  0  0  0
   49.0890   32.1470   39.6980 O   0  0  0  0  0  0  0  0  0  0  0  0
   50.0550   31.9560   39.5500 H   0  0  0  0  0  0  0  0  0  0  0  0
   43.6850   35.9120   44.5060 O   0  0  0  0  0  0  0  0  0  0  0  0
   43.7180   36.8460   44.1160 H   0  0  0  0  0  0  0  0  0  0  0  0
  1 18  1  0  0  0  0
  1  6  1  0  0  0  0
  2  1  2  0  0  0  0
  3  2  1  0  0  0  0
  3  4  2  0  0  0  0
  4  5  1  0  0  0  0
  5  6  2  0  0  0  0
  5  8  1  0  0  0  0
  7  2  1  0  0  0  0
  9 10  1  0  0  0  0
  9 14  1  1  0  0  0
 10  3  1  1  0  0  0
 11 10  1  0  0  0  0
 12 13  1  0  0  0  0
 12 11  1  0  0  0  0
 13 16  1  6  0  0  0
 13  9  1  0  0  0  0
 14 15  1  0  0  0  0
 17 16  1  0  0  0  0
 19 18  1  0  0  0  0
M  END
>  <minimizedAffinity>
-4.52814484

>  <minimizedRMSD>
2.00031424

$$$$
