
 OpenBabel03242515313D

 40 43  0  0  1  0  0  0  0  0999 V2000
   47.2640   34.4700   42.7190 N   0  0  0  0  0  0  0  0  0  0  0  0
   48.6510   34.1000   42.7070 C   0  0  0  0  0  0  0  0  0  0  0  0
   49.1440   35.1530   41.7250 C   0  0  0  0  0  0  0  0  0  0  0  0
   48.1810   34.8510   40.5780 C   0  0  0  0  0  0  0  0  0  0  0  0
   46.8970   34.6970   41.3170 C   0  0  1  0  0  0  0  0  0  0  0  0
   49.0630   34.2870   43.7150 H   0  0  0  0  0  0  0  0  0  0  0  0
   48.8460   33.0790   42.3600 H   0  0  0  0  0  0  0  0  0  0  0  0
   48.8770   36.1260   42.1540 H   0  0  0  0  0  0  0  0  0  0  0  0
   50.1900   35.0310   41.4620 H   0  0  0  0  0  0  0  0  0  0  0  0
   48.5110   33.9250   40.0580 H   0  0  0  0  0  0  0  0  0  0  0  0
   48.1290   35.7340   39.8860 H   0  0  0  0  0  0  0  0  0  0  0  0
   46.3780   35.6960   41.3660 H   0  0  0  0  0  0  0  0  0  0  0  0
   44.1660   35.2330   40.7590 F   0  0  0  0  0  0  0  0  0  0  0  0
   44.6330   33.9610   40.5000 C   0  0  0  0  0  0  0  0  0  0  0  0
   45.9500   33.7160   40.7910 C   0  0  0  0  0  0  0  0  0  0  0  0
   46.3750   32.4260   40.5220 C   0  0  0  0  0  0  0  0  0  0  0  0
   45.5170   31.4820   40.0040 C   0  0  0  0  0  0  0  0  0  0  0  0
   44.1760   31.7990   39.7280 C   0  0  0  0  0  0  0  0  0  0  0  0
   43.7210   33.1010   39.9920 C   0  0  0  0  0  0  0  0  0  0  0  0
   47.3820   32.0670   40.6930 H   0  0  0  0  0  0  0  0  0  0  0  0
   45.8000   30.4600   39.7750 H   0  0  0  0  0  0  0  0  0  0  0  0
   43.4990   31.0550   39.3190 H   0  0  0  0  0  0  0  0  0  0  0  0
   42.0960   34.0080   38.3300 C   0  0  1  0  0  0  0  0  0  0  0  0
   42.3070   33.4530   39.7060 C   0  0  2  0  0  0  0  0  0  0  0  0
   41.7670   34.3480   40.6190 O   0  0  0  0  0  0  0  0  0  0  0  0
   40.5610   34.6960   40.0200 C   0  0  0  0  0  0  0  0  0  0  0  0
   40.9990   35.0470   38.5980 C   0  0  2  0  0  0  0  0  0  0  0  0
   43.1980   34.6740   37.8110 O   0  0  0  0  0  0  0  0  0  0  0  0
   42.9800   35.6000   37.5260 H   0  0  0  0  0  0  0  0  0  0  0  0
   39.9700   34.9400   37.6820 O   0  0  0  0  0  0  0  0  0  0  0  0
   39.1220   34.9890   38.1920 H   0  0  0  0  0  0  0  0  0  0  0  0
   44.5070   35.7240   44.8850 C   0  0  0  0  0  0  0  0  0  0  0  0
   45.3710   35.6440   43.8000 C   0  0  0  0  0  0  0  0  0  0  0  0
   46.3400   34.6250   43.7820 C   0  0  0  0  0  0  0  0  0  0  0  0
   46.3760   33.7810   44.8250 N   0  0  0  0  0  0  0  0  0  0  0  0
   45.5290   33.8710   45.8740 C   0  0  0  0  0  0  0  0  0  0  0  0
   44.5910   34.8520   45.8990 N   0  0  0  0  0  0  0  0  0  0  0  0
   43.8060   36.5370   44.8010 H   0  0  0  0  0  0  0  0  0  0  0  0
   45.3370   36.3260   42.9640 H   0  0  0  0  0  0  0  0  0  0  0  0
   45.5580   33.1890   46.7180 H   0  0  0  0  0  0  0  0  0  0  0  0
  1 34  1  0  0  0  0
  2  1  1  0  0  0  0
  2  6  1  0  0  0  0
  3  8  1  0  0  0  0
  3  2  1  0  0  0  0
  4  5  1  0  0  0  0
  4  3  1  0  0  0  0
  5 12  1  6  0  0  0
  5  1  1  0  0  0  0
  7  2  1  0  0  0  0
  9  3  1  0  0  0  0
 10  4  1  0  0  0  0
 11  4  1  0  0  0  0
 14 13  1  0  0  0  0
 14 15  1  0  0  0  0
 15  5  1  0  0  0  0
 16 20  1  0  0  0  0
 16 15  2  0  0  0  0
 17 16  1  0  0  0  0
 18 19  1  0  0  0  0
 18 17  2  0  0  0  0
 19 14  2  0  0  0  0
 21 17  1  0  0  0  0
 22 18  1  0  0  0  0
 23 28  1  1  0  0  0
 23 27  1  0  0  0  0
 23 24  1  0  0  0  0
 24 19  1  1  0  0  0
 24 25  1  0  0  0  0
 26 25  1  0  0  0  0
 27 30  1  6  0  0  0
 27 26  1  0  0  0  0
 29 28  1  0  0  0  0
 30 31  1  0  0  0  0
 32 37  1  0  0  0  0
 33 32  2  0  0  0  0
 34 33  1  0  0  0  0
 34 35  2  0  0  0  0
 35 36  1  0  0  0  0
 36 37  2  0  0  0  0
 36 40  1  0  0  0  0
 38 32  1  0  0  0  0
 39 33  1  0  0  0  0
M  END
>  <minimizedAffinity>
-6.66080284

>  <minimizedRMSD>
0.395614415

$$$$
