
     RDKit          3D

 24 25  0  0  0  0  0  0  0  0999 V2000
   45.0013   35.4855   44.1871 C   0  0  0  0  0  0  0  0  0  0  0  0
   45.9784   34.9304   43.3427 C   0  0  0  0  0  0  0  0  0  0  0  0
   46.7082   33.8403   43.8352 C   0  0  0  0  0  0  0  0  0  0  0  0
   46.4420   33.3750   45.0907 N   0  0  0  0  0  0  0  0  0  0  0  0
   45.4928   33.9440   45.8618 C   0  0  0  0  0  0  0  0  0  0  0  0
   44.7839   34.9812   45.4194 N   0  0  0  0  0  0  0  0  0  0  0  0
   44.2913   36.5466   43.7071 O   0  0  0  0  0  0  0  0  0  0  0  0
   46.2046   35.2799   42.3522 H   0  0  0  0  0  0  0  0  0  0  0  0
   45.3360   33.5179   46.8541 H   0  0  0  0  0  0  0  0  0  0  0  0
   44.7777   37.2351   43.1450 H   0  0  0  0  0  0  0  0  0  0  0  0
   46.8647   33.0637   40.8470 O   0  0  0  0  0  0  0  0  0  0  0  0
   47.8877   33.5431   41.6469 C   0  0  1  0  0  0  0  0  0  0  0  0
   47.7551   33.1423   43.1020 C   0  0  1  0  0  0  0  0  0  0  0  0
   49.0278   33.4634   43.5631 O   0  0  0  0  0  0  0  0  0  0  0  0
   49.9238   32.9498   42.6478 C   0  0  0  0  0  0  0  0  0  0  0  0
   49.2142   32.8453   41.3236 C   0  0  2  0  0  0  0  0  0  0  0  0
   49.8827   33.4753   40.2932 O   0  0  0  0  0  0  0  0  0  0  0  0
   46.6001   33.7165   40.1264 H   0  0  0  0  0  0  0  0  0  0  0  0
   48.0169   34.6311   41.6355 H   0  0  0  0  0  0  0  0  0  0  0  0
   47.6823   32.0317   43.1066 H   0  0  0  0  0  0  0  0  0  0  0  0
   50.8710   33.5436   42.5894 H   0  0  0  0  0  0  0  0  0  0  0  0
   50.2048   31.9267   43.0347 H   0  0  0  0  0  0  0  0  0  0  0  0
   48.9964   31.7818   41.1367 H   0  0  0  0  0  0  0  0  0  0  0  0
   49.9275   32.9070   39.4767 H   0  0  0  0  0  0  0  0  0  0  0  0
  1  6  2  0
  2  3  2  0
  2  1  1  0
  3  4  1  0
  4  5  2  0
  6  5  1  0
  7  1  1  0
  2  8  1  0
  5  9  1  0
  7 10  1  0
 11 12  1  0
 12 13  1  0
 13 14  1  0
 14 15  1  0
 15 16  1  0
 16 17  1  0
 16 12  1  0
 11 18  1  0
 12 19  1  1
 13 20  1  6
 15 21  1  0
 15 22  1  0
 16 23  1  6
 17 24  1  0
  3 13  1  0
M  ISO  3   8  14   9  14  10   3
M  END
>  <DihAtoms>  (1) 
1,2,12,11

>  <DihDeg>  (1) 
21.352162942984876

$$$$
