
 OpenBabel03242520213D

 44 47  0  0  1  0  0  0  0  0999 V2000
   40.0300   36.1150   40.4120 C   0  0  0  0  0  0  0  0  0  0  0  0
   40.1930   35.9850   41.5030 H   0  0  0  0  0  0  0  0  0  0  0  0
   39.3380   36.9910   40.3380 H   0  0  0  0  0  0  0  0  0  0  0  0
   39.3860   33.7680   40.5590 C   0  0  0  0  0  0  0  0  0  0  0  0
   39.6670   33.6960   41.7970 O   0  0  0  0  0  0  0  0  0  0  0  0
   39.4460   34.9470   39.7880 N   0  0  0  0  0  0  0  0  0  0  0  0
   39.1090   35.0430   38.8200 H   0  0  0  0  0  0  0  0  0  0  0  0
   38.9630   32.5380   39.8480 C   0  0  0  0  0  0  0  0  0  0  0  0
   39.0360   32.5180   38.4570 C   0  0  0  0  0  0  0  0  0  0  0  0
   38.6720   31.4360   37.6820 C   0  0  0  0  0  0  0  0  0  0  0  0
   38.2030   30.3060   38.3640 C   0  0  0  0  0  0  0  0  0  0  0  0
   38.1540   30.3880   39.7340 C   0  0  0  0  0  0  0  0  0  0  0  0
   38.5080   31.4350   40.4780 N   0  0  0  0  0  0  0  0  0  0  0  0
   39.4000   33.3960   37.9400 H   0  0  0  0  0  0  0  0  0  0  0  0
   38.7510   31.4800   36.6030 H   0  0  0  0  0  0  0  0  0  0  0  0
   37.9140   29.4540   37.7910 H   0  0  0  0  0  0  0  0  0  0  0  0
   37.9740   29.2970   41.9590 C   0  0  2  0  0  0  0  0  0  0  0  0
   37.6600   29.1970   40.4760 C   0  0  2  0  0  0  0  0  0  0  0  0
   38.3200   28.0270   40.1280 O   0  0  0  0  0  0  0  0  0  0  0  0
   39.5470   28.0440   40.7470 C   0  0  0  0  0  0  0  0  0  0  0  0
   39.2170   28.4550   42.1570 C   0  0  1  0  0  0  0  0  0  0  0  0
   36.9650   28.7980   42.7640 O   0  0  0  0  0  0  0  0  0  0  0  0
   37.1260   27.8550   43.0330 H   0  0  0  0  0  0  0  0  0  0  0  0
   40.2710   29.2010   42.7160 O   0  0  0  0  0  0  0  0  0  0  0  0
   41.1140   28.8710   42.3090 H   0  0  0  0  0  0  0  0  0  0  0  0
   41.3990   36.4610   39.8340 C   0  0  0  0  0  0  0  0  0  0  0  0
   41.6630   37.4370   40.2900 H   0  0  0  0  0  0  0  0  0  0  0  0
   41.3940   36.5400   38.7340 H   0  0  0  0  0  0  0  0  0  0  0  0
   44.0020   34.4440   41.7080 C   0  0  0  0  0  0  0  0  0  0  0  0
   43.0830   35.4800   41.3890 C   0  0  0  0  0  0  0  0  0  0  0  0
   42.3750   35.4090   40.2060 C   0  0  0  0  0  0  0  0  0  0  0  0
   42.6190   34.3150   39.4070 N   0  0  0  0  0  0  0  0  0  0  0  0
   43.5160   33.3480   39.7670 C   0  0  0  0  0  0  0  0  0  0  0  0
   44.1980   33.4180   40.9070 N   0  0  0  0  0  0  0  0  0  0  0  0
   42.9440   36.3150   42.0710 H   0  0  0  0  0  0  0  0  0  0  0  0
   43.6440   32.5250   39.0760 H   0  0  0  0  0  0  0  0  0  0  0  0
   44.7620   34.5530   42.9880 C   0  0  0  0  0  0  0  0  0  0  0  0
   46.1530   35.2620   42.7640 C   0  0  0  0  0  0  0  0  0  0  0  0
   45.0910   35.7430   43.6600 C   0  0  0  0  0  0  0  0  0  0  0  0
   44.8760   33.5470   43.4740 H   0  0  0  0  0  0  0  0  0  0  0  0
   47.0250   34.6940   43.1480 H   0  0  0  0  0  0  0  0  0  0  0  0
   46.3380   35.7020   41.7860 H   0  0  0  0  0  0  0  0  0  0  0  0
   44.6080   36.7050   43.3200 H   0  0  0  0  0  0  0  0  0  0  0  0
   45.2220   35.7550   44.7580 H   0  0  0  0  0  0  0  0  0  0  0  0
  1  2  1  0  0  0  0
  3  1  1  0  0  0  0
  4  5  2  0  0  0  0
  6  1  1  0  0  0  0
  6  4  1  0  0  0  0
  7  6  1  0  0  0  0
  8 13  1  0  0  0  0
  8  4  1  0  0  0  0
  9  8  2  0  0  0  0
 10 11  2  0  0  0  0
 10  9  1  0  0  0  0
 11 12  1  0  0  0  0
 12 13  2  0  0  0  0
 14  9  1  0  0  0  0
 15 10  1  0  0  0  0
 16 11  1  0  0  0  0
 17 21  1  0  0  0  0
 17 22  1  1  0  0  0
 18 12  1  6  0  0  0
 18 17  1  0  0  0  0
 19 18  1  0  0  0  0
 19 20  1  0  0  0  0
 20 21  1  0  0  0  0
 21 24  1  6  0  0  0
 22 23  1  0  0  0  0
 25 24  1  0  0  0  0
 26 31  1  0  0  0  0
 26 27  1  0  0  0  0
 26  1  1  0  0  0  0
 28 26  1  0  0  0  0
 29 37  1  0  0  0  0
 30 29  1  0  0  0  0
 30 35  1  0  0  0  0
 31 30  2  0  0  0  0
 32 33  2  0  0  0  0
 32 31  1  0  0  0  0
 33 34  1  0  0  0  0
 34 29  2  0  0  0  0
 36 33  1  0  0  0  0
 37 40  1  0  0  0  0
 37 39  1  0  0  0  0
 38 37  1  0  0  0  0
 38 41  1  0  0  0  0
 38 39  1  0  0  0  0
 39 44  1  0  0  0  0
 42 38  1  0  0  0  0
 43 39  1  0  0  0  0
M  END
>  <minimizedAffinity>
-5.42397738

>  <minimizedRMSD>
1.47532403

$$$$
