REMARK  Name = 
REMARK  4 active torsions:
REMARK  status: ('A' for Active; 'I' for Inactive)
REMARK    1  A    between atoms: C_2  and  C_14
REMARK    2  A    between atoms: C_3  and  C_25
REMARK    3  A    between atoms: O_23  and  C_24
REMARK    4  A    between atoms: C_28  and  O_29
REMARK                            x       y       z     vdW  Elec       q    Type
REMARK                         _______ _______ _______ _____ _____    ______ ____
ROOT
ATOM      1  C   UNL     1      47.214  31.356  45.087  0.00  0.00    +0.000 A 
ATOM      2  C   UNL     1      46.883  32.688  45.094  0.00  0.00    +0.000 A 
ATOM      3  C   UNL     1      46.281  33.332  46.179  0.00  0.00    +0.000 A 
ATOM      4  C   UNL     1      45.998  32.582  47.326  0.00  0.00    +0.000 A 
ATOM      5  N   UNL     1      45.447  32.819  48.533  0.00  0.00    +0.000 N 
ATOM      6  C   UNL     1      45.438  31.658  49.254  0.00  0.00    +0.000 A 
ATOM      7  N   UNL     1      45.992  30.709  48.470  0.00  0.00    +0.000 NA
ATOM      8  C   UNL     1      46.345  31.237  47.288  0.00  0.00    +0.000 A 
ATOM      9  C   UNL     1      46.937  30.596  46.224  0.00  0.00    +0.000 A 
ATOM     10  H   UNL     1      47.680  30.924  44.205  0.00  0.00    +0.000 HD
ATOM     11  H   UNL     1      45.087  33.709  48.877  0.00  0.00    +0.000 HD
ATOM     12  H   UNL     1      45.069  31.497  50.255  0.00  0.00    +0.000 HD
ATOM     13  H   UNL     1      47.182  29.547  46.257  0.00  0.00    +0.000 HD
ENDROOT
BRANCH   2  18
ATOM     14  C   UNL     1      46.493  35.204  42.436  0.00  0.00    +0.000 A 
ATOM     15  C   UNL     1      47.685  35.078  41.730  0.00  0.00    +0.000 A 
ATOM     16  C   UNL     1      48.643  34.118  42.157  0.00  0.00    +0.000 A 
ATOM     17  N   UNL     1      48.336  33.355  43.260  0.00  0.00    +0.000 NA
ATOM     18  C   UNL     1      47.169  33.506  43.919  0.00  0.00    +0.000 A 
ATOM     19  N   UNL     1      46.305  34.413  43.486  0.00  0.00    +0.000 NA
ATOM     20  H   UNL     1      45.721  35.911  42.169  0.00  0.00    +0.000 HD
ATOM     21  H   UNL     1      47.873  35.705  40.871  0.00  0.00    +0.000 HD
ATOM     22  H   UNL     1      49.565  33.998  41.637  0.00  0.00    +0.000 HD
ENDBRANCH   2  18
BRANCH   3  24
ATOM     23  C   UNL     1      45.409  35.317  44.945  0.00  0.00    +0.000 C 
ATOM     24  C   UNL     1      45.898  34.761  46.242  0.00  0.00    +0.000 C 
ATOM     25  O   UNL     1      44.882  34.979  47.190  0.00  0.00    +0.000 OA
ATOM     26  C   UNL     1      44.258  36.150  46.821  0.00  0.00    +0.000 C 
ATOM     27  C   UNL     1      44.135  36.068  45.336  0.00  0.00    +0.000 C 
BRANCH  23  28
ATOM     28  O   UNL     1      45.026  34.329  44.041  0.00  0.00    +0.000 OA
ATOM     29  H   UNL     1      44.449  34.753  43.361  0.00  0.00    +0.000 HD
ENDBRANCH  23  28
BRANCH  27  30
ATOM     30  O   UNL     1      43.004  35.418  44.880  0.00  0.00    +0.000 OA
ATOM     31  H   UNL     1      42.253  36.044  44.786  0.00  0.00    +0.000 HD
ENDBRANCH  27  30
ENDBRANCH   3  24
TORSDOF 4
