REMARK  Name = 
REMARK  4 active torsions:
REMARK  status: ('A' for Active; 'I' for Inactive)
REMARK    1  A    between atoms: C_5  and  C_9
REMARK    2  A    between atoms: C_13  and  C_22
REMARK    3  A    between atoms: O_20  and  C_21
REMARK    4  A    between atoms: C_25  and  O_26
REMARK                            x       y       z     vdW  Elec       q    Type
REMARK                         _______ _______ _______ _____ _____    ______ ____
ROOT
ATOM      1 BR   UNL     1      44.581  33.137  41.190  0.00  0.00    +0.000 Br
ATOM      2  C   UNL     1      46.280  33.992  40.945  0.00  0.00    +0.000 A 
ATOM      3  C   UNL     1      46.826  34.750  41.966  0.00  0.00    +0.000 A 
ATOM      4  C   UNL     1      48.055  35.374  41.800  0.00  0.00    +0.000 A 
ATOM      5  C   UNL     1      48.706  35.218  40.607  0.00  0.00    +0.000 A 
ATOM      6  C   UNL     1      48.139  34.461  39.616  0.00  0.00    +0.000 A 
ATOM      7  C   UNL     1      46.936  33.836  39.746  0.00  0.00    +0.000 A 
ATOM      8  H   UNL     1      48.490  35.964  42.580  0.00  0.00    +0.000 HD
ATOM      9  H   UNL     1      49.667  35.695  40.453  0.00  0.00    +0.000 HD
ATOM     10  H   UNL     1      48.674  34.354  38.685  0.00  0.00    +0.000 HD
ENDROOT
BRANCH   3  15
ATOM     11  C   UNL     1      45.603  34.030  45.330  0.00  0.00    +0.000 A 
ATOM     12  C   UNL     1      44.701  35.091  45.586  0.00  0.00    +0.000 A 
ATOM     13  C   UNL     1      44.529  36.048  44.577  0.00  0.00    +0.000 A 
ATOM     14  N   UNL     1      45.233  35.899  43.431  0.00  0.00    +0.000 NA
ATOM     15  C   UNL     1      46.087  34.879  43.209  0.00  0.00    +0.000 A 
ATOM     16  N   UNL     1      46.267  33.941  44.174  0.00  0.00    +0.000 NA
ATOM     17  H   UNL     1      45.677  33.337  46.156  0.00  0.00    +0.000 HD
ATOM     18  H   UNL     1      44.142  35.210  46.497  0.00  0.00    +0.000 HD
ATOM     19  H   UNL     1      43.874  36.900  44.650  0.00  0.00    +0.000 HD
ENDBRANCH   3  15
BRANCH   7  21
ATOM     20  C   UNL     1      45.420  33.803  37.757  0.00  0.00    +0.000 C 
ATOM     21  C   UNL     1      46.320  33.026  38.699  0.00  0.00    +0.000 C 
ATOM     22  O   UNL     1      45.450  32.040  39.130  0.00  0.00    +0.000 OA
ATOM     23  C   UNL     1      45.048  31.487  37.895  0.00  0.00    +0.000 C 
ATOM     24  C   UNL     1      44.847  32.636  36.956  0.00  0.00    +0.000 C 
BRANCH  20  25
ATOM     25  O   UNL     1      44.331  34.356  38.436  0.00  0.00    +0.000 OA
ATOM     26  H   UNL     1      43.643  33.674  38.644  0.00  0.00    +0.000 HD
ENDBRANCH  20  25
BRANCH  24  27
ATOM     27  O   UNL     1      45.644  32.503  35.812  0.00  0.00    +0.000 OA
ATOM     28  H   UNL     1      46.455  32.008  36.032  0.00  0.00    +0.000 HD
ENDBRANCH  24  27
ENDBRANCH   7  21
TORSDOF 4
