
 OpenBabel03252505183D

 34 37  0  0  1  0  0  0  0  0999 V2000
   45.7760   33.0030   46.1800 C   0  0  0  0  0  0  0  0  0  0  0  0
   45.2110   33.2180   47.4190 C   0  0  0  0  0  0  0  0  0  0  0  0
   45.3320   32.2480   48.4040 C   0  0  0  0  0  0  0  0  0  0  0  0
   46.0250   31.0920   48.0910 C   0  0  0  0  0  0  0  0  0  0  0  0
   46.5720   30.9330   46.8260 C   0  0  0  0  0  0  0  0  0  0  0  0
   46.4550   31.8810   45.8620 N   0  0  0  0  0  0  0  0  0  0  0  0
   44.6660   34.1220   47.6730 H   0  0  0  0  0  0  0  0  0  0  0  0
   44.8860   32.4210   49.3780 H   0  0  0  0  0  0  0  0  0  0  0  0
   46.1290   30.3360   48.8350 H   0  0  0  0  0  0  0  0  0  0  0  0
   44.6640   36.0070   44.3530 C   0  0  0  0  0  0  0  0  0  0  0  0
   45.4070   35.9600   43.1500 C   0  0  0  0  0  0  0  0  0  0  0  0
   46.2660   34.8930   43.0230 C   0  0  0  0  0  0  0  0  0  0  0  0
   46.3780   33.9470   44.0120 N   0  0  0  0  0  0  0  0  0  0  0  0
   45.6320   34.0400   45.1610 C   0  0  0  0  0  0  0  0  0  0  0  0
   44.7840   35.0700   45.3150 N   0  0  0  0  0  0  0  0  0  0  0  0
   43.9690   36.8460   44.4880 H   0  0  0  0  0  0  0  0  0  0  0  0
   45.2940   36.7230   42.3910 H   0  0  0  0  0  0  0  0  0  0  0  0
   47.0780   34.7280   41.7740 C   0  0  0  0  0  0  0  0  0  0  0  0
   48.3890   35.5120   41.8280 C   0  0  0  0  0  0  0  0  0  0  0  0
   48.2900   33.9530   41.8210 C   0  0  0  0  0  0  0  0  0  0  0  0
   46.5040   34.8460   40.8260 H   0  0  0  0  0  0  0  0  0  0  0  0
   48.6980   35.9340   42.8060 H   0  0  0  0  0  0  0  0  0  0  0  0
   48.6750   35.9930   40.8960 H   0  0  0  0  0  0  0  0  0  0  0  0
   48.6340   33.4430   42.7490 H   0  0  0  0  0  0  0  0  0  0  0  0
   48.6890   33.5100   40.8900 H   0  0  0  0  0  0  0  0  0  0  0  0
   47.7390   28.9200   47.7520 C   0  0  1  0  0  3  0  0  0  0  0  0
   47.3020   29.6820   46.5420 C   0  0  2  0  0  3  0  0  0  0  0  0
   48.5010   29.8810   45.8660 O   0  0  0  0  0  0  0  0  0  0  0  0
   49.0720   28.6290   45.8440 C   0  0  0  0  0  2  0  0  0  0  0  0
   48.6750   27.8950   47.0970 C   0  0  2  0  0  3  0  0  0  0  0  0
   48.4480   29.6420   48.6790 O   0  0  0  0  0  0  0  0  0  0  0  0
   47.9090   30.0240   49.4160 H   0  0  0  0  0  0  0  0  0  0  0  0
   47.9550   26.7550   46.6910 O   0  0  0  0  0  0  0  0  0  0  0  0
   47.0390   27.0090   46.4150 H   0  0  0  0  0  0  0  0  0  0  0  0
  1  2  1  0  0  0  0
  2  7  1  0  0  0  0
  2  3  2  0  0  0  0
  3  8  1  0  0  0  0
  4  3  1  0  0  0  0
  4  9  1  0  0  0  0
  5  4  2  0  0  0  0
  6  1  2  0  0  0  0
  6  5  1  0  0  0  0
 10 16  1  0  0  0  0
 10 15  1  0  0  0  0
 11 10  2  0  0  0  0
 12 11  1  0  0  0  0
 12 13  2  0  0  0  0
 13 14  1  0  0  0  0
 14 15  2  0  0  0  0
 14  1  1  0  0  0  0
 17 11  1  0  0  0  0
 18 20  1  0  0  0  0
 18 19  1  0  0  0  0
 18 12  1  0  0  0  0
 19 22  1  0  0  0  0
 20 19  1  0  0  0  0
 20 24  1  0  0  0  0
 21 18  1  0  0  0  0
 23 19  1  0  0  0  0
 25 20  1  0  0  0  0
 26 31  1  1  0  0  0
 27  5  1  1  0  0  0
 27 26  1  0  0  0  0
 28 27  1  0  0  0  0
 29 28  1  0  0  0  0
 29 30  1  0  0  0  0
 30 33  1  6  0  0  0
 30 26  1  0  0  0  0
 31 32  1  0  0  0  0
 34 33  1  0  0  0  0
M  END
>  <minimizedAffinity>
-5.7465744

>  <minimizedRMSD>
1.10730195

$$$$
