REMARK  Name = 
REMARK  4 active torsions:
REMARK  status: ('A' for Active; 'I' for Inactive)
REMARK    1  A    between atoms: C_2  and  C_19
REMARK    2  A    between atoms: C_3  and  C_7
REMARK    3  A    between atoms: O_17  and  C_18
REMARK    4  A    between atoms: C_22  and  O_23
REMARK                            x       y       z     vdW  Elec       q    Type
REMARK                         _______ _______ _______ _____ _____    ______ ____
ROOT
ATOM      1  C   UNL     1      44.586  35.907  44.318  0.00  0.00    +0.000 A 
ATOM      2  C   UNL     1      45.340  35.914  43.104  0.00  0.00    +0.000 A 
ATOM      3  C   UNL     1      46.297  34.925  43.019  0.00  0.00    +0.000 A 
ATOM      4  N   UNL     1      46.468  34.025  44.056  0.00  0.00    +0.000 NA
ATOM      5  C   UNL     1      45.742  34.047  45.179  0.00  0.00    +0.000 A 
ATOM      6  N   UNL     1      44.786  35.007  45.308  0.00  0.00    +0.000 NA
ATOM      7  H   UNL     1      43.804  36.525  44.669  0.00  0.00    +0.000 HD
ATOM      8  H   UNL     1      46.037  33.259  45.852  0.00  0.00    +0.000 HD
ENDROOT
BRANCH   3   9
ATOM      9  C   UNL     1      47.079  34.797  41.743  0.00  0.00    +0.000 C 
ATOM     10  C   UNL     1      48.466  35.462  41.886  0.00  0.00    +0.000 C 
ATOM     11  C   UNL     1      48.234  33.931  41.744  0.00  0.00    +0.000 C 
ATOM     12  H   UNL     1      46.618  35.171  40.793  0.00  0.00    +0.000 HD
ATOM     13  H   UNL     1      48.889  35.907  40.971  0.00  0.00    +0.000 HD
ATOM     14  H   UNL     1      48.761  35.832  42.861  0.00  0.00    +0.000 HD
ATOM     15  H   UNL     1      48.587  33.461  40.781  0.00  0.00    +0.000 HD
ATOM     16  H   UNL     1      48.507  33.340  42.654  0.00  0.00    +0.000 HD
ENDBRANCH   3   9
BRANCH   2  18
ATOM     17  C   UNL     1      43.809  37.848  42.604  0.00  0.00    +0.000 C 
ATOM     18  C   UNL     1      44.936  36.937  42.184  0.00  0.00    +0.000 C 
ATOM     19  O   UNL     1      44.211  36.318  41.122  0.00  0.00    +0.000 OA
ATOM     20  C   UNL     1      42.992  35.913  41.670  0.00  0.00    +0.000 C 
ATOM     21  C   UNL     1      42.720  36.868  42.843  0.00  0.00    +0.000 C 
BRANCH  17  22
ATOM     22  O   UNL     1      44.072  38.785  43.519  0.00  0.00    +0.000 OA
ATOM     23  H   UNL     1      45.000  39.072  43.500  0.00  0.00    +0.000 HD
ENDBRANCH  17  22
BRANCH  21  24
ATOM     24  O   UNL     1      41.449  37.461  42.705  0.00  0.00    +0.000 OA
ATOM     25  H   UNL     1      40.838  36.902  43.247  0.00  0.00    +0.000 HD
ENDBRANCH  21  24
ENDBRANCH   2  18
TORSDOF 4
