
 OpenBabel03242523463D

 19 20  0  0  1  0  0  0  0  0999 V2000
   44.9630   35.4100   44.1690 C   0  0  0  0  0  0  0  0  0  0  0  0
   45.9780   35.0800   43.2530 C   0  0  0  0  0  0  0  0  0  0  0  0
   46.8730   34.0680   43.6230 C   0  0  0  0  0  0  0  0  0  0  0  0
   46.7220   33.4580   44.8360 N   0  0  0  0  0  0  0  0  0  0  0  0
   45.7310   33.8120   45.6790 C   0  0  0  0  0  0  0  0  0  0  0  0
   44.8660   34.7710   45.3520 N   0  0  0  0  0  0  0  0  0  0  0  0
   46.1160   35.5470   42.2950 H   0  0  0  0  0  0  0  0  0  0  0  0
   45.6720   33.2800   46.6300 H   0  0  0  0  0  0  0  0  0  0  0  0
   47.9370   32.1220   42.4610 C   0  0  1  0  0  3  0  0  0  0  0  0
   47.9810   33.5980   42.8030 C   0  0  1  0  0  3  0  0  0  0  0  0
   47.9640   34.1480   41.5260 O   0  0  0  0  0  0  0  0  0  0  0  0
   48.8910   33.4500   40.7790 C   0  0  0  0  0  2  0  0  0  0  0  0
   49.0450   32.0870   41.4020 C   0  0  2  0  0  3  0  0  0  0  0  0
   48.2440   31.2980   43.5310 O   0  0  0  0  0  0  0  0  0  0  0  0
   47.7000   30.4500   43.5320 H   0  0  0  0  0  0  0  0  0  0  0  0
   48.8610   31.0530   40.5060 O   0  0  0  0  0  0  0  0  0  0  0  0
   49.5680   30.3570   40.5910 H   0  0  0  0  0  0  0  0  0  0  0  0
   44.0920   36.3960   43.8080 O   0  0  0  0  0  0  0  0  0  0  0  0
   44.4560   37.1950   43.3020 H   0  0  0  0  0  0  0  0  0  0  0  0
  1  6  1  0  0  0  0
  2  3  1  0  0  0  0
  2  1  2  0  0  0  0
  3  4  2  0  0  0  0
  4  5  1  0  0  0  0
  5  8  1  0  0  0  0
  6  5  2  0  0  0  0
  7  2  1  0  0  0  0
  9 10  1  0  0  0  0
  9 14  1  1  0  0  0
 10  3  1  1  0  0  0
 11 10  1  0  0  0  0
 12 13  1  0  0  0  0
 12 11  1  0  0  0  0
 13 16  1  6  0  0  0
 13  9  1  0  0  0  0
 14 15  1  0  0  0  0
 16 17  1  0  0  0  0
 18  1  1  0  0  0  0
 19 18  1  0  0  0  0
M  END
>  <minimizedAffinity>
-3.9881537

>  <minimizedRMSD>
0.577401638

$$$$
