
 OpenBabel03242523463D

 19 20  0  0  1  0  0  0  0  0999 V2000
   45.0030   35.4250   44.1700 C   0  0  0  0  0  0  0  0  0  0  0  0
   46.0260   34.9800   43.3150 C   0  0  0  0  0  0  0  0  0  0  0  0
   46.8420   33.9380   43.7760 C   0  0  0  0  0  0  0  0  0  0  0  0
   46.6110   33.4110   45.0150 N   0  0  0  0  0  0  0  0  0  0  0  0
   45.6150   33.8740   45.7970 C   0  0  0  0  0  0  0  0  0  0  0  0
   44.8240   34.8630   45.3840 N   0  0  0  0  0  0  0  0  0  0  0  0
   46.2270   35.3800   42.3380 H   0  0  0  0  0  0  0  0  0  0  0  0
   45.4900   33.4040   46.7740 H   0  0  0  0  0  0  0  0  0  0  0  0
   47.7000   33.2100   41.5400 C   0  0  1  0  0  3  0  0  0  0  0  0
   47.9470   33.3540   43.0280 C   0  0  1  0  0  3  0  0  0  0  0  0
   49.0690   34.1760   43.0130 O   0  0  0  0  0  0  0  0  0  0  0  0
   49.9400   33.6440   42.0840 C   0  0  0  0  0  2  0  0  0  0  0  0
   49.1240   32.8570   41.0920 C   0  0  2  0  0  3  0  0  0  0  0  0
   46.8130   32.1950   41.2240 O   0  0  0  0  0  0  0  0  0  0  0  0
   46.2220   32.4290   40.4410 H   0  0  0  0  0  0  0  0  0  0  0  0
   49.3510   33.2270   39.7810 O   0  0  0  0  0  0  0  0  0  0  0  0
   49.4750   32.4370   39.1890 H   0  0  0  0  0  0  0  0  0  0  0  0
   44.2090   36.4380   43.7200 O   0  0  0  0  0  0  0  0  0  0  0  0
   44.6400   37.1830   43.1840 H   0  0  0  0  0  0  0  0  0  0  0  0
  1  6  1  0  0  0  0
  2  3  1  0  0  0  0
  2  1  2  0  0  0  0
  3  4  2  0  0  0  0
  4  5  1  0  0  0  0
  5  8  1  0  0  0  0
  6  5  2  0  0  0  0
  7  2  1  0  0  0  0
  9 14  1  1  0  0  0
  9 10  1  0  0  0  0
 10  3  1  1  0  0  0
 11 10  1  0  0  0  0
 12 11  1  0  0  0  0
 13 16  1  6  0  0  0
 13  9  1  0  0  0  0
 13 12  1  0  0  0  0
 15 14  1  0  0  0  0
 17 16  1  0  0  0  0
 18  1  1  0  0  0  0
 19 18  1  0  0  0  0
M  END
>  <minimizedAffinity>
-4.54368401

>  <minimizedRMSD>
0.504323959

$$$$
