REMARK  Name = 
REMARK  7 active torsions:
REMARK  status: ('A' for Active; 'I' for Inactive)
REMARK    1  A    between atoms: C_3  and  O_7
REMARK    2  A    between atoms: C_5  and  C_18
REMARK    3  A    between atoms: O_7  and  P_9
REMARK    4  A    between atoms: P_9  and  O_10
REMARK    5  A    between atoms: P_9  and  O_11
REMARK    6  A    between atoms: O_16  and  C_17
REMARK    7  A    between atoms: C_21  and  O_22
REMARK                            x       y       z     vdW  Elec       q    Type
REMARK                         _______ _______ _______ _____ _____    ______ ____
ROOT
ATOM      1  C   UNL     1      44.588  35.992  44.510  0.00  0.00    +0.000 A 
ATOM      2  C   UNL     1      45.223  36.005  43.257  0.00  0.00    +0.000 A 
ATOM      3  C   UNL     1      46.092  34.960  42.975  0.00  0.00    +0.000 A 
ATOM      4  N   UNL     1      46.296  33.975  43.906  0.00  0.00    +0.000 NA
ATOM      5  C   UNL     1      45.666  33.998  45.102  0.00  0.00    +0.000 A 
ATOM      6  N   UNL     1      44.820  35.001  45.395  0.00  0.00    +0.000 NA
ATOM      7  H   UNL     1      43.907  36.805  44.739  0.00  0.00    +0.000 HD
ATOM      8  H   UNL     1      44.996  36.822  42.596  0.00  0.00    +0.000 HD
ENDROOT
BRANCH   5  10
ATOM      9  C   UNL     1      47.288  33.121  46.757  0.00  0.00    +0.000 C 
ATOM     10  C   UNL     1      45.947  32.889  46.051  0.00  0.00    +0.000 C 
ATOM     11  O   UNL     1      45.019  32.832  47.080  0.00  0.00    +0.000 OA
ATOM     12  C   UNL     1      45.636  32.333  48.195  0.00  0.00    +0.000 C 
ATOM     13  C   UNL     1      47.109  32.201  47.944  0.00  0.00    +0.000 C 
BRANCH   9  14
ATOM     14  O   UNL     1      47.274  34.457  47.166  0.00  0.00    +0.000 OA
ATOM     15  H   UNL     1      46.341  34.836  47.194  0.00  0.00    +0.000 HD
ENDBRANCH   9  14
BRANCH  13  16
ATOM     16  O   UNL     1      47.876  32.672  49.006  0.00  0.00    +0.000 OA
ATOM     17  H   UNL     1      47.976  33.661  48.978  0.00  0.00    +0.000 HD
ENDBRANCH  13  16
ENDBRANCH   5  10
BRANCH   3  18
ATOM     18  O   UNL     1      46.720  34.978  41.728  0.00  0.00    +0.000 OA
BRANCH  18  20
ATOM     19  O   UNL     1      48.647  33.327  40.973  0.00  0.00    +0.000 OA
ATOM     20  P   UNL     1      48.410  34.681  41.633  0.00  0.00    +0.000 P 
BRANCH  20  21
ATOM     21  O   UNL     1      49.119  35.926  40.777  0.00  0.00    +0.000 OA
ATOM     22  H   UNL     1      48.764  35.927  39.873  0.00  0.00    +0.000 HD
ENDBRANCH  20  21
BRANCH  20  23
ATOM     23  O   UNL     1      48.993  34.597  43.224  0.00  0.00    +0.000 OA
ATOM     24  H   UNL     1      48.714  33.724  43.598  0.00  0.00    +0.000 HD
ENDBRANCH  20  23
ENDBRANCH  18  20
ENDBRANCH   3  18
TORSDOF 7
