
 OpenBabel03252500573D

 38 40  0  0  1  0  0  0  0  0999 V2000
   43.6090   35.4980   39.9390 O   0  0  0  0  0  0  0  0  0  0  0  0
   43.3780   34.9490   41.3430 P   0  0  1  0  0  0  0  0  0  0  0  0
   43.5720   33.2630   41.2980 O   0  0  0  0  0  0  0  0  0  0  0  0
   43.0410   32.8280   42.0310 H   0  0  0  0  0  0  0  0  0  0  0  0
   44.5510   35.5830   42.3840 O   0  0  0  0  0  0  0  0  0  0  0  0
   46.5480   34.4520   42.8880 C   0  0  0  0  0  0  0  0  0  0  0  0
   45.3130   34.8700   43.3100 C   0  0  0  0  0  0  0  0  0  0  0  0
   44.9150   34.5520   44.6260 C   0  0  0  0  0  0  0  0  0  0  0  0
   45.7900   33.8550   45.3750 N   0  0  0  0  0  0  0  0  0  0  0  0
   46.9840   33.4600   44.9410 C   0  0  0  0  0  0  0  0  0  0  0  0
   47.3660   33.7570   43.6980 N   0  0  0  0  0  0  0  0  0  0  0  0
   43.9400   34.9040   44.9020 H   0  0  0  0  0  0  0  0  0  0  0  0
   47.5750   32.9120   45.6480 H   0  0  0  0  0  0  0  0  0  0  0  0
   47.0220   34.7460   41.5380 C   0  0  0  0  0  0  0  0  0  0  0  0
   47.1230   33.7820   41.0010 H   0  0  0  0  0  0  0  0  0  0  0  0
   46.3730   35.4440   40.9760 H   0  0  0  0  0  0  0  0  0  0  0  0
   48.4000   35.3480   41.6120 C   0  0  0  0  0  0  0  0  0  0  0  0
   48.9780   34.9850   42.4850 H   0  0  0  0  0  0  0  0  0  0  0  0
   48.2520   36.4520   41.7490 H   0  0  0  0  0  0  0  0  0  0  0  0
   48.9560   35.2200   40.6480 H   0  0  0  0  0  0  0  0  0  0  0  0
   41.7980   35.2700   41.8450 O   0  0  0  0  0  0  0  0  0  0  0  0
   40.7690   34.4880   41.3290 C   0  0  0  0  0  0  0  0  0  0  0  0
   39.8330   35.1290   40.5280 C   0  0  0  0  0  0  0  0  0  0  0  0
   38.7620   34.4410   39.9610 C   0  0  0  0  0  0  0  0  0  0  0  0
   38.6670   33.1050   40.2230 N   0  0  0  0  0  0  0  0  0  0  0  0
   39.5640   32.4960   40.9900 C   0  0  0  0  0  0  0  0  0  0  0  0
   40.5880   33.1760   41.5260 N   0  0  0  0  0  0  0  0  0  0  0  0
   39.9050   36.1930   40.3160 H   0  0  0  0  0  0  0  0  0  0  0  0
   38.0280   34.9310   39.3360 H   0  0  0  0  0  0  0  0  0  0  0  0
   38.1080   30.4950   41.2860 C   0  0  2  0  0  0  0  0  0  0  0  0
   39.5120   31.0390   41.3120 C   0  0  1  0  0  0  0  0  0  0  0  0
   40.2700   30.3010   40.4400 O   0  0  0  0  0  0  0  0  0  0  0  0
   39.5320   29.2420   39.9760 C   0  0  0  0  0  0  0  0  0  0  0  0
   38.1220   29.8120   39.9290 C   0  0  2  0  0  0  0  0  0  0  0  0
   37.1500   31.4960   41.3830 O   0  0  0  0  0  0  0  0  0  0  0  0
   36.2900   31.2430   40.9680 H   0  0  0  0  0  0  0  0  0  0  0  0
   38.1020   30.7470   38.9050 O   0  0  0  0  0  0  0  0  0  0  0  0
   38.9180   30.7060   38.3280 H   0  0  0  0  0  0  0  0  0  0  0  0
  2  1  2  6  0  0  0
  2 21  1  0  0  0  0
  2  5  1  0  0  0  0
  3  2  1  0  0  0  0
  3  4  1  0  0  0  0
  5  7  1  0  0  0  0
  6  7  2  0  0  0  0
  6 11  1  0  0  0  0
  7  8  1  0  0  0  0
  8 12  1  0  0  0  0
  8  9  2  0  0  0  0
 10  9  1  0  0  0  0
 10 13  1  0  0  0  0
 11 10  2  0  0  0  0
 14 17  1  0  0  0  0
 14  6  1  0  0  0  0
 15 14  1  0  0  0  0
 16 14  1  0  0  0  0
 17 19  1  0  0  0  0
 17 18  1  0  0  0  0
 20 17  1  0  0  0  0
 22 27  1  0  0  0  0
 22 21  1  0  0  0  0
 23 22  2  0  0  0  0
 24 25  2  0  0  0  0
 24 23  1  0  0  0  0
 25 26  1  0  0  0  0
 26 27  2  0  0  0  0
 28 23  1  0  0  0  0
 29 24  1  0  0  0  0
 30 31  1  0  0  0  0
 30 35  1  6  0  0  0
 31 26  1  6  0  0  0
 32 31  1  0  0  0  0
 33 32  1  0  0  0  0
 34 37  1  6  0  0  0
 34 33  1  0  0  0  0
 34 30  1  0  0  0  0
 36 35  1  0  0  0  0
 38 37  1  0  0  0  0
M  END
>  <minimizedAffinity>
-5.66058636

>  <minimizedRMSD>
0.695809841

$$$$
