
 OpenBabel03252501543D

 21 22  0  0  1  0  0  0  0  0999 V2000
   44.9610   34.9490   45.0690 C   0  0  0  0  0  0  0  0  0  0  0  0
   45.4660   35.2420   43.8100 C   0  0  0  0  0  0  0  0  0  0  0  0
   46.5140   34.4680   43.3290 C   0  0  0  0  0  0  0  0  0  0  0  0
   46.9830   33.4750   44.1070 N   0  0  0  0  0  0  0  0  0  0  0  0
   46.4830   33.2050   45.3220 C   0  0  0  0  0  0  0  0  0  0  0  0
   45.4670   33.9360   45.8200 N   0  0  0  0  0  0  0  0  0  0  0  0
   44.1470   35.4810   45.5520 H   0  0  0  0  0  0  0  0  0  0  0  0
   46.9450   32.3720   45.8670 H   0  0  0  0  0  0  0  0  0  0  0  0
   47.1040   33.6630   41.0420 C   0  0  2  0  0  0  0  0  0  0  0  0
   47.0120   34.8280   41.9810 C   0  0  2  0  0  0  0  0  0  0  0  0
   48.3480   35.2480   42.1780 O   0  0  0  0  0  0  0  0  0  0  0  0
   49.1310   34.1050   42.0940 C   0  0  0  0  0  0  0  0  0  0  0  0
   48.5550   33.2830   40.9550 C   0  0  2  0  0  0  0  0  0  0  0  0
   46.6660   34.1200   39.7880 O   0  0  0  0  0  0  0  0  0  0  0  0
   47.1550   34.9200   39.5030 H   0  0  0  0  0  0  0  0  0  0  0  0
   49.1160   33.6230   39.7150 O   0  0  0  0  0  0  0  0  0  0  0  0
   50.0040   34.0210   39.8960 H   0  0  0  0  0  0  0  0  0  0  0  0
   44.8130   36.3800   43.1030 C   0  0  0  0  0  0  0  0  0  0  0  0
   44.8600   36.3000   42.0040 H   0  0  0  0  0  0  0  0  0  0  0  0
   45.1640   37.3650   43.4280 H   0  0  0  0  0  0  0  0  0  0  0  0
   43.7080   36.3440   43.3360 H   0  0  0  0  0  0  0  0  0  0  0  0
  1  7  1  0  0  0  0
  1  6  1  0  0  0  0
  2  1  2  0  0  0  0
  3  2  1  0  0  0  0
  3  4  2  0  0  0  0
  4  5  1  0  0  0  0
  5  6  2  0  0  0  0
  5  8  1  0  0  0  0
  9 14  1  6  0  0  0
  9 10  1  0  0  0  0
 10 11  1  0  0  0  0
 10  3  1  1  0  0  0
 12 11  1  0  0  0  0
 13 16  1  6  0  0  0
 13  9  1  0  0  0  0
 13 12  1  0  0  0  0
 15 14  1  0  0  0  0
 16 17  1  0  0  0  0
 18 21  1  0  0  0  0
 18 20  1  0  0  0  0
 18  2  1  0  0  0  0
 19 18  1  0  0  0  0
M  END
>  <minimizedAffinity>
-4.56788826

>  <minimizedRMSD>
3.13933253

$$$$
