
 OpenBabel03242520233D

 44 47  0  0  1  0  0  0  0  0999 V2000
   37.2180   29.0340   42.0550 C   0  0  0  0  0  0  0  0  0  0  0  0
   37.3020   28.2250   41.2980 H   0  0  0  0  0  0  0  0  0  0  0  0
   36.1540   29.3720   41.9820 H   0  0  0  0  0  0  0  0  0  0  0  0
   37.6710   31.1570   40.9440 C   0  0  0  0  0  0  0  0  0  0  0  0
   36.4860   31.2570   40.4960 O   0  0  0  0  0  0  0  0  0  0  0  0
   38.1230   30.1350   41.8050 N   0  0  0  0  0  0  0  0  0  0  0  0
   39.0420   30.1090   42.2670 H   0  0  0  0  0  0  0  0  0  0  0  0
   38.6740   32.1750   40.5490 C   0  0  0  0  0  0  0  0  0  0  0  0
   38.2600   33.4980   40.4160 C   0  0  0  0  0  0  0  0  0  0  0  0
   39.0950   34.5350   40.0550 C   0  0  0  0  0  0  0  0  0  0  0  0
   40.4350   34.2040   39.8130 C   0  0  0  0  0  0  0  0  0  0  0  0
   40.7810   32.8840   39.9600 C   0  0  0  0  0  0  0  0  0  0  0  0
   39.9700   31.8860   40.3100 N   0  0  0  0  0  0  0  0  0  0  0  0
   37.2230   33.7420   40.6060 H   0  0  0  0  0  0  0  0  0  0  0  0
   38.7140   35.5440   39.9680 H   0  0  0  0  0  0  0  0  0  0  0  0
   41.1050   34.9850   39.5320 H   0  0  0  0  0  0  0  0  0  0  0  0
   42.9410   33.6200   38.9740 C   0  0  2  0  0  3  0  0  0  0  0  0
   42.2010   32.5140   39.7080 C   0  0  2  0  0  3  0  0  0  0  0  0
   42.3380   31.4510   38.8270 O   0  0  0  0  0  0  0  0  0  0  0  0
   42.1220   31.9340   37.5580 C   0  0  0  0  0  2  0  0  0  0  0  0
   42.9500   33.1910   37.5220 C   0  0  1  0  0  3  0  0  0  0  0  0
   44.2480   33.7760   39.4010 O   0  0  0  0  0  0  0  0  0  0  0  0
   44.8950   33.2840   38.8290 H   0  0  0  0  0  0  0  0  0  0  0  0
   42.3530   34.1550   36.6880 O   0  0  0  0  0  0  0  0  0  0  0  0
   41.8700   33.6660   35.9720 H   0  0  0  0  0  0  0  0  0  0  0  0
   37.4770   28.3610   43.4000 C   0  0  0  0  0  0  0  0  0  0  0  0
   36.4780   28.2690   43.8710 H   0  0  0  0  0  0  0  0  0  0  0  0
   38.1540   28.9420   44.0480 H   0  0  0  0  0  0  0  0  0  0  0  0
   38.1090   24.8210   42.2060 C   0  0  0  0  0  0  0  0  0  0  0  0
   37.4750   26.0780   42.3970 C   0  0  0  0  0  0  0  0  0  0  0  0
   38.0960   27.0320   43.1790 C   0  0  0  0  0  0  0  0  0  0  0  0
   39.3090   26.6840   43.7260 N   0  0  0  0  0  0  0  0  0  0  0  0
   39.8710   25.4570   43.5080 C   0  0  0  0  0  0  0  0  0  0  0  0
   39.2720   24.5390   42.7540 N   0  0  0  0  0  0  0  0  0  0  0  0
   36.5130   26.2810   41.9320 H   0  0  0  0  0  0  0  0  0  0  0  0
   40.8280   25.2720   43.9790 H   0  0  0  0  0  0  0  0  0  0  0  0
   37.4100   23.8050   41.3650 C   0  0  0  0  0  0  0  0  0  0  0  0
   37.7220   24.0230   39.8340 C   0  0  0  0  0  0  0  0  0  0  0  0
   38.0220   22.8000   40.5950 C   0  0  0  0  0  0  0  0  0  0  0  0
   36.3070   23.8020   41.5740 H   0  0  0  0  0  0  0  0  0  0  0  0
   36.8230   24.1000   39.1890 H   0  0  0  0  0  0  0  0  0  0  0  0
   38.4840   24.7560   39.5790 H   0  0  0  0  0  0  0  0  0  0  0  0
   39.1260   22.6100   40.7370 H   0  0  0  0  0  0  0  0  0  0  0  0
   37.4990   21.8480   40.3900 H   0  0  0  0  0  0  0  0  0  0  0  0
  1 26  1  0  0  0  0
  2  1  1  0  0  0  0
  3  1  1  0  0  0  0
  4  6  1  0  0  0  0
  5  4  2  0  0  0  0
  6  1  1  0  0  0  0
  6  7  1  0  0  0  0
  8  4  1  0  0  0  0
  9  8  1  0  0  0  0
  9 14  1  0  0  0  0
 10  9  2  0  0  0  0
 11 12  2  0  0  0  0
 11 10  1  0  0  0  0
 12 13  1  0  0  0  0
 13  8  2  0  0  0  0
 15 10  1  0  0  0  0
 16 11  1  0  0  0  0
 17 22  1  1  0  0  0
 17 18  1  0  0  0  0
 18 12  1  6  0  0  0
 19 18  1  0  0  0  0
 20 19  1  0  0  0  0
 21 24  1  6  0  0  0
 21 20  1  0  0  0  0
 21 17  1  0  0  0  0
 23 22  1  0  0  0  0
 25 24  1  0  0  0  0
 26 27  1  0  0  0  0
 26 28  1  0  0  0  0
 29 30  2  0  0  0  0
 29 34  1  0  0  0  0
 30 31  1  0  0  0  0
 31 26  1  0  0  0  0
 31 32  2  0  0  0  0
 33 32  1  0  0  0  0
 33 36  1  0  0  0  0
 34 33  2  0  0  0  0
 35 30  1  0  0  0  0
 37 40  1  0  0  0  0
 37 29  1  0  0  0  0
 38 39  1  0  0  0  0
 38 37  1  0  0  0  0
 39 43  1  0  0  0  0
 39 37  1  0  0  0  0
 41 38  1  0  0  0  0
 42 38  1  0  0  0  0
 44 39  1  0  0  0  0
M  END
>  <minimizedAffinity>
-6.52105713

$$$$

 OpenBabel03242520233D

 44 47  0  0  1  0  0  0  0  0999 V2000
   35.9730   29.4170   39.3710 C   0  0  0  0  0  0  0  0  0  0  0  0
   36.5550   28.5730   38.9430 H   0  0  0  0  0  0  0  0  0  0  0  0
   35.1490   29.5880   38.6350 H   0  0  0  0  0  0  0  0  0  0  0  0
   38.0250   30.6500   38.9100 C   0  0  0  0  0  0  0  0  0  0  0  0
   38.4500   29.7760   38.0900 O   0  0  0  0  0  0  0  0  0  0  0  0
   36.7650   30.6170   39.5410 N   0  0  0  0  0  0  0  0  0  0  0  0
   36.3650   31.3740   40.1110 H   0  0  0  0  0  0  0  0  0  0  0  0
   38.8990   31.7990   39.2470 C   0  0  0  0  0  0  0  0  0  0  0  0
   38.3010   33.0100   39.5900 C   0  0  0  0  0  0  0  0  0  0  0  0
   39.0030   34.1490   39.9230 C   0  0  0  0  0  0  0  0  0  0  0  0
   40.4000   34.0520   39.9050 C   0  0  0  0  0  0  0  0  0  0  0  0
   40.9300   32.8340   39.5580 C   0  0  0  0  0  0  0  0  0  0  0  0
   40.2470   31.7350   39.2380 N   0  0  0  0  0  0  0  0  0  0  0  0
   37.2210   33.0730   39.6010 H   0  0  0  0  0  0  0  0  0  0  0  0
   38.4810   35.0620   40.1810 H   0  0  0  0  0  0  0  0  0  0  0  0
   40.9700   34.9170   40.1570 H   0  0  0  0  0  0  0  0  0  0  0  0
   43.0650   33.9610   38.9700 C   0  0  2  0  0  3  0  0  0  0  0  0
   42.4130   32.7110   39.5350 C   0  0  2  0  0  3  0  0  0  0  0  0
   42.8640   31.7370   38.6550 O   0  0  0  0  0  0  0  0  0  0  0  0
   42.7750   32.2530   37.3850 C   0  0  0  0  0  2  0  0  0  0  0  0
   43.3760   33.6250   37.5260 C   0  0  1  0  0  3  0  0  0  0  0  0
   44.2420   34.2990   39.6120 O   0  0  0  0  0  0  0  0  0  0  0  0
   45.0450   33.9510   39.1410 H   0  0  0  0  0  0  0  0  0  0  0  0
   42.7670   34.5280   36.6360 O   0  0  0  0  0  0  0  0  0  0  0  0
   42.4920   34.0120   35.8340 H   0  0  0  0  0  0  0  0  0  0  0  0
   35.4140   28.8970   40.6920 C   0  0  0  0  0  0  0  0  0  0  0  0
   34.8200   28.0010   40.4180 H   0  0  0  0  0  0  0  0  0  0  0  0
   34.7790   29.6340   41.2110 H   0  0  0  0  0  0  0  0  0  0  0  0
   38.0570   26.9560   42.5920 C   0  0  0  0  0  0  0  0  0  0  0  0
   36.9760   27.2440   41.7140 C   0  0  0  0  0  0  0  0  0  0  0  0
   36.5310   28.5460   41.6020 C   0  0  0  0  0  0  0  0  0  0  0  0
   37.1830   29.4880   42.3650 N   0  0  0  0  0  0  0  0  0  0  0  0
   38.2170   29.1510   43.1930 C   0  0  0  0  0  0  0  0  0  0  0  0
   38.6450   27.8970   43.3010 N   0  0  0  0  0  0  0  0  0  0  0  0
   36.5100   26.4460   41.1420 H   0  0  0  0  0  0  0  0  0  0  0  0
   38.6680   29.9580   43.7560 H   0  0  0  0  0  0  0  0  0  0  0  0
   38.5100   25.5380   42.7030 C   0  0  0  0  0  0  0  0  0  0  0  0
   39.7790   25.2760   41.8040 C   0  0  0  0  0  0  0  0  0  0  0  0
   39.7210   25.0950   43.2620 C   0  0  0  0  0  0  0  0  0  0  0  0
   37.6720   24.8300   42.4650 H   0  0  0  0  0  0  0  0  0  0  0  0
   39.6790   24.4190   41.1070 H   0  0  0  0  0  0  0  0  0  0  0  0
   40.2500   26.1400   41.3400 H   0  0  0  0  0  0  0  0  0  0  0  0
   40.3500   25.8330   43.8400 H   0  0  0  0  0  0  0  0  0  0  0  0
   39.7970   24.0930   43.7240 H   0  0  0  0  0  0  0  0  0  0  0  0
  1  6  1  0  0  0  0
  1 26  1  0  0  0  0
  2  1  1  0  0  0  0
  3  1  1  0  0  0  0
  4  8  1  0  0  0  0
  4  6  1  0  0  0  0
  5  4  2  0  0  0  0
  6  7  1  0  0  0  0
  8  9  1  0  0  0  0
  9 14  1  0  0  0  0
  9 10  2  0  0  0  0
 10 15  1  0  0  0  0
 11 10  1  0  0  0  0
 11 16  1  0  0  0  0
 12 11  2  0  0  0  0
 13  8  2  0  0  0  0
 13 12  1  0  0  0  0
 17 18  1  0  0  0  0
 17 22  1  1  0  0  0
 18 12  1  6  0  0  0
 19 18  1  0  0  0  0
 20 21  1  0  0  0  0
 20 19  1  0  0  0  0
 21 24  1  6  0  0  0
 21 17  1  0  0  0  0
 23 22  1  0  0  0  0
 25 24  1  0  0  0  0
 26 28  1  0  0  0  0
 26 31  1  0  0  0  0
 27 26  1  0  0  0  0
 29 37  1  0  0  0  0
 29 34  1  0  0  0  0
 30 29  2  0  0  0  0
 31 30  1  0  0  0  0
 31 32  2  0  0  0  0
 32 33  1  0  0  0  0
 33 34  2  0  0  0  0
 33 36  1  0  0  0  0
 35 30  1  0  0  0  0
 37 39  1  0  0  0  0
 38 37  1  0  0  0  0
 38 39  1  0  0  0  0
 39 44  1  0  0  0  0
 39 43  1  0  0  0  0
 40 37  1  0  0  0  0
 41 38  1  0  0  0  0
 42 38  1  0  0  0  0
M  END
>  <minimizedAffinity>
-6.32352972

$$$$

 OpenBabel03242520233D

 44 47  0  0  1  0  0  0  0  0999 V2000
   36.2060   29.7550   37.8050 C   0  0  0  0  0  0  0  0  0  0  0  0
   36.9280   28.9480   37.5550 H   0  0  0  0  0  0  0  0  0  0  0  0
   35.6670   29.9520   36.8460 H   0  0  0  0  0  0  0  0  0  0  0  0
   38.2620   30.9610   38.3210 C   0  0  0  0  0  0  0  0  0  0  0  0
   39.0020   30.0520   37.8290 O   0  0  0  0  0  0  0  0  0  0  0  0
   36.8520   30.9580   38.2860 N   0  0  0  0  0  0  0  0  0  0  0  0
   36.2480   31.7390   38.5740 H   0  0  0  0  0  0  0  0  0  0  0  0
   38.8990   32.1200   38.9890 C   0  0  0  0  0  0  0  0  0  0  0  0
   38.2880   32.6520   40.1230 C   0  0  0  0  0  0  0  0  0  0  0  0
   38.7820   33.7270   40.8320 C   0  0  0  0  0  0  0  0  0  0  0  0
   39.9700   34.2980   40.3580 C   0  0  0  0  0  0  0  0  0  0  0  0
   40.5230   33.7300   39.2370 C   0  0  0  0  0  0  0  0  0  0  0  0
   40.0430   32.6900   38.5560 N   0  0  0  0  0  0  0  0  0  0  0  0
   37.3710   32.2030   40.4810 H   0  0  0  0  0  0  0  0  0  0  0  0
   38.2610   34.0960   41.7070 H   0  0  0  0  0  0  0  0  0  0  0  0
   40.3760   35.1310   40.8860 H   0  0  0  0  0  0  0  0  0  0  0  0
   42.2610   33.6090   37.4650 C   0  0  2  0  0  3  0  0  0  0  0  0
   41.7870   34.3220   38.7200 C   0  0  2  0  0  3  0  0  0  0  0  0
   42.8650   34.1350   39.5730 O   0  0  0  0  0  0  0  0  0  0  0  0
   43.2840   32.8340   39.4310 C   0  0  0  0  0  2  0  0  0  0  0  0
   43.3300   32.6470   37.9380 C   0  0  1  0  0  3  0  0  0  0  0  0
   42.8140   34.4640   36.5290 O   0  0  0  0  0  0  0  0  0  0  0  0
   43.8050   34.5090   36.5950 H   0  0  0  0  0  0  0  0  0  0  0  0
   43.0260   31.3160   37.5950 O   0  0  0  0  0  0  0  0  0  0  0  0
   43.3430   30.7400   38.3380 H   0  0  0  0  0  0  0  0  0  0  0  0
   35.2620   29.1480   38.8390 C   0  0  0  0  0  0  0  0  0  0  0  0
   34.7690   28.3040   38.3150 H   0  0  0  0  0  0  0  0  0  0  0  0
   34.5080   29.8640   39.2050 H   0  0  0  0  0  0  0  0  0  0  0  0
   37.2440   26.9690   41.2230 C   0  0  0  0  0  0  0  0  0  0  0  0
   36.4920   27.3750   40.0860 C   0  0  0  0  0  0  0  0  0  0  0  0
   36.0410   28.6770   40.0090 C   0  0  0  0  0  0  0  0  0  0  0  0
   36.3600   29.5030   41.0630 N   0  0  0  0  0  0  0  0  0  0  0  0
   37.0870   29.0570   42.1310 C   0  0  0  0  0  0  0  0  0  0  0  0
   37.5210   27.8020   42.2040 N   0  0  0  0  0  0  0  0  0  0  0  0
   36.2780   26.6640   39.2920 H   0  0  0  0  0  0  0  0  0  0  0  0
   37.2890   29.7770   42.9130 H   0  0  0  0  0  0  0  0  0  0  0  0
   37.7090   25.5530   41.2850 C   0  0  0  0  0  0  0  0  0  0  0  0
   36.7560   24.6820   42.1930 C   0  0  0  0  0  0  0  0  0  0  0  0
   37.0320   24.4330   40.7710 C   0  0  0  0  0  0  0  0  0  0  0  0
   38.7790   25.4960   41.6210 H   0  0  0  0  0  0  0  0  0  0  0  0
   37.2760   24.1170   42.9940 H   0  0  0  0  0  0  0  0  0  0  0  0
   35.8350   25.1450   42.5390 H   0  0  0  0  0  0  0  0  0  0  0  0
   36.1430   24.6040   40.0960 H   0  0  0  0  0  0  0  0  0  0  0  0
   37.5910   23.5390   40.4370 H   0  0  0  0  0  0  0  0  0  0  0  0
  1  6  1  0  0  0  0
  1 26  1  0  0  0  0
  2  1  1  0  0  0  0
  3  1  1  0  0  0  0
  4  8  1  0  0  0  0
  5  4  2  0  0  0  0
  6  4  1  0  0  0  0
  6  7  1  0  0  0  0
  8  9  1  0  0  0  0
  9 14  1  0  0  0  0
  9 10  2  0  0  0  0
 10 15  1  0  0  0  0
 11 10  1  0  0  0  0
 11 16  1  0  0  0  0
 12 11  2  0  0  0  0
 13  8  2  0  0  0  0
 13 12  1  0  0  0  0
 17 22  1  6  0  0  0
 17 21  1  0  0  0  0
 17 18  1  0  0  0  0
 18 12  1  1  0  0  0
 18 19  1  0  0  0  0
 20 19  1  0  0  0  0
 21 24  1  1  0  0  0
 21 20  1  0  0  0  0
 22 23  1  0  0  0  0
 24 25  1  0  0  0  0
 26 28  1  0  0  0  0
 26 31  1  0  0  0  0
 27 26  1  0  0  0  0
 29 37  1  0  0  0  0
 29 34  1  0  0  0  0
 30 29  2  0  0  0  0
 31 30  1  0  0  0  0
 31 32  2  0  0  0  0
 32 33  1  0  0  0  0
 33 34  2  0  0  0  0
 33 36  1  0  0  0  0
 35 30  1  0  0  0  0
 37 40  1  0  0  0  0
 37 38  1  0  0  0  0
 38 42  1  0  0  0  0
 38 41  1  0  0  0  0
 39 37  1  0  0  0  0
 39 38  1  0  0  0  0
 43 39  1  0  0  0  0
 44 39  1  0  0  0  0
M  END
>  <minimizedAffinity>
-6.30653143

$$$$

 OpenBabel03242520233D

 44 47  0  0  1  0  0  0  0  0999 V2000
   41.7390   28.1550   42.2300 C   0  0  0  0  0  0  0  0  0  0  0  0
   42.7660   28.4080   42.5700 H   0  0  0  0  0  0  0  0  0  0  0  0
   41.8810   27.2810   41.5470 H   0  0  0  0  0  0  0  0  0  0  0  0
   41.5350   30.5520   41.8340 C   0  0  0  0  0  0  0  0  0  0  0  0
   42.5500   30.8280   42.5480 O   0  0  0  0  0  0  0  0  0  0  0  0
   41.0920   29.2480   41.5350 N   0  0  0  0  0  0  0  0  0  0  0  0
   40.3480   29.0110   40.8650 H   0  0  0  0  0  0  0  0  0  0  0  0
   40.7400   31.6640   41.2600 C   0  0  0  0  0  0  0  0  0  0  0  0
   41.3980   32.8430   40.9170 C   0  0  0  0  0  0  0  0  0  0  0  0
   40.7710   33.9470   40.3760 C   0  0  0  0  0  0  0  0  0  0  0  0
   39.3880   33.8450   40.1730 C   0  0  0  0  0  0  0  0  0  0  0  0
   38.7980   32.6590   40.5320 C   0  0  0  0  0  0  0  0  0  0  0  0
   39.4080   31.5950   41.0530 N   0  0  0  0  0  0  0  0  0  0  0  0
   42.4660   32.9110   41.0770 H   0  0  0  0  0  0  0  0  0  0  0  0
   41.3370   34.8360   40.1300 H   0  0  0  0  0  0  0  0  0  0  0  0
   38.8760   34.6820   39.7570 H   0  0  0  0  0  0  0  0  0  0  0  0
   36.8340   31.1430   40.6900 C   0  0  2  0  0  3  0  0  0  0  0  0
   37.3300   32.5310   40.3230 C   0  0  2  0  0  3  0  0  0  0  0  0
   36.9620   32.6160   38.9870 O   0  0  0  0  0  0  0  0  0  0  0  0
   37.2640   31.4120   38.3970 C   0  0  0  0  0  2  0  0  0  0  0  0
   36.7210   30.4030   39.3740 C   0  0  1  0  0  3  0  0  0  0  0  0
   35.5950   31.1520   41.3040 O   0  0  0  0  0  0  0  0  0  0  0  0
   34.8530   30.9910   40.6630 H   0  0  0  0  0  0  0  0  0  0  0  0
   37.5020   29.2320   39.3620 O   0  0  0  0  0  0  0  0  0  0  0  0
   37.8640   29.1280   38.4450 H   0  0  0  0  0  0  0  0  0  0  0  0
   40.9860   27.7380   43.4890 C   0  0  0  0  0  0  0  0  0  0  0  0
   41.1690   28.5550   44.2160 H   0  0  0  0  0  0  0  0  0  0  0  0
   41.3320   26.7750   43.8990 H   0  0  0  0  0  0  0  0  0  0  0  0
   37.6040   26.2950   42.5730 C   0  0  0  0  0  0  0  0  0  0  0  0
   38.9950   26.3790   42.8490 C   0  0  0  0  0  0  0  0  0  0  0  0
   39.5410   27.6030   43.1830 C   0  0  0  0  0  0  0  0  0  0  0  0
   38.6760   28.6720   43.2230 N   0  0  0  0  0  0  0  0  0  0  0  0
   37.3450   28.5310   42.9470 C   0  0  0  0  0  0  0  0  0  0  0  0
   36.8200   27.3510   42.6250 N   0  0  0  0  0  0  0  0  0  0  0  0
   39.6170   25.4890   42.7970 H   0  0  0  0  0  0  0  0  0  0  0  0
   36.7410   29.4270   43.0020 H   0  0  0  0  0  0  0  0  0  0  0  0
   37.0430   24.9610   42.2040 C   0  0  0  0  0  0  0  0  0  0  0  0
   36.8840   24.8260   40.6400 C   0  0  0  0  0  0  0  0  0  0  0  0
   37.7080   23.9510   41.4870 C   0  0  0  0  0  0  0  0  0  0  0  0
   36.0780   24.7690   42.7440 H   0  0  0  0  0  0  0  0  0  0  0  0
   35.8690   24.5250   40.3070 H   0  0  0  0  0  0  0  0  0  0  0  0
   37.3100   25.6150   40.0240 H   0  0  0  0  0  0  0  0  0  0  0  0
   38.8180   24.0570   41.3090 H   0  0  0  0  0  0  0  0  0  0  0  0
   37.4510   22.8870   41.6410 H   0  0  0  0  0  0  0  0  0  0  0  0
  1  2  1  0  0  0  0
  1 26  1  0  0  0  0
  3  1  1  0  0  0  0
  4  5  2  0  0  0  0
  6  4  1  0  0  0  0
  6  1  1  0  0  0  0
  7  6  1  0  0  0  0
  8  4  1  0  0  0  0
  9 14  1  0  0  0  0
  9  8  2  0  0  0  0
 10  9  1  0  0  0  0
 11 10  2  0  0  0  0
 11 12  1  0  0  0  0
 12 13  2  0  0  0  0
 13  8  1  0  0  0  0
 15 10  1  0  0  0  0
 16 11  1  0  0  0  0
 17 22  1  6  0  0  0
 18 12  1  6  0  0  0
 18 17  1  0  0  0  0
 19 18  1  0  0  0  0
 20 19  1  0  0  0  0
 20 21  1  0  0  0  0
 21 24  1  1  0  0  0
 21 17  1  0  0  0  0
 23 22  1  0  0  0  0
 25 24  1  0  0  0  0
 26 28  1  0  0  0  0
 26 27  1  0  0  0  0
 29 34  2  0  0  0  0
 29 30  1  0  0  0  0
 30 31  2  0  0  0  0
 31 32  1  0  0  0  0
 31 26  1  0  0  0  0
 33 36  1  0  0  0  0
 33 32  2  0  0  0  0
 34 33  1  0  0  0  0
 35 30  1  0  0  0  0
 37 29  1  0  0  0  0
 37 40  1  0  0  0  0
 38 39  1  0  0  0  0
 38 37  1  0  0  0  0
 39 44  1  0  0  0  0
 39 37  1  0  0  0  0
 41 38  1  0  0  0  0
 42 38  1  0  0  0  0
 43 39  1  0  0  0  0
M  END
>  <minimizedAffinity>
-6.27621937

$$$$

 OpenBabel03242520233D

 44 47  0  0  1  0  0  0  0  0999 V2000
   37.1480   28.5000   36.8910 C   0  0  0  0  0  0  0  0  0  0  0  0
   36.6810   27.8610   36.1110 H   0  0  0  0  0  0  0  0  0  0  0  0
   38.0980   28.8590   36.4230 H   0  0  0  0  0  0  0  0  0  0  0  0
   36.5700   26.7010   38.4320 C   0  0  0  0  0  0  0  0  0  0  0  0
   35.6830   26.2250   37.6550 O   0  0  0  0  0  0  0  0  0  0  0  0
   37.4210   27.7810   38.1170 N   0  0  0  0  0  0  0  0  0  0  0  0
   38.2170   28.0970   38.6860 H   0  0  0  0  0  0  0  0  0  0  0  0
   36.7440   26.0980   39.7750 C   0  0  0  0  0  0  0  0  0  0  0  0
   36.5730   24.7230   39.9120 C   0  0  0  0  0  0  0  0  0  0  0  0
   36.7070   24.0440   41.1060 C   0  0  0  0  0  0  0  0  0  0  0  0
   37.0340   24.8140   42.2300 C   0  0  0  0  0  0  0  0  0  0  0  0
   37.1880   26.1630   42.0310 C   0  0  0  0  0  0  0  0  0  0  0  0
   37.0580   26.8140   40.8750 N   0  0  0  0  0  0  0  0  0  0  0  0
   36.3210   24.1380   39.0380 H   0  0  0  0  0  0  0  0  0  0  0  0
   36.5620   22.9720   41.1500 H   0  0  0  0  0  0  0  0  0  0  0  0
   37.1440   24.3170   43.1670 H   0  0  0  0  0  0  0  0  0  0  0  0
   37.5680   28.4740   42.8620 C   0  0  2  0  0  3  0  0  0  0  0  0
   37.5360   26.9970   43.2140 C   0  0  2  0  0  3  0  0  0  0  0  0
   38.8320   26.7870   43.6630 O   0  0  0  0  0  0  0  0  0  0  0  0
   39.6800   27.4480   42.8070 C   0  0  0  0  0  2  0  0  0  0  0  0
   39.0320   28.7990   42.6550 C   0  0  1  0  0  3  0  0  0  0  0  0
   37.0700   29.2840   43.8670 O   0  0  0  0  0  0  0  0  0  0  0  0
   37.7870   29.6480   44.4510 H   0  0  0  0  0  0  0  0  0  0  0  0
   39.2760   29.3240   41.3720 O   0  0  0  0  0  0  0  0  0  0  0  0
   40.1600   28.9830   41.0770 H   0  0  0  0  0  0  0  0  0  0  0  0
   36.1790   29.6600   37.1000 C   0  0  0  0  0  0  0  0  0  0  0  0
   35.1770   29.1890   37.1610 H   0  0  0  0  0  0  0  0  0  0  0  0
   36.2060   30.3960   36.2790 H   0  0  0  0  0  0  0  0  0  0  0  0
   37.7790   32.0130   39.6020 C   0  0  0  0  0  0  0  0  0  0  0  0
   37.4930   31.3500   38.3780 C   0  0  0  0  0  0  0  0  0  0  0  0
   36.5190   30.3720   38.3550 C   0  0  0  0  0  0  0  0  0  0  0  0
   35.8830   30.1080   39.5470 N   0  0  0  0  0  0  0  0  0  0  0  0
   36.2010   30.7790   40.6940 C   0  0  0  0  0  0  0  0  0  0  0  0
   37.1400   31.7210   40.7160 N   0  0  0  0  0  0  0  0  0  0  0  0
   38.0380   31.6130   37.4750 H   0  0  0  0  0  0  0  0  0  0  0  0
   35.6500   30.5040   41.5840 H   0  0  0  0  0  0  0  0  0  0  0  0
   38.8450   33.0570   39.6000 C   0  0  0  0  0  0  0  0  0  0  0  0
   38.2600   34.4670   40.0000 C   0  0  0  0  0  0  0  0  0  0  0  0
   39.3250   33.7560   40.7220 C   0  0  0  0  0  0  0  0  0  0  0  0
   39.3760   33.0860   38.6120 H   0  0  0  0  0  0  0  0  0  0  0  0
   38.4880   35.2790   39.2800 H   0  0  0  0  0  0  0  0  0  0  0  0
   37.2320   34.4990   40.3560 H   0  0  0  0  0  0  0  0  0  0  0  0
   39.0220   33.3990   41.7500 H   0  0  0  0  0  0  0  0  0  0  0  0
   40.3620   34.1390   40.7480 H   0  0  0  0  0  0  0  0  0  0  0  0
  1 26  1  0  0  0  0
  1  6  1  0  0  0  0
  2  1  1  0  0  0  0
  3  1  1  0  0  0  0
  4  8  1  0  0  0  0
  5  4  2  0  0  0  0
  6  4  1  0  0  0  0
  6  7  1  0  0  0  0
  8  9  2  0  0  0  0
  8 13  1  0  0  0  0
  9 10  1  0  0  0  0
 10 15  1  0  0  0  0
 10 11  2  0  0  0  0
 11 16  1  0  0  0  0
 12 11  1  0  0  0  0
 13 12  2  0  0  0  0
 14  9  1  0  0  0  0
 17 18  1  0  0  0  0
 17 22  1  1  0  0  0
 18 12  1  6  0  0  0
 18 19  1  0  0  0  0
 20 19  1  0  0  0  0
 21 24  1  6  0  0  0
 21 20  1  0  0  0  0
 21 17  1  0  0  0  0
 22 23  1  0  0  0  0
 25 24  1  0  0  0  0
 26 27  1  0  0  0  0
 26 31  1  0  0  0  0
 28 26  1  0  0  0  0
 29 34  1  0  0  0  0
 30 29  2  0  0  0  0
 31 30  1  0  0  0  0
 31 32  2  0  0  0  0
 32 33  1  0  0  0  0
 33 34  2  0  0  0  0
 33 36  1  0  0  0  0
 35 30  1  0  0  0  0
 37 29  1  0  0  0  0
 37 38  1  0  0  0  0
 37 39  1  0  0  0  0
 38 42  1  0  0  0  0
 38 39  1  0  0  0  0
 39 44  1  0  0  0  0
 39 43  1  0  0  0  0
 40 37  1  0  0  0  0
 41 38  1  0  0  0  0
M  END
>  <minimizedAffinity>
-6.2066412

$$$$

 OpenBabel03242520233D

 44 47  0  0  1  0  0  0  0  0999 V2000
   38.4530   28.5240   37.4550 C   0  0  0  0  0  0  0  0  0  0  0  0
   39.2750   28.1090   36.8330 H   0  0  0  0  0  0  0  0  0  0  0  0
   37.6910   28.8690   36.7120 H   0  0  0  0  0  0  0  0  0  0  0  0
   38.3230   30.8890   38.0350 C   0  0  0  0  0  0  0  0  0  0  0  0
   37.3690   31.1080   37.2240 O   0  0  0  0  0  0  0  0  0  0  0  0
   38.8830   29.6210   38.2950 N   0  0  0  0  0  0  0  0  0  0  0  0
   39.5700   29.4140   39.0320 H   0  0  0  0  0  0  0  0  0  0  0  0
   38.9110   32.0310   38.7750 C   0  0  0  0  0  0  0  0  0  0  0  0
   38.2470   32.5030   39.9050 C   0  0  0  0  0  0  0  0  0  0  0  0
   38.6910   33.5560   40.6770 C   0  0  0  0  0  0  0  0  0  0  0  0
   39.8840   34.1690   40.2730 C   0  0  0  0  0  0  0  0  0  0  0  0
   40.4910   33.6600   39.1520 C   0  0  0  0  0  0  0  0  0  0  0  0
   40.0580   32.6400   38.4100 N   0  0  0  0  0  0  0  0  0  0  0  0
   37.3260   32.0220   40.2080 H   0  0  0  0  0  0  0  0  0  0  0  0
   38.1300   33.8770   41.5450 H   0  0  0  0  0  0  0  0  0  0  0  0
   40.2520   34.9870   40.8500 H   0  0  0  0  0  0  0  0  0  0  0  0
   42.3130   33.6260   37.4620 C   0  0  2  0  0  3  0  0  0  0  0  0
   41.7610   34.2970   38.7090 C   0  0  2  0  0  3  0  0  0  0  0  0
   42.8020   34.1170   39.6080 O   0  0  0  0  0  0  0  0  0  0  0  0
   43.2630   32.8320   39.4580 C   0  0  0  0  0  2  0  0  0  0  0  0
   43.3850   32.6820   37.9650 C   0  0  1  0  0  3  0  0  0  0  0  0
   42.8860   34.5180   36.5730 O   0  0  0  0  0  0  0  0  0  0  0  0
   43.8710   34.5870   36.6870 H   0  0  0  0  0  0  0  0  0  0  0  0
   43.1340   31.3520   37.5770 O   0  0  0  0  0  0  0  0  0  0  0  0
   43.4310   30.7670   38.3220 H   0  0  0  0  0  0  0  0  0  0  0  0
   37.9200   27.3450   38.2630 C   0  0  0  0  0  0  0  0  0  0  0  0
   38.1370   26.4510   37.6430 H   0  0  0  0  0  0  0  0  0  0  0  0
   36.8390   27.4160   38.4670 H   0  0  0  0  0  0  0  0  0  0  0  0
   38.6290   27.1240   41.9790 C   0  0  0  0  0  0  0  0  0  0  0  0
   37.9150   27.1940   40.7520 C   0  0  0  0  0  0  0  0  0  0  0  0
   38.6210   27.2790   39.5680 C   0  0  0  0  0  0  0  0  0  0  0  0
   39.9930   27.2900   39.6690 N   0  0  0  0  0  0  0  0  0  0  0  0
   40.6260   27.2210   40.8790 C   0  0  0  0  0  0  0  0  0  0  0  0
   39.9450   27.1390   42.0180 N   0  0  0  0  0  0  0  0  0  0  0  0
   36.8280   27.1810   40.7510 H   0  0  0  0  0  0  0  0  0  0  0  0
   41.7080   27.2370   40.8610 H   0  0  0  0  0  0  0  0  0  0  0  0
   37.8400   27.0440   43.2440 C   0  0  0  0  0  0  0  0  0  0  0  0
   37.4780   28.4840   43.7780 C   0  0  0  0  0  0  0  0  0  0  0  0
   36.5030   27.4440   43.4150 C   0  0  0  0  0  0  0  0  0  0  0  0
   38.3800   26.4320   44.0140 H   0  0  0  0  0  0  0  0  0  0  0  0
   37.7660   28.6670   44.8330 H   0  0  0  0  0  0  0  0  0  0  0  0
   37.7010   29.3280   43.1300 H   0  0  0  0  0  0  0  0  0  0  0  0
   35.8920   27.6900   42.4980 H   0  0  0  0  0  0  0  0  0  0  0  0
   35.8630   26.9600   44.1750 H   0  0  0  0  0  0  0  0  0  0  0  0
  1 26  1  0  0  0  0
  1  6  1  0  0  0  0
  2  1  1  0  0  0  0
  3  1  1  0  0  0  0
  4  6  1  0  0  0  0
  4  8  1  0  0  0  0
  5  4  2  0  0  0  0
  6  7  1  0  0  0  0
  8  9  1  0  0  0  0
  9 14  1  0  0  0  0
  9 10  2  0  0  0  0
 10 15  1  0  0  0  0
 11 10  1  0  0  0  0
 11 16  1  0  0  0  0
 12 11  2  0  0  0  0
 13  8  2  0  0  0  0
 13 12  1  0  0  0  0
 17 22  1  6  0  0  0
 17 21  1  0  0  0  0
 17 18  1  0  0  0  0
 18 12  1  1  0  0  0
 18 19  1  0  0  0  0
 20 19  1  0  0  0  0
 21 24  1  1  0  0  0
 21 20  1  0  0  0  0
 22 23  1  0  0  0  0
 24 25  1  0  0  0  0
 26 28  1  0  0  0  0
 26 31  1  0  0  0  0
 27 26  1  0  0  0  0
 29 34  1  0  0  0  0
 29 37  1  0  0  0  0
 30 29  2  0  0  0  0
 31 32  2  0  0  0  0
 31 30  1  0  0  0  0
 32 33  1  0  0  0  0
 33 34  2  0  0  0  0
 35 30  1  0  0  0  0
 36 33  1  0  0  0  0
 37 39  1  0  0  0  0
 37 38  1  0  0  0  0
 37 40  1  0  0  0  0
 38 41  1  0  0  0  0
 39 38  1  0  0  0  0
 39 44  1  0  0  0  0
 42 38  1  0  0  0  0
 43 39  1  0  0  0  0
M  END
>  <minimizedAffinity>
-5.88187313

$$$$

 OpenBabel03242520233D

 44 47  0  0  1  0  0  0  0  0999 V2000
   36.7850   25.3540   39.9420 C   0  0  0  0  0  0  0  0  0  0  0  0
   37.7190   25.1200   39.3890 H   0  0  0  0  0  0  0  0  0  0  0  0
   35.9760   24.8780   39.3330 H   0  0  0  0  0  0  0  0  0  0  0  0
   37.4600   27.6400   39.4290 C   0  0  0  0  0  0  0  0  0  0  0  0
   38.3670   27.2660   38.6210 O   0  0  0  0  0  0  0  0  0  0  0  0
   36.5530   26.7760   40.0780 N   0  0  0  0  0  0  0  0  0  0  0  0
   35.7430   27.0740   40.6370 H   0  0  0  0  0  0  0  0  0  0  0  0
   37.3210   29.0850   39.7320 C   0  0  0  0  0  0  0  0  0  0  0  0
   36.4360   29.4700   40.7370 C   0  0  0  0  0  0  0  0  0  0  0  0
   36.2190   30.7800   41.1120 C   0  0  0  0  0  0  0  0  0  0  0  0
   36.9460   31.7580   40.4210 C   0  0  0  0  0  0  0  0  0  0  0  0
   37.8000   31.3150   39.4420 C   0  0  0  0  0  0  0  0  0  0  0  0
   38.0070   30.0480   39.0840 N   0  0  0  0  0  0  0  0  0  0  0  0
   35.8810   28.7070   41.2650 H   0  0  0  0  0  0  0  0  0  0  0  0
   35.5170   31.0170   41.9010 H   0  0  0  0  0  0  0  0  0  0  0  0
   36.7980   32.7800   40.6880 H   0  0  0  0  0  0  0  0  0  0  0  0
   39.7080   31.7070   37.8970 C   0  0  2  0  0  3  0  0  0  0  0  0
   38.5820   32.3400   38.6970 C   0  0  2  0  0  3  0  0  0  0  0  0
   39.2800   33.2020   39.5310 O   0  0  0  0  0  0  0  0  0  0  0  0
   40.3870   32.5290   39.9900 C   0  0  0  0  0  2  0  0  0  0  0  0
   40.9490   31.8980   38.7440 C   0  0  1  0  0  3  0  0  0  0  0  0
   39.9090   32.3100   36.6690 O   0  0  0  0  0  0  0  0  0  0  0  0
   40.6290   32.9950   36.6960 H   0  0  0  0  0  0  0  0  0  0  0  0
   41.5710   30.6720   39.0450 O   0  0  0  0  0  0  0  0  0  0  0  0
   41.9350   30.7450   39.9650 H   0  0  0  0  0  0  0  0  0  0  0  0
   36.9250   24.6550   41.2910 C   0  0  0  0  0  0  0  0  0  0  0  0
   37.2290   23.6170   41.0450 H   0  0  0  0  0  0  0  0  0  0  0  0
   35.9890   24.6530   41.8740 H   0  0  0  0  0  0  0  0  0  0  0  0
   40.2130   25.5640   42.9410 C   0  0  0  0  0  0  0  0  0  0  0  0
   39.2530   24.8670   42.1580 C   0  0  0  0  0  0  0  0  0  0  0  0
   37.9580   25.3430   42.1020 C   0  0  0  0  0  0  0  0  0  0  0  0
   37.6890   26.4820   42.8260 N   0  0  0  0  0  0  0  0  0  0  0  0
   38.6540   27.1100   43.5620 C   0  0  0  0  0  0  0  0  0  0  0  0
   39.9010   26.6510   43.6160 N   0  0  0  0  0  0  0  0  0  0  0  0
   39.5410   23.9720   41.6120 H   0  0  0  0  0  0  0  0  0  0  0  0
   38.3510   27.9990   44.1000 H   0  0  0  0  0  0  0  0  0  0  0  0
   41.6020   25.0210   42.9920 C   0  0  0  0  0  0  0  0  0  0  0  0
   42.5330   25.7430   41.9420 C   0  0  0  0  0  0  0  0  0  0  0  0
   42.7530   25.7210   43.3960 C   0  0  0  0  0  0  0  0  0  0  0  0
   41.6020   23.9060   42.8590 H   0  0  0  0  0  0  0  0  0  0  0  0
   43.0760   25.0550   41.2620 H   0  0  0  0  0  0  0  0  0  0  0  0
   42.1250   26.6080   41.4250 H   0  0  0  0  0  0  0  0  0  0  0  0
   42.6260   26.7270   43.8930 H   0  0  0  0  0  0  0  0  0  0  0  0
   43.6110   25.1860   43.8440 H   0  0  0  0  0  0  0  0  0  0  0  0
  1  6  1  0  0  0  0
  1 26  1  0  0  0  0
  2  1  1  0  0  0  0
  3  1  1  0  0  0  0
  4  8  1  0  0  0  0
  4  6  1  0  0  0  0
  5  4  2  0  0  0  0
  6  7  1  0  0  0  0
  8  9  1  0  0  0  0
  9 10  2  0  0  0  0
  9 14  1  0  0  0  0
 10 15  1  0  0  0  0
 11 16  1  0  0  0  0
 11 10  1  0  0  0  0
 12 11  2  0  0  0  0
 13 12  1  0  0  0  0
 13  8  2  0  0  0  0
 17 22  1  6  0  0  0
 17 18  1  0  0  0  0
 17 21  1  0  0  0  0
 18 12  1  1  0  0  0
 18 19  1  0  0  0  0
 19 20  1  0  0  0  0
 21 24  1  1  0  0  0
 21 20  1  0  0  0  0
 22 23  1  0  0  0  0
 24 25  1  0  0  0  0
 26 28  1  0  0  0  0
 26 31  1  0  0  0  0
 27 26  1  0  0  0  0
 29 37  1  0  0  0  0
 29 34  1  0  0  0  0
 30 29  2  0  0  0  0
 31 30  1  0  0  0  0
 31 32  2  0  0  0  0
 32 33  1  0  0  0  0
 33 34  2  0  0  0  0
 33 36  1  0  0  0  0
 35 30  1  0  0  0  0
 37 39  1  0  0  0  0
 38 37  1  0  0  0  0
 38 39  1  0  0  0  0
 39 44  1  0  0  0  0
 39 43  1  0  0  0  0
 40 37  1  0  0  0  0
 41 38  1  0  0  0  0
 42 38  1  0  0  0  0
M  END
>  <minimizedAffinity>
-5.80171347

$$$$

 OpenBabel03242520233D

 44 47  0  0  1  0  0  0  0  0999 V2000
   36.7560   25.1370   40.3820 C   0  0  0  0  0  0  0  0  0  0  0  0
   37.5780   24.6320   39.8310 H   0  0  0  0  0  0  0  0  0  0  0  0
   35.8460   24.5350   40.1350 H   0  0  0  0  0  0  0  0  0  0  0  0
   37.5480   27.0670   39.1220 C   0  0  0  0  0  0  0  0  0  0  0  0
   38.4710   26.4060   38.5520 O   0  0  0  0  0  0  0  0  0  0  0  0
   36.5790   26.5180   39.9860 N   0  0  0  0  0  0  0  0  0  0  0  0
   35.7600   27.0180   40.3580 H   0  0  0  0  0  0  0  0  0  0  0  0
   37.4580   28.5270   38.8790 C   0  0  0  0  0  0  0  0  0  0  0  0
   36.9810   28.9670   37.6460 C   0  0  0  0  0  0  0  0  0  0  0  0
   36.8500   30.2950   37.2990 C   0  0  0  0  0  0  0  0  0  0  0  0
   37.2310   31.2350   38.2650 C   0  0  0  0  0  0  0  0  0  0  0  0
   37.6950   30.7400   39.4590 C   0  0  0  0  0  0  0  0  0  0  0  0
   37.8170   29.4550   39.7900 N   0  0  0  0  0  0  0  0  0  0  0  0
   36.6890   28.2320   36.9070 H   0  0  0  0  0  0  0  0  0  0  0  0
   36.4720   30.5750   36.3240 H   0  0  0  0  0  0  0  0  0  0  0  0
   37.1420   32.2710   38.0250 H   0  0  0  0  0  0  0  0  0  0  0  0
   38.4050   33.0830   39.8900 C   0  0  2  0  0  3  0  0  0  0  0  0
   38.1020   31.7240   40.4990 C   0  0  2  0  0  3  0  0  0  0  0  0
   39.3130   31.4100   41.0990 O   0  0  0  0  0  0  0  0  0  0  0  0
   40.3130   31.7540   40.2220 C   0  0  0  0  0  2  0  0  0  0  0  0
   39.9130   33.1320   39.7670 C   0  0  1  0  0  3  0  0  0  0  0  0
   37.9870   34.1390   40.6800 O   0  0  0  0  0  0  0  0  0  0  0  0
   38.7160   34.4950   41.2540 H   0  0  0  0  0  0  0  0  0  0  0  0
   40.3230   33.3550   38.4390 O   0  0  0  0  0  0  0  0  0  0  0  0
   41.1540   32.8320   38.2950 H   0  0  0  0  0  0  0  0  0  0  0  0
   37.1090   24.9950   41.8600 C   0  0  0  0  0  0  0  0  0  0  0  0
   37.8790   24.1970   41.8950 H   0  0  0  0  0  0  0  0  0  0  0  0
   36.2440   24.7200   42.4850 H   0  0  0  0  0  0  0  0  0  0  0  0
   39.4670   27.7620   42.9300 C   0  0  0  0  0  0  0  0  0  0  0  0
   39.0010   26.5100   42.4430 C   0  0  0  0  0  0  0  0  0  0  0  0
   37.6420   26.2810   42.3690 C   0  0  0  0  0  0  0  0  0  0  0  0
   36.8220   27.3070   42.7820 N   0  0  0  0  0  0  0  0  0  0  0  0
   37.3270   28.4900   43.2420 C   0  0  0  0  0  0  0  0  0  0  0  0
   38.6370   28.7100   43.3130 N   0  0  0  0  0  0  0  0  0  0  0  0
   39.7110   25.7460   42.1350 H   0  0  0  0  0  0  0  0  0  0  0  0
   36.6070   29.2390   43.5460 H   0  0  0  0  0  0  0  0  0  0  0  0
   40.9420   27.9770   43.0100 C   0  0  0  0  0  0  0  0  0  0  0  0
   41.5210   28.4570   41.6230 C   0  0  0  0  0  0  0  0  0  0  0  0
   41.6090   29.2080   42.8840 C   0  0  0  0  0  0  0  0  0  0  0  0
   41.4610   27.0570   43.3880 H   0  0  0  0  0  0  0  0  0  0  0  0
   42.3710   27.8510   41.2470 H   0  0  0  0  0  0  0  0  0  0  0  0
   40.8060   28.7050   40.8420 H   0  0  0  0  0  0  0  0  0  0  0  0
   40.9970   30.1570   42.8940 H   0  0  0  0  0  0  0  0  0  0  0  0
   42.5780   29.3800   43.3890 H   0  0  0  0  0  0  0  0  0  0  0  0
  1 26  1  0  0  0  0
  2  1  1  0  0  0  0
  3  1  1  0  0  0  0
  4  6  1  0  0  0  0
  5  4  2  0  0  0  0
  6  7  1  0  0  0  0
  6  1  1  0  0  0  0
  8  4  1  0  0  0  0
  8 13  1  0  0  0  0
  9  8  2  0  0  0  0
 10  9  1  0  0  0  0
 10 11  2  0  0  0  0
 11 12  1  0  0  0  0
 12 13  2  0  0  0  0
 14  9  1  0  0  0  0
 15 10  1  0  0  0  0
 16 11  1  0  0  0  0
 17 18  1  0  0  0  0
 17 22  1  1  0  0  0
 18 12  1  6  0  0  0
 18 19  1  0  0  0  0
 20 19  1  0  0  0  0
 21 24  1  6  0  0  0
 21 17  1  0  0  0  0
 21 20  1  0  0  0  0
 22 23  1  0  0  0  0
 25 24  1  0  0  0  0
 26 27  1  0  0  0  0
 26 31  1  0  0  0  0
 26 28  1  0  0  0  0
 29 37  1  0  0  0  0
 29 34  1  0  0  0  0
 30 29  2  0  0  0  0
 31 30  1  0  0  0  0
 31 32  2  0  0  0  0
 32 33  1  0  0  0  0
 33 34  2  0  0  0  0
 33 36  1  0  0  0  0
 35 30  1  0  0  0  0
 37 40  1  0  0  0  0
 38 39  1  0  0  0  0
 38 37  1  0  0  0  0
 39 43  1  0  0  0  0
 39 37  1  0  0  0  0
 39 44  1  0  0  0  0
 41 38  1  0  0  0  0
 42 38  1  0  0  0  0
M  END
>  <minimizedAffinity>
-5.75762844

$$$$

 OpenBabel03242520233D

 44 47  0  0  1  0  0  0  0  0999 V2000
   40.3900   27.3890   43.7170 C   0  0  0  0  0  0  0  0  0  0  0  0
   39.6940   27.0810   44.5260 H   0  0  0  0  0  0  0  0  0  0  0  0
   41.1440   28.0340   44.2320 H   0  0  0  0  0  0  0  0  0  0  0  0
   38.3520   28.3740   42.8100 C   0  0  0  0  0  0  0  0  0  0  0  0
   37.6850   28.1410   43.8670 O   0  0  0  0  0  0  0  0  0  0  0  0
   39.7310   28.1200   42.6560 N   0  0  0  0  0  0  0  0  0  0  0  0
   40.3040   28.4130   41.8530 H   0  0  0  0  0  0  0  0  0  0  0  0
   37.6560   28.9530   41.6370 C   0  0  0  0  0  0  0  0  0  0  0  0
   36.3480   28.5500   41.3760 C   0  0  0  0  0  0  0  0  0  0  0  0
   35.5940   29.0150   40.3180 C   0  0  0  0  0  0  0  0  0  0  0  0
   36.2110   29.9460   39.4710 C   0  0  0  0  0  0  0  0  0  0  0  0
   37.5000   30.3020   39.7800 C   0  0  0  0  0  0  0  0  0  0  0  0
   38.2230   29.8500   40.8050 N   0  0  0  0  0  0  0  0  0  0  0  0
   35.8810   27.8320   42.0360 H   0  0  0  0  0  0  0  0  0  0  0  0
   34.5820   28.6640   40.1670 H   0  0  0  0  0  0  0  0  0  0  0  0
   35.6530   30.3230   38.6440 H   0  0  0  0  0  0  0  0  0  0  0  0
   39.2930   32.0150   39.6170 C   0  0  2  0  0  3  0  0  0  0  0  0
   38.1710   31.2910   38.8930 C   0  0  2  0  0  3  0  0  0  0  0  0
   37.3450   32.3450   38.5310 O   0  0  0  0  0  0  0  0  0  0  0  0
   37.2640   33.1960   39.6060 C   0  0  0  0  0  2  0  0  0  0  0  0
   38.6980   33.3410   40.0410 C   0  0  1  0  0  3  0  0  0  0  0  0
   40.3930   32.2570   38.8140 O   0  0  0  0  0  0  0  0  0  0  0  0
   40.3790   33.1670   38.4150 H   0  0  0  0  0  0  0  0  0  0  0  0
   38.7780   33.5300   41.4330 O   0  0  0  0  0  0  0  0  0  0  0  0
   37.9560   34.0100   41.7130 H   0  0  0  0  0  0  0  0  0  0  0  0
   41.0350   26.0980   43.2210 C   0  0  0  0  0  0  0  0  0  0  0  0
   40.8730   25.3660   44.0380 H   0  0  0  0  0  0  0  0  0  0  0  0
   42.1120   26.2080   43.0130 H   0  0  0  0  0  0  0  0  0  0  0  0
   38.7600   24.3380   40.7550 C   0  0  0  0  0  0  0  0  0  0  0  0
   39.3700   24.7180   41.9810 C   0  0  0  0  0  0  0  0  0  0  0  0
   40.3760   25.6630   41.9660 C   0  0  0  0  0  0  0  0  0  0  0  0
   40.7190   26.1780   40.7370 N   0  0  0  0  0  0  0  0  0  0  0  0
   40.0970   25.7730   39.5890 C   0  0  0  0  0  0  0  0  0  0  0  0
   39.1290   24.8620   39.6050 N   0  0  0  0  0  0  0  0  0  0  0  0
   39.0450   24.2660   42.9150 H   0  0  0  0  0  0  0  0  0  0  0  0
   40.4340   26.2310   38.6690 H   0  0  0  0  0  0  0  0  0  0  0  0
   37.6840   23.3050   40.7990 C   0  0  0  0  0  0  0  0  0  0  0  0
   36.2570   23.9750   40.8630 C   0  0  0  0  0  0  0  0  0  0  0  0
   36.7200   23.0670   39.8030 C   0  0  0  0  0  0  0  0  0  0  0  0
   37.8510   22.5870   41.6460 H   0  0  0  0  0  0  0  0  0  0  0  0
   35.6190   23.6170   41.6970 H   0  0  0  0  0  0  0  0  0  0  0  0
   36.2050   25.0530   40.7290 H   0  0  0  0  0  0  0  0  0  0  0  0
   36.8480   23.5660   38.7980 H   0  0  0  0  0  0  0  0  0  0  0  0
   36.2810   22.0610   39.6700 H   0  0  0  0  0  0  0  0  0  0  0  0
  1  3  1  0  0  0  0
  1  2  1  0  0  0  0
  4  5  2  0  0  0  0
  6  4  1  0  0  0  0
  6  1  1  0  0  0  0
  7  6  1  0  0  0  0
  8  4  1  0  0  0  0
  9  8  1  0  0  0  0
  9 14  1  0  0  0  0
 10  9  2  0  0  0  0
 11 12  2  0  0  0  0
 11 10  1  0  0  0  0
 12 13  1  0  0  0  0
 13  8  2  0  0  0  0
 15 10  1  0  0  0  0
 16 11  1  0  0  0  0
 17 22  1  6  0  0  0
 17 21  1  0  0  0  0
 18 17  1  0  0  0  0
 18 12  1  1  0  0  0
 19 18  1  0  0  0  0
 19 20  1  0  0  0  0
 20 21  1  0  0  0  0
 21 24  1  1  0  0  0
 23 22  1  0  0  0  0
 24 25  1  0  0  0  0
 26  1  1  0  0  0  0
 26 27  1  0  0  0  0
 28 26  1  0  0  0  0
 29 37  1  0  0  0  0
 29 30  1  0  0  0  0
 30 35  1  0  0  0  0
 31 30  2  0  0  0  0
 31 26  1  0  0  0  0
 32 31  1  0  0  0  0
 33 34  1  0  0  0  0
 33 32  2  0  0  0  0
 34 29  2  0  0  0  0
 36 33  1  0  0  0  0
 37 38  1  0  0  0  0
 37 40  1  0  0  0  0
 38 41  1  0  0  0  0
 39 37  1  0  0  0  0
 39 38  1  0  0  0  0
 42 38  1  0  0  0  0
 43 39  1  0  0  0  0
 44 39  1  0  0  0  0
M  END
>  <minimizedAffinity>
-5.66145563

$$$$
