
     RDKit          3D

 32 34  0  0  0  0  0  0  0  0999 V2000
   46.0712   34.7592   43.3891 C   0  0  0  0  0  0  0  0  0  0  0  0
   45.1721   35.7838   43.7812 C   0  0  0  0  0  0  0  0  0  0  0  0
   44.5714   35.6510   45.0443 C   0  0  0  0  0  0  0  0  0  0  0  0
   44.8833   34.5629   45.8062 N   0  0  0  0  0  0  0  0  0  0  0  0
   45.7584   33.6199   45.3567 C   0  0  0  0  0  0  0  0  0  0  0  0
   46.3569   33.6908   44.1730 N   0  0  0  0  0  0  0  0  0  0  0  0
   46.6580   34.9563   42.0955 C   0  0  0  0  0  0  0  0  0  0  0  0
   47.8265   35.4058   41.8849 O   0  0  0  0  0  0  0  0  0  0  0  0
   46.0641   32.4610   46.2522 C   0  0  1  0  0  0  0  0  0  0  0  0
   46.9959   32.6305   47.4101 C   0  0  0  0  0  0  0  0  0  0  0  0
   45.5251   32.6069   47.6388 C   0  0  2  0  0  0  0  0  0  0  0  0
   44.9549   36.6210   43.1536 H   0  0  0  0  0  0  0  0  0  0  0  0
   43.8864   36.3899   45.3938 H   0  0  0  0  0  0  0  0  0  0  0  0
   46.1213   34.7251   41.1636 H   0  0  0  0  0  0  0  0  0  0  0  0
   46.0164   31.5025   45.7372 H   0  0  0  0  0  0  0  0  0  0  0  0
   47.5770   33.5779   47.3886 H   0  0  0  0  0  0  0  0  0  0  0  0
   47.6012   31.7321   47.6571 H   0  0  0  0  0  0  0  0  0  0  0  0
   45.1301   33.6111   47.9640 H   0  0  0  0  0  0  0  0  0  0  0  0
   46.5713   31.5254   50.0935 O   0  0  0  0  0  0  0  0  0  0  0  0
   45.9433   30.6757   49.2147 C   0  0  2  0  0  0  0  0  0  0  0  0
   44.9653   31.4524   48.3876 C   0  0  1  0  0  0  0  0  0  0  0  0
   44.0243   31.8189   49.3454 O   0  0  0  0  0  0  0  0  0  0  0  0
   43.7783   30.6897   50.0883 C   0  0  0  0  0  0  0  0  0  0  0  0
   44.9696   29.7666   49.9760 C   0  0  2  0  0  0  0  0  0  0  0  0
   45.5312   29.4465   51.1979 O   0  0  0  0  0  0  0  0  0  0  0  0
   46.1331   31.5191   50.9828 H   0  0  0  0  0  0  0  0  0  0  0  0
   46.6497   30.0750   48.6196 H   0  0  0  0  0  0  0  0  0  0  0  0
   44.5139   30.7407   47.6706 H   0  0  0  0  0  0  0  0  0  0  0  0
   42.8207   30.2303   49.8034 H   0  0  0  0  0  0  0  0  0  0  0  0
   43.7178   30.9694   51.1771 H   0  0  0  0  0  0  0  0  0  0  0  0
   44.6767   28.8985   49.3761 H   0  0  0  0  0  0  0  0  0  0  0  0
   45.3129   28.4961   51.3684 H   0  0  0  0  0  0  0  0  0  0  0  0
  1  2  2  0
  1  6  1  0
  2  3  1  0
  3  4  2  0
  5  4  1  0
  5  9  1  0
  6  5  2  0
  7  1  1  0
  8  7  2  0
  9 10  1  0
  9 11  1  0
 10 11  1  0
  2 12  1  0
  3 13  1  0
  7 14  1  0
  9 15  1  6
 10 16  1  0
 10 17  1  0
 11 18  1  6
 19 20  1  0
 20 21  1  0
 21 22  1  0
 22 23  1  0
 23 24  1  0
 24 25  1  0
 24 20  1  0
 19 26  1  0
 20 27  1  6
 21 28  1  6
 23 29  1  0
 23 30  1  0
 24 31  1  6
 25 32  1  0
 11 21  1  0
M  ISO  7  12  14  13  14  14   6  15  13  16  13  17  13  18  13
M  END
>  <DihAtoms>  (1) 
8,10,20,19

>  <DihDeg>  (1) 
-60.26054325830561

$$$$
