
 OpenBabel03252507573D

 27 29  0  0  1  0  0  0  0  0999 V2000
   46.4240   32.6590   45.7580 C   0  0  1  0  0  0  0  0  0  0  0  0
   47.1180   32.9800   47.0440 C   0  0  0  0  0  0  0  0  0  0  0  0
   45.6430   32.7820   47.0270 C   0  0  2  0  0  0  0  0  0  0  0  0
   46.5770   31.6860   45.2940 H   0  0  0  0  0  0  0  0  0  0  0  0
   47.5800   33.9910   47.0690 H   0  0  0  0  0  0  0  0  0  0  0  0
   47.7730   32.1720   47.4350 H   0  0  0  0  0  0  0  0  0  0  0  0
   45.0840   33.7390   47.2280 H   0  0  0  0  0  0  0  0  0  0  0  0
   46.6700   34.8640   42.8340 C   0  0  0  0  0  0  0  0  0  0  0  0
   45.5840   35.7610   42.9990 C   0  0  0  0  0  0  0  0  0  0  0  0
   44.7760   35.5760   44.1340 C   0  0  0  0  0  0  0  0  0  0  0  0
   45.0790   34.5610   44.9950 N   0  0  0  0  0  0  0  0  0  0  0  0
   46.1420   33.7410   44.7640 C   0  0  0  0  0  0  0  0  0  0  0  0
   46.9420   33.8670   43.7100 N   0  0  0  0  0  0  0  0  0  0  0  0
   45.3800   36.5440   42.3020 H   0  0  0  0  0  0  0  0  0  0  0  0
   43.9440   36.2190   44.3120 H   0  0  0  0  0  0  0  0  0  0  0  0
   47.4620   35.1110   41.6640 C   0  0  0  0  0  0  0  0  0  0  0  0
   48.5660   35.7380   41.6480 O   0  0  0  0  0  0  0  0  0  0  0  0
   47.1600   34.7640   40.6650 H   0  0  0  0  0  0  0  0  0  0  0  0
   45.5120   30.2630   47.1770 C   0  0  2  0  0  3  0  0  0  0  0  0
   45.1020   31.5920   47.7330 C   0  0  1  0  0  3  0  0  0  0  0  0
   45.5370   31.4860   49.0500 O   0  0  0  0  0  0  0  0  0  0  0  0
   45.1420   30.2430   49.4830 C   0  0  0  0  0  2  0  0  0  0  0  0
   44.9660   29.3460   48.2800 C   0  0  2  0  0  3  0  0  0  0  0  0
   46.8840   30.1860   47.1450 O   0  0  0  0  0  0  0  0  0  0  0  0
   47.2430   29.7270   47.9470 H   0  0  0  0  0  0  0  0  0  0  0  0
   45.7450   28.2050   48.3290 O   0  0  0  0  0  0  0  0  0  0  0  0
   45.1280   27.4480   48.4880 H   0  0  0  0  0  0  0  0  0  0  0  0
  1  4  1  6  0  0  0
  1  3  1  0  0  0  0
  1  2  1  0  0  0  0
  2  5  1  0  0  0  0
  2  6  1  0  0  0  0
  3  2  1  0  0  0  0
  3  7  1  1  0  0  0
  3 20  1  0  0  0  0
  8  9  2  0  0  0  0
  8 13  1  0  0  0  0
  9 10  1  0  0  0  0
 10 15  1  0  0  0  0
 10 11  2  0  0  0  0
 12 11  1  0  0  0  0
 12  1  1  0  0  0  0
 13 12  2  0  0  0  0
 14  9  1  0  0  0  0
 16  8  1  0  0  0  0
 17 16  2  0  0  0  0
 18 16  1  0  0  0  0
 19 24  1  1  0  0  0
 19 20  1  0  0  0  0
 19 23  1  0  0  0  0
 20 21  1  1  0  0  0
 21 22  1  0  0  0  0
 23 26  1  1  0  0  0
 23 22  1  0  0  0  0
 24 25  1  0  0  0  0
 26 27  1  0  0  0  0
M  END
>  <minimizedAffinity>
-4.68778229

>  <minimizedRMSD>
1.32205784

$$$$
