
     RDKit          3D

 29 30  0  0  0  0  0  0  0  0999 V2000
   44.5882   35.9918   44.5102 C   0  0  0  0  0  0  0  0  0  0  0  0
   45.2230   36.0049   43.2569 C   0  0  0  0  0  0  0  0  0  0  0  0
   46.0924   34.9598   42.9748 C   0  0  0  0  0  0  0  0  0  0  0  0
   46.2964   33.9750   43.9064 N   0  0  0  0  0  0  0  0  0  0  0  0
   45.6662   33.9981   45.1016 C   0  0  0  0  0  0  0  0  0  0  0  0
   44.8200   35.0012   45.3952 N   0  0  0  0  0  0  0  0  0  0  0  0
   46.7202   34.9783   41.7280 O   0  0  0  0  0  0  0  0  0  0  0  0
   48.6474   33.3268   40.9733 O   0  0  0  0  0  0  0  0  0  0  0  0
   48.4095   34.6814   41.6331 P   0  0  0  0  0  0  0  0  0  0  0  0
   49.1189   35.9265   40.7772 O   0  0  0  0  0  0  0  0  0  0  0  0
   48.9927   34.5971   43.2244 O   0  0  0  0  0  0  0  0  0  0  0  0
   43.9073   36.8048   44.7385 H   0  0  0  0  0  0  0  0  0  0  0  0
   44.9963   36.8220   42.5960 H   0  0  0  0  0  0  0  0  0  0  0  0
   48.7636   35.9270   39.8728 H   0  0  0  0  0  0  0  0  0  0  0  0
   48.7139   33.7239   43.5984 H   0  0  0  0  0  0  0  0  0  0  0  0
   44.0744   33.6805   47.2049 O   0  0  0  0  0  0  0  0  0  0  0  0
   45.3727   33.2166   47.4348 C   0  0  2  0  0  0  0  0  0  0  0  0
   45.9468   32.8895   46.0510 C   0  0  1  0  0  0  0  0  0  0  0  0
   45.3152   31.7105   45.6840 O   0  0  0  0  0  0  0  0  0  0  0  0
   45.0291   30.9994   46.8166 C   0  0  0  0  0  0  0  0  0  0  0  0
   45.3411   31.8259   48.0290 C   0  0  2  0  0  0  0  0  0  0  0  0
   44.3371   31.7636   48.9908 O   0  0  0  0  0  0  0  0  0  0  0  0
   43.7290   33.4082   46.2991 H   0  0  0  0  0  0  0  0  0  0  0  0
   45.9938   33.9211   47.9888 H   0  0  0  0  0  0  0  0  0  0  0  0
   47.0154   32.7257   46.1868 H   0  0  0  0  0  0  0  0  0  0  0  0
   43.9245   30.8060   46.8128 H   0  0  0  0  0  0  0  0  0  0  0  0
   45.5603   30.0308   46.8926 H   0  0  0  0  0  0  0  0  0  0  0  0
   46.3476   31.6221   48.4664 H   0  0  0  0  0  0  0  0  0  0  0  0
   43.5878   32.3822   48.7815 H   0  0  0  0  0  0  0  0  0  0  0  0
  1  6  2  0
  2  1  1  0
  3  2  2  0
  3  4  1  0
  4  5  2  0
  5  6  1  0
  7  3  1  0
  8  9  2  0
  9  7  1  0
  9 11  1  0
 10  9  1  0
  1 12  1  0
  2 13  1  0
 10 14  1  0
 11 15  1  0
 16 17  1  0
 17 18  1  0
 18 19  1  0
 19 20  1  0
 20 21  1  0
 21 22  1  0
 21 17  1  0
 16 23  1  0
 17 24  1  1
 18 25  1  1
 20 26  1  0
 20 27  1  0
 21 28  1  1
 22 29  1  0
  5 18  1  0
M  ISO  4  12  14  13  14  14   3  15   3
M  END
>  <DihAtoms>  (1) 
3,4,17,16

>  <DihDeg>  (1) 
-161.03818320251906

$$$$
