
 OpenBabel03252504453D

 21 22  0  0  1  0  0  0  0  0999 V2000
   37.1310   26.8040   41.4810 C   0  0  0  0  0  0  0  0  0  0  0  0
   36.9630   26.6410   42.8550 C   0  0  0  0  0  0  0  0  0  0  0  0
   37.1140   27.7820   43.6790 C   0  0  0  0  0  0  0  0  0  0  0  0
   37.4140   28.9620   43.0770 N   0  0  0  0  0  0  0  0  0  0  0  0
   37.5680   29.0650   41.7230 C   0  0  0  0  0  0  0  0  0  0  0  0
   37.4260   27.9840   40.9250 N   0  0  0  0  0  0  0  0  0  0  0  0
   36.7230   25.6920   43.3320 H   0  0  0  0  0  0  0  0  0  0  0  0
   36.9960   27.7210   44.7450 H   0  0  0  0  0  0  0  0  0  0  0  0
   36.6830   31.3140   41.1140 C   0  0  1  0  0  3  0  0  0  0  0  0
   37.8920   30.4080   41.2040 C   0  0  2  0  0  3  0  0  0  0  0  0
   38.3490   30.3070   39.8780 O   0  0  0  0  0  0  0  0  0  0  0  0
   38.3470   31.6450   39.4870 C   0  0  0  0  0  2  0  0  0  0  0  0
   36.9140   32.0790   39.8060 C   0  0  2  0  0  3  0  0  0  0  0  0
   35.4890   30.6150   41.0770 O   0  0  0  0  0  0  0  0  0  0  0  0
   34.8940   31.1340   40.4550 H   0  0  0  0  0  0  0  0  0  0  0  0
   36.9280   33.4450   39.9800 O   0  0  0  0  0  0  0  0  0  0  0  0
   36.1110   33.9080   39.6850 H   0  0  0  0  0  0  0  0  0  0  0  0
   36.9650   25.5730   40.6270 C   0  0  0  0  0  0  0  0  0  0  0  0
   37.9330   25.0250   40.6710 H   0  0  0  0  0  0  0  0  0  0  0  0
   36.2080   24.9040   41.0990 H   0  0  0  0  0  0  0  0  0  0  0  0
   36.6330   25.8200   39.5990 H   0  0  0  0  0  0  0  0  0  0  0  0
  1  2  1  0  0  0  0
  2  7  1  0  0  0  0
  2  3  2  0  0  0  0
  3  8  1  0  0  0  0
  4  3  1  0  0  0  0
  5  4  2  0  0  0  0
  6  1  2  0  0  0  0
  6  5  1  0  0  0  0
  9 14  1  6  0  0  0
  9 10  1  0  0  0  0
 10  5  1  6  0  0  0
 11 10  1  0  0  0  0
 12 13  1  0  0  0  0
 12 11  1  0  0  0  0
 13 16  1  1  0  0  0
 13  9  1  0  0  0  0
 15 14  1  0  0  0  0
 17 16  1  0  0  0  0
 18 19  1  0  0  0  0
 18 20  1  0  0  0  0
 18  1  1  0  0  0  0
 21 18  1  0  0  0  0
M  END
>  <minimizedAffinity>
-5.09076786

$$$$

 OpenBabel03252504453D

 21 22  0  0  1  0  0  0  0  0999 V2000
   36.9850   27.6990   42.2970 C   0  0  0  0  0  0  0  0  0  0  0  0
   37.0870   26.6840   41.3480 C   0  0  0  0  0  0  0  0  0  0  0  0
   37.5280   27.0340   40.0510 C   0  0  0  0  0  0  0  0  0  0  0  0
   37.8230   28.3390   39.8130 N   0  0  0  0  0  0  0  0  0  0  0  0
   37.7050   29.2950   40.7810 C   0  0  0  0  0  0  0  0  0  0  0  0
   37.2860   28.9750   42.0250 N   0  0  0  0  0  0  0  0  0  0  0  0
   36.8480   25.6400   41.5450 H   0  0  0  0  0  0  0  0  0  0  0  0
   37.6270   26.2960   39.2760 H   0  0  0  0  0  0  0  0  0  0  0  0
   36.9750   31.6770   40.7070 C   0  0  1  0  0  3  0  0  0  0  0  0
   38.0600   30.6720   40.3850 C   0  0  2  0  0  3  0  0  0  0  0  0
   38.1970   30.7440   38.9880 O   0  0  0  0  0  0  0  0  0  0  0  0
   38.2640   32.1230   38.7920 C   0  0  0  0  0  2  0  0  0  0  0  0
   36.9980   32.6180   39.4960 C   0  0  2  0  0  3  0  0  0  0  0  0
   35.7300   31.0940   40.8590 O   0  0  0  0  0  0  0  0  0  0  0  0
   35.0760   31.7510   40.4700 H   0  0  0  0  0  0  0  0  0  0  0  0
   37.2090   33.9330   39.8440 O   0  0  0  0  0  0  0  0  0  0  0  0
   36.4060   34.5020   39.8160 H   0  0  0  0  0  0  0  0  0  0  0  0
   36.5130   27.2990   43.6720 C   0  0  0  0  0  0  0  0  0  0  0  0
   35.4020   27.2480   43.6220 H   0  0  0  0  0  0  0  0  0  0  0  0
   36.8610   26.2620   43.8870 H   0  0  0  0  0  0  0  0  0  0  0  0
   36.8980   27.9770   44.4590 H   0  0  0  0  0  0  0  0  0  0  0  0
  1 18  1  0  0  0  0
  2  7  1  0  0  0  0
  2  1  2  0  0  0  0
  3  2  1  0  0  0  0
  4  3  2  0  0  0  0
  4  5  1  0  0  0  0
  5  6  2  0  0  0  0
  6  1  1  0  0  0  0
  8  3  1  0  0  0  0
  9 14  1  6  0  0  0
 10  9  1  0  0  0  0
 10  5  1  6  0  0  0
 11 10  1  0  0  0  0
 12 11  1  0  0  0  0
 12 13  1  0  0  0  0
 13 16  1  1  0  0  0
 13  9  1  0  0  0  0
 15 14  1  0  0  0  0
 17 16  1  0  0  0  0
 18 20  1  0  0  0  0
 18 21  1  0  0  0  0
 19 18  1  0  0  0  0
M  END
>  <minimizedAffinity>
-4.79128075

$$$$

 OpenBabel03252504453D

 21 22  0  0  1  0  0  0  0  0999 V2000
   39.1380   26.3490   42.6900 C   0  0  0  0  0  0  0  0  0  0  0  0
   38.2390   25.3270   42.3900 C   0  0  0  0  0  0  0  0  0  0  0  0
   37.2020   25.6080   41.4700 C   0  0  0  0  0  0  0  0  0  0  0  0
   37.1470   26.8580   40.9390 N   0  0  0  0  0  0  0  0  0  0  0  0
   38.0550   27.8240   41.2690 C   0  0  0  0  0  0  0  0  0  0  0  0
   39.0520   27.5690   42.1460 N   0  0  0  0  0  0  0  0  0  0  0  0
   38.2880   24.3280   42.8190 H   0  0  0  0  0  0  0  0  0  0  0  0
   36.4780   24.8620   41.1980 H   0  0  0  0  0  0  0  0  0  0  0  0
   37.3510   30.1970   41.5600 C   0  0  1  0  0  3  0  0  0  0  0  0
   37.8780   29.1360   40.6170 C   0  0  2  0  0  3  0  0  0  0  0  0
   36.8940   29.0410   39.6180 O   0  0  0  0  0  0  0  0  0  0  0  0
   36.6840   30.3850   39.3130 C   0  0  0  0  0  2  0  0  0  0  0  0
   36.3720   30.9890   40.6850 C   0  0  2  0  0  3  0  0  0  0  0  0
   36.7120   29.6650   42.6660 O   0  0  0  0  0  0  0  0  0  0  0  0
   35.9460   30.2880   42.8580 H   0  0  0  0  0  0  0  0  0  0  0  0
   36.6750   32.3300   40.6220 O   0  0  0  0  0  0  0  0  0  0  0  0
   36.0950   32.9110   41.1660 H   0  0  0  0  0  0  0  0  0  0  0  0
   40.2340   26.0230   43.6720 C   0  0  0  0  0  0  0  0  0  0  0  0
   39.7890   26.1290   44.6870 H   0  0  0  0  0  0  0  0  0  0  0  0
   40.5090   24.9480   43.5650 H   0  0  0  0  0  0  0  0  0  0  0  0
   41.1380   26.6420   43.5090 H   0  0  0  0  0  0  0  0  0  0  0  0
  1 18  1  0  0  0  0
  2  1  1  0  0  0  0
  2  7  1  0  0  0  0
  3  2  2  0  0  0  0
  4  5  2  0  0  0  0
  4  3  1  0  0  0  0
  5  6  1  0  0  0  0
  6  1  2  0  0  0  0
  8  3  1  0  0  0  0
  9 14  1  1  0  0  0
 10  5  1  1  0  0  0
 10  9  1  0  0  0  0
 11 10  1  0  0  0  0
 12 11  1  0  0  0  0
 12 13  1  0  0  0  0
 13 16  1  6  0  0  0
 13  9  1  0  0  0  0
 14 15  1  0  0  0  0
 16 17  1  0  0  0  0
 18 19  1  0  0  0  0
 20 18  1  0  0  0  0
 21 18  1  0  0  0  0
M  END
>  <minimizedAffinity>
-4.62956333

$$$$

 OpenBabel03252504453D

 21 22  0  0  1  0  0  0  0  0999 V2000
   38.8630   25.0910   41.7830 C   0  0  0  0  0  0  0  0  0  0  0  0
   39.5750   25.0290   42.9790 C   0  0  0  0  0  0  0  0  0  0  0  0
   39.8050   26.2390   43.6750 C   0  0  0  0  0  0  0  0  0  0  0  0
   39.3170   27.3850   43.1310 N   0  0  0  0  0  0  0  0  0  0  0  0
   38.6250   27.3880   41.9530 C   0  0  0  0  0  0  0  0  0  0  0  0
   38.3970   26.2400   41.2780 N   0  0  0  0  0  0  0  0  0  0  0  0
   39.9640   24.1070   43.4090 H   0  0  0  0  0  0  0  0  0  0  0  0
   40.3470   26.2570   44.6020 H   0  0  0  0  0  0  0  0  0  0  0  0
   36.8750   29.1510   42.1570 C   0  0  1  0  0  3  0  0  0  0  0  0
   38.1520   28.7030   41.4780 C   0  0  2  0  0  3  0  0  0  0  0  0
   37.8110   28.6220   40.1170 O   0  0  0  0  0  0  0  0  0  0  0  0
   37.1580   29.8390   39.9270 C   0  0  0  0  0  2  0  0  0  0  0  0
   36.0870   29.8130   41.0200 C   0  0  2  0  0  3  0  0  0  0  0  0
   36.1630   28.1010   42.7100 O   0  0  0  0  0  0  0  0  0  0  0  0
   35.1940   28.3310   42.5710 H   0  0  0  0  0  0  0  0  0  0  0  0
   35.7470   31.1180   41.2940 O   0  0  0  0  0  0  0  0  0  0  0  0
   34.8040   31.2560   41.5430 H   0  0  0  0  0  0  0  0  0  0  0  0
   38.6320   23.7870   41.0620 C   0  0  0  0  0  0  0  0  0  0  0  0
   39.5610   23.5760   40.4860 H   0  0  0  0  0  0  0  0  0  0  0  0
   38.5400   22.9690   41.8130 H   0  0  0  0  0  0  0  0  0  0  0  0
   37.7140   23.8100   40.4430 H   0  0  0  0  0  0  0  0  0  0  0  0
  1  2  1  0  0  0  0
  2  7  1  0  0  0  0
  2  3  2  0  0  0  0
  3  8  1  0  0  0  0
  4  3  1  0  0  0  0
  5  4  2  0  0  0  0
  6  1  2  0  0  0  0
  6  5  1  0  0  0  0
  9 14  1  6  0  0  0
 10  5  1  1  0  0  0
 10  9  1  0  0  0  0
 11 10  1  0  0  0  0
 12 11  1  0  0  0  0
 12 13  1  0  0  0  0
 13 16  1  1  0  0  0
 13  9  1  0  0  0  0
 15 14  1  0  0  0  0
 16 17  1  0  0  0  0
 18  1  1  0  0  0  0
 18 20  1  0  0  0  0
 19 18  1  0  0  0  0
 21 18  1  0  0  0  0
M  END
>  <minimizedAffinity>
-4.62698269

$$$$

 OpenBabel03252504453D

 21 22  0  0  1  0  0  0  0  0999 V2000
   41.0220   33.0160   38.5160 C   0  0  0  0  0  0  0  0  0  0  0  0
   41.1720   34.1100   39.3660 C   0  0  0  0  0  0  0  0  0  0  0  0
   40.3680   34.1580   40.5290 C   0  0  0  0  0  0  0  0  0  0  0  0
   39.4990   33.1340   40.7410 N   0  0  0  0  0  0  0  0  0  0  0  0
   39.3930   32.0850   39.8730 C   0  0  0  0  0  0  0  0  0  0  0  0
   40.1560   32.0260   38.7590 N   0  0  0  0  0  0  0  0  0  0  0  0
   41.8690   34.9270   39.1900 H   0  0  0  0  0  0  0  0  0  0  0  0
   40.4370   34.9750   41.2230 H   0  0  0  0  0  0  0  0  0  0  0  0
   36.9780   31.4840   40.0140 C   0  0  1  0  0  3  0  0  0  0  0  0
   38.4100   31.0420   40.2270 C   0  0  2  0  0  3  0  0  0  0  0  0
   38.4870   30.7650   41.6030 O   0  0  0  0  0  0  0  0  0  0  0  0
   37.3460   29.9850   41.7870 C   0  0  0  0  0  2  0  0  0  0  0  0
   36.2410   30.8760   41.2140 C   0  0  2  0  0  3  0  0  0  0  0  0
   36.8380   32.8600   39.9910 O   0  0  0  0  0  0  0  0  0  0  0  0
   35.9590   33.0490   40.4420 H   0  0  0  0  0  0  0  0  0  0  0  0
   35.2020   30.0540   40.8430 O   0  0  0  0  0  0  0  0  0  0  0  0
   34.3050   30.4460   40.9510 H   0  0  0  0  0  0  0  0  0  0  0  0
   41.8910   32.9900   37.2840 C   0  0  0  0  0  0  0  0  0  0  0  0
   41.3880   33.6340   36.5290 H   0  0  0  0  0  0  0  0  0  0  0  0
   42.8630   33.4850   37.5160 H   0  0  0  0  0  0  0  0  0  0  0  0
   42.0900   31.9570   36.9360 H   0  0  0  0  0  0  0  0  0  0  0  0
  1  6  2  0  0  0  0
  1  2  1  0  0  0  0
  2  3  2  0  0  0  0
  3  4  1  0  0  0  0
  3  8  1  0  0  0  0
  5  4  2  0  0  0  0
  6  5  1  0  0  0  0
  7  2  1  0  0  0  0
  9 14  1  1  0  0  0
  9 10  1  0  0  0  0
  9 13  1  0  0  0  0
 10  5  1  1  0  0  0
 10 11  1  0  0  0  0
 11 12  1  0  0  0  0
 13 16  1  6  0  0  0
 13 12  1  0  0  0  0
 14 15  1  0  0  0  0
 16 17  1  0  0  0  0
 18 20  1  0  0  0  0
 18  1  1  0  0  0  0
 19 18  1  0  0  0  0
 21 18  1  0  0  0  0
M  END
>  <minimizedAffinity>
-4.55044699

$$$$

 OpenBabel03252504453D

 21 22  0  0  1  0  0  0  0  0999 V2000
   39.6620   28.3410   42.8900 C   0  0  0  0  0  0  0  0  0  0  0  0
   38.5000   27.9250   43.5360 C   0  0  0  0  0  0  0  0  0  0  0  0
   37.2860   28.5620   43.1860 C   0  0  0  0  0  0  0  0  0  0  0  0
   37.3330   29.5400   42.2430 N   0  0  0  0  0  0  0  0  0  0  0  0
   38.5020   29.9090   41.6410 C   0  0  0  0  0  0  0  0  0  0  0  0
   39.6680   29.3080   41.9650 N   0  0  0  0  0  0  0  0  0  0  0  0
   38.4690   27.1420   44.2910 H   0  0  0  0  0  0  0  0  0  0  0  0
   36.3560   28.2870   43.6480 H   0  0  0  0  0  0  0  0  0  0  0  0
   39.4130   32.0930   40.8580 C   0  0  1  0  0  3  0  0  0  0  0  0
   38.4070   30.9830   40.6340 C   0  0  2  0  0  3  0  0  0  0  0  0
   37.1590   31.6210   40.7360 O   0  0  0  0  0  0  0  0  0  0  0  0
   37.3550   32.7350   39.9210 C   0  0  0  0  0  2  0  0  0  0  0  0
   38.6200   33.3590   40.5140 C   0  0  2  0  0  3  0  0  0  0  0  0
   39.8830   32.1380   42.1590 O   0  0  0  0  0  0  0  0  0  0  0  0
   39.9980   33.1140   42.3690 H   0  0  0  0  0  0  0  0  0  0  0  0
   39.2120   34.1080   39.5230 O   0  0  0  0  0  0  0  0  0  0  0  0
   39.6750   34.9190   39.8380 H   0  0  0  0  0  0  0  0  0  0  0  0
   40.9410   27.6450   43.2810 C   0  0  0  0  0  0  0  0  0  0  0  0
   41.2950   28.1380   44.2150 H   0  0  0  0  0  0  0  0  0  0  0  0
   40.7110   26.5900   43.5560 H   0  0  0  0  0  0  0  0  0  0  0  0
   41.6850   27.6470   42.4600 H   0  0  0  0  0  0  0  0  0  0  0  0
  1 18  1  0  0  0  0
  1  2  1  0  0  0  0
  2  7  1  0  0  0  0
  3  2  2  0  0  0  0
  3  8  1  0  0  0  0
  4  3  1  0  0  0  0
  5  6  1  0  0  0  0
  5  4  2  0  0  0  0
  6  1  2  0  0  0  0
  9 14  1  1  0  0  0
 10 11  1  0  0  0  0
 10  9  1  0  0  0  0
 10  5  1  1  0  0  0
 12 13  1  0  0  0  0
 12 11  1  0  0  0  0
 13 16  1  6  0  0  0
 13  9  1  0  0  0  0
 14 15  1  0  0  0  0
 16 17  1  0  0  0  0
 18 20  1  0  0  0  0
 18 19  1  0  0  0  0
 21 18  1  0  0  0  0
M  END
>  <minimizedAffinity>
-4.49478292

$$$$

 OpenBabel03252504453D

 21 22  0  0  1  0  0  0  0  0999 V2000
   37.5270   28.2680   43.0570 C   0  0  0  0  0  0  0  0  0  0  0  0
   38.8430   27.8870   43.3090 C   0  0  0  0  0  0  0  0  0  0  0  0
   39.8780   28.6770   42.7550 C   0  0  0  0  0  0  0  0  0  0  0  0
   39.5210   29.7560   42.0100 N   0  0  0  0  0  0  0  0  0  0  0  0
   38.2130   30.0840   41.7940 C   0  0  0  0  0  0  0  0  0  0  0  0
   37.2140   29.3400   42.3180 N   0  0  0  0  0  0  0  0  0  0  0  0
   39.1230   27.0210   43.9060 H   0  0  0  0  0  0  0  0  0  0  0  0
   40.9120   28.4350   42.9130 H   0  0  0  0  0  0  0  0  0  0  0  0
   37.5920   30.9490   39.5400 C   0  0  1  0  0  3  0  0  0  0  0  0
   37.9690   31.2830   40.9680 C   0  0  2  0  0  3  0  0  0  0  0  0
   39.1550   32.0270   40.8490 O   0  0  0  0  0  0  0  0  0  0  0  0
   38.8060   32.9380   39.8520 C   0  0  0  0  0  2  0  0  0  0  0  0
   38.3220   32.0230   38.7240 C   0  0  2  0  0  3  0  0  0  0  0  0
   37.9930   29.6800   39.1610 O   0  0  0  0  0  0  0  0  0  0  0  0
   38.2670   29.7610   38.1970 H   0  0  0  0  0  0  0  0  0  0  0  0
   37.4740   32.7610   37.9320 O   0  0  0  0  0  0  0  0  0  0  0  0
   37.4980   32.5320   36.9740 H   0  0  0  0  0  0  0  0  0  0  0  0
   36.4440   27.4100   43.6600 C   0  0  0  0  0  0  0  0  0  0  0  0
   36.3130   26.5410   42.9760 H   0  0  0  0  0  0  0  0  0  0  0  0
   36.8090   26.9910   44.6260 H   0  0  0  0  0  0  0  0  0  0  0  0
   35.5140   27.9820   43.8460 H   0  0  0  0  0  0  0  0  0  0  0  0
  1  2  1  0  0  0  0
  1 18  1  0  0  0  0
  2  7  1  0  0  0  0
  3  8  1  0  0  0  0
  3  2  2  0  0  0  0
  4  3  1  0  0  0  0
  5  4  2  0  0  0  0
  5  6  1  0  0  0  0
  6  1  2  0  0  0  0
  9 14  1  6  0  0  0
  9 10  1  0  0  0  0
 10  5  1  1  0  0  0
 11 10  1  0  0  0  0
 12 11  1  0  0  0  0
 13 16  1  6  0  0  0
 13  9  1  0  0  0  0
 13 12  1  0  0  0  0
 15 14  1  0  0  0  0
 17 16  1  0  0  0  0
 18 21  1  0  0  0  0
 18 20  1  0  0  0  0
 19 18  1  0  0  0  0
M  END
>  <minimizedAffinity>
-4.22776842

$$$$

 OpenBabel03252504453D

 21 22  0  0  1  0  0  0  0  0999 V2000
   37.9330   30.8530   40.1710 C   0  0  0  0  0  0  0  0  0  0  0  0
   38.1340   29.4790   40.0590 C   0  0  0  0  0  0  0  0  0  0  0  0
   39.3900   29.0320   39.5860 C   0  0  0  0  0  0  0  0  0  0  0  0
   40.3190   29.9720   39.2700 N   0  0  0  0  0  0  0  0  0  0  0  0
   40.0680   31.3080   39.3980 C   0  0  0  0  0  0  0  0  0  0  0  0
   38.8740   31.7490   39.8500 N   0  0  0  0  0  0  0  0  0  0  0  0
   37.3860   28.7310   40.3140 H   0  0  0  0  0  0  0  0  0  0  0  0
   39.6070   27.9850   39.4780 H   0  0  0  0  0  0  0  0  0  0  0  0
   40.9450   32.8880   37.6810 C   0  0  1  0  0  3  0  0  0  0  0  0
   41.1670   32.2180   39.0200 C   0  0  2  0  0  3  0  0  0  0  0  0
   42.3530   31.4840   38.8480 O   0  0  0  0  0  0  0  0  0  0  0  0
   43.1790   32.4370   38.2540 C   0  0  0  0  0  2  0  0  0  0  0  0
   42.3450   32.8960   37.0560 C   0  0  2  0  0  3  0  0  0  0  0  0
   40.0470   32.2040   36.8800 O   0  0  0  0  0  0  0  0  0  0  0  0
   40.3940   32.3030   35.9420 H   0  0  0  0  0  0  0  0  0  0  0  0
   42.7720   34.1600   36.7170 O   0  0  0  0  0  0  0  0  0  0  0  0
   42.7350   34.3650   35.7540 H   0  0  0  0  0  0  0  0  0  0  0  0
   36.5870   31.3030   40.6790 C   0  0  0  0  0  0  0  0  0  0  0  0
   35.8970   31.2830   39.8050 H   0  0  0  0  0  0  0  0  0  0  0  0
   36.1980   30.5440   41.3970 H   0  0  0  0  0  0  0  0  0  0  0  0
   36.6400   32.2850   41.1890 H   0  0  0  0  0  0  0  0  0  0  0  0
  1 18  1  0  0  0  0
  2  1  1  0  0  0  0
  2  7  1  0  0  0  0
  3  2  2  0  0  0  0
  4  5  2  0  0  0  0
  4  3  1  0  0  0  0
  5  6  1  0  0  0  0
  6  1  2  0  0  0  0
  8  3  1  0  0  0  0
  9 14  1  6  0  0  0
  9 10  1  0  0  0  0
 10  5  1  6  0  0  0
 11 10  1  0  0  0  0
 12 11  1  0  0  0  0
 13 16  1  1  0  0  0
 13  9  1  0  0  0  0
 13 12  1  0  0  0  0
 15 14  1  0  0  0  0
 17 16  1  0  0  0  0
 18 21  1  0  0  0  0
 18 20  1  0  0  0  0
 19 18  1  0  0  0  0
M  END
>  <minimizedAffinity>
-4.20651388

$$$$

 OpenBabel03252504453D

 21 22  0  0  1  0  0  0  0  0999 V2000
   39.8080   25.5020   41.3080 C   0  0  0  0  0  0  0  0  0  0  0  0
   38.9800   24.4400   41.6660 C   0  0  0  0  0  0  0  0  0  0  0  0
   37.7050   24.7460   42.1980 C   0  0  0  0  0  0  0  0  0  0  0  0
   37.3700   26.0570   42.3260 N   0  0  0  0  0  0  0  0  0  0  0  0
   38.2220   27.0600   41.9600 C   0  0  0  0  0  0  0  0  0  0  0  0
   39.4420   26.7820   41.4500 N   0  0  0  0  0  0  0  0  0  0  0  0
   39.2530   23.3920   41.5610 H   0  0  0  0  0  0  0  0  0  0  0  0
   37.0210   23.9710   42.4920 H   0  0  0  0  0  0  0  0  0  0  0  0
   36.4010   28.6910   41.4720 C   0  0  1  0  0  3  0  0  0  0  0  0
   37.7300   28.4370   42.1530 C   0  0  2  0  0  3  0  0  0  0  0  0
   38.6110   29.3470   41.5430 O   0  0  0  0  0  0  0  0  0  0  0  0
   37.8660   30.5250   41.5960 C   0  0  0  0  0  2  0  0  0  0  0  0
   36.5530   30.1150   40.9260 C   0  0  2  0  0  3  0  0  0  0  0  0
   36.1400   27.7920   40.4530 O   0  0  0  0  0  0  0  0  0  0  0  0
   35.6680   28.3230   39.7410 H   0  0  0  0  0  0  0  0  0  0  0  0
   35.5750   30.9700   41.3820 O   0  0  0  0  0  0  0  0  0  0  0  0
   34.8710   31.1800   40.7260 H   0  0  0  0  0  0  0  0  0  0  0  0
   41.1600   25.1480   40.7440 C   0  0  0  0  0  0  0  0  0  0  0  0
   41.8210   24.9400   41.6160 H   0  0  0  0  0  0  0  0  0  0  0  0
   41.0780   24.1900   40.1810 H   0  0  0  0  0  0  0  0  0  0  0  0
   41.5460   25.9320   40.0630 H   0  0  0  0  0  0  0  0  0  0  0  0
  1  6  2  0  0  0  0
  1  2  1  0  0  0  0
  2  3  2  0  0  0  0
  3  4  1  0  0  0  0
  3  8  1  0  0  0  0
  5  4  2  0  0  0  0
  6  5  1  0  0  0  0
  7  2  1  0  0  0  0
  9 14  1  6  0  0  0
  9 10  1  0  0  0  0
 10  5  1  6  0  0  0
 11 12  1  0  0  0  0
 11 10  1  0  0  0  0
 13 16  1  1  0  0  0
 13  9  1  0  0  0  0
 13 12  1  0  0  0  0
 15 14  1  0  0  0  0
 17 16  1  0  0  0  0
 18  1  1  0  0  0  0
 18 19  1  0  0  0  0
 20 18  1  0  0  0  0
 21 18  1  0  0  0  0
M  END
>  <minimizedAffinity>
-4.18669319

$$$$
