
 OpenBabel03252504503D

 24 25  0  0  1  0  0  0  0  0999 V2000
   39.4470   26.8360   41.4990 C   0  0  0  0  0  0  0  0  0  0  0  0
   39.1990   26.7930   42.8700 C   0  0  0  0  0  0  0  0  0  0  0  0
   38.2470   27.6830   43.3730 C   0  0  0  0  0  0  0  0  0  0  0  0
   37.6280   28.5280   42.4950 N   0  0  0  0  0  0  0  0  0  0  0  0
   37.8900   28.5420   41.1850 C   0  0  0  0  0  0  0  0  0  0  0  0
   38.8110   27.6880   40.6670 N   0  0  0  0  0  0  0  0  0  0  0  0
   40.1610   26.2010   40.9770 H   0  0  0  0  0  0  0  0  0  0  0  0
   38.0610   27.6460   44.4280 H   0  0  0  0  0  0  0  0  0  0  0  0
   36.9600   30.7790   41.1300 C   0  0  1  0  0  3  0  0  0  0  0  0
   37.1590   29.5010   40.3170 C   0  0  1  0  0  3  0  0  0  0  0  0
   37.9420   29.8680   39.2160 O   0  0  0  0  0  0  0  0  0  0  0  0
   37.3740   31.0970   38.8630 C   0  0  0  0  0  2  0  0  0  0  0  0
   37.5380   31.8380   40.1940 C   0  0  1  0  0  3  0  0  0  0  0  0
   35.6350   31.0280   41.3900 O   0  0  0  0  0  0  0  0  0  0  0  0
   35.0050   30.4400   40.9420 H   0  0  0  0  0  0  0  0  0  0  0  0
   36.7380   32.9560   40.2590 O   0  0  0  0  0  0  0  0  0  0  0  0
   37.1290   33.7230   39.7800 H   0  0  0  0  0  0  0  0  0  0  0  0
   39.9320   25.8420   43.6770 C   0  0  0  0  0  0  0  0  0  0  0  0
   39.5890   25.8410   44.7110 H   0  0  0  0  0  0  0  0  0  0  0  0
   41.0280   26.0610   43.6400 H   0  0  0  0  0  0  0  0  0  0  0  0
   39.6630   24.4500   43.1280 C   0  0  0  0  0  0  0  0  0  0  0  0
   40.1450   23.7260   43.8420 H   0  0  0  0  0  0  0  0  0  0  0  0
   38.5700   24.2850   43.1820 H   0  0  0  0  0  0  0  0  0  0  0  0
   40.0580   24.3270   42.1010 H   0  0  0  0  0  0  0  0  0  0  0  0
  1  2  1  0  0  0  0
  2  3  2  0  0  0  0
  2 18  1  0  0  0  0
  3  8  1  0  0  0  0
  4  3  1  0  0  0  0
  5  4  2  0  0  0  0
  6  5  1  0  0  0  0
  6  1  2  0  0  0  0
  7  1  1  0  0  0  0
  9 14  1  6  0  0  0
 10  9  1  0  0  0  0
 10  5  1  1  0  0  0
 11 10  1  0  0  0  0
 12 11  1  0  0  0  0
 12 13  1  0  0  0  0
 13 16  1  6  0  0  0
 13  9  1  0  0  0  0
 15 14  1  0  0  0  0
 17 16  1  0  0  0  0
 18 19  1  0  0  0  0
 20 18  1  0  0  0  0
 21 23  1  0  0  0  0
 21 18  1  0  0  0  0
 21 22  1  0  0  0  0
 24 21  1  0  0  0  0
M  END
>  <minimizedAffinity>
-5.21671104

$$$$

 OpenBabel03252504503D

 24 25  0  0  1  0  0  0  0  0999 V2000
   37.1600   25.8460   40.2930 C   0  0  0  0  0  0  0  0  0  0  0  0
   37.2770   25.6740   41.6710 C   0  0  0  0  0  0  0  0  0  0  0  0
   37.0190   26.7860   42.4750 C   0  0  0  0  0  0  0  0  0  0  0  0
   36.6720   27.9580   41.8640 N   0  0  0  0  0  0  0  0  0  0  0  0
   36.5680   28.0870   40.5380 C   0  0  0  0  0  0  0  0  0  0  0  0
   36.8130   27.0230   39.7300 N   0  0  0  0  0  0  0  0  0  0  0  0
   37.3320   25.0660   39.5540 H   0  0  0  0  0  0  0  0  0  0  0  0
   37.1120   26.6490   43.5350 H   0  0  0  0  0  0  0  0  0  0  0  0
   36.6090   30.4690   40.9850 C   0  0  1  0  0  3  0  0  0  0  0  0
   36.1820   29.4060   39.9730 C   0  0  1  0  0  3  0  0  0  0  0  0
   36.9070   29.6780   38.8080 O   0  0  0  0  0  0  0  0  0  0  0  0
   36.8390   31.0740   38.7500 C   0  0  0  0  0  2  0  0  0  0  0  0
   37.4450   31.4070   40.1180 C   0  0  1  0  0  3  0  0  0  0  0  0
   35.5350   31.1310   41.5280 O   0  0  0  0  0  0  0  0  0  0  0  0
   34.6740   30.9250   41.1280 H   0  0  0  0  0  0  0  0  0  0  0  0
   37.1720   32.7030   40.4950 O   0  0  0  0  0  0  0  0  0  0  0  0
   37.7750   33.3520   40.0660 H   0  0  0  0  0  0  0  0  0  0  0  0
   37.6540   24.3720   42.1770 C   0  0  0  0  0  0  0  0  0  0  0  0
   36.9300   23.9950   42.8990 H   0  0  0  0  0  0  0  0  0  0  0  0
   38.6700   24.4120   42.6410 H   0  0  0  0  0  0  0  0  0  0  0  0
   37.6540   23.3950   41.0120 C   0  0  0  0  0  0  0  0  0  0  0  0
   37.8300   22.3730   41.4510 H   0  0  0  0  0  0  0  0  0  0  0  0
   36.6320   23.3950   40.5870 H   0  0  0  0  0  0  0  0  0  0  0  0
   38.4240   23.6490   40.2590 H   0  0  0  0  0  0  0  0  0  0  0  0
  1  2  1  0  0  0  0
  2 18  1  0  0  0  0
  2  3  2  0  0  0  0
  3  8  1  0  0  0  0
  4  3  1  0  0  0  0
  5  4  2  0  0  0  0
  6  1  2  0  0  0  0
  6  5  1  0  0  0  0
  7  1  1  0  0  0  0
  9 14  1  6  0  0  0
 10  5  1  1  0  0  0
 10  9  1  0  0  0  0
 11 10  1  0  0  0  0
 12 11  1  0  0  0  0
 12 13  1  0  0  0  0
 13 16  1  1  0  0  0
 13  9  1  0  0  0  0
 15 14  1  0  0  0  0
 17 16  1  0  0  0  0
 18 20  1  0  0  0  0
 18 19  1  0  0  0  0
 21 22  1  0  0  0  0
 21 18  1  0  0  0  0
 23 21  1  0  0  0  0
 24 21  1  0  0  0  0
M  END
>  <minimizedAffinity>
-5.0932827

$$$$

 OpenBabel03252504503D

 24 25  0  0  1  0  0  0  0  0999 V2000
   37.9420   28.8490   42.7150 C   0  0  0  0  0  0  0  0  0  0  0  0
   36.9750   27.9190   42.3370 C   0  0  0  0  0  0  0  0  0  0  0  0
   36.0540   28.3190   41.3650 C   0  0  0  0  0  0  0  0  0  0  0  0
   36.1620   29.5820   40.8540 N   0  0  0  0  0  0  0  0  0  0  0  0
   37.1040   30.4480   41.2400 C   0  0  0  0  0  0  0  0  0  0  0  0
   38.0130   30.0890   42.1830 N   0  0  0  0  0  0  0  0  0  0  0  0
   38.7170   28.6710   43.4570 H   0  0  0  0  0  0  0  0  0  0  0  0
   35.3110   27.6000   41.0790 H   0  0  0  0  0  0  0  0  0  0  0  0
   38.5860   32.2740   40.6570 C   0  0  1  0  0  3  0  0  0  0  0  0
   37.1340   31.7980   40.6200 C   0  0  1  0  0  3  0  0  0  0  0  0
   36.7900   31.7300   39.2660 O   0  0  0  0  0  0  0  0  0  0  0  0
   37.3820   32.8940   38.7640 C   0  0  0  0  0  2  0  0  0  0  0  0
   38.8310   32.6390   39.1950 C   0  0  1  0  0  3  0  0  0  0  0  0
   38.7520   33.3700   41.4690 O   0  0  0  0  0  0  0  0  0  0  0  0
   37.9330   33.7590   41.8160 H   0  0  0  0  0  0  0  0  0  0  0  0
   39.5850   33.7910   39.1570 O   0  0  0  0  0  0  0  0  0  0  0  0
   39.8900   34.0070   38.2460 H   0  0  0  0  0  0  0  0  0  0  0  0
   36.9840   26.6160   42.9650 C   0  0  0  0  0  0  0  0  0  0  0  0
   36.0400   26.4030   43.4650 H   0  0  0  0  0  0  0  0  0  0  0  0
   37.8270   26.5400   43.6950 H   0  0  0  0  0  0  0  0  0  0  0  0
   37.1450   25.5680   41.8750 C   0  0  0  0  0  0  0  0  0  0  0  0
   37.0280   24.5660   42.3750 H   0  0  0  0  0  0  0  0  0  0  0  0
   36.2920   25.6880   41.1800 H   0  0  0  0  0  0  0  0  0  0  0  0
   38.1220   25.6520   41.3620 H   0  0  0  0  0  0  0  0  0  0  0  0
  1  7  1  0  0  0  0
  2  1  1  0  0  0  0
  2 18  1  0  0  0  0
  3  2  2  0  0  0  0
  4  5  2  0  0  0  0
  4  3  1  0  0  0  0
  5  6  1  0  0  0  0
  6  1  2  0  0  0  0
  8  3  1  0  0  0  0
  9 14  1  1  0  0  0
 10  9  1  0  0  0  0
 10  5  1  6  0  0  0
 11 10  1  0  0  0  0
 12 13  1  0  0  0  0
 12 11  1  0  0  0  0
 13 16  1  1  0  0  0
 13  9  1  0  0  0  0
 14 15  1  0  0  0  0
 17 16  1  0  0  0  0
 18 19  1  0  0  0  0
 18 20  1  0  0  0  0
 21 22  1  0  0  0  0
 21 18  1  0  0  0  0
 23 21  1  0  0  0  0
 24 21  1  0  0  0  0
M  END
>  <minimizedAffinity>
-4.77307034

$$$$

 OpenBabel03252504503D

 24 25  0  0  1  0  0  0  0  0999 V2000
   37.3800   27.7510   42.4210 C   0  0  0  0  0  0  0  0  0  0  0  0
   37.2850   26.6180   41.6150 C   0  0  0  0  0  0  0  0  0  0  0  0
   37.4720   26.7970   40.2420 C   0  0  0  0  0  0  0  0  0  0  0  0
   37.7340   28.0580   39.7850 N   0  0  0  0  0  0  0  0  0  0  0  0
   37.8190   29.1220   40.5880 C   0  0  0  0  0  0  0  0  0  0  0  0
   37.6420   28.9800   41.9270 N   0  0  0  0  0  0  0  0  0  0  0  0
   37.2580   27.7550   43.5020 H   0  0  0  0  0  0  0  0  0  0  0  0
   37.3960   25.9210   39.6260 H   0  0  0  0  0  0  0  0  0  0  0  0
   37.7310   31.5030   41.0310 C   0  0  1  0  0  3  0  0  0  0  0  0
   38.1090   30.4510   39.9890 C   0  0  1  0  0  3  0  0  0  0  0  0
   39.4830   30.6070   39.7710 O   0  0  0  0  0  0  0  0  0  0  0  0
   39.6090   32.0010   39.7500 C   0  0  0  0  0  2  0  0  0  0  0  0
   39.0160   32.3230   41.1260 C   0  0  1  0  0  3  0  0  0  0  0  0
   36.6800   32.2860   40.6210 O   0  0  0  0  0  0  0  0  0  0  0  0
   36.3930   32.1510   39.7030 H   0  0  0  0  0  0  0  0  0  0  0  0
   38.6730   33.6520   41.2350 O   0  0  0  0  0  0  0  0  0  0  0  0
   39.4510   34.2230   41.4330 H   0  0  0  0  0  0  0  0  0  0  0  0
   37.0030   25.3440   42.2400 C   0  0  0  0  0  0  0  0  0  0  0  0
   36.0980   25.3840   42.8460 H   0  0  0  0  0  0  0  0  0  0  0  0
   37.8680   25.0170   42.8680 H   0  0  0  0  0  0  0  0  0  0  0  0
   36.7450   24.3260   41.1420 C   0  0  0  0  0  0  0  0  0  0  0  0
   36.4120   23.3800   41.6540 H   0  0  0  0  0  0  0  0  0  0  0  0
   35.8870   24.6960   40.5490 H   0  0  0  0  0  0  0  0  0  0  0  0
   37.6440   24.1520   40.5190 H   0  0  0  0  0  0  0  0  0  0  0  0
  1  7  1  0  0  0  0
  2 18  1  0  0  0  0
  2  1  2  0  0  0  0
  3  2  1  0  0  0  0
  4  3  2  0  0  0  0
  4  5  1  0  0  0  0
  5  6  2  0  0  0  0
  6  1  1  0  0  0  0
  8  3  1  0  0  0  0
  9 14  1  6  0  0  0
  9 13  1  0  0  0  0
 10  5  1  1  0  0  0
 10  9  1  0  0  0  0
 11 10  1  0  0  0  0
 12 11  1  0  0  0  0
 12 13  1  0  0  0  0
 13 16  1  6  0  0  0
 15 14  1  0  0  0  0
 16 17  1  0  0  0  0
 18 19  1  0  0  0  0
 18 20  1  0  0  0  0
 21 22  1  0  0  0  0
 21 18  1  0  0  0  0
 23 21  1  0  0  0  0
 24 21  1  0  0  0  0
M  END
>  <minimizedAffinity>
-4.55190516

$$$$

 OpenBabel03252504503D

 24 25  0  0  1  0  0  0  0  0999 V2000
   38.5350   30.6340   39.7630 C   0  0  0  0  0  0  0  0  0  0  0  0
   37.3890   31.4260   39.8150 C   0  0  0  0  0  0  0  0  0  0  0  0
   36.4350   31.1010   40.7820 C   0  0  0  0  0  0  0  0  0  0  0  0
   36.6860   30.0390   41.6050 N   0  0  0  0  0  0  0  0  0  0  0  0
   37.7960   29.3010   41.5270 C   0  0  0  0  0  0  0  0  0  0  0  0
   38.7430   29.5920   40.5970 N   0  0  0  0  0  0  0  0  0  0  0  0
   39.3550   30.7750   39.0620 H   0  0  0  0  0  0  0  0  0  0  0  0
   35.5550   31.7130   40.8170 H   0  0  0  0  0  0  0  0  0  0  0  0
   36.6660   27.3730   42.4650 C   0  0  1  0  0  3  0  0  0  0  0  0
   37.9720   28.1670   42.4700 C   0  0  1  0  0  3  0  0  0  0  0  0
   38.9550   27.2850   42.0080 O   0  0  0  0  0  0  0  0  0  0  0  0
   38.6030   26.0990   42.6630 C   0  0  0  0  0  2  0  0  0  0  0  0
   37.1600   25.9610   42.1640 C   0  0  1  0  0  3  0  0  0  0  0  0
   36.0260   27.4190   43.6790 O   0  0  0  0  0  0  0  0  0  0  0  0
   36.5240   27.8420   44.3980 H   0  0  0  0  0  0  0  0  0  0  0  0
   36.4380   25.0760   42.9330 O   0  0  0  0  0  0  0  0  0  0  0  0
   36.6150   24.1390   42.6900 H   0  0  0  0  0  0  0  0  0  0  0  0
   37.2610   32.5210   38.8780 C   0  0  0  0  0  0  0  0  0  0  0  0
   36.2660   32.5600   38.4370 H   0  0  0  0  0  0  0  0  0  0  0  0
   38.0330   32.4390   38.0730 H   0  0  0  0  0  0  0  0  0  0  0  0
   37.4470   33.8210   39.6430 C   0  0  0  0  0  0  0  0  0  0  0  0
   37.2240   34.6540   38.9190 H   0  0  0  0  0  0  0  0  0  0  0  0
   36.6660   33.8520   40.4270 H   0  0  0  0  0  0  0  0  0  0  0  0
   38.4680   33.9130   40.0610 H   0  0  0  0  0  0  0  0  0  0  0  0
  1  2  2  0  0  0  0
  1  6  1  0  0  0  0
  2  3  1  0  0  0  0
  3  8  1  0  0  0  0
  3  4  2  0  0  0  0
  5  4  1  0  0  0  0
  6  5  2  0  0  0  0
  7  1  1  0  0  0  0
  9 10  1  0  0  0  0
  9 14  1  1  0  0  0
 10  5  1  6  0  0  0
 11 10  1  0  0  0  0
 11 12  1  0  0  0  0
 13  9  1  0  0  0  0
 13 12  1  0  0  0  0
 13 16  1  1  0  0  0
 14 15  1  0  0  0  0
 17 16  1  0  0  0  0
 18 21  1  0  0  0  0
 18  2  1  0  0  0  0
 19 18  1  0  0  0  0
 20 18  1  0  0  0  0
 21 24  1  0  0  0  0
 21 23  1  0  0  0  0
 22 21  1  0  0  0  0
M  END
>  <minimizedAffinity>
-4.48297119

$$$$

 OpenBabel03252504503D

 24 25  0  0  1  0  0  0  0  0999 V2000
   37.8790   27.2690   39.1720 C   0  0  0  0  0  0  0  0  0  0  0  0
   37.2650   26.9060   40.3700 C   0  0  0  0  0  0  0  0  0  0  0  0
   36.9410   27.9370   41.2560 C   0  0  0  0  0  0  0  0  0  0  0  0
   37.2440   29.2190   40.8930 N   0  0  0  0  0  0  0  0  0  0  0  0
   37.8330   29.5310   39.7350 C   0  0  0  0  0  0  0  0  0  0  0  0
   38.1610   28.5510   38.8530 N   0  0  0  0  0  0  0  0  0  0  0  0
   38.1840   26.5710   38.3950 H   0  0  0  0  0  0  0  0  0  0  0  0
   36.4690   27.6520   42.1760 H   0  0  0  0  0  0  0  0  0  0  0  0
   37.7620   31.7570   40.6890 C   0  0  1  0  0  3  0  0  0  0  0  0
   38.1190   30.9580   39.4360 C   0  0  1  0  0  3  0  0  0  0  0  0
   39.4890   31.1570   39.2350 O   0  0  0  0  0  0  0  0  0  0  0  0
   39.6210   32.5220   39.5160 C   0  0  0  0  0  2  0  0  0  0  0  0
   39.0510   32.5360   40.9390 C   0  0  1  0  0  3  0  0  0  0  0  0
   36.7080   32.6120   40.4760 O   0  0  0  0  0  0  0  0  0  0  0  0
   36.4060   32.6800   39.5560 H   0  0  0  0  0  0  0  0  0  0  0  0
   38.7160   33.8100   41.3410 O   0  0  0  0  0  0  0  0  0  0  0  0
   39.4990   34.3230   41.6450 H   0  0  0  0  0  0  0  0  0  0  0  0
   37.0040   25.5050   40.6180 C   0  0  0  0  0  0  0  0  0  0  0  0
   37.7560   24.8670   40.1560 H   0  0  0  0  0  0  0  0  0  0  0  0
   35.9870   25.2260   40.2480 H   0  0  0  0  0  0  0  0  0  0  0  0
   37.0940   25.2670   42.1170 C   0  0  0  0  0  0  0  0  0  0  0  0
   37.0070   24.1550   42.2700 H   0  0  0  0  0  0  0  0  0  0  0  0
   38.1130   25.5620   42.4330 H   0  0  0  0  0  0  0  0  0  0  0  0
   36.3060   25.8130   42.6710 H   0  0  0  0  0  0  0  0  0  0  0  0
  1  2  1  0  0  0  0
  2 18  1  0  0  0  0
  2  3  2  0  0  0  0
  3  8  1  0  0  0  0
  4  3  1  0  0  0  0
  5  4  2  0  0  0  0
  6  1  2  0  0  0  0
  6  5  1  0  0  0  0
  7  1  1  0  0  0  0
  9 14  1  6  0  0  0
  9 13  1  0  0  0  0
 10  5  1  1  0  0  0
 10  9  1  0  0  0  0
 11 10  1  0  0  0  0
 11 12  1  0  0  0  0
 12 13  1  0  0  0  0
 13 16  1  6  0  0  0
 15 14  1  0  0  0  0
 16 17  1  0  0  0  0
 18 21  1  0  0  0  0
 19 18  1  0  0  0  0
 20 18  1  0  0  0  0
 21 22  1  0  0  0  0
 21 23  1  0  0  0  0
 21 24  1  0  0  0  0
M  END
>  <minimizedAffinity>
-4.45522642

$$$$

 OpenBabel03252504503D

 24 25  0  0  1  0  0  0  0  0999 V2000
   36.0840   29.4680   36.8020 C   0  0  0  0  0  0  0  0  0  0  0  0
   35.3230   28.8970   37.8210 C   0  0  0  0  0  0  0  0  0  0  0  0
   35.4820   29.4240   39.1050 C   0  0  0  0  0  0  0  0  0  0  0  0
   36.3640   30.4540   39.2750 N   0  0  0  0  0  0  0  0  0  0  0  0
   37.0770   30.9790   38.2750 C   0  0  0  0  0  0  0  0  0  0  0  0
   36.9450   30.4870   37.0150 N   0  0  0  0  0  0  0  0  0  0  0  0
   36.0590   29.1570   35.7600 H   0  0  0  0  0  0  0  0  0  0  0  0
   34.8950   28.9810   39.8850 H   0  0  0  0  0  0  0  0  0  0  0  0
   37.4100   32.8870   39.7310 C   0  0  1  0  0  3  0  0  0  0  0  0
   38.0090   32.0980   38.5660 C   0  0  1  0  0  3  0  0  0  0  0  0
   39.2380   31.6140   39.0280 O   0  0  0  0  0  0  0  0  0  0  0  0
   39.7310   32.7170   39.7340 C   0  0  0  0  0  2  0  0  0  0  0  0
   38.5740   32.9160   40.7180 C   0  0  1  0  0  3  0  0  0  0  0  0
   37.0480   34.1600   39.3640 O   0  0  0  0  0  0  0  0  0  0  0  0
   37.3140   34.4270   38.4690 H   0  0  0  0  0  0  0  0  0  0  0  0
   38.6120   34.1610   41.3050 O   0  0  0  0  0  0  0  0  0  0  0  0
   39.2570   34.2040   42.0480 H   0  0  0  0  0  0  0  0  0  0  0  0
   34.4280   27.8100   37.4910 C   0  0  0  0  0  0  0  0  0  0  0  0
   34.1300   27.2500   38.3760 H   0  0  0  0  0  0  0  0  0  0  0  0
   34.9050   27.1240   36.7480 H   0  0  0  0  0  0  0  0  0  0  0  0
   33.1570   28.4060   36.9050 C   0  0  0  0  0  0  0  0  0  0  0  0
   32.4360   27.5520   36.7710 H   0  0  0  0  0  0  0  0  0  0  0  0
   32.7290   29.0780   37.6740 H   0  0  0  0  0  0  0  0  0  0  0  0
   33.3480   28.9280   35.9480 H   0  0  0  0  0  0  0  0  0  0  0  0
  1  6  2  0  0  0  0
  1  2  1  0  0  0  0
  2  3  2  0  0  0  0
  3  4  1  0  0  0  0
  3  8  1  0  0  0  0
  5  4  2  0  0  0  0
  6  5  1  0  0  0  0
  7  1  1  0  0  0  0
  9 14  1  6  0  0  0
  9 13  1  0  0  0  0
 10  5  1  1  0  0  0
 10 11  1  0  0  0  0
 10  9  1  0  0  0  0
 11 12  1  0  0  0  0
 12 13  1  0  0  0  0
 13 16  1  6  0  0  0
 15 14  1  0  0  0  0
 16 17  1  0  0  0  0
 18  2  1  0  0  0  0
 18 19  1  0  0  0  0
 20 18  1  0  0  0  0
 21 18  1  0  0  0  0
 21 23  1  0  0  0  0
 22 21  1  0  0  0  0
 24 21  1  0  0  0  0
M  END
>  <minimizedAffinity>
-4.43578672

$$$$

 OpenBabel03252504503D

 24 25  0  0  1  0  0  0  0  0999 V2000
   38.5650   27.7290   41.3980 C   0  0  0  0  0  0  0  0  0  0  0  0
   37.5180   28.3110   42.1120 C   0  0  0  0  0  0  0  0  0  0  0  0
   37.3370   29.6880   41.9650 C   0  0  0  0  0  0  0  0  0  0  0  0
   38.1880   30.3670   41.1390 N   0  0  0  0  0  0  0  0  0  0  0  0
   39.1810   29.7770   40.4690 C   0  0  0  0  0  0  0  0  0  0  0  0
   39.3830   28.4390   40.5920 N   0  0  0  0  0  0  0  0  0  0  0  0
   38.8180   26.6710   41.4200 H   0  0  0  0  0  0  0  0  0  0  0  0
   36.5300   30.1310   42.5170 H   0  0  0  0  0  0  0  0  0  0  0  0
   39.4140   30.6120   38.2060 C   0  0  1  0  0  3  0  0  0  0  0  0
   40.0510   30.6060   39.5960 C   0  0  1  0  0  3  0  0  0  0  0  0
   40.0520   31.9400   40.0200 O   0  0  0  0  0  0  0  0  0  0  0  0
   40.4220   32.6100   38.8480 C   0  0  0  0  0  2  0  0  0  0  0  0
   39.3130   32.1080   37.9170 C   0  0  1  0  0  3  0  0  0  0  0  0
   40.2020   29.9860   37.2710 O   0  0  0  0  0  0  0  0  0  0  0  0
   41.0860   29.7260   37.5780 H   0  0  0  0  0  0  0  0  0  0  0  0
   39.6270   32.3150   36.5920 O   0  0  0  0  0  0  0  0  0  0  0  0
   39.4530   33.2410   36.3070 H   0  0  0  0  0  0  0  0  0  0  0  0
   36.6960   27.4650   42.9490 C   0  0  0  0  0  0  0  0  0  0  0  0
   35.6340   27.6490   42.7890 H   0  0  0  0  0  0  0  0  0  0  0  0
   36.9520   27.6150   44.0270 H   0  0  0  0  0  0  0  0  0  0  0  0
   36.9500   26.0190   42.5520 C   0  0  0  0  0  0  0  0  0  0  0  0
   36.2140   25.3950   43.1310 H   0  0  0  0  0  0  0  0  0  0  0  0
   36.6870   25.9250   41.4810 H   0  0  0  0  0  0  0  0  0  0  0  0
   37.9920   25.7100   42.7600 H   0  0  0  0  0  0  0  0  0  0  0  0
  1  7  1  0  0  0  0
  1  2  1  0  0  0  0
  2 18  1  0  0  0  0
  3  2  2  0  0  0  0
  3  8  1  0  0  0  0
  4  3  1  0  0  0  0
  5  6  1  0  0  0  0
  5  4  2  0  0  0  0
  6  1  2  0  0  0  0
  9 14  1  6  0  0  0
  9 10  1  0  0  0  0
 10 11  1  0  0  0  0
 10  5  1  1  0  0  0
 12 11  1  0  0  0  0
 13 16  1  6  0  0  0
 13  9  1  0  0  0  0
 13 12  1  0  0  0  0
 14 15  1  0  0  0  0
 17 16  1  0  0  0  0
 18 20  1  0  0  0  0
 19 18  1  0  0  0  0
 21 24  1  0  0  0  0
 21 18  1  0  0  0  0
 21 22  1  0  0  0  0
 23 21  1  0  0  0  0
M  END
>  <minimizedAffinity>
-4.36087227

$$$$

 OpenBabel03252504503D

 24 25  0  0  1  0  0  0  0  0999 V2000
   41.7100   30.2630   38.5960 C   0  0  0  0  0  0  0  0  0  0  0  0
   41.6110   31.1790   37.5500 C   0  0  0  0  0  0  0  0  0  0  0  0
   40.5770   32.1160   37.6210 C   0  0  0  0  0  0  0  0  0  0  0  0
   39.7410   32.0730   38.7020 N   0  0  0  0  0  0  0  0  0  0  0  0
   39.8660   31.1810   39.6880 C   0  0  0  0  0  0  0  0  0  0  0  0
   40.8620   30.2580   39.6470 N   0  0  0  0  0  0  0  0  0  0  0  0
   42.4650   29.4830   38.6680 H   0  0  0  0  0  0  0  0  0  0  0  0
   40.5040   32.8170   36.8130 H   0  0  0  0  0  0  0  0  0  0  0  0
   37.5230   31.4900   40.2230 C   0  0  1  0  0  3  0  0  0  0  0  0
   38.9050   31.2220   40.8190 C   0  0  1  0  0  3  0  0  0  0  0  0
   38.8150   29.9700   41.4390 O   0  0  0  0  0  0  0  0  0  0  0  0
   37.5560   30.0440   42.0460 C   0  0  0  0  0  2  0  0  0  0  0  0
   36.7030   30.3440   40.8080 C   0  0  1  0  0  3  0  0  0  0  0  0
   37.0150   32.7050   40.6150 O   0  0  0  0  0  0  0  0  0  0  0  0
   37.5320   33.1740   41.2910 H   0  0  0  0  0  0  0  0  0  0  0  0
   35.4610   30.8300   41.1500 O   0  0  0  0  0  0  0  0  0  0  0  0
   34.8380   30.1140   41.4110 H   0  0  0  0  0  0  0  0  0  0  0  0
   42.5700   31.1040   36.4700 C   0  0  0  0  0  0  0  0  0  0  0  0
   43.5620   31.4210   36.7890 H   0  0  0  0  0  0  0  0  0  0  0  0
   42.2310   31.7240   35.6030 H   0  0  0  0  0  0  0  0  0  0  0  0
   42.6940   29.6480   36.0490 C   0  0  0  0  0  0  0  0  0  0  0  0
   43.5290   29.6030   35.2950 H   0  0  0  0  0  0  0  0  0  0  0  0
   43.0240   29.0790   36.9380 H   0  0  0  0  0  0  0  0  0  0  0  0
   41.7470   29.2580   35.6260 H   0  0  0  0  0  0  0  0  0  0  0  0
  1  7  1  0  0  0  0
  1  6  1  0  0  0  0
  2  3  1  0  0  0  0
  2  1  2  0  0  0  0
  3  4  2  0  0  0  0
  4  5  1  0  0  0  0
  6  5  2  0  0  0  0
  8  3  1  0  0  0  0
  9 14  1  1  0  0  0
  9 13  1  0  0  0  0
  9 10  1  0  0  0  0
 10  5  1  6  0  0  0
 10 11  1  0  0  0  0
 11 12  1  0  0  0  0
 13 16  1  1  0  0  0
 13 12  1  0  0  0  0
 14 15  1  0  0  0  0
 16 17  1  0  0  0  0
 18 19  1  0  0  0  0
 18  2  1  0  0  0  0
 20 18  1  0  0  0  0
 21 18  1  0  0  0  0
 21 23  1  0  0  0  0
 22 21  1  0  0  0  0
 24 21  1  0  0  0  0
M  END
>  <minimizedAffinity>
-4.35963535

$$$$
