REMARK  Name = 
REMARK  4 active torsions:
REMARK  status: ('A' for Active; 'I' for Inactive)
REMARK    1  A    between atoms: C_3  and  C_7
REMARK    2  A    between atoms: C_5  and  C_19
REMARK    3  A    between atoms: O_17  and  C_18
REMARK    4  A    between atoms: C_22  and  O_23
REMARK                            x       y       z     vdW  Elec       q    Type
REMARK                         _______ _______ _______ _____ _____    ______ ____
ROOT
ATOM      1  C   UNL     1      44.634  35.933  44.341  0.00  0.00    +0.000 A 
ATOM      2  C   UNL     1      45.344  35.928  43.131  0.00  0.00    +0.000 A 
ATOM      3  C   UNL     1      46.267  34.894  43.003  0.00  0.00    +0.000 A 
ATOM      4  N   UNL     1      46.426  33.978  44.018  0.00  0.00    +0.000 NA
ATOM      5  C   UNL     1      45.708  34.038  45.162  0.00  0.00    +0.000 A 
ATOM      6  N   UNL     1      44.814  35.029  45.302  0.00  0.00    +0.000 NA
ATOM      7  H   UNL     1      43.915  36.706  44.488  0.00  0.00    +0.000 HD
ATOM      8  H   UNL     1      45.227  36.636  42.337  0.00  0.00    +0.000 HD
ENDROOT
BRANCH   3   9
ATOM      9  C   UNL     1      47.092  34.753  41.753  0.00  0.00    +0.000 C 
ATOM     10  C   UNL     1      48.401  35.505  41.831  0.00  0.00    +0.000 C 
ATOM     11  C   UNL     1      48.310  33.955  41.817  0.00  0.00    +0.000 C 
ATOM     12  H   UNL     1      46.532  34.815  40.789  0.00  0.00    +0.000 HD
ATOM     13  H   UNL     1      48.703  35.981  40.883  0.00  0.00    +0.000 HD
ATOM     14  H   UNL     1      48.664  35.983  42.776  0.00  0.00    +0.000 HD
ATOM     15  H   UNL     1      48.725  33.489  40.884  0.00  0.00    +0.000 HD
ATOM     16  H   UNL     1      48.642  33.500  42.765  0.00  0.00    +0.000 HD
ENDBRANCH   3   9
BRANCH   5  18
ATOM     17  C   UNL     1      46.826  31.838  45.392  0.00  0.00    +0.000 C 
ATOM     18  C   UNL     1      46.061  32.940  46.100  0.00  0.00    +0.000 C 
ATOM     19  O   UNL     1      44.910  32.370  46.632  0.00  0.00    +0.000 OA
ATOM     20  C   UNL     1      45.190  31.020  46.832  0.00  0.00    +0.000 C 
ATOM     21  C   UNL     1      45.836  30.691  45.482  0.00  0.00    +0.000 C 
BRANCH  17  22
ATOM     22  O   UNL     1      47.961  31.461  46.105  0.00  0.00    +0.000 OA
ATOM     23  H   UNL     1      48.657  32.172  46.103  0.00  0.00    +0.000 HD
ENDBRANCH  17  22
BRANCH  21  24
ATOM     24  O   UNL     1      44.886  30.886  44.484  0.00  0.00    +0.000 OA
ATOM     25  H   UNL     1      43.988  30.678  44.890  0.00  0.00    +0.000 HD
ENDBRANCH  21  24
ENDBRANCH   5  18
TORSDOF 4
