
 OpenBabel03252505153D

 25 27  0  0  1  0  0  0  0  0999 V2000
   44.5470   35.7980   44.4980 C   0  0  0  0  0  0  0  0  0  0  0  0
   45.3300   35.5880   43.3520 C   0  0  0  0  0  0  0  0  0  0  0  0
   46.2330   34.5340   43.4490 C   0  0  0  0  0  0  0  0  0  0  0  0
   46.3070   33.7900   44.6050 N   0  0  0  0  0  0  0  0  0  0  0  0
   45.5220   34.0430   45.6770 C   0  0  0  0  0  0  0  0  0  0  0  0
   44.6460   35.0570   45.6000 N   0  0  0  0  0  0  0  0  0  0  0  0
   43.8400   36.5950   44.4730 H   0  0  0  0  0  0  0  0  0  0  0  0
   45.2790   36.1620   42.4500 H   0  0  0  0  0  0  0  0  0  0  0  0
   47.1290   34.1820   42.2930 C   0  0  0  0  0  0  0  0  0  0  0  0
   48.0260   35.3270   41.8830 C   0  0  0  0  0  0  0  0  0  0  0  0
   48.5550   34.0280   42.5490 C   0  0  0  0  0  0  0  0  0  0  0  0
   46.6560   33.5920   41.4710 H   0  0  0  0  0  0  0  0  0  0  0  0
   48.1790   35.4100   40.7940 H   0  0  0  0  0  0  0  0  0  0  0  0
   48.0150   36.2330   42.4910 H   0  0  0  0  0  0  0  0  0  0  0  0
   49.1820   33.3960   41.8650 H   0  0  0  0  0  0  0  0  0  0  0  0
   48.9750   34.2040   43.5530 H   0  0  0  0  0  0  0  0  0  0  0  0
   47.2610   32.7470   46.8760 C   0  0  2  0  0  3  0  0  0  0  0  0
   45.7890   33.1040   46.7980 C   0  0  2  0  0  3  0  0  0  0  0  0
   45.0840   31.9200   46.6170 O   0  0  0  0  0  0  0  0  0  0  0  0
   45.8670   30.9020   47.1560 C   0  0  0  0  0  2  0  0  0  0  0  0
   47.2210   31.2670   46.5350 C   0  0  1  0  0  3  0  0  0  0  0  0
   47.7490   32.8570   48.1750 O   0  0  0  0  0  0  0  0  0  0  0  0
   47.7940   33.8040   48.4780 H   0  0  0  0  0  0  0  0  0  0  0  0
   47.1090   31.1660   45.1520 O   0  0  0  0  0  0  0  0  0  0  0  0
   46.4360   30.4400   44.9650 H   0  0  0  0  0  0  0  0  0  0  0  0
  1  6  1  0  0  0  0
  2  3  1  0  0  0  0
  2  1  2  0  0  0  0
  3  4  2  0  0  0  0
  4  5  1  0  0  0  0
  6  5  2  0  0  0  0
  7  1  1  0  0  0  0
  8  2  1  0  0  0  0
  9 11  1  0  0  0  0
  9  3  1  0  0  0  0
 10  9  1  0  0  0  0
 10 14  1  0  0  0  0
 10 11  1  0  0  0  0
 11 16  1  0  0  0  0
 12  9  1  0  0  0  0
 13 10  1  0  0  0  0
 15 11  1  0  0  0  0
 17 22  1  1  0  0  0
 18  5  1  6  0  0  0
 18 17  1  0  0  0  0
 19 18  1  0  0  0  0
 19 20  1  0  0  0  0
 21 24  1  6  0  0  0
 21 17  1  0  0  0  0
 21 20  1  0  0  0  0
 22 23  1  0  0  0  0
 25 24  1  0  0  0  0
M  END
>  <minimizedAffinity>
-4.63470411

>  <minimizedRMSD>
0.777916193

$$$$
