
 OpenBabel03242510083D

 28 30  0  0  1  0  0  0  0  0999 V2000
   44.4140   32.7850   41.1580 Br  0  0  0  0  0  0  0  0  0  0  0  0
   46.0680   33.6460   40.7140 C   0  0  0  0  0  0  0  0  0  0  0  0
   46.6540   34.5230   41.6100 C   0  0  0  0  0  0  0  0  0  0  0  0
   47.8510   35.1530   41.2990 C   0  0  0  0  0  0  0  0  0  0  0  0
   48.4320   34.8830   40.0900 C   0  0  0  0  0  0  0  0  0  0  0  0
   47.8270   34.0100   39.2250 C   0  0  0  0  0  0  0  0  0  0  0  0
   46.6530   33.3760   39.4980 C   0  0  0  0  0  0  0  0  0  0  0  0
   48.3160   35.8340   41.9820 H   0  0  0  0  0  0  0  0  0  0  0  0
   49.3670   35.3620   39.8240 H   0  0  0  0  0  0  0  0  0  0  0  0
   48.3060   33.8140   38.2780 H   0  0  0  0  0  0  0  0  0  0  0  0
   45.5890   34.0910   45.0760 C   0  0  0  0  0  0  0  0  0  0  0  0
   44.7450   35.2060   45.3020 C   0  0  0  0  0  0  0  0  0  0  0  0
   44.5570   36.0980   44.2370 C   0  0  0  0  0  0  0  0  0  0  0  0
   45.1900   35.8390   43.0700 N   0  0  0  0  0  0  0  0  0  0  0  0
   45.9900   34.7700   42.8770 C   0  0  0  0  0  0  0  0  0  0  0  0
   46.1840   33.8940   43.8960 N   0  0  0  0  0  0  0  0  0  0  0  0
   45.6800   33.4550   45.9440 H   0  0  0  0  0  0  0  0  0  0  0  0
   44.2420   35.4120   46.2300 H   0  0  0  0  0  0  0  0  0  0  0  0
   43.9410   36.9800   44.2830 H   0  0  0  0  0  0  0  0  0  0  0  0
   45.5100   33.0720   37.2950 C   0  0  1  0  0  3  0  0  0  0  0  0
   45.9980   32.4430   38.5860 C   0  0  2  0  0  3  0  0  0  0  0  0
   44.8290   31.8650   39.0490 O   0  0  0  0  0  0  0  0  0  0  0  0
   44.4780   31.0620   37.9430 C   0  0  0  0  0  2  0  0  0  0  0  0
   44.7550   31.8770   36.7160 C   0  0  2  0  0  3  0  0  0  0  0  0
   44.5320   34.0410   37.5410 O   0  0  0  0  0  0  0  0  0  0  0  0
   43.6550   33.6320   37.7570 H   0  0  0  0  0  0  0  0  0  0  0  0
   45.6450   31.2160   35.8590 O   0  0  0  0  0  0  0  0  0  0  0  0
   46.2390   30.6440   36.3800 H   0  0  0  0  0  0  0  0  0  0  0  0
  2  1  1  0  0  0  0
  2  3  1  0  0  0  0
  3 15  1  0  0  0  0
  4  3  2  0  0  0  0
  4  8  1  0  0  0  0
  5  4  1  0  0  0  0
  6  7  1  0  0  0  0
  6  5  2  0  0  0  0
  7  2  2  0  0  0  0
  9  5  1  0  0  0  0
 10  6  1  0  0  0  0
 11 12  1  0  0  0  0
 11 17  1  0  0  0  0
 12 18  1  0  0  0  0
 13 19  1  0  0  0  0
 13 12  2  0  0  0  0
 14 13  1  0  0  0  0
 15 14  2  0  0  0  0
 15 16  1  0  0  0  0
 16 11  2  0  0  0  0
 20 25  1  1  0  0  0
 20 21  1  0  0  0  0
 21 22  1  0  0  0  0
 21  7  1  1  0  0  0
 23 22  1  0  0  0  0
 24 27  1  6  0  0  0
 24 20  1  0  0  0  0
 24 23  1  0  0  0  0
 25 26  1  0  0  0  0
 27 28  1  0  0  0  0
M  END
>  <minimizedAffinity>
-5.52238989

>  <minimizedRMSD>
0.72337991

$$$$
