
     RDKit          3D

 45 48  0  0  0  0  0  0  0  0999 V2000
   47.1883   34.5691   42.0205 C   0  0  1  0  0  0  0  0  0  0  0  0
   48.3248   35.4562   41.7362 C   0  0  0  0  0  0  0  0  0  0  0  0
   48.5836   34.1062   42.2987 C   0  0  2  0  0  0  0  0  0  0  0  0
   45.4903   36.0237   43.1500 C   0  0  0  0  0  0  0  0  0  0  0  0
   46.2808   34.8477   43.1669 C   0  0  0  0  0  0  0  0  0  0  0  0
   46.1751   33.9907   44.2461 C   0  0  0  0  0  0  0  0  0  0  0  0
   45.3168   34.3150   45.2430 N   0  0  0  0  0  0  0  0  0  0  0  0
   44.5642   35.4454   45.2151 C   0  0  0  0  0  0  0  0  0  0  0  0
   44.6434   36.3040   44.1761 N   0  0  0  0  0  0  0  0  0  0  0  0
   49.3075   33.1938   41.4705 N   0  0  0  0  0  0  0  0  0  0  0  0
   50.6498   33.1171   42.0057 C   0  0  0  0  0  0  0  0  0  0  0  0
   51.3430   31.8222   41.8176 C   0  0  0  0  0  0  0  0  0  0  0  0
   50.6013   30.7153   42.5046 C   0  0  0  0  0  0  0  0  0  0  0  0
   49.1430   30.9884   42.5818 C   0  0  0  0  0  0  0  0  0  0  0  0
   48.7360   31.8841   41.4232 C   0  0  2  0  0  0  0  0  0  0  0  0
   46.6669   34.0510   41.1958 H   0  0  0  0  0  0  0  0  0  0  0  0
   48.4613   36.3550   42.3741 H   0  0  0  0  0  0  0  0  0  0  0  0
   48.5816   35.6532   40.6666 H   0  0  0  0  0  0  0  0  0  0  0  0
   48.8863   34.0954   43.3835 H   0  0  0  0  0  0  0  0  0  0  0  0
   45.6166   36.6582   42.2762 H   0  0  0  0  0  0  0  0  0  0  0  0
   46.7729   33.0906   44.2708 H   0  0  0  0  0  0  0  0  0  0  0  0
   43.8806   35.6965   46.0165 H   0  0  0  0  0  0  0  0  0  0  0  0
   50.6023   33.2972   43.1124 H   0  0  0  0  0  0  0  0  0  0  0  0
   51.2921   33.9614   41.6331 H   0  0  0  0  0  0  0  0  0  0  0  0
   52.3078   31.9241   42.4164 H   0  0  0  0  0  0  0  0  0  0  0  0
   51.7143   31.5948   40.8082 H   0  0  0  0  0  0  0  0  0  0  0  0
   50.7282   29.7507   41.9509 H   0  0  0  0  0  0  0  0  0  0  0  0
   51.0095   30.4934   43.5222 H   0  0  0  0  0  0  0  0  0  0  0  0
   48.9068   31.5716   43.4961 H   0  0  0  0  0  0  0  0  0  0  0  0
   48.5174   30.0777   42.4941 H   0  0  0  0  0  0  0  0  0  0  0  0
   47.6508   32.0700   41.6611 H   0  0  0  0  0  0  0  0  0  0  0  0
   49.3801   32.4574   38.1775 O   0  0  0  0  0  0  0  0  0  0  0  0
   48.3034   32.0392   38.9531 C   0  0  2  0  0  0  0  0  0  0  0  0
   48.7394   31.1836   40.1180 C   0  0  2  0  0  0  0  0  0  0  0  0
   47.8712   30.0776   40.1121 O   0  0  0  0  0  0  0  0  0  0  0  0
   47.8168   29.7613   38.7337 C   0  0  0  0  0  0  0  0  0  0  0  0
   47.4004   31.0941   38.1538 C   0  0  2  0  0  0  0  0  0  0  0  0
   47.7167   31.1954   36.8031 O   0  0  0  0  0  0  0  0  0  0  0  0
   49.3023   33.4329   38.0692 H   0  0  0  0  0  0  0  0  0  0  0  0
   47.7061   32.8768   39.3124 H   0  0  0  0  0  0  0  0  0  0  0  0
   49.7226   30.7574   39.7996 H   0  0  0  0  0  0  0  0  0  0  0  0
   48.8493   29.5583   38.3835 H   0  0  0  0  0  0  0  0  0  0  0  0
   47.0997   28.9628   38.5221 H   0  0  0  0  0  0  0  0  0  0  0  0
   46.3422   31.3260   38.3633 H   0  0  0  0  0  0  0  0  0  0  0  0
   48.7094   31.3661   36.7372 H   0  0  0  0  0  0  0  0  0  0  0  0
  1  3  1  0
  1  5  1  0
  2  1  1  0
  2  3  1  0
  4  9  2  0
  5  4  1  0
  5  6  2  0
  6  7  1  0
  8  7  2  0
  9  8  1  0
 10 11  1  0
 10  3  1  0
 12 11  1  0
 12 13  1  0
 13 14  1  0
 15 10  1  0
 15 14  1  0
  1 16  1  6
  2 17  1  0
  2 18  1  0
  3 19  1  1
  4 20  1  0
  6 21  1  0
  8 22  1  0
 11 23  1  0
 11 24  1  0
 12 25  1  0
 12 26  1  0
 13 27  1  0
 13 28  1  0
 14 29  1  0
 14 30  1  0
 15 31  1  1
 32 33  1  0
 33 34  1  0
 34 35  1  0
 35 36  1  0
 36 37  1  0
 37 38  1  0
 37 33  1  0
 32 39  1  0
 33 40  1  1
 34 41  1  6
 36 42  1  0
 36 43  1  0
 37 44  1  6
 38 45  1  0
 15 34  1  0
M  ISO  8  16  13  17  13  18  13  19  13  20  14  21  14  22  14  23  13
M  ISO  8  24  13  25  13  26  13  27  13  28  13  29  13  30  13  31  13
M  END
>  <DihAtoms>  (1) 
9,14,33,32

>  <DihDeg>  (1) 
-60.391556117568165

$$$$
