
     RDKit          3D

 44 47  0  0  0  0  0  0  0  0999 V2000
   45.6212   34.6390   42.0691 C   0  0  0  0  0  0  0  0  0  0  0  0
   44.9154   35.6895   42.6150 C   0  0  0  0  0  0  0  0  0  0  0  0
   43.5587   35.5203   42.2736 C   0  0  0  0  0  0  0  0  0  0  0  0
   43.5104   34.4041   41.5589 N   0  0  0  0  0  0  0  0  0  0  0  0
   44.7009   33.8817   41.4314 N   0  0  0  0  0  0  0  0  0  0  0  0
   49.3554   35.1570   41.9723 C   0  0  0  0  0  0  0  0  0  0  0  0
   47.9720   35.4417   41.8526 C   0  0  0  0  0  0  0  0  0  0  0  0
   47.0672   34.4288   42.1685 C   0  0  0  0  0  0  0  0  0  0  0  0
   47.5319   33.2331   42.5703 N   0  0  0  0  0  0  0  0  0  0  0  0
   48.8625   32.9793   42.6785 C   0  0  0  0  0  0  0  0  0  0  0  0
   49.7408   33.9472   42.3770 N   0  0  0  0  0  0  0  0  0  0  0  0
   42.3468   33.7322   39.6205 N   0  0  0  0  0  0  0  0  0  0  0  0
   42.2542   33.9275   41.0646 C   0  0  2  0  0  0  0  0  0  0  0  0
   41.1466   34.8025   41.4570 C   0  0  0  0  0  0  0  0  0  0  0  0
   40.3765   35.4007   40.3783 N   0  0  0  0  0  0  0  0  0  0  0  0
   41.0203   35.6059   39.1406 C   0  0  0  0  0  0  0  0  0  0  0  0
   42.4229   35.0834   39.0868 C   0  0  2  0  0  0  0  0  0  0  0  0
   45.4218   36.4618   43.1932 H   0  0  0  0  0  0  0  0  0  0  0  0
   42.9460   36.3215   42.6720 H   0  0  0  0  0  0  0  0  0  0  0  0
   49.9363   36.0189   41.7001 H   0  0  0  0  0  0  0  0  0  0  0  0
   47.5548   36.4017   41.5292 H   0  0  0  0  0  0  0  0  0  0  0  0
   49.2321   32.0082   43.0045 H   0  0  0  0  0  0  0  0  0  0  0  0
   43.2720   33.2659   39.4385 H   0  0  0  0  0  0  0  0  0  0  0  0
   42.1895   32.8631   41.4581 H   0  0  0  0  0  0  0  0  0  0  0  0
   40.3699   34.0713   41.8871 H   0  0  0  0  0  0  0  0  0  0  0  0
   41.2368   35.4845   42.2884 H   0  0  0  0  0  0  0  0  0  0  0  0
   39.3863   35.1740   40.3465 H   0  0  0  0  0  0  0  0  0  0  0  0
   41.1015   36.7198   38.9911 H   0  0  0  0  0  0  0  0  0  0  0  0
   40.3704   35.2560   38.3378 H   0  0  0  0  0  0  0  0  0  0  0  0
   43.0592   35.6903   39.7257 H   0  0  0  0  0  0  0  0  0  0  0  0
   45.0951   33.8589   38.2476 O   0  0  0  0  0  0  0  0  0  0  0  0
   43.9721   33.9070   37.4659 C   0  0  1  0  0  0  0  0  0  0  0  0
   43.0180   34.9988   37.7392 C   0  0  2  0  0  0  0  0  0  0  0  0
   43.7409   36.1377   37.3927 O   0  0  0  0  0  0  0  0  0  0  0  0
   44.5827   35.8408   36.3562 C   0  0  0  0  0  0  0  0  0  0  0  0
   44.4544   34.3506   36.0771 C   0  0  1  0  0  0  0  0  0  0  0  0
   45.6441   33.7599   35.7137 O   0  0  0  0  0  0  0  0  0  0  0  0
   45.6208   34.6710   38.2701 H   0  0  0  0  0  0  0  0  0  0  0  0
   43.5315   32.9030   37.3707 H   0  0  0  0  0  0  0  0  0  0  0  0
   42.2081   34.9190   36.9765 H   0  0  0  0  0  0  0  0  0  0  0  0
   45.6314   36.0111   36.7320 H   0  0  0  0  0  0  0  0  0  0  0  0
   44.4374   36.4491   35.4431 H   0  0  0  0  0  0  0  0  0  0  0  0
   43.6125   34.1738   35.3785 H   0  0  0  0  0  0  0  0  0  0  0  0
   45.4599   33.0770   35.0189 H   0  0  0  0  0  0  0  0  0  0  0  0
  1  8  1  0
  1  2  1  0
  3  2  2  0
  4  3  1  0
  5  4  1  0
  5  1  2  0
  6 11  2  0
  7  6  1  0
  7  8  2  0
  8  9  1  0
  9 10  2  0
 11 10  1  0
 12 13  1  0
 13 14  1  0
 13  4  1  0
 15 14  1  0
 16 15  1  0
 17 16  1  0
 17 12  1  0
  2 18  1  0
  3 19  1  0
  6 20  1  0
  7 21  1  0
 10 22  1  0
 12 23  1  0
 13 24  1  1
 14 25  1  0
 14 26  1  0
 15 27  1  0
 16 28  1  0
 16 29  1  0
 17 30  1  1
 31 32  1  0
 32 33  1  0
 33 34  1  0
 34 35  1  0
 35 36  1  0
 36 37  1  0
 36 32  1  0
 31 38  1  0
 32 39  1  6
 33 40  1  6
 35 41  1  0
 35 42  1  0
 36 43  1  6
 37 44  1  0
 17 33  1  0
M  ISO  8  18  14  19  14  20  14  21  14  22  14  23   5  24  13  25  13
M  ISO  5  26  13  27   5  28  13  29  13  30  13
M  END
>  <DihAtoms>  (1) 
15,16,32,31

>  <DihDeg>  (1) 
-56.976540544787184

$$$$
