
 OpenBabel03252507073D

 24 25  0  0  1  0  0  0  0  0999 V2000
   44.8280   35.1580   44.9200 C   0  0  0  0  0  0  0  0  0  0  0  0
   45.3810   35.4260   43.6570 C   0  0  0  0  0  0  0  0  0  0  0  0
   46.4470   34.6360   43.2500 C   0  0  0  0  0  0  0  0  0  0  0  0
   46.9110   33.6440   44.0740 N   0  0  0  0  0  0  0  0  0  0  0  0
   46.3520   33.4160   45.2830 C   0  0  0  0  0  0  0  0  0  0  0  0
   45.3190   34.1700   45.6970 N   0  0  0  0  0  0  0  0  0  0  0  0
   43.9940   35.7710   45.2470 H   0  0  0  0  0  0  0  0  0  0  0  0
   44.9450   36.2260   43.0860 H   0  0  0  0  0  0  0  0  0  0  0  0
   45.8230   31.3200   46.4940 C   0  0  2  0  0  3  0  0  0  0  0  0
   46.9200   32.3200   46.1110 C   0  0  1  0  0  3  0  0  0  0  0  0
   47.8510   31.5630   45.4150 O   0  0  0  0  0  0  0  0  0  0  0  0
   47.8190   30.2840   45.8960 C   0  0  0  0  0  2  0  0  0  0  0  0
   46.6830   30.1320   46.8640 C   0  0  2  0  0  3  0  0  0  0  0  0
   45.1170   31.0650   45.3150 O   0  0  0  0  0  0  0  0  0  0  0  0
   45.6430   31.3160   44.4950 H   0  0  0  0  0  0  0  0  0  0  0  0
   45.9590   28.9620   46.6590 O   0  0  0  0  0  0  0  0  0  0  0  0
   45.2980   29.0640   45.9240 H   0  0  0  0  0  0  0  0  0  0  0  0
   46.9920   34.9070   41.9940 O   0  0  0  0  0  0  0  0  0  0  0  0
   48.9860   33.3730   41.1670 O   0  0  0  0  0  0  0  0  0  0  0  0
   48.6870   34.7460   41.7610 P   0  0  0  0  0  0  0  0  0  0  0  0
   49.2050   35.9820   40.7660 O   0  0  0  0  0  0  0  0  0  0  0  0
   48.7730   35.8900   39.9010 H   0  0  0  0  0  0  0  0  0  0  0  0
   49.4130   34.8230   43.2920 O   0  0  0  0  0  0  0  0  0  0  0  0
   49.2460   33.9590   43.7450 H   0  0  0  0  0  0  0  0  0  0  0  0
  1  7  1  0  0  0  0
  1  6  1  0  0  0  0
  2  1  2  0  0  0  0
  3  2  1  0  0  0  0
  3  4  2  0  0  0  0
  4  5  1  0  0  0  0
  5  6  2  0  0  0  0
  8  2  1  0  0  0  0
  9 14  1  6  0  0  0
  9 13  1  0  0  0  0
 10  5  1  6  0  0  0
 10  9  1  0  0  0  0
 11 12  1  0  0  0  0
 11 10  1  0  0  0  0
 12 13  1  0  0  0  0
 13 16  1  6  0  0  0
 15 14  1  0  0  0  0
 17 16  1  0  0  0  0
 18  3  1  0  0  0  0
 19 20  2  0  0  0  0
 20 18  1  0  0  0  0
 20 23  1  0  0  0  0
 21 20  1  0  0  0  0
 22 21  1  0  0  0  0
 23 24  1  0  0  0  0
M  END
>  <minimizedAffinity>
-5.1037674

>  <minimizedRMSD>
0.998174906

$$$$
