
     RDKit          3D

 30 32  0  0  0  0  0  0  0  0999 V2000
   44.5863   35.9066   44.3182 C   0  0  0  0  0  0  0  0  0  0  0  0
   45.3395   35.9141   43.1042 C   0  0  0  0  0  0  0  0  0  0  0  0
   46.2965   34.9251   43.0194 C   0  0  0  0  0  0  0  0  0  0  0  0
   46.4678   34.0247   44.0565 N   0  0  0  0  0  0  0  0  0  0  0  0
   45.7419   34.0470   45.1792 C   0  0  0  0  0  0  0  0  0  0  0  0
   44.7863   35.0067   45.3076 N   0  0  0  0  0  0  0  0  0  0  0  0
   47.0790   34.7973   41.7426 C   0  0  0  0  0  0  0  0  0  0  0  0
   48.4659   35.4617   41.8860 C   0  0  0  0  0  0  0  0  0  0  0  0
   48.2338   33.9308   41.7443 C   0  0  0  0  0  0  0  0  0  0  0  0
   43.8039   36.5252   44.6690 H   0  0  0  0  0  0  0  0  0  0  0  0
   46.0370   33.2592   45.8525 H   0  0  0  0  0  0  0  0  0  0  0  0
   46.6183   35.1706   40.7932 H   0  0  0  0  0  0  0  0  0  0  0  0
   48.8889   35.9066   40.9705 H   0  0  0  0  0  0  0  0  0  0  0  0
   48.7615   35.8321   42.8605 H   0  0  0  0  0  0  0  0  0  0  0  0
   48.5873   33.4608   40.7810 H   0  0  0  0  0  0  0  0  0  0  0  0
   48.5071   33.3398   42.6543 H   0  0  0  0  0  0  0  0  0  0  0  0
   44.0716   38.7853   43.5188 O   0  0  0  0  0  0  0  0  0  0  0  0
   43.8088   37.8482   42.6039 C   0  0  1  0  0  0  0  0  0  0  0  0
   44.9357   36.9369   42.1840 C   0  0  2  0  0  0  0  0  0  0  0  0
   44.2107   36.3176   41.1221 O   0  0  0  0  0  0  0  0  0  0  0  0
   42.9925   35.9126   41.6698 C   0  0  0  0  0  0  0  0  0  0  0  0
   42.7196   36.8678   42.8434 C   0  0  2  0  0  0  0  0  0  0  0  0
   41.4494   37.4611   42.7054 O   0  0  0  0  0  0  0  0  0  0  0  0
   44.9996   39.0721   43.4997 H   0  0  0  0  0  0  0  0  0  0  0  0
   43.5311   38.3841   41.6441 H   0  0  0  0  0  0  0  0  0  0  0  0
   45.7721   37.4700   41.6933 H   0  0  0  0  0  0  0  0  0  0  0  0
   42.9980   34.8685   41.9827 H   0  0  0  0  0  0  0  0  0  0  0  0
   42.2364   36.1638   40.8974 H   0  0  0  0  0  0  0  0  0  0  0  0
   42.7820   36.3149   43.7972 H   0  0  0  0  0  0  0  0  0  0  0  0
   40.8382   36.9022   43.2474 H   0  0  0  0  0  0  0  0  0  0  0  0
  1  6  2  0
  2  1  1  0
  3  2  2  0
  3  4  1  0
  4  5  2  0
  5  6  1  0
  7  8  1  0
  7  9  1  0
  7  3  1  0
  8  9  1  0
  1 10  1  0
  5 11  1  0
  7 12  1  0
  8 13  1  0
  8 14  1  0
  9 15  1  0
  9 16  1  0
 17 18  1  0
 18 19  1  0
 19 20  1  0
 20 21  1  0
 21 22  1  0
 22 23  1  0
 22 18  1  0
 17 24  1  0
 18 25  1  6
 19 26  1  6
 21 27  1  0
 21 28  1  0
 22 29  1  1
 23 30  1  0
  2 19  1  0
M  ISO  7  10  14  11  14  12  13  13  13  14  13  15  13  16  13
M  END
>  <DihAtoms>  (1) 
0,1,18,17

>  <DihDeg>  (1) 
-29.734610506311768

$$$$
