REMARK  Name = 
REMARK  4 active torsions:
REMARK  status: ('A' for Active; 'I' for Inactive)
REMARK    1  A    between atoms: C_3  and  C_13
REMARK    2  A    between atoms: C_5  and  C_22
REMARK    3  A    between atoms: O_20  and  C_21
REMARK    4  A    between atoms: C_25  and  O_26
REMARK                            x       y       z     vdW  Elec       q    Type
REMARK                         _______ _______ _______ _____ _____    ______ ____
ROOT
ATOM      1 CL   UNL     1      44.974  36.011  43.274  0.00  0.00    +0.000 Cl
ATOM      2  C   UNL     1      45.676  34.692  44.161  0.00  0.00    +0.000 A 
ATOM      3  C   UNL     1      46.688  33.966  43.615  0.00  0.00    +0.000 A 
ATOM      4  C   UNL     1      47.187  32.936  44.390  0.00  0.00    +0.000 A 
ATOM      5  C   UNL     1      46.733  32.607  45.653  0.00  0.00    +0.000 A 
ATOM      6  C   UNL     1      45.712  33.364  46.168  0.00  0.00    +0.000 A 
ATOM      7 CL   UNL     1      45.167  32.913  47.771  0.00  0.00    +0.000 Cl
ATOM      8  C   UNL     1      45.187  34.396  45.432  0.00  0.00    +0.000 A 
ATOM      9  H   UNL     1      48.001  32.344  43.962  0.00  0.00    +0.000 HD
ATOM     10  H   UNL     1      44.382  34.952  45.899  0.00  0.00    +0.000 HD
ENDROOT
BRANCH   3  15
ATOM     11  C   UNL     1      48.751  35.396  40.956  0.00  0.00    +0.000 A 
ATOM     12  C   UNL     1      48.267  34.784  39.803  0.00  0.00    +0.000 A 
ATOM     13  C   UNL     1      47.212  33.864  39.937  0.00  0.00    +0.000 A 
ATOM     14  N   UNL     1      46.735  33.632  41.186  0.00  0.00    +0.000 NA
ATOM     15  C   UNL     1      47.228  34.243  42.290  0.00  0.00    +0.000 A 
ATOM     16  N   UNL     1      48.237  35.126  42.174  0.00  0.00    +0.000 NA
ATOM     17  H   UNL     1      49.571  36.104  40.805  0.00  0.00    +0.000 HD
ATOM     18  H   UNL     1      48.602  34.929  38.806  0.00  0.00    +0.000 HD
ATOM     19  H   UNL     1      46.714  33.300  39.169  0.00  0.00    +0.000 HD
ENDBRANCH   3  15
BRANCH   5  21
ATOM     20  C   UNL     1      46.485  30.242  46.404  0.00  0.00    +0.000 C 
ATOM     21  C   UNL     1      47.350  31.487  46.372  0.00  0.00    +0.000 C 
ATOM     22  O   UNL     1      48.493  30.999  45.765  0.00  0.00    +0.000 OA
ATOM     23  C   UNL     1      48.809  29.885  46.534  0.00  0.00    +0.000 C 
ATOM     24  C   UNL     1      47.493  29.218  46.880  0.00  0.00    +0.000 C 
BRANCH  20  25
ATOM     25  O   UNL     1      46.106  29.852  45.119  0.00  0.00    +0.000 OA
ATOM     26  H   UNL     1      45.644  30.572  44.610  0.00  0.00    +0.000 HD
ENDBRANCH  20  25
BRANCH  24  27
ATOM     27  O   UNL     1      47.331  29.159  48.284  0.00  0.00    +0.000 OA
ATOM     28  H   UNL     1      47.754  29.949  48.711  0.00  0.00    +0.000 HD
ENDBRANCH  24  27
ENDBRANCH   5  21
TORSDOF 4
