
     RDKit          3D

 24 25  0  0  0  0  0  0  0  0999 V2000
   45.0013   35.4855   44.1871 C   0  0  0  0  0  0  0  0  0  0  0  0
   45.9784   34.9304   43.3427 C   0  0  0  0  0  0  0  0  0  0  0  0
   46.7082   33.8403   43.8352 C   0  0  0  0  0  0  0  0  0  0  0  0
   46.4420   33.3750   45.0907 N   0  0  0  0  0  0  0  0  0  0  0  0
   45.4928   33.9440   45.8618 C   0  0  0  0  0  0  0  0  0  0  0  0
   44.7839   34.9812   45.4194 N   0  0  0  0  0  0  0  0  0  0  0  0
   44.2913   36.5466   43.7071 O   0  0  0  0  0  0  0  0  0  0  0  0
   46.2046   35.2799   42.3522 H   0  0  0  0  0  0  0  0  0  0  0  0
   45.3360   33.5179   46.8541 H   0  0  0  0  0  0  0  0  0  0  0  0
   44.7777   37.2351   43.1450 H   0  0  0  0  0  0  0  0  0  0  0  0
   48.4032   34.7675   41.4218 O   0  0  0  0  0  0  0  0  0  0  0  0
   48.8287   34.0384   42.5190 C   0  0  1  0  0  0  0  0  0  0  0  0
   47.7551   33.1423   43.1020 C   0  0  1  0  0  0  0  0  0  0  0  0
   48.5302   32.3341   43.9276 O   0  0  0  0  0  0  0  0  0  0  0  0
   49.6198   31.9327   43.1820 C   0  0  0  0  0  0  0  0  0  0  0  0
   49.8434   32.9647   42.1083 C   0  0  2  0  0  0  0  0  0  0  0  0
   51.1307   33.4626   42.0872 O   0  0  0  0  0  0  0  0  0  0  0  0
   48.8042   35.6914   41.3934 H   0  0  0  0  0  0  0  0  0  0  0  0
   49.2204   34.6346   43.3507 H   0  0  0  0  0  0  0  0  0  0  0  0
   47.4042   32.5014   42.2625 H   0  0  0  0  0  0  0  0  0  0  0  0
   50.5296   31.7509   43.8085 H   0  0  0  0  0  0  0  0  0  0  0  0
   49.3324   30.9385   42.7299 H   0  0  0  0  0  0  0  0  0  0  0  0
   49.5091   32.5371   41.1498 H   0  0  0  0  0  0  0  0  0  0  0  0
   51.5015   33.4957   41.1636 H   0  0  0  0  0  0  0  0  0  0  0  0
  1  6  2  0
  2  3  2  0
  2  1  1  0
  3  4  1  0
  4  5  2  0
  6  5  1  0
  7  1  1  0
  2  8  1  0
  5  9  1  0
  7 10  1  0
 11 12  1  0
 12 13  1  0
 13 14  1  0
 14 15  1  0
 15 16  1  0
 16 17  1  0
 16 12  1  0
 11 18  1  0
 12 19  1  1
 13 20  1  6
 15 21  1  0
 15 22  1  0
 16 23  1  6
 17 24  1  0
  3 13  1  0
M  ISO  3   8  14   9  14  10   3
M  END
>  <DihAtoms>  (1) 
1,2,12,11

>  <DihDeg>  (1) 
21.352162942984876

$$$$
