
 OpenBabel03242510093D

 28 30  0  0  1  0  0  0  0  0999 V2000
   44.7870   32.7070   41.3590 Br  0  0  0  0  0  0  0  0  0  0  0  0
   46.3650   33.7320   40.9890 C   0  0  0  0  0  0  0  0  0  0  0  0
   46.8290   34.6460   41.9190 C   0  0  0  0  0  0  0  0  0  0  0  0
   47.9700   35.3950   41.6620 C   0  0  0  0  0  0  0  0  0  0  0  0
   48.6180   35.2020   40.4730 C   0  0  0  0  0  0  0  0  0  0  0  0
   48.1340   34.2890   39.5730 C   0  0  0  0  0  0  0  0  0  0  0  0
   47.0180   33.5400   39.7940 C   0  0  0  0  0  0  0  0  0  0  0  0
   48.3410   36.1060   42.3700 H   0  0  0  0  0  0  0  0  0  0  0  0
   49.5110   35.7740   40.2490 H   0  0  0  0  0  0  0  0  0  0  0  0
   48.6640   34.1570   38.6430 H   0  0  0  0  0  0  0  0  0  0  0  0
   45.6690   34.0430   45.3270 C   0  0  0  0  0  0  0  0  0  0  0  0
   44.7280   35.0790   45.5420 C   0  0  0  0  0  0  0  0  0  0  0  0
   44.5070   35.9780   44.4910 C   0  0  0  0  0  0  0  0  0  0  0  0
   45.2060   35.8010   43.3450 N   0  0  0  0  0  0  0  0  0  0  0  0
   46.0980   34.8060   43.1620 C   0  0  0  0  0  0  0  0  0  0  0  0
   46.3240   33.9240   44.1690 N   0  0  0  0  0  0  0  0  0  0  0  0
   45.7790   33.3950   46.1850 H   0  0  0  0  0  0  0  0  0  0  0  0
   44.1730   35.2200   46.4530 H   0  0  0  0  0  0  0  0  0  0  0  0
   43.8200   36.8060   44.5300 H   0  0  0  0  0  0  0  0  0  0  0  0
   45.7990   33.1730   37.6410 C   0  0  1  0  0  3  0  0  0  0  0  0
   46.4910   32.5630   38.8450 C   0  0  2  0  0  3  0  0  0  0  0  0
   45.4910   31.7340   39.3220 O   0  0  0  0  0  0  0  0  0  0  0  0
   45.2230   30.9590   38.1750 C   0  0  0  0  0  2  0  0  0  0  0  0
   45.2500   31.8970   37.0070 C   0  0  2  0  0  3  0  0  0  0  0  0
   44.6750   33.9110   38.0210 O   0  0  0  0  0  0  0  0  0  0  0  0
   43.9100   33.3230   38.2510 H   0  0  0  0  0  0  0  0  0  0  0  0
   46.1860   31.4880   36.0490 O   0  0  0  0  0  0  0  0  0  0  0  0
   46.9150   31.0080   36.4850 H   0  0  0  0  0  0  0  0  0  0  0  0
  2  1  1  0  0  0  0
  2  3  1  0  0  0  0
  3 15  1  0  0  0  0
  4  3  2  0  0  0  0
  4  8  1  0  0  0  0
  5  4  1  0  0  0  0
  6  7  1  0  0  0  0
  6  5  2  0  0  0  0
  7  2  2  0  0  0  0
  9  5  1  0  0  0  0
 10  6  1  0  0  0  0
 11 12  1  0  0  0  0
 11 17  1  0  0  0  0
 12 18  1  0  0  0  0
 13 19  1  0  0  0  0
 13 12  2  0  0  0  0
 14 13  1  0  0  0  0
 15 14  2  0  0  0  0
 15 16  1  0  0  0  0
 16 11  2  0  0  0  0
 20 25  1  1  0  0  0
 20 21  1  0  0  0  0
 21 22  1  0  0  0  0
 21  7  1  1  0  0  0
 23 22  1  0  0  0  0
 24 27  1  6  0  0  0
 24 20  1  0  0  0  0
 24 23  1  0  0  0  0
 25 26  1  0  0  0  0
 27 28  1  0  0  0  0
M  END
>  <minimizedAffinity>
-5.591537

>  <minimizedRMSD>
0.468778908

$$$$
