REMARK  Name = 
REMARK  5 active torsions:
REMARK  status: ('A' for Active; 'I' for Inactive)
REMARK    1  A    between atoms: C_1  and  C_5
REMARK    2  A    between atoms: C_3  and  N_10
REMARK    3  A    between atoms: C_15  and  C_34
REMARK    4  A    between atoms: O_32  and  C_33
REMARK    5  A    between atoms: C_37  and  O_38
REMARK                            x       y       z     vdW  Elec       q    Type
REMARK                         _______ _______ _______ _____ _____    ______ ____
ROOT
ATOM      1  N   UNL     1      49.307  33.194  41.471  0.00  0.00    +0.000 NA
ATOM      2  C   UNL     1      50.650  33.117  42.006  0.00  0.00    +0.000 C 
ATOM      3  C   UNL     1      51.343  31.822  41.818  0.00  0.00    +0.000 C 
ATOM      4  C   UNL     1      50.601  30.715  42.505  0.00  0.00    +0.000 C 
ATOM      5  C   UNL     1      49.143  30.988  42.582  0.00  0.00    +0.000 C 
ATOM      6  C   UNL     1      48.736  31.884  41.423  0.00  0.00    +0.000 C 
ATOM      7  H   UNL     1      50.602  33.297  43.112  0.00  0.00    +0.000 HD
ATOM      8  H   UNL     1      51.292  33.961  41.633  0.00  0.00    +0.000 HD
ATOM      9  H   UNL     1      52.308  31.924  42.416  0.00  0.00    +0.000 HD
ATOM     10  H   UNL     1      51.714  31.595  40.808  0.00  0.00    +0.000 HD
ATOM     11  H   UNL     1      50.728  29.751  41.951  0.00  0.00    +0.000 HD
ATOM     12  H   UNL     1      51.010  30.493  43.522  0.00  0.00    +0.000 HD
ATOM     13  H   UNL     1      48.907  31.572  43.496  0.00  0.00    +0.000 HD
ATOM     14  H   UNL     1      48.517  30.078  42.494  0.00  0.00    +0.000 HD
ATOM     15  H   UNL     1      47.651  32.070  41.661  0.00  0.00    +0.000 HD
ENDROOT
BRANCH   1  18
ATOM     16  C   UNL     1      47.188  34.569  42.020  0.00  0.00    +0.000 C 
ATOM     17  C   UNL     1      48.325  35.456  41.736  0.00  0.00    +0.000 C 
ATOM     18  C   UNL     1      48.584  34.106  42.299  0.00  0.00    +0.000 C 
ATOM     19  H   UNL     1      46.667  34.051  41.196  0.00  0.00    +0.000 HD
ATOM     20  H   UNL     1      48.461  36.355  42.374  0.00  0.00    +0.000 HD
ATOM     21  H   UNL     1      48.582  35.653  40.667  0.00  0.00    +0.000 HD
ATOM     22  H   UNL     1      48.886  34.095  43.383  0.00  0.00    +0.000 HD
BRANCH  16  24
ATOM     23  C   UNL     1      45.490  36.024  43.150  0.00  0.00    +0.000 A 
ATOM     24  C   UNL     1      46.281  34.848  43.167  0.00  0.00    +0.000 A 
ATOM     25  C   UNL     1      46.175  33.991  44.246  0.00  0.00    +0.000 A 
ATOM     26  N   UNL     1      45.317  34.315  45.243  0.00  0.00    +0.000 NA
ATOM     27  C   UNL     1      44.564  35.445  45.215  0.00  0.00    +0.000 A 
ATOM     28  N   UNL     1      44.643  36.304  44.176  0.00  0.00    +0.000 NA
ATOM     29  H   UNL     1      45.617  36.658  42.276  0.00  0.00    +0.000 HD
ATOM     30  H   UNL     1      46.773  33.091  44.271  0.00  0.00    +0.000 HD
ATOM     31  H   UNL     1      43.881  35.697  46.017  0.00  0.00    +0.000 HD
ENDBRANCH  16  24
ENDBRANCH   1  18
BRANCH   6  33
ATOM     32  C   UNL     1      48.303  32.039  38.953  0.00  0.00    +0.000 C 
ATOM     33  C   UNL     1      48.739  31.184  40.118  0.00  0.00    +0.000 C 
ATOM     34  O   UNL     1      47.871  30.078  40.112  0.00  0.00    +0.000 OA
ATOM     35  C   UNL     1      47.817  29.761  38.734  0.00  0.00    +0.000 C 
ATOM     36  C   UNL     1      47.400  31.094  38.154  0.00  0.00    +0.000 C 
BRANCH  32  37
ATOM     37  O   UNL     1      49.380  32.457  38.178  0.00  0.00    +0.000 OA
ATOM     38  H   UNL     1      49.302  33.433  38.069  0.00  0.00    +0.000 HD
ENDBRANCH  32  37
BRANCH  36  39
ATOM     39  O   UNL     1      47.717  31.195  36.803  0.00  0.00    +0.000 OA
ATOM     40  H   UNL     1      48.709  31.366  36.737  0.00  0.00    +0.000 HD
ENDBRANCH  36  39
ENDBRANCH   6  33
TORSDOF 5
