
 OpenBabel03252507073D

 24 25  0  0  1  0  0  0  0  0999 V2000
   44.6220   36.0480   44.5360 C   0  0  0  0  0  0  0  0  0  0  0  0
   45.2560   36.0640   43.2820 C   0  0  0  0  0  0  0  0  0  0  0  0
   46.0580   34.9770   42.9630 C   0  0  0  0  0  0  0  0  0  0  0  0
   46.2010   33.9510   43.8590 N   0  0  0  0  0  0  0  0  0  0  0  0
   45.5740   33.9720   45.0570 C   0  0  0  0  0  0  0  0  0  0  0  0
   44.7920   35.0150   45.3860 N   0  0  0  0  0  0  0  0  0  0  0  0
   43.9930   36.8940   44.7940 H   0  0  0  0  0  0  0  0  0  0  0  0
   45.0800   36.9160   42.6500 H   0  0  0  0  0  0  0  0  0  0  0  0
   46.4880   31.6760   45.2230 C   0  0  2  0  0  3  0  0  0  0  0  0
   45.7860   32.8160   45.9670 C   0  0  1  0  0  3  0  0  0  0  0  0
   46.6400   33.1240   47.0160 O   0  0  0  0  0  0  0  0  0  0  0  0
   47.3100   31.9880   47.3780 C   0  0  0  0  0  2  0  0  0  0  0  0
   47.0080   30.8870   46.4050 C   0  0  2  0  0  3  0  0  0  0  0  0
   47.5460   32.2710   44.5290 O   0  0  0  0  0  0  0  0  0  0  0  0
   47.7820   33.1760   44.9030 H   0  0  0  0  0  0  0  0  0  0  0  0
   48.1470   30.1860   46.0210 O   0  0  0  0  0  0  0  0  0  0  0  0
   48.6480   30.6610   45.3040 H   0  0  0  0  0  0  0  0  0  0  0  0
   46.6850   34.9990   41.7150 O   0  0  0  0  0  0  0  0  0  0  0  0
   48.5740   33.3150   40.9360 O   0  0  0  0  0  0  0  0  0  0  0  0
   48.3680   34.6650   41.6140 P   0  0  0  0  0  0  0  0  0  0  0  0
   49.1040   35.9050   40.7740 O   0  0  0  0  0  0  0  0  0  0  0  0
   48.7480   35.9260   39.8710 H   0  0  0  0  0  0  0  0  0  0  0  0
   48.9500   34.5460   43.2030 O   0  0  0  0  0  0  0  0  0  0  0  0
   48.6520   33.6750   43.5660 H   0  0  0  0  0  0  0  0  0  0  0  0
  1  7  1  0  0  0  0
  1  6  1  0  0  0  0
  2  1  2  0  0  0  0
  3  2  1  0  0  0  0
  3  4  2  0  0  0  0
  4  5  1  0  0  0  0
  5  6  2  0  0  0  0
  8  2  1  0  0  0  0
  9 14  1  6  0  0  0
  9 10  1  0  0  0  0
  9 13  1  0  0  0  0
 10  5  1  6  0  0  0
 10 11  1  0  0  0  0
 11 12  1  0  0  0  0
 13 16  1  6  0  0  0
 13 12  1  0  0  0  0
 14 15  1  0  0  0  0
 17 16  1  0  0  0  0
 18  3  1  0  0  0  0
 19 20  2  0  0  0  0
 20 18  1  0  0  0  0
 20 23  1  0  0  0  0
 21 20  1  0  0  0  0
 22 21  1  0  0  0  0
 23 24  1  0  0  0  0
M  END
>  <minimizedAffinity>
-5.44937658

>  <minimizedRMSD>
0.181800231

$$$$
