
 OpenBabel03252502533D

 31 33  0  0  1  0  0  0  0  0999 V2000
   45.4220   30.0070   44.6140 Br  0  0  0  0  0  0  0  0  0  0  0  0
   45.9040   30.7750   46.3240 C   0  0  0  0  0  0  0  0  0  0  0  0
   46.6310   31.9330   46.2850 C   0  0  0  0  0  0  0  0  0  0  0  0
   46.9600   32.4550   47.5410 C   0  0  0  0  0  0  0  0  0  0  0  0
   46.5870   31.8650   48.7340 C   0  0  0  0  0  0  0  0  0  0  0  0
   45.8530   30.6970   48.6900 C   0  0  0  0  0  0  0  0  0  0  0  0
   45.4990   30.1330   47.4700 C   0  0  0  0  0  0  0  0  0  0  0  0
   47.5400   33.3790   47.5670 H   0  0  0  0  0  0  0  0  0  0  0  0
   46.8700   32.3140   49.6640 H   0  0  0  0  0  0  0  0  0  0  0  0
   45.5380   30.1970   49.5990 H   0  0  0  0  0  0  0  0  0  0  0  0
   45.5280   27.6550   47.6720 C   0  0  1  0  0  0  0  0  0  0  0  0
   44.7080   28.8750   47.4450 C   0  0  2  0  0  0  0  0  0  0  0  0
   43.9060   28.7220   46.3530 O   0  0  0  0  0  0  0  0  0  0  0  0
   44.0460   27.4470   45.8470 C   0  0  0  0  0  0  0  0  0  0  0  0
   45.3310   26.8810   46.3910 C   0  0  2  0  0  0  0  0  0  0  0  0
   46.8840   27.9300   47.8550 O   0  0  0  0  0  0  0  0  0  0  0  0
   47.3510   27.2130   48.3350 H   0  0  0  0  0  0  0  0  0  0  0  0
   45.2600   25.5060   46.6090 O   0  0  0  0  0  0  0  0  0  0  0  0
   44.8240   25.0930   45.8240 H   0  0  0  0  0  0  0  0  0  0  0  0
   47.0800   32.6440   45.0850 C   0  0  0  0  0  0  0  0  0  0  0  0
   47.0450   31.9590   44.2080 H   0  0  0  0  0  0  0  0  0  0  0  0
   48.1550   32.9610   45.1480 H   0  0  0  0  0  0  0  0  0  0  0  0
   44.5740   35.4060   45.2030 C   0  0  0  0  0  0  0  0  0  0  0  0
   44.7460   36.0050   43.9520 C   0  0  0  0  0  0  0  0  0  0  0  0
   45.6960   35.4640   43.1090 C   0  0  0  0  0  0  0  0  0  0  0  0
   46.4240   34.3870   43.5060 N   0  0  0  0  0  0  0  0  0  0  0  0
   46.2290   33.8200   44.7510 C   0  0  0  0  0  0  0  0  0  0  0  0
   45.3000   34.3550   45.5610 N   0  0  0  0  0  0  0  0  0  0  0  0
   43.8530   35.7560   45.9370 H   0  0  0  0  0  0  0  0  0  0  0  0
   44.1360   36.8530   43.7010 H   0  0  0  0  0  0  0  0  0  0  0  0
   45.8500   35.9090   42.1340 H   0  0  0  0  0  0  0  0  0  0  0  0
  1  2  1  0  0  0  0
  2  7  1  0  0  0  0
  3  2  2  0  0  0  0
  3  4  1  0  0  0  0
  4  8  1  0  0  0  0
  4  5  2  0  0  0  0
  5  9  1  0  0  0  0
  6  5  1  0  0  0  0
  6 10  1  0  0  0  0
  7  6  2  0  0  0  0
 11 16  1  6  0  0  0
 12  7  1  6  0  0  0
 12 11  1  0  0  0  0
 13 12  1  0  0  0  0
 14 13  1  0  0  0  0
 14 15  1  0  0  0  0
 15 18  1  1  0  0  0
 15 11  1  0  0  0  0
 16 17  1  0  0  0  0
 19 18  1  0  0  0  0
 20 22  1  0  0  0  0
 20  3  1  0  0  0  0
 21 20  1  0  0  0  0
 23 28  1  0  0  0  0
 23 29  1  0  0  0  0
 24 23  2  0  0  0  0
 25 26  2  0  0  0  0
 25 24  1  0  0  0  0
 26 27  1  0  0  0  0
 27 20  1  0  0  0  0
 27 28  2  0  0  0  0
 30 24  1  0  0  0  0
 31 25  1  0  0  0  0
M  END
>  <minimizedAffinity>
-5.36161995

>  <minimizedRMSD>
1.5035789

$$$$
