
 OpenBabel03252505153D

 25 27  0  0  1  0  0  0  0  0999 V2000
   44.4470   35.7760   44.3430 C   0  0  0  0  0  0  0  0  0  0  0  0
   45.2690   35.4020   43.2690 C   0  0  0  0  0  0  0  0  0  0  0  0
   46.2100   34.4220   43.5720 C   0  0  0  0  0  0  0  0  0  0  0  0
   46.2800   33.8980   44.8440 N   0  0  0  0  0  0  0  0  0  0  0  0
   45.4560   34.3030   45.8360 C   0  0  0  0  0  0  0  0  0  0  0  0
   44.5440   35.2470   45.5610 N   0  0  0  0  0  0  0  0  0  0  0  0
   43.7100   36.5250   44.1620 H   0  0  0  0  0  0  0  0  0  0  0  0
   45.2220   35.8030   42.2790 H   0  0  0  0  0  0  0  0  0  0  0  0
   47.1520   33.9100   42.5160 C   0  0  0  0  0  0  0  0  0  0  0  0
   47.8320   35.0240   41.7530 C   0  0  0  0  0  0  0  0  0  0  0  0
   48.5840   34.0790   42.7290 C   0  0  0  0  0  0  0  0  0  0  0  0
   46.7890   33.0390   41.9200 H   0  0  0  0  0  0  0  0  0  0  0  0
   47.9650   34.8160   40.6780 H   0  0  0  0  0  0  0  0  0  0  0  0
   47.6610   36.0510   42.0810 H   0  0  0  0  0  0  0  0  0  0  0  0
   49.3120   33.3930   42.2190 H   0  0  0  0  0  0  0  0  0  0  0  0
   48.9680   34.6040   43.6200 H   0  0  0  0  0  0  0  0  0  0  0  0
   46.8730   32.6090   46.9590 C   0  0  2  0  0  3  0  0  0  0  0  0
   45.7290   33.5900   47.1120 C   0  0  2  0  0  3  0  0  0  0  0  0
   44.6110   32.8660   47.5090 O   0  0  0  0  0  0  0  0  0  0  0  0
   45.0840   31.7280   48.1590 C   0  0  0  0  0  2  0  0  0  0  0  0
   46.1540   31.2860   47.1540 C   0  0  1  0  0  3  0  0  0  0  0  0
   47.7980   32.7310   47.9920 O   0  0  0  0  0  0  0  0  0  0  0  0
   48.3060   33.5850   47.9410 H   0  0  0  0  0  0  0  0  0  0  0  0
   45.5230   30.9780   45.9530 O   0  0  0  0  0  0  0  0  0  0  0  0
   44.6070   30.6320   46.1840 H   0  0  0  0  0  0  0  0  0  0  0  0
  1  6  1  0  0  0  0
  2  3  1  0  0  0  0
  2  1  2  0  0  0  0
  3  4  2  0  0  0  0
  4  5  1  0  0  0  0
  6  5  2  0  0  0  0
  7  1  1  0  0  0  0
  8  2  1  0  0  0  0
  9 11  1  0  0  0  0
  9  3  1  0  0  0  0
 10 14  1  0  0  0  0
 10  9  1  0  0  0  0
 10 11  1  0  0  0  0
 11 16  1  0  0  0  0
 12  9  1  0  0  0  0
 13 10  1  0  0  0  0
 15 11  1  0  0  0  0
 17 18  1  0  0  0  0
 17 21  1  0  0  0  0
 17 22  1  1  0  0  0
 18  5  1  6  0  0  0
 18 19  1  0  0  0  0
 19 20  1  0  0  0  0
 21 24  1  6  0  0  0
 21 20  1  0  0  0  0
 23 22  1  0  0  0  0
 24 25  1  0  0  0  0
M  END
>  <minimizedAffinity>
-4.78235531

>  <minimizedRMSD>
1.29193592

$$$$
