
     RDKit          3D

 38 40  0  0  0  0  0  0  0  0999 V2000
   44.8194   35.1565   45.0947 C   0  0  0  0  0  0  0  0  0  0  0  0
   45.7051   34.7873   44.0828 C   0  0  0  0  0  0  0  0  0  0  0  0
   46.5386   33.6976   44.3369 C   0  0  0  0  0  0  0  0  0  0  0  0
   46.4589   33.0600   45.5184 N   0  0  0  0  0  0  0  0  0  0  0  0
   45.5800   33.4611   46.4661 C   0  0  0  0  0  0  0  0  0  0  0  0
   44.7715   34.4924   46.2615 N   0  0  0  0  0  0  0  0  0  0  0  0
   45.7091   35.5661   42.8096 C   0  0  0  0  0  0  0  0  0  0  0  0
   45.1981   36.8008   43.1430 F   0  0  0  0  0  0  0  0  0  0  0  0
   44.8233   34.9097   41.9492 F   0  0  0  0  0  0  0  0  0  0  0  0
   46.9693   35.6019   42.3086 F   0  0  0  0  0  0  0  0  0  0  0  0
   45.4721   32.8228   47.7000 O   0  0  0  0  0  0  0  0  0  0  0  0
   45.2371   31.4433   47.7930 C   0  0  0  0  0  0  0  0  0  0  0  0
   46.5266   30.7597   48.0063 C   0  0  0  0  0  0  0  0  0  0  0  0
   47.0804   29.6460   47.3989 C   0  0  0  0  0  0  0  0  0  0  0  0
   48.3203   29.2311   47.8106 C   0  0  0  0  0  0  0  0  0  0  0  0
   48.9923   29.8670   48.7675 N   0  0  0  0  0  0  0  0  0  0  0  0
   48.4467   30.9535   49.3567 C   0  0  0  0  0  0  0  0  0  0  0  0
   47.2173   31.4021   48.9802 N   0  0  0  0  0  0  0  0  0  0  0  0
   44.1669   36.0041   44.9049 H   0  0  0  0  0  0  0  0  0  0  0  0
   47.2315   33.4093   43.5445 H   0  0  0  0  0  0  0  0  0  0  0  0
   44.6253   31.2618   48.7009 H   0  0  0  0  0  0  0  0  0  0  0  0
   44.6674   31.0361   46.9302 H   0  0  0  0  0  0  0  0  0  0  0  0
   46.4165   29.2445   46.6470 H   0  0  0  0  0  0  0  0  0  0  0  0
   48.6858   28.3558   47.2903 H   0  0  0  0  0  0  0  0  0  0  0  0
   50.8264   31.6474   48.6481 O   0  0  0  0  0  0  0  0  0  0  0  0
   50.3773   32.3535   49.7389 C   0  0  1  0  0  0  0  0  0  0  0  0
   49.2857   31.5831   50.4113 C   0  0  2  0  0  0  0  0  0  0  0  0
   49.8457   30.6648   51.2792 O   0  0  0  0  0  0  0  0  0  0  0  0
   51.2142   30.8286   51.2537 C   0  0  0  0  0  0  0  0  0  0  0  0
   51.4563   32.2815   50.8274 C   0  0  2  0  0  0  0  0  0  0  0  0
   51.1747   33.1512   51.8675 O   0  0  0  0  0  0  0  0  0  0  0  0
   50.9557   32.2343   47.8617 H   0  0  0  0  0  0  0  0  0  0  0  0
   50.0933   33.4036   49.5367 H   0  0  0  0  0  0  0  0  0  0  0  0
   48.5802   32.2678   50.9638 H   0  0  0  0  0  0  0  0  0  0  0  0
   51.7306   30.6753   52.2014 H   0  0  0  0  0  0  0  0  0  0  0  0
   51.6289   30.2042   50.4214 H   0  0  0  0  0  0  0  0  0  0  0  0
   52.4659   32.4294   50.4377 H   0  0  0  0  0  0  0  0  0  0  0  0
   50.7264   32.6895   52.6385 H   0  0  0  0  0  0  0  0  0  0  0  0
  1  6  2  0
  2  3  2  0
  2  1  1  0
  3  4  1  0
  4  5  2  0
  5 11  1  0
  6  5  1  0
  7  8  1  0
  7  2  1  0
  9  7  1  0
 10  7  1  0
 11 12  1  0
 12 13  1  0
 13 18  2  0
 14 15  2  0
 14 13  1  0
 15 16  1  0
 16 17  2  0
 18 17  1  0
  1 19  1  0
  3 20  1  0
 12 21  1  0
 12 22  1  0
 14 23  1  0
 15 24  1  0
 25 26  1  0
 26 27  1  0
 27 28  1  0
 28 29  1  0
 29 30  1  0
 30 31  1  0
 30 26  1  0
 25 32  1  0
 26 33  1  6
 27 34  1  1
 29 35  1  0
 29 36  1  0
 30 37  1  6
 31 38  1  0
 17 27  1  0
M  ISO  6  19  14  20  14  21   8  22   8  23  14  24  14
M  END
>  <DihAtoms>  (1) 
15,16,26,25

>  <DihDeg>  (1) 
166.0524411075636

$$$$
