
 OpenBabel03252505253D

 43 46  0  0  1  0  0  0  0  0999 V2000
   46.6770   33.2600   44.7810 F   0  0  0  0  0  0  0  0  0  0  0  0
   47.3470   32.0910   44.6050 C   0  0  0  0  0  0  0  0  0  0  0  0
   48.1840   31.9810   43.5250 C   0  0  0  0  0  0  0  0  0  0  0  0
   48.8540   30.7930   43.3610 C   0  0  0  0  0  0  0  0  0  0  0  0
   48.6730   29.7680   44.2620 C   0  0  0  0  0  0  0  0  0  0  0  0
   47.8340   29.8780   45.3450 C   0  0  0  0  0  0  0  0  0  0  0  0
   47.1560   31.0820   45.5090 C   0  0  0  0  0  0  0  0  0  0  0  0
   49.5110   30.7400   42.4930 H   0  0  0  0  0  0  0  0  0  0  0  0
   49.2510   28.8700   44.0400 H   0  0  0  0  0  0  0  0  0  0  0  0
   47.7240   29.0450   46.0270 H   0  0  0  0  0  0  0  0  0  0  0  0
   46.2950   31.1590   46.6430 N   0  0  0  0  0  0  0  0  0  0  0  0
   45.1660   30.3560   47.0240 C   0  0  0  0  0  0  0  0  0  0  0  0
   45.4900   29.9980   48.4810 C   0  0  0  0  0  0  0  0  0  0  0  0
   46.4090   31.1080   48.9260 C   0  0  0  0  0  0  0  0  0  0  0  0
   46.2980   32.0790   47.7660 C   0  0  2  0  0  0  0  0  0  0  0  0
   45.1000   29.4080   46.4370 H   0  0  0  0  0  0  0  0  0  0  0  0
   44.2040   30.8660   46.9910 H   0  0  0  0  0  0  0  0  0  0  0  0
   44.5730   29.9090   49.0970 H   0  0  0  0  0  0  0  0  0  0  0  0
   46.0410   29.0480   48.5060 H   0  0  0  0  0  0  0  0  0  0  0  0
   46.1440   31.5500   49.8990 H   0  0  0  0  0  0  0  0  0  0  0  0
   47.4850   30.7730   48.9630 H   0  0  0  0  0  0  0  0  0  0  0  0
   47.2550   32.6710   47.7660 H   0  0  0  0  0  0  0  0  0  0  0  0
   45.1130   32.9780   47.8200 C   0  0  0  0  0  0  0  0  0  0  0  0
   45.4620   34.0440   47.8910 H   0  0  0  0  0  0  0  0  0  0  0  0
   44.4690   32.9560   46.9140 H   0  0  0  0  0  0  0  0  0  0  0  0
   44.5260   32.8010   48.7600 H   0  0  0  0  0  0  0  0  0  0  0  0
   49.1980   35.2140   42.1360 C   0  0  0  0  0  0  0  0  0  0  0  0
   48.6530   35.1890   40.8480 C   0  0  0  0  0  0  0  0  0  0  0  0
   47.9430   34.0470   40.4900 C   0  0  0  0  0  0  0  0  0  0  0  0
   47.8160   33.0300   41.3900 N   0  0  0  0  0  0  0  0  0  0  0  0
   48.3450   33.0920   42.5950 C   0  0  0  0  0  0  0  0  0  0  0  0
   49.0340   34.1770   42.9710 N   0  0  0  0  0  0  0  0  0  0  0  0
   49.7550   36.0890   42.4420 H   0  0  0  0  0  0  0  0  0  0  0  0
   48.8110   36.0350   40.2290 H   0  0  0  0  0  0  0  0  0  0  0  0
   46.1250   33.1430   39.1420 C   0  0  2  0  0  3  0  0  0  0  0  0
   47.3500   33.9880   39.1280 C   0  0  2  0  0  3  0  0  0  0  0  0
   48.2360   33.5200   38.1890 O   0  0  0  0  0  0  0  0  0  0  0  0
   47.7090   32.4150   37.5820 C   0  0  0  0  0  2  0  0  0  0  0  0
   46.5120   31.9380   38.3350 C   0  0  1  0  0  3  0  0  0  0  0  0
   45.0170   33.7930   38.6010 O   0  0  0  0  0  0  0  0  0  0  0  0
   44.3440   33.9020   39.3200 H   0  0  0  0  0  0  0  0  0  0  0  0
   46.7880   30.8100   39.1000 O   0  0  0  0  0  0  0  0  0  0  0  0
   47.6820   30.4170   38.9230 H   0  0  0  0  0  0  0  0  0  0  0  0
  2  1  1  0  0  0  0
  2  7  1  0  0  0  0
  3  2  2  0  0  0  0
  4  3  1  0  0  0  0
  4  5  2  0  0  0  0
  5  6  1  0  0  0  0
  6  7  2  0  0  0  0
  6 10  1  0  0  0  0
  7 11  1  0  0  0  0
  8  4  1  0  0  0  0
  9  5  1  0  0  0  0
 11 12  1  0  0  0  0
 11 15  1  0  0  0  0
 12 13  1  0  0  0  0
 13 19  1  0  0  0  0
 13 14  1  0  0  0  0
 13 18  1  0  0  0  0
 14 21  1  0  0  0  0
 14 20  1  0  0  0  0
 15 22  1  6  0  0  0
 15 23  1  0  0  0  0
 15 14  1  0  0  0  0
 16 12  1  0  0  0  0
 17 12  1  0  0  0  0
 23 24  1  0  0  0  0
 23 26  1  0  0  0  0
 25 23  1  0  0  0  0
 27 33  1  0  0  0  0
 27 32  1  0  0  0  0
 28 27  2  0  0  0  0
 29 28  1  0  0  0  0
 29 30  2  0  0  0  0
 30 31  1  0  0  0  0
 31 32  2  0  0  0  0
 31  3  1  0  0  0  0
 34 28  1  0  0  0  0
 35 40  1  6  0  0  0
 36 35  1  0  0  0  0
 36 29  1  1  0  0  0
 37 36  1  0  0  0  0
 38 37  1  0  0  0  0
 38 39  1  0  0  0  0
 39 42  1  1  0  0  0
 39 35  1  0  0  0  0
 40 41  1  0  0  0  0
 43 42  1  0  0  0  0
M  END
>  <minimizedAffinity>
-5.51937389

>  <minimizedRMSD>
1.25230455

$$$$
