
     RDKit          3D

 36 39  0  0  0  0  0  0  0  0999 V2000
   47.2135   31.3557   45.0873 C   0  0  0  0  0  0  0  0  0  0  0  0
   46.8825   32.6878   45.0945 C   0  0  0  0  0  0  0  0  0  0  0  0
   46.2809   33.3324   46.1794 C   0  0  0  0  0  0  0  0  0  0  0  0
   45.9980   32.5822   47.3256 C   0  0  0  0  0  0  0  0  0  0  0  0
   45.4465   32.8195   48.5326 N   0  0  0  0  0  0  0  0  0  0  0  0
   45.4379   31.6581   49.2544 C   0  0  0  0  0  0  0  0  0  0  0  0
   45.9921   30.7093   48.4700 N   0  0  0  0  0  0  0  0  0  0  0  0
   46.3448   31.2372   47.2880 C   0  0  0  0  0  0  0  0  0  0  0  0
   46.9369   30.5956   46.2242 C   0  0  0  0  0  0  0  0  0  0  0  0
   46.4928   35.2042   42.4360 C   0  0  0  0  0  0  0  0  0  0  0  0
   47.6853   35.0778   41.7304 C   0  0  0  0  0  0  0  0  0  0  0  0
   48.6432   34.1182   42.1565 C   0  0  0  0  0  0  0  0  0  0  0  0
   48.3363   33.3547   43.2596 N   0  0  0  0  0  0  0  0  0  0  0  0
   47.1692   33.5064   43.9185 C   0  0  0  0  0  0  0  0  0  0  0  0
   46.3050   34.4129   43.4860 N   0  0  0  0  0  0  0  0  0  0  0  0
   47.6796   30.9241   44.2053 H   0  0  0  0  0  0  0  0  0  0  0  0
   45.0868   33.7088   48.8769 H   0  0  0  0  0  0  0  0  0  0  0  0
   45.0689   31.4965   50.2554 H   0  0  0  0  0  0  0  0  0  0  0  0
   47.1821   29.5465   46.2568 H   0  0  0  0  0  0  0  0  0  0  0  0
   45.7213   35.9109   42.1690 H   0  0  0  0  0  0  0  0  0  0  0  0
   47.8734   35.7048   40.8708 H   0  0  0  0  0  0  0  0  0  0  0  0
   49.5645   33.9981   41.6369 H   0  0  0  0  0  0  0  0  0  0  0  0
   43.8141   33.9468   45.3562 O   0  0  0  0  0  0  0  0  0  0  0  0
   44.6043   35.0741   45.5647 C   0  0  2  0  0  0  0  0  0  0  0  0
   45.8979   34.7615   46.2422 C   0  0  1  0  0  0  0  0  0  0  0  0
   45.7812   35.2028   47.5727 O   0  0  0  0  0  0  0  0  0  0  0  0
   44.9566   36.3051   47.5386 C   0  0  0  0  0  0  0  0  0  0  0  0
   43.8666   35.9410   46.5867 C   0  0  2  0  0  0  0  0  0  0  0  0
   42.8021   35.2640   47.1497 O   0  0  0  0  0  0  0  0  0  0  0  0
   42.8884   34.2545   45.1980 H   0  0  0  0  0  0  0  0  0  0  0  0
   44.6458   35.6717   44.6588 H   0  0  0  0  0  0  0  0  0  0  0  0
   46.7344   35.4217   45.8608 H   0  0  0  0  0  0  0  0  0  0  0  0
   44.5077   36.4938   48.5298 H   0  0  0  0  0  0  0  0  0  0  0  0
   45.4681   37.2113   47.1352 H   0  0  0  0  0  0  0  0  0  0  0  0
   43.4291   36.8544   46.1086 H   0  0  0  0  0  0  0  0  0  0  0  0
   42.1277   35.8916   47.4916 H   0  0  0  0  0  0  0  0  0  0  0  0
  1  2  2  0
  1  9  1  0
  2  3  1  0
  3  4  2  0
  4  5  1  0
  5  6  1  0
  7  6  2  0
  8  4  1  0
  8  7  1  0
  9  8  2  0
 10 15  2  0
 11 12  2  0
 11 10  1  0
 12 13  1  0
 13 14  2  0
 14  2  1  0
 15 14  1  0
  1 16  1  0
  5 17  1  0
  6 18  1  0
  9 19  1  0
 10 20  1  0
 11 21  1  0
 12 22  1  0
 23 24  1  0
 24 25  1  0
 25 26  1  0
 26 27  1  0
 27 28  1  0
 28 29  1  0
 28 24  1  0
 23 30  1  0
 24 31  1  6
 25 32  1  6
 27 33  1  0
 27 34  1  0
 28 35  1  6
 29 36  1  0
  3 25  1  0
M  ISO  7  16  14  17   9  18  14  19  14  20  14  21  14  22  14
M  END
>  <DihAtoms>  (1) 
1,2,24,23

>  <DihDeg>  (1) 
95.44907702963805

$$$$
