
 OpenBabel03252501303D

 38 40  0  0  1  0  0  0  0  0999 V2000
   35.8040   28.3070   39.2900 C   0  0  0  0  0  0  0  0  0  0  0  0
   36.2740   27.0210   39.1740 C   0  0  0  0  0  0  0  0  0  0  0  0
   36.8350   26.3160   40.2000 C   0  0  0  0  0  0  0  0  0  0  0  0
   36.9420   26.9060   41.4050 C   0  0  0  0  0  0  0  0  0  0  0  0
   36.4710   28.2190   41.5660 C   0  0  0  0  0  0  0  0  0  0  0  0
   35.9080   28.9060   40.5120 C   0  0  0  0  0  0  0  0  0  0  0  0
   36.1580   26.5980   38.1630 H   0  0  0  0  0  0  0  0  0  0  0  0
   37.1540   25.3150   39.9410 H   0  0  0  0  0  0  0  0  0  0  0  0
   36.6420   28.5210   42.6040 H   0  0  0  0  0  0  0  0  0  0  0  0
   36.5320   31.2010   40.9480 C   0  0  0  0  0  0  0  0  0  0  0  0
   37.7490   31.3680   40.5630 O   0  0  0  0  0  0  0  0  0  0  0  0
   35.5300   30.1780   41.0510 N   0  0  0  0  0  0  0  0  0  0  0  0
   36.4460   32.2590   41.2360 H   0  0  0  0  0  0  0  0  0  0  0  0
   34.6740   30.5530   41.5150 H   0  0  0  0  0  0  0  0  0  0  0  0
   38.4400   24.9860   41.9030 C   0  0  1  0  0  3  0  0  0  0  0  0
   37.5720   26.0680   42.4850 C   0  0  1  0  0  3  0  0  0  0  0  0
   38.3190   26.8150   43.3540 O   0  0  0  0  0  0  0  0  0  0  0  0
   39.6480   26.5340   43.2210 C   0  0  0  0  0  2  0  0  0  0  0  0
   39.8200   25.3480   42.3390 C   0  0  1  0  0  3  0  0  0  0  0  0
   38.0970   23.7800   42.4950 O   0  0  0  0  0  0  0  0  0  0  0  0
   38.0870   23.9000   43.4730 H   0  0  0  0  0  0  0  0  0  0  0  0
   40.4260   24.3260   43.0900 O   0  0  0  0  0  0  0  0  0  0  0  0
   40.2020   23.4520   42.7200 H   0  0  0  0  0  0  0  0  0  0  0  0
   35.2060   29.1730   38.2750 C   0  0  0  0  0  0  0  0  0  0  0  0
   35.9740   29.9190   37.9110 H   0  0  0  0  0  0  0  0  0  0  0  0
   34.4410   29.7980   38.7680 H   0  0  0  0  0  0  0  0  0  0  0  0
   34.6670   28.3810   37.1150 C   0  0  0  0  0  0  0  0  0  0  0  0
   35.4650   28.3180   36.3220 H   0  0  0  0  0  0  0  0  0  0  0  0
   34.4720   27.3160   37.4390 H   0  0  0  0  0  0  0  0  0  0  0  0
   31.3220   29.8570   36.9970 C   0  0  0  0  0  0  0  0  0  0  0  0
   31.1790   30.2040   35.6380 C   0  0  0  0  0  0  0  0  0  0  0  0
   32.2700   29.9110   34.8040 C   0  0  0  0  0  0  0  0  0  0  0  0
   33.3730   29.3300   35.3110 N   0  0  0  0  0  0  0  0  0  0  0  0
   33.4370   29.0260   36.6270 C   0  0  0  0  0  0  0  0  0  0  0  0
   32.4550   29.2740   37.4530 N   0  0  0  0  0  0  0  0  0  0  0  0
   30.5500   30.0330   37.7350 H   0  0  0  0  0  0  0  0  0  0  0  0
   30.2510   30.6670   35.3290 H   0  0  0  0  0  0  0  0  0  0  0  0
   32.1610   30.1770   33.7620 H   0  0  0  0  0  0  0  0  0  0  0  0
  1  6  1  0  0  0  0
  2  1  2  0  0  0  0
  2  3  1  0  0  0  0
  3  4  2  0  0  0  0
  4  5  1  0  0  0  0
  5  9  1  0  0  0  0
  6 12  1  0  0  0  0
  6  5  2  0  0  0  0
  7  2  1  0  0  0  0
  8  3  1  0  0  0  0
 10 12  1  0  0  0  0
 10 13  1  0  0  0  0
 11 10  2  0  0  0  0
 12 14  1  0  0  0  0
 15 19  1  0  0  0  0
 15 16  1  0  0  0  0
 15 20  1  1  0  0  0
 16  4  1  6  0  0  0
 16 17  1  0  0  0  0
 18 17  1  0  0  0  0
 19 22  1  1  0  0  0
 19 18  1  0  0  0  0
 20 21  1  0  0  0  0
 23 22  1  0  0  0  0
 24 26  1  0  0  0  0
 24  1  1  0  0  0  0
 25 24  1  0  0  0  0
 27 29  1  0  0  0  0
 27 24  1  0  0  0  0
 28 27  1  0  0  0  0
 30 35  1  0  0  0  0
 30 36  1  0  0  0  0
 31 30  2  0  0  0  0
 32 33  2  0  0  0  0
 32 31  1  0  0  0  0
 33 34  1  0  0  0  0
 34 27  1  0  0  0  0
 34 35  2  0  0  0  0
 37 31  1  0  0  0  0
 38 32  1  0  0  0  0
M  END
>  <minimizedAffinity>
-5.96205616

$$$$

 OpenBabel03252501303D

 38 40  0  0  1  0  0  0  0  0999 V2000
   36.9380   28.4670   42.2580 C   0  0  0  0  0  0  0  0  0  0  0  0
   36.0620   28.2660   41.2180 C   0  0  0  0  0  0  0  0  0  0  0  0
   35.9490   29.0950   40.1400 C   0  0  0  0  0  0  0  0  0  0  0  0
   36.7390   30.1840   40.0780 C   0  0  0  0  0  0  0  0  0  0  0  0
   37.6500   30.4260   41.1200 C   0  0  0  0  0  0  0  0  0  0  0  0
   37.7420   29.5690   42.1960 C   0  0  0  0  0  0  0  0  0  0  0  0
   35.4460   27.3590   41.3310 H   0  0  0  0  0  0  0  0  0  0  0  0
   35.2110   28.7930   39.4090 H   0  0  0  0  0  0  0  0  0  0  0  0
   38.1960   31.3460   40.8920 H   0  0  0  0  0  0  0  0  0  0  0  0
   40.1130   29.7970   42.6110 C   0  0  0  0  0  0  0  0  0  0  0  0
   40.7450   29.1040   41.7300 O   0  0  0  0  0  0  0  0  0  0  0  0
   38.7750   30.1150   43.0240 N   0  0  0  0  0  0  0  0  0  0  0  0
   41.0560   30.1510   43.0540 H   0  0  0  0  0  0  0  0  0  0  0  0
   38.7900   30.7070   43.8830 H   0  0  0  0  0  0  0  0  0  0  0  0
   37.7740   31.8950   38.6020 C   0  0  1  0  0  3  0  0  0  0  0  0
   36.5570   31.0510   38.8620 C   0  0  1  0  0  3  0  0  0  0  0  0
   36.2780   30.3200   37.7400 O   0  0  0  0  0  0  0  0  0  0  0  0
   37.3160   30.3690   36.8550 C   0  0  0  0  0  2  0  0  0  0  0  0
   38.3060   31.3840   37.3060 C   0  0  1  0  0  3  0  0  0  0  0  0
   37.3680   33.2090   38.4210 O   0  0  0  0  0  0  0  0  0  0  0  0
   36.6350   33.2240   37.7610 H   0  0  0  0  0  0  0  0  0  0  0  0
   38.3810   32.3900   36.3270 O   0  0  0  0  0  0  0  0  0  0  0  0
   38.6760   33.2310   36.7230 H   0  0  0  0  0  0  0  0  0  0  0  0
   37.1410   27.6750   43.4700 C   0  0  0  0  0  0  0  0  0  0  0  0
   36.2140   27.0670   43.6860 H   0  0  0  0  0  0  0  0  0  0  0  0
   37.2090   28.3710   44.3230 H   0  0  0  0  0  0  0  0  0  0  0  0
   38.3350   26.7680   43.3460 C   0  0  0  0  0  0  0  0  0  0  0  0
   39.2540   27.4030   43.1950 H   0  0  0  0  0  0  0  0  0  0  0  0
   38.4980   26.2180   44.3190 H   0  0  0  0  0  0  0  0  0  0  0  0
   38.6980   24.9780   40.1760 C   0  0  0  0  0  0  0  0  0  0  0  0
   37.6100   24.0820   40.1950 C   0  0  0  0  0  0  0  0  0  0  0  0
   36.7820   24.1320   41.3280 C   0  0  0  0  0  0  0  0  0  0  0  0
   37.0460   25.0030   42.3200 N   0  0  0  0  0  0  0  0  0  0  0  0
   38.1100   25.8320   42.2320 C   0  0  0  0  0  0  0  0  0  0  0  0
   38.9160   25.8320   41.2030 N   0  0  0  0  0  0  0  0  0  0  0  0
   39.4040   25.0310   39.3580 H   0  0  0  0  0  0  0  0  0  0  0  0
   37.4830   23.4220   39.3470 H   0  0  0  0  0  0  0  0  0  0  0  0
   35.9470   23.4460   41.3430 H   0  0  0  0  0  0  0  0  0  0  0  0
  1 24  1  0  0  0  0
  2  7  1  0  0  0  0
  2  1  2  0  0  0  0
  3  2  1  0  0  0  0
  4  3  2  0  0  0  0
  4  5  1  0  0  0  0
  5  6  2  0  0  0  0
  6  1  1  0  0  0  0
  6 12  1  0  0  0  0
  8  3  1  0  0  0  0
  9  5  1  0  0  0  0
 10 12  1  0  0  0  0
 10 13  1  0  0  0  0
 11 10  2  0  0  0  0
 12 14  1  0  0  0  0
 15 20  1  6  0  0  0
 15 16  1  0  0  0  0
 16  4  1  1  0  0  0
 17 16  1  0  0  0  0
 18 19  1  0  0  0  0
 18 17  1  0  0  0  0
 19 22  1  6  0  0  0
 19 15  1  0  0  0  0
 21 20  1  0  0  0  0
 22 23  1  0  0  0  0
 24 25  1  0  0  0  0
 24 26  1  0  0  0  0
 27 24  1  0  0  0  0
 27 29  1  0  0  0  0
 28 27  1  0  0  0  0
 30 31  2  0  0  0  0
 30 35  1  0  0  0  0
 31 32  1  0  0  0  0
 32 38  1  0  0  0  0
 32 33  2  0  0  0  0
 34 33  1  0  0  0  0
 34 27  1  0  0  0  0
 35 34  2  0  0  0  0
 36 30  1  0  0  0  0
 37 31  1  0  0  0  0
M  END
>  <minimizedAffinity>
-5.93331528

$$$$

 OpenBabel03252501303D

 38 40  0  0  1  0  0  0  0  0999 V2000
   35.8210   28.2320   39.2160 C   0  0  0  0  0  0  0  0  0  0  0  0
   36.3080   26.9510   39.1140 C   0  0  0  0  0  0  0  0  0  0  0  0
   36.8450   26.2500   40.1560 C   0  0  0  0  0  0  0  0  0  0  0  0
   36.9080   26.8400   41.3650 C   0  0  0  0  0  0  0  0  0  0  0  0
   36.4190   28.1490   41.5120 C   0  0  0  0  0  0  0  0  0  0  0  0
   35.8810   28.8310   40.4410 C   0  0  0  0  0  0  0  0  0  0  0  0
   36.2270   26.5280   38.1000 H   0  0  0  0  0  0  0  0  0  0  0  0
   37.1820   25.2530   39.9070 H   0  0  0  0  0  0  0  0  0  0  0  0
   36.5550   28.4510   42.5540 H   0  0  0  0  0  0  0  0  0  0  0  0
   36.5280   31.0630   41.1060 C   0  0  0  0  0  0  0  0  0  0  0  0
   37.8020   31.1750   40.9610 O   0  0  0  0  0  0  0  0  0  0  0  0
   35.4740   30.0980   40.9690 N   0  0  0  0  0  0  0  0  0  0  0  0
   36.4430   32.1120   41.4300 H   0  0  0  0  0  0  0  0  0  0  0  0
   34.5670   30.5020   41.2870 H   0  0  0  0  0  0  0  0  0  0  0  0
   38.3980   24.9260   41.9060 C   0  0  1  0  0  3  0  0  0  0  0  0
   37.5130   26.0080   42.4620 C   0  0  1  0  0  3  0  0  0  0  0  0
   38.2360   26.7600   43.3470 O   0  0  0  0  0  0  0  0  0  0  0  0
   39.5680   26.4820   43.2480 C   0  0  0  0  0  2  0  0  0  0  0  0
   39.7660   25.2930   42.3750 C   0  0  1  0  0  3  0  0  0  0  0  0
   38.0430   23.7220   42.4940 O   0  0  0  0  0  0  0  0  0  0  0  0
   38.0090   23.8450   43.4710 H   0  0  0  0  0  0  0  0  0  0  0  0
   40.3560   24.2760   43.1450 O   0  0  0  0  0  0  0  0  0  0  0  0
   40.1440   23.4000   42.7730 H   0  0  0  0  0  0  0  0  0  0  0  0
   35.2460   29.0930   38.1830 C   0  0  0  0  0  0  0  0  0  0  0  0
   35.0890   30.1320   38.5990 H   0  0  0  0  0  0  0  0  0  0  0  0
   34.2240   28.7340   37.9710 H   0  0  0  0  0  0  0  0  0  0  0  0
   36.1190   29.1530   36.9600 C   0  0  0  0  0  0  0  0  0  0  0  0
   36.3320   28.1010   36.6190 H   0  0  0  0  0  0  0  0  0  0  0  0
   35.5560   29.6440   36.1130 H   0  0  0  0  0  0  0  0  0  0  0  0
   38.4380   31.8720   37.7460 C   0  0  0  0  0  0  0  0  0  0  0  0
   39.6740   31.2060   37.8710 C   0  0  0  0  0  0  0  0  0  0  0  0
   39.6530   29.8150   37.6780 C   0  0  0  0  0  0  0  0  0  0  0  0
   38.4960   29.1900   37.3910 N   0  0  0  0  0  0  0  0  0  0  0  0
   37.3480   29.8960   37.2890 C   0  0  0  0  0  0  0  0  0  0  0  0
   37.3040   31.1920   37.4570 N   0  0  0  0  0  0  0  0  0  0  0  0
   38.3290   32.9420   37.8730 H   0  0  0  0  0  0  0  0  0  0  0  0
   40.5480   31.8000   38.1030 H   0  0  0  0  0  0  0  0  0  0  0  0
   40.6000   29.3040   37.7730 H   0  0  0  0  0  0  0  0  0  0  0  0
  1  6  1  0  0  0  0
  2  1  2  0  0  0  0
  2  3  1  0  0  0  0
  3  4  2  0  0  0  0
  4  5  1  0  0  0  0
  5  9  1  0  0  0  0
  6 12  1  0  0  0  0
  6  5  2  0  0  0  0
  7  2  1  0  0  0  0
  8  3  1  0  0  0  0
 10 13  1  0  0  0  0
 11 10  2  0  0  0  0
 12 10  1  0  0  0  0
 12 14  1  0  0  0  0
 15 19  1  0  0  0  0
 15 16  1  0  0  0  0
 15 20  1  1  0  0  0
 16  4  1  6  0  0  0
 16 17  1  0  0  0  0
 18 17  1  0  0  0  0
 19 22  1  1  0  0  0
 19 18  1  0  0  0  0
 20 21  1  0  0  0  0
 23 22  1  0  0  0  0
 24 25  1  0  0  0  0
 24  1  1  0  0  0  0
 26 24  1  0  0  0  0
 27 34  1  0  0  0  0
 27 24  1  0  0  0  0
 28 27  1  0  0  0  0
 29 27  1  0  0  0  0
 30 31  1  0  0  0  0
 30 36  1  0  0  0  0
 31 37  1  0  0  0  0
 32 38  1  0  0  0  0
 32 31  2  0  0  0  0
 33 32  1  0  0  0  0
 34 33  2  0  0  0  0
 34 35  1  0  0  0  0
 35 30  2  0  0  0  0
M  END
>  <minimizedAffinity>
-5.90866423

$$$$

 OpenBabel03252501303D

 38 40  0  0  1  0  0  0  0  0999 V2000
   35.9040   29.6790   38.4020 C   0  0  0  0  0  0  0  0  0  0  0  0
   36.6930   30.3640   37.5100 C   0  0  0  0  0  0  0  0  0  0  0  0
   37.5470   31.3710   37.8570 C   0  0  0  0  0  0  0  0  0  0  0  0
   37.6310   31.7260   39.1530 C   0  0  0  0  0  0  0  0  0  0  0  0
   36.8430   31.0490   40.0990 C   0  0  0  0  0  0  0  0  0  0  0  0
   35.9900   30.0350   39.7170 C   0  0  0  0  0  0  0  0  0  0  0  0
   36.5750   30.0260   36.4670 H   0  0  0  0  0  0  0  0  0  0  0  0
   38.0950   31.8070   37.0330 H   0  0  0  0  0  0  0  0  0  0  0  0
   37.0490   31.4750   41.0850 H   0  0  0  0  0  0  0  0  0  0  0  0
   36.0930   28.5160   41.5950 C   0  0  0  0  0  0  0  0  0  0  0  0
   37.1170   27.7520   41.4400 O   0  0  0  0  0  0  0  0  0  0  0  0
   35.3860   29.5750   40.9320 N   0  0  0  0  0  0  0  0  0  0  0  0
   35.8520   28.0490   42.5620 H   0  0  0  0  0  0  0  0  0  0  0  0
   34.5290   29.8330   41.4670 H   0  0  0  0  0  0  0  0  0  0  0  0
   39.0050   32.8310   40.9050 C   0  0  1  0  0  3  0  0  0  0  0  0
   38.5900   32.8440   39.4590 C   0  0  1  0  0  3  0  0  0  0  0  0
   39.7120   32.7950   38.6770 O   0  0  0  0  0  0  0  0  0  0  0  0
   40.8110   32.4780   39.4210 C   0  0  0  0  0  2  0  0  0  0  0  0
   40.4630   32.5170   40.8670 C   0  0  1  0  0  3  0  0  0  0  0  0
   38.8470   34.1090   41.4190 O   0  0  0  0  0  0  0  0  0  0  0  0
   39.2820   34.7510   40.8110 H   0  0  0  0  0  0  0  0  0  0  0  0
   41.2390   33.5160   41.4800 O   0  0  0  0  0  0  0  0  0  0  0  0
   40.7930   33.8530   42.2790 H   0  0  0  0  0  0  0  0  0  0  0  0
   34.9420   28.6060   38.1600 C   0  0  0  0  0  0  0  0  0  0  0  0
   33.9680   28.8440   38.6820 H   0  0  0  0  0  0  0  0  0  0  0  0
   35.3050   27.7000   38.6750 H   0  0  0  0  0  0  0  0  0  0  0  0
   34.7020   28.3970   36.6900 C   0  0  0  0  0  0  0  0  0  0  0  0
   35.5880   28.7980   36.1210 H   0  0  0  0  0  0  0  0  0  0  0  0
   34.6660   27.2910   36.4630 H   0  0  0  0  0  0  0  0  0  0  0  0
   32.1110   30.1010   34.7480 C   0  0  0  0  0  0  0  0  0  0  0  0
   31.0910   30.3090   35.6990 C   0  0  0  0  0  0  0  0  0  0  0  0
   31.3450   29.8370   36.9970 C   0  0  0  0  0  0  0  0  0  0  0  0
   32.5110   29.2260   37.2780 N   0  0  0  0  0  0  0  0  0  0  0  0
   33.4430   29.0620   36.3130 C   0  0  0  0  0  0  0  0  0  0  0  0
   33.2640   29.4790   35.0870 N   0  0  0  0  0  0  0  0  0  0  0  0
   32.0290   30.4200   33.7170 H   0  0  0  0  0  0  0  0  0  0  0  0
   30.1900   30.8110   35.3730 H   0  0  0  0  0  0  0  0  0  0  0  0
   30.5640   29.9960   37.7260 H   0  0  0  0  0  0  0  0  0  0  0  0
  1  6  1  0  0  0  0
  2  3  1  0  0  0  0
  2  1  2  0  0  0  0
  3  4  2  0  0  0  0
  4  5  1  0  0  0  0
  5  9  1  0  0  0  0
  6  5  2  0  0  0  0
  6 12  1  0  0  0  0
  7  2  1  0  0  0  0
  8  3  1  0  0  0  0
 10 13  1  0  0  0  0
 11 10  2  0  0  0  0
 12 14  1  0  0  0  0
 12 10  1  0  0  0  0
 15 20  1  6  0  0  0
 16  4  1  1  0  0  0
 16 15  1  0  0  0  0
 17 18  1  0  0  0  0
 17 16  1  0  0  0  0
 18 19  1  0  0  0  0
 19 15  1  0  0  0  0
 19 22  1  1  0  0  0
 21 20  1  0  0  0  0
 22 23  1  0  0  0  0
 24  1  1  0  0  0  0
 24 26  1  0  0  0  0
 24 25  1  0  0  0  0
 27 24  1  0  0  0  0
 28 27  1  0  0  0  0
 29 27  1  0  0  0  0
 30 35  2  0  0  0  0
 30 31  1  0  0  0  0
 31 32  2  0  0  0  0
 32 33  1  0  0  0  0
 32 38  1  0  0  0  0
 34 27  1  0  0  0  0
 34 33  2  0  0  0  0
 35 34  1  0  0  0  0
 36 30  1  0  0  0  0
 37 31  1  0  0  0  0
M  END
>  <minimizedAffinity>
-5.90844488

$$$$

 OpenBabel03252501303D

 38 40  0  0  1  0  0  0  0  0999 V2000
   35.7720   28.1450   39.4780 C   0  0  0  0  0  0  0  0  0  0  0  0
   36.2840   26.8740   39.3700 C   0  0  0  0  0  0  0  0  0  0  0  0
   36.9360   26.2230   40.3770 C   0  0  0  0  0  0  0  0  0  0  0  0
   37.0950   26.8540   41.5550 C   0  0  0  0  0  0  0  0  0  0  0  0
   36.5850   28.1540   41.7080 C   0  0  0  0  0  0  0  0  0  0  0  0
   35.9310   28.7860   40.6730 C   0  0  0  0  0  0  0  0  0  0  0  0
   36.1200   26.4160   38.3810 H   0  0  0  0  0  0  0  0  0  0  0  0
   37.2760   25.2260   40.1280 H   0  0  0  0  0  0  0  0  0  0  0  0
   36.8100   28.4930   42.7230 H   0  0  0  0  0  0  0  0  0  0  0  0
   36.4900   31.1160   40.9950 C   0  0  0  0  0  0  0  0  0  0  0  0
   37.6710   31.3160   40.5230 O   0  0  0  0  0  0  0  0  0  0  0  0
   35.5390   30.0590   41.1980 N   0  0  0  0  0  0  0  0  0  0  0  0
   36.3810   32.1790   41.2570 H   0  0  0  0  0  0  0  0  0  0  0  0
   34.7020   30.4160   41.7080 H   0  0  0  0  0  0  0  0  0  0  0  0
   38.7070   25.0160   42.0100 C   0  0  1  0  0  3  0  0  0  0  0  0
   37.8240   26.0740   42.6160 C   0  0  1  0  0  3  0  0  0  0  0  0
   38.5850   26.8760   43.4210 O   0  0  0  0  0  0  0  0  0  0  0  0
   39.9150   26.6510   43.2170 C   0  0  0  0  0  2  0  0  0  0  0  0
   40.0910   25.4500   42.3550 C   0  0  1  0  0  3  0  0  0  0  0  0
   38.4530   23.8120   42.6510 O   0  0  0  0  0  0  0  0  0  0  0  0
   38.4950   23.9580   43.6240 H   0  0  0  0  0  0  0  0  0  0  0  0
   40.7860   24.4770   43.0940 O   0  0  0  0  0  0  0  0  0  0  0  0
   40.5820   23.5840   42.7600 H   0  0  0  0  0  0  0  0  0  0  0  0
   35.0790   28.9570   38.4790 C   0  0  0  0  0  0  0  0  0  0  0  0
   34.3940   29.6920   38.9950 H   0  0  0  0  0  0  0  0  0  0  0  0
   34.3900   28.2970   37.9230 H   0  0  0  0  0  0  0  0  0  0  0  0
   36.0460   29.6890   37.5890 C   0  0  0  0  0  0  0  0  0  0  0  0
   35.8180   30.7910   37.6430 H   0  0  0  0  0  0  0  0  0  0  0  0
   37.0950   29.5730   37.9900 H   0  0  0  0  0  0  0  0  0  0  0  0
   36.4080   29.2820   33.9720 C   0  0  0  0  0  0  0  0  0  0  0  0
   35.6530   28.1210   33.7080 C   0  0  0  0  0  0  0  0  0  0  0  0
   35.0420   27.5130   34.8160 C   0  0  0  0  0  0  0  0  0  0  0  0
   35.1910   28.0400   36.0460 N   0  0  0  0  0  0  0  0  0  0  0  0
   35.9320   29.1570   36.2210 C   0  0  0  0  0  0  0  0  0  0  0  0
   36.5250   29.7680   35.2290 N   0  0  0  0  0  0  0  0  0  0  0  0
   36.9250   29.8370   33.1990 H   0  0  0  0  0  0  0  0  0  0  0  0
   35.5940   27.7780   32.6840 H   0  0  0  0  0  0  0  0  0  0  0  0
   34.4620   26.6230   34.6150 H   0  0  0  0  0  0  0  0  0  0  0  0
  1  6  1  0  0  0  0
  2  1  2  0  0  0  0
  2  3  1  0  0  0  0
  3  4  2  0  0  0  0
  4  5  1  0  0  0  0
  5  9  1  0  0  0  0
  6 12  1  0  0  0  0
  6  5  2  0  0  0  0
  7  2  1  0  0  0  0
  8  3  1  0  0  0  0
 10 12  1  0  0  0  0
 10 13  1  0  0  0  0
 11 10  2  0  0  0  0
 12 14  1  0  0  0  0
 15 19  1  0  0  0  0
 15 16  1  0  0  0  0
 15 20  1  1  0  0  0
 16  4  1  6  0  0  0
 16 17  1  0  0  0  0
 18 17  1  0  0  0  0
 19 22  1  1  0  0  0
 19 18  1  0  0  0  0
 20 21  1  0  0  0  0
 23 22  1  0  0  0  0
 24 25  1  0  0  0  0
 24  1  1  0  0  0  0
 26 24  1  0  0  0  0
 27 28  1  0  0  0  0
 27 29  1  0  0  0  0
 27 24  1  0  0  0  0
 30 35  1  0  0  0  0
 31 30  2  0  0  0  0
 31 32  1  0  0  0  0
 32 33  2  0  0  0  0
 33 34  1  0  0  0  0
 34 27  1  0  0  0  0
 35 34  2  0  0  0  0
 36 30  1  0  0  0  0
 37 31  1  0  0  0  0
 38 32  1  0  0  0  0
M  END
>  <minimizedAffinity>
-5.77942181

$$$$

 OpenBabel03252501303D

 38 40  0  0  1  0  0  0  0  0999 V2000
   38.2650   30.4080   41.4000 C   0  0  0  0  0  0  0  0  0  0  0  0
   39.3470   29.6560   41.7890 C   0  0  0  0  0  0  0  0  0  0  0  0
   39.2630   28.3760   42.2560 C   0  0  0  0  0  0  0  0  0  0  0  0
   38.0480   27.8020   42.3480 C   0  0  0  0  0  0  0  0  0  0  0  0
   36.9160   28.5360   41.9580 C   0  0  0  0  0  0  0  0  0  0  0  0
   37.0320   29.8270   41.4890 C   0  0  0  0  0  0  0  0  0  0  0  0
   40.3090   30.1850   41.6900 H   0  0  0  0  0  0  0  0  0  0  0  0
   40.2100   27.9260   42.5200 H   0  0  0  0  0  0  0  0  0  0  0  0
   36.0330   27.9070   42.1030 H   0  0  0  0  0  0  0  0  0  0  0  0
   35.1830   29.7150   39.9370 C   0  0  0  0  0  0  0  0  0  0  0  0
   35.5480   29.0080   38.9240 O   0  0  0  0  0  0  0  0  0  0  0  0
   35.6970   30.2350   41.1730 N   0  0  0  0  0  0  0  0  0  0  0  0
   34.1720   29.8430   39.5210 H   0  0  0  0  0  0  0  0  0  0  0  0
   34.9840   30.8370   41.6380 H   0  0  0  0  0  0  0  0  0  0  0  0
   37.4360   25.4410   41.8740 C   0  0  1  0  0  3  0  0  0  0  0  0
   38.0350   26.3920   42.8730 C   0  0  1  0  0  3  0  0  0  0  0  0
   39.2850   25.9500   43.2100 O   0  0  0  0  0  0  0  0  0  0  0  0
   39.7020   24.9700   42.3570 C   0  0  0  0  0  2  0  0  0  0  0  0
   38.5690   24.5510   41.4880 C   0  0  1  0  0  3  0  0  0  0  0  0
   36.4770   24.6730   42.5180 O   0  0  0  0  0  0  0  0  0  0  0  0
   36.8700   24.3030   43.3420 H   0  0  0  0  0  0  0  0  0  0  0  0
   38.2950   23.1960   41.7460 O   0  0  0  0  0  0  0  0  0  0  0  0
   37.3660   22.9890   41.5330 H   0  0  0  0  0  0  0  0  0  0  0  0
   38.2170   31.7830   40.9060 C   0  0  0  0  0  0  0  0  0  0  0  0
   39.0920   32.3660   41.3190 H   0  0  0  0  0  0  0  0  0  0  0  0
   37.3350   32.2740   41.3530 H   0  0  0  0  0  0  0  0  0  0  0  0
   38.2260   31.8340   39.4030 C   0  0  0  0  0  0  0  0  0  0  0  0
   38.1350   30.7830   39.0070 H   0  0  0  0  0  0  0  0  0  0  0  0
   37.3100   32.3820   39.0340 H   0  0  0  0  0  0  0  0  0  0  0  0
   41.0490   34.1520   39.1820 C   0  0  0  0  0  0  0  0  0  0  0  0
   41.7510   33.6870   38.0510 C   0  0  0  0  0  0  0  0  0  0  0  0
   41.2100   32.5650   37.4020 C   0  0  0  0  0  0  0  0  0  0  0  0
   40.0810   31.9950   37.8650 N   0  0  0  0  0  0  0  0  0  0  0  0
   39.4630   32.4970   38.9560 C   0  0  0  0  0  0  0  0  0  0  0  0
   39.9180   33.5390   39.6020 N   0  0  0  0  0  0  0  0  0  0  0  0
   41.3680   35.0070   39.7630 H   0  0  0  0  0  0  0  0  0  0  0  0
   42.6480   34.2160   37.7590 H   0  0  0  0  0  0  0  0  0  0  0  0
   41.7470   32.2070   36.5350 H   0  0  0  0  0  0  0  0  0  0  0  0
  1  6  2  0  0  0  0
  1  2  1  0  0  0  0
  2  3  2  0  0  0  0
  3  4  1  0  0  0  0
  3  8  1  0  0  0  0
  5  9  1  0  0  0  0
  5  4  2  0  0  0  0
  6  5  1  0  0  0  0
  7  2  1  0  0  0  0
 10 12  1  0  0  0  0
 11 10  2  0  0  0  0
 12  6  1  0  0  0  0
 12 14  1  0  0  0  0
 13 10  1  0  0  0  0
 15 20  1  1  0  0  0
 15 16  1  0  0  0  0
 16  4  1  6  0  0  0
 16 17  1  0  0  0  0
 18 17  1  0  0  0  0
 19 22  1  1  0  0  0
 19 15  1  0  0  0  0
 19 18  1  0  0  0  0
 20 21  1  0  0  0  0
 23 22  1  0  0  0  0
 24 25  1  0  0  0  0
 24 26  1  0  0  0  0
 24  1  1  0  0  0  0
 27 24  1  0  0  0  0
 28 27  1  0  0  0  0
 29 27  1  0  0  0  0
 30 35  1  0  0  0  0
 30 36  1  0  0  0  0
 31 30  2  0  0  0  0
 32 33  2  0  0  0  0
 32 31  1  0  0  0  0
 33 34  1  0  0  0  0
 34 27  1  0  0  0  0
 34 35  2  0  0  0  0
 37 31  1  0  0  0  0
 38 32  1  0  0  0  0
M  END
>  <minimizedAffinity>
-5.7575202

$$$$

 OpenBabel03252501303D

 38 40  0  0  1  0  0  0  0  0999 V2000
   38.1230   29.4570   42.6650 C   0  0  0  0  0  0  0  0  0  0  0  0
   39.2470   30.2460   42.6100 C   0  0  0  0  0  0  0  0  0  0  0  0
   39.4660   31.2010   41.6590 C   0  0  0  0  0  0  0  0  0  0  0  0
   38.5310   31.3920   40.7090 C   0  0  0  0  0  0  0  0  0  0  0  0
   37.3660   30.6070   40.7320 C   0  0  0  0  0  0  0  0  0  0  0  0
   37.1720   29.6510   41.7050 C   0  0  0  0  0  0  0  0  0  0  0  0
   39.9720   30.0380   43.4140 H   0  0  0  0  0  0  0  0  0  0  0  0
   40.4020   31.7350   41.7580 H   0  0  0  0  0  0  0  0  0  0  0  0
   36.7340   30.9070   39.8900 H   0  0  0  0  0  0  0  0  0  0  0  0
   35.8610   28.1620   40.3230 C   0  0  0  0  0  0  0  0  0  0  0  0
   36.6280   27.6790   39.4090 O   0  0  0  0  0  0  0  0  0  0  0  0
   35.8880   29.0830   41.4240 N   0  0  0  0  0  0  0  0  0  0  0  0
   35.0080   27.5650   39.9650 H   0  0  0  0  0  0  0  0  0  0  0  0
   34.9370   29.1810   41.8400 H   0  0  0  0  0  0  0  0  0  0  0  0
   40.3060   32.4740   39.3480 C   0  0  1  0  0  3  0  0  0  0  0  0
   38.8430   32.4600   39.6960 C   0  0  1  0  0  3  0  0  0  0  0  0
   38.1160   32.3140   38.5460 O   0  0  0  0  0  0  0  0  0  0  0  0
   38.9200   31.9580   37.5030 C   0  0  0  0  0  2  0  0  0  0  0  0
   40.3470   32.0710   37.9120 C   0  0  1  0  0  3  0  0  0  0  0  0
   40.7690   33.7780   39.4490 O   0  0  0  0  0  0  0  0  0  0  0  0
   40.1600   34.3690   38.9470 H   0  0  0  0  0  0  0  0  0  0  0  0
   40.9610   33.0430   37.1030 O   0  0  0  0  0  0  0  0  0  0  0  0
   41.7260   33.4350   37.5620 H   0  0  0  0  0  0  0  0  0  0  0  0
   37.7790   28.3940   43.6080 C   0  0  0  0  0  0  0  0  0  0  0  0
   36.7520   27.9900   43.3660 H   0  0  0  0  0  0  0  0  0  0  0  0
   37.6570   28.8510   44.6050 H   0  0  0  0  0  0  0  0  0  0  0  0
   38.7900   27.2810   43.5840 C   0  0  0  0  0  0  0  0  0  0  0  0
   39.8130   27.7290   43.4340 H   0  0  0  0  0  0  0  0  0  0  0  0
   38.8220   26.7730   44.5930 H   0  0  0  0  0  0  0  0  0  0  0  0
   36.9760   24.8020   41.5980 C   0  0  0  0  0  0  0  0  0  0  0  0
   37.8450   24.5710   40.5120 C   0  0  0  0  0  0  0  0  0  0  0  0
   39.0440   25.3020   40.5090 C   0  0  0  0  0  0  0  0  0  0  0  0
   39.3130   26.1640   41.5080 N   0  0  0  0  0  0  0  0  0  0  0  0
   38.4300   26.3320   42.5170 C   0  0  0  0  0  0  0  0  0  0  0  0
   37.2980   25.6810   42.5750 N   0  0  0  0  0  0  0  0  0  0  0  0
   36.0240   24.2990   41.7080 H   0  0  0  0  0  0  0  0  0  0  0  0
   37.5370   23.8570   39.7600 H   0  0  0  0  0  0  0  0  0  0  0  0
   39.7110   25.1260   39.6780 H   0  0  0  0  0  0  0  0  0  0  0  0
  1 24  1  0  0  0  0
  2  1  1  0  0  0  0
  2  7  1  0  0  0  0
  3  8  1  0  0  0  0
  3  2  2  0  0  0  0
  4  5  2  0  0  0  0
  4  3  1  0  0  0  0
  5  6  1  0  0  0  0
  6  1  2  0  0  0  0
  9  5  1  0  0  0  0
 10 12  1  0  0  0  0
 11 10  2  0  0  0  0
 12  6  1  0  0  0  0
 12 14  1  0  0  0  0
 13 10  1  0  0  0  0
 15 20  1  6  0  0  0
 15 16  1  0  0  0  0
 16  4  1  1  0  0  0
 17 16  1  0  0  0  0
 18 19  1  0  0  0  0
 18 17  1  0  0  0  0
 19 22  1  6  0  0  0
 19 15  1  0  0  0  0
 21 20  1  0  0  0  0
 22 23  1  0  0  0  0
 24 26  1  0  0  0  0
 25 24  1  0  0  0  0
 27 24  1  0  0  0  0
 27 29  1  0  0  0  0
 28 27  1  0  0  0  0
 30 36  1  0  0  0  0
 30 35  1  0  0  0  0
 31 30  2  0  0  0  0
 32 31  1  0  0  0  0
 32 33  2  0  0  0  0
 33 34  1  0  0  0  0
 34 35  2  0  0  0  0
 34 27  1  0  0  0  0
 37 31  1  0  0  0  0
 38 32  1  0  0  0  0
M  END
>  <minimizedAffinity>
-5.74648666

$$$$

 OpenBabel03252501303D

 38 40  0  0  1  0  0  0  0  0999 V2000
   36.7340   27.0850   40.4230 C   0  0  0  0  0  0  0  0  0  0  0  0
   36.8870   27.4830   39.1160 C   0  0  0  0  0  0  0  0  0  0  0  0
   36.9530   28.7860   38.7150 C   0  0  0  0  0  0  0  0  0  0  0  0
   36.8630   29.7530   39.6480 C   0  0  0  0  0  0  0  0  0  0  0  0
   36.7080   29.3880   40.9960 C   0  0  0  0  0  0  0  0  0  0  0  0
   36.6460   28.0630   41.3710 C   0  0  0  0  0  0  0  0  0  0  0  0
   36.9520   26.6440   38.4040 H   0  0  0  0  0  0  0  0  0  0  0  0
   37.0740   28.9280   37.6500 H   0  0  0  0  0  0  0  0  0  0  0  0
   36.6570   30.3020   41.5950 H   0  0  0  0  0  0  0  0  0  0  0  0
   37.7550   28.0300   43.5180 C   0  0  0  0  0  0  0  0  0  0  0  0
   39.0210   27.9130   43.3170 O   0  0  0  0  0  0  0  0  0  0  0  0
   36.5150   28.0810   42.7970 N   0  0  0  0  0  0  0  0  0  0  0  0
   37.9030   28.0910   44.6080 H   0  0  0  0  0  0  0  0  0  0  0  0
   35.7100   28.1240   43.4580 H   0  0  0  0  0  0  0  0  0  0  0  0
   37.6120   32.0750   40.1230 C   0  0  1  0  0  3  0  0  0  0  0  0
   36.9420   31.1640   39.1310 C   0  0  1  0  0  3  0  0  0  0  0  0
   37.6060   31.2440   37.9380 O   0  0  0  0  0  0  0  0  0  0  0  0
   38.7990   31.8900   38.0860 C   0  0  0  0  0  2  0  0  0  0  0  0
   38.8750   32.4910   39.4460 C   0  0  1  0  0  3  0  0  0  0  0  0
   36.8180   33.1990   40.2940 O   0  0  0  0  0  0  0  0  0  0  0  0
   36.5850   33.5590   39.4070 H   0  0  0  0  0  0  0  0  0  0  0  0
   38.9690   33.8860   39.3040 O   0  0  0  0  0  0  0  0  0  0  0  0
   38.6250   34.3340   40.1000 H   0  0  0  0  0  0  0  0  0  0  0  0
   36.6290   25.7360   40.9780 C   0  0  0  0  0  0  0  0  0  0  0  0
   35.6000   25.3190   40.7680 H   0  0  0  0  0  0  0  0  0  0  0  0
   36.6650   25.8170   42.0770 H   0  0  0  0  0  0  0  0  0  0  0  0
   37.6810   24.8210   40.4150 C   0  0  0  0  0  0  0  0  0  0  0  0
   37.2650   23.7740   40.3790 H   0  0  0  0  0  0  0  0  0  0  0  0
   37.8980   25.1020   39.3430 H   0  0  0  0  0  0  0  0  0  0  0  0
   41.1060   25.4830   41.5180 C   0  0  0  0  0  0  0  0  0  0  0  0
   41.0990   25.0350   42.8550 C   0  0  0  0  0  0  0  0  0  0  0  0
   39.8830   24.5170   43.3300 C   0  0  0  0  0  0  0  0  0  0  0  0
   38.8080   24.4660   42.5220 N   0  0  0  0  0  0  0  0  0  0  0  0
   38.8910   24.9150   41.2500 C   0  0  0  0  0  0  0  0  0  0  0  0
   39.9940   25.4080   40.7510 N   0  0  0  0  0  0  0  0  0  0  0  0
   41.9830   25.9020   41.0420 H   0  0  0  0  0  0  0  0  0  0  0  0
   42.0170   25.1180   43.4220 H   0  0  0  0  0  0  0  0  0  0  0  0
   39.8770   24.1720   44.3540 H   0  0  0  0  0  0  0  0  0  0  0  0
  1 24  1  0  0  0  0
  1  6  1  0  0  0  0
  2  1  2  0  0  0  0
  3  2  1  0  0  0  0
  3  4  2  0  0  0  0
  4  5  1  0  0  0  0
  5  6  2  0  0  0  0
  5  9  1  0  0  0  0
  6 12  1  0  0  0  0
  7  2  1  0  0  0  0
  8  3  1  0  0  0  0
 10 13  1  0  0  0  0
 11 10  2  0  0  0  0
 12 14  1  0  0  0  0
 12 10  1  0  0  0  0
 15 20  1  6  0  0  0
 16  4  1  1  0  0  0
 16 15  1  0  0  0  0
 17 18  1  0  0  0  0
 17 16  1  0  0  0  0
 18 19  1  0  0  0  0
 19 22  1  6  0  0  0
 19 15  1  0  0  0  0
 21 20  1  0  0  0  0
 22 23  1  0  0  0  0
 24 26  1  0  0  0  0
 25 24  1  0  0  0  0
 27 24  1  0  0  0  0
 27 34  1  0  0  0  0
 28 27  1  0  0  0  0
 29 27  1  0  0  0  0
 30 31  1  0  0  0  0
 31 32  2  0  0  0  0
 31 37  1  0  0  0  0
 32 38  1  0  0  0  0
 33 32  1  0  0  0  0
 34 33  2  0  0  0  0
 35 34  1  0  0  0  0
 35 30  2  0  0  0  0
 36 30  1  0  0  0  0
M  END
>  <minimizedAffinity>
-5.73532629

$$$$

 OpenBabel03252501303D

 38 40  0  0  1  0  0  0  0  0999 V2000
   37.0710   30.4820   41.0500 C   0  0  0  0  0  0  0  0  0  0  0  0
   36.1610   29.4560   40.9690 C   0  0  0  0  0  0  0  0  0  0  0  0
   36.3330   28.2320   41.5500 C   0  0  0  0  0  0  0  0  0  0  0  0
   37.4610   28.0020   42.2480 C   0  0  0  0  0  0  0  0  0  0  0  0
   38.4160   29.0260   42.3570 C   0  0  0  0  0  0  0  0  0  0  0  0
   38.2150   30.2520   41.7610 C   0  0  0  0  0  0  0  0  0  0  0  0
   35.2620   29.7080   40.3840 H   0  0  0  0  0  0  0  0  0  0  0  0
   35.5200   27.5350   41.3900 H   0  0  0  0  0  0  0  0  0  0  0  0
   39.2520   28.6530   42.9570 H   0  0  0  0  0  0  0  0  0  0  0  0
   40.5530   30.7160   41.3610 C   0  0  0  0  0  0  0  0  0  0  0  0
   40.9830   29.8870   40.4750 O   0  0  0  0  0  0  0  0  0  0  0  0
   39.3660   31.0310   42.1040 N   0  0  0  0  0  0  0  0  0  0  0  0
   41.5320   31.2170   41.4100 H   0  0  0  0  0  0  0  0  0  0  0  0
   39.5560   31.7970   42.7850 H   0  0  0  0  0  0  0  0  0  0  0  0
   37.2420   25.5570   41.8590 C   0  0  1  0  0  3  0  0  0  0  0  0
   37.5790   26.6310   42.8570 C   0  0  1  0  0  3  0  0  0  0  0  0
   38.8290   26.3910   43.3590 O   0  0  0  0  0  0  0  0  0  0  0  0
   39.4770   25.4430   42.6220 C   0  0  0  0  0  2  0  0  0  0  0  0
   38.5250   24.8230   41.6600 C   0  0  1  0  0  3  0  0  0  0  0  0
   36.3280   24.6890   42.4400 O   0  0  0  0  0  0  0  0  0  0  0  0
   36.6670   24.4190   43.3250 H   0  0  0  0  0  0  0  0  0  0  0  0
   38.4120   23.4570   41.9720 O   0  0  0  0  0  0  0  0  0  0  0  0
   37.5530   23.1080   41.6700 H   0  0  0  0  0  0  0  0  0  0  0  0
   37.0190   31.8200   40.4630 C   0  0  0  0  0  0  0  0  0  0  0  0
   37.7680   32.4900   40.9790 H   0  0  0  0  0  0  0  0  0  0  0  0
   36.0430   32.2650   40.7190 H   0  0  0  0  0  0  0  0  0  0  0  0
   37.2880   31.7880   38.9840 C   0  0  0  0  0  0  0  0  0  0  0  0
   37.1440   30.7320   38.6160 H   0  0  0  0  0  0  0  0  0  0  0  0
   36.5170   32.4100   38.4430 H   0  0  0  0  0  0  0  0  0  0  0  0
   40.6190   32.2470   37.5420 C   0  0  0  0  0  0  0  0  0  0  0  0
   41.1790   33.2520   38.3560 C   0  0  0  0  0  0  0  0  0  0  0  0
   40.3630   33.7420   39.3880 C   0  0  0  0  0  0  0  0  0  0  0  0
   39.1200   33.2530   39.5580 N   0  0  0  0  0  0  0  0  0  0  0  0
   38.6510   32.2880   38.7360 C   0  0  0  0  0  0  0  0  0  0  0  0
   39.3630   31.7920   37.7580 N   0  0  0  0  0  0  0  0  0  0  0  0
   41.1510   31.7930   36.7150 H   0  0  0  0  0  0  0  0  0  0  0  0
   42.1880   33.5770   38.1370 H   0  0  0  0  0  0  0  0  0  0  0  0
   40.7910   34.5120   40.0130 H   0  0  0  0  0  0  0  0  0  0  0  0
  1  6  1  0  0  0  0
  2  1  2  0  0  0  0
  2  3  1  0  0  0  0
  3  4  2  0  0  0  0
  4  5  1  0  0  0  0
  5  9  1  0  0  0  0
  6 12  1  0  0  0  0
  6  5  2  0  0  0  0
  7  2  1  0  0  0  0
  8  3  1  0  0  0  0
 10 13  1  0  0  0  0
 10 12  1  0  0  0  0
 11 10  2  0  0  0  0
 12 14  1  0  0  0  0
 15 20  1  1  0  0  0
 15 16  1  0  0  0  0
 16  4  1  6  0  0  0
 16 17  1  0  0  0  0
 18 17  1  0  0  0  0
 19 15  1  0  0  0  0
 19 22  1  1  0  0  0
 19 18  1  0  0  0  0
 20 21  1  0  0  0  0
 23 22  1  0  0  0  0
 24 26  1  0  0  0  0
 24 25  1  0  0  0  0
 24  1  1  0  0  0  0
 27 24  1  0  0  0  0
 28 27  1  0  0  0  0
 29 27  1  0  0  0  0
 30 35  2  0  0  0  0
 30 31  1  0  0  0  0
 31 32  2  0  0  0  0
 32 33  1  0  0  0  0
 32 38  1  0  0  0  0
 34 27  1  0  0  0  0
 34 33  2  0  0  0  0
 35 34  1  0  0  0  0
 36 30  1  0  0  0  0
 37 31  1  0  0  0  0
M  END
>  <minimizedAffinity>
-5.67068195

$$$$
