REMARK  Name = 
REMARK  4 active torsions:
REMARK  status: ('A' for Active; 'I' for Inactive)
REMARK    1  A    between atoms: C_3  and  C_7
REMARK    2  A    between atoms: C_9  and  C_19
REMARK    3  A    between atoms: O_17  and  C_18
REMARK    4  A    between atoms: C_22  and  O_23
REMARK                            x       y       z     vdW  Elec       q    Type
REMARK                         _______ _______ _______ _____ _____    ______ ____
ROOT
ATOM      1  C   UNL     1      47.090  34.757  41.756  0.00  0.00    +0.000 C 
ATOM      2  C   UNL     1      48.406  35.502  41.824  0.00  0.00    +0.000 C 
ATOM      3  C   UNL     1      48.308  33.957  41.807  0.00  0.00    +0.000 C 
ATOM      4  H   UNL     1      46.500  34.903  40.819  0.00  0.00    +0.000 HD
ATOM      5  H   UNL     1      48.692  35.997  40.895  0.00  0.00    +0.000 HD
ATOM      6  H   UNL     1      48.670  35.998  42.755  0.00  0.00    +0.000 HD
ATOM      7  H   UNL     1      48.574  33.518  42.796  0.00  0.00    +0.000 HD
ENDROOT
BRANCH   1  10
ATOM      8  C   UNL     1      44.616  35.950  44.338  0.00  0.00    +0.000 A 
ATOM      9  C   UNL     1      45.353  35.919  43.136  0.00  0.00    +0.000 A 
ATOM     10  C   UNL     1      46.274  34.892  43.010  0.00  0.00    +0.000 A 
ATOM     11  N   UNL     1      46.440  33.971  44.016  0.00  0.00    +0.000 NA
ATOM     12  C   UNL     1      45.706  34.037  45.164  0.00  0.00    +0.000 A 
ATOM     13  N   UNL     1      44.803  35.028  45.308  0.00  0.00    +0.000 NA
ATOM     14  H   UNL     1      43.897  36.731  44.467  0.00  0.00    +0.000 HD
ATOM     15  H   UNL     1      45.202  36.657  42.361  0.00  0.00    +0.000 HD
ATOM     16  H   UNL     1      45.937  33.251  45.869  0.00  0.00    +0.000 HD
ENDBRANCH   1  10
BRANCH   3  18
ATOM     17  C   UNL     1      48.642  31.811  40.621  0.00  0.00    +0.000 C 
ATOM     18  C   UNL     1      48.902  33.297  40.601  0.00  0.00    +0.000 C 
ATOM     19  O   UNL     1      48.317  33.792  39.459  0.00  0.00    +0.000 OA
ATOM     20  C   UNL     1      48.270  32.813  38.497  0.00  0.00    +0.000 C 
ATOM     21  C   UNL     1      48.474  31.476  39.152  0.00  0.00    +0.000 C 
BRANCH  17  22
ATOM     22  O   UNL     1      49.784  31.121  41.078  0.00  0.00    +0.000 OA
ATOM     23  H   UNL     1      50.595  31.695  41.082  0.00  0.00    +0.000 HD
ENDBRANCH  17  22
BRANCH  21  24
ATOM     24  O   UNL     1      47.335  30.695  38.951  0.00  0.00    +0.000 OA
ATOM     25  H   UNL     1      47.091  30.717  37.993  0.00  0.00    +0.000 HD
ENDBRANCH  21  24
ENDBRANCH   3  18
TORSDOF 4
