
 OpenBabel03242523463D

 19 20  0  0  1  0  0  0  0  0999 V2000
   44.7140   35.2110   44.3130 C   0  0  0  0  0  0  0  0  0  0  0  0
   45.4660   35.3600   43.1350 C   0  0  0  0  0  0  0  0  0  0  0  0
   46.6490   34.6160   43.0290 C   0  0  0  0  0  0  0  0  0  0  0  0
   47.0110   33.7940   44.0580 N   0  0  0  0  0  0  0  0  0  0  0  0
   46.2530   33.6870   45.1690 C   0  0  0  0  0  0  0  0  0  0  0  0
   45.1250   34.3820   45.2950 N   0  0  0  0  0  0  0  0  0  0  0  0
   45.2010   36.0010   42.3140 H   0  0  0  0  0  0  0  0  0  0  0  0
   46.6060   33.0100   45.9490 H   0  0  0  0  0  0  0  0  0  0  0  0
   48.5690   33.5240   41.8500 C   0  0  1  0  0  3  0  0  0  0  0  0
   47.5490   34.6440   41.8850 C   0  0  1  0  0  3  0  0  0  0  0  0
   46.8860   34.4130   40.6840 O   0  0  0  0  0  0  0  0  0  0  0  0
   47.8580   34.2160   39.7250 C   0  0  0  0  0  2  0  0  0  0  0  0
   49.0970   33.7230   40.4240 C   0  0  2  0  0  3  0  0  0  0  0  0
   49.5810   33.6690   42.7820 O   0  0  0  0  0  0  0  0  0  0  0  0
   49.8770   32.7890   43.1710 H   0  0  0  0  0  0  0  0  0  0  0  0
   49.5920   32.5480   39.8960 O   0  0  0  0  0  0  0  0  0  0  0  0
   50.5780   32.5860   39.7630 H   0  0  0  0  0  0  0  0  0  0  0  0
   43.5630   35.9360   44.4150 O   0  0  0  0  0  0  0  0  0  0  0  0
   43.5570   36.8810   44.0490 H   0  0  0  0  0  0  0  0  0  0  0  0
  1 18  1  0  0  0  0
  1  6  1  0  0  0  0
  2  1  2  0  0  0  0
  3  2  1  0  0  0  0
  3  4  2  0  0  0  0
  4  5  1  0  0  0  0
  5  6  2  0  0  0  0
  5  8  1  0  0  0  0
  7  2  1  0  0  0  0
  9 10  1  0  0  0  0
  9 14  1  1  0  0  0
 10  3  1  1  0  0  0
 11 10  1  0  0  0  0
 12 13  1  0  0  0  0
 12 11  1  0  0  0  0
 13 16  1  6  0  0  0
 13  9  1  0  0  0  0
 14 15  1  0  0  0  0
 17 16  1  0  0  0  0
 19 18  1  0  0  0  0
M  END
>  <minimizedAffinity>
-4.62107134

>  <minimizedRMSD>
2.07399821

$$$$
