
 OpenBabel03242521313D

 47 50  0  0  1  0  0  0  0  0999 V2000
   38.4010   29.1910   40.4810 C   0  0  1  0  0  0  0  0  0  0  0  0
   37.4390   28.0440   40.1880 C   0  0  2  0  0  0  0  0  0  0  0  0
   36.1790   28.3100   40.6370 O   0  0  0  0  0  0  0  0  0  0  0  0
   35.6580   29.2900   39.8460 C   0  0  0  0  0  0  0  0  0  0  0  0
   36.3440   30.5910   40.1450 C   0  0  2  0  0  0  0  0  0  0  0  0
   37.8570   30.5270   40.2190 C   0  0  2  0  0  0  0  0  0  0  0  0
   39.2600   29.0280   39.7620 H   0  0  0  0  0  0  0  0  0  0  0  0
   37.4300   27.9140   39.0780 H   0  0  0  0  0  0  0  0  0  0  0  0
   35.9250   29.0230   38.7810 H   0  0  0  0  0  0  0  0  0  0  0  0
   34.5860   29.4450   39.9720 H   0  0  0  0  0  0  0  0  0  0  0  0
   35.9670   31.2410   39.3280 H   0  0  0  0  0  0  0  0  0  0  0  0
   38.1120   31.2040   41.0610 H   0  0  0  0  0  0  0  0  0  0  0  0
   37.5710   24.7920   42.1320 C   0  0  0  0  0  0  0  0  0  0  0  0
   37.0600   25.9650   41.5640 C   0  0  0  0  0  0  0  0  0  0  0  0
   37.9350   26.8000   40.7920 C   0  0  0  0  0  0  0  0  0  0  0  0
   39.2230   26.4240   40.6390 N   0  0  0  0  0  0  0  0  0  0  0  0
   39.6810   25.2640   41.2150 C   0  0  0  0  0  0  0  0  0  0  0  0
   38.8620   24.4600   41.9520 N   0  0  0  0  0  0  0  0  0  0  0  0
   36.8430   24.2290   42.6940 H   0  0  0  0  0  0  0  0  0  0  0  0
   36.0420   26.2560   41.6880 H   0  0  0  0  0  0  0  0  0  0  0  0
   40.7120   24.9640   41.0920 H   0  0  0  0  0  0  0  0  0  0  0  0
   38.9770   29.0780   41.7380 O   0  0  0  0  0  0  0  0  0  0  0  0
   39.9480   29.2400   41.7600 H   0  0  0  0  0  0  0  0  0  0  0  0
   35.8170   31.0010   41.3810 O   0  0  0  0  0  0  0  0  0  0  0  0
   36.5140   31.2640   42.0170 H   0  0  0  0  0  0  0  0  0  0  0  0
   38.3800   31.1610   39.0880 O   0  0  0  0  0  0  0  0  0  0  0  0
   38.8380   33.4670   38.9220 N   0  0  0  0  0  0  0  0  0  0  0  0
   37.8040   33.7140   39.9470 C   0  0  0  0  0  0  0  0  0  0  0  0
   38.6520   33.6040   41.1830 C   0  0  0  0  0  0  0  0  0  0  0  0
   39.4680   32.3680   40.8580 C   0  0  0  0  0  0  0  0  0  0  0  0
   39.2760   32.1530   39.3440 C   0  0  1  0  0  0  0  0  0  0  0  0
   39.6010   34.1470   39.1390 H   0  0  0  0  0  0  0  0  0  0  0  0
   37.3440   34.7060   39.8010 H   0  0  0  0  0  0  0  0  0  0  0  0
   37.0560   32.9100   39.9330 H   0  0  0  0  0  0  0  0  0  0  0  0
   37.9540   33.3600   42.0170 H   0  0  0  0  0  0  0  0  0  0  0  0
   39.2480   34.5040   41.3740 H   0  0  0  0  0  0  0  0  0  0  0  0
   40.5030   32.6430   41.1260 H   0  0  0  0  0  0  0  0  0  0  0  0
   39.0790   31.4910   41.4220 H   0  0  0  0  0  0  0  0  0  0  0  0
   40.9390   32.1850   37.4050 C   0  0  1  0  0  3  0  0  0  0  0  0
   40.6870   32.0150   38.8620 C   0  0  2  0  0  3  0  0  0  0  0  0
   40.9080   30.6010   38.9600 O   0  0  0  0  0  0  0  0  0  0  0  0
   42.2040   30.5280   38.4000 C   0  0  0  0  0  2  0  0  0  0  0  0
   41.8880   31.0760   37.0230 C   0  0  2  0  0  3  0  0  0  0  0  0
   39.8550   32.2960   36.5860 O   0  0  0  0  0  0  0  0  0  0  0  0
   39.8100   33.0730   36.0000 H   0  0  0  0  0  0  0  0  0  0  0  0
   43.0460   31.5370   36.4010 O   0  0  0  0  0  0  0  0  0  0  0  0
   42.8400   32.3910   35.9540 H   0  0  0  0  0  0  0  0  0  0  0  0
  1  7  1  6  0  0  0
  1 22  1  0  0  0  0
  2  8  1  6  0  0  0
  2  1  1  0  0  0  0
  2  3  1  0  0  0  0
  2 15  1  0  0  0  0
  4 10  1  0  0  0  0
  4  5  1  0  0  0  0
  4  3  1  0  0  0  0
  5 11  1  6  0  0  0
  5  6  1  0  0  0  0
  5 24  1  0  0  0  0
  6  1  1  0  0  0  0
  6 12  1  1  0  0  0
  9  4  1  0  0  0  0
 13 19  1  0  0  0  0
 14 20  1  0  0  0  0
 14 13  2  0  0  0  0
 15 14  1  0  0  0  0
 16 15  2  0  0  0  0
 16 17  1  0  0  0  0
 17 18  2  0  0  0  0
 18 13  1  0  0  0  0
 21 17  1  0  0  0  0
 22 23  1  0  0  0  0
 24 25  1  0  0  0  0
 26  6  1  0  0  0  0
 27 32  1  0  0  0  0
 27 31  1  0  0  0  0
 27 28  1  0  0  0  0
 28 29  1  0  0  0  0
 29 36  1  0  0  0  0
 29 35  1  0  0  0  0
 30 37  1  0  0  0  0
 30 29  1  0  0  0  0
 30 38  1  0  0  0  0
 31 26  1  6  0  0  0
 31 30  1  0  0  0  0
 33 28  1  0  0  0  0
 34 28  1  0  0  0  0
 39 44  1  6  0  0  0
 39 40  1  0  0  0  0
 40 41  1  6  0  0  0
 40 31  1  0  0  0  0
 42 41  1  0  0  0  0
 43 46  1  1  0  0  0
 43 39  1  0  0  0  0
 43 42  1  0  0  0  0
 45 44  1  0  0  0  0
 47 46  1  0  0  0  0
M  END
>  <minimizedAffinity>
-6.55391169

$$$$

 OpenBabel03242521313D

 47 50  0  0  1  0  0  0  0  0999 V2000
   40.4400   31.8530   40.3580 C   0  0  1  0  0  0  0  0  0  0  0  0
   40.8510   33.3110   40.5350 C   0  0  2  0  0  0  0  0  0  0  0  0
   40.0560   34.1540   39.8150 O   0  0  0  0  0  0  0  0  0  0  0  0
   38.8260   34.1610   40.4020 C   0  0  0  0  0  0  0  0  0  0  0  0
   38.1450   32.8490   40.1500 C   0  0  2  0  0  0  0  0  0  0  0  0
   38.9940   31.6160   40.3960 C   0  0  2  0  0  0  0  0  0  0  0  0
   40.8930   31.3240   41.2500 H   0  0  0  0  0  0  0  0  0  0  0  0
   40.7590   33.5360   41.6260 H   0  0  0  0  0  0  0  0  0  0  0  0
   38.9990   34.2260   41.5160 H   0  0  0  0  0  0  0  0  0  0  0  0
   38.1640   34.9510   40.0450 H   0  0  0  0  0  0  0  0  0  0  0  0
   37.2610   32.9180   40.8170 H   0  0  0  0  0  0  0  0  0  0  0  0
   38.7080   30.9270   39.5740 H   0  0  0  0  0  0  0  0  0  0  0  0
   44.6300   33.5520   40.7130 C   0  0  0  0  0  0  0  0  0  0  0  0
   43.3040   33.3610   41.1190 C   0  0  0  0  0  0  0  0  0  0  0  0
   42.2560   33.4930   40.1470 C   0  0  0  0  0  0  0  0  0  0  0  0
   42.5870   33.7970   38.8740 N   0  0  0  0  0  0  0  0  0  0  0  0
   43.9030   33.9750   38.5210 C   0  0  0  0  0  0  0  0  0  0  0  0
   44.9100   33.8530   39.4330 N   0  0  0  0  0  0  0  0  0  0  0  0
   45.3490   33.4320   41.5090 H   0  0  0  0  0  0  0  0  0  0  0  0
   43.0500   33.1200   42.1260 H   0  0  0  0  0  0  0  0  0  0  0  0
   44.1670   34.2190   37.5010 H   0  0  0  0  0  0  0  0  0  0  0  0
   41.0560   31.2690   39.2610 O   0  0  0  0  0  0  0  0  0  0  0  0
   41.4270   30.3730   39.4280 H   0  0  0  0  0  0  0  0  0  0  0  0
   37.7480   32.9000   38.8030 O   0  0  0  0  0  0  0  0  0  0  0  0
   38.0010   32.0950   38.3060 H   0  0  0  0  0  0  0  0  0  0  0  0
   38.5330   30.9890   41.5580 O   0  0  0  0  0  0  0  0  0  0  0  0
   39.2560   28.7610   41.2940 N   0  0  0  0  0  0  0  0  0  0  0  0
   39.7200   28.7790   42.6960 C   0  0  0  0  0  0  0  0  0  0  0  0
   38.4610   28.3220   43.3770 C   0  0  0  0  0  0  0  0  0  0  0  0
   37.4260   29.1590   42.6520 C   0  0  0  0  0  0  0  0  0  0  0  0
   38.1520   29.6920   41.4010 C   0  0  1  0  0  0  0  0  0  0  0  0
   38.8590   27.8050   41.1540 H   0  0  0  0  0  0  0  0  0  0  0  0
   40.5780   28.0990   42.8290 H   0  0  0  0  0  0  0  0  0  0  0  0
   39.9610   29.8050   43.0030 H   0  0  0  0  0  0  0  0  0  0  0  0
   38.5320   28.6780   44.4310 H   0  0  0  0  0  0  0  0  0  0  0  0
   38.3030   27.2400   43.3030 H   0  0  0  0  0  0  0  0  0  0  0  0
   36.6160   28.4480   42.4100 H   0  0  0  0  0  0  0  0  0  0  0  0
   37.0970   30.0070   43.2940 H   0  0  0  0  0  0  0  0  0  0  0  0
   35.8820   30.0200   40.2770 C   0  0  1  0  0  3  0  0  0  0  0  0
   37.2000   29.3300   40.3030 C   0  0  2  0  0  3  0  0  0  0  0  0
   36.7570   28.0240   40.7000 O   0  0  0  0  0  0  0  0  0  0  0  0
   35.7970   27.7870   39.6900 C   0  0  0  0  0  2  0  0  0  0  0  0
   34.8640   28.9440   39.9870 C   0  0  2  0  0  3  0  0  0  0  0  0
   35.5650   30.8150   41.3370 O   0  0  0  0  0  0  0  0  0  0  0  0
   35.3120   31.7370   41.1490 H   0  0  0  0  0  0  0  0  0  0  0  0
   34.0680   29.2290   38.8800 O   0  0  0  0  0  0  0  0  0  0  0  0
   34.0180   30.2080   38.7760 H   0  0  0  0  0  0  0  0  0  0  0  0
  1  6  1  0  0  0  0
  1  2  1  0  0  0  0
  1  7  1  1  0  0  0
  2  8  1  1  0  0  0
  3  4  1  0  0  0  0
  3  2  1  0  0  0  0
  4  9  1  0  0  0  0
  5  6  1  0  0  0  0
  5  4  1  0  0  0  0
  5 11  1  1  0  0  0
  6 12  1  6  0  0  0
  6 26  1  0  0  0  0
 10  4  1  0  0  0  0
 13 14  1  0  0  0  0
 13 19  1  0  0  0  0
 14 20  1  0  0  0  0
 15  2  1  0  0  0  0
 15 14  2  0  0  0  0
 16 15  1  0  0  0  0
 17 16  2  0  0  0  0
 17 18  1  0  0  0  0
 18 13  2  0  0  0  0
 21 17  1  0  0  0  0
 22 23  1  0  0  0  0
 22  1  1  0  0  0  0
 24  5  1  0  0  0  0
 25 24  1  0  0  0  0
 27 31  1  0  0  0  0
 27 28  1  0  0  0  0
 28 33  1  0  0  0  0
 28 34  1  0  0  0  0
 28 29  1  0  0  0  0
 29 35  1  0  0  0  0
 30 38  1  0  0  0  0
 30 29  1  0  0  0  0
 31 26  1  1  0  0  0
 31 30  1  0  0  0  0
 32 27  1  0  0  0  0
 36 29  1  0  0  0  0
 37 30  1  0  0  0  0
 39 40  1  0  0  0  0
 39 44  1  1  0  0  0
 40 41  1  1  0  0  0
 40 31  1  0  0  0  0
 42 43  1  0  0  0  0
 42 41  1  0  0  0  0
 43 46  1  6  0  0  0
 43 39  1  0  0  0  0
 45 44  1  0  0  0  0
 47 46  1  0  0  0  0
M  END
>  <minimizedAffinity>
-6.23972511

$$$$

 OpenBabel03242521313D

 47 50  0  0  1  0  0  0  0  0999 V2000
   36.7190   28.0590   38.7540 C   0  0  1  0  0  0  0  0  0  0  0  0
   35.8220   27.0360   38.0660 C   0  0  2  0  0  0  0  0  0  0  0  0
   36.3330   25.7740   38.1510 O   0  0  0  0  0  0  0  0  0  0  0  0
   36.2290   25.3740   39.4500 C   0  0  0  0  0  0  0  0  0  0  0  0
   37.2150   26.1340   40.2870 C   0  0  2  0  0  0  0  0  0  0  0  0
   37.2530   27.6320   40.0510 C   0  0  2  0  0  0  0  0  0  0  0  0
   36.0400   28.9450   38.9430 H   0  0  0  0  0  0  0  0  0  0  0  0
   34.8320   27.0830   38.5820 H   0  0  0  0  0  0  0  0  0  0  0  0
   35.2010   25.6840   39.8030 H   0  0  0  0  0  0  0  0  0  0  0  0
   36.4120   24.3100   39.6080 H   0  0  0  0  0  0  0  0  0  0  0  0
   36.9050   25.8560   41.3150 H   0  0  0  0  0  0  0  0  0  0  0  0
   38.3320   27.8850   40.1110 H   0  0  0  0  0  0  0  0  0  0  0  0
   35.5210   26.7970   34.2950 C   0  0  0  0  0  0  0  0  0  0  0  0
   35.7080   26.4080   35.6260 C   0  0  0  0  0  0  0  0  0  0  0  0
   35.6220   27.4020   36.6570 C   0  0  0  0  0  0  0  0  0  0  0  0
   35.3640   28.6800   36.3060 N   0  0  0  0  0  0  0  0  0  0  0  0
   35.1880   29.0160   34.9860 C   0  0  0  0  0  0  0  0  0  0  0  0
   35.2660   28.0830   33.9940 N   0  0  0  0  0  0  0  0  0  0  0  0
   35.6020   25.9850   33.5890 H   0  0  0  0  0  0  0  0  0  0  0  0
   35.9100   25.3960   35.8970 H   0  0  0  0  0  0  0  0  0  0  0  0
   34.9810   30.0400   34.7060 H   0  0  0  0  0  0  0  0  0  0  0  0
   37.6970   28.5500   37.9020 O   0  0  0  0  0  0  0  0  0  0  0  0
   37.8140   29.5270   37.9310 H   0  0  0  0  0  0  0  0  0  0  0  0
   38.4630   25.5660   39.9800 O   0  0  0  0  0  0  0  0  0  0  0  0
   39.1420   26.2410   39.7740 H   0  0  0  0  0  0  0  0  0  0  0  0
   36.6800   28.2660   41.1580 O   0  0  0  0  0  0  0  0  0  0  0  0
   37.2250   29.0860   43.2990 N   0  0  0  0  0  0  0  0  0  0  0  0
   37.6460   27.7230   43.6790 C   0  0  0  0  0  0  0  0  0  0  0  0
   39.0870   27.7830   43.2570 C   0  0  0  0  0  0  0  0  0  0  0  0
   38.9570   28.4520   41.9030 C   0  0  0  0  0  0  0  0  0  0  0  0
   37.5320   29.0390   41.8850 C   0  0  1  0  0  0  0  0  0  0  0  0
   37.9170   29.7200   43.7580 H   0  0  0  0  0  0  0  0  0  0  0  0
   37.4980   27.5600   44.7610 H   0  0  0  0  0  0  0  0  0  0  0  0
   37.1090   26.9780   43.0780 H   0  0  0  0  0  0  0  0  0  0  0  0
   39.4090   26.7270   43.1030 H   0  0  0  0  0  0  0  0  0  0  0  0
   39.7200   28.3230   43.9710 H   0  0  0  0  0  0  0  0  0  0  0  0
   39.7430   29.2280   41.9020 H   0  0  0  0  0  0  0  0  0  0  0  0
   39.0720   27.7000   41.0890 H   0  0  0  0  0  0  0  0  0  0  0  0
   36.5980   31.2820   41.0950 C   0  0  1  0  0  3  0  0  0  0  0  0
   37.7790   30.4570   41.4700 C   0  0  2  0  0  3  0  0  0  0  0  0
   38.3590   30.2990   40.1670 O   0  0  0  0  0  0  0  0  0  0  0  0
   38.4710   31.6580   39.7950 C   0  0  0  0  0  2  0  0  0  0  0  0
   37.0020   32.0290   39.8480 C   0  0  2  0  0  3  0  0  0  0  0  0
   35.3930   30.6520   41.0010 O   0  0  0  0  0  0  0  0  0  0  0  0
   34.6540   31.0130   41.5230 H   0  0  0  0  0  0  0  0  0  0  0  0
   36.8490   33.4090   39.9630 O   0  0  0  0  0  0  0  0  0  0  0  0
   36.1360   33.5890   40.6190 H   0  0  0  0  0  0  0  0  0  0  0  0
  1  7  1  1  0  0  0
  1  6  1  0  0  0  0
  2  3  1  0  0  0  0
  2  8  1  1  0  0  0
  2  1  1  0  0  0  0
  3  4  1  0  0  0  0
  4 10  1  0  0  0  0
  4  9  1  0  0  0  0
  4  5  1  0  0  0  0
  5 11  1  1  0  0  0
  6 12  1  1  0  0  0
  6  5  1  0  0  0  0
  6 26  1  0  0  0  0
 13 14  1  0  0  0  0
 14 20  1  0  0  0  0
 14 15  2  0  0  0  0
 15  2  1  0  0  0  0
 16 15  1  0  0  0  0
 17 16  2  0  0  0  0
 18 13  2  0  0  0  0
 18 17  1  0  0  0  0
 19 13  1  0  0  0  0
 21 17  1  0  0  0  0
 22 23  1  0  0  0  0
 22  1  1  0  0  0  0
 24  5  1  0  0  0  0
 25 24  1  0  0  0  0
 27 28  1  0  0  0  0
 27 32  1  0  0  0  0
 28 33  1  0  0  0  0
 29 28  1  0  0  0  0
 29 36  1  0  0  0  0
 30 29  1  0  0  0  0
 31 26  1  6  0  0  0
 31 30  1  0  0  0  0
 31 27  1  0  0  0  0
 34 28  1  0  0  0  0
 35 29  1  0  0  0  0
 37 30  1  0  0  0  0
 38 30  1  0  0  0  0
 39 44  1  6  0  0  0
 39 40  1  0  0  0  0
 40 41  1  6  0  0  0
 40 31  1  0  0  0  0
 42 43  1  0  0  0  0
 42 41  1  0  0  0  0
 43 46  1  1  0  0  0
 43 39  1  0  0  0  0
 44 45  1  0  0  0  0
 46 47  1  0  0  0  0
M  END
>  <minimizedAffinity>
-6.20389795

$$$$

 OpenBabel03242521313D

 47 50  0  0  1  0  0  0  0  0999 V2000
   38.7630   28.3770   40.9630 C   0  0  1  0  0  0  0  0  0  0  0  0
   39.2090   27.4170   42.0610 C   0  0  2  0  0  0  0  0  0  0  0  0
   40.5630   27.4290   42.2280 O   0  0  0  0  0  0  0  0  0  0  0  0
   40.8980   28.6280   42.7830 C   0  0  0  0  0  0  0  0  0  0  0  0
   40.7310   29.7150   41.7640 C   0  0  2  0  0  0  0  0  0  0  0  0
   39.4310   29.6820   40.9840 C   0  0  2  0  0  0  0  0  0  0  0  0
   37.6650   28.5550   41.1750 H   0  0  0  0  0  0  0  0  0  0  0  0
   38.7050   27.7530   43.0000 H   0  0  0  0  0  0  0  0  0  0  0  0
   40.1420   28.8300   43.5980 H   0  0  0  0  0  0  0  0  0  0  0  0
   41.9230   28.6780   43.1550 H   0  0  0  0  0  0  0  0  0  0  0  0
   40.8540   30.6280   42.3810 H   0  0  0  0  0  0  0  0  0  0  0  0
   39.7300   29.9630   39.9530 H   0  0  0  0  0  0  0  0  0  0  0  0
   37.0690   24.2920   41.9010 C   0  0  0  0  0  0  0  0  0  0  0  0
   37.4640   25.6010   42.1990 C   0  0  0  0  0  0  0  0  0  0  0  0
   38.7530   26.0540   41.7590 C   0  0  0  0  0  0  0  0  0  0  0  0
   39.5400   25.1990   41.0710 N   0  0  0  0  0  0  0  0  0  0  0  0
   39.1100   23.9220   40.8010 C   0  0  0  0  0  0  0  0  0  0  0  0
   37.8880   23.4770   41.2130 N   0  0  0  0  0  0  0  0  0  0  0  0
   36.0870   24.0410   42.2700 H   0  0  0  0  0  0  0  0  0  0  0  0
   36.8370   26.2720   42.7420 H   0  0  0  0  0  0  0  0  0  0  0  0
   39.7410   23.2380   40.2510 H   0  0  0  0  0  0  0  0  0  0  0  0
   38.7810   27.7800   39.7120 O   0  0  0  0  0  0  0  0  0  0  0  0
   37.9820   27.9530   39.1630 H   0  0  0  0  0  0  0  0  0  0  0  0
   41.8210   29.5630   40.8910 O   0  0  0  0  0  0  0  0  0  0  0  0
   41.5510   29.5670   39.9490 H   0  0  0  0  0  0  0  0  0  0  0  0
   38.6300   30.7430   41.4190 O   0  0  0  0  0  0  0  0  0  0  0  0
   38.0040   32.9130   40.7460 N   0  0  0  0  0  0  0  0  0  0  0  0
   39.4360   33.2640   40.6580 C   0  0  0  0  0  0  0  0  0  0  0  0
   39.7000   32.8660   39.2330 C   0  0  0  0  0  0  0  0  0  0  0  0
   38.9910   31.5280   39.1770 C   0  0  0  0  0  0  0  0  0  0  0  0
   38.0900   31.5030   40.4270 C   0  0  1  0  0  0  0  0  0  0  0  0
   37.5570   33.4000   39.9360 H   0  0  0  0  0  0  0  0  0  0  0  0
   39.5840   34.3390   40.8620 H   0  0  0  0  0  0  0  0  0  0  0  0
   40.0240   32.6350   41.3380 H   0  0  0  0  0  0  0  0  0  0  0  0
   40.7980   32.6900   39.1590 H   0  0  0  0  0  0  0  0  0  0  0  0
   39.3370   33.6040   38.5080 H   0  0  0  0  0  0  0  0  0  0  0  0
   38.4170   31.5600   38.2340 H   0  0  0  0  0  0  0  0  0  0  0  0
   39.7300   30.6970   39.2210 H   0  0  0  0  0  0  0  0  0  0  0  0
   35.7800   30.4640   40.7550 C   0  0  1  0  0  3  0  0  0  0  0  0
   36.7590   31.1290   39.8530 C   0  0  2  0  0  3  0  0  0  0  0  0
   37.0880   30.0080   39.0200 O   0  0  0  0  0  0  0  0  0  0  0  0
   35.7900   29.6440   38.5950 C   0  0  0  0  0  2  0  0  0  0  0  0
   35.1850   29.3350   39.9500 C   0  0  2  0  0  3  0  0  0  0  0  0
   36.2120   30.0960   41.9940 O   0  0  0  0  0  0  0  0  0  0  0  0
   35.7060   30.4180   42.7620 H   0  0  0  0  0  0  0  0  0  0  0  0
   33.7940   29.3800   39.8880 O   0  0  0  0  0  0  0  0  0  0  0  0
   33.4620   29.8420   40.6930 H   0  0  0  0  0  0  0  0  0  0  0  0
  1  6  1  0  0  0  0
  1  7  1  1  0  0  0
  1  2  1  0  0  0  0
  2  3  1  0  0  0  0
  2  8  1  1  0  0  0
  3  4  1  0  0  0  0
  4 10  1  0  0  0  0
  4  9  1  0  0  0  0
  5 11  1  1  0  0  0
  5  4  1  0  0  0  0
  6 12  1  6  0  0  0
  6 26  1  0  0  0  0
  6  5  1  0  0  0  0
 13 14  1  0  0  0  0
 13 19  1  0  0  0  0
 14 20  1  0  0  0  0
 15  2  1  0  0  0  0
 15 14  2  0  0  0  0
 16 15  1  0  0  0  0
 17 16  2  0  0  0  0
 17 18  1  0  0  0  0
 18 13  2  0  0  0  0
 21 17  1  0  0  0  0
 22  1  1  0  0  0  0
 23 22  1  0  0  0  0
 24  5  1  0  0  0  0
 25 24  1  0  0  0  0
 28 27  1  0  0  0  0
 28 33  1  0  0  0  0
 28 34  1  0  0  0  0
 29 28  1  0  0  0  0
 30 38  1  0  0  0  0
 30 29  1  0  0  0  0
 30 31  1  0  0  0  0
 31 27  1  0  0  0  0
 31 26  1  1  0  0  0
 32 27  1  0  0  0  0
 35 29  1  0  0  0  0
 36 29  1  0  0  0  0
 37 30  1  0  0  0  0
 39 44  1  1  0  0  0
 40 41  1  6  0  0  0
 40 31  1  0  0  0  0
 40 39  1  0  0  0  0
 42 41  1  0  0  0  0
 42 43  1  0  0  0  0
 43 46  1  6  0  0  0
 43 39  1  0  0  0  0
 44 45  1  0  0  0  0
 46 47  1  0  0  0  0
M  END
>  <minimizedAffinity>
-5.94068098

$$$$

 OpenBabel03242521313D

 47 50  0  0  1  0  0  0  0  0999 V2000
   38.8800   29.2970   39.9590 C   0  0  1  0  0  0  0  0  0  0  0  0
   39.6050   28.1180   40.6000 C   0  0  2  0  0  0  0  0  0  0  0  0
   40.6570   27.6950   39.8420 O   0  0  0  0  0  0  0  0  0  0  0  0
   41.6220   28.6550   39.9040 C   0  0  0  0  0  0  0  0  0  0  0  0
   41.1810   29.8590   39.1260 C   0  0  2  0  0  0  0  0  0  0  0  0
   39.7610   30.3220   39.3920 C   0  0  2  0  0  0  0  0  0  0  0  0
   38.3110   29.7740   40.8130 H   0  0  0  0  0  0  0  0  0  0  0  0
   39.9690   28.4740   41.5950 H   0  0  0  0  0  0  0  0  0  0  0  0
   41.6890   28.9770   40.9850 H   0  0  0  0  0  0  0  0  0  0  0  0
   42.5910   28.3430   39.5100 H   0  0  0  0  0  0  0  0  0  0  0  0
   41.9500   30.6070   39.4050 H   0  0  0  0  0  0  0  0  0  0  0  0
   39.3870   30.6230   38.3910 H   0  0  0  0  0  0  0  0  0  0  0  0
   37.1630   25.7570   42.2810 C   0  0  0  0  0  0  0  0  0  0  0  0
   38.0400   26.8320   42.1030 C   0  0  0  0  0  0  0  0  0  0  0  0
   38.6690   27.0080   40.8250 C   0  0  0  0  0  0  0  0  0  0  0  0
   38.3920   26.1290   39.8390 N   0  0  0  0  0  0  0  0  0  0  0  0
   37.5240   25.0880   40.0590 C   0  0  0  0  0  0  0  0  0  0  0  0
   36.9180   24.9070   41.2680 N   0  0  0  0  0  0  0  0  0  0  0  0
   36.7370   25.7030   43.2710 H   0  0  0  0  0  0  0  0  0  0  0  0
   38.2540   27.5240   42.8860 H   0  0  0  0  0  0  0  0  0  0  0  0
   37.3030   24.3840   39.2690 H   0  0  0  0  0  0  0  0  0  0  0  0
   37.8940   28.8830   39.0760 O   0  0  0  0  0  0  0  0  0  0  0  0
   37.0370   29.3580   39.1650 H   0  0  0  0  0  0  0  0  0  0  0  0
   41.3230   29.4900   37.7780 O   0  0  0  0  0  0  0  0  0  0  0  0
   40.5250   29.6920   37.2470 H   0  0  0  0  0  0  0  0  0  0  0  0
   39.8170   31.5140   40.1200 O   0  0  0  0  0  0  0  0  0  0  0  0
   38.7380   32.4350   38.2380 N   0  0  0  0  0  0  0  0  0  0  0  0
   37.4430   32.2250   38.9160 C   0  0  0  0  0  0  0  0  0  0  0  0
   37.3370   33.5300   39.6540 C   0  0  0  0  0  0  0  0  0  0  0  0
   38.7440   33.6630   40.1990 C   0  0  0  0  0  0  0  0  0  0  0  0
   39.5780   32.6440   39.3980 C   0  0  1  0  0  0  0  0  0  0  0  0
   38.6370   33.3510   37.7440 H   0  0  0  0  0  0  0  0  0  0  0  0
   36.6410   32.0560   38.1770 H   0  0  0  0  0  0  0  0  0  0  0  0
   37.5200   31.3950   39.6320 H   0  0  0  0  0  0  0  0  0  0  0  0
   36.6410   33.3490   40.5060 H   0  0  0  0  0  0  0  0  0  0  0  0
   37.0180   34.3590   39.0120 H   0  0  0  0  0  0  0  0  0  0  0  0
   39.0240   34.7100   39.9860 H   0  0  0  0  0  0  0  0  0  0  0  0
   38.7640   33.4080   41.2820 H   0  0  0  0  0  0  0  0  0  0  0  0
   41.2160   33.2600   37.5370 C   0  0  1  0  0  3  0  0  0  0  0  0
   40.7310   33.4760   38.9280 C   0  0  2  0  0  3  0  0  0  0  0  0
   41.8360   32.8990   39.6380 O   0  0  0  0  0  0  0  0  0  0  0  0
   42.8930   33.6520   39.0770 C   0  0  0  0  0  2  0  0  0  0  0  0
   42.7220   33.2400   37.6290 C   0  0  2  0  0  3  0  0  0  0  0  0
   40.6870   32.2150   36.8400 O   0  0  0  0  0  0  0  0  0  0  0  0
   40.2910   32.4080   35.9710 H   0  0  0  0  0  0  0  0  0  0  0  0
   43.3340   34.1610   36.7820 O   0  0  0  0  0  0  0  0  0  0  0  0
   42.7370   34.3210   36.0130 H   0  0  0  0  0  0  0  0  0  0  0  0
  1  2  1  0  0  0  0
  1  7  1  1  0  0  0
  2 15  1  0  0  0  0
  2  8  1  1  0  0  0
  3  4  1  0  0  0  0
  3  2  1  0  0  0  0
  4  9  1  0  0  0  0
  5  6  1  0  0  0  0
  5 11  1  1  0  0  0
  5  4  1  0  0  0  0
  6 12  1  6  0  0  0
  6  1  1  0  0  0  0
  6 26  1  0  0  0  0
 10  4  1  0  0  0  0
 13 19  1  0  0  0  0
 14 13  1  0  0  0  0
 14 20  1  0  0  0  0
 15 14  2  0  0  0  0
 16 17  2  0  0  0  0
 16 15  1  0  0  0  0
 17 18  1  0  0  0  0
 18 13  2  0  0  0  0
 21 17  1  0  0  0  0
 22 23  1  0  0  0  0
 22  1  1  0  0  0  0
 24  5  1  0  0  0  0
 25 24  1  0  0  0  0
 27 28  1  0  0  0  0
 27 31  1  0  0  0  0
 28 34  1  0  0  0  0
 28 29  1  0  0  0  0
 29 30  1  0  0  0  0
 29 35  1  0  0  0  0
 30 38  1  0  0  0  0
 31 26  1  1  0  0  0
 31 30  1  0  0  0  0
 32 27  1  0  0  0  0
 33 28  1  0  0  0  0
 36 29  1  0  0  0  0
 37 30  1  0  0  0  0
 39 44  1  1  0  0  0
 39 43  1  0  0  0  0
 39 40  1  0  0  0  0
 40 31  1  0  0  0  0
 40 41  1  1  0  0  0
 42 41  1  0  0  0  0
 43 46  1  6  0  0  0
 43 42  1  0  0  0  0
 45 44  1  0  0  0  0
 47 46  1  0  0  0  0
M  END
>  <minimizedAffinity>
-5.8716979

$$$$

 OpenBabel03242521313D

 47 50  0  0  1  0  0  0  0  0999 V2000
   39.2710   26.9580   41.6070 C   0  0  1  0  0  0  0  0  0  0  0  0
   39.1260   25.6370   42.3540 C   0  0  2  0  0  0  0  0  0  0  0  0
   40.3370   25.1140   42.7010 O   0  0  0  0  0  0  0  0  0  0  0  0
   40.8630   25.9050   43.6780 C   0  0  0  0  0  0  0  0  0  0  0  0
   41.2830   27.2180   43.0860 C   0  0  2  0  0  0  0  0  0  0  0  0
   40.2680   27.8740   42.1710 C   0  0  2  0  0  0  0  0  0  0  0  0
   38.2590   27.4540   41.7130 H   0  0  0  0  0  0  0  0  0  0  0  0
   38.5270   25.8570   43.2720 H   0  0  0  0  0  0  0  0  0  0  0  0
   40.0230   26.1310   44.3990 H   0  0  0  0  0  0  0  0  0  0  0  0
   41.7310   25.4770   44.1830 H   0  0  0  0  0  0  0  0  0  0  0  0
   41.5140   27.8150   43.9920 H   0  0  0  0  0  0  0  0  0  0  0  0
   40.8840   28.3040   41.3530 H   0  0  0  0  0  0  0  0  0  0  0  0
   36.2650   23.7810   40.6990 C   0  0  0  0  0  0  0  0  0  0  0  0
   36.9440   24.7240   41.4800 C   0  0  0  0  0  0  0  0  0  0  0  0
   38.3770   24.6720   41.5390 C   0  0  0  0  0  0  0  0  0  0  0  0
   39.0210   23.7140   40.8380 N   0  0  0  0  0  0  0  0  0  0  0  0
   38.3130   22.8090   40.0860 C   0  0  0  0  0  0  0  0  0  0  0  0
   36.9510   22.8450   40.0190 N   0  0  0  0  0  0  0  0  0  0  0  0
   35.1930   23.8970   40.7140 H   0  0  0  0  0  0  0  0  0  0  0  0
   36.4300   25.4790   42.0300 H   0  0  0  0  0  0  0  0  0  0  0  0
   38.8290   22.0420   39.5260 H   0  0  0  0  0  0  0  0  0  0  0  0
   39.4220   26.7700   40.2410 O   0  0  0  0  0  0  0  0  0  0  0  0
   38.8730   27.3650   39.6820 H   0  0  0  0  0  0  0  0  0  0  0  0
   42.4600   26.9320   42.3740 O   0  0  0  0  0  0  0  0  0  0  0  0
   42.4470   27.2960   41.4640 H   0  0  0  0  0  0  0  0  0  0  0  0
   39.7350   28.9860   42.8310 O   0  0  0  0  0  0  0  0  0  0  0  0
   40.0680   31.3190   42.8210 N   0  0  0  0  0  0  0  0  0  0  0  0
   41.5220   31.0800   42.9220 C   0  0  0  0  0  0  0  0  0  0  0  0
   41.8600   30.9950   41.4600 C   0  0  0  0  0  0  0  0  0  0  0  0
   40.7320   30.1160   40.9590 C   0  0  0  0  0  0  0  0  0  0  0  0
   39.6860   30.1280   42.0920 C   0  0  1  0  0  0  0  0  0  0  0  0
   39.9740   32.1360   42.1760 H   0  0  0  0  0  0  0  0  0  0  0  0
   42.0150   31.9130   43.4530 H   0  0  0  0  0  0  0  0  0  0  0  0
   41.7150   30.1150   43.4080 H   0  0  0  0  0  0  0  0  0  0  0  0
   42.8140   30.4220   41.3960 H   0  0  0  0  0  0  0  0  0  0  0  0
   41.9200   31.9770   40.9770 H   0  0  0  0  0  0  0  0  0  0  0  0
   40.3780   30.6180   40.0410 H   0  0  0  0  0  0  0  0  0  0  0  0
   41.0980   29.0790   40.7870 H   0  0  0  0  0  0  0  0  0  0  0  0
   37.1340   30.1070   41.9920 C   0  0  1  0  0  3  0  0  0  0  0  0
   38.4280   30.4790   41.3590 C   0  0  2  0  0  3  0  0  0  0  0  0
   38.4270   29.5330   40.2800 O   0  0  0  0  0  0  0  0  0  0  0  0
   37.1780   29.8470   39.6960 C   0  0  0  0  0  2  0  0  0  0  0  0
   36.2880   29.5330   40.8820 C   0  0  2  0  0  3  0  0  0  0  0  0
   37.1790   29.3330   43.1130 O   0  0  0  0  0  0  0  0  0  0  0  0
   36.7190   29.6620   43.9060 H   0  0  0  0  0  0  0  0  0  0  0  0
   35.0550   30.1690   40.7500 O   0  0  0  0  0  0  0  0  0  0  0  0
   34.8010   30.5410   41.6270 H   0  0  0  0  0  0  0  0  0  0  0  0
  1  7  1  1  0  0  0
  1  6  1  0  0  0  0
  1  2  1  0  0  0  0
  2  3  1  0  0  0  0
  2  8  1  1  0  0  0
  3  4  1  0  0  0  0
  4 10  1  0  0  0  0
  4  9  1  0  0  0  0
  5  4  1  0  0  0  0
  5 11  1  1  0  0  0
  6 12  1  6  0  0  0
  6 26  1  0  0  0  0
  6  5  1  0  0  0  0
 13 19  1  0  0  0  0
 13 14  1  0  0  0  0
 14 15  2  0  0  0  0
 14 20  1  0  0  0  0
 15  2  1  0  0  0  0
 16 15  1  0  0  0  0
 17 16  2  0  0  0  0
 18 17  1  0  0  0  0
 18 13  2  0  0  0  0
 21 17  1  0  0  0  0
 22  1  1  0  0  0  0
 23 22  1  0  0  0  0
 24  5  1  0  0  0  0
 25 24  1  0  0  0  0
 27 28  1  0  0  0  0
 28 34  1  0  0  0  0
 28 33  1  0  0  0  0
 29 28  1  0  0  0  0
 30 29  1  0  0  0  0
 30 31  1  0  0  0  0
 31 27  1  0  0  0  0
 31 26  1  1  0  0  0
 32 27  1  0  0  0  0
 35 29  1  0  0  0  0
 36 29  1  0  0  0  0
 37 30  1  0  0  0  0
 38 30  1  0  0  0  0
 39 44  1  1  0  0  0
 40 41  1  6  0  0  0
 40 39  1  0  0  0  0
 40 31  1  0  0  0  0
 42 41  1  0  0  0  0
 42 43  1  0  0  0  0
 43 46  1  6  0  0  0
 43 39  1  0  0  0  0
 44 45  1  0  0  0  0
 46 47  1  0  0  0  0
M  END
>  <minimizedAffinity>
-5.77138472

$$$$

 OpenBabel03242521313D

 47 50  0  0  1  0  0  0  0  0999 V2000
   38.2360   28.1870   40.4520 C   0  0  1  0  0  0  0  0  0  0  0  0
   37.3820   27.4620   41.4870 C   0  0  2  0  0  0  0  0  0  0  0  0
   37.9540   27.4870   42.7250 O   0  0  0  0  0  0  0  0  0  0  0  0
   37.8830   28.7680   43.1850 C   0  0  0  0  0  0  0  0  0  0  0  0
   38.8390   29.6300   42.4160 C   0  0  2  0  0  0  0  0  0  0  0  0
   38.8030   29.4600   40.9090 C   0  0  2  0  0  0  0  0  0  0  0  0
   37.5170   28.4200   39.6090 H   0  0  0  0  0  0  0  0  0  0  0  0
   36.3970   27.9880   41.5100 H   0  0  0  0  0  0  0  0  0  0  0  0
   36.8450   29.1420   42.9420 H   0  0  0  0  0  0  0  0  0  0  0  0
   38.1180   28.8770   44.2450 H   0  0  0  0  0  0  0  0  0  0  0  0
   38.5540   30.6470   42.7540 H   0  0  0  0  0  0  0  0  0  0  0  0
   39.8690   29.5220   40.6070 H   0  0  0  0  0  0  0  0  0  0  0  0
   37.3210   23.6720   41.4750 C   0  0  0  0  0  0  0  0  0  0  0  0
   37.5500   24.9810   41.9110 C   0  0  0  0  0  0  0  0  0  0  0  0
   37.1500   26.0730   41.0690 C   0  0  0  0  0  0  0  0  0  0  0  0
   36.5670   25.7960   39.8830 N   0  0  0  0  0  0  0  0  0  0  0  0
   36.3620   24.4950   39.4950 C   0  0  0  0  0  0  0  0  0  0  0  0
   36.7360   23.4470   40.2850 N   0  0  0  0  0  0  0  0  0  0  0  0
   37.6530   22.9180   42.1720 H   0  0  0  0  0  0  0  0  0  0  0  0
   38.0100   25.1930   42.8490 H   0  0  0  0  0  0  0  0  0  0  0  0
   35.8950   24.2750   38.5460 H   0  0  0  0  0  0  0  0  0  0  0  0
   39.1800   27.3500   39.8770 O   0  0  0  0  0  0  0  0  0  0  0  0
   39.2510   27.4210   38.8980 H   0  0  0  0  0  0  0  0  0  0  0  0
   40.1100   29.2880   42.9090 O   0  0  0  0  0  0  0  0  0  0  0  0
   40.7540   29.1060   42.1930 H   0  0  0  0  0  0  0  0  0  0  0  0
   38.2120   30.5980   40.3520 O   0  0  0  0  0  0  0  0  0  0  0  0
   39.1770   30.3560   38.2160 N   0  0  0  0  0  0  0  0  0  0  0  0
   37.8180   30.3430   37.6380 C   0  0  0  0  0  0  0  0  0  0  0  0
   37.6290   31.8180   37.4190 C   0  0  0  0  0  0  0  0  0  0  0  0
   38.1570   32.3680   38.7290 C   0  0  0  0  0  0  0  0  0  0  0  0
   38.9330   31.2000   39.3670 C   0  0  1  0  0  0  0  0  0  0  0  0
   39.7540   30.9000   37.5350 H   0  0  0  0  0  0  0  0  0  0  0  0
   37.7970   29.7420   36.7130 H   0  0  0  0  0  0  0  0  0  0  0  0
   37.0940   29.9780   38.3780 H   0  0  0  0  0  0  0  0  0  0  0  0
   36.5280   31.9870   37.3800 H   0  0  0  0  0  0  0  0  0  0  0  0
   38.1500   32.1880   36.5280 H   0  0  0  0  0  0  0  0  0  0  0  0
   38.8100   33.2080   38.4320 H   0  0  0  0  0  0  0  0  0  0  0  0
   37.3130   32.6730   39.3870 H   0  0  0  0  0  0  0  0  0  0  0  0
   40.3120   32.6990   40.9080 C   0  0  1  0  0  3  0  0  0  0  0  0
   40.2480   31.8350   39.6990 C   0  0  2  0  0  3  0  0  0  0  0  0
   40.3580   32.8530   38.6940 O   0  0  0  0  0  0  0  0  0  0  0  0
   41.5550   33.4730   39.1210 C   0  0  0  0  0  2  0  0  0  0  0  0
   41.1010   33.9180   40.4970 C   0  0  2  0  0  3  0  0  0  0  0  0
   39.1400   32.9840   41.5430 O   0  0  0  0  0  0  0  0  0  0  0  0
   39.0830   32.7840   42.4940 H   0  0  0  0  0  0  0  0  0  0  0  0
   42.1990   34.1610   41.3200 O   0  0  0  0  0  0  0  0  0  0  0  0
   42.0080   33.7880   42.2120 H   0  0  0  0  0  0  0  0  0  0  0  0
  1  7  1  6  0  0  0
  1  6  1  0  0  0  0
  1  2  1  0  0  0  0
  2  8  1  1  0  0  0
  2  3  1  0  0  0  0
  3  4  1  0  0  0  0
  4 10  1  0  0  0  0
  5 11  1  1  0  0  0
  5 24  1  0  0  0  0
  5  4  1  0  0  0  0
  6 12  1  6  0  0  0
  6  5  1  0  0  0  0
  9  4  1  0  0  0  0
 13 14  1  0  0  0  0
 13 19  1  0  0  0  0
 14 20  1  0  0  0  0
 15  2  1  0  0  0  0
 15 14  2  0  0  0  0
 16 15  1  0  0  0  0
 17 16  2  0  0  0  0
 17 18  1  0  0  0  0
 18 13  2  0  0  0  0
 21 17  1  0  0  0  0
 22  1  1  0  0  0  0
 23 22  1  0  0  0  0
 25 24  1  0  0  0  0
 26  6  1  0  0  0  0
 27 31  1  0  0  0  0
 28 27  1  0  0  0  0
 28 34  1  0  0  0  0
 29 28  1  0  0  0  0
 29 30  1  0  0  0  0
 30 31  1  0  0  0  0
 30 38  1  0  0  0  0
 31 40  1  0  0  0  0
 31 26  1  1  0  0  0
 32 27  1  0  0  0  0
 33 28  1  0  0  0  0
 35 29  1  0  0  0  0
 36 29  1  0  0  0  0
 37 30  1  0  0  0  0
 39 44  1  6  0  0  0
 40 41  1  6  0  0  0
 40 39  1  0  0  0  0
 41 42  1  0  0  0  0
 42 43  1  0  0  0  0
 43 39  1  0  0  0  0
 43 46  1  1  0  0  0
 44 45  1  0  0  0  0
 46 47  1  0  0  0  0
M  END
>  <minimizedAffinity>
-5.70546818

$$$$

 OpenBabel03242521313D

 47 50  0  0  1  0  0  0  0  0999 V2000
   40.7150   29.9660   38.6270 C   0  0  1  0  0  0  0  0  0  0  0  0
   42.0600   29.9730   37.9070 C   0  0  2  0  0  0  0  0  0  0  0  0
   42.0270   30.7340   36.7760 O   0  0  0  0  0  0  0  0  0  0  0  0
   41.9340   32.0390   37.1600 C   0  0  0  0  0  0  0  0  0  0  0  0
   40.5650   32.3000   37.7140 C   0  0  2  0  0  0  0  0  0  0  0  0
   40.0590   31.2740   38.7100 C   0  0  2  0  0  0  0  0  0  0  0  0
   40.9640   29.6440   39.6830 H   0  0  0  0  0  0  0  0  0  0  0  0
   42.8030   30.3930   38.6290 H   0  0  0  0  0  0  0  0  0  0  0  0
   42.6600   32.1770   38.0140 H   0  0  0  0  0  0  0  0  0  0  0  0
   42.1070   32.7550   36.3560 H   0  0  0  0  0  0  0  0  0  0  0  0
   40.6830   33.3150   38.1450 H   0  0  0  0  0  0  0  0  0  0  0  0
   38.9830   31.1670   38.4600 H   0  0  0  0  0  0  0  0  0  0  0  0
   43.5860   26.5130   38.1660 C   0  0  0  0  0  0  0  0  0  0  0  0
   43.2080   27.8130   38.5200 C   0  0  0  0  0  0  0  0  0  0  0  0
   42.4670   28.6010   37.5780 C   0  0  0  0  0  0  0  0  0  0  0  0
   42.1600   28.0590   36.3790 N   0  0  0  0  0  0  0  0  0  0  0  0
   42.5520   26.7780   36.0740 C   0  0  0  0  0  0  0  0  0  0  0  0
   43.2570   26.0170   36.9600 N   0  0  0  0  0  0  0  0  0  0  0  0
   44.1380   25.9960   38.9360 H   0  0  0  0  0  0  0  0  0  0  0  0
   43.4520   28.2340   39.4690 H   0  0  0  0  0  0  0  0  0  0  0  0
   42.3060   26.3460   35.1140 H   0  0  0  0  0  0  0  0  0  0  0  0
   39.8760   28.9690   38.1510 O   0  0  0  0  0  0  0  0  0  0  0  0
   39.4170   28.4510   38.8500 H   0  0  0  0  0  0  0  0  0  0  0  0
   39.7220   32.3390   36.5920 O   0  0  0  0  0  0  0  0  0  0  0  0
   38.9230   31.7820   36.7020 H   0  0  0  0  0  0  0  0  0  0  0  0
   40.0690   31.8540   39.9820 O   0  0  0  0  0  0  0  0  0  0  0  0
   38.6820   33.1740   41.3570 N   0  0  0  0  0  0  0  0  0  0  0  0
   38.5820   34.1560   40.2590 C   0  0  0  0  0  0  0  0  0  0  0  0
   37.3870   33.5980   39.5380 C   0  0  0  0  0  0  0  0  0  0  0  0
   37.7230   32.1210   39.5330 C   0  0  0  0  0  0  0  0  0  0  0  0
   38.8490   31.9660   40.5750 C   0  0  1  0  0  0  0  0  0  0  0  0
   37.7290   33.1510   41.7860 H   0  0  0  0  0  0  0  0  0  0  0  0
   38.4330   35.1730   40.6620 H   0  0  0  0  0  0  0  0  0  0  0  0
   39.4690   34.0980   39.6150 H   0  0  0  0  0  0  0  0  0  0  0  0
   37.4500   33.9810   38.4920 H   0  0  0  0  0  0  0  0  0  0  0  0
   36.4380   33.8470   40.0260 H   0  0  0  0  0  0  0  0  0  0  0  0
   36.7850   31.6240   39.8370 H   0  0  0  0  0  0  0  0  0  0  0  0
   38.0870   31.8110   38.5280 H   0  0  0  0  0  0  0  0  0  0  0  0
   39.2930   30.2160   42.3820 C   0  0  1  0  0  3  0  0  0  0  0  0
   38.3390   30.8480   41.4310 C   0  0  2  0  0  3  0  0  0  0  0  0
   38.2200   29.7720   40.4900 O   0  0  0  0  0  0  0  0  0  0  0  0
   37.8380   28.7340   41.3700 C   0  0  0  0  0  2  0  0  0  0  0  0
   39.0640   28.7300   42.2620 C   0  0  2  0  0  3  0  0  0  0  0  0
   40.6020   30.5850   42.3010 O   0  0  0  0  0  0  0  0  0  0  0  0
   41.0290   30.9110   43.1140 H   0  0  0  0  0  0  0  0  0  0  0  0
   38.7800   28.1190   43.4810 O   0  0  0  0  0  0  0  0  0  0  0  0
   39.1970   28.6510   44.2000 H   0  0  0  0  0  0  0  0  0  0  0  0
  1  6  1  0  0  0  0
  1  7  1  1  0  0  0
  2  1  1  0  0  0  0
  2  8  1  1  0  0  0
  3  4  1  0  0  0  0
  3  2  1  0  0  0  0
  4  5  1  0  0  0  0
  4  9  1  0  0  0  0
  5 11  1  1  0  0  0
  5  6  1  0  0  0  0
  6 12  1  6  0  0  0
  6 26  1  0  0  0  0
 10  4  1  0  0  0  0
 13 14  1  0  0  0  0
 13 19  1  0  0  0  0
 14 20  1  0  0  0  0
 15  2  1  0  0  0  0
 15 14  2  0  0  0  0
 16 15  1  0  0  0  0
 17 16  2  0  0  0  0
 17 18  1  0  0  0  0
 18 13  2  0  0  0  0
 21 17  1  0  0  0  0
 22  1  1  0  0  0  0
 22 23  1  0  0  0  0
 24 25  1  0  0  0  0
 24  5  1  0  0  0  0
 27 32  1  0  0  0  0
 28 33  1  0  0  0  0
 28 27  1  0  0  0  0
 29 36  1  0  0  0  0
 29 28  1  0  0  0  0
 30 29  1  0  0  0  0
 30 37  1  0  0  0  0
 30 31  1  0  0  0  0
 31 26  1  6  0  0  0
 31 27  1  0  0  0  0
 31 40  1  0  0  0  0
 34 28  1  0  0  0  0
 35 29  1  0  0  0  0
 38 30  1  0  0  0  0
 39 44  1  6  0  0  0
 40 41  1  6  0  0  0
 40 39  1  0  0  0  0
 41 42  1  0  0  0  0
 42 43  1  0  0  0  0
 43 39  1  0  0  0  0
 43 46  1  1  0  0  0
 44 45  1  0  0  0  0
 46 47  1  0  0  0  0
M  END
>  <minimizedAffinity>
-5.59110975

$$$$

 OpenBabel03242521313D

 47 50  0  0  1  0  0  0  0  0999 V2000
   38.1160   28.1730   40.6920 C   0  0  1  0  0  0  0  0  0  0  0  0
   37.2840   27.1920   41.5090 C   0  0  2  0  0  0  0  0  0  0  0  0
   37.9650   26.7290   42.5960 O   0  0  0  0  0  0  0  0  0  0  0  0
   38.0840   27.7610   43.4780 C   0  0  0  0  0  0  0  0  0  0  0  0
   39.0590   28.7670   42.9420 C   0  0  2  0  0  0  0  0  0  0  0  0
   38.8660   29.1510   41.4880 C   0  0  2  0  0  0  0  0  0  0  0  0
   37.3550   28.7470   40.0810 H   0  0  0  0  0  0  0  0  0  0  0  0
   36.3710   27.7470   41.8380 H   0  0  0  0  0  0  0  0  0  0  0  0
   37.0790   28.2740   43.5130 H   0  0  0  0  0  0  0  0  0  0  0  0
   38.4270   27.4640   44.4710 H   0  0  0  0  0  0  0  0  0  0  0  0
   38.9250   29.6130   43.6460 H   0  0  0  0  0  0  0  0  0  0  0  0
   39.9000   29.2370   41.0940 H   0  0  0  0  0  0  0  0  0  0  0  0
   36.5170   23.6730   40.3250 C   0  0  0  0  0  0  0  0  0  0  0  0
   36.9240   24.7200   41.1600 C   0  0  0  0  0  0  0  0  0  0  0  0
   36.8560   26.0660   40.6680 C   0  0  0  0  0  0  0  0  0  0  0  0
   36.4000   26.2750   39.4140 N   0  0  0  0  0  0  0  0  0  0  0  0
   36.0110   25.2170   38.6300 C   0  0  0  0  0  0  0  0  0  0  0  0
   36.0700   23.9320   39.0840 N   0  0  0  0  0  0  0  0  0  0  0  0
   36.6030   22.6980   40.7790 H   0  0  0  0  0  0  0  0  0  0  0  0
   37.2820   24.5480   42.1500 H   0  0  0  0  0  0  0  0  0  0  0  0
   35.6470   25.3860   37.6260 H   0  0  0  0  0  0  0  0  0  0  0  0
   38.9020   27.5290   39.7480 O   0  0  0  0  0  0  0  0  0  0  0  0
   38.8900   27.9410   38.8540 H   0  0  0  0  0  0  0  0  0  0  0  0
   40.3220   28.1760   43.1200 O   0  0  0  0  0  0  0  0  0  0  0  0
   40.8720   28.2150   42.3110 H   0  0  0  0  0  0  0  0  0  0  0  0
   38.3610   30.4540   41.4410 O   0  0  0  0  0  0  0  0  0  0  0  0
   38.3710   30.9910   39.1460 N   0  0  0  0  0  0  0  0  0  0  0  0
   37.0230   31.5710   39.3080 C   0  0  0  0  0  0  0  0  0  0  0  0
   37.4030   32.9800   39.6700 C   0  0  0  0  0  0  0  0  0  0  0  0
   38.5120   32.7250   40.6710 C   0  0  0  0  0  0  0  0  0  0  0  0
   38.8960   31.2460   40.4710 C   0  0  1  0  0  0  0  0  0  0  0  0
   38.8600   31.6280   38.4770 H   0  0  0  0  0  0  0  0  0  0  0  0
   36.4480   31.4850   38.3700 H   0  0  0  0  0  0  0  0  0  0  0  0
   36.5030   31.0950   40.1500 H   0  0  0  0  0  0  0  0  0  0  0  0
   36.5270   33.4080   40.2110 H   0  0  0  0  0  0  0  0  0  0  0  0
   37.7020   33.5780   38.8030 H   0  0  0  0  0  0  0  0  0  0  0  0
   39.3160   33.4220   40.3740 H   0  0  0  0  0  0  0  0  0  0  0  0
   38.1420   32.8880   41.7080 H   0  0  0  0  0  0  0  0  0  0  0  0
   41.1930   31.5550   41.5430 C   0  0  1  0  0  3  0  0  0  0  0  0
   40.3830   31.3210   40.3170 C   0  0  2  0  0  3  0  0  0  0  0  0
   40.5620   32.5980   39.6880 O   0  0  0  0  0  0  0  0  0  0  0  0
   41.9750   32.6510   39.6660 C   0  0  0  0  0  2  0  0  0  0  0  0
   42.2280   32.5830   41.1580 C   0  0  2  0  0  3  0  0  0  0  0  0
   40.5250   31.8430   42.6950 O   0  0  0  0  0  0  0  0  0  0  0  0
   40.7100   31.2870   43.4740 H   0  0  0  0  0  0  0  0  0  0  0  0
   43.5330   32.1690   41.4150 O   0  0  0  0  0  0  0  0  0  0  0  0
   43.5140   31.5220   42.1590 H   0  0  0  0  0  0  0  0  0  0  0  0
  1  7  1  6  0  0  0
  1  6  1  0  0  0  0
  1  2  1  0  0  0  0
  2  8  1  1  0  0  0
  2  3  1  0  0  0  0
  3  4  1  0  0  0  0
  4  9  1  0  0  0  0
  4 10  1  0  0  0  0
  5 24  1  0  0  0  0
  5  4  1  0  0  0  0
  5 11  1  1  0  0  0
  6 12  1  6  0  0  0
  6  5  1  0  0  0  0
 13 19  1  0  0  0  0
 13 14  1  0  0  0  0
 14 20  1  0  0  0  0
 15 14  2  0  0  0  0
 15  2  1  0  0  0  0
 16 15  1  0  0  0  0
 17 18  1  0  0  0  0
 17 16  2  0  0  0  0
 18 13  2  0  0  0  0
 21 17  1  0  0  0  0
 22  1  1  0  0  0  0
 23 22  1  0  0  0  0
 25 24  1  0  0  0  0
 26  6  1  0  0  0  0
 27 28  1  0  0  0  0
 27 31  1  0  0  0  0
 28 29  1  0  0  0  0
 28 34  1  0  0  0  0
 29 35  1  0  0  0  0
 29 30  1  0  0  0  0
 30 38  1  0  0  0  0
 31 30  1  0  0  0  0
 31 26  1  1  0  0  0
 32 27  1  0  0  0  0
 33 28  1  0  0  0  0
 36 29  1  0  0  0  0
 37 30  1  0  0  0  0
 39 44  1  1  0  0  0
 40 41  1  6  0  0  0
 40 31  1  0  0  0  0
 40 39  1  0  0  0  0
 42 41  1  0  0  0  0
 42 43  1  0  0  0  0
 43 46  1  6  0  0  0
 43 39  1  0  0  0  0
 44 45  1  0  0  0  0
 46 47  1  0  0  0  0
M  END
>  <minimizedAffinity>
-5.55883694

$$$$
