
 OpenBabel03252509113D

 31 34  0  0  1  0  0  0  0  0999 V2000
   47.0970   32.4640   44.0600 C   0  0  0  0  0  0  0  0  0  0  0  0
   48.0280   31.6950   43.4060 C   0  0  0  0  0  0  0  0  0  0  0  0
   48.8790   32.1860   42.4120 C   0  0  0  0  0  0  0  0  0  0  0  0
   48.7830   33.5370   42.0600 C   0  0  0  0  0  0  0  0  0  0  0  0
   49.3970   34.3620   41.1880 N   0  0  0  0  0  0  0  0  0  0  0  0
   48.8560   35.6120   41.3010 C   0  0  0  0  0  0  0  0  0  0  0  0
   47.9040   35.5380   42.2550 N   0  0  0  0  0  0  0  0  0  0  0  0
   47.8320   34.2890   42.7390 C   0  0  0  0  0  0  0  0  0  0  0  0
   46.9900   33.8130   43.7180 C   0  0  0  0  0  0  0  0  0  0  0  0
   46.4680   32.0120   44.8220 H   0  0  0  0  0  0  0  0  0  0  0  0
   50.1450   34.1190   40.5390 H   0  0  0  0  0  0  0  0  0  0  0  0
   49.1160   36.5030   40.7530 H   0  0  0  0  0  0  0  0  0  0  0  0
   46.2720   34.4490   44.2080 H   0  0  0  0  0  0  0  0  0  0  0  0
   47.5540   28.0460   43.3490 C   0  0  0  0  0  0  0  0  0  0  0  0
   48.4140   27.6190   44.3560 C   0  0  0  0  0  0  0  0  0  0  0  0
   49.1690   28.5840   45.0760 C   0  0  0  0  0  0  0  0  0  0  0  0
   49.0070   29.9070   44.7340 N   0  0  0  0  0  0  0  0  0  0  0  0
   48.1630   30.2830   43.7510 C   0  0  0  0  0  0  0  0  0  0  0  0
   47.4790   29.3490   43.1060 N   0  0  0  0  0  0  0  0  0  0  0  0
   46.9510   27.3690   42.7620 H   0  0  0  0  0  0  0  0  0  0  0  0
   48.5010   26.5660   44.5810 H   0  0  0  0  0  0  0  0  0  0  0  0
   49.8350   28.2880   45.8530 H   0  0  0  0  0  0  0  0  0  0  0  0
   49.4650   30.9870   40.3050 C   0  0  2  0  0  3  0  0  0  0  0  0
   49.8960   31.4050   41.6720 C   0  0  1  0  0  3  0  0  0  0  0  0
   51.0910   32.1320   41.5190 O   0  0  0  0  0  0  0  0  0  0  0  0
   51.7370   31.5840   40.4330 C   0  0  0  0  0  2  0  0  0  0  0  0
   50.6620   31.3500   39.4250 C   0  0  2  0  0  3  0  0  0  0  0  0
   48.3830   31.7240   39.8280 O   0  0  0  0  0  0  0  0  0  0  0  0
   48.3540   31.6120   38.8470 H   0  0  0  0  0  0  0  0  0  0  0  0
   50.3820   32.4300   38.6100 O   0  0  0  0  0  0  0  0  0  0  0  0
   50.9600   32.4300   37.8150 H   0  0  0  0  0  0  0  0  0  0  0  0
  1 10  1  0  0  0  0
  2 18  1  0  0  0  0
  2  1  2  0  0  0  0
  3  2  1  0  0  0  0
  4  3  2  0  0  0  0
  4  8  1  0  0  0  0
  5  6  1  0  0  0  0
  5  4  1  0  0  0  0
  6  7  2  0  0  0  0
  7  8  1  0  0  0  0
  8  9  2  0  0  0  0
  9  1  1  0  0  0  0
  9 13  1  0  0  0  0
 11  5  1  0  0  0  0
 12  6  1  0  0  0  0
 14 15  1  0  0  0  0
 15 21  1  0  0  0  0
 15 16  2  0  0  0  0
 16 22  1  0  0  0  0
 17 16  1  0  0  0  0
 18 17  2  0  0  0  0
 19 14  2  0  0  0  0
 19 18  1  0  0  0  0
 20 14  1  0  0  0  0
 23 28  1  6  0  0  0
 23 24  1  0  0  0  0
 24  3  1  6  0  0  0
 25 24  1  0  0  0  0
 26 25  1  0  0  0  0
 27 30  1  1  0  0  0
 27 23  1  0  0  0  0
 27 26  1  0  0  0  0
 29 28  1  0  0  0  0
 31 30  1  0  0  0  0
M  END
>  <minimizedAffinity>
-4.18849325

>  <minimizedRMSD>
7.04327726

$$$$
