
 OpenBabel03252503123D

 34 37  0  0  1  0  0  0  0  0999 V2000
   46.7700   34.8140   41.9230 C   0  0  0  0  0  0  0  0  0  0  0  0
   47.9240   35.3480   41.9170 O   0  0  0  0  0  0  0  0  0  0  0  0
   45.3860   36.1880   43.3990 C   0  0  0  0  0  0  0  0  0  0  0  0
   46.0310   34.9690   43.1300 C   0  0  0  0  0  0  0  0  0  0  0  0
   45.8790   33.9960   44.1020 C   0  0  0  0  0  0  0  0  0  0  0  0
   45.1700   34.1880   45.2280 N   0  0  0  0  0  0  0  0  0  0  0  0
   44.5640   35.3920   45.4400 C   0  0  0  0  0  0  0  0  0  0  0  0
   44.6730   36.3730   44.5370 N   0  0  0  0  0  0  0  0  0  0  0  0
   45.4730   36.9850   42.6690 H   0  0  0  0  0  0  0  0  0  0  0  0
   43.9900   35.5520   46.3470 H   0  0  0  0  0  0  0  0  0  0  0  0
   46.4990   32.7510   43.9060 C   0  0  0  0  0  0  0  0  0  0  0  0
   47.7650   32.2630   44.0390 C   0  0  0  0  0  0  0  0  0  0  0  0
   48.1170   31.0170   43.7870 C   0  0  0  0  0  0  0  0  0  0  0  0
   47.1130   30.2000   43.3690 C   0  0  0  0  0  0  0  0  0  0  0  0
   45.6360   31.2920   43.3500 S   0  0  0  0  0  0  0  0  0  0  0  0
   48.4910   33.0300   44.3870 H   0  0  0  0  0  0  0  0  0  0  0  0
   49.1020   30.5990   43.8810 H   0  0  0  0  0  0  0  0  0  0  0  0
   47.2000   29.0580   43.0900 H   0  0  0  0  0  0  0  0  0  0  0  0
   46.1800   34.0620   40.7700 C   0  0  0  0  0  0  0  0  0  0  0  0
   44.8350   33.8640   40.5210 C   0  0  0  0  0  0  0  0  0  0  0  0
   44.7790   33.1400   39.3860 N   0  0  0  0  0  0  0  0  0  0  0  0
   46.0490   32.9060   38.9600 C   0  0  0  0  0  0  0  0  0  0  0  0
   46.9260   33.4800   39.8210 N   0  0  0  0  0  0  0  0  0  0  0  0
   44.0150   34.2280   41.1310 H   0  0  0  0  0  0  0  0  0  0  0  0
   43.8820   32.8240   38.9310 H   0  0  0  0  0  0  0  0  0  0  0  0
   46.4700   33.0130   36.5150 C   0  0  1  0  0  0  0  0  0  0  0  0
   46.3020   32.1200   37.7130 C   0  0  2  0  0  0  0  0  0  0  0  0
   45.2050   31.3210   37.5260 O   0  0  0  0  0  0  0  0  0  0  0  0
   44.6030   31.6000   36.3370 C   0  0  0  0  0  0  0  0  0  0  0  0
   45.1590   32.8890   35.8030 C   0  0  2  0  0  0  0  0  0  0  0  0
   46.7060   34.3360   36.9010 O   0  0  0  0  0  0  0  0  0  0  0  0
   47.4220   34.6930   36.3370 H   0  0  0  0  0  0  0  0  0  0  0  0
   45.3000   32.7920   34.4170 O   0  0  0  0  0  0  0  0  0  0  0  0
   45.2860   33.7140   34.0520 H   0  0  0  0  0  0  0  0  0  0  0  0
  1  4  1  0  0  0  0
  2  1  2  0  0  0  0
  3  8  1  0  0  0  0
  4  3  2  0  0  0  0
  4  5  1  0  0  0  0
  5  6  2  0  0  0  0
  6  7  1  0  0  0  0
  7 10  1  0  0  0  0
  8  7  2  0  0  0  0
  9  3  1  0  0  0  0
 11 12  2  0  0  0  0
 11  5  1  0  0  0  0
 12 16  1  0  0  0  0
 13 17  1  0  0  0  0
 13 12  1  0  0  0  0
 14 13  2  0  0  0  0
 15 14  1  0  0  0  0
 15 11  1  0  0  0  0
 18 14  1  0  0  0  0
 19  1  1  0  0  0  0
 20 19  2  0  0  0  0
 20 24  1  0  0  0  0
 21 20  1  0  0  0  0
 22 21  1  0  0  0  0
 22 23  2  0  0  0  0
 23 19  1  0  0  0  0
 25 21  1  0  0  0  0
 26 31  1  1  0  0  0
 26 27  1  0  0  0  0
 27 22  1  1  0  0  0
 28 27  1  0  0  0  0
 29 28  1  0  0  0  0
 30 33  1  6  0  0  0
 30 29  1  0  0  0  0
 30 26  1  0  0  0  0
 32 31  1  0  0  0  0
 34 33  1  0  0  0  0
M  END
>  <minimizedAffinity>
-5.64645529

>  <minimizedRMSD>
0.513895988

$$$$
