
 OpenBabel03252506553D

 38 42  0  0  1  0  0  0  0  0999 V2000
   47.2040   31.3860   45.0740 C   0  0  0  0  0  0  0  0  0  0  0  0
   46.8970   32.7330   45.0660 C   0  0  0  0  0  0  0  0  0  0  0  0
   46.3050   33.3760   46.1350 C   0  0  0  0  0  0  0  0  0  0  0  0
   45.9910   32.6690   47.2840 C   0  0  0  0  0  0  0  0  0  0  0  0
   45.4240   32.9480   48.4940 N   0  0  0  0  0  0  0  0  0  0  0  0
   45.3840   31.8080   49.2240 C   0  0  0  0  0  0  0  0  0  0  0  0
   45.9280   30.8290   48.4560 N   0  0  0  0  0  0  0  0  0  0  0  0
   46.3060   31.3250   47.2720 C   0  0  0  0  0  0  0  0  0  0  0  0
   46.8910   30.6610   46.2250 C   0  0  0  0  0  0  0  0  0  0  0  0
   47.6630   30.8930   44.2390 H   0  0  0  0  0  0  0  0  0  0  0  0
   46.0630   34.4400   46.1310 H   0  0  0  0  0  0  0  0  0  0  0  0
   45.0990   33.9090   48.7480 H   0  0  0  0  0  0  0  0  0  0  0  0
   44.9770   31.7390   50.2430 H   0  0  0  0  0  0  0  0  0  0  0  0
   46.6240   35.1800   42.3240 C   0  0  0  0  0  0  0  0  0  0  0  0
   47.8170   34.9890   41.6340 C   0  0  0  0  0  0  0  0  0  0  0  0
   48.7090   34.0330   42.0990 C   0  0  0  0  0  0  0  0  0  0  0  0
   48.3720   33.3170   43.2230 N   0  0  0  0  0  0  0  0  0  0  0  0
   47.2110   33.5190   43.8750 C   0  0  0  0  0  0  0  0  0  0  0  0
   46.3490   34.4410   43.4290 N   0  0  0  0  0  0  0  0  0  0  0  0
   45.9050   35.9140   41.9930 H   0  0  0  0  0  0  0  0  0  0  0  0
   48.0340   35.5730   40.7610 H   0  0  0  0  0  0  0  0  0  0  0  0
   49.6510   33.8380   41.6060 H   0  0  0  0  0  0  0  0  0  0  0  0
   47.1860   29.2250   46.3130 C   0  0  0  0  0  0  0  0  0  0  0  0
   48.4520   28.6970   46.5060 C   0  0  0  0  0  0  0  0  0  0  0  0
   48.2310   27.3180   46.5220 C   0  0  0  0  0  0  0  0  0  0  0  0
   46.8670   27.0910   46.3410 C   0  0  0  0  0  0  0  0  0  0  0  0
   46.2930   28.2700   46.2230 O   0  0  0  0  0  0  0  0  0  0  0  0
   49.4060   29.1930   46.6200 H   0  0  0  0  0  0  0  0  0  0  0  0
   48.9590   26.5380   46.6480 H   0  0  0  0  0  0  0  0  0  0  0  0
   44.8860   25.8110   47.1720 C   0  0  2  0  0  3  0  0  0  0  0  0
   46.1290   25.8250   46.2830 C   0  0  1  0  0  3  0  0  0  0  0  0
   45.5410   25.5600   45.0480 O   0  0  0  0  0  0  0  0  0  0  0  0
   44.8650   24.3670   45.3100 C   0  0  0  0  0  2  0  0  0  0  0  0
   44.2440   24.5210   46.6800 C   0  0  2  0  0  3  0  0  0  0  0  0
   44.0260   26.8570   46.7880 O   0  0  0  0  0  0  0  0  0  0  0  0
   43.4980   26.5910   45.9830 H   0  0  0  0  0  0  0  0  0  0  0  0
   42.8580   24.5990   46.6280 O   0  0  0  0  0  0  0  0  0  0  0  0
   42.5520   25.0010   47.4810 H   0  0  0  0  0  0  0  0  0  0  0  0
  1  9  1  0  0  0  0
  2  1  2  0  0  0  0
  2  3  1  0  0  0  0
  3  4  2  0  0  0  0
  4  5  1  0  0  0  0
  5 12  1  0  0  0  0
  5  6  1  0  0  0  0
  6 13  1  0  0  0  0
  7  6  2  0  0  0  0
  8  4  1  0  0  0  0
  8  7  1  0  0  0  0
  9 23  1  0  0  0  0
  9  8  2  0  0  0  0
 10  1  1  0  0  0  0
 11  3  1  0  0  0  0
 14 19  1  0  0  0  0
 15 16  1  0  0  0  0
 15 14  2  0  0  0  0
 16 17  2  0  0  0  0
 17 18  1  0  0  0  0
 18  2  1  0  0  0  0
 19 18  2  0  0  0  0
 20 14  1  0  0  0  0
 21 15  1  0  0  0  0
 22 16  1  0  0  0  0
 23 24  2  0  0  0  0
 24 25  1  0  0  0  0
 24 28  1  0  0  0  0
 25 29  1  0  0  0  0
 26 25  2  0  0  0  0
 27 23  1  0  0  0  0
 27 26  1  0  0  0  0
 30 35  1  6  0  0  0
 31 26  1  6  0  0  0
 31 30  1  0  0  0  0
 32 33  1  0  0  0  0
 32 31  1  0  0  0  0
 33 34  1  0  0  0  0
 34 37  1  6  0  0  0
 34 30  1  0  0  0  0
 36 35  1  0  0  0  0
 37 38  1  0  0  0  0
M  END
>  <minimizedAffinity>
-5.63479471

>  <minimizedRMSD>
0.307846516

$$$$
