
 OpenBabel03242517093D

 34 36  0  0  1  0  0  0  0  0999 V2000
   39.5990   28.6790   42.2110 C   0  0  2  0  0  0  0  0  0  0  0  0
   38.3870   29.4790   42.4890 C   0  0  2  0  0  0  0  0  0  0  0  0
   37.4680   28.8570   43.4890 C   0  0  0  0  0  0  0  0  0  0  0  0
   37.0990   27.4230   43.1660 C   0  0  0  0  0  0  0  0  0  0  0  0
   38.2240   26.6350   42.5370 C   0  0  0  0  0  0  0  0  0  0  0  0
   39.5590   27.2810   42.8080 C   0  0  0  0  0  0  0  0  0  0  0  0
   39.7630   28.5160   41.1100 H   0  0  0  0  0  0  0  0  0  0  0  0
   38.6830   30.4680   42.9080 H   0  0  0  0  0  0  0  0  0  0  0  0
   37.7280   28.9660   44.5360 H   0  0  0  0  0  0  0  0  0  0  0  0
   36.4930   29.4190   43.3750 H   0  0  0  0  0  0  0  0  0  0  0  0
   36.1580   27.3420   42.5650 H   0  0  0  0  0  0  0  0  0  0  0  0
   36.8540   26.9280   44.1300 H   0  0  0  0  0  0  0  0  0  0  0  0
   38.2240   25.5790   42.7890 H   0  0  0  0  0  0  0  0  0  0  0  0
   38.0740   26.6870   41.4190 H   0  0  0  0  0  0  0  0  0  0  0  0
   40.3230   26.6580   42.2850 H   0  0  0  0  0  0  0  0  0  0  0  0
   39.8230   27.2690   43.8750 H   0  0  0  0  0  0  0  0  0  0  0  0
   40.8270   29.3350   42.7000 C   0  0  0  0  0  0  0  0  0  0  0  0
   41.8250   28.4740   43.1930 C   0  0  0  0  0  0  0  0  0  0  0  0
   43.0330   28.9910   43.6800 C   0  0  0  0  0  0  0  0  0  0  0  0
   43.1570   30.3640   43.6370 N   0  0  0  0  0  0  0  0  0  0  0  0
   42.1820   31.1660   43.1590 C   0  0  0  0  0  0  0  0  0  0  0  0
   41.0190   30.6540   42.6900 N   0  0  0  0  0  0  0  0  0  0  0  0
   41.8070   27.3960   43.2600 H   0  0  0  0  0  0  0  0  0  0  0  0
   43.8320   28.4000   44.0680 H   0  0  0  0  0  0  0  0  0  0  0  0
   42.3350   32.2330   43.1490 H   0  0  0  0  0  0  0  0  0  0  0  0
   36.7330   30.9530   41.2790 C   0  0  1  0  0  3  0  0  0  0  0  0
   37.6680   29.7910   41.1980 C   0  0  1  0  0  3  0  0  0  0  0  0
   38.6200   30.0480   40.2310 O   0  0  0  0  0  0  0  0  0  0  0  0
   38.6390   31.4230   40.0030 C   0  0  0  0  0  2  0  0  0  0  0  0
   37.1540   31.7450   40.0330 C   0  0  2  0  0  3  0  0  0  0  0  0
   35.4030   30.6190   41.1500 O   0  0  0  0  0  0  0  0  0  0  0  0
   34.8440   31.3690   41.4310 H   0  0  0  0  0  0  0  0  0  0  0  0
   36.9300   33.1020   40.2390 O   0  0  0  0  0  0  0  0  0  0  0  0
   37.7370   33.5090   40.6480 H   0  0  0  0  0  0  0  0  0  0  0  0
  1  7  1  6  0  0  0
  1  2  1  0  0  0  0
  1 17  1  0  0  0  0
  1  6  1  0  0  0  0
  2  8  1  1  0  0  0
  2  3  1  0  0  0  0
  3  9  1  0  0  0  0
  4  3  1  0  0  0  0
  4 12  1  0  0  0  0
  5 13  1  0  0  0  0
  5  6  1  0  0  0  0
  5  4  1  0  0  0  0
  6 16  1  0  0  0  0
 10  3  1  0  0  0  0
 11  4  1  0  0  0  0
 14  5  1  0  0  0  0
 15  6  1  0  0  0  0
 17 18  1  0  0  0  0
 18 23  1  0  0  0  0
 18 19  2  0  0  0  0
 19 24  1  0  0  0  0
 20 19  1  0  0  0  0
 21 20  2  0  0  0  0
 22 17  2  0  0  0  0
 22 21  1  0  0  0  0
 25 21  1  0  0  0  0
 26 31  1  6  0  0  0
 27 28  1  6  0  0  0
 27 26  1  0  0  0  0
 27  2  1  0  0  0  0
 29 30  1  0  0  0  0
 29 28  1  0  0  0  0
 30 33  1  1  0  0  0
 30 26  1  0  0  0  0
 31 32  1  0  0  0  0
 33 34  1  0  0  0  0
M  END
>  <minimizedAffinity>
-5.90524101

$$$$

 OpenBabel03242517093D

 34 36  0  0  1  0  0  0  0  0999 V2000
   38.0000   29.3000   39.8760 C   0  0  2  0  0  0  0  0  0  0  0  0
   37.1490   30.4710   39.5710 C   0  0  2  0  0  0  0  0  0  0  0  0
   36.1310   30.2170   38.5080 C   0  0  0  0  0  0  0  0  0  0  0  0
   36.7130   29.6350   37.2360 C   0  0  0  0  0  0  0  0  0  0  0  0
   37.8530   28.6730   37.4770 C   0  0  0  0  0  0  0  0  0  0  0  0
   37.8370   28.1530   38.8910 C   0  0  0  0  0  0  0  0  0  0  0  0
   39.0970   29.5480   39.8490 H   0  0  0  0  0  0  0  0  0  0  0  0
   36.5830   30.7640   40.4840 H   0  0  0  0  0  0  0  0  0  0  0  0
   35.2290   29.6910   38.8000 H   0  0  0  0  0  0  0  0  0  0  0  0
   35.7760   31.2450   38.1960 H   0  0  0  0  0  0  0  0  0  0  0  0
   36.9910   30.4190   36.4870 H   0  0  0  0  0  0  0  0  0  0  0  0
   35.9000   29.0590   36.7430 H   0  0  0  0  0  0  0  0  0  0  0  0
   37.9200   27.8700   36.7480 H   0  0  0  0  0  0  0  0  0  0  0  0
   38.8080   29.2660   37.3730 H   0  0  0  0  0  0  0  0  0  0  0  0
   38.7230   27.4810   38.9910 H   0  0  0  0  0  0  0  0  0  0  0  0
   36.9530   27.5360   39.1030 H   0  0  0  0  0  0  0  0  0  0  0  0
   37.7510   28.7630   41.2270 C   0  0  0  0  0  0  0  0  0  0  0  0
   37.3010   27.4310   41.2820 C   0  0  0  0  0  0  0  0  0  0  0  0
   37.0350   26.8200   42.5150 C   0  0  0  0  0  0  0  0  0  0  0  0
   37.2440   27.6060   43.6300 N   0  0  0  0  0  0  0  0  0  0  0  0
   37.6770   28.8820   43.5470 C   0  0  0  0  0  0  0  0  0  0  0  0
   37.9310   29.4610   42.3490 N   0  0  0  0  0  0  0  0  0  0  0  0
   37.1130   26.7530   40.4630 H   0  0  0  0  0  0  0  0  0  0  0  0
   36.6920   25.8170   42.6330 H   0  0  0  0  0  0  0  0  0  0  0  0
   37.8230   29.4480   44.4520 H   0  0  0  0  0  0  0  0  0  0  0  0
   37.5960   32.9320   39.9040 C   0  0  1  0  0  3  0  0  0  0  0  0
   38.0130   31.6620   39.2360 C   0  0  1  0  0  3  0  0  0  0  0  0
   39.3100   31.3670   39.6060 O   0  0  0  0  0  0  0  0  0  0  0  0
   39.5980   32.0810   40.7680 C   0  0  0  0  0  2  0  0  0  0  0  0
   38.9410   33.4170   40.4610 C   0  0  2  0  0  3  0  0  0  0  0  0
   37.1150   33.8930   39.0410 O   0  0  0  0  0  0  0  0  0  0  0  0
   36.6600   34.5940   39.5460 H   0  0  0  0  0  0  0  0  0  0  0  0
   38.7330   34.1610   41.6170 O   0  0  0  0  0  0  0  0  0  0  0  0
   38.7390   33.5540   42.4020 H   0  0  0  0  0  0  0  0  0  0  0  0
  1  7  1  6  0  0  0
  1 17  1  0  0  0  0
  2  1  1  0  0  0  0
  2  8  1  1  0  0  0
  3  9  1  0  0  0  0
  3  2  1  0  0  0  0
  4  5  1  0  0  0  0
  4  3  1  0  0  0  0
  5  6  1  0  0  0  0
  6 15  1  0  0  0  0
  6 16  1  0  0  0  0
  6  1  1  0  0  0  0
 10  3  1  0  0  0  0
 11  4  1  0  0  0  0
 12  4  1  0  0  0  0
 13  5  1  0  0  0  0
 14  5  1  0  0  0  0
 17 18  2  0  0  0  0
 17 22  1  0  0  0  0
 18 19  1  0  0  0  0
 19 24  1  0  0  0  0
 19 20  2  0  0  0  0
 21 20  1  0  0  0  0
 21 25  1  0  0  0  0
 22 21  2  0  0  0  0
 23 18  1  0  0  0  0
 26 31  1  6  0  0  0
 26 30  1  0  0  0  0
 27  2  1  0  0  0  0
 27 28  1  1  0  0  0
 27 26  1  0  0  0  0
 28 29  1  0  0  0  0
 30 29  1  0  0  0  0
 30 33  1  1  0  0  0
 31 32  1  0  0  0  0
 33 34  1  0  0  0  0
M  END
>  <minimizedAffinity>
-5.54346991

$$$$

 OpenBabel03242517093D

 34 36  0  0  1  0  0  0  0  0999 V2000
   36.9510   26.7430   41.4060 C   0  0  2  0  0  0  0  0  0  0  0  0
   37.5040   28.0570   41.0110 C   0  0  2  0  0  0  0  0  0  0  0  0
   38.2470   28.7540   42.1030 C   0  0  0  0  0  0  0  0  0  0  0  0
   37.4620   28.8720   43.3930 C   0  0  0  0  0  0  0  0  0  0  0  0
   36.5840   27.6760   43.6800 C   0  0  0  0  0  0  0  0  0  0  0  0
   37.0380   26.4690   42.8990 C   0  0  0  0  0  0  0  0  0  0  0  0
   35.8580   26.6460   41.1600 H   0  0  0  0  0  0  0  0  0  0  0  0
   38.2290   27.9180   40.1770 H   0  0  0  0  0  0  0  0  0  0  0  0
   39.2640   28.4310   42.2940 H   0  0  0  0  0  0  0  0  0  0  0  0
   38.3470   29.8240   41.7490 H   0  0  0  0  0  0  0  0  0  0  0  0
   36.8850   29.8290   43.4630 H   0  0  0  0  0  0  0  0  0  0  0  0
   38.2040   28.9370   44.2180 H   0  0  0  0  0  0  0  0  0  0  0  0
   36.4620   27.4560   44.7360 H   0  0  0  0  0  0  0  0  0  0  0  0
   35.5530   27.9280   43.2940 H   0  0  0  0  0  0  0  0  0  0  0  0
   36.3220   25.6480   43.1430 H   0  0  0  0  0  0  0  0  0  0  0  0
   38.0320   26.1170   43.2080 H   0  0  0  0  0  0  0  0  0  0  0  0
   37.6140   25.6250   40.7110 C   0  0  0  0  0  0  0  0  0  0  0  0
   37.5430   24.3760   41.3560 C   0  0  0  0  0  0  0  0  0  0  0  0
   38.1370   23.2440   40.7810 C   0  0  0  0  0  0  0  0  0  0  0  0
   38.7740   23.4490   39.5740 N   0  0  0  0  0  0  0  0  0  0  0  0
   38.8260   24.6590   38.9780 C   0  0  0  0  0  0  0  0  0  0  0  0
   38.2470   25.7460   39.5430 N   0  0  0  0  0  0  0  0  0  0  0  0
   37.0680   24.1320   42.2950 H   0  0  0  0  0  0  0  0  0  0  0  0
   38.1240   22.2680   41.2120 H   0  0  0  0  0  0  0  0  0  0  0  0
   39.3370   24.7600   38.0350 H   0  0  0  0  0  0  0  0  0  0  0  0
   36.6450   30.3950   40.6020 C   0  0  1  0  0  3  0  0  0  0  0  0
   36.4080   28.9280   40.4460 C   0  0  1  0  0  3  0  0  0  0  0  0
   36.2790   28.6360   39.1030 O   0  0  0  0  0  0  0  0  0  0  0  0
   36.8400   29.6870   38.3790 C   0  0  0  0  0  2  0  0  0  0  0  0
   36.3510   30.8850   39.1770 C   0  0  2  0  0  3  0  0  0  0  0  0
   35.7690   31.0200   41.4620 O   0  0  0  0  0  0  0  0  0  0  0  0
   36.1070   31.9070   41.6920 H   0  0  0  0  0  0  0  0  0  0  0  0
   37.1040   32.0220   38.9050 O   0  0  0  0  0  0  0  0  0  0  0  0
   37.9800   31.7510   38.5250 H   0  0  0  0  0  0  0  0  0  0  0  0
  1  7  1  6  0  0  0
  1  6  1  0  0  0  0
  2  8  1  6  0  0  0
  2  1  1  0  0  0  0
  2  3  1  0  0  0  0
  3  9  1  0  0  0  0
  3  4  1  0  0  0  0
  4 11  1  0  0  0  0
  4  5  1  0  0  0  0
  4 12  1  0  0  0  0
  5 13  1  0  0  0  0
  6 15  1  0  0  0  0
  6 16  1  0  0  0  0
  6  5  1  0  0  0  0
 10  3  1  0  0  0  0
 14  5  1  0  0  0  0
 17 18  1  0  0  0  0
 17  1  1  0  0  0  0
 18 23  1  0  0  0  0
 19 24  1  0  0  0  0
 19 18  2  0  0  0  0
 20 19  1  0  0  0  0
 21 22  1  0  0  0  0
 21 20  2  0  0  0  0
 22 17  2  0  0  0  0
 25 21  1  0  0  0  0
 26 31  1  1  0  0  0
 27 28  1  6  0  0  0
 27 26  1  0  0  0  0
 27  2  1  0  0  0  0
 29 28  1  0  0  0  0
 29 30  1  0  0  0  0
 30 33  1  6  0  0  0
 30 26  1  0  0  0  0
 31 32  1  0  0  0  0
 34 33  1  0  0  0  0
M  END
>  <minimizedAffinity>
-5.49131727

$$$$

 OpenBabel03242517093D

 34 36  0  0  1  0  0  0  0  0999 V2000
   36.5720   28.7290   41.1890 C   0  0  2  0  0  0  0  0  0  0  0  0
   37.8670   29.4070   40.9600 C   0  0  2  0  0  0  0  0  0  0  0  0
   39.0130   28.7850   41.6890 C   0  0  0  0  0  0  0  0  0  0  0  0
   38.7610   28.6020   43.1720 C   0  0  0  0  0  0  0  0  0  0  0  0
   37.3310   28.2440   43.5040 C   0  0  0  0  0  0  0  0  0  0  0  0
   36.6150   27.6910   42.2990 C   0  0  0  0  0  0  0  0  0  0  0  0
   35.7610   29.4460   41.4970 H   0  0  0  0  0  0  0  0  0  0  0  0
   38.1230   29.3610   39.8770 H   0  0  0  0  0  0  0  0  0  0  0  0
   39.4510   27.8940   41.2550 H   0  0  0  0  0  0  0  0  0  0  0  0
   39.8360   29.5600   41.6490 H   0  0  0  0  0  0  0  0  0  0  0  0
   39.1180   29.4690   43.7830 H   0  0  0  0  0  0  0  0  0  0  0  0
   39.3960   27.7520   43.5040 H   0  0  0  0  0  0  0  0  0  0  0  0
   37.2230   27.6010   44.3730 H   0  0  0  0  0  0  0  0  0  0  0  0
   36.8060   29.2080   43.7650 H   0  0  0  0  0  0  0  0  0  0  0  0
   35.5660   27.4850   42.6210 H   0  0  0  0  0  0  0  0  0  0  0  0
   37.0320   26.7310   41.9640 H   0  0  0  0  0  0  0  0  0  0  0  0
   36.0690   28.0600   39.9750 C   0  0  0  0  0  0  0  0  0  0  0  0
   36.5210   26.7440   39.7700 C   0  0  0  0  0  0  0  0  0  0  0  0
   36.1030   26.0140   38.6490 C   0  0  0  0  0  0  0  0  0  0  0  0
   35.2420   26.6700   37.7940 N   0  0  0  0  0  0  0  0  0  0  0  0
   34.8240   27.9350   38.0160 C   0  0  0  0  0  0  0  0  0  0  0  0
   35.2350   28.6300   39.1040 N   0  0  0  0  0  0  0  0  0  0  0  0
   37.1910   26.1620   40.3860 H   0  0  0  0  0  0  0  0  0  0  0  0
   36.4050   25.0150   38.4300 H   0  0  0  0  0  0  0  0  0  0  0  0
   34.1500   28.3980   37.3140 H   0  0  0  0  0  0  0  0  0  0  0  0
   38.9140   31.7010   40.8560 C   0  0  1  0  0  3  0  0  0  0  0  0
   37.7420   30.8780   41.2790 C   0  0  1  0  0  3  0  0  0  0  0  0
   36.6090   31.3560   40.6520 O   0  0  0  0  0  0  0  0  0  0  0  0
   37.0140   32.1120   39.5530 C   0  0  0  0  0  2  0  0  0  0  0  0
   38.2070   32.8550   40.1320 C   0  0  2  0  0  3  0  0  0  0  0  0
   39.6410   32.2290   41.9000 O   0  0  0  0  0  0  0  0  0  0  0  0
   40.5000   32.5590   41.5740 H   0  0  0  0  0  0  0  0  0  0  0  0
   39.0290   33.3590   39.1300 O   0  0  0  0  0  0  0  0  0  0  0  0
   38.8640   32.8600   38.2890 H   0  0  0  0  0  0  0  0  0  0  0  0
  1  7  1  1  0  0  0
  1  6  1  0  0  0  0
  2  8  1  6  0  0  0
  2  1  1  0  0  0  0
  2 27  1  0  0  0  0
  2  3  1  0  0  0  0
  3  4  1  0  0  0  0
  4  5  1  0  0  0  0
  4 12  1  0  0  0  0
  4 11  1  0  0  0  0
  5 14  1  0  0  0  0
  5 13  1  0  0  0  0
  6 15  1  0  0  0  0
  6  5  1  0  0  0  0
  9  3  1  0  0  0  0
 10  3  1  0  0  0  0
 16  6  1  0  0  0  0
 17  1  1  0  0  0  0
 18 17  1  0  0  0  0
 18 23  1  0  0  0  0
 19 18  2  0  0  0  0
 20 21  2  0  0  0  0
 20 19  1  0  0  0  0
 21 22  1  0  0  0  0
 22 17  2  0  0  0  0
 24 19  1  0  0  0  0
 25 21  1  0  0  0  0
 26 27  1  0  0  0  0
 26 31  1  1  0  0  0
 27 28  1  6  0  0  0
 29 30  1  0  0  0  0
 29 28  1  0  0  0  0
 30 33  1  6  0  0  0
 30 26  1  0  0  0  0
 32 31  1  0  0  0  0
 34 33  1  0  0  0  0
M  END
>  <minimizedAffinity>
-5.37121058

$$$$

 OpenBabel03242517093D

 34 36  0  0  1  0  0  0  0  0999 V2000
   36.7570   27.2070   38.6790 C   0  0  2  0  0  0  0  0  0  0  0  0
   35.8680   28.2370   39.2600 C   0  0  2  0  0  0  0  0  0  0  0  0
   34.9340   28.8570   38.2720 C   0  0  0  0  0  0  0  0  0  0  0  0
   35.6260   29.3860   37.0320 C   0  0  0  0  0  0  0  0  0  0  0  0
   36.7960   28.5420   36.5840 C   0  0  0  0  0  0  0  0  0  0  0  0
   36.7160   27.1510   37.1610 C   0  0  0  0  0  0  0  0  0  0  0  0
   37.8390   27.3830   38.9310 H   0  0  0  0  0  0  0  0  0  0  0  0
   35.2290   27.7750   40.0470 H   0  0  0  0  0  0  0  0  0  0  0  0
   34.0440   28.2960   38.0120 H   0  0  0  0  0  0  0  0  0  0  0  0
   34.5480   29.7890   38.7840 H   0  0  0  0  0  0  0  0  0  0  0  0
   35.9110   30.4650   37.1210 H   0  0  0  0  0  0  0  0  0  0  0  0
   34.8760   29.3660   36.2110 H   0  0  0  0  0  0  0  0  0  0  0  0
   36.9500   28.5290   35.5090 H   0  0  0  0  0  0  0  0  0  0  0  0
   37.7240   29.0100   37.0250 H   0  0  0  0  0  0  0  0  0  0  0  0
   37.6260   26.6100   36.8090 H   0  0  0  0  0  0  0  0  0  0  0  0
   35.8520   26.5870   36.7810 H   0  0  0  0  0  0  0  0  0  0  0  0
   36.4490   25.8550   39.1820 C   0  0  0  0  0  0  0  0  0  0  0  0
   35.6790   25.0460   38.3260 C   0  0  0  0  0  0  0  0  0  0  0  0
   35.3310   23.7420   38.7030 C   0  0  0  0  0  0  0  0  0  0  0  0
   35.7890   23.3330   39.9380 N   0  0  0  0  0  0  0  0  0  0  0  0
   36.5260   24.1320   40.7390 C   0  0  0  0  0  0  0  0  0  0  0  0
   36.8570   25.3900   40.3630 N   0  0  0  0  0  0  0  0  0  0  0  0
   35.2840   25.2880   37.3500 H   0  0  0  0  0  0  0  0  0  0  0  0
   34.7510   23.0740   38.1070 H   0  0  0  0  0  0  0  0  0  0  0  0
   36.8570   23.7580   41.6940 H   0  0  0  0  0  0  0  0  0  0  0  0
   36.1360   29.7020   41.2980 C   0  0  1  0  0  3  0  0  0  0  0  0
   36.6890   29.2830   39.9750 C   0  0  1  0  0  3  0  0  0  0  0  0
   37.9590   28.7750   40.1610 O   0  0  0  0  0  0  0  0  0  0  0  0
   38.0910   28.4310   41.5050 C   0  0  0  0  0  2  0  0  0  0  0  0
   37.3910   29.6010   42.1760 C   0  0  2  0  0  3  0  0  0  0  0  0
   35.6860   31.0040   41.3360 O   0  0  0  0  0  0  0  0  0  0  0  0
   35.1440   31.1440   42.1360 H   0  0  0  0  0  0  0  0  0  0  0  0
   37.0280   29.2980   43.4840 O   0  0  0  0  0  0  0  0  0  0  0  0
   36.9930   28.3130   43.5930 H   0  0  0  0  0  0  0  0  0  0  0  0
  1  7  1  1  0  0  0
  1 17  1  0  0  0  0
  1  2  1  0  0  0  0
  2 27  1  0  0  0  0
  2  8  1  1  0  0  0
  3 10  1  0  0  0  0
  3  2  1  0  0  0  0
  4 11  1  0  0  0  0
  4  3  1  0  0  0  0
  5 14  1  0  0  0  0
  5  4  1  0  0  0  0
  5  6  1  0  0  0  0
  6  1  1  0  0  0  0
  9  3  1  0  0  0  0
 12  4  1  0  0  0  0
 13  5  1  0  0  0  0
 15  6  1  0  0  0  0
 16  6  1  0  0  0  0
 17 22  1  0  0  0  0
 18 19  1  0  0  0  0
 18 17  2  0  0  0  0
 19 20  2  0  0  0  0
 20 21  1  0  0  0  0
 21 25  1  0  0  0  0
 22 21  2  0  0  0  0
 23 18  1  0  0  0  0
 24 19  1  0  0  0  0
 26 31  1  6  0  0  0
 26 30  1  0  0  0  0
 27 28  1  1  0  0  0
 27 26  1  0  0  0  0
 28 29  1  0  0  0  0
 29 30  1  0  0  0  0
 30 33  1  1  0  0  0
 31 32  1  0  0  0  0
 33 34  1  0  0  0  0
M  END
>  <minimizedAffinity>
-5.29563904

$$$$

 OpenBabel03242517093D

 34 36  0  0  1  0  0  0  0  0999 V2000
   38.5550   27.4130   41.2050 C   0  0  2  0  0  0  0  0  0  0  0  0
   38.3210   28.8380   41.5300 C   0  0  2  0  0  0  0  0  0  0  0  0
   38.0960   29.0980   42.9830 C   0  0  0  0  0  0  0  0  0  0  0  0
   37.0180   28.2270   43.5970 C   0  0  0  0  0  0  0  0  0  0  0  0
   36.9800   26.8250   43.0340 C   0  0  0  0  0  0  0  0  0  0  0  0
   38.2840   26.4700   42.3670 C   0  0  0  0  0  0  0  0  0  0  0  0
   37.8880   27.0470   40.3760 H   0  0  0  0  0  0  0  0  0  0  0  0
   39.2150   29.4350   41.2390 H   0  0  0  0  0  0  0  0  0  0  0  0
   38.9720   29.1400   43.6210 H   0  0  0  0  0  0  0  0  0  0  0  0
   37.6570   30.1400   43.0270 H   0  0  0  0  0  0  0  0  0  0  0  0
   36.0070   28.7050   43.5710 H   0  0  0  0  0  0  0  0  0  0  0  0
   37.2530   28.1380   44.6790 H   0  0  0  0  0  0  0  0  0  0  0  0
   36.6680   26.0670   43.7470 H   0  0  0  0  0  0  0  0  0  0  0  0
   36.2000   26.8220   42.2180 H   0  0  0  0  0  0  0  0  0  0  0  0
   38.1580   25.4410   41.9550 H   0  0  0  0  0  0  0  0  0  0  0  0
   39.1210   26.4220   43.0770 H   0  0  0  0  0  0  0  0  0  0  0  0
   39.9330   27.1640   40.7430 C   0  0  0  0  0  0  0  0  0  0  0  0
   40.3190   25.8130   40.6740 C   0  0  0  0  0  0  0  0  0  0  0  0
   41.6060   25.4620   40.2460 C   0  0  0  0  0  0  0  0  0  0  0  0
   42.4330   26.5130   39.9090 N   0  0  0  0  0  0  0  0  0  0  0  0
   42.0360   27.8020   39.9860 C   0  0  0  0  0  0  0  0  0  0  0  0
   40.7880   28.1280   40.4010 N   0  0  0  0  0  0  0  0  0  0  0  0
   39.7370   24.9360   40.9180 H   0  0  0  0  0  0  0  0  0  0  0  0
   41.9670   24.4610   40.1690 H   0  0  0  0  0  0  0  0  0  0  0  0
   42.7250   28.5820   39.7090 H   0  0  0  0  0  0  0  0  0  0  0  0
   36.8060   30.7870   41.0050 C   0  0  1  0  0  3  0  0  0  0  0  0
   37.1880   29.3780   40.6900 C   0  0  1  0  0  3  0  0  0  0  0  0
   37.5650   29.3020   39.3640 O   0  0  0  0  0  0  0  0  0  0  0  0
   37.8740   30.5900   38.9310 C   0  0  0  0  0  2  0  0  0  0  0  0
   36.7690   31.3950   39.5960 C   0  0  2  0  0  3  0  0  0  0  0  0
   35.5560   30.9230   41.5660 O   0  0  0  0  0  0  0  0  0  0  0  0
   35.4580   31.8160   41.9480 H   0  0  0  0  0  0  0  0  0  0  0  0
   37.0880   32.7470   39.6560 O   0  0  0  0  0  0  0  0  0  0  0  0
   38.0700   32.8560   39.5690 H   0  0  0  0  0  0  0  0  0  0  0  0
  1  7  1  6  0  0  0
  1  2  1  0  0  0  0
  1  6  1  0  0  0  0
  2  8  1  6  0  0  0
  2  3  1  0  0  0  0
  3 10  1  0  0  0  0
  3  4  1  0  0  0  0
  3  9  1  0  0  0  0
  4 12  1  0  0  0  0
  5  4  1  0  0  0  0
  5 13  1  0  0  0  0
  6  5  1  0  0  0  0
  6 16  1  0  0  0  0
 11  4  1  0  0  0  0
 14  5  1  0  0  0  0
 15  6  1  0  0  0  0
 17  1  1  0  0  0  0
 18 17  1  0  0  0  0
 18 23  1  0  0  0  0
 19 18  2  0  0  0  0
 20 21  2  0  0  0  0
 20 19  1  0  0  0  0
 21 22  1  0  0  0  0
 22 17  2  0  0  0  0
 24 19  1  0  0  0  0
 25 21  1  0  0  0  0
 26 31  1  6  0  0  0
 27 28  1  6  0  0  0
 27 26  1  0  0  0  0
 27  2  1  0  0  0  0
 29 28  1  0  0  0  0
 29 30  1  0  0  0  0
 30 33  1  1  0  0  0
 30 26  1  0  0  0  0
 31 32  1  0  0  0  0
 34 33  1  0  0  0  0
M  END
>  <minimizedAffinity>
-5.20809984

$$$$

 OpenBabel03242517093D

 34 36  0  0  1  0  0  0  0  0999 V2000
   39.8330   31.9270   39.8650 C   0  0  2  0  0  0  0  0  0  0  0  0
   38.4780   31.3630   39.6820 C   0  0  2  0  0  0  0  0  0  0  0  0
   37.5310   32.2800   38.9790 C   0  0  0  0  0  0  0  0  0  0  0  0
   37.4560   33.6630   39.5940 C   0  0  0  0  0  0  0  0  0  0  0  0
   38.7770   34.1600   40.1320 C   0  0  0  0  0  0  0  0  0  0  0  0
   39.9310   33.4050   39.5220 C   0  0  0  0  0  0  0  0  0  0  0  0
   40.1880   31.8550   40.9300 H   0  0  0  0  0  0  0  0  0  0  0  0
   38.5410   30.4410   39.0600 H   0  0  0  0  0  0  0  0  0  0  0  0
   37.6070   32.3380   37.8990 H   0  0  0  0  0  0  0  0  0  0  0  0
   36.5060   31.8430   39.1730 H   0  0  0  0  0  0  0  0  0  0  0  0
   36.6440   33.7540   40.3600 H   0  0  0  0  0  0  0  0  0  0  0  0
   37.1500   34.3600   38.7850 H   0  0  0  0  0  0  0  0  0  0  0  0
   38.9110   35.2350   40.0600 H   0  0  0  0  0  0  0  0  0  0  0  0
   38.7940   33.9180   41.2340 H   0  0  0  0  0  0  0  0  0  0  0  0
   40.8580   33.8100   39.9940 H   0  0  0  0  0  0  0  0  0  0  0  0
   40.0280   33.5840   38.4420 H   0  0  0  0  0  0  0  0  0  0  0  0
   40.8470   31.2170   39.0620 C   0  0  0  0  0  0  0  0  0  0  0  0
   41.0940   31.7480   37.7830 C   0  0  0  0  0  0  0  0  0  0  0  0
   42.0400   31.1530   36.9360 C   0  0  0  0  0  0  0  0  0  0  0  0
   42.6850   30.0450   37.4450 N   0  0  0  0  0  0  0  0  0  0  0  0
   42.4280   29.5570   38.6770 C   0  0  0  0  0  0  0  0  0  0  0  0
   41.5110   30.1410   39.4860 N   0  0  0  0  0  0  0  0  0  0  0  0
   40.6360   32.6060   37.3120 H   0  0  0  0  0  0  0  0  0  0  0  0
   42.2790   31.5000   35.9560 H   0  0  0  0  0  0  0  0  0  0  0  0
   42.9630   28.6880   39.0210 H   0  0  0  0  0  0  0  0  0  0  0  0
   36.6030   30.2200   40.9260 C   0  0  1  0  0  3  0  0  0  0  0  0
   37.9240   30.9110   41.0120 C   0  0  1  0  0  3  0  0  0  0  0  0
   38.8410   30.0540   41.5870 O   0  0  0  0  0  0  0  0  0  0  0  0
   38.3460   28.7570   41.4730 C   0  0  0  0  0  2  0  0  0  0  0  0
   36.8750   28.9770   41.7840 C   0  0  2  0  0  3  0  0  0  0  0  0
   35.5610   30.9180   41.4950 O   0  0  0  0  0  0  0  0  0  0  0  0
   34.7100   30.5310   41.2150 H   0  0  0  0  0  0  0  0  0  0  0  0
   36.0940   27.9150   41.3390 O   0  0  0  0  0  0  0  0  0  0  0  0
   36.5890   27.4180   40.6380 H   0  0  0  0  0  0  0  0  0  0  0  0
  1  7  1  1  0  0  0
  2  8  1  6  0  0  0
  2  1  1  0  0  0  0
  2 27  1  0  0  0  0
  3 10  1  0  0  0  0
  3  4  1  0  0  0  0
  3  2  1  0  0  0  0
  4  5  1  0  0  0  0
  4 11  1  0  0  0  0
  5 14  1  0  0  0  0
  6  1  1  0  0  0  0
  6 15  1  0  0  0  0
  6  5  1  0  0  0  0
  9  3  1  0  0  0  0
 12  4  1  0  0  0  0
 13  5  1  0  0  0  0
 16  6  1  0  0  0  0
 17 22  1  0  0  0  0
 17  1  1  0  0  0  0
 18 17  2  0  0  0  0
 19 20  2  0  0  0  0
 19 18  1  0  0  0  0
 20 21  1  0  0  0  0
 21 25  1  0  0  0  0
 21 22  2  0  0  0  0
 23 18  1  0  0  0  0
 24 19  1  0  0  0  0
 26 27  1  0  0  0  0
 26 31  1  1  0  0  0
 26 30  1  0  0  0  0
 27 28  1  6  0  0  0
 29 28  1  0  0  0  0
 29 30  1  0  0  0  0
 30 33  1  6  0  0  0
 32 31  1  0  0  0  0
 34 33  1  0  0  0  0
M  END
>  <minimizedAffinity>
-5.19412851

$$$$

 OpenBabel03242517093D

 34 36  0  0  1  0  0  0  0  0999 V2000
   38.6670   28.4510   42.3970 C   0  0  2  0  0  0  0  0  0  0  0  0
   39.0790   27.0870   41.9990 C   0  0  2  0  0  0  0  0  0  0  0  0
   37.9630   26.2500   41.4650 C   0  0  0  0  0  0  0  0  0  0  0  0
   36.7530   26.1970   42.3760 C   0  0  0  0  0  0  0  0  0  0  0  0
   36.4840   27.4950   43.1010 C   0  0  0  0  0  0  0  0  0  0  0  0
   37.1600   28.6530   42.4120 C   0  0  0  0  0  0  0  0  0  0  0  0
   39.0020   28.7130   43.4390 H   0  0  0  0  0  0  0  0  0  0  0  0
   39.8390   27.1520   41.1870 H   0  0  0  0  0  0  0  0  0  0  0  0
   37.6680   26.4160   40.4350 H   0  0  0  0  0  0  0  0  0  0  0  0
   38.3610   25.1910   41.4840 H   0  0  0  0  0  0  0  0  0  0  0  0
   36.7810   25.3320   43.0850 H   0  0  0  0  0  0  0  0  0  0  0  0
   35.8710   25.9950   41.7300 H   0  0  0  0  0  0  0  0  0  0  0  0
   35.4320   27.6910   43.2880 H   0  0  0  0  0  0  0  0  0  0  0  0
   36.9690   27.4090   44.1160 H   0  0  0  0  0  0  0  0  0  0  0  0
   36.9380   29.5590   43.0260 H   0  0  0  0  0  0  0  0  0  0  0  0
   36.7490   28.8470   41.4110 H   0  0  0  0  0  0  0  0  0  0  0  0
   39.2450   29.4880   41.5230 C   0  0  0  0  0  0  0  0  0  0  0  0
   39.5570   30.7090   42.1470 C   0  0  0  0  0  0  0  0  0  0  0  0
   40.1130   31.7640   41.4100 C   0  0  0  0  0  0  0  0  0  0  0  0
   40.3240   31.5120   40.0700 N   0  0  0  0  0  0  0  0  0  0  0  0
   40.0140   30.3290   39.4970 C   0  0  0  0  0  0  0  0  0  0  0  0
   39.4770   29.3170   40.2200 N   0  0  0  0  0  0  0  0  0  0  0  0
   39.4250   30.9860   43.1830 H   0  0  0  0  0  0  0  0  0  0  0  0
   40.3740   32.7150   41.8160 H   0  0  0  0  0  0  0  0  0  0  0  0
   40.2010   30.1890   38.4450 H   0  0  0  0  0  0  0  0  0  0  0  0
   40.4890   25.1430   42.7760 C   0  0  1  0  0  3  0  0  0  0  0  0
   39.7800   26.4040   43.1490 C   0  0  1  0  0  3  0  0  0  0  0  0
   40.6940   27.2920   43.6790 O   0  0  0  0  0  0  0  0  0  0  0  0
   41.9670   26.8870   43.2800 C   0  0  0  0  0  2  0  0  0  0  0  0
   41.8560   25.3790   43.4340 C   0  0  2  0  0  3  0  0  0  0  0  0
   39.9400   24.0030   43.3200 O   0  0  0  0  0  0  0  0  0  0  0  0
   40.2980   23.2150   42.8700 H   0  0  0  0  0  0  0  0  0  0  0  0
   42.8460   24.7180   42.7150 O   0  0  0  0  0  0  0  0  0  0  0  0
   43.1930   25.3200   42.0070 H   0  0  0  0  0  0  0  0  0  0  0  0
  1  6  1  0  0  0  0
  1  7  1  1  0  0  0
  2  8  1  6  0  0  0
  2  1  1  0  0  0  0
  2 27  1  0  0  0  0
  3 10  1  0  0  0  0
  3  2  1  0  0  0  0
  3  4  1  0  0  0  0
  4 11  1  0  0  0  0
  4  5  1  0  0  0  0
  5 13  1  0  0  0  0
  5 14  1  0  0  0  0
  6 15  1  0  0  0  0
  6  5  1  0  0  0  0
  9  3  1  0  0  0  0
 12  4  1  0  0  0  0
 16  6  1  0  0  0  0
 17 18  1  0  0  0  0
 17  1  1  0  0  0  0
 18 23  1  0  0  0  0
 19 24  1  0  0  0  0
 19 18  2  0  0  0  0
 20 19  1  0  0  0  0
 21 20  2  0  0  0  0
 21 22  1  0  0  0  0
 22 17  2  0  0  0  0
 25 21  1  0  0  0  0
 26 27  1  0  0  0  0
 26 31  1  1  0  0  0
 26 30  1  0  0  0  0
 27 28  1  6  0  0  0
 29 30  1  0  0  0  0
 29 28  1  0  0  0  0
 30 33  1  6  0  0  0
 32 31  1  0  0  0  0
 34 33  1  0  0  0  0
M  END
>  <minimizedAffinity>
-5.18585157

$$$$

 OpenBabel03242517093D

 34 36  0  0  1  0  0  0  0  0999 V2000
   37.3020   27.9030   39.8690 C   0  0  2  0  0  0  0  0  0  0  0  0
   36.8780   29.1320   40.5750 C   0  0  2  0  0  0  0  0  0  0  0  0
   35.3970   29.2750   40.7040 C   0  0  0  0  0  0  0  0  0  0  0  0
   34.6560   29.1310   39.3910 C   0  0  0  0  0  0  0  0  0  0  0  0
   35.2670   28.1130   38.4580 C   0  0  0  0  0  0  0  0  0  0  0  0
   36.1560   27.1530   39.2070 C   0  0  0  0  0  0  0  0  0  0  0  0
   38.0260   28.1150   39.0340 H   0  0  0  0  0  0  0  0  0  0  0  0
   37.2840   29.1220   41.6120 H   0  0  0  0  0  0  0  0  0  0  0  0
   34.9110   28.7070   41.4900 H   0  0  0  0  0  0  0  0  0  0  0  0
   35.2340   30.3580   40.9890 H   0  0  0  0  0  0  0  0  0  0  0  0
   34.4930   30.1120   38.8750 H   0  0  0  0  0  0  0  0  0  0  0  0
   33.6310   28.7760   39.6350 H   0  0  0  0  0  0  0  0  0  0  0  0
   34.5490   27.5960   37.8290 H   0  0  0  0  0  0  0  0  0  0  0  0
   35.9440   28.6790   37.7540 H   0  0  0  0  0  0  0  0  0  0  0  0
   36.5880   26.4620   38.4450 H   0  0  0  0  0  0  0  0  0  0  0  0
   35.5960   26.5260   39.9150 H   0  0  0  0  0  0  0  0  0  0  0  0
   37.9950   26.9550   40.7620 C   0  0  0  0  0  0  0  0  0  0  0  0
   37.2010   25.9200   41.2880 C   0  0  0  0  0  0  0  0  0  0  0  0
   37.7590   24.9620   42.1460 C   0  0  0  0  0  0  0  0  0  0  0  0
   39.1020   25.1140   42.4210 N   0  0  0  0  0  0  0  0  0  0  0  0
   39.8400   26.1190   41.9010 C   0  0  0  0  0  0  0  0  0  0  0  0
   39.2890   27.0380   41.0720 N   0  0  0  0  0  0  0  0  0  0  0  0
   36.1510   25.7300   41.1240 H   0  0  0  0  0  0  0  0  0  0  0  0
   37.2200   24.1520   42.5820 H   0  0  0  0  0  0  0  0  0  0  0  0
   40.8860   26.1880   42.1510 H   0  0  0  0  0  0  0  0  0  0  0  0
   37.5550   31.5540   40.7880 C   0  0  1  0  0  3  0  0  0  0  0  0
   37.4940   30.3420   39.9160 C   0  0  1  0  0  3  0  0  0  0  0  0
   38.7750   30.0090   39.5220 O   0  0  0  0  0  0  0  0  0  0  0  0
   39.6670   30.6210   40.4020 C   0  0  0  0  0  2  0  0  0  0  0  0
   39.0140   31.9820   40.5810 C   0  0  2  0  0  3  0  0  0  0  0  0
   36.7410   32.5870   40.3780 O   0  0  0  0  0  0  0  0  0  0  0  0
   36.6550   33.2450   41.0940 H   0  0  0  0  0  0  0  0  0  0  0  0
   39.4830   32.6270   41.7210 O   0  0  0  0  0  0  0  0  0  0  0  0
   39.8710   31.9560   42.3400 H   0  0  0  0  0  0  0  0  0  0  0  0
  1  7  1  6  0  0  0
  1  2  1  0  0  0  0
  1 17  1  0  0  0  0
  2  3  1  0  0  0  0
  2  8  1  1  0  0  0
  3 10  1  0  0  0  0
  3  9  1  0  0  0  0
  4 12  1  0  0  0  0
  4  3  1  0  0  0  0
  5  6  1  0  0  0  0
  5  4  1  0  0  0  0
  6  1  1  0  0  0  0
  6 16  1  0  0  0  0
 11  4  1  0  0  0  0
 13  5  1  0  0  0  0
 14  5  1  0  0  0  0
 15  6  1  0  0  0  0
 17 22  2  0  0  0  0
 17 18  1  0  0  0  0
 18 19  2  0  0  0  0
 19 20  1  0  0  0  0
 19 24  1  0  0  0  0
 21 25  1  0  0  0  0
 21 20  2  0  0  0  0
 22 21  1  0  0  0  0
 23 18  1  0  0  0  0
 26 31  1  6  0  0  0
 27 28  1  1  0  0  0
 27  2  1  0  0  0  0
 27 26  1  0  0  0  0
 28 29  1  0  0  0  0
 29 30  1  0  0  0  0
 30 26  1  0  0  0  0
 30 33  1  1  0  0  0
 31 32  1  0  0  0  0
 33 34  1  0  0  0  0
M  END
>  <minimizedAffinity>
-5.17308998

$$$$
