
 OpenBabel03252507573D

 27 29  0  0  1  0  0  0  0  0999 V2000
   46.4240   32.6590   45.7600 C   0  0  1  0  0  0  0  0  0  0  0  0
   47.1170   32.9810   47.0460 C   0  0  0  0  0  0  0  0  0  0  0  0
   45.6420   32.7820   47.0290 C   0  0  2  0  0  0  0  0  0  0  0  0
   46.5780   31.6870   45.2960 H   0  0  0  0  0  0  0  0  0  0  0  0
   47.5770   33.9930   47.0720 H   0  0  0  0  0  0  0  0  0  0  0  0
   47.7720   32.1740   47.4380 H   0  0  0  0  0  0  0  0  0  0  0  0
   45.0820   33.7390   47.2300 H   0  0  0  0  0  0  0  0  0  0  0  0
   46.6680   34.8640   42.8350 C   0  0  0  0  0  0  0  0  0  0  0  0
   45.5820   35.7610   43.0010 C   0  0  0  0  0  0  0  0  0  0  0  0
   44.7750   35.5760   44.1360 C   0  0  0  0  0  0  0  0  0  0  0  0
   45.0790   34.5620   44.9970 N   0  0  0  0  0  0  0  0  0  0  0  0
   46.1420   33.7410   44.7660 C   0  0  0  0  0  0  0  0  0  0  0  0
   46.9400   33.8670   43.7120 N   0  0  0  0  0  0  0  0  0  0  0  0
   45.3780   36.5440   42.3030 H   0  0  0  0  0  0  0  0  0  0  0  0
   43.9430   36.2190   44.3150 H   0  0  0  0  0  0  0  0  0  0  0  0
   47.4590   35.1100   41.6650 C   0  0  0  0  0  0  0  0  0  0  0  0
   48.5650   35.7350   41.6490 O   0  0  0  0  0  0  0  0  0  0  0  0
   47.1550   34.7650   40.6660 H   0  0  0  0  0  0  0  0  0  0  0  0
   45.5110   30.2620   47.1770 C   0  0  2  0  0  3  0  0  0  0  0  0
   45.1010   31.5910   47.7350 C   0  0  1  0  0  3  0  0  0  0  0  0
   45.5390   31.4850   49.0510 O   0  0  0  0  0  0  0  0  0  0  0  0
   45.1440   30.2410   49.4830 C   0  0  0  0  0  2  0  0  0  0  0  0
   44.9670   29.3450   48.2800 C   0  0  2  0  0  3  0  0  0  0  0  0
   46.8820   30.1860   47.1420 O   0  0  0  0  0  0  0  0  0  0  0  0
   47.2420   29.7260   47.9440 H   0  0  0  0  0  0  0  0  0  0  0  0
   45.7450   28.2040   48.3270 O   0  0  0  0  0  0  0  0  0  0  0  0
   45.1280   27.4470   48.4850 H   0  0  0  0  0  0  0  0  0  0  0  0
  1  4  1  6  0  0  0
  1  3  1  0  0  0  0
  1  2  1  0  0  0  0
  2  5  1  0  0  0  0
  2  6  1  0  0  0  0
  3  2  1  0  0  0  0
  3  7  1  1  0  0  0
  3 20  1  0  0  0  0
  8  9  2  0  0  0  0
  8 13  1  0  0  0  0
  9 10  1  0  0  0  0
 10 15  1  0  0  0  0
 10 11  2  0  0  0  0
 12 11  1  0  0  0  0
 12  1  1  0  0  0  0
 13 12  2  0  0  0  0
 14  9  1  0  0  0  0
 16  8  1  0  0  0  0
 17 16  2  0  0  0  0
 18 16  1  0  0  0  0
 19 24  1  1  0  0  0
 19 20  1  0  0  0  0
 19 23  1  0  0  0  0
 20 21  1  1  0  0  0
 21 22  1  0  0  0  0
 23 26  1  1  0  0  0
 23 22  1  0  0  0  0
 24 25  1  0  0  0  0
 26 27  1  0  0  0  0
M  END
>  <minimizedAffinity>
-4.68776464

>  <minimizedRMSD>
0.9775998

$$$$
