
     RDKit          3D

 33 35  0  0  0  0  0  0  0  0999 V2000
   44.9740   36.0105   43.2741 Cl  0  0  0  0  0  0  0  0  0  0  0  0
   45.6758   34.6924   44.1611 C   0  0  0  0  0  0  0  0  0  0  0  0
   46.6877   33.9659   43.6152 C   0  0  0  0  0  0  0  0  0  0  0  0
   47.1869   32.9356   44.3902 C   0  0  0  0  0  0  0  0  0  0  0  0
   46.7332   32.6068   45.6526 C   0  0  0  0  0  0  0  0  0  0  0  0
   45.7115   33.3637   46.1678 C   0  0  0  0  0  0  0  0  0  0  0  0
   45.1666   32.9129   47.7707 Cl  0  0  0  0  0  0  0  0  0  0  0  0
   45.1865   34.3958   45.4325 C   0  0  0  0  0  0  0  0  0  0  0  0
   48.7513   35.3958   40.9559 C   0  0  0  0  0  0  0  0  0  0  0  0
   48.2665   34.7842   39.8026 C   0  0  0  0  0  0  0  0  0  0  0  0
   47.2125   33.8642   39.9374 C   0  0  0  0  0  0  0  0  0  0  0  0
   46.7351   33.6316   41.1863 N   0  0  0  0  0  0  0  0  0  0  0  0
   47.2280   34.2428   42.2899 C   0  0  0  0  0  0  0  0  0  0  0  0
   48.2375   35.1259   42.1736 N   0  0  0  0  0  0  0  0  0  0  0  0
   48.0014   32.3439   43.9616 H   0  0  0  0  0  0  0  0  0  0  0  0
   44.3823   34.9523   45.8989 H   0  0  0  0  0  0  0  0  0  0  0  0
   49.5707   36.1040   40.8054 H   0  0  0  0  0  0  0  0  0  0  0  0
   48.6021   34.9293   38.8060 H   0  0  0  0  0  0  0  0  0  0  0  0
   46.7138   33.2998   39.1689 H   0  0  0  0  0  0  0  0  0  0  0  0
   45.2408   30.3651   46.6592 O   0  0  0  0  0  0  0  0  0  0  0  0
   46.3984   30.7818   47.3179 C   0  0  2  0  0  0  0  0  0  0  0  0
   47.3500   31.4872   46.3719 C   0  0  1  0  0  0  0  0  0  0  0  0
   47.7295   30.4412   45.5507 O   0  0  0  0  0  0  0  0  0  0  0  0
   48.1492   29.4687   46.4506 C   0  0  0  0  0  0  0  0  0  0  0  0
   47.1901   29.5276   47.6225 C   0  0  1  0  0  0  0  0  0  0  0  0
   47.8954   29.8109   48.8153 O   0  0  0  0  0  0  0  0  0  0  0  0
   44.7665   31.1049   46.1927 H   0  0  0  0  0  0  0  0  0  0  0  0
   46.1736   31.3660   48.2267 H   0  0  0  0  0  0  0  0  0  0  0  0
   48.2019   31.8219   47.0103 H   0  0  0  0  0  0  0  0  0  0  0  0
   49.2014   29.6927   46.7356 H   0  0  0  0  0  0  0  0  0  0  0  0
   48.1402   28.4495   46.0003 H   0  0  0  0  0  0  0  0  0  0  0  0
   46.5891   28.6221   47.7200 H   0  0  0  0  0  0  0  0  0  0  0  0
   48.6716   30.3979   48.6232 H   0  0  0  0  0  0  0  0  0  0  0  0
  1  2  1  0
  2  8  2  0
  3  2  1  0
  3  4  2  0
  4  5  1  0
  5  6  2  0
  6  7  1  0
  8  6  1  0
  9 14  2  0
 10 11  2  0
 10  9  1  0
 11 12  1  0
 12 13  2  0
 13  3  1  0
 14 13  1  0
  4 15  1  0
  8 16  1  0
  9 17  1  0
 10 18  1  0
 11 19  1  0
 20 21  1  0
 21 22  1  0
 22 23  1  0
 23 24  1  0
 24 25  1  0
 25 26  1  0
 25 21  1  0
 20 27  1  0
 21 28  1  1
 22 29  1  1
 24 30  1  0
 24 31  1  0
 25 32  1  1
 26 33  1  0
  5 22  1  0
M  ISO  5  15  14  16  14  17  14  18  14  19  14
M  END
>  <DihAtoms>  (1) 
3,4,21,20

>  <DihDeg>  (1) 
-89.99820187999426

$$$$
