
     RDKit          3D

 40 42  0  0  0  0  0  0  0  0999 V2000
   46.8073   34.1029   43.0575 C   0  0  0  0  0  0  0  0  0  0  0  0
   45.6352   33.7106   42.4299 C   0  0  0  0  0  0  0  0  0  0  0  0
   44.9068   32.6571   43.0321 C   0  0  0  0  0  0  0  0  0  0  0  0
   45.3788   32.0923   44.1703 N   0  0  0  0  0  0  0  0  0  0  0  0
   46.5243   32.5136   44.7372 C   0  0  0  0  0  0  0  0  0  0  0  0
   47.2400   33.5186   44.1826 N   0  0  0  0  0  0  0  0  0  0  0  0
   47.6669   29.9168   44.8004 F   0  0  0  0  0  0  0  0  0  0  0  0
   47.5949   30.6374   45.9662 C   0  0  0  0  0  0  0  0  0  0  0  0
   47.0416   31.9095   45.9666 C   0  0  0  0  0  0  0  0  0  0  0  0
   47.0007   32.5798   47.1772 C   0  0  0  0  0  0  0  0  0  0  0  0
   47.4985   31.9819   48.3250 C   0  0  0  0  0  0  0  0  0  0  0  0
   48.0410   30.7090   48.2712 C   0  0  0  0  0  0  0  0  0  0  0  0
   48.1036   29.9996   47.0835 C   0  0  0  0  0  0  0  0  0  0  0  0
   45.2026   34.3831   41.1969 C   0  0  0  0  0  0  0  0  0  0  0  0
   44.9116   35.7079   41.4538 F   0  0  0  0  0  0  0  0  0  0  0  0
   46.2764   34.3862   40.3114 F   0  0  0  0  0  0  0  0  0  0  0  0
   44.1269   33.8236   40.5828 F   0  0  0  0  0  0  0  0  0  0  0  0
   47.5146   35.1192   42.4811 O   0  0  0  0  0  0  0  0  0  0  0  0
   48.8136   35.0459   41.9521 C   0  0  0  0  0  0  0  0  0  0  0  0
   49.6949   35.2914   43.0032 F   0  0  0  0  0  0  0  0  0  0  0  0
   49.0112   33.8376   41.3542 F   0  0  0  0  0  0  0  0  0  0  0  0
   49.0116   36.1011   41.0885 F   0  0  0  0  0  0  0  0  0  0  0  0
   43.9990   32.3339   42.5697 H   0  0  0  0  0  0  0  0  0  0  0  0
   46.5779   33.5744   47.2241 H   0  0  0  0  0  0  0  0  0  0  0  0
   47.4446   32.5483   49.2545 H   0  0  0  0  0  0  0  0  0  0  0  0
   48.4071   30.3131   49.2075 H   0  0  0  0  0  0  0  0  0  0  0  0
   48.5005   28.2923   44.6552 O   0  0  0  0  0  0  0  0  0  0  0  0
   49.3293   28.2366   45.7693 C   0  0  1  0  0  0  0  0  0  0  0  0
   48.6750   28.6629   47.0352 C   0  0  2  0  0  0  0  0  0  0  0  0
   47.7081   27.6723   47.1976 O   0  0  0  0  0  0  0  0  0  0  0  0
   48.3408   26.4693   46.9393 C   0  0  0  0  0  0  0  0  0  0  0  0
   49.5351   26.7619   46.0700 C   0  0  1  0  0  0  0  0  0  0  0  0
   49.5191   25.9825   44.9060 O   0  0  0  0  0  0  0  0  0  0  0  0
   47.8072   27.6114   44.6447 H   0  0  0  0  0  0  0  0  0  0  0  0
   50.2876   28.7513   45.5631 H   0  0  0  0  0  0  0  0  0  0  0  0
   49.4055   28.5126   47.8496 H   0  0  0  0  0  0  0  0  0  0  0  0
   47.6371   25.7651   46.4489 H   0  0  0  0  0  0  0  0  0  0  0  0
   48.6323   26.0488   47.9296 H   0  0  0  0  0  0  0  0  0  0  0  0
   50.5023   26.6011   46.6285 H   0  0  0  0  0  0  0  0  0  0  0  0
   49.5574   26.6257   44.1529 H   0  0  0  0  0  0  0  0  0  0  0  0
  1  6  2  0
  2  3  2  0
  2  1  1  0
  3  4  1  0
  4  5  2  0
  5  9  1  0
  6  5  1  0
  7  8  1  0
  8 13  2  0
  9  8  1  0
  9 10  2  0
 10 11  1  0
 12 11  2  0
 13 12  1  0
 14 15  1  0
 14  2  1  0
 16 14  1  0
 17 14  1  0
 18  1  1  0
 19 18  1  0
 19 20  1  0
 21 19  1  0
 22 19  1  0
  3 23  1  0
 10 24  1  0
 11 25  1  0
 12 26  1  0
 27 28  1  0
 28 29  1  0
 29 30  1  0
 30 31  1  0
 31 32  1  0
 32 33  1  0
 32 28  1  0
 27 34  1  0
 28 35  1  6
 29 36  1  1
 31 37  1  0
 31 38  1  0
 32 39  1  1
 33 40  1  0
 13 29  1  0
M  ISO  4  23  14  24  14  25  14  26  14
M  END
>  <DihAtoms>  (1) 
7,12,28,27

>  <DihDeg>  (1) 
-90.00386282667715

$$$$
