
     RDKit          3D

 24 25  0  0  0  0  0  0  0  0999 V2000
   45.0013   35.4855   44.1871 C   0  0  0  0  0  0  0  0  0  0  0  0
   45.9784   34.9304   43.3427 C   0  0  0  0  0  0  0  0  0  0  0  0
   46.7082   33.8403   43.8352 C   0  0  0  0  0  0  0  0  0  0  0  0
   46.4420   33.3750   45.0907 N   0  0  0  0  0  0  0  0  0  0  0  0
   45.4928   33.9440   45.8618 C   0  0  0  0  0  0  0  0  0  0  0  0
   44.7839   34.9812   45.4194 N   0  0  0  0  0  0  0  0  0  0  0  0
   44.2913   36.5466   43.7071 O   0  0  0  0  0  0  0  0  0  0  0  0
   46.2046   35.2799   42.3522 H   0  0  0  0  0  0  0  0  0  0  0  0
   45.3360   33.5179   46.8541 H   0  0  0  0  0  0  0  0  0  0  0  0
   44.7777   37.2351   43.1450 H   0  0  0  0  0  0  0  0  0  0  0  0
   48.7204   31.6990   44.7959 O   0  0  0  0  0  0  0  0  0  0  0  0
   48.0436   31.7369   43.5889 C   0  0  1  0  0  0  0  0  0  0  0  0
   47.7551   33.1423   43.1020 C   0  0  1  0  0  0  0  0  0  0  0  0
   47.3920   32.8773   41.7853 O   0  0  0  0  0  0  0  0  0  0  0  0
   48.3384   32.0103   41.2786 C   0  0  0  0  0  0  0  0  0  0  0  0
   48.9392   31.2613   42.4388 C   0  0  2  0  0  0  0  0  0  0  0  0
   48.8903   29.8899   42.2894 O   0  0  0  0  0  0  0  0  0  0  0  0
   48.4244   30.9336   45.3805 H   0  0  0  0  0  0  0  0  0  0  0  0
   47.0878   31.2013   43.5741 H   0  0  0  0  0  0  0  0  0  0  0  0
   48.7395   33.6602   43.0659 H   0  0  0  0  0  0  0  0  0  0  0  0
   47.9257   31.3327   40.4888 H   0  0  0  0  0  0  0  0  0  0  0  0
   49.1129   32.6611   40.7765 H   0  0  0  0  0  0  0  0  0  0  0  0
   49.9506   31.6603   42.6150 H   0  0  0  0  0  0  0  0  0  0  0  0
   49.7589   29.4597   42.5176 H   0  0  0  0  0  0  0  0  0  0  0  0
  1  6  2  0
  2  3  2  0
  2  1  1  0
  3  4  1  0
  4  5  2  0
  6  5  1  0
  7  1  1  0
  2  8  1  0
  5  9  1  0
  7 10  1  0
 11 12  1  0
 12 13  1  0
 13 14  1  0
 14 15  1  0
 15 16  1  0
 16 17  1  0
 16 12  1  0
 11 18  1  0
 12 19  1  1
 13 20  1  6
 15 21  1  0
 15 22  1  0
 16 23  1  1
 17 24  1  0
  3 13  1  0
M  ISO  3   8  14   9  14  10   3
M  END
>  <DihAtoms>  (1) 
1,2,12,11

>  <DihDeg>  (1) 
21.352162942984876

$$$$
