
     RDKit          3D

 46 50  0  0  0  0  0  0  0  0999 V2000
   45.5083   35.3340   42.7917 O   0  0  0  0  0  0  0  0  0  0  0  0
   44.5883   35.0156   41.7997 C   0  0  0  0  0  0  0  0  0  0  0  0
   44.7993   34.2154   40.7075 C   0  0  0  0  0  0  0  0  0  0  0  0
   43.7838   33.9924   39.8066 C   0  0  0  0  0  0  0  0  0  0  0  0
   42.5276   34.5521   39.9550 C   0  0  0  0  0  0  0  0  0  0  0  0
   41.5779   34.3037   39.0524 N   0  0  0  0  0  0  0  0  0  0  0  0
   40.3499   34.8278   39.1627 C   0  0  0  0  0  0  0  0  0  0  0  0
   40.1016   35.6351   40.2449 C   0  0  0  0  0  0  0  0  0  0  0  0
   41.0844   35.9088   41.2042 C   0  0  0  0  0  0  0  0  0  0  0  0
   42.3310   35.3545   41.0586 C   0  0  0  0  0  0  0  0  0  0  0  0
   43.3432   35.5976   41.9881 C   0  0  0  0  0  0  0  0  0  0  0  0
   44.9343   34.8523   45.1329 C   0  0  0  0  0  0  0  0  0  0  0  0
   45.6689   34.6335   43.9739 C   0  0  0  0  0  0  0  0  0  0  0  0
   46.6460   33.6224   44.0166 C   0  0  0  0  0  0  0  0  0  0  0  0
   46.8084   32.9396   45.1558 N   0  0  0  0  0  0  0  0  0  0  0  0
   46.0866   33.1678   46.2656 C   0  0  0  0  0  0  0  0  0  0  0  0
   45.1389   34.1440   46.2343 N   0  0  0  0  0  0  0  0  0  0  0  0
   46.2315   32.4508   47.5193 C   0  0  0  0  0  0  0  0  0  0  0  0
   45.1149   31.9669   48.2153 C   0  0  0  0  0  0  0  0  0  0  0  0
   45.6033   31.3375   49.3604 C   0  0  0  0  0  0  0  0  0  0  0  0
   46.9474   31.4464   49.3387 N   0  0  0  0  0  0  0  0  0  0  0  0
   47.2835   32.1109   48.2350 N   0  0  0  0  0  0  0  0  0  0  0  0
   45.7904   33.7901   40.6150 H   0  0  0  0  0  0  0  0  0  0  0  0
   44.0323   33.3521   38.9768 H   0  0  0  0  0  0  0  0  0  0  0  0
   39.6545   34.5717   38.3896 H   0  0  0  0  0  0  0  0  0  0  0  0
   39.1286   36.0605   40.3476 H   0  0  0  0  0  0  0  0  0  0  0  0
   40.8535   36.5538   42.0510 H   0  0  0  0  0  0  0  0  0  0  0  0
   43.0924   36.2385   42.8175 H   0  0  0  0  0  0  0  0  0  0  0  0
   44.1758   35.6410   45.0917 H   0  0  0  0  0  0  0  0  0  0  0  0
   47.2507   33.3958   43.1646 H   0  0  0  0  0  0  0  0  0  0  0  0
   44.0586   32.0517   47.9386 H   0  0  0  0  0  0  0  0  0  0  0  0
   45.0000   30.8496   50.1267 H   0  0  0  0  0  0  0  0  0  0  0  0
   48.2398   28.7276   49.4368 O   0  0  0  0  0  0  0  0  0  0  0  0
   48.8189   29.9512   49.6716 C   0  0  1  0  0  0  0  0  0  0  0  0
   47.8640   30.9320   50.3385 C   0  0  1  0  0  0  0  0  0  0  0  0
   48.7462   31.9169   50.7716 O   0  0  0  0  0  0  0  0  0  0  0  0
   49.8412   31.2614   51.3117 C   0  0  0  0  0  0  0  0  0  0  0  0
   49.9921   29.9414   50.5950 C   0  0  1  0  0  0  0  0  0  0  0  0
   49.9063   28.8387   51.4102 O   0  0  0  0  0  0  0  0  0  0  0  0
   48.7003   28.3254   48.6517 H   0  0  0  0  0  0  0  0  0  0  0  0
   49.1328   30.4614   48.7140 H   0  0  0  0  0  0  0  0  0  0  0  0
   47.3721   30.3853   51.1558 H   0  0  0  0  0  0  0  0  0  0  0  0
   49.7349   31.0308   52.3893 H   0  0  0  0  0  0  0  0  0  0  0  0
   50.7765   31.8345   51.1589 H   0  0  0  0  0  0  0  0  0  0  0  0
   50.9652   29.8601   50.0355 H   0  0  0  0  0  0  0  0  0  0  0  0
   49.2763   28.9537   52.1404 H   0  0  0  0  0  0  0  0  0  0  0  0
  1 13  1  0
  2 11  1  0
  2  1  1  0
  3  2  2  0
  4  5  2  0
  4  3  1  0
  5 10  1  0
  6  7  2  0
  6  5  1  0
  7  8  1  0
  8  9  2  0
 10  9  1  0
 10 11  2  0
 12 17  2  0
 13 14  2  0
 13 12  1  0
 14 15  1  0
 15 16  2  0
 16 18  1  0
 17 16  1  0
 18 19  1  0
 18 22  2  0
 19 20  2  0
 21 20  1  0
 22 21  1  0
  3 23  1  0
  4 24  1  0
  7 25  1  0
  8 26  1  0
  9 27  1  0
 11 28  1  0
 12 29  1  0
 14 30  1  0
 19 31  1  0
 20 32  1  0
 33 34  1  0
 34 35  1  0
 35 36  1  0
 36 37  1  0
 37 38  1  0
 38 39  1  0
 38 34  1  0
 33 40  1  0
 34 41  1  6
 35 42  1  1
 37 43  1  0
 37 44  1  0
 38 45  1  6
 39 46  1  0
 21 35  1  0
M  ISO  8  23  14  24  14  25  14  26  14  27  14  28  14  29  14  30  14
M  ISO  2  31  14  32  14
M  END
>  <DihAtoms>  (1) 
19,20,34,33

>  <DihDeg>  (1) 
165.65234511644226

$$$$
