
 OpenBabel03252507053D

 47 50  0  0  1  0  0  0  0  0999 V2000
   39.2650   28.9740   41.0280 C   0  0  0  0  0  0  0  0  0  0  0  0
   40.0830   29.7260   41.0680 H   0  0  0  0  0  0  0  0  0  0  0  0
   39.7900   28.0390   40.6330 H   0  0  0  0  0  0  0  0  0  0  0  0
   38.2330   29.3790   40.2960 N   0  0  0  0  0  0  0  0  0  0  0  0
   37.5650   28.7380   39.2380 C   0  0  0  0  0  0  0  0  0  0  0  0
   36.2770   28.3310   39.9940 C   0  0  0  0  0  0  0  0  0  0  0  0
   35.5300   29.4750   40.4870 C   0  0  0  0  0  0  0  0  0  0  0  0
   36.2120   30.7220   40.7580 C   0  0  0  0  0  0  0  0  0  0  0  0
   37.7110   30.7110   40.6830 C   0  0  0  0  0  0  0  0  0  0  0  0
   37.3730   29.2530   38.3130 H   0  0  0  0  0  0  0  0  0  0  0  0
   38.0780   27.7790   38.9700 H   0  0  0  0  0  0  0  0  0  0  0  0
   36.5580   27.6090   40.7780 H   0  0  0  0  0  0  0  0  0  0  0  0
   35.7020   27.7390   39.2230 H   0  0  0  0  0  0  0  0  0  0  0  0
   34.9770   29.1810   41.4260 H   0  0  0  0  0  0  0  0  0  0  0  0
   34.6900   29.6950   39.7640 H   0  0  0  0  0  0  0  0  0  0  0  0
   35.7860   31.6510   41.0270 H   0  0  0  0  0  0  0  0  0  0  0  0
   38.6570   32.1430   41.0670 S   0  0  0  0  0  0  0  0  0  0  0  0
   39.2180   34.6430   40.2540 C   0  0  2  0  0  3  0  0  0  0  0  0
   38.7620   33.3110   39.6960 C   0  0  1  0  0  3  0  0  0  0  0  0
   39.7700   32.9030   38.8370 O   0  0  0  0  0  0  0  0  0  0  0  0
   40.9180   33.1210   39.6280 C   0  0  0  0  0  2  0  0  0  0  0  0
   40.7170   34.5520   40.1410 C   0  0  2  0  0  3  0  0  0  0  0  0
   38.8450   34.7230   41.5980 O   0  0  0  0  0  0  0  0  0  0  0  0
   39.5750   34.2840   42.1240 H   0  0  0  0  0  0  0  0  0  0  0  0
   41.3460   34.6940   41.3680 O   0  0  0  0  0  0  0  0  0  0  0  0
   42.1890   34.1670   41.3890 H   0  0  0  0  0  0  0  0  0  0  0  0
   38.9010   28.6190   42.4270 C   0  0  0  0  0  0  0  0  0  0  0  0
   37.8490   28.8890   42.6380 H   0  0  0  0  0  0  0  0  0  0  0  0
   39.5540   29.2000   43.1260 H   0  0  0  0  0  0  0  0  0  0  0  0
   39.0960   27.1700   42.6020 C   0  0  0  0  0  0  0  0  0  0  0  0
   39.9480   26.6930   43.5710 C   0  0  0  0  0  0  0  0  0  0  0  0
   40.1100   25.3220   43.6930 C   0  0  0  0  0  0  0  0  0  0  0  0
   39.4090   24.5090   42.8400 N   0  0  0  0  0  0  0  0  0  0  0  0
   38.5940   25.0090   41.9170 C   0  0  0  0  0  0  0  0  0  0  0  0
   38.4570   26.3310   41.8190 N   0  0  0  0  0  0  0  0  0  0  0  0
   40.5570   27.1590   44.3270 H   0  0  0  0  0  0  0  0  0  0  0  0
   40.7340   24.7730   44.3900 H   0  0  0  0  0  0  0  0  0  0  0  0
   37.8700   24.0650   41.0670 C   0  0  0  0  0  0  0  0  0  0  0  0
   36.5810   24.3500   40.6300 C   0  0  0  0  0  0  0  0  0  0  0  0
   35.8970   23.4620   39.8370 C   0  0  0  0  0  0  0  0  0  0  0  0
   36.6030   22.3090   39.5420 C   0  0  0  0  0  0  0  0  0  0  0  0
   37.8910   21.9740   39.9530 C   0  0  0  0  0  0  0  0  0  0  0  0
   38.4900   22.9100   40.7310 N   0  0  0  0  0  0  0  0  0  0  0  0
   36.0780   25.2850   40.9020 H   0  0  0  0  0  0  0  0  0  0  0  0
   34.9090   23.5910   39.4540 H   0  0  0  0  0  0  0  0  0  0  0  0
   36.1140   21.5590   38.9150 H   0  0  0  0  0  0  0  0  0  0  0  0
   38.3390   21.0580   39.6660 H   0  0  0  0  0  0  0  0  0  0  0  0
  1  2  1  0  0  0  0
  1 27  1  0  0  0  0
  3  1  1  0  0  0  0
  4  9  1  0  0  0  0
  4  1  1  0  0  0  0
  5  6  1  0  0  0  0
  5  4  1  0  0  0  0
  6  7  1  0  0  0  0
  6 12  1  0  0  0  0
  7  8  1  0  0  0  0
  7 14  1  0  0  0  0
  8 16  1  0  0  0  0
  9  8  2  0  0  0  0
  9 17  1  0  0  0  0
 10  5  1  0  0  0  0
 11  5  1  0  0  0  0
 13  6  1  0  0  0  0
 15  7  1  0  0  0  0
 18 23  1  1  0  0  0
 19 18  1  0  0  0  0
 19 17  1  1  0  0  0
 20 21  1  0  0  0  0
 20 19  1  0  0  0  0
 21 22  1  0  0  0  0
 22 18  1  0  0  0  0
 22 25  1  1  0  0  0
 23 24  1  0  0  0  0
 25 26  1  0  0  0  0
 27 30  1  0  0  0  0
 27 28  1  0  0  0  0
 27 29  1  0  0  0  0
 30 31  1  0  0  0  0
 31 32  2  0  0  0  0
 31 36  1  0  0  0  0
 32 37  1  0  0  0  0
 33 32  1  0  0  0  0
 34 33  2  0  0  0  0
 35 34  1  0  0  0  0
 35 30  2  0  0  0  0
 38 34  1  0  0  0  0
 39 44  1  0  0  0  0
 39 38  2  0  0  0  0
 40 39  1  0  0  0  0
 41 40  2  0  0  0  0
 41 42  1  0  0  0  0
 42 43  2  0  0  0  0
 43 38  1  0  0  0  0
 45 40  1  0  0  0  0
 46 41  1  0  0  0  0
 47 42  1  0  0  0  0
M  END
>  <minimizedAffinity>
-6.5586381

$$$$

 OpenBabel03252507053D

 47 50  0  0  1  0  0  0  0  0999 V2000
   38.0650   26.5060   42.0030 C   0  0  0  0  0  0  0  0  0  0  0  0
   38.5670   26.2820   41.0360 H   0  0  0  0  0  0  0  0  0  0  0  0
   37.1310   27.0810   41.6850 H   0  0  0  0  0  0  0  0  0  0  0  0
   38.8550   27.1580   42.8500 N   0  0  0  0  0  0  0  0  0  0  0  0
   39.5880   26.6850   43.9520 C   0  0  0  0  0  0  0  0  0  0  0  0
   41.0020   26.7290   43.3220 C   0  0  0  0  0  0  0  0  0  0  0  0
   41.4060   28.0720   42.9430 C   0  0  0  0  0  0  0  0  0  0  0  0
   40.4040   29.0700   42.6390 C   0  0  0  0  0  0  0  0  0  0  0  0
   38.9790   28.6060   42.5580 C   0  0  0  0  0  0  0  0  0  0  0  0
   39.5310   27.1780   44.9070 H   0  0  0  0  0  0  0  0  0  0  0  0
   39.3700   25.6020   44.1380 H   0  0  0  0  0  0  0  0  0  0  0  0
   41.0250   26.0040   42.4920 H   0  0  0  0  0  0  0  0  0  0  0  0
   41.6580   26.2920   44.1300 H   0  0  0  0  0  0  0  0  0  0  0  0
   42.1050   28.0130   42.0570 H   0  0  0  0  0  0  0  0  0  0  0  0
   42.0710   28.4900   43.7550 H   0  0  0  0  0  0  0  0  0  0  0  0
   40.5500   30.0990   42.4430 H   0  0  0  0  0  0  0  0  0  0  0  0
   37.6800   29.7080   42.1200 S   0  0  0  0  0  0  0  0  0  0  0  0
   36.2330   30.7160   40.0920 C   0  0  2  0  0  3  0  0  0  0  0  0
   37.2240   29.6070   40.3770 C   0  0  1  0  0  3  0  0  0  0  0  0
   38.3380   29.8970   39.6060 O   0  0  0  0  0  0  0  0  0  0  0  0
   38.5240   31.2670   39.8860 C   0  0  0  0  0  2  0  0  0  0  0  0
   37.1240   31.8560   39.6760 C   0  0  2  0  0  3  0  0  0  0  0  0
   35.5630   31.0410   41.2750 O   0  0  0  0  0  0  0  0  0  0  0  0
   36.1350   31.7120   41.7510 H   0  0  0  0  0  0  0  0  0  0  0  0
   36.9660   32.9700   40.4850 O   0  0  0  0  0  0  0  0  0  0  0  0
   37.8200   33.4750   40.5510 H   0  0  0  0  0  0  0  0  0  0  0  0
   37.5340   25.2270   42.5490 C   0  0  0  0  0  0  0  0  0  0  0  0
   36.5720   25.3940   43.0690 H   0  0  0  0  0  0  0  0  0  0  0  0
   38.2650   24.8240   43.2950 H   0  0  0  0  0  0  0  0  0  0  0  0
   37.3470   24.2890   41.4300 C   0  0  0  0  0  0  0  0  0  0  0  0
   38.3720   23.4600   41.0370 C   0  0  0  0  0  0  0  0  0  0  0  0
   38.1570   22.6000   39.9710 C   0  0  0  0  0  0  0  0  0  0  0  0
   36.9290   22.6200   39.3620 N   0  0  0  0  0  0  0  0  0  0  0  0
   35.9630   23.4350   39.7720 C   0  0  0  0  0  0  0  0  0  0  0  0
   36.1960   24.2540   40.7980 N   0  0  0  0  0  0  0  0  0  0  0  0
   39.3750   23.2900   41.3920 H   0  0  0  0  0  0  0  0  0  0  0  0
   38.8420   21.8860   39.5280 H   0  0  0  0  0  0  0  0  0  0  0  0
   34.6790   23.3710   39.0780 C   0  0  0  0  0  0  0  0  0  0  0  0
   34.4800   24.0630   37.8890 C   0  0  0  0  0  0  0  0  0  0  0  0
   33.2720   24.0090   37.2390 C   0  0  0  0  0  0  0  0  0  0  0  0
   32.3230   23.2260   37.8740 C   0  0  0  0  0  0  0  0  0  0  0  0
   32.4690   22.5140   39.0620 C   0  0  0  0  0  0  0  0  0  0  0  0
   33.6950   22.6250   39.6330 N   0  0  0  0  0  0  0  0  0  0  0  0
   35.2750   24.6670   37.4390 H   0  0  0  0  0  0  0  0  0  0  0  0
   33.0250   24.5050   36.3260 H   0  0  0  0  0  0  0  0  0  0  0  0
   31.3390   23.1420   37.4090 H   0  0  0  0  0  0  0  0  0  0  0  0
   31.6720   21.9420   39.4610 H   0  0  0  0  0  0  0  0  0  0  0  0
  1 27  1  0  0  0  0
  1  4  1  0  0  0  0
  2  1  1  0  0  0  0
  3  1  1  0  0  0  0
  4  5  1  0  0  0  0
  5 11  1  0  0  0  0
  5 10  1  0  0  0  0
  6  5  1  0  0  0  0
  6 13  1  0  0  0  0
  7  6  1  0  0  0  0
  7 15  1  0  0  0  0
  8  7  1  0  0  0  0
  9  8  2  0  0  0  0
  9  4  1  0  0  0  0
 12  6  1  0  0  0  0
 14  7  1  0  0  0  0
 16  8  1  0  0  0  0
 17  9  1  0  0  0  0
 18 19  1  0  0  0  0
 18 23  1  1  0  0  0
 19 17  1  1  0  0  0
 20 21  1  0  0  0  0
 20 19  1  0  0  0  0
 22 21  1  0  0  0  0
 22 18  1  0  0  0  0
 22 25  1  1  0  0  0
 23 24  1  0  0  0  0
 25 26  1  0  0  0  0
 27 28  1  0  0  0  0
 27 29  1  0  0  0  0
 30 27  1  0  0  0  0
 31 36  1  0  0  0  0
 31 30  1  0  0  0  0
 32 31  2  0  0  0  0
 33 34  2  0  0  0  0
 33 32  1  0  0  0  0
 34 35  1  0  0  0  0
 35 30  2  0  0  0  0
 37 32  1  0  0  0  0
 38 43  1  0  0  0  0
 38 34  1  0  0  0  0
 39 38  2  0  0  0  0
 40 41  2  0  0  0  0
 40 39  1  0  0  0  0
 41 42  1  0  0  0  0
 42 47  1  0  0  0  0
 42 43  2  0  0  0  0
 44 39  1  0  0  0  0
 45 40  1  0  0  0  0
 46 41  1  0  0  0  0
M  END
>  <minimizedAffinity>
-6.1846261

$$$$

 OpenBabel03252507053D

 47 50  0  0  1  0  0  0  0  0999 V2000
   35.4450   29.0680   38.7690 C   0  0  0  0  0  0  0  0  0  0  0  0
   34.6320   29.7290   38.3940 H   0  0  0  0  0  0  0  0  0  0  0  0
   35.1900   28.9440   39.8760 H   0  0  0  0  0  0  0  0  0  0  0  0
   36.6560   29.5620   38.5330 N   0  0  0  0  0  0  0  0  0  0  0  0
   37.4720   29.4510   37.3940 C   0  0  0  0  0  0  0  0  0  0  0  0
   37.2850   30.8840   36.8380 C   0  0  0  0  0  0  0  0  0  0  0  0
   37.7680   31.9070   37.7490 C   0  0  0  0  0  0  0  0  0  0  0  0
   37.8250   31.6410   39.1700 C   0  0  0  0  0  0  0  0  0  0  0  0
   37.2040   30.3620   39.6520 C   0  0  0  0  0  0  0  0  0  0  0  0
   38.5040   29.1580   37.4800 H   0  0  0  0  0  0  0  0  0  0  0  0
   37.0070   28.7670   36.6380 H   0  0  0  0  0  0  0  0  0  0  0  0
   36.2260   31.0010   36.5550 H   0  0  0  0  0  0  0  0  0  0  0  0
   37.8620   30.8620   35.8680 H   0  0  0  0  0  0  0  0  0  0  0  0
   37.1610   32.8480   37.6050 H   0  0  0  0  0  0  0  0  0  0  0  0
   38.8000   32.2250   37.4180 H   0  0  0  0  0  0  0  0  0  0  0  0
   38.2370   32.2500   39.9290 H   0  0  0  0  0  0  0  0  0  0  0  0
   37.1420   29.9630   41.3640 S   0  0  0  0  0  0  0  0  0  0  0  0
   38.0740   28.3230   43.2790 C   0  0  2  0  0  3  0  0  0  0  0  0
   38.3570   28.7180   41.8450 C   0  0  1  0  0  3  0  0  0  0  0  0
   38.1440   27.5720   41.0950 O   0  0  0  0  0  0  0  0  0  0  0  0
   36.9050   27.1310   41.6040 C   0  0  0  0  0  2  0  0  0  0  0  0
   37.1210   27.1680   43.1210 C   0  0  2  0  0  3  0  0  0  0  0  0
   37.4340   29.3850   43.9240 O   0  0  0  0  0  0  0  0  0  0  0  0
   36.4560   29.2870   43.7330 H   0  0  0  0  0  0  0  0  0  0  0  0
   35.9090   27.3960   43.7550 O   0  0  0  0  0  0  0  0  0  0  0  0
   35.1730   26.9370   43.2700 H   0  0  0  0  0  0  0  0  0  0  0  0
   35.2310   27.7120   38.1940 C   0  0  0  0  0  0  0  0  0  0  0  0
   35.1330   26.9580   38.9980 H   0  0  0  0  0  0  0  0  0  0  0  0
   36.1220   27.4410   37.5730 H   0  0  0  0  0  0  0  0  0  0  0  0
   34.0060   27.7430   37.3790 C   0  0  0  0  0  0  0  0  0  0  0  0
   33.5810   26.6150   36.7150 C   0  0  0  0  0  0  0  0  0  0  0  0
   32.4290   26.6920   35.9490 C   0  0  0  0  0  0  0  0  0  0  0  0
   31.7680   27.8930   35.8930 N   0  0  0  0  0  0  0  0  0  0  0  0
   32.2110   28.9600   36.5490 C   0  0  0  0  0  0  0  0  0  0  0  0
   33.3230   28.8600   37.2780 N   0  0  0  0  0  0  0  0  0  0  0  0
   33.9440   25.6030   36.6520 H   0  0  0  0  0  0  0  0  0  0  0  0
   31.9510   25.9140   35.3630 H   0  0  0  0  0  0  0  0  0  0  0  0
   31.4290   30.1910   36.4500 C   0  0  0  0  0  0  0  0  0  0  0  0
   30.6530   30.6260   37.5180 C   0  0  0  0  0  0  0  0  0  0  0  0
   29.9120   31.7780   37.4230 C   0  0  0  0  0  0  0  0  0  0  0  0
   30.0230   32.4220   36.2030 C   0  0  0  0  0  0  0  0  0  0  0  0
   30.7830   32.0310   35.1030 C   0  0  0  0  0  0  0  0  0  0  0  0
   31.4810   30.8830   35.2870 N   0  0  0  0  0  0  0  0  0  0  0  0
   30.6090   30.0670   38.4590 H   0  0  0  0  0  0  0  0  0  0  0  0
   29.2880   32.1910   38.1850 H   0  0  0  0  0  0  0  0  0  0  0  0
   29.4570   33.3460   36.0620 H   0  0  0  0  0  0  0  0  0  0  0  0
   30.7950   32.6030   34.2120 H   0  0  0  0  0  0  0  0  0  0  0  0
  1  3  1  0  0  0  0
  2  1  1  0  0  0  0
  4  1  1  0  0  0  0
  4  9  1  0  0  0  0
  5 10  1  0  0  0  0
  5  4  1  0  0  0  0
  6  5  1  0  0  0  0
  6  7  1  0  0  0  0
  7  8  1  0  0  0  0
  8  9  2  0  0  0  0
  8 16  1  0  0  0  0
  9 17  1  0  0  0  0
 11  5  1  0  0  0  0
 12  6  1  0  0  0  0
 13  6  1  0  0  0  0
 14  7  1  0  0  0  0
 15  7  1  0  0  0  0
 18 23  1  1  0  0  0
 19 17  1  6  0  0  0
 19 18  1  0  0  0  0
 20 21  1  0  0  0  0
 20 19  1  0  0  0  0
 21 22  1  0  0  0  0
 22 18  1  0  0  0  0
 22 25  1  1  0  0  0
 24 23  1  0  0  0  0
 26 25  1  0  0  0  0
 27  1  1  0  0  0  0
 27 28  1  0  0  0  0
 29 27  1  0  0  0  0
 30 27  1  0  0  0  0
 31 30  2  0  0  0  0
 32 31  1  0  0  0  0
 33 32  2  0  0  0  0
 33 34  1  0  0  0  0
 34 35  2  0  0  0  0
 35 30  1  0  0  0  0
 36 31  1  0  0  0  0
 37 32  1  0  0  0  0
 38 34  1  0  0  0  0
 38 39  1  0  0  0  0
 39 44  1  0  0  0  0
 40 39  2  0  0  0  0
 40 45  1  0  0  0  0
 41 40  1  0  0  0  0
 42 43  1  0  0  0  0
 42 41  2  0  0  0  0
 43 38  2  0  0  0  0
 46 41  1  0  0  0  0
 47 42  1  0  0  0  0
M  END
>  <minimizedAffinity>
-6.18148041

$$$$

 OpenBabel03252507053D

 47 50  0  0  1  0  0  0  0  0999 V2000
   37.9270   30.3600   38.8470 C   0  0  0  0  0  0  0  0  0  0  0  0
   38.3390   29.3300   38.7770 H   0  0  0  0  0  0  0  0  0  0  0  0
   38.5350   30.9370   38.0710 H   0  0  0  0  0  0  0  0  0  0  0  0
   37.9900   30.8550   40.0790 N   0  0  0  0  0  0  0  0  0  0  0  0
   36.9920   30.9660   41.0620 C   0  0  0  0  0  0  0  0  0  0  0  0
   37.4610   29.8220   41.9940 C   0  0  0  0  0  0  0  0  0  0  0  0
   38.7860   30.0530   42.5430 C   0  0  0  0  0  0  0  0  0  0  0  0
   39.7260   30.8930   41.8340 C   0  0  0  0  0  0  0  0  0  0  0  0
   39.3360   31.3460   40.4570 C   0  0  0  0  0  0  0  0  0  0  0  0
   36.8260   31.8960   41.5780 H   0  0  0  0  0  0  0  0  0  0  0  0
   35.9990   30.6430   40.6570 H   0  0  0  0  0  0  0  0  0  0  0  0
   37.3650   28.8740   41.4400 H   0  0  0  0  0  0  0  0  0  0  0  0
   36.6620   29.7950   42.7910 H   0  0  0  0  0  0  0  0  0  0  0  0
   39.2910   29.0590   42.7250 H   0  0  0  0  0  0  0  0  0  0  0  0
   38.6750   30.4680   43.5870 H   0  0  0  0  0  0  0  0  0  0  0  0
   40.6780   31.2200   42.1580 H   0  0  0  0  0  0  0  0  0  0  0  0
   40.4260   32.3060   39.4660 S   0  0  0  0  0  0  0  0  0  0  0  0
   41.5800   31.8520   37.0810 C   0  0  2  0  0  3  0  0  0  0  0  0
   41.5660   31.3020   38.4920 C   0  0  1  0  0  3  0  0  0  0  0  0
   42.8510   31.4890   38.9760 O   0  0  0  0  0  0  0  0  0  0  0  0
   43.0960   32.8300   38.6100 C   0  0  0  0  0  2  0  0  0  0  0  0
   42.6930   32.8640   37.1320 C   0  0  2  0  0  3  0  0  0  0  0  0
   40.3630   32.4930   36.8320 O   0  0  0  0  0  0  0  0  0  0  0  0
   40.4610   33.4310   37.1690 H   0  0  0  0  0  0  0  0  0  0  0  0
   42.2610   34.1390   36.8010 O   0  0  0  0  0  0  0  0  0  0  0  0
   42.7920   34.8220   37.2890 H   0  0  0  0  0  0  0  0  0  0  0  0
   36.5490   30.3400   38.2830 C   0  0  0  0  0  0  0  0  0  0  0  0
   36.5180   30.8590   37.3070 H   0  0  0  0  0  0  0  0  0  0  0  0
   35.8670   30.8820   38.9850 H   0  0  0  0  0  0  0  0  0  0  0  0
   36.1370   28.9360   38.1220 C   0  0  0  0  0  0  0  0  0  0  0  0
   35.3300   28.5620   37.0720 C   0  0  0  0  0  0  0  0  0  0  0  0
   34.9570   27.2320   36.9640 C   0  0  0  0  0  0  0  0  0  0  0  0
   35.4140   26.3530   37.9130 N   0  0  0  0  0  0  0  0  0  0  0  0
   36.1930   26.7530   38.9120 C   0  0  0  0  0  0  0  0  0  0  0  0
   36.5360   28.0380   38.9940 N   0  0  0  0  0  0  0  0  0  0  0  0
   34.8950   29.0880   36.2380 H   0  0  0  0  0  0  0  0  0  0  0  0
   34.3320   26.7620   36.2130 H   0  0  0  0  0  0  0  0  0  0  0  0
   36.6510   25.7420   39.8630 C   0  0  0  0  0  0  0  0  0  0  0  0
   37.0500   26.1030   41.1450 C   0  0  0  0  0  0  0  0  0  0  0  0
   37.4880   25.1560   42.0370 C   0  0  0  0  0  0  0  0  0  0  0  0
   37.4860   23.8650   41.5360 C   0  0  0  0  0  0  0  0  0  0  0  0
   37.0970   23.4490   40.2650 C   0  0  0  0  0  0  0  0  0  0  0  0
   36.6800   24.4520   39.4530 N   0  0  0  0  0  0  0  0  0  0  0  0
   37.0280   27.1470   41.4780 H   0  0  0  0  0  0  0  0  0  0  0  0
   37.8140   25.3360   43.0370 H   0  0  0  0  0  0  0  0  0  0  0  0
   37.8240   23.0630   42.1960 H   0  0  0  0  0  0  0  0  0  0  0  0
   37.1360   22.4280   39.9850 H   0  0  0  0  0  0  0  0  0  0  0  0
  1  4  1  0  0  0  0
  2  1  1  0  0  0  0
  3  1  1  0  0  0  0
  4  9  1  0  0  0  0
  4  5  1  0  0  0  0
  5 10  1  0  0  0  0
  5  6  1  0  0  0  0
  6  7  1  0  0  0  0
  6 13  1  0  0  0  0
  7 14  1  0  0  0  0
  7 15  1  0  0  0  0
  8 16  1  0  0  0  0
  8  7  1  0  0  0  0
  9  8  2  0  0  0  0
 11  5  1  0  0  0  0
 12  6  1  0  0  0  0
 17  9  1  0  0  0  0
 18 23  1  1  0  0  0
 18 22  1  0  0  0  0
 18 19  1  0  0  0  0
 19 20  1  0  0  0  0
 19 17  1  1  0  0  0
 21 20  1  0  0  0  0
 22 25  1  1  0  0  0
 22 21  1  0  0  0  0
 23 24  1  0  0  0  0
 25 26  1  0  0  0  0
 27  1  1  0  0  0  0
 27 29  1  0  0  0  0
 28 27  1  0  0  0  0
 30 27  1  0  0  0  0
 30 35  1  0  0  0  0
 31 30  2  0  0  0  0
 32 31  1  0  0  0  0
 32 33  2  0  0  0  0
 33 34  1  0  0  0  0
 34 35  2  0  0  0  0
 34 38  1  0  0  0  0
 36 31  1  0  0  0  0
 37 32  1  0  0  0  0
 38 39  1  0  0  0  0
 39 44  1  0  0  0  0
 39 40  2  0  0  0  0
 40 45  1  0  0  0  0
 41 40  1  0  0  0  0
 41 46  1  0  0  0  0
 42 41  2  0  0  0  0
 43 38  2  0  0  0  0
 43 42  1  0  0  0  0
 47 42  1  0  0  0  0
M  END
>  <minimizedAffinity>
-6.16717196

$$$$

 OpenBabel03252507053D

 47 50  0  0  1  0  0  0  0  0999 V2000
   39.2350   29.3880   39.1240 C   0  0  0  0  0  0  0  0  0  0  0  0
   40.1050   29.4100   38.4310 H   0  0  0  0  0  0  0  0  0  0  0  0
   38.8600   28.3120   39.0380 H   0  0  0  0  0  0  0  0  0  0  0  0
   38.3270   30.3140   38.8340 N   0  0  0  0  0  0  0  0  0  0  0  0
   36.9310   30.2060   38.7100 C   0  0  0  0  0  0  0  0  0  0  0  0
   36.5300   30.8890   40.0400 C   0  0  0  0  0  0  0  0  0  0  0  0
   36.9580   32.2750   40.1110 C   0  0  0  0  0  0  0  0  0  0  0  0
   38.0970   32.7200   39.3380 C   0  0  0  0  0  0  0  0  0  0  0  0
   38.8970   31.6670   38.6290 C   0  0  0  0  0  0  0  0  0  0  0  0
   36.4200   30.6080   37.8520 H   0  0  0  0  0  0  0  0  0  0  0  0
   36.6060   29.1380   38.8050 H   0  0  0  0  0  0  0  0  0  0  0  0
   36.9020   30.2630   40.8680 H   0  0  0  0  0  0  0  0  0  0  0  0
   35.4060   30.7830   40.0560 H   0  0  0  0  0  0  0  0  0  0  0  0
   37.1530   32.5490   41.1890 H   0  0  0  0  0  0  0  0  0  0  0  0
   36.0830   32.9360   39.8430 H   0  0  0  0  0  0  0  0  0  0  0  0
   38.4580   33.7080   39.2220 H   0  0  0  0  0  0  0  0  0  0  0  0
   40.3470   32.0730   37.7220 S   0  0  0  0  0  0  0  0  0  0  0  0
   42.9980   32.4990   37.8560 C   0  0  2  0  0  3  0  0  0  0  0  0
   41.8190   32.2000   38.7580 C   0  0  1  0  0  3  0  0  0  0  0  0
   41.6910   33.3060   39.5830 O   0  0  0  0  0  0  0  0  0  0  0  0
   41.7750   34.3620   38.6500 C   0  0  0  0  0  2  0  0  0  0  0  0
   43.0230   34.0040   37.8350 C   0  0  2  0  0  3  0  0  0  0  0  0
   42.7260   32.0080   36.5770 O   0  0  0  0  0  0  0  0  0  0  0  0
   42.2140   32.7240   36.0990 H   0  0  0  0  0  0  0  0  0  0  0  0
   42.8970   34.5140   36.5520 O   0  0  0  0  0  0  0  0  0  0  0  0
   42.4300   35.3910   36.5710 H   0  0  0  0  0  0  0  0  0  0  0  0
   39.7560   29.4780   40.5150 C   0  0  0  0  0  0  0  0  0  0  0  0
   39.6120   30.4970   40.9210 H   0  0  0  0  0  0  0  0  0  0  0  0
   40.8550   29.2640   40.5000 H   0  0  0  0  0  0  0  0  0  0  0  0
   39.0360   28.4970   41.3430 C   0  0  0  0  0  0  0  0  0  0  0  0
   38.7250   28.7830   42.6520 C   0  0  0  0  0  0  0  0  0  0  0  0
   38.0560   27.8260   43.3980 C   0  0  0  0  0  0  0  0  0  0  0  0
   37.7360   26.6390   42.7900 N   0  0  0  0  0  0  0  0  0  0  0  0
   38.0540   26.4000   41.5230 C   0  0  0  0  0  0  0  0  0  0  0  0
   38.6990   27.3370   40.8270 N   0  0  0  0  0  0  0  0  0  0  0  0
   38.8710   29.6430   43.2850 H   0  0  0  0  0  0  0  0  0  0  0  0
   37.7340   27.8770   44.4330 H   0  0  0  0  0  0  0  0  0  0  0  0
   37.6530   25.1160   40.9520 C   0  0  0  0  0  0  0  0  0  0  0  0
   38.4120   23.9730   41.1750 C   0  0  0  0  0  0  0  0  0  0  0  0
   38.0410   22.7670   40.6340 C   0  0  0  0  0  0  0  0  0  0  0  0
   36.8830   22.8200   39.8790 C   0  0  0  0  0  0  0  0  0  0  0  0
   36.0860   23.9340   39.6240 C   0  0  0  0  0  0  0  0  0  0  0  0
   36.5290   25.0800   40.1990 N   0  0  0  0  0  0  0  0  0  0  0  0
   39.3220   24.0010   41.7850 H   0  0  0  0  0  0  0  0  0  0  0  0
   38.5570   21.8400   40.7480 H   0  0  0  0  0  0  0  0  0  0  0  0
   36.5320   21.8930   39.4190 H   0  0  0  0  0  0  0  0  0  0  0  0
   35.2140   23.8610   39.0280 H   0  0  0  0  0  0  0  0  0  0  0  0
  1 27  1  0  0  0  0
  2  1  1  0  0  0  0
  3  1  1  0  0  0  0
  4  1  1  0  0  0  0
  5 11  1  0  0  0  0
  5  4  1  0  0  0  0
  5  6  1  0  0  0  0
  6 13  1  0  0  0  0
  6  7  1  0  0  0  0
  6 12  1  0  0  0  0
  7 14  1  0  0  0  0
  8  7  1  0  0  0  0
  9  4  1  0  0  0  0
  9  8  2  0  0  0  0
 10  5  1  0  0  0  0
 15  7  1  0  0  0  0
 16  8  1  0  0  0  0
 17  9  1  0  0  0  0
 18 23  1  6  0  0  0
 18 19  1  0  0  0  0
 19 17  1  6  0  0  0
 19 20  1  0  0  0  0
 21 20  1  0  0  0  0
 22 25  1  6  0  0  0
 22 18  1  0  0  0  0
 22 21  1  0  0  0  0
 24 23  1  0  0  0  0
 25 26  1  0  0  0  0
 27 28  1  0  0  0  0
 27 30  1  0  0  0  0
 29 27  1  0  0  0  0
 30 31  1  0  0  0  0
 31 36  1  0  0  0  0
 31 32  2  0  0  0  0
 32 37  1  0  0  0  0
 33 32  1  0  0  0  0
 34 33  2  0  0  0  0
 35 30  2  0  0  0  0
 35 34  1  0  0  0  0
 38 39  1  0  0  0  0
 38 34  1  0  0  0  0
 39 44  1  0  0  0  0
 40 45  1  0  0  0  0
 40 39  2  0  0  0  0
 41 40  1  0  0  0  0
 42 41  2  0  0  0  0
 42 43  1  0  0  0  0
 43 38  2  0  0  0  0
 46 41  1  0  0  0  0
 47 42  1  0  0  0  0
M  END
>  <minimizedAffinity>
-6.11947489

$$$$

 OpenBabel03252507053D

 47 50  0  0  1  0  0  0  0  0999 V2000
   37.9820   26.3800   42.2920 C   0  0  0  0  0  0  0  0  0  0  0  0
   37.1870   27.0210   41.8530 H   0  0  0  0  0  0  0  0  0  0  0  0
   37.3930   25.6250   42.9160 H   0  0  0  0  0  0  0  0  0  0  0  0
   38.8830   27.0780   42.9750 N   0  0  0  0  0  0  0  0  0  0  0  0
   39.7410   26.6780   44.0150 C   0  0  0  0  0  0  0  0  0  0  0  0
   41.0640   26.6280   43.2130 C   0  0  0  0  0  0  0  0  0  0  0  0
   41.4420   27.9230   42.6720 C   0  0  0  0  0  0  0  0  0  0  0  0
   40.4270   28.9200   42.4090 C   0  0  0  0  0  0  0  0  0  0  0  0
   38.9950   28.4920   42.5450 C   0  0  0  0  0  0  0  0  0  0  0  0
   39.8130   27.2510   44.9230 H   0  0  0  0  0  0  0  0  0  0  0  0
   39.5280   25.6210   44.3190 H   0  0  0  0  0  0  0  0  0  0  0  0
   40.9700   25.8360   42.4520 H   0  0  0  0  0  0  0  0  0  0  0  0
   41.8090   26.2420   43.9680 H   0  0  0  0  0  0  0  0  0  0  0  0
   42.0220   27.7700   41.7150 H   0  0  0  0  0  0  0  0  0  0  0  0
   42.2100   28.3880   43.3560 H   0  0  0  0  0  0  0  0  0  0  0  0
   40.5650   29.9240   42.1080 H   0  0  0  0  0  0  0  0  0  0  0  0
   37.6720   29.5900   42.1780 S   0  0  0  0  0  0  0  0  0  0  0  0
   36.1450   30.6140   40.2170 C   0  0  2  0  0  3  0  0  0  0  0  0
   37.1090   29.4730   40.4670 C   0  0  1  0  0  3  0  0  0  0  0  0
   38.1850   29.7050   39.6260 O   0  0  0  0  0  0  0  0  0  0  0  0
   38.4380   31.0720   39.8650 C   0  0  0  0  0  2  0  0  0  0  0  0
   37.0510   31.7100   39.7240 C   0  0  2  0  0  3  0  0  0  0  0  0
   35.5590   30.9870   41.4290 O   0  0  0  0  0  0  0  0  0  0  0  0
   36.1830   31.6450   41.8560 H   0  0  0  0  0  0  0  0  0  0  0  0
   36.9840   32.8450   40.5170 O   0  0  0  0  0  0  0  0  0  0  0  0
   37.8580   33.3170   40.5220 H   0  0  0  0  0  0  0  0  0  0  0  0
   38.5670   25.5610   41.1950 C   0  0  0  0  0  0  0  0  0  0  0  0
   38.9890   24.6190   41.5920 H   0  0  0  0  0  0  0  0  0  0  0  0
   39.4000   26.1400   40.7210 H   0  0  0  0  0  0  0  0  0  0  0  0
   37.5040   25.2680   40.2200 C   0  0  0  0  0  0  0  0  0  0  0  0
   37.0010   23.9920   40.1000 C   0  0  0  0  0  0  0  0  0  0  0  0
   36.0090   23.7580   39.1610 C   0  0  0  0  0  0  0  0  0  0  0  0
   35.5770   24.8130   38.3990 N   0  0  0  0  0  0  0  0  0  0  0  0
   36.0870   26.0310   38.5460 C   0  0  0  0  0  0  0  0  0  0  0  0
   37.0420   26.2300   39.4550 N   0  0  0  0  0  0  0  0  0  0  0  0
   37.1930   23.0620   40.6060 H   0  0  0  0  0  0  0  0  0  0  0  0
   35.5020   22.8280   38.9290 H   0  0  0  0  0  0  0  0  0  0  0  0
   35.5490   27.0990   37.7060 C   0  0  0  0  0  0  0  0  0  0  0  0
   34.1960   27.1390   37.3910 C   0  0  0  0  0  0  0  0  0  0  0  0
   33.6900   28.1380   36.5960 C   0  0  0  0  0  0  0  0  0  0  0  0
   34.6360   29.0520   36.1670 C   0  0  0  0  0  0  0  0  0  0  0  0
   36.0000   29.0580   36.4520 C   0  0  0  0  0  0  0  0  0  0  0  0
   36.4090   28.0360   37.2430 N   0  0  0  0  0  0  0  0  0  0  0  0
   33.4990   26.3810   37.7650 H   0  0  0  0  0  0  0  0  0  0  0  0
   32.6700   28.2520   36.3000 H   0  0  0  0  0  0  0  0  0  0  0  0
   34.2990   29.8720   35.5290 H   0  0  0  0  0  0  0  0  0  0  0  0
   36.6380   29.8120   36.0670 H   0  0  0  0  0  0  0  0  0  0  0  0
  1  3  1  0  0  0  0
  1  4  1  0  0  0  0
  2  1  1  0  0  0  0
  4  5  1  0  0  0  0
  5 11  1  0  0  0  0
  5 10  1  0  0  0  0
  6 13  1  0  0  0  0
  6  5  1  0  0  0  0
  7  6  1  0  0  0  0
  7 15  1  0  0  0  0
  8  9  2  0  0  0  0
  8  7  1  0  0  0  0
  9  4  1  0  0  0  0
 12  6  1  0  0  0  0
 14  7  1  0  0  0  0
 16  8  1  0  0  0  0
 17  9  1  0  0  0  0
 18 19  1  0  0  0  0
 18 23  1  1  0  0  0
 19 17  1  1  0  0  0
 20 21  1  0  0  0  0
 20 19  1  0  0  0  0
 22 21  1  0  0  0  0
 22 18  1  0  0  0  0
 22 25  1  1  0  0  0
 23 24  1  0  0  0  0
 25 26  1  0  0  0  0
 27 28  1  0  0  0  0
 27  1  1  0  0  0  0
 29 27  1  0  0  0  0
 30 27  1  0  0  0  0
 31 30  1  0  0  0  0
 31 36  1  0  0  0  0
 32 31  2  0  0  0  0
 33 34  2  0  0  0  0
 33 32  1  0  0  0  0
 34 35  1  0  0  0  0
 35 30  2  0  0  0  0
 37 32  1  0  0  0  0
 38 34  1  0  0  0  0
 39 38  1  0  0  0  0
 39 44  1  0  0  0  0
 40 39  2  0  0  0  0
 41 42  2  0  0  0  0
 41 40  1  0  0  0  0
 42 43  1  0  0  0  0
 43 38  2  0  0  0  0
 45 40  1  0  0  0  0
 46 41  1  0  0  0  0
 47 42  1  0  0  0  0
M  END
>  <minimizedAffinity>
-5.98527145

$$$$

 OpenBabel03252507053D

 47 50  0  0  1  0  0  0  0  0999 V2000
   39.3770   30.0440   40.6180 C   0  0  0  0  0  0  0  0  0  0  0  0
   40.4720   29.9270   40.7720 H   0  0  0  0  0  0  0  0  0  0  0  0
   39.0500   29.0050   40.2730 H   0  0  0  0  0  0  0  0  0  0  0  0
   39.0820   31.0260   39.7730 N   0  0  0  0  0  0  0  0  0  0  0  0
   38.3040   31.0090   38.6020 C   0  0  0  0  0  0  0  0  0  0  0  0
   37.0480   31.7270   39.1520 C   0  0  0  0  0  0  0  0  0  0  0  0
   37.3250   33.0830   39.5940 C   0  0  0  0  0  0  0  0  0  0  0  0
   38.6590   33.4460   40.0200 C   0  0  0  0  0  0  0  0  0  0  0  0
   39.6610   32.3360   40.1510 C   0  0  0  0  0  0  0  0  0  0  0  0
   38.6740   31.4370   37.6860 H   0  0  0  0  0  0  0  0  0  0  0  0
   37.9770   29.9660   38.3580 H   0  0  0  0  0  0  0  0  0  0  0  0
   36.6040   31.0850   39.9300 H   0  0  0  0  0  0  0  0  0  0  0  0
   36.3310   31.6960   38.2810 H   0  0  0  0  0  0  0  0  0  0  0  0
   36.6180   33.3520   40.4330 H   0  0  0  0  0  0  0  0  0  0  0  0
   37.0200   33.7980   38.7750 H   0  0  0  0  0  0  0  0  0  0  0  0
   39.0210   34.4060   40.2750 H   0  0  0  0  0  0  0  0  0  0  0  0
   41.2920   32.6390   40.7340 S   0  0  0  0  0  0  0  0  0  0  0  0
   42.9600   34.5780   41.5620 C   0  0  2  0  0  3  0  0  0  0  0  0
   41.7580   34.3810   40.6620 C   0  0  1  0  0  3  0  0  0  0  0  0
   42.1990   34.6740   39.3820 O   0  0  0  0  0  0  0  0  0  0  0  0
   43.4040   33.9420   39.3280 C   0  0  0  0  0  2  0  0  0  0  0  0
   44.1150   34.3490   40.6240 C   0  0  2  0  0  3  0  0  0  0  0  0
   42.9490   33.5960   42.5550 O   0  0  0  0  0  0  0  0  0  0  0  0
   43.4060   32.7930   42.1670 H   0  0  0  0  0  0  0  0  0  0  0  0
   44.9360   33.3140   41.0430 O   0  0  0  0  0  0  0  0  0  0  0  0
   45.3420   32.8540   40.2620 H   0  0  0  0  0  0  0  0  0  0  0  0
   38.7420   30.1970   41.9550 C   0  0  0  0  0  0  0  0  0  0  0  0
   37.9920   31.0100   41.9410 H   0  0  0  0  0  0  0  0  0  0  0  0
   39.5330   30.4700   42.6990 H   0  0  0  0  0  0  0  0  0  0  0  0
   38.0980   28.9220   42.3100 C   0  0  0  0  0  0  0  0  0  0  0  0
   37.3240   28.8220   43.4430 C   0  0  0  0  0  0  0  0  0  0  0  0
   36.7460   27.5990   43.7450 C   0  0  0  0  0  0  0  0  0  0  0  0
   36.9750   26.5480   42.8940 N   0  0  0  0  0  0  0  0  0  0  0  0
   37.7280   26.6850   41.8080 C   0  0  0  0  0  0  0  0  0  0  0  0
   38.2740   27.8710   41.5410 N   0  0  0  0  0  0  0  0  0  0  0  0
   37.0210   29.5200   44.2050 H   0  0  0  0  0  0  0  0  0  0  0  0
   36.1150   27.3380   44.5870 H   0  0  0  0  0  0  0  0  0  0  0  0
   37.8980   25.5150   40.9480 C   0  0  0  0  0  0  0  0  0  0  0  0
   37.8710   24.2320   41.4820 C   0  0  0  0  0  0  0  0  0  0  0  0
   38.0380   23.1330   40.6760 C   0  0  0  0  0  0  0  0  0  0  0  0
   38.2270   23.4360   39.3390 C   0  0  0  0  0  0  0  0  0  0  0  0
   38.2620   24.7000   38.7530 C   0  0  0  0  0  0  0  0  0  0  0  0
   38.0880   25.7240   39.6240 N   0  0  0  0  0  0  0  0  0  0  0  0
   37.7180   24.0620   42.5530 H   0  0  0  0  0  0  0  0  0  0  0  0
   38.0340   22.1140   40.9930 H   0  0  0  0  0  0  0  0  0  0  0  0
   38.3660   22.6060   38.6430 H   0  0  0  0  0  0  0  0  0  0  0  0
   38.4140   24.8180   37.7110 H   0  0  0  0  0  0  0  0  0  0  0  0
  1  2  1  0  0  0  0
  1 27  1  0  0  0  0
  3  1  1  0  0  0  0
  4  9  1  0  0  0  0
  4  1  1  0  0  0  0
  5  6  1  0  0  0  0
  5  4  1  0  0  0  0
  6  7  1  0  0  0  0
  6 12  1  0  0  0  0
  7  8  1  0  0  0  0
  7 14  1  0  0  0  0
  8  9  2  0  0  0  0
  8 16  1  0  0  0  0
  9 17  1  0  0  0  0
 10  5  1  0  0  0  0
 11  5  1  0  0  0  0
 13  6  1  0  0  0  0
 15  7  1  0  0  0  0
 18 23  1  1  0  0  0
 19 17  1  6  0  0  0
 19 18  1  0  0  0  0
 20 19  1  0  0  0  0
 21 20  1  0  0  0  0
 21 22  1  0  0  0  0
 22 25  1  1  0  0  0
 22 18  1  0  0  0  0
 24 23  1  0  0  0  0
 26 25  1  0  0  0  0
 27 30  1  0  0  0  0
 27 29  1  0  0  0  0
 28 27  1  0  0  0  0
 30 31  1  0  0  0  0
 31 32  2  0  0  0  0
 31 36  1  0  0  0  0
 32 37  1  0  0  0  0
 33 32  1  0  0  0  0
 34 33  2  0  0  0  0
 35 34  1  0  0  0  0
 35 30  2  0  0  0  0
 38 39  1  0  0  0  0
 38 34  1  0  0  0  0
 39 44  1  0  0  0  0
 40 45  1  0  0  0  0
 40 39  2  0  0  0  0
 41 40  1  0  0  0  0
 42 41  2  0  0  0  0
 42 43  1  0  0  0  0
 43 38  2  0  0  0  0
 46 41  1  0  0  0  0
 47 42  1  0  0  0  0
M  END
>  <minimizedAffinity>
-5.96620464

$$$$

 OpenBabel03252507053D

 47 50  0  0  1  0  0  0  0  0999 V2000
   39.6050   30.4560   39.9850 C   0  0  0  0  0  0  0  0  0  0  0  0
   40.7030   30.4060   39.8140 H   0  0  0  0  0  0  0  0  0  0  0  0
   39.2560   29.3940   39.7500 H   0  0  0  0  0  0  0  0  0  0  0  0
   39.0180   31.4040   39.2620 N   0  0  0  0  0  0  0  0  0  0  0  0
   37.9060   31.3310   38.4050 C   0  0  0  0  0  0  0  0  0  0  0  0
   36.8680   32.0280   39.3170 C   0  0  0  0  0  0  0  0  0  0  0  0
   37.2230   33.4040   39.6220 C   0  0  0  0  0  0  0  0  0  0  0  0
   38.6090   33.8170   39.5880 C   0  0  0  0  0  0  0  0  0  0  0  0
   39.6390   32.7410   39.4100 C   0  0  0  0  0  0  0  0  0  0  0  0
   37.9460   31.7420   37.4110 H   0  0  0  0  0  0  0  0  0  0  0  0
   37.5560   30.2720   38.2990 H   0  0  0  0  0  0  0  0  0  0  0  0
   36.7210   31.3960   40.2090 H   0  0  0  0  0  0  0  0  0  0  0  0
   35.9100   31.9500   38.7250 H   0  0  0  0  0  0  0  0  0  0  0  0
   36.8130   33.6760   40.6390 H   0  0  0  0  0  0  0  0  0  0  0  0
   36.6450   34.0860   38.9320 H   0  0  0  0  0  0  0  0  0  0  0  0
   38.9980   34.7940   39.6950 H   0  0  0  0  0  0  0  0  0  0  0  0
   41.3590   33.1070   39.4300 S   0  0  0  0  0  0  0  0  0  0  0  0
   42.9660   33.0000   37.2780 C   0  0  2  0  0  3  0  0  0  0  0  0
   42.3150   32.0830   38.2920 C   0  0  1  0  0  3  0  0  0  0  0  0
   43.3590   31.4960   38.9880 O   0  0  0  0  0  0  0  0  0  0  0  0
   44.1650   32.6170   39.2810 C   0  0  0  0  0  2  0  0  0  0  0  0
   44.2890   33.3170   37.9230 C   0  0  2  0  0  3  0  0  0  0  0  0
   42.2020   34.1630   37.1600 O   0  0  0  0  0  0  0  0  0  0  0  0
   42.5140   34.7840   37.8810 H   0  0  0  0  0  0  0  0  0  0  0  0
   44.4650   34.6780   38.1210 O   0  0  0  0  0  0  0  0  0  0  0  0
   45.0210   34.8420   38.9280 H   0  0  0  0  0  0  0  0  0  0  0  0
   39.3770   30.5950   41.4490 C   0  0  0  0  0  0  0  0  0  0  0  0
   38.8760   31.5540   41.6770 H   0  0  0  0  0  0  0  0  0  0  0  0
   40.3690   30.5910   41.9690 H   0  0  0  0  0  0  0  0  0  0  0  0
   38.5400   29.4700   41.8950 C   0  0  0  0  0  0  0  0  0  0  0  0
   38.2040   29.3330   43.2230 C   0  0  0  0  0  0  0  0  0  0  0  0
   37.4240   28.2520   43.6010 C   0  0  0  0  0  0  0  0  0  0  0  0
   37.0240   27.3720   42.6280 N   0  0  0  0  0  0  0  0  0  0  0  0
   37.3680   27.5390   41.3560 C   0  0  0  0  0  0  0  0  0  0  0  0
   38.1200   28.5860   41.0190 N   0  0  0  0  0  0  0  0  0  0  0  0
   38.4020   29.9140   44.1080 H   0  0  0  0  0  0  0  0  0  0  0  0
   37.0680   27.9860   44.5900 H   0  0  0  0  0  0  0  0  0  0  0  0
   36.8760   26.5630   40.3850 C   0  0  0  0  0  0  0  0  0  0  0  0
   36.9420   25.2010   40.6540 C   0  0  0  0  0  0  0  0  0  0  0  0
   36.4870   24.2820   39.7400 C   0  0  0  0  0  0  0  0  0  0  0  0
   35.9820   24.8430   38.5800 C   0  0  0  0  0  0  0  0  0  0  0  0
   35.8920   26.1960   38.2600 C   0  0  0  0  0  0  0  0  0  0  0  0
   36.3650   27.0280   39.2210 N   0  0  0  0  0  0  0  0  0  0  0  0
   37.3560   24.8230   41.5950 H   0  0  0  0  0  0  0  0  0  0  0  0
   36.4960   23.2210   39.8550 H   0  0  0  0  0  0  0  0  0  0  0  0
   35.6030   24.1660   37.8100 H   0  0  0  0  0  0  0  0  0  0  0  0
   35.4850   26.5170   37.3370 H   0  0  0  0  0  0  0  0  0  0  0  0
  1 27  1  0  0  0  0
  2  1  1  0  0  0  0
  3  1  1  0  0  0  0
  4  9  1  0  0  0  0
  4  1  1  0  0  0  0
  5  4  1  0  0  0  0
  5  6  1  0  0  0  0
  6  7  1  0  0  0  0
  6 12  1  0  0  0  0
  7 14  1  0  0  0  0
  8  7  1  0  0  0  0
  8 16  1  0  0  0  0
  9 17  1  0  0  0  0
  9  8  2  0  0  0  0
 10  5  1  0  0  0  0
 11  5  1  0  0  0  0
 13  6  1  0  0  0  0
 15  7  1  0  0  0  0
 18 23  1  1  0  0  0
 18 22  1  0  0  0  0
 18 19  1  0  0  0  0
 19 20  1  0  0  0  0
 19 17  1  1  0  0  0
 20 21  1  0  0  0  0
 22 25  1  1  0  0  0
 22 21  1  0  0  0  0
 23 24  1  0  0  0  0
 25 26  1  0  0  0  0
 27 28  1  0  0  0  0
 27 30  1  0  0  0  0
 27 29  1  0  0  0  0
 30 31  1  0  0  0  0
 31 32  2  0  0  0  0
 31 36  1  0  0  0  0
 32 37  1  0  0  0  0
 33 32  1  0  0  0  0
 34 33  2  0  0  0  0
 35 34  1  0  0  0  0
 35 30  2  0  0  0  0
 38 39  1  0  0  0  0
 38 34  1  0  0  0  0
 39 44  1  0  0  0  0
 40 45  1  0  0  0  0
 40 39  2  0  0  0  0
 41 40  1  0  0  0  0
 42 41  2  0  0  0  0
 42 43  1  0  0  0  0
 43 38  2  0  0  0  0
 46 41  1  0  0  0  0
 47 42  1  0  0  0  0
M  END
>  <minimizedAffinity>
-5.96562624

$$$$

 OpenBabel03252507053D

 47 50  0  0  1  0  0  0  0  0999 V2000
   39.8660   26.2480   40.1670 C   0  0  0  0  0  0  0  0  0  0  0  0
   39.5310   27.1850   39.6700 H   0  0  0  0  0  0  0  0  0  0  0  0
   40.9160   26.0900   39.7430 H   0  0  0  0  0  0  0  0  0  0  0  0
   39.0300   25.2350   39.9660 N   0  0  0  0  0  0  0  0  0  0  0  0
   39.1050   23.9000   40.3990 C   0  0  0  0  0  0  0  0  0  0  0  0
   38.0330   23.9600   41.5140 C   0  0  0  0  0  0  0  0  0  0  0  0
   36.7120   24.2880   41.0050 C   0  0  0  0  0  0  0  0  0  0  0  0
   36.5760   25.0360   39.7750 C   0  0  0  0  0  0  0  0  0  0  0  0
   37.8320   25.5970   39.1730 C   0  0  0  0  0  0  0  0  0  0  0  0
   38.9590   23.0860   39.7090 H   0  0  0  0  0  0  0  0  0  0  0  0
   40.0770   23.7060   40.9200 H   0  0  0  0  0  0  0  0  0  0  0  0
   38.3950   24.6490   42.2950 H   0  0  0  0  0  0  0  0  0  0  0  0
   38.0770   22.9290   41.9700 H   0  0  0  0  0  0  0  0  0  0  0  0
   36.1340   24.8400   41.8030 H   0  0  0  0  0  0  0  0  0  0  0  0
   36.1230   23.3310   40.8910 H   0  0  0  0  0  0  0  0  0  0  0  0
   35.6890   25.2610   39.2450 H   0  0  0  0  0  0  0  0  0  0  0  0
   37.7880   26.5890   37.7210 S   0  0  0  0  0  0  0  0  0  0  0  0
   38.0210   29.1620   36.9820 C   0  0  2  0  0  3  0  0  0  0  0  0
   37.3720   28.3130   38.0550 C   0  0  1  0  0  3  0  0  0  0  0  0
   36.0070   28.4830   37.8890 O   0  0  0  0  0  0  0  0  0  0  0  0
   35.8700   28.3070   36.4960 C   0  0  0  0  0  2  0  0  0  0  0  0
   36.9530   29.2280   35.9230 C   0  0  2  0  0  3  0  0  0  0  0  0
   39.1420   28.4910   36.4880 O   0  0  0  0  0  0  0  0  0  0  0  0
   38.8130   27.8800   35.7660 H   0  0  0  0  0  0  0  0  0  0  0  0
   37.3880   28.7270   34.7060 O   0  0  0  0  0  0  0  0  0  0  0  0
   36.6300   28.3180   34.2090 H   0  0  0  0  0  0  0  0  0  0  0  0
   40.1000   26.5520   41.6050 C   0  0  0  0  0  0  0  0  0  0  0  0
   41.1260   26.9330   41.7620 H   0  0  0  0  0  0  0  0  0  0  0  0
   39.9880   25.6060   42.1940 H   0  0  0  0  0  0  0  0  0  0  0  0
   39.1160   27.5610   42.0300 C   0  0  0  0  0  0  0  0  0  0  0  0
   38.2440   27.2940   43.0610 C   0  0  0  0  0  0  0  0  0  0  0  0
   37.3260   28.2670   43.4210 C   0  0  0  0  0  0  0  0  0  0  0  0
   37.3350   29.4520   42.7300 N   0  0  0  0  0  0  0  0  0  0  0  0
   38.1940   29.6730   41.7400 C   0  0  0  0  0  0  0  0  0  0  0  0
   39.0660   28.7190   41.4120 N   0  0  0  0  0  0  0  0  0  0  0  0
   38.0980   26.4530   43.7180 H   0  0  0  0  0  0  0  0  0  0  0  0
   36.5710   28.2320   44.1980 H   0  0  0  0  0  0  0  0  0  0  0  0
   38.1460   30.9730   41.0760 C   0  0  0  0  0  0  0  0  0  0  0  0
   37.1200   31.2780   40.1880 C   0  0  0  0  0  0  0  0  0  0  0  0
   37.0770   32.4970   39.5570 C   0  0  0  0  0  0  0  0  0  0  0  0
   38.1210   33.3430   39.8910 C   0  0  0  0  0  0  0  0  0  0  0  0
   39.1700   33.0880   40.7720 C   0  0  0  0  0  0  0  0  0  0  0  0
   39.1310   31.8610   41.3480 N   0  0  0  0  0  0  0  0  0  0  0  0
   36.3230   30.5600   39.9670 H   0  0  0  0  0  0  0  0  0  0  0  0
   36.3340   32.8200   38.8620 H   0  0  0  0  0  0  0  0  0  0  0  0
   38.1460   34.3290   39.4230 H   0  0  0  0  0  0  0  0  0  0  0  0
   39.9210   33.8130   40.9550 H   0  0  0  0  0  0  0  0  0  0  0  0
  1 27  1  0  0  0  0
  2  1  1  0  0  0  0
  3  1  1  0  0  0  0
  4  1  1  0  0  0  0
  4  5  1  0  0  0  0
  5 11  1  0  0  0  0
  5  6  1  0  0  0  0
  6 13  1  0  0  0  0
  6 12  1  0  0  0  0
  7  6  1  0  0  0  0
  7 14  1  0  0  0  0
  8  7  1  0  0  0  0
  9  8  2  0  0  0  0
  9  4  1  0  0  0  0
 10  5  1  0  0  0  0
 15  7  1  0  0  0  0
 16  8  1  0  0  0  0
 17  9  1  0  0  0  0
 18 23  1  6  0  0  0
 18 19  1  0  0  0  0
 19 17  1  6  0  0  0
 20 19  1  0  0  0  0
 21 20  1  0  0  0  0
 22 25  1  6  0  0  0
 22 21  1  0  0  0  0
 22 18  1  0  0  0  0
 24 23  1  0  0  0  0
 26 25  1  0  0  0  0
 27 28  1  0  0  0  0
 27 30  1  0  0  0  0
 27 29  1  0  0  0  0
 30 31  1  0  0  0  0
 31 32  2  0  0  0  0
 31 36  1  0  0  0  0
 32 37  1  0  0  0  0
 33 32  1  0  0  0  0
 34 33  2  0  0  0  0
 35 34  1  0  0  0  0
 35 30  2  0  0  0  0
 38 43  1  0  0  0  0
 38 34  1  0  0  0  0
 39 38  2  0  0  0  0
 40 41  2  0  0  0  0
 40 39  1  0  0  0  0
 41 42  1  0  0  0  0
 42 47  1  0  0  0  0
 42 43  2  0  0  0  0
 44 39  1  0  0  0  0
 45 40  1  0  0  0  0
 46 41  1  0  0  0  0
M  END
>  <minimizedAffinity>
-5.83151293

$$$$
