
 OpenBabel03242513593D

 41 45  0  0  1  0  0  0  0  0999 V2000
   44.8240   35.0050   44.8580 C   0  0  0  0  0  0  0  0  0  0  0  0
   45.4630   34.8450   43.6340 C   0  0  0  0  0  0  0  0  0  0  0  0
   46.5040   33.9010   43.5750 C   0  0  0  0  0  0  0  0  0  0  0  0
   46.8140   33.2230   44.6850 N   0  0  0  0  0  0  0  0  0  0  0  0
   46.1840   33.3940   45.8590 C   0  0  0  0  0  0  0  0  0  0  0  0
   45.1750   34.3040   45.9260 N   0  0  0  0  0  0  0  0  0  0  0  0
   44.0150   35.7420   44.8970 H   0  0  0  0  0  0  0  0  0  0  0  0
   47.0420   33.7220   42.6680 H   0  0  0  0  0  0  0  0  0  0  0  0
   46.4900   32.6790   47.0840 C   0  0  0  0  0  0  0  0  0  0  0  0
   45.5120   32.4600   48.0640 C   0  0  0  0  0  0  0  0  0  0  0  0
   46.1330   31.7530   49.0940 C   0  0  0  0  0  0  0  0  0  0  0  0
   47.4190   31.5640   48.7360 N   0  0  0  0  0  0  0  0  0  0  0  0
   47.5940   32.1250   47.5400 N   0  0  0  0  0  0  0  0  0  0  0  0
   44.4630   32.7720   48.0510 H   0  0  0  0  0  0  0  0  0  0  0  0
   45.6570   31.4200   50.0170 H   0  0  0  0  0  0  0  0  0  0  0  0
   49.0570   29.7860   48.6480 C   0  0  1  0  0  3  0  0  0  0  0  0
   48.4320   30.8740   49.5120 C   0  0  1  0  0  3  0  0  0  0  0  0
   49.5300   31.6930   49.7540 O   0  0  0  0  0  0  0  0  0  0  0  0
   50.5960   30.8540   50.0420 C   0  0  0  0  0  2  0  0  0  0  0  0
   50.3810   29.5580   49.2990 C   0  0  1  0  0  3  0  0  0  0  0  0
   48.2540   28.6780   48.5330 O   0  0  0  0  0  0  0  0  0  0  0  0
   48.4690   28.2420   47.6650 H   0  0  0  0  0  0  0  0  0  0  0  0
   50.2940   28.4490   50.1040 O   0  0  0  0  0  0  0  0  0  0  0  0
   49.8580   28.6290   50.9530 H   0  0  0  0  0  0  0  0  0  0  0  0
   45.1480   35.5420   42.4810 O   0  0  0  0  0  0  0  0  0  0  0  0
   44.2280   35.1240   41.5280 C   0  0  0  0  0  0  0  0  0  0  0  0
   44.4630   34.2870   40.4690 C   0  0  0  0  0  0  0  0  0  0  0  0
   43.4440   33.9620   39.6030 C   0  0  0  0  0  0  0  0  0  0  0  0
   42.1600   34.4540   39.7560 C   0  0  0  0  0  0  0  0  0  0  0  0
   41.2080   34.1080   38.8880 N   0  0  0  0  0  0  0  0  0  0  0  0
   39.9530   34.5640   39.0050 C   0  0  0  0  0  0  0  0  0  0  0  0
   39.6810   35.4050   40.0540 C   0  0  0  0  0  0  0  0  0  0  0  0
   40.6650   35.7810   40.9760 C   0  0  0  0  0  0  0  0  0  0  0  0
   41.9390   35.2950   40.8260 C   0  0  0  0  0  0  0  0  0  0  0  0
   42.9550   35.6400   41.7190 C   0  0  0  0  0  0  0  0  0  0  0  0
   45.4750   33.9170   40.3710 H   0  0  0  0  0  0  0  0  0  0  0  0
   43.7120   33.2990   38.7980 H   0  0  0  0  0  0  0  0  0  0  0  0
   39.2580   34.2310   38.2610 H   0  0  0  0  0  0  0  0  0  0  0  0
   38.6860   35.7770   40.1610 H   0  0  0  0  0  0  0  0  0  0  0  0
   40.4140   36.4510   41.7980 H   0  0  0  0  0  0  0  0  0  0  0  0
   42.6830   36.3040   42.5240 H   0  0  0  0  0  0  0  0  0  0  0  0
  1  7  1  0  0  0  0
  1  6  1  0  0  0  0
  2  1  2  0  0  0  0
  3  2  1  0  0  0  0
  3  4  2  0  0  0  0
  4  5  1  0  0  0  0
  5  6  2  0  0  0  0
  5  9  1  0  0  0  0
  8  3  1  0  0  0  0
  9 13  2  0  0  0  0
  9 10  1  0  0  0  0
 10 11  2  0  0  0  0
 11 15  1  0  0  0  0
 12 11  1  0  0  0  0
 13 12  1  0  0  0  0
 14 10  1  0  0  0  0
 16 21  1  1  0  0  0
 16 20  1  0  0  0  0
 16 17  1  0  0  0  0
 17 12  1  6  0  0  0
 17 18  1  0  0  0  0
 18 19  1  0  0  0  0
 20 19  1  0  0  0  0
 20 23  1  1  0  0  0
 22 21  1  0  0  0  0
 23 24  1  0  0  0  0
 25  2  1  0  0  0  0
 26 35  1  0  0  0  0
 26 25  1  0  0  0  0
 27 26  2  0  0  0  0
 28 29  2  0  0  0  0
 28 27  1  0  0  0  0
 29 34  1  0  0  0  0
 30 31  2  0  0  0  0
 30 29  1  0  0  0  0
 31 32  1  0  0  0  0
 32 39  1  0  0  0  0
 32 33  2  0  0  0  0
 33 40  1  0  0  0  0
 34 33  1  0  0  0  0
 34 35  2  0  0  0  0
 35 41  1  0  0  0  0
 36 27  1  0  0  0  0
 37 28  1  0  0  0  0
 38 31  1  0  0  0  0
M  END
>  <minimizedAffinity>
-7.72250175

>  <minimizedRMSD>
0.767859876

$$$$
