
 OpenBabel03242520033D

 25 27  0  0  1  0  0  0  0  0999 V2000
   38.5040   31.0610   40.6490 C   0  0  0  0  0  0  0  0  0  0  0  0
   37.8780   32.2960   40.4250 C   0  0  0  0  0  0  0  0  0  0  0  0
   38.7820   33.0560   39.7150 C   0  0  0  0  0  0  0  0  0  0  0  0
   39.8920   32.3370   39.5150 N   0  0  0  0  0  0  0  0  0  0  0  0
   39.6890   31.1480   40.0870 N   0  0  0  0  0  0  0  0  0  0  0  0
   36.8810   32.5770   40.7530 H   0  0  0  0  0  0  0  0  0  0  0  0
   38.6090   34.0860   39.3740 H   0  0  0  0  0  0  0  0  0  0  0  0
   36.3220   28.2290   41.4060 C   0  0  0  0  0  0  0  0  0  0  0  0
   36.6830   27.8810   42.7200 C   0  0  0  0  0  0  0  0  0  0  0  0
   37.6900   28.6390   43.3380 C   0  0  0  0  0  0  0  0  0  0  0  0
   38.2360   29.6480   42.6190 N   0  0  0  0  0  0  0  0  0  0  0  0
   37.8790   29.9630   41.3720 C   0  0  0  0  0  0  0  0  0  0  0  0
   36.9080   29.2510   40.7410 N   0  0  0  0  0  0  0  0  0  0  0  0
   35.5510   27.6760   40.8870 H   0  0  0  0  0  0  0  0  0  0  0  0
   36.2070   27.0730   43.2210 H   0  0  0  0  0  0  0  0  0  0  0  0
   38.0120   28.4210   44.3460 H   0  0  0  0  0  0  0  0  0  0  0  0
   41.0300   32.4140   37.3400 C   0  0  1  0  0  3  0  0  0  0  0  0
   41.0770   32.7180   38.8350 C   0  0  2  0  0  3  0  0  0  0  0  0
   42.2230   32.0430   39.1830 O   0  0  0  0  0  0  0  0  0  0  0  0
   43.1680   32.4840   38.2720 C   0  0  0  0  0  2  0  0  0  0  0  0
   42.4510   32.8040   36.9760 C   0  0  2  0  0  3  0  0  0  0  0  0
   40.8660   31.0450   37.1310 O   0  0  0  0  0  0  0  0  0  0  0  0
   41.6140   30.6050   37.6420 H   0  0  0  0  0  0  0  0  0  0  0  0
   42.4800   34.1600   36.7150 O   0  0  0  0  0  0  0  0  0  0  0  0
   43.2760   34.6380   37.0360 H   0  0  0  0  0  0  0  0  0  0  0  0
  1 12  1  0  0  0  0
  2  1  1  0  0  0  0
  2  6  1  0  0  0  0
  3  2  2  0  0  0  0
  4  3  1  0  0  0  0
  4  5  1  0  0  0  0
  5  1  2  0  0  0  0
  7  3  1  0  0  0  0
  8  9  1  0  0  0  0
  9 15  1  0  0  0  0
  9 10  2  0  0  0  0
 10 16  1  0  0  0  0
 11 10  1  0  0  0  0
 12 11  2  0  0  0  0
 13 12  1  0  0  0  0
 13  8  2  0  0  0  0
 14  8  1  0  0  0  0
 17 22  1  1  0  0  0
 17 18  1  0  0  0  0
 18 19  1  0  0  0  0
 18  4  1  1  0  0  0
 20 19  1  0  0  0  0
 21 24  1  1  0  0  0
 21 17  1  0  0  0  0
 21 20  1  0  0  0  0
 22 23  1  0  0  0  0
 24 25  1  0  0  0  0
M  END
>  <minimizedAffinity>
-5.2788825

$$$$

 OpenBabel03242520033D

 25 27  0  0  1  0  0  0  0  0999 V2000
   37.7860   27.9680   41.7270 C   0  0  0  0  0  0  0  0  0  0  0  0
   38.4770   28.2950   42.9020 C   0  0  0  0  0  0  0  0  0  0  0  0
   38.6980   29.6550   42.8460 C   0  0  0  0  0  0  0  0  0  0  0  0
   38.1780   30.1330   41.7100 N   0  0  0  0  0  0  0  0  0  0  0  0
   37.6400   29.0950   41.0650 N   0  0  0  0  0  0  0  0  0  0  0  0
   38.7690   27.6040   43.6870 H   0  0  0  0  0  0  0  0  0  0  0  0
   39.2190   30.2410   43.6150 H   0  0  0  0  0  0  0  0  0  0  0  0
   37.0190   24.4120   42.0720 C   0  0  0  0  0  0  0  0  0  0  0  0
   36.5580   24.0520   40.7940 C   0  0  0  0  0  0  0  0  0  0  0  0
   36.5160   25.0560   39.8130 C   0  0  0  0  0  0  0  0  0  0  0  0
   36.9240   26.2940   40.1760 N   0  0  0  0  0  0  0  0  0  0  0  0
   37.3590   26.6160   41.3950 C   0  0  0  0  0  0  0  0  0  0  0  0
   37.4130   25.6710   42.3720 N   0  0  0  0  0  0  0  0  0  0  0  0
   37.0690   23.6750   42.8620 H   0  0  0  0  0  0  0  0  0  0  0  0
   36.2520   23.0550   40.5840 H   0  0  0  0  0  0  0  0  0  0  0  0
   36.1720   24.8420   38.8110 H   0  0  0  0  0  0  0  0  0  0  0  0
   37.8930   31.5750   39.7420 C   0  0  1  0  0  3  0  0  0  0  0  0
   38.1730   31.4710   41.2390 C   0  0  2  0  0  3  0  0  0  0  0  0
   39.3710   32.1440   41.3070 O   0  0  0  0  0  0  0  0  0  0  0  0
   39.1290   33.3360   40.6450 C   0  0  0  0  0  2  0  0  0  0  0  0
   38.0970   33.0690   39.5680 C   0  0  2  0  0  3  0  0  0  0  0  0
   38.8720   30.8940   39.0200 O   0  0  0  0  0  0  0  0  0  0  0  0
   39.7490   31.2830   39.3260 H   0  0  0  0  0  0  0  0  0  0  0  0
   36.9070   33.7100   39.8520 O   0  0  0  0  0  0  0  0  0  0  0  0
   36.9870   34.5600   40.3380 H   0  0  0  0  0  0  0  0  0  0  0  0
  1  2  1  0  0  0  0
  2  6  1  0  0  0  0
  3  2  2  0  0  0  0
  3  7  1  0  0  0  0
  4  3  1  0  0  0  0
  5  4  1  0  0  0  0
  5  1  2  0  0  0  0
  8 13  1  0  0  0  0
  8 14  1  0  0  0  0
  9  8  2  0  0  0  0
 10 11  2  0  0  0  0
 10  9  1  0  0  0  0
 11 12  1  0  0  0  0
 12  1  1  0  0  0  0
 12 13  2  0  0  0  0
 15  9  1  0  0  0  0
 16 10  1  0  0  0  0
 17 22  1  6  0  0  0
 17 18  1  0  0  0  0
 18 19  1  0  0  0  0
 18  4  1  6  0  0  0
 20 19  1  0  0  0  0
 21 17  1  0  0  0  0
 21 24  1  1  0  0  0
 21 20  1  0  0  0  0
 22 23  1  0  0  0  0
 24 25  1  0  0  0  0
M  END
>  <minimizedAffinity>
-5.04064417

$$$$

 OpenBabel03242520033D

 25 27  0  0  1  0  0  0  0  0999 V2000
   37.9890   28.1950   41.7060 C   0  0  0  0  0  0  0  0  0  0  0  0
   36.6200   28.4970   41.7430 C   0  0  0  0  0  0  0  0  0  0  0  0
   36.4910   29.7420   41.1640 C   0  0  0  0  0  0  0  0  0  0  0  0
   37.7010   30.1770   40.7960 N   0  0  0  0  0  0  0  0  0  0  0  0
   38.5740   29.2250   41.1360 N   0  0  0  0  0  0  0  0  0  0  0  0
   35.8360   27.8650   42.1480 H   0  0  0  0  0  0  0  0  0  0  0  0
   35.5430   30.2800   41.0320 H   0  0  0  0  0  0  0  0  0  0  0  0
   40.0330   25.8970   43.6800 C   0  0  0  0  0  0  0  0  0  0  0  0
   39.6360   24.6300   43.2200 C   0  0  0  0  0  0  0  0  0  0  0  0
   38.6530   24.5810   42.2190 C   0  0  0  0  0  0  0  0  0  0  0  0
   38.1630   25.7620   41.7740 N   0  0  0  0  0  0  0  0  0  0  0  0
   38.5530   26.9560   42.2240 C   0  0  0  0  0  0  0  0  0  0  0  0
   39.5030   27.0430   43.1930 N   0  0  0  0  0  0  0  0  0  0  0  0
   40.7880   25.9870   44.4500 H   0  0  0  0  0  0  0  0  0  0  0  0
   40.0680   23.7440   43.6190 H   0  0  0  0  0  0  0  0  0  0  0  0
   38.3060   23.6370   41.8240 H   0  0  0  0  0  0  0  0  0  0  0  0
   39.4540   31.8730   40.5030 C   0  0  1  0  0  3  0  0  0  0  0  0
   38.0410   31.4010   40.1660 C   0  0  2  0  0  3  0  0  0  0  0  0
   37.3200   32.5060   40.5530 O   0  0  0  0  0  0  0  0  0  0  0  0
   37.9540   33.5640   39.9250 C   0  0  0  0  0  2  0  0  0  0  0  0
   39.4250   33.2200   39.8030 C   0  0  2  0  0  3  0  0  0  0  0  0
   39.5800   32.0750   41.8770 O   0  0  0  0  0  0  0  0  0  0  0  0
   38.8390   32.7110   42.1220 H   0  0  0  0  0  0  0  0  0  0  0  0
   39.7840   33.0350   38.4830 O   0  0  0  0  0  0  0  0  0  0  0  0
   39.2900   33.5770   37.8280 H   0  0  0  0  0  0  0  0  0  0  0  0
  1  2  1  0  0  0  0
  1 12  1  0  0  0  0
  2  6  1  0  0  0  0
  3  2  2  0  0  0  0
  4  5  1  0  0  0  0
  4  3  1  0  0  0  0
  5  1  2  0  0  0  0
  7  3  1  0  0  0  0
  8 14  1  0  0  0  0
  9 15  1  0  0  0  0
  9  8  1  0  0  0  0
 10  9  2  0  0  0  0
 11 10  1  0  0  0  0
 11 12  2  0  0  0  0
 12 13  1  0  0  0  0
 13  8  2  0  0  0  0
 16 10  1  0  0  0  0
 17 22  1  1  0  0  0
 18 17  1  0  0  0  0
 18 19  1  0  0  0  0
 18  4  1  1  0  0  0
 20 19  1  0  0  0  0
 21 24  1  6  0  0  0
 21 20  1  0  0  0  0
 21 17  1  0  0  0  0
 22 23  1  0  0  0  0
 25 24  1  0  0  0  0
M  END
>  <minimizedAffinity>
-5.01091957

$$$$

 OpenBabel03242520033D

 25 27  0  0  1  0  0  0  0  0999 V2000
   38.6870   29.9190   41.6490 C   0  0  0  0  0  0  0  0  0  0  0  0
   39.7200   29.8010   42.5890 C   0  0  0  0  0  0  0  0  0  0  0  0
   39.7190   28.4810   42.9900 C   0  0  0  0  0  0  0  0  0  0  0  0
   38.7480   27.8310   42.3390 N   0  0  0  0  0  0  0  0  0  0  0  0
   38.1510   28.7230   41.5450 N   0  0  0  0  0  0  0  0  0  0  0  0
   40.3780   30.5980   42.9220 H   0  0  0  0  0  0  0  0  0  0  0  0
   40.4090   28.0460   43.7250 H   0  0  0  0  0  0  0  0  0  0  0  0
   37.0120   32.3060   39.4460 C   0  0  0  0  0  0  0  0  0  0  0  0
   37.6960   33.5100   39.6910 C   0  0  0  0  0  0  0  0  0  0  0  0
   38.7410   33.4850   40.6270 C   0  0  0  0  0  0  0  0  0  0  0  0
   39.0110   32.2990   41.2220 N   0  0  0  0  0  0  0  0  0  0  0  0
   38.3510   31.1660   40.9770 C   0  0  0  0  0  0  0  0  0  0  0  0
   37.3310   31.1520   40.0770 N   0  0  0  0  0  0  0  0  0  0  0  0
   36.1990   32.2750   38.7340 H   0  0  0  0  0  0  0  0  0  0  0  0
   37.4250   34.4050   39.1830 H   0  0  0  0  0  0  0  0  0  0  0  0
   39.3050   34.3770   40.8580 H   0  0  0  0  0  0  0  0  0  0  0  0
   39.1560   25.5700   41.4700 C   0  0  1  0  0  3  0  0  0  0  0  0
   38.3860   26.4630   42.4390 C   0  0  2  0  0  3  0  0  0  0  0  0
   37.0950   26.1480   42.0840 O   0  0  0  0  0  0  0  0  0  0  0  0
   37.0630   24.7640   42.1120 C   0  0  0  0  0  2  0  0  0  0  0  0
   38.4420   24.2580   41.7410 C   0  0  2  0  0  3  0  0  0  0  0  0
   38.9080   25.9600   40.1540 O   0  0  0  0  0  0  0  0  0  0  0  0
   37.9060   25.9460   40.0550 H   0  0  0  0  0  0  0  0  0  0  0  0
   39.0510   23.6430   42.8170 O   0  0  0  0  0  0  0  0  0  0  0  0
   38.4470   23.1850   43.4430 H   0  0  0  0  0  0  0  0  0  0  0  0
  1  2  1  0  0  0  0
  2  6  1  0  0  0  0
  2  3  2  0  0  0  0
  3  7  1  0  0  0  0
  4  3  1  0  0  0  0
  5  1  2  0  0  0  0
  5  4  1  0  0  0  0
  8  9  2  0  0  0  0
  8 13  1  0  0  0  0
  9 10  1  0  0  0  0
 10 16  1  0  0  0  0
 10 11  2  0  0  0  0
 12 11  1  0  0  0  0
 12  1  1  0  0  0  0
 13 12  2  0  0  0  0
 14  8  1  0  0  0  0
 15  9  1  0  0  0  0
 17 22  1  6  0  0  0
 17 21  1  0  0  0  0
 17 18  1  0  0  0  0
 18  4  1  6  0  0  0
 19 20  1  0  0  0  0
 19 18  1  0  0  0  0
 21 20  1  0  0  0  0
 21 24  1  1  0  0  0
 23 22  1  0  0  0  0
 24 25  1  0  0  0  0
M  END
>  <minimizedAffinity>
-4.8496542

$$$$

 OpenBabel03242520033D

 25 27  0  0  1  0  0  0  0  0999 V2000
   39.0510   30.9810   39.2410 C   0  0  0  0  0  0  0  0  0  0  0  0
   37.8430   30.7140   38.5820 C   0  0  0  0  0  0  0  0  0  0  0  0
   37.1940   29.7680   39.3480 C   0  0  0  0  0  0  0  0  0  0  0  0
   37.9540   29.4730   40.4080 N   0  0  0  0  0  0  0  0  0  0  0  0
   39.0580   30.2170   40.3120 N   0  0  0  0  0  0  0  0  0  0  0  0
   37.5030   31.1710   37.6570 H   0  0  0  0  0  0  0  0  0  0  0  0
   36.2120   29.3350   39.1150 H   0  0  0  0  0  0  0  0  0  0  0  0
   41.0860   34.0050   38.9730 C   0  0  0  0  0  0  0  0  0  0  0  0
   41.8990   33.7520   37.8550 C   0  0  0  0  0  0  0  0  0  0  0  0
   41.7340   32.5230   37.1960 C   0  0  0  0  0  0  0  0  0  0  0  0
   40.8020   31.6760   37.6910 N   0  0  0  0  0  0  0  0  0  0  0  0
   40.0390   31.9340   38.7550 C   0  0  0  0  0  0  0  0  0  0  0  0
   40.1710   33.1130   39.4190 N   0  0  0  0  0  0  0  0  0  0  0  0
   41.1750   34.9370   39.5140 H   0  0  0  0  0  0  0  0  0  0  0  0
   42.6120   34.4700   37.5250 H   0  0  0  0  0  0  0  0  0  0  0  0
   42.3290   32.2710   36.3300 H   0  0  0  0  0  0  0  0  0  0  0  0
   37.4600   29.2370   42.8030 C   0  0  1  0  0  3  0  0  0  0  0  0
   37.6840   28.5550   41.4550 C   0  0  2  0  0  3  0  0  0  0  0  0
   38.7020   27.6930   41.7880 O   0  0  0  0  0  0  0  0  0  0  0  0
   38.2420   27.0420   42.9190 C   0  0  0  0  0  2  0  0  0  0  0  0
   37.3440   28.0010   43.6760 C   0  0  2  0  0  3  0  0  0  0  0  0
   38.5960   29.9540   43.1750 O   0  0  0  0  0  0  0  0  0  0  0  0
   39.3530   29.2900   43.1440 H   0  0  0  0  0  0  0  0  0  0  0  0
   36.0320   27.5720   43.6560 O   0  0  0  0  0  0  0  0  0  0  0  0
   35.9030   26.5970   43.6370 H   0  0  0  0  0  0  0  0  0  0  0  0
  1  5  2  0  0  0  0
  2  1  1  0  0  0  0
  2  3  2  0  0  0  0
  3  4  1  0  0  0  0
  5  4  1  0  0  0  0
  6  2  1  0  0  0  0
  7  3  1  0  0  0  0
  8 13  1  0  0  0  0
  8 14  1  0  0  0  0
  9  8  2  0  0  0  0
 10 11  2  0  0  0  0
 10  9  1  0  0  0  0
 11 12  1  0  0  0  0
 12  1  1  0  0  0  0
 12 13  2  0  0  0  0
 15  9  1  0  0  0  0
 16 10  1  0  0  0  0
 17 22  1  1  0  0  0
 17 21  1  0  0  0  0
 18  4  1  6  0  0  0
 18 19  1  0  0  0  0
 18 17  1  0  0  0  0
 19 20  1  0  0  0  0
 20 21  1  0  0  0  0
 21 24  1  6  0  0  0
 23 22  1  0  0  0  0
 25 24  1  0  0  0  0
M  END
>  <minimizedAffinity>
-4.79630756

$$$$

 OpenBabel03242520033D

 25 27  0  0  1  0  0  0  0  0999 V2000
   37.1850   28.1840   40.5940 C   0  0  0  0  0  0  0  0  0  0  0  0
   36.5620   29.1350   41.4140 C   0  0  0  0  0  0  0  0  0  0  0  0
   37.0110   30.3640   40.9780 C   0  0  0  0  0  0  0  0  0  0  0  0
   37.8550   30.1800   39.9560 N   0  0  0  0  0  0  0  0  0  0  0  0
   37.9350   28.8630   39.7540 N   0  0  0  0  0  0  0  0  0  0  0  0
   35.8690   28.9270   42.2240 H   0  0  0  0  0  0  0  0  0  0  0  0
   36.7160   31.3310   41.4070 H   0  0  0  0  0  0  0  0  0  0  0  0
   36.3650   24.7250   39.7450 C   0  0  0  0  0  0  0  0  0  0  0  0
   36.5770   24.0350   40.9510 C   0  0  0  0  0  0  0  0  0  0  0  0
   37.0070   24.7810   42.0600 C   0  0  0  0  0  0  0  0  0  0  0  0
   37.1840   26.1110   41.8800 N   0  0  0  0  0  0  0  0  0  0  0  0
   36.9770   26.7490   40.7260 C   0  0  0  0  0  0  0  0  0  0  0  0
   36.5610   26.0590   39.6310 N   0  0  0  0  0  0  0  0  0  0  0  0
   36.0340   24.1940   38.8630 H   0  0  0  0  0  0  0  0  0  0  0  0
   36.4160   22.9850   41.0150 H   0  0  0  0  0  0  0  0  0  0  0  0
   37.1860   24.3080   43.0150 H   0  0  0  0  0  0  0  0  0  0  0  0
   39.5770   30.5590   38.2460 C   0  0  1  0  0  3  0  0  0  0  0  0
   38.5520   31.1600   39.2040 C   0  0  2  0  0  3  0  0  0  0  0  0
   39.3600   32.0140   39.9170 O   0  0  0  0  0  0  0  0  0  0  0  0
   40.0320   32.7370   38.9470 C   0  0  0  0  0  2  0  0  0  0  0  0
   40.2030   31.8430   37.7350 C   0  0  2  0  0  3  0  0  0  0  0  0
   40.5340   29.8350   38.9570 O   0  0  0  0  0  0  0  0  0  0  0  0
   40.9020   30.4780   39.6390 H   0  0  0  0  0  0  0  0  0  0  0  0
   39.4540   32.3030   36.6700 O   0  0  0  0  0  0  0  0  0  0  0  0
   39.3350   33.2770   36.6220 H   0  0  0  0  0  0  0  0  0  0  0  0
  1 12  1  0  0  0  0
  1  2  1  0  0  0  0
  2  6  1  0  0  0  0
  3  7  1  0  0  0  0
  3  2  2  0  0  0  0
  4  3  1  0  0  0  0
  5  4  1  0  0  0  0
  5  1  2  0  0  0  0
  8  9  1  0  0  0  0
  9 15  1  0  0  0  0
  9 10  2  0  0  0  0
 10 16  1  0  0  0  0
 11 10  1  0  0  0  0
 12 11  2  0  0  0  0
 13  8  2  0  0  0  0
 13 12  1  0  0  0  0
 14  8  1  0  0  0  0
 17 22  1  1  0  0  0
 17 18  1  0  0  0  0
 18 19  1  0  0  0  0
 18  4  1  1  0  0  0
 20 19  1  0  0  0  0
 21 24  1  6  0  0  0
 21 17  1  0  0  0  0
 21 20  1  0  0  0  0
 22 23  1  0  0  0  0
 25 24  1  0  0  0  0
M  END
>  <minimizedAffinity>
-4.74584484

$$$$

 OpenBabel03242520033D

 25 27  0  0  1  0  0  0  0  0999 V2000
   37.2540   26.4000   41.0890 C   0  0  0  0  0  0  0  0  0  0  0  0
   36.9610   26.8120   42.3960 C   0  0  0  0  0  0  0  0  0  0  0  0
   37.0550   28.1880   42.3890 C   0  0  0  0  0  0  0  0  0  0  0  0
   37.3850   28.5940   41.1580 N   0  0  0  0  0  0  0  0  0  0  0  0
   37.4960   27.4970   40.4060 N   0  0  0  0  0  0  0  0  0  0  0  0
   36.7120   26.1650   43.2310 H   0  0  0  0  0  0  0  0  0  0  0  0
   36.8850   28.8360   43.2600 H   0  0  0  0  0  0  0  0  0  0  0  0
   38.3460   22.9410   40.6390 C   0  0  0  0  0  0  0  0  0  0  0  0
   37.3060   22.3660   39.8880 C   0  0  0  0  0  0  0  0  0  0  0  0
   36.2240   23.1890   39.5410 C   0  0  0  0  0  0  0  0  0  0  0  0
   36.2670   24.4770   39.9570 N   0  0  0  0  0  0  0  0  0  0  0  0
   37.2640   25.0050   40.6690 C   0  0  0  0  0  0  0  0  0  0  0  0
   38.3280   24.2380   41.0250 N   0  0  0  0  0  0  0  0  0  0  0  0
   39.2010   22.3470   40.9320 H   0  0  0  0  0  0  0  0  0  0  0  0
   37.3430   21.3430   39.5980 H   0  0  0  0  0  0  0  0  0  0  0  0
   35.3940   22.8060   38.9630 H   0  0  0  0  0  0  0  0  0  0  0  0
   36.3720   30.4920   39.9720 C   0  0  1  0  0  3  0  0  0  0  0  0
   37.5890   29.9190   40.6940 C   0  0  2  0  0  3  0  0  0  0  0  0
   38.5460   30.0830   39.7200 O   0  0  0  0  0  0  0  0  0  0  0  0
   38.4230   31.4090   39.3410 C   0  0  0  0  0  2  0  0  0  0  0  0
   36.9710   31.8080   39.5100 C   0  0  2  0  0  3  0  0  0  0  0  0
   36.0640   29.7140   38.8560 O   0  0  0  0  0  0  0  0  0  0  0  0
   36.9120   29.6750   38.3150 H   0  0  0  0  0  0  0  0  0  0  0  0
   36.8260   32.7350   40.5230 O   0  0  0  0  0  0  0  0  0  0  0  0
   37.5830   33.3480   40.6500 H   0  0  0  0  0  0  0  0  0  0  0  0
  1  2  1  0  0  0  0
  2  6  1  0  0  0  0
  3  2  2  0  0  0  0
  3  7  1  0  0  0  0
  4  3  1  0  0  0  0
  5  1  2  0  0  0  0
  5  4  1  0  0  0  0
  8 14  1  0  0  0  0
  8 13  1  0  0  0  0
  9  8  2  0  0  0  0
 10  9  1  0  0  0  0
 10 11  2  0  0  0  0
 11 12  1  0  0  0  0
 12 13  2  0  0  0  0
 12  1  1  0  0  0  0
 15  9  1  0  0  0  0
 16 10  1  0  0  0  0
 17 22  1  6  0  0  0
 17 18  1  0  0  0  0
 18  4  1  6  0  0  0
 19 18  1  0  0  0  0
 20 21  1  0  0  0  0
 20 19  1  0  0  0  0
 21 17  1  0  0  0  0
 21 24  1  1  0  0  0
 23 22  1  0  0  0  0
 24 25  1  0  0  0  0
M  END
>  <minimizedAffinity>
-4.57199383

$$$$

 OpenBabel03242520033D

 25 27  0  0  1  0  0  0  0  0999 V2000
   37.8030   28.1510   41.0310 C   0  0  0  0  0  0  0  0  0  0  0  0
   36.6140   28.6630   41.5680 C   0  0  0  0  0  0  0  0  0  0  0  0
   36.6060   30.0070   41.2600 C   0  0  0  0  0  0  0  0  0  0  0  0
   37.7190   30.3020   40.5780 N   0  0  0  0  0  0  0  0  0  0  0  0
   38.4110   29.1670   40.4600 N   0  0  0  0  0  0  0  0  0  0  0  0
   35.8620   28.1000   42.1140 H   0  0  0  0  0  0  0  0  0  0  0  0
   35.8100   30.7120   41.5350 H   0  0  0  0  0  0  0  0  0  0  0  0
   38.7190   24.7430   40.0810 C   0  0  0  0  0  0  0  0  0  0  0  0
   38.9420   24.1090   41.3160 C   0  0  0  0  0  0  0  0  0  0  0  0
   38.7720   24.8760   42.4800 C   0  0  0  0  0  0  0  0  0  0  0  0
   38.4050   26.1690   42.3210 N   0  0  0  0  0  0  0  0  0  0  0  0
   38.1970   26.7530   41.1390 C   0  0  0  0  0  0  0  0  0  0  0  0
   38.3530   26.0420   39.9900 N   0  0  0  0  0  0  0  0  0  0  0  0
   38.8370   24.1940   39.1570 H   0  0  0  0  0  0  0  0  0  0  0  0
   39.2290   23.0860   41.3600 H   0  0  0  0  0  0  0  0  0  0  0  0
   38.9270   24.4450   43.4580 H   0  0  0  0  0  0  0  0  0  0  0  0
   39.5400   31.9470   40.4870 C   0  0  1  0  0  3  0  0  0  0  0  0
   38.1270   31.5580   40.0620 C   0  0  2  0  0  3  0  0  0  0  0  0
   37.4300   32.6560   40.5100 O   0  0  0  0  0  0  0  0  0  0  0  0
   38.1260   33.7350   39.9920 C   0  0  0  0  0  2  0  0  0  0  0  0
   39.5870   33.3450   39.8980 C   0  0  2  0  0  3  0  0  0  0  0  0
   39.6190   32.0340   41.8760 O   0  0  0  0  0  0  0  0  0  0  0  0
   38.8920   32.6770   42.1450 H   0  0  0  0  0  0  0  0  0  0  0  0
   39.9910   33.2520   38.5810 O   0  0  0  0  0  0  0  0  0  0  0  0
   39.5440   33.8630   37.9540 H   0  0  0  0  0  0  0  0  0  0  0  0
  1 12  1  0  0  0  0
  1  2  1  0  0  0  0
  2  6  1  0  0  0  0
  3  7  1  0  0  0  0
  3  2  2  0  0  0  0
  4  3  1  0  0  0  0
  5  4  1  0  0  0  0
  5  1  2  0  0  0  0
  8  9  1  0  0  0  0
  9 15  1  0  0  0  0
  9 10  2  0  0  0  0
 10 16  1  0  0  0  0
 11 10  1  0  0  0  0
 12 11  2  0  0  0  0
 13  8  2  0  0  0  0
 13 12  1  0  0  0  0
 14  8  1  0  0  0  0
 17 22  1  1  0  0  0
 18 17  1  0  0  0  0
 18 19  1  0  0  0  0
 18  4  1  1  0  0  0
 20 19  1  0  0  0  0
 21 24  1  6  0  0  0
 21 20  1  0  0  0  0
 21 17  1  0  0  0  0
 22 23  1  0  0  0  0
 25 24  1  0  0  0  0
M  END
>  <minimizedAffinity>
-4.5583849

$$$$

 OpenBabel03242520033D

 25 27  0  0  1  0  0  0  0  0999 V2000
   38.0010   29.5460   41.6210 C   0  0  0  0  0  0  0  0  0  0  0  0
   37.8480   29.2860   42.9900 C   0  0  0  0  0  0  0  0  0  0  0  0
   37.8490   27.9130   43.1160 C   0  0  0  0  0  0  0  0  0  0  0  0
   37.9940   27.3650   41.9040 N   0  0  0  0  0  0  0  0  0  0  0  0
   38.0810   28.3730   41.0330 N   0  0  0  0  0  0  0  0  0  0  0  0
   37.7500   30.0280   43.7760 H   0  0  0  0  0  0  0  0  0  0  0  0
   37.7480   27.3670   44.0640 H   0  0  0  0  0  0  0  0  0  0  0  0
   39.1410   32.9410   40.8910 C   0  0  0  0  0  0  0  0  0  0  0  0
   38.1620   33.4320   40.0100 C   0  0  0  0  0  0  0  0  0  0  0  0
   37.1040   32.5730   39.6720 C   0  0  0  0  0  0  0  0  0  0  0  0
   37.1090   31.3370   40.2240 N   0  0  0  0  0  0  0  0  0  0  0  0
   38.0490   30.8890   41.0590 C   0  0  0  0  0  0  0  0  0  0  0  0
   39.0890   31.6920   41.4080 N   0  0  0  0  0  0  0  0  0  0  0  0
   39.9760   33.5640   41.1810 H   0  0  0  0  0  0  0  0  0  0  0  0
   38.2260   34.4180   39.6170 H   0  0  0  0  0  0  0  0  0  0  0  0
   36.3190   32.8930   39.0010 H   0  0  0  0  0  0  0  0  0  0  0  0
   37.7610   25.7320   40.0850 C   0  0  1  0  0  3  0  0  0  0  0  0
   38.0480   25.9900   41.5610 C   0  0  2  0  0  3  0  0  0  0  0  0
   37.0960   25.1810   42.1370 O   0  0  0  0  0  0  0  0  0  0  0  0
   37.2700   23.9560   41.5160 C   0  0  0  0  0  2  0  0  0  0  0  0
   37.7630   24.2140   40.1060 C   0  0  2  0  0  3  0  0  0  0  0  0
   36.4820   26.1820   39.7560 O   0  0  0  0  0  0  0  0  0  0  0  0
   35.8630   25.7240   40.4060 H   0  0  0  0  0  0  0  0  0  0  0  0
   39.0630   23.7750   39.9470 O   0  0  0  0  0  0  0  0  0  0  0  0
   39.3160   22.9920   40.4820 H   0  0  0  0  0  0  0  0  0  0  0  0
  1  2  1  0  0  0  0
  2  3  2  0  0  0  0
  2  6  1  0  0  0  0
  3  7  1  0  0  0  0
  4  3  1  0  0  0  0
  5  1  2  0  0  0  0
  5  4  1  0  0  0  0
  8 14  1  0  0  0  0
  8 13  1  0  0  0  0
  9  8  2  0  0  0  0
 10  9  1  0  0  0  0
 10 11  2  0  0  0  0
 11 12  1  0  0  0  0
 12 13  2  0  0  0  0
 12  1  1  0  0  0  0
 15  9  1  0  0  0  0
 16 10  1  0  0  0  0
 17 22  1  1  0  0  0
 17 21  1  0  0  0  0
 17 18  1  0  0  0  0
 18  4  1  6  0  0  0
 18 19  1  0  0  0  0
 20 19  1  0  0  0  0
 21 24  1  1  0  0  0
 21 20  1  0  0  0  0
 22 23  1  0  0  0  0
 24 25  1  0  0  0  0
M  END
>  <minimizedAffinity>
-4.49557924

$$$$
