
     RDKit          3D

 49 52  0  0  0  0  0  0  0  0999 V2000
   44.5046   35.5330   45.1162 C   0  0  0  0  0  0  0  0  0  0  0  0
   45.1664   35.5055   43.8791 C   0  0  0  0  0  0  0  0  0  0  0  0
   46.0864   34.5437   43.6399 C   0  0  0  0  0  0  0  0  0  0  0  0
   46.3158   33.6474   44.6327 N   0  0  0  0  0  0  0  0  0  0  0  0
   45.6884   33.6777   45.7991 C   0  0  0  0  0  0  0  0  0  0  0  0
   44.7776   34.6148   46.0598 N   0  0  0  0  0  0  0  0  0  0  0  0
   46.0129   32.6814   46.7838 N   0  0  0  0  0  0  0  0  0  0  0  0
   45.2649   32.4523   47.9681 C   0  0  0  0  0  0  0  0  0  0  0  0
   46.3357   32.1170   48.9926 C   0  0  0  0  0  0  0  0  0  0  0  0
   47.6202   32.0023   48.2342 C   0  0  0  0  0  0  0  0  0  0  0  0
   47.1322   31.7700   46.8043 C   0  0  1  0  0  0  0  0  0  0  0  0
   44.8057   36.5309   42.9368 N   0  0  0  0  0  0  0  0  0  0  0  0
   46.6184   30.0795   46.6375 S   0  0  0  0  0  0  0  0  0  0  0  0
   45.6222   30.5121   43.4911 O   0  0  0  0  0  0  0  0  0  0  0  0
   44.9840   29.9833   44.4180 C   0  0  0  0  0  0  0  0  0  0  0  0
   45.0728   29.7849   45.8843 C   0  0  1  0  0  0  0  0  0  0  0  0
   44.5307   28.3858   46.0408 C   0  0  0  0  0  0  0  0  0  0  0  0
   43.2194   28.5962   45.2823 C   0  0  0  0  0  0  0  0  0  0  0  0
   43.7377   29.3111   44.1191 N   0  0  0  0  0  0  0  0  0  0  0  0
   43.7584   36.3127   45.3107 H   0  0  0  0  0  0  0  0  0  0  0  0
   46.5952   34.5113   42.7064 H   0  0  0  0  0  0  0  0  0  0  0  0
   44.9099   33.4778   48.3104 H   0  0  0  0  0  0  0  0  0  0  0  0
   44.4274   31.8344   48.0467 H   0  0  0  0  0  0  0  0  0  0  0  0
   46.0816   31.0878   49.3836 H   0  0  0  0  0  0  0  0  0  0  0  0
   46.3475   32.7589   49.8704 H   0  0  0  0  0  0  0  0  0  0  0  0
   48.1975   31.1256   48.5986 H   0  0  0  0  0  0  0  0  0  0  0  0
   48.1836   32.9579   48.3124 H   0  0  0  0  0  0  0  0  0  0  0  0
   47.8649   32.1264   46.0582 H   0  0  0  0  0  0  0  0  0  0  0  0
   43.8164   36.4671   42.6066 H   0  0  0  0  0  0  0  0  0  0  0  0
   45.4381   37.2859   42.5882 H   0  0  0  0  0  0  0  0  0  0  0  0
   44.1906   30.4064   46.2075 H   0  0  0  0  0  0  0  0  0  0  0  0
   45.1251   27.6337   45.4964 H   0  0  0  0  0  0  0  0  0  0  0  0
   44.3343   28.1243   47.0972 H   0  0  0  0  0  0  0  0  0  0  0  0
   42.8446   27.5963   45.0751 H   0  0  0  0  0  0  0  0  0  0  0  0
   42.5218   29.2282   45.8666 H   0  0  0  0  0  0  0  0  0  0  0  0
   43.0120   27.8998   40.9415 O   0  0  0  0  0  0  0  0  0  0  0  0
   43.8060   28.7488   41.7132 C   0  0  2  0  0  0  0  0  0  0  0  0
   43.0093   29.2936   42.8370 C   0  0  2  0  0  0  0  0  0  0  0  0
   42.5870   30.5335   42.4576 O   0  0  0  0  0  0  0  0  0  0  0  0
   43.3733   31.0324   41.4553 C   0  0  0  0  0  0  0  0  0  0  0  0
   44.1466   29.9243   40.8258 C   0  0  1  0  0  0  0  0  0  0  0  0
   45.5313   30.1674   40.8290 O   0  0  0  0  0  0  0  0  0  0  0  0
   42.0686   28.2129   40.8903 H   0  0  0  0  0  0  0  0  0  0  0  0
   44.7056   28.1817   42.0196 H   0  0  0  0  0  0  0  0  0  0  0  0
   42.0818   28.6722   42.9727 H   0  0  0  0  0  0  0  0  0  0  0  0
   42.6746   31.5202   40.7154 H   0  0  0  0  0  0  0  0  0  0  0  0
   44.0683   31.8442   41.7462 H   0  0  0  0  0  0  0  0  0  0  0  0
   43.7927   29.8028   39.7757 H   0  0  0  0  0  0  0  0  0  0  0  0
   45.9701   29.6342   41.5515 H   0  0  0  0  0  0  0  0  0  0  0  0
  1  6  2  0
  2  1  1  0
  3  2  2  0
  3  4  1  0
  4  5  2  0
  5  6  1  0
  5  7  1  0
  7 11  1  0
  7  8  1  0
  8  9  1  0
 10  9  1  0
 11 10  1  0
 12  2  1  0
 13 11  1  0
 14 15  2  0
 15 16  1  0
 16 17  1  0
 16 13  1  0
 18 17  1  0
 19 15  1  0
 19 18  1  0
  1 20  1  0
  3 21  1  0
  8 22  1  0
  8 23  1  0
  9 24  1  0
  9 25  1  0
 10 26  1  0
 10 27  1  0
 11 28  1  6
 12 29  1  0
 12 30  1  0
 16 31  1  1
 17 32  1  0
 17 33  1  0
 18 34  1  0
 18 35  1  0
 36 37  1  0
 37 38  1  0
 38 39  1  0
 39 40  1  0
 40 41  1  0
 41 42  1  0
 41 37  1  0
 36 43  1  0
 37 44  1  1
 38 45  1  1
 40 46  1  0
 40 47  1  0
 41 48  1  6
 42 49  1  0
 19 38  1  0
M  ISO  8  20  14  21  14  22  13  23  13  24  13  25  13  26  13  27  13
M  ISO  6  28  13  31  13  32  13  33  13  34  13  35  13
M  END
>  <DihAtoms>  (1) 
14,18,37,36

>  <DihDeg>  (1) 
-121.41951543982086

$$$$
