
 OpenBabel03242515343D

 28 30  0  0  1  0  0  0  0  0999 V2000
   46.5070   34.6190   42.4470 C   0  0  0  0  0  0  0  0  0  0  0  0
   47.2630   34.8030   41.2650 C   0  0  0  0  0  0  0  0  0  0  0  0
   48.3050   33.8790   41.0000 C   0  0  0  0  0  0  0  0  0  0  0  0
   48.5290   32.8690   41.8830 N   0  0  0  0  0  0  0  0  0  0  0  0
   47.7780   32.7350   43.0010 C   0  0  0  0  0  0  0  0  0  0  0  0
   46.7820   33.5920   43.2850 N   0  0  0  0  0  0  0  0  0  0  0  0
   47.9320   31.7240   43.9740 N   0  0  0  0  0  0  0  0  0  0  0  0
   48.6460   30.6610   43.5400 C   0  0  0  0  0  0  0  0  0  0  0  0
   48.8660   29.5950   44.4060 C   0  0  0  0  0  0  0  0  0  0  0  0
   48.3170   29.7180   45.6810 C   0  0  0  0  0  0  0  0  0  0  0  0
   48.5080   28.7610   46.4730 O   0  0  0  0  0  0  0  0  0  0  0  0
   47.6140   30.7930   46.0700 N   0  0  0  0  0  0  0  0  0  0  0  0
   47.4230   31.8000   45.2070 C   0  0  0  0  0  0  0  0  0  0  0  0
   46.7810   32.8600   45.4580 O   0  0  0  0  0  0  0  0  0  0  0  0
   45.7150   35.3250   42.6460 H   0  0  0  0  0  0  0  0  0  0  0  0
   47.0560   35.6200   40.5840 H   0  0  0  0  0  0  0  0  0  0  0  0
   48.9090   33.9800   40.1080 H   0  0  0  0  0  0  0  0  0  0  0  0
   49.0670   30.5780   42.5460 H   0  0  0  0  0  0  0  0  0  0  0  0
   49.4330   28.7320   44.0860 H   0  0  0  0  0  0  0  0  0  0  0  0
   45.7140   30.2640   47.5680 C   0  0  1  0  0  0  0  0  0  0  0  0
   47.0470   30.9260   47.3790 C   0  0  2  0  0  0  0  0  0  0  0  0
   46.9010   32.2530   47.7620 O   0  0  0  0  0  0  0  0  0  0  0  0
   45.6950   32.3980   48.4160 C   0  0  0  0  0  0  0  0  0  0  0  0
   45.3000   30.9830   48.8650 C   0  0  2  0  0  0  0  0  0  0  0  0
   44.7610   30.6610   46.6420 O   0  0  0  0  0  0  0  0  0  0  0  0
   43.9890   30.0390   46.7490 H   0  0  0  0  0  0  0  0  0  0  0  0
   46.1310   30.6650   49.9240 O   0  0  0  0  0  0  0  0  0  0  0  0
   46.4560   31.4880   50.4070 H   0  0  0  0  0  0  0  0  0  0  0  0
  1 15  1  0  0  0  0
  1  6  1  0  0  0  0
  2  1  2  0  0  0  0
  3  2  1  0  0  0  0
  3  4  2  0  0  0  0
  4  5  1  0  0  0  0
  5  6  2  0  0  0  0
  5  7  1  0  0  0  0
  7 13  1  0  0  0  0
  8  7  1  0  0  0  0
  8  9  2  0  0  0  0
  9 10  1  0  0  0  0
 10 12  1  0  0  0  0
 10 11  2  0  0  0  0
 13 14  2  0  0  0  0
 13 12  1  0  0  0  0
 16  2  1  0  0  0  0
 17  3  1  0  0  0  0
 18  8  1  0  0  0  0
 19  9  1  0  0  0  0
 20 25  1  6  0  0  0
 20 24  1  0  0  0  0
 21 12  1  6  0  0  0
 21 20  1  0  0  0  0
 21 22  1  0  0  0  0
 22 23  1  0  0  0  0
 23 24  1  0  0  0  0
 24 27  1  1  0  0  0
 25 26  1  0  0  0  0
 27 28  1  0  0  0  0
M  END
>  <minimizedAffinity>
-5.10245419

>  <minimizedRMSD>
3.7733655

$$$$
