
 OpenBabel03252506363D

 44 47  0  0  1  0  0  0  0  0999 V2000
   44.5270   35.4900   45.1380 C   0  0  0  0  0  0  0  0  0  0  0  0
   45.1700   35.4780   43.8910 C   0  0  0  0  0  0  0  0  0  0  0  0
   46.0790   34.5140   43.6220 C   0  0  0  0  0  0  0  0  0  0  0  0
   46.3170   33.5990   44.5970 N   0  0  0  0  0  0  0  0  0  0  0  0
   45.7070   33.6150   45.7720 C   0  0  0  0  0  0  0  0  0  0  0  0
   44.8080   34.5540   46.0630 N   0  0  0  0  0  0  0  0  0  0  0  0
   46.0390   32.6000   46.7360 N   0  0  0  0  0  0  0  0  0  0  0  0
   45.3070   32.3570   47.9270 C   0  0  0  0  0  0  0  0  0  0  0  0
   46.3910   31.9970   48.9300 C   0  0  0  0  0  0  0  0  0  0  0  0
   47.6620   31.8860   48.1500 C   0  0  0  0  0  0  0  0  0  0  0  0
   47.1510   31.6810   46.7240 C   0  0  1  0  0  0  0  0  0  0  0  0
   43.7890   36.2720   45.3570 H   0  0  0  0  0  0  0  0  0  0  0  0
   46.5740   34.4930   42.6800 H   0  0  0  0  0  0  0  0  0  0  0  0
   44.9650   33.3790   48.2910 H   0  0  0  0  0  0  0  0  0  0  0  0
   44.4660   31.7430   48.0090 H   0  0  0  0  0  0  0  0  0  0  0  0
   46.1350   30.9640   49.3080 H   0  0  0  0  0  0  0  0  0  0  0  0
   46.4200   32.6240   49.8170 H   0  0  0  0  0  0  0  0  0  0  0  0
   48.2380   31.0000   48.4920 H   0  0  0  0  0  0  0  0  0  0  0  0
   48.2350   32.8360   48.2350 H   0  0  0  0  0  0  0  0  0  0  0  0
   47.8760   32.0440   45.9730 H   0  0  0  0  0  0  0  0  0  0  0  0
   44.8030   36.5220   42.9710 N   0  0  0  0  0  0  0  0  0  0  0  0
   43.8080   36.4700   42.6550 H   0  0  0  0  0  0  0  0  0  0  0  0
   45.4350   37.2780   42.6250 H   0  0  0  0  0  0  0  0  0  0  0  0
   46.6230   29.9960   46.5380 S   0  0  0  0  0  0  0  0  0  0  0  0
   45.4230   30.3400   43.4520 O   0  0  0  0  0  0  0  0  0  0  0  0
   44.8350   29.8720   44.4420 C   0  0  0  0  0  0  0  0  0  0  0  0
   45.0200   29.7290   45.9050 C   0  0  1  0  0  0  0  0  0  0  0  0
   44.4440   28.3570   46.1580 C   0  0  0  0  0  0  0  0  0  0  0  0
   43.0890   28.5840   45.4820 C   0  0  0  0  0  0  0  0  0  0  0  0
   43.5490   29.2340   44.2580 N   0  0  0  0  0  0  0  0  0  0  0  0
   44.1840   30.3930   46.2630 H   0  0  0  0  0  0  0  0  0  0  0  0
   44.9730   27.5640   45.6050 H   0  0  0  0  0  0  0  0  0  0  0  0
   44.3130   28.1450   47.2350 H   0  0  0  0  0  0  0  0  0  0  0  0
   42.6690   27.5910   45.3440 H   0  0  0  0  0  0  0  0  0  0  0  0
   42.4570   29.2640   46.0870 H   0  0  0  0  0  0  0  0  0  0  0  0
   41.4610   29.9450   43.1430 C   0  0  2  0  0  3  0  0  0  0  0  0
   42.7320   29.1920   43.0310 C   0  0  2  0  0  3  0  0  0  0  0  0
   42.4050   27.9200   42.6620 O   0  0  0  0  0  0  0  0  0  0  0  0
   41.1010   27.6420   42.9670 C   0  0  0  0  0  2  0  0  0  0  0  0
   40.3590   28.9130   43.2050 C   0  0  1  0  0  3  0  0  0  0  0  0
   41.2420   30.6760   41.9740 O   0  0  0  0  0  0  0  0  0  0  0  0
   41.5650   30.1930   41.1650 H   0  0  0  0  0  0  0  0  0  0  0  0
   39.7220   28.9360   44.4580 O   0  0  0  0  0  0  0  0  0  0  0  0
   40.2470   29.4970   45.0960 H   0  0  0  0  0  0  0  0  0  0  0  0
  1 12  1  0  0  0  0
  1  6  1  0  0  0  0
  2  1  2  0  0  0  0
  3  2  1  0  0  0  0
  3  4  2  0  0  0  0
  4  5  1  0  0  0  0
  5  6  2  0  0  0  0
  5  7  1  0  0  0  0
  7  8  1  0  0  0  0
  8 15  1  0  0  0  0
  8 14  1  0  0  0  0
  8  9  1  0  0  0  0
  9 16  1  0  0  0  0
  9 17  1  0  0  0  0
 10 19  1  0  0  0  0
 10 18  1  0  0  0  0
 10  9  1  0  0  0  0
 11 20  1  6  0  0  0
 11  7  1  0  0  0  0
 11 10  1  0  0  0  0
 13  3  1  0  0  0  0
 21  2  1  0  0  0  0
 22 21  1  0  0  0  0
 23 21  1  0  0  0  0
 24 11  1  0  0  0  0
 25 26  2  0  0  0  0
 26 27  1  0  0  0  0
 27 28  1  0  0  0  0
 27 31  1  1  0  0  0
 27 24  1  0  0  0  0
 28 33  1  0  0  0  0
 29 35  1  0  0  0  0
 29 28  1  0  0  0  0
 30 26  1  0  0  0  0
 30 29  1  0  0  0  0
 32 28  1  0  0  0  0
 34 29  1  0  0  0  0
 36 41  1  6  0  0  0
 36 40  1  0  0  0  0
 37 36  1  0  0  0  0
 37 30  1  1  0  0  0
 38 39  1  0  0  0  0
 38 37  1  0  0  0  0
 39 40  1  0  0  0  0
 40 43  1  1  0  0  0
 42 41  1  0  0  0  0
 43 44  1  0  0  0  0
M  END
>  <minimizedAffinity>
-5.93602467

>  <minimizedRMSD>
1.63457298

$$$$
