
 OpenBabel03252506393D

 44 47  0  0  1  0  0  0  0  0999 V2000
   37.4990   25.6690   42.1050 C   0  0  0  0  0  0  0  0  0  0  0  0
   38.8880   25.7590   42.2820 C   0  0  0  0  0  0  0  0  0  0  0  0
   39.5630   26.7860   41.7190 C   0  0  0  0  0  0  0  0  0  0  0  0
   38.8390   27.6850   41.0040 N   0  0  0  0  0  0  0  0  0  0  0  0
   37.5270   27.5950   40.8410 C   0  0  0  0  0  0  0  0  0  0  0  0
   36.8390   26.5920   41.3840 N   0  0  0  0  0  0  0  0  0  0  0  0
   36.8590   28.6000   40.0580 N   0  0  0  0  0  0  0  0  0  0  0  0
   35.4510   28.7600   39.9950 C   0  0  0  0  0  0  0  0  0  0  0  0
   35.2130   29.1580   38.5480 C   0  0  0  0  0  0  0  0  0  0  0  0
   36.5650   29.3730   37.9460 C   0  0  0  0  0  0  0  0  0  0  0  0
   37.4400   29.5880   39.1810 C   0  0  1  0  0  0  0  0  0  0  0  0
   36.9500   24.8350   42.5610 H   0  0  0  0  0  0  0  0  0  0  0  0
   40.6170   26.8670   41.8460 H   0  0  0  0  0  0  0  0  0  0  0  0
   35.0200   27.7070   40.0350 H   0  0  0  0  0  0  0  0  0  0  0  0
   34.8720   29.3160   40.6640 H   0  0  0  0  0  0  0  0  0  0  0  0
   34.6950   30.1610   38.5810 H   0  0  0  0  0  0  0  0  0  0  0  0
   34.5360   28.5070   38.0000 H   0  0  0  0  0  0  0  0  0  0  0  0
   36.5540   30.2840   37.3090 H   0  0  0  0  0  0  0  0  0  0  0  0
   36.8750   28.4590   37.3920 H   0  0  0  0  0  0  0  0  0  0  0  0
   38.4890   29.2940   38.9960 H   0  0  0  0  0  0  0  0  0  0  0  0
   39.5020   24.7220   43.0670 N   0  0  0  0  0  0  0  0  0  0  0  0
   39.1990   24.7200   44.0680 H   0  0  0  0  0  0  0  0  0  0  0  0
   40.1900   24.0190   42.7150 H   0  0  0  0  0  0  0  0  0  0  0  0
   37.1930   31.2400   39.7820 S   0  0  0  0  0  0  0  0  0  0  0  0
   39.8880   31.6870   37.8780 O   0  0  0  0  0  0  0  0  0  0  0  0
   39.6010   32.2830   38.9310 C   0  0  0  0  0  0  0  0  0  0  0  0
   38.6150   32.2170   40.0360 C   0  0  1  0  0  0  0  0  0  0  0  0
   38.3570   33.6790   40.3080 C   0  0  0  0  0  0  0  0  0  0  0  0
   39.8150   34.1070   40.4840 C   0  0  0  0  0  0  0  0  0  0  0  0
   40.3970   33.4230   39.3330 N   0  0  0  0  0  0  0  0  0  0  0  0
   39.3060   31.9490   40.8840 H   0  0  0  0  0  0  0  0  0  0  0  0
   37.9470   34.2100   39.4330 H   0  0  0  0  0  0  0  0  0  0  0  0
   37.7860   33.8410   41.2410 H   0  0  0  0  0  0  0  0  0  0  0  0
   39.8050   35.1930   40.4140 H   0  0  0  0  0  0  0  0  0  0  0  0
   40.2280   33.7190   41.4360 H   0  0  0  0  0  0  0  0  0  0  0  0
   41.9900   33.2220   37.4540 C   0  0  2  0  0  3  0  0  0  0  0  0
   41.6490   33.9060   38.7220 C   0  0  2  0  0  3  0  0  0  0  0  0
   42.7240   33.7640   39.5490 O   0  0  0  0  0  0  0  0  0  0  0  0
   43.5040   32.7100   39.1600 C   0  0  0  0  0  2  0  0  0  0  0  0
   43.1750   32.3330   37.7560 C   0  0  1  0  0  3  0  0  0  0  0  0
   42.4370   34.1580   36.5200 O   0  0  0  0  0  0  0  0  0  0  0  0
   42.9570   34.8920   36.9440 H   0  0  0  0  0  0  0  0  0  0  0  0
   42.8270   30.9780   37.6310 O   0  0  0  0  0  0  0  0  0  0  0  0
   41.8350   30.8860   37.5500 H   0  0  0  0  0  0  0  0  0  0  0  0
  1  2  1  0  0  0  0
  1 12  1  0  0  0  0
  2 21  1  0  0  0  0
  3 13  1  0  0  0  0
  3  2  2  0  0  0  0
  4  3  1  0  0  0  0
  5  4  2  0  0  0  0
  5  6  1  0  0  0  0
  6  1  2  0  0  0  0
  7  5  1  0  0  0  0
  8 14  1  0  0  0  0
  8  7  1  0  0  0  0
  8 15  1  0  0  0  0
  9 16  1  0  0  0  0
  9  8  1  0  0  0  0
 10  9  1  0  0  0  0
 10 11  1  0  0  0  0
 11 20  1  6  0  0  0
 11 24  1  0  0  0  0
 11  7  1  0  0  0  0
 17  9  1  0  0  0  0
 18 10  1  0  0  0  0
 19 10  1  0  0  0  0
 21 22  1  0  0  0  0
 23 21  1  0  0  0  0
 24 27  1  0  0  0  0
 25 26  2  0  0  0  0
 26 30  1  0  0  0  0
 26 27  1  0  0  0  0
 27 28  1  0  0  0  0
 27 31  1  1  0  0  0
 28 29  1  0  0  0  0
 28 33  1  0  0  0  0
 29 35  1  0  0  0  0
 30 29  1  0  0  0  0
 32 28  1  0  0  0  0
 34 29  1  0  0  0  0
 36 41  1  6  0  0  0
 36 40  1  0  0  0  0
 36 37  1  0  0  0  0
 37 30  1  1  0  0  0
 37 38  1  0  0  0  0
 39 38  1  0  0  0  0
 40 43  1  1  0  0  0
 40 39  1  0  0  0  0
 41 42  1  0  0  0  0
 44 43  1  0  0  0  0
M  END
>  <minimizedAffinity>
-6.20989275

$$$$

 OpenBabel03252506393D

 44 47  0  0  1  0  0  0  0  0999 V2000
   38.4770   26.9540   36.1830 C   0  0  0  0  0  0  0  0  0  0  0  0
   37.4170   27.8560   36.0070 C   0  0  0  0  0  0  0  0  0  0  0  0
   36.5240   28.0330   37.0060 C   0  0  0  0  0  0  0  0  0  0  0  0
   36.7150   27.3130   38.1410 N   0  0  0  0  0  0  0  0  0  0  0  0
   37.7190   26.4640   38.3020 C   0  0  0  0  0  0  0  0  0  0  0  0
   38.6110   26.2700   37.3330 N   0  0  0  0  0  0  0  0  0  0  0  0
   37.8230   25.7470   39.5450 N   0  0  0  0  0  0  0  0  0  0  0  0
   38.9590   24.9940   39.9420 C   0  0  0  0  0  0  0  0  0  0  0  0
   38.3490   23.8080   40.6700 C   0  0  0  0  0  0  0  0  0  0  0  0
   36.8850   24.0960   40.7860 C   0  0  0  0  0  0  0  0  0  0  0  0
   36.8360   25.6110   40.5890 C   0  0  1  0  0  0  0  0  0  0  0  0
   39.2020   26.8100   35.3720 H   0  0  0  0  0  0  0  0  0  0  0  0
   35.7150   28.7140   36.8860 H   0  0  0  0  0  0  0  0  0  0  0  0
   39.3590   24.5180   38.9890 H   0  0  0  0  0  0  0  0  0  0  0  0
   39.8000   25.3750   40.4300 H   0  0  0  0  0  0  0  0  0  0  0  0
   38.7800   23.8280   41.7140 H   0  0  0  0  0  0  0  0  0  0  0  0
   38.6220   22.8350   40.2690 H   0  0  0  0  0  0  0  0  0  0  0  0
   36.5250   23.8200   41.7990 H   0  0  0  0  0  0  0  0  0  0  0  0
   36.3390   23.5700   39.9710 H   0  0  0  0  0  0  0  0  0  0  0  0
   35.8660   25.9390   40.1740 H   0  0  0  0  0  0  0  0  0  0  0  0
   37.3590   28.5370   34.7410 N   0  0  0  0  0  0  0  0  0  0  0  0
   38.1650   29.1820   34.5760 H   0  0  0  0  0  0  0  0  0  0  0  0
   36.6050   28.4300   34.0260 H   0  0  0  0  0  0  0  0  0  0  0  0
   37.3430   26.4040   42.0940 S   0  0  0  0  0  0  0  0  0  0  0  0
   39.8100   28.2690   40.8620 O   0  0  0  0  0  0  0  0  0  0  0  0
   38.7260   28.6640   41.3260 C   0  0  0  0  0  0  0  0  0  0  0  0
   37.5470   28.1360   42.0530 C   0  0  1  0  0  0  0  0  0  0  0  0
   36.4190   28.9070   41.4150 C   0  0  0  0  0  0  0  0  0  0  0  0
   36.9960   30.3090   41.6200 C   0  0  0  0  0  0  0  0  0  0  0  0
   38.3680   30.0590   41.1870 N   0  0  0  0  0  0  0  0  0  0  0  0
   37.6710   28.6840   43.0290 H   0  0  0  0  0  0  0  0  0  0  0  0
   36.3370   28.7260   40.3300 H   0  0  0  0  0  0  0  0  0  0  0  0
   35.4650   28.7930   41.9620 H   0  0  0  0  0  0  0  0  0  0  0  0
   36.4190   30.9550   40.9630 H   0  0  0  0  0  0  0  0  0  0  0  0
   36.9570   30.5980   42.6890 H   0  0  0  0  0  0  0  0  0  0  0  0
   38.7390   32.5000   41.0940 C   0  0  2  0  0  3  0  0  0  0  0  0
   39.2120   31.1590   40.6830 C   0  0  2  0  0  3  0  0  0  0  0  0
   39.2990   31.1700   39.3220 O   0  0  0  0  0  0  0  0  0  0  0  0
   38.5230   32.1620   38.7900 C   0  0  0  0  0  2  0  0  0  0  0  0
   38.1770   33.1520   39.8510 C   0  0  1  0  0  3  0  0  0  0  0  0
   39.8270   33.2840   41.4830 O   0  0  0  0  0  0  0  0  0  0  0  0
   40.6390   33.0920   40.9420 H   0  0  0  0  0  0  0  0  0  0  0  0
   36.7910   33.3470   39.9720 O   0  0  0  0  0  0  0  0  0  0  0  0
   36.4450   32.8530   40.7690 H   0  0  0  0  0  0  0  0  0  0  0  0
  1  6  1  0  0  0  0
  2  1  2  0  0  0  0
  2  3  1  0  0  0  0
  3  4  2  0  0  0  0
  4  5  1  0  0  0  0
  5  7  1  0  0  0  0
  6  5  2  0  0  0  0
  7  8  1  0  0  0  0
  7 11  1  0  0  0  0
  8 15  1  0  0  0  0
  8  9  1  0  0  0  0
  9 10  1  0  0  0  0
  9 16  1  0  0  0  0
 10 18  1  0  0  0  0
 11 20  1  6  0  0  0
 11 10  1  0  0  0  0
 11 24  1  0  0  0  0
 12  1  1  0  0  0  0
 13  3  1  0  0  0  0
 14  8  1  0  0  0  0
 17  9  1  0  0  0  0
 19 10  1  0  0  0  0
 21  2  1  0  0  0  0
 22 21  1  0  0  0  0
 23 21  1  0  0  0  0
 25 26  2  0  0  0  0
 26 27  1  0  0  0  0
 27 24  1  0  0  0  0
 27 31  1  1  0  0  0
 28 29  1  0  0  0  0
 28 33  1  0  0  0  0
 28 27  1  0  0  0  0
 29 35  1  0  0  0  0
 30 26  1  0  0  0  0
 30 29  1  0  0  0  0
 32 28  1  0  0  0  0
 34 29  1  0  0  0  0
 36 41  1  6  0  0  0
 37 36  1  0  0  0  0
 37 30  1  6  0  0  0
 38 37  1  0  0  0  0
 39 38  1  0  0  0  0
 39 40  1  0  0  0  0
 40 43  1  1  0  0  0
 40 36  1  0  0  0  0
 42 41  1  0  0  0  0
 43 44  1  0  0  0  0
M  END
>  <minimizedAffinity>
-6.04247189

$$$$

 OpenBabel03252506393D

 44 47  0  0  1  0  0  0  0  0999 V2000
   38.4630   27.3090   36.9560 C   0  0  0  0  0  0  0  0  0  0  0  0
   37.6600   28.3650   36.4990 C   0  0  0  0  0  0  0  0  0  0  0  0
   37.0240   29.1510   37.3970 C   0  0  0  0  0  0  0  0  0  0  0  0
   37.2080   28.8630   38.7110 N   0  0  0  0  0  0  0  0  0  0  0  0
   37.9680   27.8650   39.1360 C   0  0  0  0  0  0  0  0  0  0  0  0
   38.6040   27.0760   38.2730 N   0  0  0  0  0  0  0  0  0  0  0  0
   38.0880   27.6460   40.5530 N   0  0  0  0  0  0  0  0  0  0  0  0
   39.0390   26.7770   41.1500 C   0  0  0  0  0  0  0  0  0  0  0  0
   38.2710   26.1760   42.3160 C   0  0  0  0  0  0  0  0  0  0  0  0
   36.9740   26.9170   42.3890 C   0  0  0  0  0  0  0  0  0  0  0  0
   37.2880   28.1990   41.6190 C   0  0  1  0  0  0  0  0  0  0  0  0
   38.9800   26.6710   36.2280 H   0  0  0  0  0  0  0  0  0  0  0  0
   36.4120   29.9550   37.0640 H   0  0  0  0  0  0  0  0  0  0  0  0
   39.1360   25.8940   40.4390 H   0  0  0  0  0  0  0  0  0  0  0  0
   40.0190   27.0320   41.4040 H   0  0  0  0  0  0  0  0  0  0  0  0
   38.8610   26.4360   43.2440 H   0  0  0  0  0  0  0  0  0  0  0  0
   38.2100   25.0910   42.3140 H   0  0  0  0  0  0  0  0  0  0  0  0
   36.7290   27.1460   43.4480 H   0  0  0  0  0  0  0  0  0  0  0  0
   36.1810   26.3290   41.8770 H   0  0  0  0  0  0  0  0  0  0  0  0
   36.3820   28.6360   41.1620 H   0  0  0  0  0  0  0  0  0  0  0  0
   37.5710   28.5310   35.0730 N   0  0  0  0  0  0  0  0  0  0  0  0
   38.4780   28.7960   34.6260 H   0  0  0  0  0  0  0  0  0  0  0  0
   36.7070   28.4100   34.4990 H   0  0  0  0  0  0  0  0  0  0  0  0
   38.2280   29.2840   42.6630 S   0  0  0  0  0  0  0  0  0  0  0  0
   41.1540   29.5880   41.1040 O   0  0  0  0  0  0  0  0  0  0  0  0
   40.2570   30.4440   41.1980 C   0  0  0  0  0  0  0  0  0  0  0  0
   38.9760   30.6680   41.9100 C   0  0  1  0  0  0  0  0  0  0  0  0
   38.1490   31.3550   40.8520 C   0  0  0  0  0  0  0  0  0  0  0  0
   39.1470   32.4650   40.5120 C   0  0  0  0  0  0  0  0  0  0  0  0
   40.3630   31.6610   40.4230 N   0  0  0  0  0  0  0  0  0  0  0  0
   39.2770   31.5360   42.5610 H   0  0  0  0  0  0  0  0  0  0  0  0
   38.0070   30.7360   39.9520 H   0  0  0  0  0  0  0  0  0  0  0  0
   37.2130   31.7820   41.2570 H   0  0  0  0  0  0  0  0  0  0  0  0
   38.8020   32.8800   39.5680 H   0  0  0  0  0  0  0  0  0  0  0  0
   39.2100   33.2040   41.3350 H   0  0  0  0  0  0  0  0  0  0  0  0
   41.1630   33.1750   38.6400 C   0  0  2  0  0  3  0  0  0  0  0  0
   41.5110   32.1180   39.6170 C   0  0  2  0  0  3  0  0  0  0  0  0
   42.0920   31.1050   38.9130 O   0  0  0  0  0  0  0  0  0  0  0  0
   41.7520   31.1700   37.5910 C   0  0  0  0  0  2  0  0  0  0  0  0
   41.2200   32.5270   37.2760 C   0  0  1  0  0  3  0  0  0  0  0  0
   42.1510   34.1610   38.6420 O   0  0  0  0  0  0  0  0  0  0  0  0
   43.0580   33.7820   38.7920 H   0  0  0  0  0  0  0  0  0  0  0  0
   39.9430   32.4810   36.6910 O   0  0  0  0  0  0  0  0  0  0  0  0
   39.2480   32.7170   37.3690 H   0  0  0  0  0  0  0  0  0  0  0  0
  1  6  1  0  0  0  0
  2  1  2  0  0  0  0
  2  3  1  0  0  0  0
  3  4  2  0  0  0  0
  4  5  1  0  0  0  0
  5  7  1  0  0  0  0
  6  5  2  0  0  0  0
  7  8  1  0  0  0  0
  7 11  1  0  0  0  0
  8 15  1  0  0  0  0
  8  9  1  0  0  0  0
  9 10  1  0  0  0  0
  9 16  1  0  0  0  0
 10 18  1  0  0  0  0
 11 20  1  6  0  0  0
 11 10  1  0  0  0  0
 11 24  1  0  0  0  0
 12  1  1  0  0  0  0
 13  3  1  0  0  0  0
 14  8  1  0  0  0  0
 17  9  1  0  0  0  0
 19 10  1  0  0  0  0
 21  2  1  0  0  0  0
 22 21  1  0  0  0  0
 23 21  1  0  0  0  0
 25 26  2  0  0  0  0
 26 27  1  0  0  0  0
 27 31  1  1  0  0  0
 27 24  1  0  0  0  0
 28 33  1  0  0  0  0
 28 27  1  0  0  0  0
 29 28  1  0  0  0  0
 29 35  1  0  0  0  0
 30 29  1  0  0  0  0
 30 26  1  0  0  0  0
 32 28  1  0  0  0  0
 34 29  1  0  0  0  0
 36 41  1  6  0  0  0
 36 37  1  0  0  0  0
 37 30  1  6  0  0  0
 38 37  1  0  0  0  0
 39 38  1  0  0  0  0
 40 43  1  1  0  0  0
 40 39  1  0  0  0  0
 40 36  1  0  0  0  0
 41 42  1  0  0  0  0
 43 44  1  0  0  0  0
M  END
>  <minimizedAffinity>
-5.87284231

$$$$

 OpenBabel03252506393D

 44 47  0  0  1  0  0  0  0  0999 V2000
   37.7940   25.9990   36.3100 C   0  0  0  0  0  0  0  0  0  0  0  0
   36.6640   26.7910   36.0560 C   0  0  0  0  0  0  0  0  0  0  0  0
   35.9330   27.2580   37.0930 C   0  0  0  0  0  0  0  0  0  0  0  0
   36.3480   26.9240   38.3420 N   0  0  0  0  0  0  0  0  0  0  0  0
   37.4160   26.1760   38.5760 C   0  0  0  0  0  0  0  0  0  0  0  0
   38.1530   25.7030   37.5720 N   0  0  0  0  0  0  0  0  0  0  0  0
   37.7630   25.8770   39.9400 N   0  0  0  0  0  0  0  0  0  0  0  0
   38.9930   25.2950   40.3440 C   0  0  0  0  0  0  0  0  0  0  0  0
   38.5830   24.3830   41.4890 C   0  0  0  0  0  0  0  0  0  0  0  0
   37.1410   24.6770   41.7620 C   0  0  0  0  0  0  0  0  0  0  0  0
   36.9660   26.0580   41.1290 C   0  0  1  0  0  0  0  0  0  0  0  0
   38.3870   25.6200   35.4690 H   0  0  0  0  0  0  0  0  0  0  0  0
   35.0740   27.8600   36.9140 H   0  0  0  0  0  0  0  0  0  0  0  0
   39.2650   24.5530   39.5250 H   0  0  0  0  0  0  0  0  0  0  0  0
   39.8750   25.8160   40.5430 H   0  0  0  0  0  0  0  0  0  0  0  0
   39.1730   24.7280   42.3880 H   0  0  0  0  0  0  0  0  0  0  0  0
   38.8480   23.3370   41.3590 H   0  0  0  0  0  0  0  0  0  0  0  0
   36.9660   24.7220   42.8580 H   0  0  0  0  0  0  0  0  0  0  0  0
   36.5050   23.9210   41.2500 H   0  0  0  0  0  0  0  0  0  0  0  0
   35.9230   26.2320   40.8090 H   0  0  0  0  0  0  0  0  0  0  0  0
   36.3620   27.0500   34.6730 N   0  0  0  0  0  0  0  0  0  0  0  0
   37.0890   27.6220   34.1860 H   0  0  0  0  0  0  0  0  0  0  0  0
   35.5110   26.7200   34.1640 H   0  0  0  0  0  0  0  0  0  0  0  0
   37.6570   27.2810   42.2150 S   0  0  0  0  0  0  0  0  0  0  0  0
   39.2940   29.0340   39.9070 O   0  0  0  0  0  0  0  0  0  0  0  0
   38.3190   29.4040   40.5840 C   0  0  0  0  0  0  0  0  0  0  0  0
   37.5040   28.9510   41.7360 C   0  0  1  0  0  0  0  0  0  0  0  0
   36.1180   29.3820   41.3230 C   0  0  0  0  0  0  0  0  0  0  0  0
   36.4470   30.8480   41.0290 C   0  0  0  0  0  0  0  0  0  0  0  0
   37.6740   30.6580   40.2600 N   0  0  0  0  0  0  0  0  0  0  0  0
   37.7760   29.7500   42.4810 H   0  0  0  0  0  0  0  0  0  0  0  0
   35.7860   28.9110   40.3840 H   0  0  0  0  0  0  0  0  0  0  0  0
   35.3870   29.3040   42.1490 H   0  0  0  0  0  0  0  0  0  0  0  0
   35.6010   31.2210   40.4570 H   0  0  0  0  0  0  0  0  0  0  0  0
   36.6400   31.4040   41.9680 H   0  0  0  0  0  0  0  0  0  0  0  0
   39.2480   32.5040   39.7870 C   0  0  2  0  0  3  0  0  0  0  0  0
   38.1230   31.6780   39.2940 C   0  0  2  0  0  3  0  0  0  0  0  0
   37.1250   32.5390   38.9420 O   0  0  0  0  0  0  0  0  0  0  0  0
   37.2810   33.7480   39.5610 C   0  0  0  0  0  2  0  0  0  0  0  0
   38.6770   33.8750   40.0700 C   0  0  1  0  0  3  0  0  0  0  0  0
   40.1860   32.6790   38.7670 O   0  0  0  0  0  0  0  0  0  0  0  0
   39.7570   32.7520   37.8730 H   0  0  0  0  0  0  0  0  0  0  0  0
   38.7230   34.1610   41.4440 O   0  0  0  0  0  0  0  0  0  0  0  0
   38.9520   33.3350   41.9580 H   0  0  0  0  0  0  0  0  0  0  0  0
  1  6  1  0  0  0  0
  2  1  2  0  0  0  0
  2  3  1  0  0  0  0
  3  4  2  0  0  0  0
  4  5  1  0  0  0  0
  5  7  1  0  0  0  0
  6  5  2  0  0  0  0
  7  8  1  0  0  0  0
  7 11  1  0  0  0  0
  8 15  1  0  0  0  0
  8  9  1  0  0  0  0
  9 10  1  0  0  0  0
  9 16  1  0  0  0  0
 10 18  1  0  0  0  0
 11 20  1  6  0  0  0
 11 10  1  0  0  0  0
 11 24  1  0  0  0  0
 12  1  1  0  0  0  0
 13  3  1  0  0  0  0
 14  8  1  0  0  0  0
 17  9  1  0  0  0  0
 19 10  1  0  0  0  0
 21  2  1  0  0  0  0
 22 21  1  0  0  0  0
 23 21  1  0  0  0  0
 25 26  2  0  0  0  0
 26 27  1  0  0  0  0
 27 24  1  0  0  0  0
 27 31  1  1  0  0  0
 28 27  1  0  0  0  0
 28 33  1  0  0  0  0
 29 28  1  0  0  0  0
 29 35  1  0  0  0  0
 30 26  1  0  0  0  0
 30 29  1  0  0  0  0
 32 28  1  0  0  0  0
 34 29  1  0  0  0  0
 36 41  1  6  0  0  0
 36 40  1  0  0  0  0
 37 36  1  0  0  0  0
 37 30  1  1  0  0  0
 38 37  1  0  0  0  0
 38 39  1  0  0  0  0
 39 40  1  0  0  0  0
 40 43  1  1  0  0  0
 42 41  1  0  0  0  0
 43 44  1  0  0  0  0
M  END
>  <minimizedAffinity>
-5.83160734

$$$$

 OpenBabel03252506393D

 44 47  0  0  1  0  0  0  0  0999 V2000
   38.2170   24.1570   39.7020 C   0  0  0  0  0  0  0  0  0  0  0  0
   37.1380   24.1280   40.5980 C   0  0  0  0  0  0  0  0  0  0  0  0
   37.3050   24.6010   41.8530 C   0  0  0  0  0  0  0  0  0  0  0  0
   38.5320   25.0850   42.1740 N   0  0  0  0  0  0  0  0  0  0  0  0
   39.5470   25.1110   41.3230 C   0  0  0  0  0  0  0  0  0  0  0  0
   39.4090   24.6500   40.0810 N   0  0  0  0  0  0  0  0  0  0  0  0
   40.8080   25.6410   41.7690 N   0  0  0  0  0  0  0  0  0  0  0  0
   41.8970   25.9440   40.9120 C   0  0  0  0  0  0  0  0  0  0  0  0
   43.1090   25.5550   41.7430 C   0  0  0  0  0  0  0  0  0  0  0  0
   42.5910   25.2290   43.1090 C   0  0  0  0  0  0  0  0  0  0  0  0
   41.2330   25.9310   43.1180 C   0  0  1  0  0  0  0  0  0  0  0  0
   38.0820   23.7730   38.6830 H   0  0  0  0  0  0  0  0  0  0  0  0
   36.4950   24.5850   42.5440 H   0  0  0  0  0  0  0  0  0  0  0  0
   41.8850   25.1410   40.1050 H   0  0  0  0  0  0  0  0  0  0  0  0
   42.0350   26.8430   40.3990 H   0  0  0  0  0  0  0  0  0  0  0  0
   43.7370   26.4900   41.8350 H   0  0  0  0  0  0  0  0  0  0  0  0
   43.7620   24.8180   41.2840 H   0  0  0  0  0  0  0  0  0  0  0  0
   43.2630   25.6630   43.8800 H   0  0  0  0  0  0  0  0  0  0  0  0
   42.4710   24.1270   43.2060 H   0  0  0  0  0  0  0  0  0  0  0  0
   40.5220   25.4380   43.8050 H   0  0  0  0  0  0  0  0  0  0  0  0
   35.9050   23.5790   40.0990 N   0  0  0  0  0  0  0  0  0  0  0  0
   35.4770   24.1440   39.3300 H   0  0  0  0  0  0  0  0  0  0  0  0
   35.4450   22.7060   40.4410 H   0  0  0  0  0  0  0  0  0  0  0  0
   41.4850   27.6680   43.3790 S   0  0  0  0  0  0  0  0  0  0  0  0
   40.7320   29.3190   40.5880 O   0  0  0  0  0  0  0  0  0  0  0  0
   40.0440   29.2300   41.6200 C   0  0  0  0  0  0  0  0  0  0  0  0
   40.1520   28.7310   43.0120 C   0  0  1  0  0  0  0  0  0  0  0  0
   38.7780   28.1510   43.2400 C   0  0  0  0  0  0  0  0  0  0  0  0
   37.9710   29.3860   42.8310 C   0  0  0  0  0  0  0  0  0  0  0  0
   38.6870   29.7330   41.6060 N   0  0  0  0  0  0  0  0  0  0  0  0
   40.0770   29.7100   43.5640 H   0  0  0  0  0  0  0  0  0  0  0  0
   38.5360   27.3360   42.5370 H   0  0  0  0  0  0  0  0  0  0  0  0
   38.5950   27.8990   44.3010 H   0  0  0  0  0  0  0  0  0  0  0  0
   36.9560   29.0270   42.6810 H   0  0  0  0  0  0  0  0  0  0  0  0
   38.0620   30.1850   43.5920 H   0  0  0  0  0  0  0  0  0  0  0  0
   36.6740   30.9860   40.9100 C   0  0  2  0  0  3  0  0  0  0  0  0
   38.0250   30.5070   40.5400 C   0  0  2  0  0  3  0  0  0  0  0  0
   37.8890   29.7950   39.3840 O   0  0  0  0  0  0  0  0  0  0  0  0
   36.5980   29.3730   39.2190 C   0  0  0  0  0  2  0  0  0  0  0  0
   35.6950   30.1620   40.1050 C   0  0  1  0  0  3  0  0  0  0  0  0
   36.5100   32.3050   40.4850 O   0  0  0  0  0  0  0  0  0  0  0  0
   36.9750   32.4820   39.6240 H   0  0  0  0  0  0  0  0  0  0  0  0
   34.9210   29.3450   40.9460 O   0  0  0  0  0  0  0  0  0  0  0  0
   35.3020   29.3460   41.8700 H   0  0  0  0  0  0  0  0  0  0  0  0
  1  6  2  0  0  0  0
  1  2  1  0  0  0  0
  2  3  2  0  0  0  0
  3  4  1  0  0  0  0
  3 13  1  0  0  0  0
  5  7  1  0  0  0  0
  5  4  2  0  0  0  0
  6  5  1  0  0  0  0
  7 11  1  0  0  0  0
  8  9  1  0  0  0  0
  8  7  1  0  0  0  0
  9 16  1  0  0  0  0
  9 10  1  0  0  0  0
 10 11  1  0  0  0  0
 10 19  1  0  0  0  0
 10 18  1  0  0  0  0
 11 24  1  0  0  0  0
 11 20  1  1  0  0  0
 12  1  1  0  0  0  0
 14  8  1  0  0  0  0
 15  8  1  0  0  0  0
 17  9  1  0  0  0  0
 21 23  1  0  0  0  0
 21  2  1  0  0  0  0
 22 21  1  0  0  0  0
 25 26  2  0  0  0  0
 26 27  1  0  0  0  0
 27 28  1  0  0  0  0
 27 24  1  0  0  0  0
 27 31  1  1  0  0  0
 28 33  1  0  0  0  0
 29 28  1  0  0  0  0
 29 35  1  0  0  0  0
 30 26  1  0  0  0  0
 30 29  1  0  0  0  0
 32 28  1  0  0  0  0
 34 29  1  0  0  0  0
 36 41  1  6  0  0  0
 37 36  1  0  0  0  0
 37 30  1  1  0  0  0
 38 37  1  0  0  0  0
 39 38  1  0  0  0  0
 39 40  1  0  0  0  0
 40 36  1  0  0  0  0
 40 43  1  1  0  0  0
 42 41  1  0  0  0  0
 43 44  1  0  0  0  0
M  END
>  <minimizedAffinity>
-5.8046298

$$$$

 OpenBabel03252506393D

 44 47  0  0  1  0  0  0  0  0999 V2000
   36.4160   29.5480   36.2090 C   0  0  0  0  0  0  0  0  0  0  0  0
   37.3500   28.5370   35.9410 C   0  0  0  0  0  0  0  0  0  0  0  0
   38.4620   28.4410   36.7040 C   0  0  0  0  0  0  0  0  0  0  0  0
   38.6070   29.3490   37.7030 N   0  0  0  0  0  0  0  0  0  0  0  0
   37.7200   30.3020   37.9520 C   0  0  0  0  0  0  0  0  0  0  0  0
   36.6170   30.4180   37.2140 N   0  0  0  0  0  0  0  0  0  0  0  0
   37.9760   31.2160   39.0330 N   0  0  0  0  0  0  0  0  0  0  0  0
   37.0190   32.1240   39.5560 C   0  0  0  0  0  0  0  0  0  0  0  0
   37.8530   33.3510   39.8870 C   0  0  0  0  0  0  0  0  0  0  0  0
   39.2810   32.9520   39.6870 C   0  0  0  0  0  0  0  0  0  0  0  0
   39.2050   31.4270   39.7590 C   0  0  1  0  0  0  0  0  0  0  0  0
   35.5130   29.6270   35.5900 H   0  0  0  0  0  0  0  0  0  0  0  0
   39.1790   27.6790   36.5110 H   0  0  0  0  0  0  0  0  0  0  0  0
   36.4080   32.4750   38.6620 H   0  0  0  0  0  0  0  0  0  0  0  0
   36.3160   31.9050   40.2970 H   0  0  0  0  0  0  0  0  0  0  0  0
   37.7060   33.5380   40.9910 H   0  0  0  0  0  0  0  0  0  0  0  0
   37.5320   34.2670   39.3980 H   0  0  0  0  0  0  0  0  0  0  0  0
   39.9040   33.3530   40.5150 H   0  0  0  0  0  0  0  0  0  0  0  0
   39.6230   33.2870   38.6830 H   0  0  0  0  0  0  0  0  0  0  0  0
   40.0180   30.9490   39.1840 H   0  0  0  0  0  0  0  0  0  0  0  0
   37.0460   27.6580   34.8430 N   0  0  0  0  0  0  0  0  0  0  0  0
   36.1950   27.0720   35.0000 H   0  0  0  0  0  0  0  0  0  0  0  0
   37.5930   27.5790   33.9570 H   0  0  0  0  0  0  0  0  0  0  0  0
   39.0680   30.9360   41.4590 S   0  0  0  0  0  0  0  0  0  0  0  0
   40.5510   28.1120   40.5060 O   0  0  0  0  0  0  0  0  0  0  0  0
   39.5950   28.2340   41.2920 C   0  0  0  0  0  0  0  0  0  0  0  0
   38.6560   29.2720   41.7790 C   0  0  1  0  0  0  0  0  0  0  0  0
   38.5180   28.9060   43.2360 C   0  0  0  0  0  0  0  0  0  0  0  0
   38.1430   27.4360   43.0360 C   0  0  0  0  0  0  0  0  0  0  0  0
   39.1450   27.0770   42.0360 N   0  0  0  0  0  0  0  0  0  0  0  0
   37.6950   28.8660   41.3530 H   0  0  0  0  0  0  0  0  0  0  0  0
   39.4770   28.9440   43.7780 H   0  0  0  0  0  0  0  0  0  0  0  0
   37.6980   29.4540   43.7350 H   0  0  0  0  0  0  0  0  0  0  0  0
   38.2820   26.9710   44.0100 H   0  0  0  0  0  0  0  0  0  0  0  0
   37.1160   27.3420   42.6310 H   0  0  0  0  0  0  0  0  0  0  0  0
   40.1760   25.1000   43.1020 C   0  0  2  0  0  3  0  0  0  0  0  0
   39.5820   25.6770   41.8750 C   0  0  2  0  0  3  0  0  0  0  0  0
   40.5040   25.5280   40.8820 O   0  0  0  0  0  0  0  0  0  0  0  0
   41.7580   25.3570   41.4000 C   0  0  0  0  0  2  0  0  0  0  0  0
   41.6590   24.9720   42.8370 C   0  0  1  0  0  3  0  0  0  0  0  0
   39.7030   23.8000   43.2870 O   0  0  0  0  0  0  0  0  0  0  0  0
   39.5700   23.3240   42.4240 H   0  0  0  0  0  0  0  0  0  0  0  0
   42.3910   25.8310   43.6740 O   0  0  0  0  0  0  0  0  0  0  0  0
   41.7750   26.4690   44.1330 H   0  0  0  0  0  0  0  0  0  0  0  0
  1  6  1  0  0  0  0
  2  1  2  0  0  0  0
  2  3  1  0  0  0  0
  3  4  2  0  0  0  0
  4  5  1  0  0  0  0
  5  7  1  0  0  0  0
  6  5  2  0  0  0  0
  7  8  1  0  0  0  0
  7 11  1  0  0  0  0
  8  9  1  0  0  0  0
  8 15  1  0  0  0  0
  9 16  1  0  0  0  0
 10 11  1  0  0  0  0
 10  9  1  0  0  0  0
 10 18  1  0  0  0  0
 11 20  1  6  0  0  0
 11 24  1  0  0  0  0
 12  1  1  0  0  0  0
 13  3  1  0  0  0  0
 14  8  1  0  0  0  0
 17  9  1  0  0  0  0
 19 10  1  0  0  0  0
 21 22  1  0  0  0  0
 21  2  1  0  0  0  0
 23 21  1  0  0  0  0
 24 27  1  0  0  0  0
 25 26  2  0  0  0  0
 26 27  1  0  0  0  0
 26 30  1  0  0  0  0
 27 31  1  6  0  0  0
 27 28  1  0  0  0  0
 28 33  1  0  0  0  0
 28 32  1  0  0  0  0
 29 28  1  0  0  0  0
 29 34  1  0  0  0  0
 30 29  1  0  0  0  0
 35 29  1  0  0  0  0
 36 41  1  6  0  0  0
 37 30  1  1  0  0  0
 37 36  1  0  0  0  0
 38 39  1  0  0  0  0
 38 37  1  0  0  0  0
 39 40  1  0  0  0  0
 40 36  1  0  0  0  0
 40 43  1  1  0  0  0
 42 41  1  0  0  0  0
 43 44  1  0  0  0  0
M  END
>  <minimizedAffinity>
-5.80034065

$$$$

 OpenBabel03252506393D

 44 47  0  0  1  0  0  0  0  0999 V2000
   36.9920   29.8960   36.8630 C   0  0  0  0  0  0  0  0  0  0  0  0
   37.8860   28.8600   36.5540 C   0  0  0  0  0  0  0  0  0  0  0  0
   38.9940   28.6920   37.3090 C   0  0  0  0  0  0  0  0  0  0  0  0
   39.1750   29.5550   38.3420 N   0  0  0  0  0  0  0  0  0  0  0  0
   38.3270   30.5310   38.6300 C   0  0  0  0  0  0  0  0  0  0  0  0
   37.2280   30.7180   37.9010 N   0  0  0  0  0  0  0  0  0  0  0  0
   38.6190   31.3920   39.7450 N   0  0  0  0  0  0  0  0  0  0  0  0
   37.6990   32.3160   40.3050 C   0  0  0  0  0  0  0  0  0  0  0  0
   38.5810   33.4960   40.6800 C   0  0  0  0  0  0  0  0  0  0  0  0
   39.9920   33.0500   40.4610 C   0  0  0  0  0  0  0  0  0  0  0  0
   39.8570   31.5280   40.4740 C   0  0  1  0  0  0  0  0  0  0  0  0
   36.0920   30.0320   36.2510 H   0  0  0  0  0  0  0  0  0  0  0  0
   39.6810   27.9110   37.0860 H   0  0  0  0  0  0  0  0  0  0  0  0
   37.1010   32.7250   39.4270 H   0  0  0  0  0  0  0  0  0  0  0  0
   36.9900   32.0960   41.0390 H   0  0  0  0  0  0  0  0  0  0  0  0
   38.4430   33.6470   41.7910 H   0  0  0  0  0  0  0  0  0  0  0  0
   38.2950   34.4420   40.2280 H   0  0  0  0  0  0  0  0  0  0  0  0
   40.6310   33.3950   41.3010 H   0  0  0  0  0  0  0  0  0  0  0  0
   40.3450   33.4100   39.4690 H   0  0  0  0  0  0  0  0  0  0  0  0
   40.6500   31.0410   39.8780 H   0  0  0  0  0  0  0  0  0  0  0  0
   37.5460   28.0360   35.4240 N   0  0  0  0  0  0  0  0  0  0  0  0
   36.6730   27.4780   35.5620 H   0  0  0  0  0  0  0  0  0  0  0  0
   38.0880   27.9700   34.5340 H   0  0  0  0  0  0  0  0  0  0  0  0
   39.7040   30.9780   42.1550 S   0  0  0  0  0  0  0  0  0  0  0  0
   37.6420   28.5410   43.1010 O   0  0  0  0  0  0  0  0  0  0  0  0
   38.8380   28.4340   42.7780 C   0  0  0  0  0  0  0  0  0  0  0  0
   40.0090   29.2900   42.4730 C   0  0  1  0  0  0  0  0  0  0  0  0
   40.6660   28.5270   41.3500 C   0  0  0  0  0  0  0  0  0  0  0  0
   40.7540   27.1720   42.0560 C   0  0  0  0  0  0  0  0  0  0  0  0
   39.4040   27.1130   42.6100 N   0  0  0  0  0  0  0  0  0  0  0  0
   40.6670   29.0190   43.3450 H   0  0  0  0  0  0  0  0  0  0  0  0
   40.0110   28.4120   40.4700 H   0  0  0  0  0  0  0  0  0  0  0  0
   41.6750   28.9100   41.1110 H   0  0  0  0  0  0  0  0  0  0  0  0
   40.9580   26.4510   41.2680 H   0  0  0  0  0  0  0  0  0  0  0  0
   41.5190   27.1950   42.8570 H   0  0  0  0  0  0  0  0  0  0  0  0
   39.5520   24.6510   42.4470 C   0  0  2  0  0  3  0  0  0  0  0  0
   38.7770   25.8170   42.9290 C   0  0  2  0  0  3  0  0  0  0  0  0
   37.5220   25.7010   42.4070 O   0  0  0  0  0  0  0  0  0  0  0  0
   37.5230   24.8860   41.3090 C   0  0  0  0  0  2  0  0  0  0  0  0
   38.7730   24.0730   41.2890 C   0  0  1  0  0  3  0  0  0  0  0  0
   39.5740   23.6620   43.4310 O   0  0  0  0  0  0  0  0  0  0  0  0
   38.7230   23.6240   43.9430 H   0  0  0  0  0  0  0  0  0  0  0  0
   39.4860   24.2150   40.0860 O   0  0  0  0  0  0  0  0  0  0  0  0
   40.2660   24.8250   40.2210 H   0  0  0  0  0  0  0  0  0  0  0  0
  1  6  1  0  0  0  0
  2  1  2  0  0  0  0
  2  3  1  0  0  0  0
  3  4  2  0  0  0  0
  4  5  1  0  0  0  0
  5  7  1  0  0  0  0
  6  5  2  0  0  0  0
  7  8  1  0  0  0  0
  7 11  1  0  0  0  0
  8  9  1  0  0  0  0
  8 15  1  0  0  0  0
  9 16  1  0  0  0  0
 10 11  1  0  0  0  0
 10  9  1  0  0  0  0
 10 18  1  0  0  0  0
 11 20  1  6  0  0  0
 11 24  1  0  0  0  0
 12  1  1  0  0  0  0
 13  3  1  0  0  0  0
 14  8  1  0  0  0  0
 17  9  1  0  0  0  0
 19 10  1  0  0  0  0
 21 22  1  0  0  0  0
 21  2  1  0  0  0  0
 23 21  1  0  0  0  0
 24 27  1  0  0  0  0
 26 25  2  0  0  0  0
 27 26  1  0  0  0  0
 27 31  1  1  0  0  0
 28 29  1  0  0  0  0
 28 27  1  0  0  0  0
 29 30  1  0  0  0  0
 29 35  1  0  0  0  0
 30 26  1  0  0  0  0
 32 28  1  0  0  0  0
 33 28  1  0  0  0  0
 34 29  1  0  0  0  0
 36 37  1  0  0  0  0
 36 41  1  1  0  0  0
 37 30  1  6  0  0  0
 38 37  1  0  0  0  0
 39 38  1  0  0  0  0
 40 43  1  6  0  0  0
 40 39  1  0  0  0  0
 40 36  1  0  0  0  0
 41 42  1  0  0  0  0
 43 44  1  0  0  0  0
M  END
>  <minimizedAffinity>
-5.78248215

$$$$

 OpenBabel03252506393D

 44 47  0  0  1  0  0  0  0  0999 V2000
   35.7150   27.2520   37.5520 C   0  0  0  0  0  0  0  0  0  0  0  0
   35.2110   28.5030   37.9380 C   0  0  0  0  0  0  0  0  0  0  0  0
   35.3840   28.9250   39.2100 C   0  0  0  0  0  0  0  0  0  0  0  0
   36.0510   28.0940   40.0520 N   0  0  0  0  0  0  0  0  0  0  0  0
   36.5250   26.9140   39.6820 C   0  0  0  0  0  0  0  0  0  0  0  0
   36.3670   26.4740   38.4350 N   0  0  0  0  0  0  0  0  0  0  0  0
   37.2120   26.1100   40.6580 N   0  0  0  0  0  0  0  0  0  0  0  0
   37.9660   24.9480   40.3500 C   0  0  0  0  0  0  0  0  0  0  0  0
   37.6810   24.0300   41.5280 C   0  0  0  0  0  0  0  0  0  0  0  0
   36.9150   24.8470   42.5190 C   0  0  0  0  0  0  0  0  0  0  0  0
   37.2510   26.2760   42.0910 C   0  0  1  0  0  0  0  0  0  0  0  0
   35.5750   26.9090   36.5190 H   0  0  0  0  0  0  0  0  0  0  0  0
   35.0070   29.8720   39.5160 H   0  0  0  0  0  0  0  0  0  0  0  0
   37.4080   24.4360   39.5000 H   0  0  0  0  0  0  0  0  0  0  0  0
   38.9700   24.9330   40.0640 H   0  0  0  0  0  0  0  0  0  0  0  0
   38.6850   23.7950   41.9890 H   0  0  0  0  0  0  0  0  0  0  0  0
   37.2570   23.0650   41.2640 H   0  0  0  0  0  0  0  0  0  0  0  0
   37.2910   24.6460   43.5450 H   0  0  0  0  0  0  0  0  0  0  0  0
   35.8270   24.6430   42.4060 H   0  0  0  0  0  0  0  0  0  0  0  0
   36.4500   26.9850   42.3660 H   0  0  0  0  0  0  0  0  0  0  0  0
   34.5270   29.2590   36.9220 N   0  0  0  0  0  0  0  0  0  0  0  0
   35.1470   29.5560   36.1340 H   0  0  0  0  0  0  0  0  0  0  0  0
   33.5130   29.5100   36.9290 H   0  0  0  0  0  0  0  0  0  0  0  0
   38.8780   26.6830   42.6710 S   0  0  0  0  0  0  0  0  0  0  0  0
   39.8120   28.2080   39.8630 O   0  0  0  0  0  0  0  0  0  0  0  0
   39.6770   28.7180   40.9890 C   0  0  0  0  0  0  0  0  0  0  0  0
   39.4390   28.3110   42.3940 C   0  0  1  0  0  0  0  0  0  0  0  0
   38.5220   29.4050   42.8820 C   0  0  0  0  0  0  0  0  0  0  0  0
   39.3930   30.5930   42.4690 C   0  0  0  0  0  0  0  0  0  0  0  0
   39.7530   30.1570   41.1220 N   0  0  0  0  0  0  0  0  0  0  0  0
   40.4230   28.6240   42.8450 H   0  0  0  0  0  0  0  0  0  0  0  0
   37.5790   29.4570   42.3130 H   0  0  0  0  0  0  0  0  0  0  0  0
   38.3840   29.3840   43.9790 H   0  0  0  0  0  0  0  0  0  0  0  0
   38.7360   31.4580   42.5090 H   0  0  0  0  0  0  0  0  0  0  0  0
   40.2860   30.6720   43.1200 H   0  0  0  0  0  0  0  0  0  0  0  0
   40.5170   32.4580   40.6410 C   0  0  2  0  0  3  0  0  0  0  0  0
   40.1360   31.1380   40.0890 C   0  0  2  0  0  3  0  0  0  0  0  0
   39.1400   31.3610   39.1840 O   0  0  0  0  0  0  0  0  0  0  0  0
   38.5280   32.5610   39.4160 C   0  0  0  0  0  2  0  0  0  0  0  0
   39.3950   33.4070   40.2860 C   0  0  1  0  0  3  0  0  0  0  0  0
   41.6500   32.9340   39.9810 O   0  0  0  0  0  0  0  0  0  0  0  0
   41.6580   32.6800   39.0200 H   0  0  0  0  0  0  0  0  0  0  0  0
   38.7290   33.8480   41.4410 O   0  0  0  0  0  0  0  0  0  0  0  0
   39.0160   33.3050   42.2300 H   0  0  0  0  0  0  0  0  0  0  0  0
  1  2  2  0  0  0  0
  1  6  1  0  0  0  0
  2  3  1  0  0  0  0
  3 13  1  0  0  0  0
  3  4  2  0  0  0  0
  5  4  1  0  0  0  0
  5  7  1  0  0  0  0
  6  5  2  0  0  0  0
  7 11  1  0  0  0  0
  8  7  1  0  0  0  0
  8  9  1  0  0  0  0
  9 16  1  0  0  0  0
  9 10  1  0  0  0  0
 10 18  1  0  0  0  0
 11 20  1  1  0  0  0
 11 10  1  0  0  0  0
 11 24  1  0  0  0  0
 12  1  1  0  0  0  0
 14  8  1  0  0  0  0
 15  8  1  0  0  0  0
 17  9  1  0  0  0  0
 19 10  1  0  0  0  0
 21 23  1  0  0  0  0
 21  2  1  0  0  0  0
 22 21  1  0  0  0  0
 25 26  2  0  0  0  0
 26 30  1  0  0  0  0
 26 27  1  0  0  0  0
 27 24  1  0  0  0  0
 27 31  1  1  0  0  0
 27 28  1  0  0  0  0
 28 33  1  0  0  0  0
 29 34  1  0  0  0  0
 29 28  1  0  0  0  0
 29 35  1  0  0  0  0
 30 29  1  0  0  0  0
 32 28  1  0  0  0  0
 36 41  1  6  0  0  0
 37 36  1  0  0  0  0
 37 30  1  1  0  0  0
 38 39  1  0  0  0  0
 38 37  1  0  0  0  0
 39 40  1  0  0  0  0
 40 36  1  0  0  0  0
 40 43  1  1  0  0  0
 42 41  1  0  0  0  0
 43 44  1  0  0  0  0
M  END
>  <minimizedAffinity>
-5.73365307

$$$$

 OpenBabel03252506393D

 44 47  0  0  1  0  0  0  0  0999 V2000
   36.4630   29.4550   32.9620 C   0  0  0  0  0  0  0  0  0  0  0  0
   36.6420   30.8450   32.9230 C   0  0  0  0  0  0  0  0  0  0  0  0
   36.6490   31.5460   34.0790 C   0  0  0  0  0  0  0  0  0  0  0  0
   36.4810   30.8440   35.2290 N   0  0  0  0  0  0  0  0  0  0  0  0
   36.3130   29.5300   35.2600 C   0  0  0  0  0  0  0  0  0  0  0  0
   36.3010   28.8170   34.1350 N   0  0  0  0  0  0  0  0  0  0  0  0
   36.1380   28.8870   36.5350 N   0  0  0  0  0  0  0  0  0  0  0  0
   36.1830   27.4830   36.7360 C   0  0  0  0  0  0  0  0  0  0  0  0
   35.1240   27.2530   37.8010 C   0  0  0  0  0  0  0  0  0  0  0  0
   34.6870   28.6090   38.2560 C   0  0  0  0  0  0  0  0  0  0  0  0
   35.8540   29.4910   37.8140 C   0  0  1  0  0  0  0  0  0  0  0  0
   36.4570   28.8850   32.0240 H   0  0  0  0  0  0  0  0  0  0  0  0
   36.7840   32.6010   34.0650 H   0  0  0  0  0  0  0  0  0  0  0  0
   35.7040   27.0250   35.8100 H   0  0  0  0  0  0  0  0  0  0  0  0
   37.0470   26.9200   36.9010 H   0  0  0  0  0  0  0  0  0  0  0  0
   35.6550   26.7610   38.6680 H   0  0  0  0  0  0  0  0  0  0  0  0
   34.3360   26.5580   37.5200 H   0  0  0  0  0  0  0  0  0  0  0  0
   34.5830   28.6200   39.3620 H   0  0  0  0  0  0  0  0  0  0  0  0
   33.7500   28.8940   37.7270 H   0  0  0  0  0  0  0  0  0  0  0  0
   35.5340   30.5320   37.6270 H   0  0  0  0  0  0  0  0  0  0  0  0
   36.8040   31.4340   31.6210 N   0  0  0  0  0  0  0  0  0  0  0  0
   37.6770   31.1330   31.1320 H   0  0  0  0  0  0  0  0  0  0  0  0
   36.1410   32.1020   31.1680 H   0  0  0  0  0  0  0  0  0  0  0  0
   37.1950   29.2880   38.9590 S   0  0  0  0  0  0  0  0  0  0  0  0
   40.3710   29.8980   38.1660 O   0  0  0  0  0  0  0  0  0  0  0  0
   39.5580   30.6850   38.6820 C   0  0  0  0  0  0  0  0  0  0  0  0
   38.1970   30.6820   39.2700 C   0  0  1  0  0  0  0  0  0  0  0  0
   37.6460   31.9980   38.7810 C   0  0  0  0  0  0  0  0  0  0  0  0
   38.7910   32.8870   39.2720 C   0  0  0  0  0  0  0  0  0  0  0  0
   39.9200   32.0790   38.8190 N   0  0  0  0  0  0  0  0  0  0  0  0
   38.4570   30.9290   40.3370 H   0  0  0  0  0  0  0  0  0  0  0  0
   37.6100   32.0640   37.6810 H   0  0  0  0  0  0  0  0  0  0  0  0
   36.6980   32.2720   39.2790 H   0  0  0  0  0  0  0  0  0  0  0  0
   38.6650   33.8320   38.7490 H   0  0  0  0  0  0  0  0  0  0  0  0
   38.7750   32.9750   40.3760 H   0  0  0  0  0  0  0  0  0  0  0  0
   41.6150   32.6960   37.1290 C   0  0  2  0  0  3  0  0  0  0  0  0
   41.2330   32.6980   38.5590 C   0  0  2  0  0  3  0  0  0  0  0  0
   42.2440   32.0830   39.2390 O   0  0  0  0  0  0  0  0  0  0  0  0
   42.9870   31.2960   38.4030 C   0  0  0  0  0  2  0  0  0  0  0  0
   42.7260   31.6820   36.9860 C   0  0  1  0  0  3  0  0  0  0  0  0
   42.1720   33.9300   36.7890 O   0  0  0  0  0  0  0  0  0  0  0  0
   42.7040   34.3180   37.5340 H   0  0  0  0  0  0  0  0  0  0  0  0
   42.3110   30.5930   36.2020 O   0  0  0  0  0  0  0  0  0  0  0  0
   41.3230   30.6320   36.0580 H   0  0  0  0  0  0  0  0  0  0  0  0
  1  6  1  0  0  0  0
  2  1  2  0  0  0  0
  2  3  1  0  0  0  0
  3  4  2  0  0  0  0
  4  5  1  0  0  0  0
  5  7  1  0  0  0  0
  6  5  2  0  0  0  0
  7  8  1  0  0  0  0
  7 11  1  0  0  0  0
  8 15  1  0  0  0  0
  8  9  1  0  0  0  0
  9 10  1  0  0  0  0
  9 16  1  0  0  0  0
 10 18  1  0  0  0  0
 11 20  1  6  0  0  0
 11 10  1  0  0  0  0
 11 24  1  0  0  0  0
 12  1  1  0  0  0  0
 13  3  1  0  0  0  0
 14  8  1  0  0  0  0
 17  9  1  0  0  0  0
 19 10  1  0  0  0  0
 21  2  1  0  0  0  0
 22 21  1  0  0  0  0
 23 21  1  0  0  0  0
 24 27  1  0  0  0  0
 25 26  2  0  0  0  0
 26 30  1  0  0  0  0
 26 27  1  0  0  0  0
 27 31  1  1  0  0  0
 28 27  1  0  0  0  0
 28 29  1  0  0  0  0
 28 33  1  0  0  0  0
 29 35  1  0  0  0  0
 30 29  1  0  0  0  0
 32 28  1  0  0  0  0
 34 29  1  0  0  0  0
 36 41  1  1  0  0  0
 36 37  1  0  0  0  0
 37 30  1  6  0  0  0
 37 38  1  0  0  0  0
 39 38  1  0  0  0  0
 40 43  1  6  0  0  0
 40 36  1  0  0  0  0
 40 39  1  0  0  0  0
 41 42  1  0  0  0  0
 44 43  1  0  0  0  0
M  END
>  <minimizedAffinity>
-5.72647381

$$$$
