
 OpenBabel03252504283D

 22 23  0  0  1  0  0  0  0  0999 V2000
   37.0420   28.0150   43.0010 C   0  0  0  0  0  0  0  0  0  0  0  0
   36.1920   27.9330   42.2820 H   0  0  0  0  0  0  0  0  0  0  0  0
   36.5530   27.9900   44.0030 H   0  0  0  0  0  0  0  0  0  0  0  0
   39.1030   26.8990   43.6170 C   0  0  0  0  0  0  0  0  0  0  0  0
   37.8930   26.8230   42.9350 C   0  0  0  0  0  0  0  0  0  0  0  0
   37.6190   25.6360   42.2660 C   0  0  0  0  0  0  0  0  0  0  0  0
   38.5160   24.6540   42.3160 N   0  0  0  0  0  0  0  0  0  0  0  0
   39.6870   24.7610   42.9920 C   0  0  0  0  0  0  0  0  0  0  0  0
   40.0350   25.9030   43.6800 N   0  0  0  0  0  0  0  0  0  0  0  0
   39.4060   27.7880   44.1700 H   0  0  0  0  0  0  0  0  0  0  0  0
   36.6770   25.6010   41.7460 H   0  0  0  0  0  0  0  0  0  0  0  0
   40.2930   23.8640   42.9230 H   0  0  0  0  0  0  0  0  0  0  0  0
   37.7480   29.1950   42.7950 O   0  0  0  0  0  0  0  0  0  0  0  0
   36.5810   30.7760   41.3990 C   0  0  1  0  0  3  0  0  0  0  0  0
   37.6150   29.7060   41.5190 C   0  0  1  0  0  3  0  0  0  0  0  0
   38.8260   30.1960   41.0960 O   0  0  0  0  0  0  0  0  0  0  0  0
   38.6370   31.4720   40.6090 C   0  0  0  0  0  2  0  0  0  0  0  0
   37.1640   31.6000   40.2650 C   0  0  2  0  0  3  0  0  0  0  0  0
   35.3390   30.3350   40.9580 O   0  0  0  0  0  0  0  0  0  0  0  0
   35.5020   29.7720   40.1620 H   0  0  0  0  0  0  0  0  0  0  0  0
   36.7200   32.8990   40.2420 O   0  0  0  0  0  0  0  0  0  0  0  0
   35.9980   32.9580   39.5630 H   0  0  0  0  0  0  0  0  0  0  0  0
  1  3  1  0  0  0  0
  2  1  1  0  0  0  0
  4  9  1  0  0  0  0
  4 10  1  0  0  0  0
  5  1  1  0  0  0  0
  5  4  2  0  0  0  0
  6  7  2  0  0  0  0
  6  5  1  0  0  0  0
  7  8  1  0  0  0  0
  8  9  2  0  0  0  0
 11  6  1  0  0  0  0
 12  8  1  0  0  0  0
 13  1  1  0  0  0  0
 14 19  1  6  0  0  0
 14 15  1  0  0  0  0
 15 13  1  1  0  0  0
 16 15  1  0  0  0  0
 17 16  1  0  0  0  0
 18 21  1  1  0  0  0
 18 17  1  0  0  0  0
 18 14  1  0  0  0  0
 20 19  1  0  0  0  0
 22 21  1  0  0  0  0
M  END
>  <minimizedAffinity>
-4.8419323

$$$$

 OpenBabel03252504283D

 22 23  0  0  1  0  0  0  0  0999 V2000
   36.4550   30.3800   41.0900 C   0  0  0  0  0  0  0  0  0  0  0  0
   35.3410   30.4410   41.1370 H   0  0  0  0  0  0  0  0  0  0  0  0
   36.8000   31.2430   41.7060 H   0  0  0  0  0  0  0  0  0  0  0  0
   36.6990   27.9690   41.1220 C   0  0  0  0  0  0  0  0  0  0  0  0
   36.9370   29.1750   41.7730 C   0  0  0  0  0  0  0  0  0  0  0  0
   37.6000   29.1140   42.9920 C   0  0  0  0  0  0  0  0  0  0  0  0
   37.9640   27.9230   43.4610 N   0  0  0  0  0  0  0  0  0  0  0  0
   37.7170   26.7650   42.8000 C   0  0  0  0  0  0  0  0  0  0  0  0
   37.0640   26.7380   41.5870 N   0  0  0  0  0  0  0  0  0  0  0  0
   36.1860   27.9160   40.1620 H   0  0  0  0  0  0  0  0  0  0  0  0
   37.7730   30.0600   43.4760 H   0  0  0  0  0  0  0  0  0  0  0  0
   38.0850   25.8940   43.3310 H   0  0  0  0  0  0  0  0  0  0  0  0
   36.8970   30.4690   39.7750 O   0  0  0  0  0  0  0  0  0  0  0  0
   37.4710   32.7380   40.3550 C   0  0  1  0  0  3  0  0  0  0  0  0
   37.7710   31.5150   39.5530 C   0  0  1  0  0  3  0  0  0  0  0  0
   39.0530   31.1010   39.8200 O   0  0  0  0  0  0  0  0  0  0  0  0
   39.6470   32.0240   40.6550 C   0  0  0  0  0  2  0  0  0  0  0  0
   38.8650   33.3170   40.5130 C   0  0  2  0  0  3  0  0  0  0  0  0
   36.7240   33.7000   39.6870 O   0  0  0  0  0  0  0  0  0  0  0  0
   37.1510   33.8310   38.8050 H   0  0  0  0  0  0  0  0  0  0  0  0
   38.9950   34.1560   41.5910 O   0  0  0  0  0  0  0  0  0  0  0  0
   38.9300   35.0890   41.2570 H   0  0  0  0  0  0  0  0  0  0  0  0
  1  2  1  0  0  0  0
  1  3  1  0  0  0  0
  1  5  1  0  0  0  0
  4  9  2  0  0  0  0
  4  5  1  0  0  0  0
  5  6  2  0  0  0  0
  6  7  1  0  0  0  0
  6 11  1  0  0  0  0
  8 12  1  0  0  0  0
  8  7  2  0  0  0  0
  9  8  1  0  0  0  0
 10  4  1  0  0  0  0
 13  1  1  0  0  0  0
 14 19  1  6  0  0  0
 14 18  1  0  0  0  0
 15 13  1  1  0  0  0
 15 16  1  0  0  0  0
 15 14  1  0  0  0  0
 16 17  1  0  0  0  0
 18 17  1  0  0  0  0
 18 21  1  1  0  0  0
 20 19  1  0  0  0  0
 22 21  1  0  0  0  0
M  END
>  <minimizedAffinity>
-4.57099199

$$$$

 OpenBabel03252504283D

 22 23  0  0  1  0  0  0  0  0999 V2000
   38.6940   27.8050   40.6980 C   0  0  0  0  0  0  0  0  0  0  0  0
   39.7840   27.9180   40.9090 H   0  0  0  0  0  0  0  0  0  0  0  0
   38.6260   27.8650   39.5860 H   0  0  0  0  0  0  0  0  0  0  0  0
   38.8320   25.4070   40.3840 C   0  0  0  0  0  0  0  0  0  0  0  0
   38.2320   26.4620   41.0610 C   0  0  0  0  0  0  0  0  0  0  0  0
   37.2630   26.1380   42.0030 C   0  0  0  0  0  0  0  0  0  0  0  0
   36.9700   24.8550   42.2010 N   0  0  0  0  0  0  0  0  0  0  0  0
   37.5760   23.8490   41.5230 C   0  0  0  0  0  0  0  0  0  0  0  0
   38.5460   24.0850   40.5720 N   0  0  0  0  0  0  0  0  0  0  0  0
   39.6020   25.5620   39.6280 H   0  0  0  0  0  0  0  0  0  0  0  0
   36.8130   26.9720   42.5140 H   0  0  0  0  0  0  0  0  0  0  0  0
   37.2120   22.8700   41.8150 H   0  0  0  0  0  0  0  0  0  0  0  0
   37.9660   28.8140   41.3190 O   0  0  0  0  0  0  0  0  0  0  0  0
   36.8840   30.9530   41.0600 C   0  0  1  0  0  3  0  0  0  0  0  0
   37.3550   29.6820   40.4350 C   0  0  1  0  0  3  0  0  0  0  0  0
   38.2240   29.9750   39.4120 O   0  0  0  0  0  0  0  0  0  0  0  0
   38.2700   31.3440   39.2540 C   0  0  0  0  0  2  0  0  0  0  0  0
   37.0080   31.9050   39.8830 C   0  0  2  0  0  3  0  0  0  0  0  0
   35.5430   30.9580   41.4230 O   0  0  0  0  0  0  0  0  0  0  0  0
   35.0350   30.6210   40.6440 H   0  0  0  0  0  0  0  0  0  0  0  0
   37.1200   33.2230   40.2500 O   0  0  0  0  0  0  0  0  0  0  0  0
   36.2230   33.6390   40.1540 H   0  0  0  0  0  0  0  0  0  0  0  0
  1  2  1  0  0  0  0
  1  5  1  0  0  0  0
  1 13  1  0  0  0  0
  3  1  1  0  0  0  0
  4  9  2  0  0  0  0
  4  5  1  0  0  0  0
  5  6  2  0  0  0  0
  6  7  1  0  0  0  0
  6 11  1  0  0  0  0
  8 12  1  0  0  0  0
  8  7  2  0  0  0  0
  9  8  1  0  0  0  0
 10  4  1  0  0  0  0
 14 19  1  6  0  0  0
 15 14  1  0  0  0  0
 15 13  1  1  0  0  0
 16 15  1  0  0  0  0
 17 16  1  0  0  0  0
 17 18  1  0  0  0  0
 18 21  1  1  0  0  0
 18 14  1  0  0  0  0
 20 19  1  0  0  0  0
 22 21  1  0  0  0  0
M  END
>  <minimizedAffinity>
-4.49473476

$$$$

 OpenBabel03252504283D

 22 23  0  0  1  0  0  0  0  0999 V2000
   36.2700   28.8770   41.4300 C   0  0  0  0  0  0  0  0  0  0  0  0
   36.0860   28.5600   40.3760 H   0  0  0  0  0  0  0  0  0  0  0  0
   35.3130   28.6430   41.9540 H   0  0  0  0  0  0  0  0  0  0  0  0
   38.3870   28.6970   42.5950 C   0  0  0  0  0  0  0  0  0  0  0  0
   37.2920   28.0310   42.0550 C   0  0  0  0  0  0  0  0  0  0  0  0
   37.2790   26.6460   42.1610 C   0  0  0  0  0  0  0  0  0  0  0  0
   38.3010   26.0430   42.7650 N   0  0  0  0  0  0  0  0  0  0  0  0
   39.3550   26.7230   43.2820 C   0  0  0  0  0  0  0  0  0  0  0  0
   39.4440   28.0970   43.2180 N   0  0  0  0  0  0  0  0  0  0  0  0
   38.4860   29.7810   42.5600 H   0  0  0  0  0  0  0  0  0  0  0  0
   36.4210   26.1540   41.7360 H   0  0  0  0  0  0  0  0  0  0  0  0
   40.0920   26.0700   43.7360 H   0  0  0  0  0  0  0  0  0  0  0  0
   36.5800   30.2310   41.4890 O   0  0  0  0  0  0  0  0  0  0  0  0
   37.3420   31.9590   39.9890 C   0  0  1  0  0  3  0  0  0  0  0  0
   36.3310   30.9090   40.3120 C   0  0  1  0  0  3  0  0  0  0  0  0
   36.2640   30.0100   39.2750 O   0  0  0  0  0  0  0  0  0  0  0  0
   37.0790   30.4550   38.2550 C   0  0  0  0  0  2  0  0  0  0  0  0
   37.2860   31.9430   38.4720 C   0  0  2  0  0  3  0  0  0  0  0  0
   36.9860   33.2440   40.3770 O   0  0  0  0  0  0  0  0  0  0  0  0
   36.0620   33.3930   40.0590 H   0  0  0  0  0  0  0  0  0  0  0  0
   38.4210   32.4290   37.8740 O   0  0  0  0  0  0  0  0  0  0  0  0
   38.2420   33.3700   37.6090 H   0  0  0  0  0  0  0  0  0  0  0  0
  1 13  1  0  0  0  0
  1  3  1  0  0  0  0
  1  5  1  0  0  0  0
  2  1  1  0  0  0  0
  4  9  1  0  0  0  0
  5  6  1  0  0  0  0
  5  4  2  0  0  0  0
  6  7  2  0  0  0  0
  7  8  1  0  0  0  0
  8 12  1  0  0  0  0
  9  8  2  0  0  0  0
 10  4  1  0  0  0  0
 11  6  1  0  0  0  0
 14 15  1  0  0  0  0
 14 19  1  1  0  0  0
 15 13  1  1  0  0  0
 16 15  1  0  0  0  0
 17 18  1  0  0  0  0
 17 16  1  0  0  0  0
 18 21  1  6  0  0  0
 18 14  1  0  0  0  0
 20 19  1  0  0  0  0
 22 21  1  0  0  0  0
M  END
>  <minimizedAffinity>
-4.45627165

$$$$

 OpenBabel03252504283D

 22 23  0  0  1  0  0  0  0  0999 V2000
   36.0080   28.1610   39.6090 C   0  0  0  0  0  0  0  0  0  0  0  0
   35.4240   27.6930   38.7800 H   0  0  0  0  0  0  0  0  0  0  0  0
   35.2340   28.6690   40.2310 H   0  0  0  0  0  0  0  0  0  0  0  0
   36.9920   27.5470   41.7360 C   0  0  0  0  0  0  0  0  0  0  0  0
   36.6060   27.1330   40.4660 C   0  0  0  0  0  0  0  0  0  0  0  0
   36.8270   25.8000   40.1420 C   0  0  0  0  0  0  0  0  0  0  0  0
   37.3870   25.0060   41.0530 N   0  0  0  0  0  0  0  0  0  0  0  0
   37.7510   25.4430   42.2850 C   0  0  0  0  0  0  0  0  0  0  0  0
   37.5660   26.7490   42.6840 N   0  0  0  0  0  0  0  0  0  0  0  0
   36.8580   28.5720   42.0810 H   0  0  0  0  0  0  0  0  0  0  0  0
   36.5210   25.5030   39.1540 H   0  0  0  0  0  0  0  0  0  0  0  0
   38.1890   24.6600   42.8930 H   0  0  0  0  0  0  0  0  0  0  0  0
   36.9440   29.0570   39.1060 O   0  0  0  0  0  0  0  0  0  0  0  0
   36.8070   31.0890   40.3980 C   0  0  1  0  0  3  0  0  0  0  0  0
   36.5180   30.3710   39.1210 C   0  0  1  0  0  3  0  0  0  0  0  0
   37.0990   31.0500   38.0780 O   0  0  0  0  0  0  0  0  0  0  0  0
   37.6550   32.2130   38.5660 C   0  0  0  0  0  2  0  0  0  0  0  0
   36.9690   32.5100   39.8880 C   0  0  2  0  0  3  0  0  0  0  0  0
   35.7490   31.1180   41.2980 O   0  0  0  0  0  0  0  0  0  0  0  0
   34.9500   31.4020   40.7900 H   0  0  0  0  0  0  0  0  0  0  0  0
   37.7090   33.3130   40.7190 O   0  0  0  0  0  0  0  0  0  0  0  0
   37.0740   33.8570   41.2550 H   0  0  0  0  0  0  0  0  0  0  0  0
  1  3  1  0  0  0  0
  1  5  1  0  0  0  0
  2  1  1  0  0  0  0
  4 10  1  0  0  0  0
  4  9  1  0  0  0  0
  5  4  2  0  0  0  0
  6  5  1  0  0  0  0
  6  7  2  0  0  0  0
  7  8  1  0  0  0  0
  8  9  2  0  0  0  0
  8 12  1  0  0  0  0
 11  6  1  0  0  0  0
 13  1  1  0  0  0  0
 14 19  1  1  0  0  0
 15 13  1  1  0  0  0
 15 14  1  0  0  0  0
 16 17  1  0  0  0  0
 16 15  1  0  0  0  0
 17 18  1  0  0  0  0
 18 14  1  0  0  0  0
 18 21  1  1  0  0  0
 20 19  1  0  0  0  0
 21 22  1  0  0  0  0
M  END
>  <minimizedAffinity>
-4.44938278

$$$$

 OpenBabel03252504283D

 22 23  0  0  1  0  0  0  0  0999 V2000
   38.3680   30.1090   41.2120 C   0  0  0  0  0  0  0  0  0  0  0  0
   37.4770   29.4750   40.9860 H   0  0  0  0  0  0  0  0  0  0  0  0
   39.1790   29.6660   40.5880 H   0  0  0  0  0  0  0  0  0  0  0  0
   39.1060   32.4160   41.1350 C   0  0  0  0  0  0  0  0  0  0  0  0
   38.1720   31.4740   40.7140 C   0  0  0  0  0  0  0  0  0  0  0  0
   37.1600   31.9200   39.8740 C   0  0  0  0  0  0  0  0  0  0  0  0
   37.1400   33.2050   39.5250 N   0  0  0  0  0  0  0  0  0  0  0  0
   38.0670   34.0980   39.9530 C   0  0  0  0  0  0  0  0  0  0  0  0
   39.1030   33.7360   40.7870 N   0  0  0  0  0  0  0  0  0  0  0  0
   39.9360   32.1600   41.7930 H   0  0  0  0  0  0  0  0  0  0  0  0
   36.4500   31.1730   39.5620 H   0  0  0  0  0  0  0  0  0  0  0  0
   37.8950   35.0970   39.5680 H   0  0  0  0  0  0  0  0  0  0  0  0
   38.6710   30.0660   42.5680 O   0  0  0  0  0  0  0  0  0  0  0  0
   37.4400   27.9990   42.4170 C   0  0  1  0  0  3  0  0  0  0  0  0
   38.4330   28.8370   43.1510 C   0  0  1  0  0  3  0  0  0  0  0  0
   39.6160   28.1480   43.2600 O   0  0  0  0  0  0  0  0  0  0  0  0
   39.4360   26.8820   42.7450 C   0  0  0  0  0  2  0  0  0  0  0  0
   37.9430   26.6070   42.7600 C   0  0  2  0  0  3  0  0  0  0  0  0
   36.1430   28.0740   42.9070 O   0  0  0  0  0  0  0  0  0  0  0  0
   36.2000   27.9530   43.8870 H   0  0  0  0  0  0  0  0  0  0  0  0
   37.5560   25.6440   41.8620 O   0  0  0  0  0  0  0  0  0  0  0  0
   36.7730   25.1710   42.2470 H   0  0  0  0  0  0  0  0  0  0  0  0
  1 13  1  0  0  0  0
  2  1  1  0  0  0  0
  3  1  1  0  0  0  0
  4 10  1  0  0  0  0
  5  4  2  0  0  0  0
  5  1  1  0  0  0  0
  6  5  1  0  0  0  0
  7  6  2  0  0  0  0
  7  8  1  0  0  0  0
  8  9  2  0  0  0  0
  9  4  1  0  0  0  0
 11  6  1  0  0  0  0
 12  8  1  0  0  0  0
 14 18  1  0  0  0  0
 14 19  1  1  0  0  0
 14 15  1  0  0  0  0
 15 13  1  6  0  0  0
 15 16  1  0  0  0  0
 17 18  1  0  0  0  0
 17 16  1  0  0  0  0
 18 21  1  6  0  0  0
 19 20  1  0  0  0  0
 21 22  1  0  0  0  0
M  END
>  <minimizedAffinity>
-4.14085579

$$$$

 OpenBabel03252504283D

 22 23  0  0  1  0  0  0  0  0999 V2000
   38.6820   30.6510   39.8590 C   0  0  0  0  0  0  0  0  0  0  0  0
   37.6540   30.7720   39.4390 H   0  0  0  0  0  0  0  0  0  0  0  0
   39.1890   29.9660   39.1390 H   0  0  0  0  0  0  0  0  0  0  0  0
   40.3560   32.0330   38.7810 C   0  0  0  0  0  0  0  0  0  0  0  0
   39.4170   31.9180   39.8010 C   0  0  0  0  0  0  0  0  0  0  0  0
   39.2750   33.0060   40.6540 C   0  0  0  0  0  0  0  0  0  0  0  0
   40.0350   34.0800   40.4490 N   0  0  0  0  0  0  0  0  0  0  0  0
   40.9410   34.1590   39.4430 C   0  0  0  0  0  0  0  0  0  0  0  0
   41.1420   33.1250   38.5540 N   0  0  0  0  0  0  0  0  0  0  0  0
   40.5370   31.2330   38.0630 H   0  0  0  0  0  0  0  0  0  0  0  0
   38.5440   32.8930   41.4350 H   0  0  0  0  0  0  0  0  0  0  0  0
   41.4670   35.1080   39.4270 H   0  0  0  0  0  0  0  0  0  0  0  0
   38.6300   30.1140   41.1400 O   0  0  0  0  0  0  0  0  0  0  0  0
   36.2510   30.1700   40.7480 C   0  0  1  0  0  3  0  0  0  0  0  0
   37.4100   29.5490   41.4560 C   0  0  1  0  0  3  0  0  0  0  0  0
   37.4450   28.2040   41.1750 O   0  0  0  0  0  0  0  0  0  0  0  0
   36.3340   27.8840   40.4240 C   0  0  0  0  0  2  0  0  0  0  0  0
   35.3110   28.9810   40.6570 C   0  0  2  0  0  3  0  0  0  0  0  0
   35.5790   31.1400   41.4790 O   0  0  0  0  0  0  0  0  0  0  0  0
   35.4090   30.7580   42.3750 H   0  0  0  0  0  0  0  0  0  0  0  0
   34.3850   29.0870   39.6490 O   0  0  0  0  0  0  0  0  0  0  0  0
   33.5330   29.3960   40.0550 H   0  0  0  0  0  0  0  0  0  0  0  0
  1 13  1  0  0  0  0
  2  1  1  0  0  0  0
  3  1  1  0  0  0  0
  4  5  1  0  0  0  0
  5  1  1  0  0  0  0
  5  6  2  0  0  0  0
  6 11  1  0  0  0  0
  7  6  1  0  0  0  0
  8  7  2  0  0  0  0
  9  4  2  0  0  0  0
  9  8  1  0  0  0  0
 10  4  1  0  0  0  0
 12  8  1  0  0  0  0
 14 15  1  0  0  0  0
 14 19  1  1  0  0  0
 15 13  1  6  0  0  0
 16 15  1  0  0  0  0
 17 18  1  0  0  0  0
 17 16  1  0  0  0  0
 18 21  1  6  0  0  0
 18 14  1  0  0  0  0
 19 20  1  0  0  0  0
 21 22  1  0  0  0  0
M  END
>  <minimizedAffinity>
-4.13867378

$$$$

 OpenBabel03252504283D

 22 23  0  0  1  0  0  0  0  0999 V2000
   39.6820   30.9820   42.3210 C   0  0  0  0  0  0  0  0  0  0  0  0
   39.6800   31.5580   43.2780 H   0  0  0  0  0  0  0  0  0  0  0  0
   40.7290   30.6070   42.2340 H   0  0  0  0  0  0  0  0  0  0  0  0
   39.4480   28.6460   42.9210 C   0  0  0  0  0  0  0  0  0  0  0  0
   38.8320   29.7930   42.4300 C   0  0  0  0  0  0  0  0  0  0  0  0
   37.4870   29.6930   42.0950 C   0  0  0  0  0  0  0  0  0  0  0  0
   36.8730   28.5240   42.2610 N   0  0  0  0  0  0  0  0  0  0  0  0
   37.5040   27.4240   42.7430 C   0  0  0  0  0  0  0  0  0  0  0  0
   38.8360   27.4390   43.0980 N   0  0  0  0  0  0  0  0  0  0  0  0
   40.4980   28.6270   43.2100 H   0  0  0  0  0  0  0  0  0  0  0  0
   37.0330   30.5940   41.7180 H   0  0  0  0  0  0  0  0  0  0  0  0
   36.8480   26.5630   42.8120 H   0  0  0  0  0  0  0  0  0  0  0  0
   39.3320   31.8010   41.2530 O   0  0  0  0  0  0  0  0  0  0  0  0
   39.1890   31.4170   38.8770 C   0  0  1  0  0  3  0  0  0  0  0  0
   40.0400   31.5400   40.0980 C   0  0  1  0  0  3  0  0  0  0  0  0
   40.9740   32.5280   39.9020 O   0  0  0  0  0  0  0  0  0  0  0  0
   40.8630   32.9870   38.6060 C   0  0  0  0  0  2  0  0  0  0  0  0
   40.1580   31.9020   37.8130 C   0  0  2  0  0  3  0  0  0  0  0  0
   38.8550   30.1140   38.5320 O   0  0  0  0  0  0  0  0  0  0  0  0
   39.6920   29.5890   38.5540 H   0  0  0  0  0  0  0  0  0  0  0  0
   39.5410   32.3690   36.6780 O   0  0  0  0  0  0  0  0  0  0  0  0
   39.5690   31.6430   36.0010 H   0  0  0  0  0  0  0  0  0  0  0  0
  1  5  1  0  0  0  0
  1  2  1  0  0  0  0
  3  1  1  0  0  0  0
  4  9  1  0  0  0  0
  4 10  1  0  0  0  0
  5  4  2  0  0  0  0
  6  7  2  0  0  0  0
  6  5  1  0  0  0  0
  7  8  1  0  0  0  0
  8 12  1  0  0  0  0
  8  9  2  0  0  0  0
 11  6  1  0  0  0  0
 13  1  1  0  0  0  0
 14 19  1  6  0  0  0
 14 15  1  0  0  0  0
 15 13  1  1  0  0  0
 16 15  1  0  0  0  0
 17 16  1  0  0  0  0
 18 21  1  6  0  0  0
 18 17  1  0  0  0  0
 18 14  1  0  0  0  0
 19 20  1  0  0  0  0
 22 21  1  0  0  0  0
M  END
>  <minimizedAffinity>
-4.10030079

$$$$

 OpenBabel03252504283D

 22 23  0  0  1  0  0  0  0  0999 V2000
   38.2280   29.4050   39.7270 C   0  0  0  0  0  0  0  0  0  0  0  0
   37.9870   28.6060   38.9850 H   0  0  0  0  0  0  0  0  0  0  0  0
   37.3980   30.1410   39.6100 H   0  0  0  0  0  0  0  0  0  0  0  0
   38.7590   27.6760   41.3390 C   0  0  0  0  0  0  0  0  0  0  0  0
   38.1260   28.8910   41.0960 C   0  0  0  0  0  0  0  0  0  0  0  0
   37.4680   29.4850   42.1650 C   0  0  0  0  0  0  0  0  0  0  0  0
   37.4800   28.8680   43.3440 N   0  0  0  0  0  0  0  0  0  0  0  0
   38.1080   27.6830   43.5480 C   0  0  0  0  0  0  0  0  0  0  0  0
   38.7830   27.0280   42.5410 N   0  0  0  0  0  0  0  0  0  0  0  0
   39.3010   27.1350   40.5640 H   0  0  0  0  0  0  0  0  0  0  0  0
   36.9860   30.4240   41.9520 H   0  0  0  0  0  0  0  0  0  0  0  0
   38.0140   27.3310   44.5690 H   0  0  0  0  0  0  0  0  0  0  0  0
   39.4690   29.9710   39.4530 O   0  0  0  0  0  0  0  0  0  0  0  0
   38.1350   31.9120   38.9360 C   0  0  1  0  0  3  0  0  0  0  0  0
   39.4450   31.3500   39.3790 C   0  0  1  0  0  3  0  0  0  0  0  0
   39.7730   31.8770   40.6040 O   0  0  0  0  0  0  0  0  0  0  0  0
   38.8280   32.8210   40.9440 C   0  0  0  0  0  2  0  0  0  0  0  0
   38.1480   33.2490   39.6560 C   0  0  2  0  0  3  0  0  0  0  0  0
   38.0580   32.2030   37.5800 O   0  0  0  0  0  0  0  0  0  0  0  0
   38.8710   32.7170   37.3510 H   0  0  0  0  0  0  0  0  0  0  0  0
   36.8990   33.7840   39.8490 O   0  0  0  0  0  0  0  0  0  0  0  0
   36.7490   34.4630   39.1410 H   0  0  0  0  0  0  0  0  0  0  0  0
  1  5  1  0  0  0  0
  2  1  1  0  0  0  0
  3  1  1  0  0  0  0
  4  9  1  0  0  0  0
  5  4  2  0  0  0  0
  5  6  1  0  0  0  0
  6  7  2  0  0  0  0
  7  8  1  0  0  0  0
  8 12  1  0  0  0  0
  9  8  2  0  0  0  0
 10  4  1  0  0  0  0
 11  6  1  0  0  0  0
 13  1  1  0  0  0  0
 14 19  1  6  0  0  0
 14 15  1  0  0  0  0
 14 18  1  0  0  0  0
 15 13  1  1  0  0  0
 15 16  1  0  0  0  0
 16 17  1  0  0  0  0
 18 21  1  1  0  0  0
 18 17  1  0  0  0  0
 20 19  1  0  0  0  0
 22 21  1  0  0  0  0
M  END
>  <minimizedAffinity>
-4.06850386

$$$$
