REMARK  Name = 
REMARK  14 active torsions:
REMARK  status: ('A' for Active; 'I' for Inactive)
REMARK    1  A    between atoms: C_1  and  C_2
REMARK    2  A    between atoms: C_1  and  C_12
REMARK    3  A    between atoms: C_3  and  S_8
REMARK    4  A    between atoms: S_8  and  C_9
REMARK    5  A    between atoms: C_9  and  C_10
REMARK    6  A    between atoms: C_10  and  N_11
REMARK    7  A    between atoms: C_12  and  C_13
REMARK    8  A    between atoms: C_16  and  O_18
REMARK    9  A    between atoms: O_18  and  P_20
REMARK   10  A    between atoms: P_20  and  O_21
REMARK   11  A    between atoms: P_20  and  O_22
REMARK   12  A    between atoms: O_22  and  C_39
REMARK   13  A    between atoms: O_37  and  C_38
REMARK   14  A    between atoms: C_42  and  O_43
REMARK                            x       y       z     vdW  Elec       q    Type
REMARK                         _______ _______ _______ _____ _____    ______ ____
ROOT
ATOM      1  C   UNL     1      46.749  34.943  41.946  0.00  0.00    +0.000 C 
ATOM      2  H   UNL     1      46.959  34.329  42.847  0.00  0.00    +0.000 HD
ATOM      3  H   UNL     1      47.125  35.972  42.198  0.00  0.00    +0.000 HD
ENDROOT
BRANCH   1   4
ATOM      4  C   UNL     1      45.276  34.935  41.754  0.00  0.00    +0.000 A 
ATOM      5  C   UNL     1      44.435  35.594  42.688  0.00  0.00    +0.000 A 
ATOM      6  S   UNL     1      42.760  35.304  42.027  0.00  0.00    +0.000 S 
ATOM      7  C   UNL     1      43.487  34.315  40.562  0.00  0.00    +0.000 A 
ATOM      8  N   UNL     1      44.600  34.377  40.796  0.00  0.00    +0.000 NA
ATOM      9  H   UNL     1      44.738  36.133  43.570  0.00  0.00    +0.000 HD
BRANCH   7  10
ATOM     10  O   UNL     1      42.697  33.748  39.576  0.00  0.00    +0.000 OA
BRANCH  10  12
ATOM     11  O   UNL     1      40.744  33.991  37.799  0.00  0.00    +0.000 OA
ATOM     12  P   UNL     1      41.781  34.781  38.608  0.00  0.00    +0.000 P 
BRANCH  12  13
ATOM     13  O   UNL     1      40.943  35.852  39.630  0.00  0.00    +0.000 OA
ATOM     14  H   UNL     1      40.877  36.713  39.160  0.00  0.00    +0.000 HD
ENDBRANCH  12  13
BRANCH  12  15
ATOM     15  O   UNL     1      42.782  35.682  37.600  0.00  0.00    +0.000 OA
BRANCH  15  17
ATOM     16  C   UNL     1      44.408  35.464  35.843  0.00  0.00    +0.000 C 
ATOM     17  C   UNL     1      43.289  34.794  36.641  0.00  0.00    +0.000 C 
ATOM     18  O   UNL     1      43.932  33.719  37.199  0.00  0.00    +0.000 OA
ATOM     19  C   UNL     1      44.680  33.171  36.186  0.00  0.00    +0.000 C 
ATOM     20  C   UNL     1      45.062  34.249  35.216  0.00  0.00    +0.000 C 
BRANCH  16  21
ATOM     21  O   UNL     1      45.294  36.158  36.628  0.00  0.00    +0.000 OA
ATOM     22  H   UNL     1      46.184  36.159  36.200  0.00  0.00    +0.000 HD
ENDBRANCH  16  21
BRANCH  20  23
ATOM     23  O   UNL     1      46.429  34.462  35.113  0.00  0.00    +0.000 OA
ATOM     24  H   UNL     1      46.822  34.104  34.278  0.00  0.00    +0.000 HD
ENDBRANCH  20  23
ENDBRANCH  15  17
ENDBRANCH  12  15
ENDBRANCH  10  12
ENDBRANCH   7  10
ENDBRANCH   1   4
BRANCH   1  25
ATOM     25  C   UNL     1      47.524  34.445  40.768  0.00  0.00    +0.000 C 
ATOM     26  H   UNL     1      46.867  33.815  40.157  0.00  0.00    +0.000 HD
ATOM     27  H   UNL     1      47.778  35.329  40.121  0.00  0.00    +0.000 HD
BRANCH  25  28
ATOM     28  C   UNL     1      48.782  33.773  41.133  0.00  0.00    +0.000 A 
ATOM     29  C   UNL     1      49.107  32.624  40.415  0.00  0.00    +0.000 A 
ATOM     30  C   UNL     1      50.264  31.926  40.684  0.00  0.00    +0.000 A 
ATOM     31  N   UNL     1      51.071  32.419  41.688  0.00  0.00    +0.000 NA
ATOM     32  C   UNL     1      50.712  33.552  42.367  0.00  0.00    +0.000 A 
ATOM     33  N   UNL     1      49.595  34.193  42.080  0.00  0.00    +0.000 NA
ATOM     34  H   UNL     1      50.556  31.030  40.153  0.00  0.00    +0.000 HD
ATOM     35  H   UNL     1      51.383  33.901  43.151  0.00  0.00    +0.000 HD
BRANCH  29  36
ATOM     36  S   UNL     1      48.012  32.041  39.125  0.00  0.00    +0.000 S 
BRANCH  36  37
ATOM     37  C   UNL     1      48.828  32.174  37.507  0.00  0.00    +0.000 C 
ATOM     38  H   UNL     1      49.924  32.031  37.669  0.00  0.00    +0.000 HD
ATOM     39  H   UNL     1      48.476  31.349  36.877  0.00  0.00    +0.000 HD
BRANCH  37  40
ATOM     40  C   UNL     1      48.492  33.496  36.892  0.00  0.00    +0.000 C 
ATOM     41  H   UNL     1      47.690  34.034  37.437  0.00  0.00    +0.000 HD
ATOM     42  H   UNL     1      49.403  34.126  36.958  0.00  0.00    +0.000 HD
BRANCH  40  43
ATOM     43  N   UNL     1      48.191  33.287  35.507  0.00  0.00    +0.000 NA
ATOM     44  H   UNL     1      48.177  34.195  34.998  0.00  0.00    +0.000 HD
ATOM     45  H   UNL     1      48.835  32.577  35.143  0.00  0.00    +0.000 HD
ENDBRANCH  40  43
ENDBRANCH  37  40
ENDBRANCH  36  37
ENDBRANCH  29  36
ENDBRANCH  25  28
ENDBRANCH   1  25
TORSDOF 14
