
 OpenBabel03252507103D

 36 38  0  0  1  0  0  0  0  0999 V2000
   38.4130   24.7460   42.4530 C   0  0  0  0  0  0  0  0  0  0  0  0
   37.3920   25.6950   42.2740 C   0  0  0  0  0  0  0  0  0  0  0  0
   37.6930   27.0130   42.5710 C   0  0  0  0  0  0  0  0  0  0  0  0
   38.9260   27.3240   43.0110 N   0  0  0  0  0  0  0  0  0  0  0  0
   39.8890   26.4110   43.1780 C   0  0  0  0  0  0  0  0  0  0  0  0
   39.6270   25.1080   42.8950 N   0  0  0  0  0  0  0  0  0  0  0  0
   38.2210   23.6890   42.2310 H   0  0  0  0  0  0  0  0  0  0  0  0
   36.4360   25.3120   41.9100 H   0  0  0  0  0  0  0  0  0  0  0  0
   42.3540   26.0200   42.9110 C   0  0  1  0  0  0  0  0  0  0  0  0
   41.2510   26.6960   43.6690 C   0  0  1  0  0  0  0  0  0  0  0  0
   41.6140   28.1640   43.3480 C   0  0  0  0  0  0  0  0  0  0  0  0
   42.9640   28.2140   43.2080 O   0  0  0  0  0  0  0  0  0  0  0  0
   43.5030   26.9370   43.3270 C   0  0  0  0  0  0  0  0  0  0  0  0
   42.2040   26.1230   41.8170 H   0  0  0  0  0  0  0  0  0  0  0  0
   41.3270   26.5450   44.7520 H   0  0  0  0  0  0  0  0  0  0  0  0
   41.0260   28.5410   42.4940 H   0  0  0  0  0  0  0  0  0  0  0  0
   41.3200   28.7390   44.2500 H   0  0  0  0  0  0  0  0  0  0  0  0
   44.3190   26.8540   42.5990 H   0  0  0  0  0  0  0  0  0  0  0  0
   43.8140   26.7240   44.3680 H   0  0  0  0  0  0  0  0  0  0  0  0
   42.5380   24.7040   43.2080 O   0  0  0  0  0  0  0  0  0  0  0  0
   43.3690   24.4060   42.7620 H   0  0  0  0  0  0  0  0  0  0  0  0
   36.6800   27.9440   42.3900 O   0  0  0  0  0  0  0  0  0  0  0  0
   36.9210   28.3090   39.7630 O   0  0  0  0  0  0  0  0  0  0  0  0
   36.7480   29.0400   41.0830 P   0  0  1  0  0  0  0  0  0  0  0  0
   35.3730   29.9820   41.0850 O   0  0  0  0  0  0  0  0  0  0  0  0
   35.2880   30.4160   41.9540 H   0  0  0  0  0  0  0  0  0  0  0  0
   38.1340   29.9910   41.3340 O   0  0  0  0  0  0  0  0  0  0  0  0
   39.4120   31.8870   40.8680 C   0  0  1  0  0  3  0  0  0  0  0  0
   38.1790   31.0820   40.5070 C   0  0  2  0  0  3  0  0  0  0  0  0
   37.1770   32.0230   40.7350 O   0  0  0  0  0  0  0  0  0  0  0  0
   37.6280   33.0620   39.8880 C   0  0  0  0  0  2  0  0  0  0  0  0
   39.0290   33.2790   40.4210 C   0  0  1  0  0  3  0  0  0  0  0  0
   39.5230   31.8700   42.2560 O   0  0  0  0  0  0  0  0  0  0  0  0
   38.6230   31.7790   42.6510 H   0  0  0  0  0  0  0  0  0  0  0  0
   38.9200   34.1360   41.5100 O   0  0  0  0  0  0  0  0  0  0  0  0
   38.0340   34.0240   41.9660 H   0  0  0  0  0  0  0  0  0  0  0  0
  1  6  1  0  0  0  0
  2  1  2  0  0  0  0
  2  3  1  0  0  0  0
  3  4  2  0  0  0  0
  4  5  1  0  0  0  0
  5 10  1  0  0  0  0
  6  5  2  0  0  0  0
  7  1  1  0  0  0  0
  8  2  1  0  0  0  0
  9 14  1  6  0  0  0
  9 20  1  0  0  0  0
  9 13  1  0  0  0  0
  9 10  1  0  0  0  0
 10 15  1  1  0  0  0
 11 10  1  0  0  0  0
 11 17  1  0  0  0  0
 12 13  1  0  0  0  0
 12 11  1  0  0  0  0
 13 19  1  0  0  0  0
 16 11  1  0  0  0  0
 18 13  1  0  0  0  0
 21 20  1  0  0  0  0
 22  3  1  0  0  0  0
 24 23  2  6  0  0  0
 24 25  1  0  0  0  0
 24 27  1  0  0  0  0
 24 22  1  0  0  0  0
 25 26  1  0  0  0  0
 28 33  1  1  0  0  0
 29 30  1  0  0  0  0
 29 28  1  0  0  0  0
 29 27  1  1  0  0  0
 31 32  1  0  0  0  0
 31 30  1  0  0  0  0
 32 28  1  0  0  0  0
 32 35  1  1  0  0  0
 33 34  1  0  0  0  0
 35 36  1  0  0  0  0
M  END
>  <minimizedAffinity>
-6.13331604

$$$$

 OpenBabel03252507103D

 36 38  0  0  1  0  0  0  0  0999 V2000
   38.4170   27.7510   43.6790 C   0  0  0  0  0  0  0  0  0  0  0  0
   37.9170   28.9910   43.2430 C   0  0  0  0  0  0  0  0  0  0  0  0
   37.0640   28.9810   42.1530 C   0  0  0  0  0  0  0  0  0  0  0  0
   36.7550   27.8100   41.5670 N   0  0  0  0  0  0  0  0  0  0  0  0
   37.2380   26.6370   41.9920 C   0  0  0  0  0  0  0  0  0  0  0  0
   38.0780   26.6100   43.0590 N   0  0  0  0  0  0  0  0  0  0  0  0
   39.0960   27.7090   44.5380 H   0  0  0  0  0  0  0  0  0  0  0  0
   38.2440   29.8680   43.8060 H   0  0  0  0  0  0  0  0  0  0  0  0
   37.2040   25.2410   39.9050 C   0  0  1  0  0  0  0  0  0  0  0  0
   36.9440   25.3270   41.3790 C   0  0  1  0  0  0  0  0  0  0  0  0
   37.9870   24.2920   41.8600 C   0  0  0  0  0  0  0  0  0  0  0  0
   38.1030   23.3640   40.8750 O   0  0  0  0  0  0  0  0  0  0  0  0
   37.3140   23.7220   39.7860 C   0  0  0  0  0  0  0  0  0  0  0  0
   38.1890   25.6830   39.6510 H   0  0  0  0  0  0  0  0  0  0  0  0
   35.9440   24.9700   41.6540 H   0  0  0  0  0  0  0  0  0  0  0  0
   38.9230   24.7860   42.1710 H   0  0  0  0  0  0  0  0  0  0  0  0
   37.5340   23.8180   42.7550 H   0  0  0  0  0  0  0  0  0  0  0  0
   37.8700   23.4660   38.8770 H   0  0  0  0  0  0  0  0  0  0  0  0
   36.3120   23.2540   39.8420 H   0  0  0  0  0  0  0  0  0  0  0  0
   36.2510   25.8080   39.1150 O   0  0  0  0  0  0  0  0  0  0  0  0
   36.4530   25.5700   38.1770 H   0  0  0  0  0  0  0  0  0  0  0  0
   36.5730   30.2080   41.7300 O   0  0  0  0  0  0  0  0  0  0  0  0
   37.4090   30.3960   39.2080 O   0  0  0  0  0  0  0  0  0  0  0  0
   37.4170   31.1080   40.5490 P   0  0  1  0  0  0  0  0  0  0  0  0
   36.7480   32.6310   40.4390 O   0  0  0  0  0  0  0  0  0  0  0  0
   36.7530   33.0440   41.3210 H   0  0  0  0  0  0  0  0  0  0  0  0
   39.0290   31.1920   41.0820 O   0  0  0  0  0  0  0  0  0  0  0  0
   41.1920   32.0470   40.8940 C   0  0  1  0  0  3  0  0  0  0  0  0
   39.7730   32.0910   40.3630 C   0  0  2  0  0  3  0  0  0  0  0  0
   39.4490   33.4260   40.5930 O   0  0  0  0  0  0  0  0  0  0  0  0
   40.4990   34.0530   39.8830 C   0  0  0  0  0  2  0  0  0  0  0  0
   41.7080   33.4240   40.5450 C   0  0  1  0  0  3  0  0  0  0  0  0
   41.1100   31.9300   42.2780 O   0  0  0  0  0  0  0  0  0  0  0  0
   40.2740   32.3520   42.5900 H   0  0  0  0  0  0  0  0  0  0  0  0
   41.9690   34.1610   41.6940 O   0  0  0  0  0  0  0  0  0  0  0  0
   41.1260   34.5560   42.0660 H   0  0  0  0  0  0  0  0  0  0  0  0
  1  7  1  0  0  0  0
  2  1  1  0  0  0  0
  2  8  1  0  0  0  0
  3  2  2  0  0  0  0
  4  5  2  0  0  0  0
  4  3  1  0  0  0  0
  5  6  1  0  0  0  0
  6  1  2  0  0  0  0
  9 14  1  6  0  0  0
  9 10  1  0  0  0  0
 10 15  1  1  0  0  0
 10 11  1  0  0  0  0
 10  5  1  0  0  0  0
 11 16  1  0  0  0  0
 11 17  1  0  0  0  0
 12 11  1  0  0  0  0
 13 19  1  0  0  0  0
 13  9  1  0  0  0  0
 13 12  1  0  0  0  0
 18 13  1  0  0  0  0
 20  9  1  0  0  0  0
 21 20  1  0  0  0  0
 22  3  1  0  0  0  0
 24 23  2  6  0  0  0
 24 27  1  0  0  0  0
 24 22  1  0  0  0  0
 25 24  1  0  0  0  0
 25 26  1  0  0  0  0
 28 33  1  1  0  0  0
 29 30  1  0  0  0  0
 29 28  1  0  0  0  0
 29 27  1  1  0  0  0
 31 32  1  0  0  0  0
 31 30  1  0  0  0  0
 32 28  1  0  0  0  0
 32 35  1  1  0  0  0
 33 34  1  0  0  0  0
 35 36  1  0  0  0  0
M  END
>  <minimizedAffinity>
-5.86322546

$$$$

 OpenBabel03252507103D

 36 38  0  0  1  0  0  0  0  0999 V2000
   38.6900   34.1610   40.0440 C   0  0  0  0  0  0  0  0  0  0  0  0
   37.8310   33.0510   39.9690 C   0  0  0  0  0  0  0  0  0  0  0  0
   38.3810   31.8530   39.5470 C   0  0  0  0  0  0  0  0  0  0  0  0
   39.6880   31.8020   39.2320 N   0  0  0  0  0  0  0  0  0  0  0  0
   40.4950   32.8660   39.3090 C   0  0  0  0  0  0  0  0  0  0  0  0
   39.9880   34.0580   39.7190 N   0  0  0  0  0  0  0  0  0  0  0  0
   38.3000   35.1310   40.3730 H   0  0  0  0  0  0  0  0  0  0  0  0
   36.7910   33.2260   40.2530 H   0  0  0  0  0  0  0  0  0  0  0  0
   42.3820   34.0300   38.1310 C   0  0  1  0  0  0  0  0  0  0  0  0
   41.9300   32.8680   38.9640 C   0  0  1  0  0  0  0  0  0  0  0  0
   42.7600   33.1560   40.2360 C   0  0  0  0  0  0  0  0  0  0  0  0
   43.9060   33.7630   39.8290 O   0  0  0  0  0  0  0  0  0  0  0  0
   43.8740   33.9670   38.4530 C   0  0  0  0  0  0  0  0  0  0  0  0
   41.9790   34.9830   38.5310 H   0  0  0  0  0  0  0  0  0  0  0  0
   42.2450   31.9030   38.5510 H   0  0  0  0  0  0  0  0  0  0  0  0
   42.1640   33.7040   40.9850 H   0  0  0  0  0  0  0  0  0  0  0  0
   43.0070   32.1590   40.6540 H   0  0  0  0  0  0  0  0  0  0  0  0
   44.3330   34.9430   38.2530 H   0  0  0  0  0  0  0  0  0  0  0  0
   44.3540   33.1300   37.9090 H   0  0  0  0  0  0  0  0  0  0  0  0
   42.0790   33.9460   36.8070 O   0  0  0  0  0  0  0  0  0  0  0  0
   42.5430   34.6850   36.3420 H   0  0  0  0  0  0  0  0  0  0  0  0
   37.5270   30.7610   39.4760 O   0  0  0  0  0  0  0  0  0  0  0  0
   37.9790   30.0120   41.9910 O   0  0  0  0  0  0  0  0  0  0  0  0
   36.9180   30.0560   40.9070 P   0  0  1  0  0  0  0  0  0  0  0  0
   35.5690   30.9020   41.4030 O   0  0  0  0  0  0  0  0  0  0  0  0
   34.9230   30.9250   40.6750 H   0  0  0  0  0  0  0  0  0  0  0  0
   36.5150   28.4540   40.5100 O   0  0  0  0  0  0  0  0  0  0  0  0
   37.5010   26.3710   40.1400 C   0  0  1  0  0  3  0  0  0  0  0  0
   37.3560   27.5420   41.0920 C   0  0  2  0  0  3  0  0  0  0  0  0
   36.8300   26.9030   42.2130 O   0  0  0  0  0  0  0  0  0  0  0  0
   37.8320   25.9280   42.4240 C   0  0  0  0  0  2  0  0  0  0  0  0
   37.8480   25.2370   41.0770 C   0  0  1  0  0  3  0  0  0  0  0  0
   36.2470   26.1340   39.5850 O   0  0  0  0  0  0  0  0  0  0  0  0
   35.5500   26.4140   40.2260 H   0  0  0  0  0  0  0  0  0  0  0  0
   36.8360   24.2850   41.0970 O   0  0  0  0  0  0  0  0  0  0  0  0
   36.0880   24.5700   41.6990 H   0  0  0  0  0  0  0  0  0  0  0  0
  1  7  1  0  0  0  0
  2  1  1  0  0  0  0
  2  8  1  0  0  0  0
  3  2  2  0  0  0  0
  4  5  2  0  0  0  0
  4  3  1  0  0  0  0
  5  6  1  0  0  0  0
  6  1  2  0  0  0  0
  9 13  1  0  0  0  0
  9 14  1  1  0  0  0
  9 10  1  0  0  0  0
 10 15  1  6  0  0  0
 10  5  1  0  0  0  0
 10 11  1  0  0  0  0
 11 17  1  0  0  0  0
 11 16  1  0  0  0  0
 12 11  1  0  0  0  0
 13 12  1  0  0  0  0
 18 13  1  0  0  0  0
 19 13  1  0  0  0  0
 20  9  1  0  0  0  0
 21 20  1  0  0  0  0
 22  3  1  0  0  0  0
 22 24  1  0  0  0  0
 24 25  1  0  0  0  0
 24 23  2  1  0  0  0
 26 25  1  0  0  0  0
 27 24  1  0  0  0  0
 28 33  1  1  0  0  0
 28 32  1  0  0  0  0
 28 29  1  0  0  0  0
 29 27  1  6  0  0  0
 29 30  1  0  0  0  0
 30 31  1  0  0  0  0
 32 35  1  1  0  0  0
 32 31  1  0  0  0  0
 33 34  1  0  0  0  0
 35 36  1  0  0  0  0
M  END
>  <minimizedAffinity>
-5.85222769

$$$$

 OpenBabel03252507103D

 36 38  0  0  1  0  0  0  0  0999 V2000
   35.8620   28.3740   40.0380 C   0  0  0  0  0  0  0  0  0  0  0  0
   35.8490   29.7750   39.9190 C   0  0  0  0  0  0  0  0  0  0  0  0
   36.6120   30.4940   40.8230 C   0  0  0  0  0  0  0  0  0  0  0  0
   37.3190   29.8360   41.7600 N   0  0  0  0  0  0  0  0  0  0  0  0
   37.3230   28.5030   41.8630 C   0  0  0  0  0  0  0  0  0  0  0  0
   36.5850   27.7660   40.9910 N   0  0  0  0  0  0  0  0  0  0  0  0
   35.2730   27.7620   39.3450 H   0  0  0  0  0  0  0  0  0  0  0  0
   35.2340   30.1850   39.1150 H   0  0  0  0  0  0  0  0  0  0  0  0
   38.4660   26.3490   42.4590 C   0  0  1  0  0  0  0  0  0  0  0  0
   38.0680   27.7330   42.8770 C   0  0  1  0  0  0  0  0  0  0  0  0
   39.4800   28.3400   43.0440 C   0  0  0  0  0  0  0  0  0  0  0  0
   40.3000   27.3290   43.4340 O   0  0  0  0  0  0  0  0  0  0  0  0
   39.5950   26.1290   43.4640 C   0  0  0  0  0  0  0  0  0  0  0  0
   38.9020   26.3540   41.4400 H   0  0  0  0  0  0  0  0  0  0  0  0
   37.5610   27.7530   43.8480 H   0  0  0  0  0  0  0  0  0  0  0  0
   39.7870   28.8880   42.1370 H   0  0  0  0  0  0  0  0  0  0  0  0
   39.3850   29.0710   43.8730 H   0  0  0  0  0  0  0  0  0  0  0  0
   40.2660   25.3440   43.0950 H   0  0  0  0  0  0  0  0  0  0  0  0
   39.1850   25.9260   44.4720 H   0  0  0  0  0  0  0  0  0  0  0  0
   37.4700   25.4210   42.5080 O   0  0  0  0  0  0  0  0  0  0  0  0
   37.8750   24.5330   42.3520 H   0  0  0  0  0  0  0  0  0  0  0  0
   36.5950   31.8760   40.6970 O   0  0  0  0  0  0  0  0  0  0  0  0
   37.7040   34.1610   39.8960 O   0  0  0  0  0  0  0  0  0  0  0  0
   38.0080   32.7110   40.2260 P   0  0  1  0  0  0  0  0  0  0  0  0
   39.1490   32.5840   41.4350 O   0  0  0  0  0  0  0  0  0  0  0  0
   39.3000   31.6420   41.6320 H   0  0  0  0  0  0  0  0  0  0  0  0
   38.5500   31.9570   38.8020 O   0  0  0  0  0  0  0  0  0  0  0  0
   40.7340   32.1000   37.9940 C   0  0  1  0  0  3  0  0  0  0  0  0
   39.7900   31.3920   38.9460 C   0  0  2  0  0  3  0  0  0  0  0  0
   39.8870   30.0820   38.4840 O   0  0  0  0  0  0  0  0  0  0  0  0
   41.2840   29.8930   38.5900 C   0  0  0  0  0  2  0  0  0  0  0  0
   41.7930   31.0480   37.7540 C   0  0  1  0  0  3  0  0  0  0  0  0
   40.0370   32.3210   36.8110 O   0  0  0  0  0  0  0  0  0  0  0  0
   39.3520   31.6180   36.7020 H   0  0  0  0  0  0  0  0  0  0  0  0
   41.7790   30.6260   36.4290 O   0  0  0  0  0  0  0  0  0  0  0  0
   41.0550   29.9510   36.2770 H   0  0  0  0  0  0  0  0  0  0  0  0
  1  6  1  0  0  0  0
  2  1  2  0  0  0  0
  2  3  1  0  0  0  0
  3  4  2  0  0  0  0
  4  5  1  0  0  0  0
  5 10  1  0  0  0  0
  6  5  2  0  0  0  0
  7  1  1  0  0  0  0
  8  2  1  0  0  0  0
  9 14  1  6  0  0  0
  9 20  1  0  0  0  0
  9 10  1  0  0  0  0
  9 13  1  0  0  0  0
 10 11  1  0  0  0  0
 10 15  1  1  0  0  0
 11 12  1  0  0  0  0
 11 17  1  0  0  0  0
 12 13  1  0  0  0  0
 13 19  1  0  0  0  0
 16 11  1  0  0  0  0
 18 13  1  0  0  0  0
 21 20  1  0  0  0  0
 22  3  1  0  0  0  0
 24 23  2  6  0  0  0
 24 22  1  0  0  0  0
 24 25  1  0  0  0  0
 25 26  1  0  0  0  0
 27 24  1  0  0  0  0
 28 33  1  6  0  0  0
 28 29  1  0  0  0  0
 29 27  1  6  0  0  0
 30 31  1  0  0  0  0
 30 29  1  0  0  0  0
 32 35  1  6  0  0  0
 32 28  1  0  0  0  0
 32 31  1  0  0  0  0
 34 33  1  0  0  0  0
 36 35  1  0  0  0  0
M  END
>  <minimizedAffinity>
-5.83022022

$$$$

 OpenBabel03252507103D

 36 38  0  0  1  0  0  0  0  0999 V2000
   37.0560   27.8710   43.5790 C   0  0  0  0  0  0  0  0  0  0  0  0
   37.4540   29.1130   43.0540 C   0  0  0  0  0  0  0  0  0  0  0  0
   37.7890   29.1550   41.7120 C   0  0  0  0  0  0  0  0  0  0  0  0
   37.7210   28.0280   40.9800 N   0  0  0  0  0  0  0  0  0  0  0  0
   37.3400   26.8520   41.4920 C   0  0  0  0  0  0  0  0  0  0  0  0
   37.0050   26.7760   42.8060 N   0  0  0  0  0  0  0  0  0  0  0  0
   36.7810   27.7900   44.6380 H   0  0  0  0  0  0  0  0  0  0  0  0
   37.4660   29.9510   43.7550 H   0  0  0  0  0  0  0  0  0  0  0  0
   38.5550   25.1180   40.1430 C   0  0  1  0  0  0  0  0  0  0  0  0
   37.2610   25.5860   40.7390 C   0  0  1  0  0  0  0  0  0  0  0  0
   37.0240   24.4190   41.7250 C   0  0  0  0  0  0  0  0  0  0  0  0
   37.5710   23.3100   41.1620 O   0  0  0  0  0  0  0  0  0  0  0  0
   38.1980   23.6440   39.9650 C   0  0  0  0  0  0  0  0  0  0  0  0
   39.3790   25.1910   40.8820 H   0  0  0  0  0  0  0  0  0  0  0  0
   36.4410   25.6010   40.0120 H   0  0  0  0  0  0  0  0  0  0  0  0
   37.3830   24.6740   42.7370 H   0  0  0  0  0  0  0  0  0  0  0  0
   35.9220   24.2970   41.7720 H   0  0  0  0  0  0  0  0  0  0  0  0
   39.1170   23.0500   39.8980 H   0  0  0  0  0  0  0  0  0  0  0  0
   37.5180   23.5090   39.1020 H   0  0  0  0  0  0  0  0  0  0  0  0
   38.9300   25.7570   39.0010 O   0  0  0  0  0  0  0  0  0  0  0  0
   39.7090   25.2770   38.6270 H   0  0  0  0  0  0  0  0  0  0  0  0
   38.1800   30.3840   41.2010 O   0  0  0  0  0  0  0  0  0  0  0  0
   35.9240   30.4120   39.7850 O   0  0  0  0  0  0  0  0  0  0  0  0
   37.2140   31.1740   40.0360 P   0  0  1  0  0  0  0  0  0  0  0  0
   36.9160   32.7350   40.5370 O   0  0  0  0  0  0  0  0  0  0  0  0
   37.7650   33.1820   40.7070 H   0  0  0  0  0  0  0  0  0  0  0  0
   38.1110   31.1630   38.5920 O   0  0  0  0  0  0  0  0  0  0  0  0
   40.1540   32.1290   38.0120 C   0  0  1  0  0  3  0  0  0  0  0  0
   39.4590   31.0460   38.8130 C   0  0  2  0  0  3  0  0  0  0  0  0
   40.0380   29.9040   38.2660 O   0  0  0  0  0  0  0  0  0  0  0  0
   41.4030   30.1960   38.4920 C   0  0  0  0  0  2  0  0  0  0  0  0
   41.5280   31.5360   37.7960 C   0  0  1  0  0  3  0  0  0  0  0  0
   39.5010   32.2190   36.7860 O   0  0  0  0  0  0  0  0  0  0  0  0
   39.1150   31.3390   36.5590 H   0  0  0  0  0  0  0  0  0  0  0  0
   41.7480   31.2740   36.4490 O   0  0  0  0  0  0  0  0  0  0  0  0
   41.3170   30.4100   36.1770 H   0  0  0  0  0  0  0  0  0  0  0  0
  1  7  1  0  0  0  0
  2  1  1  0  0  0  0
  2  8  1  0  0  0  0
  3  2  2  0  0  0  0
  4  5  2  0  0  0  0
  4  3  1  0  0  0  0
  5  6  1  0  0  0  0
  6  1  2  0  0  0  0
  9 10  1  0  0  0  0
  9 14  1  1  0  0  0
 10 15  1  6  0  0  0
 10  5  1  0  0  0  0
 10 11  1  0  0  0  0
 11 17  1  0  0  0  0
 11 16  1  0  0  0  0
 12 11  1  0  0  0  0
 13  9  1  0  0  0  0
 13 12  1  0  0  0  0
 18 13  1  0  0  0  0
 19 13  1  0  0  0  0
 20  9  1  0  0  0  0
 21 20  1  0  0  0  0
 22  3  1  0  0  0  0
 24 23  2  6  0  0  0
 24 25  1  0  0  0  0
 24 22  1  0  0  0  0
 25 26  1  0  0  0  0
 27 24  1  0  0  0  0
 28 33  1  6  0  0  0
 28 29  1  0  0  0  0
 29 27  1  6  0  0  0
 30 31  1  0  0  0  0
 30 29  1  0  0  0  0
 32 35  1  6  0  0  0
 32 28  1  0  0  0  0
 32 31  1  0  0  0  0
 34 33  1  0  0  0  0
 36 35  1  0  0  0  0
M  END
>  <minimizedAffinity>
-5.76355267

$$$$

 OpenBabel03252507103D

 36 38  0  0  1  0  0  0  0  0999 V2000
   34.9010   27.8480   37.8110 C   0  0  0  0  0  0  0  0  0  0  0  0
   35.8730   26.8500   38.0030 C   0  0  0  0  0  0  0  0  0  0  0  0
   37.0830   27.2420   38.5490 C   0  0  0  0  0  0  0  0  0  0  0  0
   37.2750   28.5350   38.8680 N   0  0  0  0  0  0  0  0  0  0  0  0
   36.3420   29.4750   38.6800 C   0  0  0  0  0  0  0  0  0  0  0  0
   35.1430   29.1250   38.1450 N   0  0  0  0  0  0  0  0  0  0  0  0
   33.9280   27.5850   37.3810 H   0  0  0  0  0  0  0  0  0  0  0  0
   35.5910   25.8390   37.7030 H   0  0  0  0  0  0  0  0  0  0  0  0
   36.8130   31.2080   40.4340 C   0  0  1  0  0  0  0  0  0  0  0  0
   36.5040   30.9060   38.9980 C   0  0  1  0  0  0  0  0  0  0  0  0
   37.8160   31.4250   38.3650 C   0  0  0  0  0  0  0  0  0  0  0  0
   38.2520   32.4490   39.1440 O   0  0  0  0  0  0  0  0  0  0  0  0
   37.4140   32.6000   40.2450 C   0  0  0  0  0  0  0  0  0  0  0  0
   37.6060   30.5350   40.8180 H   0  0  0  0  0  0  0  0  0  0  0  0
   35.6700   31.5020   38.6110 H   0  0  0  0  0  0  0  0  0  0  0  0
   38.5330   30.6020   38.2050 H   0  0  0  0  0  0  0  0  0  0  0  0
   37.5220   31.8230   37.3720 H   0  0  0  0  0  0  0  0  0  0  0  0
   38.0450   32.8460   41.1080 H   0  0  0  0  0  0  0  0  0  0  0  0
   36.6180   33.3440   40.0490 H   0  0  0  0  0  0  0  0  0  0  0  0
   35.7460   31.1570   41.2780 O   0  0  0  0  0  0  0  0  0  0  0  0
   36.0360   31.5070   42.1560 H   0  0  0  0  0  0  0  0  0  0  0  0
   38.0360   26.2510   38.7380 O   0  0  0  0  0  0  0  0  0  0  0  0
   37.3870   23.8760   39.7520 O   0  0  0  0  0  0  0  0  0  0  0  0
   37.9590   25.2370   40.1090 P   0  0  1  0  0  0  0  0  0  0  0  0
   39.4790   25.1070   40.7810 O   0  0  0  0  0  0  0  0  0  0  0  0
   39.8170   25.9990   40.9750 H   0  0  0  0  0  0  0  0  0  0  0  0
   36.8810   25.9850   41.1900 O   0  0  0  0  0  0  0  0  0  0  0  0
   36.5620   27.4700   42.9610 C   0  0  1  0  0  3  0  0  0  0  0  0
   37.5150   26.5010   42.2900 C   0  0  2  0  0  3  0  0  0  0  0  0
   38.5840   27.3450   41.9990 O   0  0  0  0  0  0  0  0  0  0  0  0
   38.8590   27.8380   43.2950 C   0  0  0  0  0  2  0  0  0  0  0  0
   37.5090   28.4040   43.6790 C   0  0  1  0  0  3  0  0  0  0  0  0
   35.9090   28.1720   41.9510 O   0  0  0  0  0  0  0  0  0  0  0  0
   36.4990   28.2260   41.1610 H   0  0  0  0  0  0  0  0  0  0  0  0
   37.4400   29.6850   43.1440 O   0  0  0  0  0  0  0  0  0  0  0  0
   37.9860   29.7540   42.3070 H   0  0  0  0  0  0  0  0  0  0  0  0
  1  2  2  0  0  0  0
  1  6  1  0  0  0  0
  2  3  1  0  0  0  0
  3 22  1  0  0  0  0
  3  4  2  0  0  0  0
  5  4  1  0  0  0  0
  5 10  1  0  0  0  0
  6  5  2  0  0  0  0
  7  1  1  0  0  0  0
  8  2  1  0  0  0  0
  9 14  1  1  0  0  0
  9 20  1  0  0  0  0
 10 15  1  6  0  0  0
 10  9  1  0  0  0  0
 11 10  1  0  0  0  0
 11 12  1  0  0  0  0
 12 13  1  0  0  0  0
 13  9  1  0  0  0  0
 13 18  1  0  0  0  0
 16 11  1  0  0  0  0
 17 11  1  0  0  0  0
 19 13  1  0  0  0  0
 20 21  1  0  0  0  0
 22 24  1  0  0  0  0
 24 23  2  6  0  0  0
 24 25  1  0  0  0  0
 24 27  1  0  0  0  0
 25 26  1  0  0  0  0
 28 33  1  6  0  0  0
 28 32  1  0  0  0  0
 29 27  1  6  0  0  0
 29 28  1  0  0  0  0
 30 29  1  0  0  0  0
 30 31  1  0  0  0  0
 31 32  1  0  0  0  0
 32 35  1  6  0  0  0
 34 33  1  0  0  0  0
 36 35  1  0  0  0  0
M  END
>  <minimizedAffinity>
-5.69732428

$$$$

 OpenBabel03252507103D

 36 38  0  0  1  0  0  0  0  0999 V2000
   36.0530   28.3520   39.8940 C   0  0  0  0  0  0  0  0  0  0  0  0
   35.9490   29.7520   39.8250 C   0  0  0  0  0  0  0  0  0  0  0  0
   36.5890   30.4840   40.8100 C   0  0  0  0  0  0  0  0  0  0  0  0
   37.2720   29.8380   41.7730 N   0  0  0  0  0  0  0  0  0  0  0  0
   37.3640   28.5050   41.8270 C   0  0  0  0  0  0  0  0  0  0  0  0
   36.7460   27.7560   40.8770 N   0  0  0  0  0  0  0  0  0  0  0  0
   35.5620   27.7310   39.1360 H   0  0  0  0  0  0  0  0  0  0  0  0
   35.3660   30.1520   38.9920 H   0  0  0  0  0  0  0  0  0  0  0  0
   38.4990   26.3600   42.4710 C   0  0  1  0  0  0  0  0  0  0  0  0
   38.0860   27.7460   42.8660 C   0  0  1  0  0  0  0  0  0  0  0  0
   39.4900   28.3610   43.0640 C   0  0  0  0  0  0  0  0  0  0  0  0
   40.3040   27.3560   43.4840 O   0  0  0  0  0  0  0  0  0  0  0  0
   39.6040   26.1540   43.5050 C   0  0  0  0  0  0  0  0  0  0  0  0
   38.9610   26.3590   41.4620 H   0  0  0  0  0  0  0  0  0  0  0  0
   37.5550   27.7720   43.8250 H   0  0  0  0  0  0  0  0  0  0  0  0
   39.8190   28.9020   42.1610 H   0  0  0  0  0  0  0  0  0  0  0  0
   39.3720   29.0980   43.8840 H   0  0  0  0  0  0  0  0  0  0  0  0
   40.2870   25.3690   43.1600 H   0  0  0  0  0  0  0  0  0  0  0  0
   39.1700   25.9570   44.5050 H   0  0  0  0  0  0  0  0  0  0  0  0
   37.5070   25.4290   42.5020 O   0  0  0  0  0  0  0  0  0  0  0  0
   37.9190   24.5410   42.3630 H   0  0  0  0  0  0  0  0  0  0  0  0
   36.4830   31.8660   40.7340 O   0  0  0  0  0  0  0  0  0  0  0  0
   38.3480   31.8920   38.8320 O   0  0  0  0  0  0  0  0  0  0  0  0
   37.6320   32.7660   39.8480 P   0  0  1  0  0  0  0  0  0  0  0  0
   36.8710   34.0570   39.1170 O   0  0  0  0  0  0  0  0  0  0  0  0
   36.4080   34.5780   39.7980 H   0  0  0  0  0  0  0  0  0  0  0  0
   38.7850   33.3020   40.9760 O   0  0  0  0  0  0  0  0  0  0  0  0
   40.3410   31.6480   41.5130 C   0  0  1  0  0  3  0  0  0  0  0  0
   40.0520   32.8760   40.6730 C   0  0  2  0  0  3  0  0  0  0  0  0
   41.0670   33.7300   41.1000 O   0  0  0  0  0  0  0  0  0  0  0  0
   42.1930   32.9210   40.8210 C   0  0  0  0  0  2  0  0  0  0  0  0
   41.8500   31.6720   41.6070 C   0  0  1  0  0  3  0  0  0  0  0  0
   39.8030   31.8770   42.7760 O   0  0  0  0  0  0  0  0  0  0  0  0
   39.8040   32.8480   42.9570 H   0  0  0  0  0  0  0  0  0  0  0  0
   42.2600   31.8930   42.9170 O   0  0  0  0  0  0  0  0  0  0  0  0
   42.2170   32.8670   43.1460 H   0  0  0  0  0  0  0  0  0  0  0  0
  1  6  1  0  0  0  0
  2  1  2  0  0  0  0
  2  3  1  0  0  0  0
  3  4  2  0  0  0  0
  4  5  1  0  0  0  0
  5 10  1  0  0  0  0
  6  5  2  0  0  0  0
  7  1  1  0  0  0  0
  8  2  1  0  0  0  0
  9 14  1  6  0  0  0
  9 20  1  0  0  0  0
  9 10  1  0  0  0  0
  9 13  1  0  0  0  0
 10 11  1  0  0  0  0
 10 15  1  1  0  0  0
 11 12  1  0  0  0  0
 11 17  1  0  0  0  0
 12 13  1  0  0  0  0
 13 19  1  0  0  0  0
 16 11  1  0  0  0  0
 18 13  1  0  0  0  0
 21 20  1  0  0  0  0
 22  3  1  0  0  0  0
 24 23  2  6  0  0  0
 24 22  1  0  0  0  0
 24 27  1  0  0  0  0
 25 26  1  0  0  0  0
 25 24  1  0  0  0  0
 28 32  1  0  0  0  0
 28 33  1  1  0  0  0
 29 27  1  1  0  0  0
 29 30  1  0  0  0  0
 29 28  1  0  0  0  0
 31 30  1  0  0  0  0
 31 32  1  0  0  0  0
 32 35  1  1  0  0  0
 33 34  1  0  0  0  0
 35 36  1  0  0  0  0
M  END
>  <minimizedAffinity>
-5.69642115

$$$$

 OpenBabel03252507103D

 36 38  0  0  1  0  0  0  0  0999 V2000
   36.4650   25.5070   38.6260 C   0  0  0  0  0  0  0  0  0  0  0  0
   36.1990   26.6250   37.8170 C   0  0  0  0  0  0  0  0  0  0  0  0
   36.2450   27.8690   38.4220 C   0  0  0  0  0  0  0  0  0  0  0  0
   36.5370   27.9550   39.7320 N   0  0  0  0  0  0  0  0  0  0  0  0
   36.7890   26.8830   40.4910 C   0  0  0  0  0  0  0  0  0  0  0  0
   36.7510   25.6460   39.9290 N   0  0  0  0  0  0  0  0  0  0  0  0
   36.4400   24.5010   38.1910 H   0  0  0  0  0  0  0  0  0  0  0  0
   35.9760   26.4190   36.7670 H   0  0  0  0  0  0  0  0  0  0  0  0
   38.5520   26.7630   42.2740 C   0  0  1  0  0  0  0  0  0  0  0  0
   37.1000   26.9190   41.9330 C   0  0  1  0  0  0  0  0  0  0  0  0
   36.8890   28.3550   42.4650 C   0  0  0  0  0  0  0  0  0  0  0  0
   37.7350   28.5130   43.5170 O   0  0  0  0  0  0  0  0  0  0  0  0
   38.5190   27.3730   43.6740 C   0  0  0  0  0  0  0  0  0  0  0  0
   39.1820   27.4070   41.6270 H   0  0  0  0  0  0  0  0  0  0  0  0
   36.4570   26.2370   42.5000 H   0  0  0  0  0  0  0  0  0  0  0  0
   36.9830   29.0970   41.6550 H   0  0  0  0  0  0  0  0  0  0  0  0
   35.8440   28.3770   42.8340 H   0  0  0  0  0  0  0  0  0  0  0  0
   39.5260   27.7020   43.9540 H   0  0  0  0  0  0  0  0  0  0  0  0
   38.0650   26.6670   44.3960 H   0  0  0  0  0  0  0  0  0  0  0  0
   39.0260   25.4870   42.2180 O   0  0  0  0  0  0  0  0  0  0  0  0
   39.9400   25.4870   42.5950 H   0  0  0  0  0  0  0  0  0  0  0  0
   35.9820   28.9680   37.6160 O   0  0  0  0  0  0  0  0  0  0  0  0
   38.5970   29.4340   37.4200 O   0  0  0  0  0  0  0  0  0  0  0  0
   37.2300   30.0690   37.2350 P   0  0  1  0  0  0  0  0  0  0  0  0
   37.0170   30.6220   35.6770 O   0  0  0  0  0  0  0  0  0  0  0  0
   36.1230   31.0020   35.5950 H   0  0  0  0  0  0  0  0  0  0  0  0
   37.0950   31.3420   38.3530 O   0  0  0  0  0  0  0  0  0  0  0  0
   37.7110   31.8930   40.5350 C   0  0  1  0  0  3  0  0  0  0  0  0
   38.1910   31.4430   39.1690 C   0  0  2  0  0  3  0  0  0  0  0  0
   39.0630   32.4780   38.8440 O   0  0  0  0  0  0  0  0  0  0  0  0
   39.9280   32.4230   39.9600 C   0  0  0  0  0  2  0  0  0  0  0  0
   38.9390   32.5730   41.0970 C   0  0  1  0  0  3  0  0  0  0  0  0
   36.7180   32.8470   40.3290 O   0  0  0  0  0  0  0  0  0  0  0  0
   36.8870   33.3100   39.4730 H   0  0  0  0  0  0  0  0  0  0  0  0
   38.7170   33.9350   41.2640 O   0  0  0  0  0  0  0  0  0  0  0  0
   38.8270   34.4250   40.3960 H   0  0  0  0  0  0  0  0  0  0  0  0
  1  6  1  0  0  0  0
  2  3  1  0  0  0  0
  2  1  2  0  0  0  0
  3  4  2  0  0  0  0
  4  5  1  0  0  0  0
  5 10  1  0  0  0  0
  6  5  2  0  0  0  0
  7  1  1  0  0  0  0
  8  2  1  0  0  0  0
  9 14  1  6  0  0  0
  9 13  1  0  0  0  0
 10  9  1  0  0  0  0
 10 11  1  0  0  0  0
 10 15  1  1  0  0  0
 11 17  1  0  0  0  0
 11 12  1  0  0  0  0
 12 13  1  0  0  0  0
 13 18  1  0  0  0  0
 13 19  1  0  0  0  0
 16 11  1  0  0  0  0
 20  9  1  0  0  0  0
 20 21  1  0  0  0  0
 22  3  1  0  0  0  0
 24 23  2  1  0  0  0
 24 22  1  0  0  0  0
 24 27  1  0  0  0  0
 25 24  1  0  0  0  0
 26 25  1  0  0  0  0
 28 33  1  6  0  0  0
 28 32  1  0  0  0  0
 29 27  1  6  0  0  0
 29 28  1  0  0  0  0
 30 29  1  0  0  0  0
 30 31  1  0  0  0  0
 31 32  1  0  0  0  0
 32 35  1  6  0  0  0
 34 33  1  0  0  0  0
 36 35  1  0  0  0  0
M  END
>  <minimizedAffinity>
-5.67097521

$$$$

 OpenBabel03252507103D

 36 38  0  0  1  0  0  0  0  0999 V2000
   39.5120   27.7600   38.1760 C   0  0  0  0  0  0  0  0  0  0  0  0
   38.3220   28.3090   38.6850 C   0  0  0  0  0  0  0  0  0  0  0  0
   38.2100   29.6890   38.6820 C   0  0  0  0  0  0  0  0  0  0  0  0
   39.2240   30.4320   38.2020 N   0  0  0  0  0  0  0  0  0  0  0  0
   40.3510   29.8970   37.7200 C   0  0  0  0  0  0  0  0  0  0  0  0
   40.4940   28.5450   37.7080 N   0  0  0  0  0  0  0  0  0  0  0  0
   39.6460   26.6720   38.1580 H   0  0  0  0  0  0  0  0  0  0  0  0
   37.5770   27.5960   39.0440 H   0  0  0  0  0  0  0  0  0  0  0  0
   41.5640   32.0930   37.6420 C   0  0  1  0  0  0  0  0  0  0  0  0
   41.4970   30.6630   37.1950 C   0  0  1  0  0  0  0  0  0  0  0  0
   42.7990   30.1520   37.8540 C   0  0  0  0  0  0  0  0  0  0  0  0
   43.6660   31.1980   37.8750 O   0  0  0  0  0  0  0  0  0  0  0  0
   43.0480   32.3400   37.3760 C   0  0  0  0  0  0  0  0  0  0  0  0
   41.3870   32.1740   38.7340 H   0  0  0  0  0  0  0  0  0  0  0  0
   41.5890   30.5550   36.1080 H   0  0  0  0  0  0  0  0  0  0  0  0
   42.5920   29.6780   38.8280 H   0  0  0  0  0  0  0  0  0  0  0  0
   43.1860   29.3730   37.1660 H   0  0  0  0  0  0  0  0  0  0  0  0
   43.3910   33.1900   37.9770 H   0  0  0  0  0  0  0  0  0  0  0  0
   43.2330   32.4590   36.2900 H   0  0  0  0  0  0  0  0  0  0  0  0
   40.7180   32.9420   36.9950 O   0  0  0  0  0  0  0  0  0  0  0  0
   40.9480   33.8640   37.2670 H   0  0  0  0  0  0  0  0  0  0  0  0
   37.0320   30.2230   39.1840 O   0  0  0  0  0  0  0  0  0  0  0  0
   37.4400   32.5370   40.4380 O   0  0  0  0  0  0  0  0  0  0  0  0
   37.0430   31.0880   40.6560 P   0  0  1  0  0  0  0  0  0  0  0  0
   35.5440   30.9650   41.3750 O   0  0  0  0  0  0  0  0  0  0  0  0
   35.3180   30.0230   41.4780 H   0  0  0  0  0  0  0  0  0  0  0  0
   38.2390   30.3630   41.6220 O   0  0  0  0  0  0  0  0  0  0  0  0
   38.8570   28.6380   43.0670 C   0  0  1  0  0  3  0  0  0  0  0  0
   37.7160   29.4780   42.5290 C   0  0  2  0  0  3  0  0  0  0  0  0
   36.9040   28.4920   41.9750 O   0  0  0  0  0  0  0  0  0  0  0  0
   36.7150   27.6710   43.1100 C   0  0  0  0  0  2  0  0  0  0  0  0
   38.1500   27.3700   43.4880 C   0  0  1  0  0  3  0  0  0  0  0  0
   39.7000   28.3540   41.9970 O   0  0  0  0  0  0  0  0  0  0  0  0
   39.1710   28.3400   41.1630 H   0  0  0  0  0  0  0  0  0  0  0  0
   38.5570   26.2940   42.7070 O   0  0  0  0  0  0  0  0  0  0  0  0
   38.0750   26.2870   41.8280 H   0  0  0  0  0  0  0  0  0  0  0  0
  1  2  1  0  0  0  0
  2  8  1  0  0  0  0
  3  2  2  0  0  0  0
  3 22  1  0  0  0  0
  4  3  1  0  0  0  0
  5  4  2  0  0  0  0
  6  5  1  0  0  0  0
  6  1  2  0  0  0  0
  7  1  1  0  0  0  0
  9 14  1  1  0  0  0
 10 15  1  6  0  0  0
 10  9  1  0  0  0  0
 10  5  1  0  0  0  0
 10 11  1  0  0  0  0
 11 12  1  0  0  0  0
 11 16  1  0  0  0  0
 13  9  1  0  0  0  0
 13 12  1  0  0  0  0
 13 18  1  0  0  0  0
 17 11  1  0  0  0  0
 19 13  1  0  0  0  0
 20 21  1  0  0  0  0
 20  9  1  0  0  0  0
 22 24  1  0  0  0  0
 24 23  2  6  0  0  0
 24 25  1  0  0  0  0
 24 27  1  0  0  0  0
 25 26  1  0  0  0  0
 28 33  1  6  0  0  0
 28 32  1  0  0  0  0
 29 27  1  6  0  0  0
 29 28  1  0  0  0  0
 30 29  1  0  0  0  0
 30 31  1  0  0  0  0
 31 32  1  0  0  0  0
 32 35  1  6  0  0  0
 34 33  1  0  0  0  0
 36 35  1  0  0  0  0
M  END
>  <minimizedAffinity>
-5.45319366

$$$$
