
 OpenBabel03242516313D

 31 33  0  0  1  0  0  0  0  0999 V2000
   48.0650   34.6260   42.0490 C   0  0  2  0  0  0  0  0  0  0  0  0
   46.7700   33.8550   42.3530 C   0  0  1  0  0  0  0  0  0  0  0  0
   47.3290   32.6390   42.6970 O   0  0  0  0  0  0  0  0  0  0  0  0
   48.1780   32.3470   41.6260 C   0  0  0  0  0  0  0  0  0  0  0  0
   48.5630   33.6650   40.9680 C   0  0  1  0  0  0  0  0  0  0  0  0
   47.8750   35.6310   41.6640 H   0  0  0  0  0  0  0  0  0  0  0  0
   46.2130   33.8540   41.3930 H   0  0  0  0  0  0  0  0  0  0  0  0
   47.6630   31.7470   40.8420 H   0  0  0  0  0  0  0  0  0  0  0  0
   49.0620   31.8170   42.0150 H   0  0  0  0  0  0  0  0  0  0  0  0
   49.6420   33.7750   40.7970 H   0  0  0  0  0  0  0  0  0  0  0  0
   44.5130   36.0220   44.5080 C   0  0  0  0  0  0  0  0  0  0  0  0
   45.1980   35.6260   43.3560 C   0  0  0  0  0  0  0  0  0  0  0  0
   45.9770   34.4800   43.4100 C   0  0  0  0  0  0  0  0  0  0  0  0
   46.0270   33.8000   44.6020 N   0  0  0  0  0  0  0  0  0  0  0  0
   45.3570   34.2030   45.6960 C   0  0  0  0  0  0  0  0  0  0  0  0
   44.6010   35.3140   45.6490 N   0  0  0  0  0  0  0  0  0  0  0  0
   43.9290   36.9400   44.3560 H   0  0  0  0  0  0  0  0  0  0  0  0
   45.2160   36.0880   42.4010 H   0  0  0  0  0  0  0  0  0  0  0  0
   45.4060   33.6560   46.6290 H   0  0  0  0  0  0  0  0  0  0  0  0
   48.9410   34.5340   43.0890 O   0  0  0  0  0  0  0  0  0  0  0  0
   49.5110   35.3290   43.0970 H   0  0  0  0  0  0  0  0  0  0  0  0
   47.7960   33.8930   39.8320 O   0  0  0  0  0  0  0  0  0  0  0  0
   49.1670   32.8220   38.2030 C   0  0  1  0  0  0  0  0  0  0  0  0
   48.5190   34.1260   38.6870 C   0  0  1  0  0  0  0  0  0  0  0  0
   47.5710   34.2970   37.6640 O   0  0  0  0  0  0  0  0  0  0  0  0
   46.8540   33.1070   37.8190 C   0  0  0  0  0  0  0  0  0  0  0  0
   47.9470   32.0720   37.6580 C   0  0  1  0  0  0  0  0  0  0  0  0
   49.9430   33.1350   37.1000 O   0  0  0  0  0  0  0  0  0  0  0  0
   49.9170   34.0700   36.8310 H   0  0  0  0  0  0  0  0  0  0  0  0
   48.0720   31.7670   36.3190 O   0  0  0  0  0  0  0  0  0  0  0  0
   48.7230   31.0590   36.1300 H   0  0  0  0  0  0  0  0  0  0  0  0
  1  6  1  6  0  0  0
  1  2  1  0  0  0  0
  1 20  1  0  0  0  0
  2  7  1  6  0  0  0
  2  3  1  0  0  0  0
  2 13  1  0  0  0  0
  4  9  1  0  0  0  0
  4  3  1  0  0  0  0
  5 10  1  6  0  0  0
  5  4  1  0  0  0  0
  5  1  1  0  0  0  0
  8  4  1  0  0  0  0
 11 16  1  0  0  0  0
 12 13  1  0  0  0  0
 12 11  2  0  0  0  0
 13 14  2  0  0  0  0
 14 15  1  0  0  0  0
 15 19  1  0  0  0  0
 16 15  2  0  0  0  0
 17 11  1  0  0  0  0
 18 12  1  0  0  0  0
 20 21  1  0  0  0  0
 22  5  1  0  0  0  0
 23 28  1  6  0  0  0
 23 24  1  0  0  0  0
 24 22  1  1  0  0  0
 25 26  1  0  0  0  0
 25 24  1  0  0  0  0
 27 30  1  6  0  0  0
 27 26  1  0  0  0  0
 27 23  1  0  0  0  0
 29 28  1  0  0  0  0
 31 30  1  0  0  0  0
M  END
>  <minimizedAffinity>
-5.09268141

>  <minimizedRMSD>
1.47121286

$$$$
