
 OpenBabel03252508063D

 44 47  0  0  1  0  0  0  0  0999 V2000
   45.1920   35.8030   42.9920 C   0  0  0  0  0  0  0  0  0  0  0  0
   45.4890   34.4510   43.0280 C   0  0  0  0  0  0  0  0  0  0  0  0
   45.3350   33.7460   44.1950 C   0  0  0  0  0  0  0  0  0  0  0  0
   44.8760   34.4450   45.2940 N   0  0  0  0  0  0  0  0  0  0  0  0
   44.5900   35.7460   45.2510 C   0  0  0  0  0  0  0  0  0  0  0  0
   44.7530   36.4140   44.0900 N   0  0  0  0  0  0  0  0  0  0  0  0
   45.3120   36.3710   42.0730 H   0  0  0  0  0  0  0  0  0  0  0  0
   44.2320   36.2620   46.1340 H   0  0  0  0  0  0  0  0  0  0  0  0
   45.5940   32.3700   44.3970 C   0  0  0  0  0  0  0  0  0  0  0  0
   45.1840   31.3600   43.5220 C   0  0  0  0  0  0  0  0  0  0  0  0
   45.3750   30.0220   43.7470 C   0  0  0  0  0  0  0  0  0  0  0  0
   46.0050   29.6080   44.8970 C   0  0  0  0  0  0  0  0  0  0  0  0
   46.4360   30.6210   45.8070 C   0  0  0  0  0  0  0  0  0  0  0  0
   47.0620   30.2180   46.9510 C   0  0  0  0  0  0  0  0  0  0  0  0
   47.5050   31.1480   47.8700 C   0  0  0  0  0  0  0  0  0  0  0  0
   47.3060   32.5150   47.6160 C   0  0  0  0  0  0  0  0  0  0  0  0
   46.6550   32.8780   46.4240 C   0  0  0  0  0  0  0  0  0  0  0  0
   46.2240   31.9330   45.5340 C   0  0  0  0  0  0  0  0  0  0  0  0
   44.6840   31.6780   42.6110 H   0  0  0  0  0  0  0  0  0  0  0  0
   45.0270   29.3000   43.0180 H   0  0  0  0  0  0  0  0  0  0  0  0
   46.1820   28.5700   45.1300 H   0  0  0  0  0  0  0  0  0  0  0  0
   47.2290   29.1700   47.1730 H   0  0  0  0  0  0  0  0  0  0  0  0
   48.0000   30.7840   48.7740 H   0  0  0  0  0  0  0  0  0  0  0  0
   47.6850   33.1700   48.3850 H   0  0  0  0  0  0  0  0  0  0  0  0
   46.6200   33.9470   46.4020 H   0  0  0  0  0  0  0  0  0  0  0  0
   45.9300   33.8770   41.8690 O   0  0  0  0  0  0  0  0  0  0  0  0
   48.0190   32.3950   41.3230 O   0  0  0  0  0  0  0  0  0  0  0  0
   47.5520   33.8040   41.3850 P   0  0  1  0  0  0  0  0  0  0  0  0
   47.7570   34.4610   39.8400 O   0  0  0  0  0  0  0  0  0  0  0  0
   48.9150   33.8390   37.8960 C   0  0  2  0  0  3  0  0  0  0  0  0
   47.8510   33.4690   38.8740 C   0  0  2  0  0  3  0  0  0  0  0  0
   46.6550   33.3660   38.1710 O   0  0  0  0  0  0  0  0  0  0  0  0
   46.9900   32.9450   36.8860 C   0  0  0  0  0  2  0  0  0  0  0  0
   48.2400   33.6950   36.5410 C   0  0  2  0  0  3  0  0  0  0  0  0
   49.9800   32.9260   37.9380 O   0  0  0  0  0  0  0  0  0  0  0  0
   49.6840   32.1610   38.4920 H   0  0  0  0  0  0  0  0  0  0  0  0
   49.0010   32.9590   35.6510 O   0  0  0  0  0  0  0  0  0  0  0  0
   48.6190   32.0410   35.4900 H   0  0  0  0  0  0  0  0  0  0  0  0
   48.4660   34.6960   42.4760 O   0  0  0  0  0  0  0  0  0  0  0  0
   49.6840   35.3100   42.2310 C   0  0  0  0  0  0  0  0  0  0  0  0
   49.3900   36.3800   41.6690 O   0  0  0  0  0  0  0  0  0  0  0  0
   50.7750   34.4960   42.7070 N   0  0  0  0  0  0  0  0  0  0  0  0
   51.4960   33.9490   42.1600 H   0  0  0  0  0  0  0  0  0  0  0  0
   50.8850   34.4260   43.7470 H   0  0  0  0  0  0  0  0  0  0  0  0
  1  2  2  0  0  0  0
  1  6  1  0  0  0  0
  2  3  1  0  0  0  0
  3  9  1  0  0  0  0
  3  4  2  0  0  0  0
  5  4  1  0  0  0  0
  5  8  1  0  0  0  0
  6  5  2  0  0  0  0
  7  1  1  0  0  0  0
  9 18  1  0  0  0  0
 10 11  1  0  0  0  0
 10  9  2  0  0  0  0
 11 12  2  0  0  0  0
 12 21  1  0  0  0  0
 12 13  1  0  0  0  0
 13 14  1  0  0  0  0
 14 22  1  0  0  0  0
 14 15  2  0  0  0  0
 15 23  1  0  0  0  0
 16 15  1  0  0  0  0
 16 24  1  0  0  0  0
 17 16  2  0  0  0  0
 18 13  2  0  0  0  0
 18 17  1  0  0  0  0
 19 10  1  0  0  0  0
 20 11  1  0  0  0  0
 25 17  1  0  0  0  0
 26  2  1  0  0  0  0
 28 27  2  1  0  0  0
 28 26  1  0  0  0  0
 28 39  1  0  0  0  0
 29 28  1  0  0  0  0
 30 35  1  6  0  0  0
 30 31  1  0  0  0  0
 31 29  1  1  0  0  0
 32 31  1  0  0  0  0
 33 32  1  0  0  0  0
 34 37  1  6  0  0  0
 34 33  1  0  0  0  0
 34 30  1  0  0  0  0
 35 36  1  0  0  0  0
 38 37  1  0  0  0  0
 40 39  1  0  0  0  0
 40 42  1  0  0  0  0
 41 40  2  0  0  0  0
 42 44  1  0  0  0  0
 43 42  1  0  0  0  0
M  END
>  <minimizedAffinity>
-6.58806753

>  <minimizedRMSD>
0.872235239

$$$$
