
     RDKit          3D

 41 43  0  0  0  0  0  0  0  0999 V2000
   44.5768   35.5953   44.7544 C   0  0  0  0  0  0  0  0  0  0  0  0
   45.1528   35.7337   43.4792 C   0  0  0  0  0  0  0  0  0  0  0  0
   46.1907   34.8766   43.1571 C   0  0  0  0  0  0  0  0  0  0  0  0
   46.5982   33.9645   44.0593 N   0  0  0  0  0  0  0  0  0  0  0  0
   46.0414   33.8435   45.2689 C   0  0  0  0  0  0  0  0  0  0  0  0
   45.0198   34.6688   45.6178 N   0  0  0  0  0  0  0  0  0  0  0  0
   45.4135   32.5500   47.3265 C   0  0  1  0  0  0  0  0  0  0  0  0
   46.4557   32.8722   46.2987 C   0  0  1  0  0  0  0  0  0  0  0  0
   46.5900   31.4717   45.6570 C   0  0  0  0  0  0  0  0  0  0  0  0
   46.3370   30.5637   46.6356 O   0  0  0  0  0  0  0  0  0  0  0  0
   45.9816   31.2184   47.8122 C   0  0  0  0  0  0  0  0  0  0  0  0
   45.2493   33.4894   48.2990 O   0  0  0  0  0  0  0  0  0  0  0  0
   46.7533   35.0185   41.8961 O   0  0  0  0  0  0  0  0  0  0  0  0
   48.6021   33.2554   41.1465 O   0  0  0  0  0  0  0  0  0  0  0  0
   48.4071   34.6740   41.6506 P   0  0  1  0  0  0  0  0  0  0  0  0
   49.0503   35.7927   40.5964 O   0  0  0  0  0  0  0  0  0  0  0  0
   49.1454   34.7885   43.1777 O   0  0  0  0  0  0  0  0  0  0  0  0
   43.7522   36.2517   45.0544 H   0  0  0  0  0  0  0  0  0  0  0  0
   44.7305   36.5133   42.8406 H   0  0  0  0  0  0  0  0  0  0  0  0
   44.4321   32.3563   46.8475 H   0  0  0  0  0  0  0  0  0  0  0  0
   47.4189   33.1456   46.7454 H   0  0  0  0  0  0  0  0  0  0  0  0
   45.9679   31.3888   44.7501 H   0  0  0  0  0  0  0  0  0  0  0  0
   47.6540   31.3921   45.3542 H   0  0  0  0  0  0  0  0  0  0  0  0
   45.1870   30.6323   48.2883 H   0  0  0  0  0  0  0  0  0  0  0  0
   46.8620   31.3849   48.4630 H   0  0  0  0  0  0  0  0  0  0  0  0
   44.6491   33.1113   48.9883 H   0  0  0  0  0  0  0  0  0  0  0  0
   48.8856   36.6876   40.9444 H   0  0  0  0  0  0  0  0  0  0  0  0
   49.2025   32.3024   43.5293 O   0  0  0  0  0  0  0  0  0  0  0  0
   50.3209   32.7980   42.8645 C   0  0  1  0  0  0  0  0  0  0  0  0
   50.4161   34.2763   43.1863 C   0  0  2  0  0  0  0  0  0  0  0  0
   51.0141   34.2319   44.4435 O   0  0  0  0  0  0  0  0  0  0  0  0
   52.1762   33.4908   44.1301 C   0  0  0  0  0  0  0  0  0  0  0  0
   51.5676   32.2462   43.5184 C   0  0  1  0  0  0  0  0  0  0  0  0
   51.2402   31.3976   44.5695 O   0  0  0  0  0  0  0  0  0  0  0  0
   49.0466   32.8394   44.3434 H   0  0  0  0  0  0  0  0  0  0  0  0
   50.2743   32.6291   41.7750 H   0  0  0  0  0  0  0  0  0  0  0  0
   51.0454   34.8387   42.4554 H   0  0  0  0  0  0  0  0  0  0  0  0
   52.7226   33.9974   43.3098 H   0  0  0  0  0  0  0  0  0  0  0  0
   52.7800   33.2989   45.0196 H   0  0  0  0  0  0  0  0  0  0  0  0
   52.2046   31.7590   42.7782 H   0  0  0  0  0  0  0  0  0  0  0  0
   51.0215   31.9196   45.3965 H   0  0  0  0  0  0  0  0  0  0  0  0
  1  6  2  0
  2  1  1  0
  3  2  2  0
  3  4  1  0
  4  5  2  0
  5  6  1  0
  7 11  1  0
  7 12  1  0
  8  5  1  0
  8  7  1  0
  9  8  1  0
  9 10  1  0
 10 11  1  0
 13  3  1  0
 14 15  2  0
 15 13  1  1
 15 17  1  0
 16 15  1  0
  1 18  1  0
  2 19  1  0
  7 20  1  6
  8 21  1  1
  9 22  1  0
  9 23  1  0
 11 24  1  0
 11 25  1  0
 12 26  1  0
 16 27  1  0
 28 29  1  0
 29 30  1  0
 30 31  1  0
 31 32  1  0
 32 33  1  0
 33 34  1  0
 33 29  1  0
 28 35  1  0
 29 36  1  6
 30 37  1  6
 32 38  1  0
 32 39  1  0
 33 40  1  6
 34 41  1  0
 17 30  1  0
M  ISO  8  18  14  19  14  20  13  21  13  22  13  23  13  24  13  25  13
M  ISO  2  26   3  27   3
M  END
>  <DihAtoms>  (1) 
14,16,29,28

>  <DihDeg>  (1) 
-122.91616866567178

$$$$
