
 OpenBabel03252508063D

 44 47  0  0  1  0  0  0  0  0999 V2000
   45.4480   35.7020   42.7960 C   0  0  0  0  0  0  0  0  0  0  0  0
   45.6770   34.3410   42.9210 C   0  0  0  0  0  0  0  0  0  0  0  0
   45.3830   33.7020   44.0990 C   0  0  0  0  0  0  0  0  0  0  0  0
   44.8590   34.4730   45.1170 N   0  0  0  0  0  0  0  0  0  0  0  0
   44.6390   35.7810   44.9900 C   0  0  0  0  0  0  0  0  0  0  0  0
   44.9400   36.3840   43.8200 N   0  0  0  0  0  0  0  0  0  0  0  0
   45.6780   36.2190   41.8680 H   0  0  0  0  0  0  0  0  0  0  0  0
   44.2270   36.3550   45.8110 H   0  0  0  0  0  0  0  0  0  0  0  0
   45.5580   32.3280   44.3850 C   0  0  0  0  0  0  0  0  0  0  0  0
   45.0850   31.2920   43.5740 C   0  0  0  0  0  0  0  0  0  0  0  0
   45.1940   29.9620   43.8810 C   0  0  0  0  0  0  0  0  0  0  0  0
   45.8010   29.5820   45.0550 C   0  0  0  0  0  0  0  0  0  0  0  0
   46.2960   30.6200   45.9020 C   0  0  0  0  0  0  0  0  0  0  0  0
   46.8990   30.2510   47.0680 C   0  0  0  0  0  0  0  0  0  0  0  0
   47.4000   31.2070   47.9290 C   0  0  0  0  0  0  0  0  0  0  0  0
   47.2850   32.5650   47.5910 C   0  0  0  0  0  0  0  0  0  0  0  0
   46.6540   32.8940   46.3780 C   0  0  0  0  0  0  0  0  0  0  0  0
   46.1630   31.9240   45.5480 C   0  0  0  0  0  0  0  0  0  0  0  0
   44.6030   31.5840   42.6450 H   0  0  0  0  0  0  0  0  0  0  0  0
   44.8010   29.2190   43.1970 H   0  0  0  0  0  0  0  0  0  0  0  0
   45.9140   28.5510   45.3520 H   0  0  0  0  0  0  0  0  0  0  0  0
   47.0030   29.2110   47.3550 H   0  0  0  0  0  0  0  0  0  0  0  0
   47.8750   30.8700   48.8540 H   0  0  0  0  0  0  0  0  0  0  0  0
   47.7050   33.2430   48.3190 H   0  0  0  0  0  0  0  0  0  0  0  0
   46.6840   33.9590   46.2900 H   0  0  0  0  0  0  0  0  0  0  0  0
   46.1950   33.6930   41.8340 O   0  0  0  0  0  0  0  0  0  0  0  0
   48.1490   31.9510   41.8090 O   0  0  0  0  0  0  0  0  0  0  0  0
   47.8430   33.3880   41.5900 P   0  0  1  0  0  0  0  0  0  0  0  0
   48.3020   33.7550   40.0030 O   0  0  0  0  0  0  0  0  0  0  0  0
   46.5430   33.7080   38.4500 C   0  0  2  0  0  3  0  0  0  0  0  0
   47.6540   32.9400   39.0850 C   0  0  2  0  0  3  0  0  0  0  0  0
   47.0890   31.8430   39.7250 O   0  0  0  0  0  0  0  0  0  0  0  0
   45.9600   31.4960   38.9900 C   0  0  0  0  0  2  0  0  0  0  0  0
   45.3330   32.7990   38.5960 C   0  0  2  0  0  3  0  0  0  0  0  0
   46.7740   33.8890   37.0770 O   0  0  0  0  0  0  0  0  0  0  0  0
   47.5410   33.3120   36.8350 H   0  0  0  0  0  0  0  0  0  0  0  0
   44.6420   32.6490   37.4080 O   0  0  0  0  0  0  0  0  0  0  0  0
   44.7750   31.7390   37.0010 H   0  0  0  0  0  0  0  0  0  0  0  0
   48.7190   34.3590   42.6420 O   0  0  0  0  0  0  0  0  0  0  0  0
   49.8280   35.1320   42.3310 C   0  0  0  0  0  0  0  0  0  0  0  0
   49.3570   36.2170   41.9460 O   0  0  0  0  0  0  0  0  0  0  0  0
   51.0470   34.3990   42.5680 N   0  0  0  0  0  0  0  0  0  0  0  0
   51.7390   34.0020   41.8760 H   0  0  0  0  0  0  0  0  0  0  0  0
   51.3000   34.2280   43.5700 H   0  0  0  0  0  0  0  0  0  0  0  0
  1  2  2  0  0  0  0
  1  6  1  0  0  0  0
  2  3  1  0  0  0  0
  3  9  1  0  0  0  0
  3  4  2  0  0  0  0
  5  4  1  0  0  0  0
  5  8  1  0  0  0  0
  6  5  2  0  0  0  0
  7  1  1  0  0  0  0
  9 18  1  0  0  0  0
 10 11  1  0  0  0  0
 10  9  2  0  0  0  0
 11 12  2  0  0  0  0
 12 21  1  0  0  0  0
 12 13  1  0  0  0  0
 13 14  1  0  0  0  0
 14 22  1  0  0  0  0
 14 15  2  0  0  0  0
 15 23  1  0  0  0  0
 16 15  1  0  0  0  0
 16 24  1  0  0  0  0
 17 16  2  0  0  0  0
 18 13  2  0  0  0  0
 18 17  1  0  0  0  0
 19 10  1  0  0  0  0
 20 11  1  0  0  0  0
 25 17  1  0  0  0  0
 26  2  1  0  0  0  0
 28 27  2  1  0  0  0
 28 26  1  0  0  0  0
 28 39  1  0  0  0  0
 29 28  1  0  0  0  0
 30 35  1  6  0  0  0
 30 34  1  0  0  0  0
 30 31  1  0  0  0  0
 31 32  1  0  0  0  0
 31 29  1  1  0  0  0
 33 32  1  0  0  0  0
 34 37  1  6  0  0  0
 34 33  1  0  0  0  0
 36 35  1  0  0  0  0
 38 37  1  0  0  0  0
 40 42  1  0  0  0  0
 40 39  1  0  0  0  0
 41 40  2  0  0  0  0
 42 44  1  0  0  0  0
 43 42  1  0  0  0  0
M  END
>  <minimizedAffinity>
-5.85565233

>  <minimizedRMSD>
1.68418097

$$$$
