
 OpenBabel03252505273D

 24 25  0  0  1  0  0  0  0  0999 V2000
   47.3120   32.7450   47.6000 O   0  0  0  0  0  0  0  0  0  0  0  0
   45.8630   32.5890   47.1680 P   0  0  1  0  0  0  0  0  0  0  0  0
   44.8840   33.7640   47.8860 O   0  0  0  0  0  0  0  0  0  0  0  0
   43.9600   33.4560   48.0310 H   0  0  0  0  0  0  0  0  0  0  0  0
   45.8250   32.7020   45.4910 O   0  0  0  0  0  0  0  0  0  0  0  0
   44.6170   35.9490   44.6370 C   0  0  0  0  0  0  0  0  0  0  0  0
   45.1800   36.2040   43.3750 C   0  0  0  0  0  0  0  0  0  0  0  0
   46.0030   35.1940   42.8290 C   0  0  0  0  0  0  0  0  0  0  0  0
   46.1960   34.0640   43.5400 N   0  0  0  0  0  0  0  0  0  0  0  0
   45.6400   33.8540   44.7440 C   0  0  0  0  0  0  0  0  0  0  0  0
   44.8570   34.7870   45.2900 N   0  0  0  0  0  0  0  0  0  0  0  0
   43.9800   36.7090   45.0770 H   0  0  0  0  0  0  0  0  0  0  0  0
   44.9680   37.1390   42.8820 H   0  0  0  0  0  0  0  0  0  0  0  0
   46.4450   35.3730   41.8580 H   0  0  0  0  0  0  0  0  0  0  0  0
   45.3490   31.0830   47.7360 O   0  0  0  0  0  0  0  0  0  0  0  0
   44.6290   28.9690   46.8980 C   0  0  2  0  0  0  0  0  0  0  0  0
   45.6940   30.0200   46.9490 C   0  0  2  0  0  0  0  0  0  0  0  0
   46.8780   29.4040   47.3020 O   0  0  0  0  0  0  0  0  0  0  0  0
   46.7730   28.0580   47.0930 C   0  0  0  0  0  0  0  0  0  0  0  0
   45.4280   27.7460   46.4950 C   0  0  2  0  0  0  0  0  0  0  0  0
   43.6630   29.2850   45.9480 O   0  0  0  0  0  0  0  0  0  0  0  0
   42.9410   28.6230   45.9660 H   0  0  0  0  0  0  0  0  0  0  0  0
   45.4700   27.6740   45.0970 O   0  0  0  0  0  0  0  0  0  0  0  0
   46.3860   27.8730   44.7310 H   0  0  0  0  0  0  0  0  0  0  0  0
  2  1  2  1  0  0  0
  2 15  1  0  0  0  0
  2  3  1  0  0  0  0
  3  4  1  0  0  0  0
  5  2  1  0  0  0  0
  6 12  1  0  0  0  0
  6 11  1  0  0  0  0
  7  6  2  0  0  0  0
  8  7  1  0  0  0  0
  8  9  2  0  0  0  0
  9 10  1  0  0  0  0
 10 11  2  0  0  0  0
 10  5  1  0  0  0  0
 13  7  1  0  0  0  0
 14  8  1  0  0  0  0
 16 21  1  6  0  0  0
 16 17  1  0  0  0  0
 17 18  1  0  0  0  0
 17 15  1  1  0  0  0
 19 18  1  0  0  0  0
 20 23  1  6  0  0  0
 20 16  1  0  0  0  0
 20 19  1  0  0  0  0
 21 22  1  0  0  0  0
 24 23  1  0  0  0  0
M  END
>  <minimizedAffinity>
-4.95394182

>  <minimizedRMSD>
1.94705045

$$$$
