
 OpenBabel03252505273D

 24 25  0  0  1  0  0  0  0  0999 V2000
   46.9110   32.1810   48.4080 O   0  0  0  0  0  0  0  0  0  0  0  0
   45.8870   32.4280   47.3120 P   0  0  1  0  0  0  0  0  0  0  0  0
   44.5990   33.3600   47.8820 O   0  0  0  0  0  0  0  0  0  0  0  0
   43.7510   33.1640   47.4210 H   0  0  0  0  0  0  0  0  0  0  0  0
   46.6840   33.1940   46.0450 O   0  0  0  0  0  0  0  0  0  0  0  0
   44.4770   35.6450   44.6850 C   0  0  0  0  0  0  0  0  0  0  0  0
   44.8930   35.7790   43.3490 C   0  0  0  0  0  0  0  0  0  0  0  0
   45.9800   34.9770   42.9380 C   0  0  0  0  0  0  0  0  0  0  0  0
   46.5450   34.1440   43.8370 N   0  0  0  0  0  0  0  0  0  0  0  0
   46.1200   34.0420   45.1070 C   0  0  0  0  0  0  0  0  0  0  0  0
   45.0950   34.7850   45.5290 N   0  0  0  0  0  0  0  0  0  0  0  0
   43.6430   36.2510   45.0250 H   0  0  0  0  0  0  0  0  0  0  0  0
   44.3790   36.4730   42.7040 H   0  0  0  0  0  0  0  0  0  0  0  0
   46.3150   35.0660   41.9130 H   0  0  0  0  0  0  0  0  0  0  0  0
   45.2690   30.9160   46.8800 O   0  0  0  0  0  0  0  0  0  0  0  0
   46.9210   29.2210   46.5870 C   0  0  2  0  0  3  0  0  0  0  0  0
   45.8870   29.8490   47.4690 C   0  0  2  0  0  3  0  0  0  0  0  0
   45.0310   28.8510   47.8930 O   0  0  0  0  0  0  0  0  0  0  0  0
   45.6240   27.6330   47.7120 C   0  0  0  0  0  2  0  0  0  0  0  0
   47.0160   27.8280   47.1750 C   0  0  2  0  0  3  0  0  0  0  0  0
   48.1320   29.9000   46.6790 O   0  0  0  0  0  0  0  0  0  0  0  0
   48.7820   29.5180   46.0530 H   0  0  0  0  0  0  0  0  0  0  0  0
   47.9830   27.8300   48.1890 O   0  0  0  0  0  0  0  0  0  0  0  0
   47.5760   27.7320   49.1050 H   0  0  0  0  0  0  0  0  0  0  0  0
  2  3  1  0  0  0  0
  2  1  2  1  0  0  0
  4  3  1  0  0  0  0
  5  2  1  0  0  0  0
  6 12  1  0  0  0  0
  6 11  1  0  0  0  0
  7  6  2  0  0  0  0
  8  7  1  0  0  0  0
  8  9  2  0  0  0  0
  9 10  1  0  0  0  0
 10 11  2  0  0  0  0
 10  5  1  0  0  0  0
 13  7  1  0  0  0  0
 14  8  1  0  0  0  0
 15  2  1  0  0  0  0
 16 21  1  1  0  0  0
 16 20  1  0  0  0  0
 16 17  1  0  0  0  0
 17 15  1  6  0  0  0
 17 18  1  0  0  0  0
 19 18  1  0  0  0  0
 20 19  1  0  0  0  0
 20 23  1  1  0  0  0
 22 21  1  0  0  0  0
 23 24  1  0  0  0  0
M  END
>  <minimizedAffinity>
-4.81572485

>  <minimizedRMSD>
0.742749155

$$$$
