REMARK  Name = 
REMARK  9 active torsions:
REMARK  status: ('A' for Active; 'I' for Inactive)
REMARK    1  A    between atoms: C_3  and  O_13
REMARK    2  A    between atoms: C_5  and  C_8
REMARK    3  A    between atoms: C_7  and  O_12
REMARK    4  A    between atoms: O_13  and  P_15
REMARK    5  A    between atoms: P_15  and  O_16
REMARK    6  A    between atoms: P_15  and  O_17
REMARK    7  A    between atoms: O_17  and  C_30
REMARK    8  A    between atoms: O_28  and  C_29
REMARK    9  A    between atoms: C_33  and  O_34
REMARK                            x       y       z     vdW  Elec       q    Type
REMARK                         _______ _______ _______ _____ _____    ______ ____
ROOT
ATOM      1  C   UNL     1      44.577  35.595  44.754  0.00  0.00    +0.000 A 
ATOM      2  C   UNL     1      45.153  35.734  43.479  0.00  0.00    +0.000 A 
ATOM      3  C   UNL     1      46.191  34.877  43.157  0.00  0.00    +0.000 A 
ATOM      4  N   UNL     1      46.598  33.965  44.059  0.00  0.00    +0.000 NA
ATOM      5  C   UNL     1      46.041  33.843  45.269  0.00  0.00    +0.000 A 
ATOM      6  N   UNL     1      45.020  34.669  45.618  0.00  0.00    +0.000 NA
ATOM      7  H   UNL     1      43.752  36.252  45.054  0.00  0.00    +0.000 HD
ATOM      8  H   UNL     1      44.730  36.513  42.841  0.00  0.00    +0.000 HD
ENDROOT
BRANCH   5  10
ATOM      9  C   UNL     1      45.413  32.550  47.327  0.00  0.00    +0.000 C 
ATOM     10  C   UNL     1      46.456  32.872  46.299  0.00  0.00    +0.000 C 
ATOM     11  C   UNL     1      46.590  31.472  45.657  0.00  0.00    +0.000 C 
ATOM     12  O   UNL     1      46.337  30.564  46.636  0.00  0.00    +0.000 OA
ATOM     13  C   UNL     1      45.982  31.218  47.812  0.00  0.00    +0.000 C 
ATOM     14  H   UNL     1      44.432  32.356  46.847  0.00  0.00    +0.000 HD
ATOM     15  H   UNL     1      47.419  33.146  46.745  0.00  0.00    +0.000 HD
ATOM     16  H   UNL     1      45.968  31.389  44.750  0.00  0.00    +0.000 HD
ATOM     17  H   UNL     1      47.654  31.392  45.354  0.00  0.00    +0.000 HD
ATOM     18  H   UNL     1      45.187  30.632  48.288  0.00  0.00    +0.000 HD
ATOM     19  H   UNL     1      46.862  31.385  48.463  0.00  0.00    +0.000 HD
BRANCH   9  20
ATOM     20  O   UNL     1      45.249  33.489  48.299  0.00  0.00    +0.000 OA
ATOM     21  H   UNL     1      44.649  33.111  48.988  0.00  0.00    +0.000 HD
ENDBRANCH   9  20
ENDBRANCH   5  10
BRANCH   3  22
ATOM     22  O   UNL     1      46.753  35.019  41.896  0.00  0.00    +0.000 OA
BRANCH  22  24
ATOM     23  O   UNL     1      48.602  33.255  41.147  0.00  0.00    +0.000 OA
ATOM     24  P   UNL     1      48.407  34.674  41.651  0.00  0.00    +0.000 P 
BRANCH  24  25
ATOM     25  O   UNL     1      49.050  35.793  40.596  0.00  0.00    +0.000 OA
ATOM     26  H   UNL     1      48.886  36.688  40.944  0.00  0.00    +0.000 HD
ENDBRANCH  24  25
BRANCH  24  27
ATOM     27  O   UNL     1      49.145  34.788  43.178  0.00  0.00    +0.000 OA
BRANCH  27  29
ATOM     28  C   UNL     1      50.321  32.798  42.864  0.00  0.00    +0.000 C 
ATOM     29  C   UNL     1      50.416  34.276  43.186  0.00  0.00    +0.000 C 
ATOM     30  O   UNL     1      51.014  34.232  44.444  0.00  0.00    +0.000 OA
ATOM     31  C   UNL     1      52.176  33.491  44.130  0.00  0.00    +0.000 C 
ATOM     32  C   UNL     1      51.568  32.246  43.518  0.00  0.00    +0.000 C 
BRANCH  28  33
ATOM     33  O   UNL     1      49.203  32.302  43.529  0.00  0.00    +0.000 OA
ATOM     34  H   UNL     1      49.047  32.839  44.343  0.00  0.00    +0.000 HD
ENDBRANCH  28  33
BRANCH  32  35
ATOM     35  O   UNL     1      51.240  31.398  44.569  0.00  0.00    +0.000 OA
ATOM     36  H   UNL     1      51.022  31.920  45.397  0.00  0.00    +0.000 HD
ENDBRANCH  32  35
ENDBRANCH  27  29
ENDBRANCH  24  27
ENDBRANCH  22  24
ENDBRANCH   3  22
TORSDOF 9
