
 OpenBabel03242514213D

 49 51  0  0  1  0  0  0  0  0999 V2000
   38.2400   27.7610   41.9660 C   0  0  0  0  0  0  0  0  0  0  0  0
   37.9190   29.0840   42.1560 C   0  0  0  0  0  0  0  0  0  0  0  0
   38.9350   29.9130   42.5500 C   0  0  0  0  0  0  0  0  0  0  0  0
   40.1790   29.4200   42.7330 N   0  0  0  0  0  0  0  0  0  0  0  0
   40.4860   28.1400   42.5470 C   0  0  0  0  0  0  0  0  0  0  0  0
   39.5060   27.3410   42.1680 N   0  0  0  0  0  0  0  0  0  0  0  0
   38.8920   30.9750   42.7510 H   0  0  0  0  0  0  0  0  0  0  0  0
   41.4930   27.7760   42.7020 H   0  0  0  0  0  0  0  0  0  0  0  0
   37.1680   26.8830   41.4800 C   0  0  0  0  0  0  0  0  0  0  0  0
   36.9290   25.7370   42.4210 C   0  0  0  0  0  0  0  0  0  0  0  0
   37.2300   24.4410   41.8160 C   0  0  0  0  0  0  0  0  0  0  0  0
   36.4670   24.2250   40.5270 C   0  0  0  0  0  0  0  0  0  0  0  0
   36.4600   25.4070   39.6370 C   0  0  0  0  0  0  0  0  0  0  0  0
   37.4550   26.4520   40.0870 C   0  0  0  0  0  0  0  0  0  0  0  0
   36.2100   27.4350   41.5350 H   0  0  0  0  0  0  0  0  0  0  0  0
   35.9020   25.7120   42.8290 H   0  0  0  0  0  0  0  0  0  0  0  0
   37.5860   25.8820   43.3030 H   0  0  0  0  0  0  0  0  0  0  0  0
   36.9450   23.6020   42.4850 H   0  0  0  0  0  0  0  0  0  0  0  0
   38.3220   24.3850   41.5750 H   0  0  0  0  0  0  0  0  0  0  0  0
   35.4300   23.8850   40.7390 H   0  0  0  0  0  0  0  0  0  0  0  0
   36.9390   23.3790   39.9620 H   0  0  0  0  0  0  0  0  0  0  0  0
   35.4590   25.8880   39.6100 H   0  0  0  0  0  0  0  0  0  0  0  0
   36.7190   25.1560   38.5840 H   0  0  0  0  0  0  0  0  0  0  0  0
   37.4520   27.3050   39.3830 H   0  0  0  0  0  0  0  0  0  0  0  0
   38.4810   26.0180   40.0600 H   0  0  0  0  0  0  0  0  0  0  0  0
   36.7720   29.7520   42.0290 O   0  0  0  0  0  0  0  0  0  0  0  0
   36.2100   30.4930   41.0250 C   0  0  0  0  0  0  0  0  0  0  0  0
   35.8390   29.7670   40.2420 H   0  0  0  0  0  0  0  0  0  0  0  0
   35.3520   31.1250   41.2460 H   0  0  0  0  0  0  0  0  0  0  0  0
   37.2120   31.3710   40.2910 C   0  0  0  0  0  0  0  0  0  0  0  0
   37.1470   31.0830   39.2200 H   0  0  0  0  0  0  0  0  0  0  0  0
   38.2190   31.0760   40.6180 H   0  0  0  0  0  0  0  0  0  0  0  0
   36.9360   32.7800   40.4600 N   0  0  0  0  0  0  0  0  0  0  0  0
   36.5610   32.9010   41.4400 H   0  0  0  0  0  0  0  0  0  0  0  0
   38.4530   33.6250   40.3910 S   0  0  0  0  0  0  0  0  0  0  0  0
   38.8220   34.1850   41.7300 O   0  0  0  0  0  0  0  0  0  0  0  0
   39.7850   34.2030   41.9970 H   0  0  0  0  0  0  0  0  0  0  0  0
   38.2930   34.7280   39.3850 O   0  0  0  0  0  0  0  0  0  0  0  0
   38.4300   35.6870   39.6430 H   0  0  0  0  0  0  0  0  0  0  0  0
   39.6620   32.6100   39.8500 O   0  0  0  0  0  0  0  0  0  0  0  0
   41.8870   32.7740   40.7220 C   0  0  1  0  0  3  0  0  0  0  0  0
   40.8530   33.2680   39.7540 C   0  0  2  0  0  3  0  0  0  0  0  0
   40.7650   34.6380   39.8990 O   0  0  0  0  0  0  0  0  0  0  0  0
   41.9700   35.0990   40.3890 C   0  0  0  0  0  2  0  0  0  0  0  0
   42.6810   34.0010   41.0940 C   0  0  1  0  0  3  0  0  0  0  0  0
   41.3360   32.1850   41.8680 O   0  0  0  0  0  0  0  0  0  0  0  0
   42.0740   32.2030   42.5540 H   0  0  0  0  0  0  0  0  0  0  0  0
   42.7930   34.1660   42.4690 O   0  0  0  0  0  0  0  0  0  0  0  0
   41.9490   34.2930   42.9370 H   0  0  0  0  0  0  0  0  0  0  0  0
  1  2  2  0  0  0  0
  1  6  1  0  0  0  0
  2  3  1  0  0  0  0
  3  4  2  0  0  0  0
  3  7  1  0  0  0  0
  5  8  1  0  0  0  0
  5  4  1  0  0  0  0
  6  5  2  0  0  0  0
  9 15  1  0  0  0  0
  9  1  1  0  0  0  0
  9 10  1  0  0  0  0
 10 16  1  0  0  0  0
 10 17  1  0  0  0  0
 11 10  1  0  0  0  0
 11 18  1  0  0  0  0
 12 20  1  0  0  0  0
 12 11  1  0  0  0  0
 13 14  1  0  0  0  0
 13 12  1  0  0  0  0
 14  9  1  0  0  0  0
 19 11  1  0  0  0  0
 21 12  1  0  0  0  0
 22 13  1  0  0  0  0
 23 13  1  0  0  0  0
 24 14  1  0  0  0  0
 25 14  1  0  0  0  0
 26  2  1  0  0  0  0
 27 29  1  0  0  0  0
 27 26  1  0  0  0  0
 28 27  1  0  0  0  0
 30 33  1  0  0  0  0
 30 32  1  0  0  0  0
 30 27  1  0  0  0  0
 31 30  1  0  0  0  0
 33 34  1  0  0  0  0
 35 33  1  0  0  0  0
 35 36  1  0  0  0  0
 36 37  1  0  0  0  0
 38 39  1  0  0  0  0
 38 35  1  0  0  0  0
 40 35  1  0  0  0  0
 41 45  1  0  0  0  0
 41 46  1  1  0  0  0
 42 40  1  1  0  0  0
 42 43  1  0  0  0  0
 42 41  1  0  0  0  0
 43 44  1  0  0  0  0
 44 45  1  0  0  0  0
 45 48  1  1  0  0  0
 46 47  1  0  0  0  0
 48 49  1  0  0  0  0
M  END
>  <minimizedAffinity>
-6.66229296

$$$$

 OpenBabel03242514213D

 49 51  0  0  1  0  0  0  0  0999 V2000
   38.7750   25.6660   42.3750 C   0  0  0  0  0  0  0  0  0  0  0  0
   38.8580   26.6540   43.3270 C   0  0  0  0  0  0  0  0  0  0  0  0
   40.0460   26.7630   44.0000 C   0  0  0  0  0  0  0  0  0  0  0  0
   41.0640   25.9230   43.7150 N   0  0  0  0  0  0  0  0  0  0  0  0
   40.9810   24.9690   42.7930 C   0  0  0  0  0  0  0  0  0  0  0  0
   39.8360   24.8630   42.1450 N   0  0  0  0  0  0  0  0  0  0  0  0
   40.3110   27.4660   44.7780 H   0  0  0  0  0  0  0  0  0  0  0  0
   41.8160   24.3120   42.5880 H   0  0  0  0  0  0  0  0  0  0  0  0
   37.5260   25.5890   41.6060 C   0  0  0  0  0  0  0  0  0  0  0  0
   36.8950   24.2320   41.7200 C   0  0  0  0  0  0  0  0  0  0  0  0
   36.8380   23.5290   40.4380 C   0  0  0  0  0  0  0  0  0  0  0  0
   36.1350   24.3450   39.3750 C   0  0  0  0  0  0  0  0  0  0  0  0
   36.5390   25.7670   39.3550 C   0  0  0  0  0  0  0  0  0  0  0  0
   37.7670   26.0130   40.2020 C   0  0  0  0  0  0  0  0  0  0  0  0
   36.7740   26.2390   42.0930 H   0  0  0  0  0  0  0  0  0  0  0  0
   35.8820   24.2550   42.1600 H   0  0  0  0  0  0  0  0  0  0  0  0
   37.5050   23.6340   42.4290 H   0  0  0  0  0  0  0  0  0  0  0  0
   36.2730   22.5780   40.5190 H   0  0  0  0  0  0  0  0  0  0  0  0
   37.8780   23.3280   40.0760 H   0  0  0  0  0  0  0  0  0  0  0  0
   35.0320   24.2500   39.4760 H   0  0  0  0  0  0  0  0  0  0  0  0
   36.3710   23.9110   38.3680 H   0  0  0  0  0  0  0  0  0  0  0  0
   35.7310   26.4250   39.7400 H   0  0  0  0  0  0  0  0  0  0  0  0
   36.7820   26.1320   38.3320 H   0  0  0  0  0  0  0  0  0  0  0  0
   38.0650   27.0760   40.1370 H   0  0  0  0  0  0  0  0  0  0  0  0
   38.6170   25.4170   39.7970 H   0  0  0  0  0  0  0  0  0  0  0  0
   37.9800   27.5660   43.7450 O   0  0  0  0  0  0  0  0  0  0  0  0
   37.7970   28.8980   43.4880 C   0  0  0  0  0  0  0  0  0  0  0  0
   36.9450   29.2510   44.1420 H   0  0  0  0  0  0  0  0  0  0  0  0
   38.6090   29.5950   43.6880 H   0  0  0  0  0  0  0  0  0  0  0  0
   37.3320   29.1780   42.0670 C   0  0  0  0  0  0  0  0  0  0  0  0
   36.6720   28.3300   41.7860 H   0  0  0  0  0  0  0  0  0  0  0  0
   38.2080   29.1060   41.4070 H   0  0  0  0  0  0  0  0  0  0  0  0
   36.6250   30.4350   41.9580 N   0  0  0  0  0  0  0  0  0  0  0  0
   36.7510   30.9360   42.8790 H   0  0  0  0  0  0  0  0  0  0  0  0
   37.4310   31.3890   40.7490 S   0  0  0  0  0  0  0  0  0  0  0  0
   36.6150   32.5870   40.3720 O   0  0  0  0  0  0  0  0  0  0  0  0
   37.0840   33.4420   40.1540 H   0  0  0  0  0  0  0  0  0  0  0  0
   37.6420   30.4990   39.5590 O   0  0  0  0  0  0  0  0  0  0  0  0
   37.2590   30.7350   38.6630 H   0  0  0  0  0  0  0  0  0  0  0  0
   38.9310   31.8760   41.2960 O   0  0  0  0  0  0  0  0  0  0  0  0
   40.9170   33.0470   40.6440 C   0  0  1  0  0  3  0  0  0  0  0  0
   39.4290   32.8920   40.5320 C   0  0  2  0  0  3  0  0  0  0  0  0
   38.8590   34.1250   40.7760 O   0  0  0  0  0  0  0  0  0  0  0  0
   39.7850   35.0980   40.4570 C   0  0  0  0  0  2  0  0  0  0  0  0
   41.1560   34.5310   40.5240 C   0  0  1  0  0  3  0  0  0  0  0  0
   41.4340   32.5680   41.8540 O   0  0  0  0  0  0  0  0  0  0  0  0
   42.3340   33.0120   41.9510 H   0  0  0  0  0  0  0  0  0  0  0  0
   41.9450   35.0290   41.5540 O   0  0  0  0  0  0  0  0  0  0  0  0
   41.5630   34.9340   42.4450 H   0  0  0  0  0  0  0  0  0  0  0  0
  1  2  1  0  0  0  0
  2 26  1  0  0  0  0
  2  3  2  0  0  0  0
  3  7  1  0  0  0  0
  4  3  1  0  0  0  0
  5  4  2  0  0  0  0
  6  1  2  0  0  0  0
  6  5  1  0  0  0  0
  8  5  1  0  0  0  0
  9 10  1  0  0  0  0
  9 15  1  0  0  0  0
  9  1  1  0  0  0  0
 10 16  1  0  0  0  0
 10 17  1  0  0  0  0
 11 18  1  0  0  0  0
 11 10  1  0  0  0  0
 12 20  1  0  0  0  0
 12 11  1  0  0  0  0
 13 12  1  0  0  0  0
 13 22  1  0  0  0  0
 13 14  1  0  0  0  0
 14  9  1  0  0  0  0
 19 11  1  0  0  0  0
 21 12  1  0  0  0  0
 23 13  1  0  0  0  0
 24 14  1  0  0  0  0
 25 14  1  0  0  0  0
 27 29  1  0  0  0  0
 27 26  1  0  0  0  0
 27 28  1  0  0  0  0
 30 27  1  0  0  0  0
 31 30  1  0  0  0  0
 32 30  1  0  0  0  0
 33 30  1  0  0  0  0
 33 34  1  0  0  0  0
 35 40  1  0  0  0  0
 35 33  1  0  0  0  0
 36 35  1  0  0  0  0
 37 36  1  0  0  0  0
 38 35  1  0  0  0  0
 39 38  1  0  0  0  0
 41 46  1  1  0  0  0
 42 41  1  0  0  0  0
 42 43  1  0  0  0  0
 42 40  1  1  0  0  0
 44 45  1  0  0  0  0
 44 43  1  0  0  0  0
 45 41  1  0  0  0  0
 45 48  1  1  0  0  0
 46 47  1  0  0  0  0
 48 49  1  0  0  0  0
M  END
>  <minimizedAffinity>
-6.42597389

$$$$

 OpenBabel03242514213D

 49 51  0  0  1  0  0  0  0  0999 V2000
   37.7670   28.6570   39.9790 C   0  0  0  0  0  0  0  0  0  0  0  0
   37.9430   29.8580   39.3330 C   0  0  0  0  0  0  0  0  0  0  0  0
   38.2250   29.8010   37.9950 C   0  0  0  0  0  0  0  0  0  0  0  0
   38.3160   28.6060   37.3730 N   0  0  0  0  0  0  0  0  0  0  0  0
   38.1430   27.4460   38.0000 C   0  0  0  0  0  0  0  0  0  0  0  0
   37.8730   27.5010   39.2900 N   0  0  0  0  0  0  0  0  0  0  0  0
   38.3980   30.6220   37.3120 H   0  0  0  0  0  0  0  0  0  0  0  0
   38.2230   26.5050   37.4720 H   0  0  0  0  0  0  0  0  0  0  0  0
   37.4000   28.7170   41.4000 C   0  0  0  0  0  0  0  0  0  0  0  0
   38.5810   29.0710   42.2570 C   0  0  0  0  0  0  0  0  0  0  0  0
   38.9490   27.9970   43.1780 C   0  0  0  0  0  0  0  0  0  0  0  0
   37.7850   27.5690   44.0450 C   0  0  0  0  0  0  0  0  0  0  0  0
   36.5140   27.4230   43.3020 C   0  0  0  0  0  0  0  0  0  0  0  0
   36.7340   27.4520   41.8070 C   0  0  0  0  0  0  0  0  0  0  0  0
   36.7300   29.5840   41.5530 H   0  0  0  0  0  0  0  0  0  0  0  0
   38.4400   30.0040   42.8320 H   0  0  0  0  0  0  0  0  0  0  0  0
   39.4380   29.2740   41.5820 H   0  0  0  0  0  0  0  0  0  0  0  0
   39.7510   28.3150   43.8760 H   0  0  0  0  0  0  0  0  0  0  0  0
   39.2830   27.1020   42.5940 H   0  0  0  0  0  0  0  0  0  0  0  0
   37.6620   28.2640   44.9050 H   0  0  0  0  0  0  0  0  0  0  0  0
   38.0230   26.5760   44.5090 H   0  0  0  0  0  0  0  0  0  0  0  0
   35.8030   28.2390   43.5510 H   0  0  0  0  0  0  0  0  0  0  0  0
   35.9900   26.4670   43.5270 H   0  0  0  0  0  0  0  0  0  0  0  0
   35.7730   27.3040   41.2810 H   0  0  0  0  0  0  0  0  0  0  0  0
   37.3920   26.6010   41.5160 H   0  0  0  0  0  0  0  0  0  0  0  0
   37.8950   31.1190   39.7640 O   0  0  0  0  0  0  0  0  0  0  0  0
   36.9070   32.0630   39.8290 C   0  0  0  0  0  0  0  0  0  0  0  0
   36.1640   31.8270   39.0100 H   0  0  0  0  0  0  0  0  0  0  0  0
   36.3070   32.1460   40.7330 H   0  0  0  0  0  0  0  0  0  0  0  0
   37.3960   33.4690   39.5090 C   0  0  0  0  0  0  0  0  0  0  0  0
   37.1570   34.0870   40.4000 H   0  0  0  0  0  0  0  0  0  0  0  0
   36.7700   33.8640   38.6960 H   0  0  0  0  0  0  0  0  0  0  0  0
   38.8120   33.5060   39.2230 N   0  0  0  0  0  0  0  0  0  0  0  0
   38.9750   34.3420   38.5980 H   0  0  0  0  0  0  0  0  0  0  0  0
   39.6420   33.8240   40.7170 S   0  0  0  0  0  0  0  0  0  0  0  0
   39.8920   32.5570   41.4770 O   0  0  0  0  0  0  0  0  0  0  0  0
   40.7380   32.4680   42.0010 H   0  0  0  0  0  0  0  0  0  0  0  0
   38.7710   34.7520   41.5130 O   0  0  0  0  0  0  0  0  0  0  0  0
   38.4360   34.4950   42.4220 H   0  0  0  0  0  0  0  0  0  0  0  0
   41.0880   34.6040   40.4260 O   0  0  0  0  0  0  0  0  0  0  0  0
   43.2940   33.8930   39.8160 C   0  0  1  0  0  3  0  0  0  0  0  0
   41.8290   33.9380   39.4930 C   0  0  2  0  0  3  0  0  0  0  0  0
   41.6990   34.4210   38.2060 O   0  0  0  0  0  0  0  0  0  0  0  0
   42.8610   34.1360   37.5180 C   0  0  0  0  0  2  0  0  0  0  0  0
   43.9830   33.9580   38.4760 C   0  0  1  0  0  3  0  0  0  0  0  0
   43.7140   34.9530   40.6300 O   0  0  0  0  0  0  0  0  0  0  0  0
   44.7120   35.0040   40.5020 H   0  0  0  0  0  0  0  0  0  0  0  0
   44.9570   34.9470   38.4250 O   0  0  0  0  0  0  0  0  0  0  0  0
   44.6270   35.8550   38.5530 H   0  0  0  0  0  0  0  0  0  0  0  0
  1  9  1  0  0  0  0
  2 26  1  0  0  0  0
  2  1  1  0  0  0  0
  3  2  2  0  0  0  0
  4  3  1  0  0  0  0
  4  5  2  0  0  0  0
  5  6  1  0  0  0  0
  6  1  2  0  0  0  0
  7  3  1  0  0  0  0
  8  5  1  0  0  0  0
  9 15  1  0  0  0  0
  9 14  1  0  0  0  0
  9 10  1  0  0  0  0
 10 16  1  0  0  0  0
 10 11  1  0  0  0  0
 11 18  1  0  0  0  0
 11 12  1  0  0  0  0
 12 21  1  0  0  0  0
 12 20  1  0  0  0  0
 13 23  1  0  0  0  0
 13 22  1  0  0  0  0
 13 12  1  0  0  0  0
 14 13  1  0  0  0  0
 17 10  1  0  0  0  0
 19 11  1  0  0  0  0
 24 14  1  0  0  0  0
 25 14  1  0  0  0  0
 26 27  1  0  0  0  0
 27 29  1  0  0  0  0
 28 27  1  0  0  0  0
 30 27  1  0  0  0  0
 30 31  1  0  0  0  0
 32 30  1  0  0  0  0
 33 30  1  0  0  0  0
 33 35  1  0  0  0  0
 34 33  1  0  0  0  0
 35 36  1  0  0  0  0
 35 38  1  0  0  0  0
 36 37  1  0  0  0  0
 38 39  1  0  0  0  0
 40 35  1  0  0  0  0
 41 46  1  1  0  0  0
 42 41  1  0  0  0  0
 42 40  1  1  0  0  0
 43 42  1  0  0  0  0
 44 43  1  0  0  0  0
 44 45  1  0  0  0  0
 45 48  1  1  0  0  0
 45 41  1  0  0  0  0
 47 46  1  0  0  0  0
 48 49  1  0  0  0  0
M  END
>  <minimizedAffinity>
-6.33333492

$$$$

 OpenBabel03242514213D

 49 51  0  0  1  0  0  0  0  0999 V2000
   37.4000   26.7890   41.8210 C   0  0  0  0  0  0  0  0  0  0  0  0
   36.9420   28.0650   41.5920 C   0  0  0  0  0  0  0  0  0  0  0  0
   37.3390   29.0290   42.4800 C   0  0  0  0  0  0  0  0  0  0  0  0
   38.1420   28.7060   43.5160 N   0  0  0  0  0  0  0  0  0  0  0  0
   38.5850   27.4720   43.7340 C   0  0  0  0  0  0  0  0  0  0  0  0
   38.2010   26.5420   42.8800 N   0  0  0  0  0  0  0  0  0  0  0  0
   37.0910   30.0820   42.4770 H   0  0  0  0  0  0  0  0  0  0  0  0
   39.2280   27.2460   44.5740 H   0  0  0  0  0  0  0  0  0  0  0  0
   37.0300   25.7650   40.8360 C   0  0  0  0  0  0  0  0  0  0  0  0
   36.7860   24.4360   41.4910 C   0  0  0  0  0  0  0  0  0  0  0  0
   37.7430   23.4160   41.0650 C   0  0  0  0  0  0  0  0  0  0  0  0
   37.7730   23.2590   39.5600 C   0  0  0  0  0  0  0  0  0  0  0  0
   37.7780   24.5450   38.8290 C   0  0  0  0  0  0  0  0  0  0  0  0
   38.0460   25.7120   39.7520 C   0  0  0  0  0  0  0  0  0  0  0  0
   36.0310   26.0140   40.4300 H   0  0  0  0  0  0  0  0  0  0  0  0
   35.7620   24.0530   41.3350 H   0  0  0  0  0  0  0  0  0  0  0  0
   36.8780   24.5780   42.5870 H   0  0  0  0  0  0  0  0  0  0  0  0
   37.4830   22.4170   41.4720 H   0  0  0  0  0  0  0  0  0  0  0  0
   38.7730   23.7080   41.3940 H   0  0  0  0  0  0  0  0  0  0  0  0
   36.9340   22.6140   39.2180 H   0  0  0  0  0  0  0  0  0  0  0  0
   38.7020   22.7010   39.2710 H   0  0  0  0  0  0  0  0  0  0  0  0
   36.8040   24.7310   38.3290 H   0  0  0  0  0  0  0  0  0  0  0  0
   38.5560   24.5860   38.0330 H   0  0  0  0  0  0  0  0  0  0  0  0
   38.0800   26.6530   39.1720 H   0  0  0  0  0  0  0  0  0  0  0  0
   39.0500   25.5870   40.2190 H   0  0  0  0  0  0  0  0  0  0  0  0
   36.1560   28.5740   40.6430 O   0  0  0  0  0  0  0  0  0  0  0  0
   35.9080   29.8430   40.1950 C   0  0  0  0  0  0  0  0  0  0  0  0
   34.8710   29.8420   39.7460 H   0  0  0  0  0  0  0  0  0  0  0  0
   35.9030   30.6670   40.9050 H   0  0  0  0  0  0  0  0  0  0  0  0
   36.8200   30.2670   39.0530 C   0  0  0  0  0  0  0  0  0  0  0  0
   36.2280   30.9730   38.4320 H   0  0  0  0  0  0  0  0  0  0  0  0
   36.9940   29.3860   38.4180 H   0  0  0  0  0  0  0  0  0  0  0  0
   38.0350   30.8940   39.5230 N   0  0  0  0  0  0  0  0  0  0  0  0
   38.8000   30.6200   38.8480 H   0  0  0  0  0  0  0  0  0  0  0  0
   37.8280   32.6140   39.3830 S   0  0  0  0  0  0  0  0  0  0  0  0
   36.7970   33.1150   40.3480 O   0  0  0  0  0  0  0  0  0  0  0  0
   36.9260   34.0120   40.7690 H   0  0  0  0  0  0  0  0  0  0  0  0
   37.4050   32.8900   37.9700 O   0  0  0  0  0  0  0  0  0  0  0  0
   36.5370   33.3500   37.7710 H   0  0  0  0  0  0  0  0  0  0  0  0
   39.2770   33.3980   39.6470 O   0  0  0  0  0  0  0  0  0  0  0  0
   41.5430   33.5820   38.8890 C   0  0  1  0  0  3  0  0  0  0  0  0
   40.3120   32.7390   39.0480 C   0  0  2  0  0  3  0  0  0  0  0  0
   40.0110   32.2000   37.8140 O   0  0  0  0  0  0  0  0  0  0  0  0
   41.1760   32.1300   37.0780 C   0  0  0  0  0  2  0  0  0  0  0  0
   42.1580   33.1180   37.5930 C   0  0  1  0  0  3  0  0  0  0  0  0
   41.2710   34.9550   38.8350 O   0  0  0  0  0  0  0  0  0  0  0  0
   42.0850   35.3680   38.4080 H   0  0  0  0  0  0  0  0  0  0  0  0
   42.4370   34.1700   36.7290 O   0  0  0  0  0  0  0  0  0  0  0  0
   41.6580   34.6800   36.4400 H   0  0  0  0  0  0  0  0  0  0  0  0
  1  6  1  0  0  0  0
  2  1  2  0  0  0  0
  2  3  1  0  0  0  0
  3  4  2  0  0  0  0
  4  5  1  0  0  0  0
  5  8  1  0  0  0  0
  6  5  2  0  0  0  0
  7  3  1  0  0  0  0
  9 10  1  0  0  0  0
  9  1  1  0  0  0  0
 10 17  1  0  0  0  0
 11 19  1  0  0  0  0
 11 18  1  0  0  0  0
 11 10  1  0  0  0  0
 12 11  1  0  0  0  0
 13 12  1  0  0  0  0
 13 14  1  0  0  0  0
 14 25  1  0  0  0  0
 14  9  1  0  0  0  0
 15  9  1  0  0  0  0
 16 10  1  0  0  0  0
 20 12  1  0  0  0  0
 21 12  1  0  0  0  0
 22 13  1  0  0  0  0
 23 13  1  0  0  0  0
 24 14  1  0  0  0  0
 26  2  1  0  0  0  0
 27 26  1  0  0  0  0
 27 29  1  0  0  0  0
 28 27  1  0  0  0  0
 30 33  1  0  0  0  0
 30 27  1  0  0  0  0
 31 30  1  0  0  0  0
 32 30  1  0  0  0  0
 34 33  1  0  0  0  0
 35 33  1  0  0  0  0
 35 40  1  0  0  0  0
 35 36  1  0  0  0  0
 36 37  1  0  0  0  0
 38 35  1  0  0  0  0
 39 38  1  0  0  0  0
 41 46  1  6  0  0  0
 41 42  1  0  0  0  0
 42 40  1  6  0  0  0
 43 42  1  0  0  0  0
 44 45  1  0  0  0  0
 44 43  1  0  0  0  0
 45 48  1  6  0  0  0
 45 41  1  0  0  0  0
 47 46  1  0  0  0  0
 49 48  1  0  0  0  0
M  END
>  <minimizedAffinity>
-6.30734825

$$$$

 OpenBabel03242514213D

 49 51  0  0  1  0  0  0  0  0999 V2000
   37.0730   28.3780   39.9030 C   0  0  0  0  0  0  0  0  0  0  0  0
   37.8140   29.0510   38.9610 C   0  0  0  0  0  0  0  0  0  0  0  0
   37.1910   29.3320   37.7740 C   0  0  0  0  0  0  0  0  0  0  0  0
   35.9100   28.9510   37.5760 N   0  0  0  0  0  0  0  0  0  0  0  0
   35.1960   28.3010   38.4900 C   0  0  0  0  0  0  0  0  0  0  0  0
   35.7970   28.0300   39.6330 N   0  0  0  0  0  0  0  0  0  0  0  0
   37.5940   29.8470   36.9130 H   0  0  0  0  0  0  0  0  0  0  0  0
   34.1720   28.0100   38.2990 H   0  0  0  0  0  0  0  0  0  0  0  0
   37.7170   28.1340   41.2010 C   0  0  0  0  0  0  0  0  0  0  0  0
   37.1550   26.9130   41.8700 C   0  0  0  0  0  0  0  0  0  0  0  0
   36.4700   27.2250   43.1240 C   0  0  0  0  0  0  0  0  0  0  0  0
   37.3620   27.9830   44.0840 C   0  0  0  0  0  0  0  0  0  0  0  0
   38.1360   29.0680   43.4430 C   0  0  0  0  0  0  0  0  0  0  0  0
   37.6430   29.3560   42.0430 C   0  0  0  0  0  0  0  0  0  0  0  0
   38.7690   27.8400   41.0200 H   0  0  0  0  0  0  0  0  0  0  0  0
   37.9110   26.1310   42.0600 H   0  0  0  0  0  0  0  0  0  0  0  0
   36.4280   26.4490   41.1720 H   0  0  0  0  0  0  0  0  0  0  0  0
   36.1570   26.3040   43.6590 H   0  0  0  0  0  0  0  0  0  0  0  0
   35.5780   27.8680   42.9130 H   0  0  0  0  0  0  0  0  0  0  0  0
   38.0360   27.2840   44.6260 H   0  0  0  0  0  0  0  0  0  0  0  0
   36.7250   28.4480   44.8820 H   0  0  0  0  0  0  0  0  0  0  0  0
   39.2140   28.8080   43.3700 H   0  0  0  0  0  0  0  0  0  0  0  0
   38.0790   30.0280   44.0030 H   0  0  0  0  0  0  0  0  0  0  0  0
   38.2170   30.1940   41.6050 H   0  0  0  0  0  0  0  0  0  0  0  0
   36.5800   29.6850   42.0890 H   0  0  0  0  0  0  0  0  0  0  0  0
   39.0680   29.5050   38.9680 O   0  0  0  0  0  0  0  0  0  0  0  0
   40.2450   29.0500   38.4390 C   0  0  0  0  0  0  0  0  0  0  0  0
   40.5000   28.0860   38.9700 H   0  0  0  0  0  0  0  0  0  0  0  0
   40.2940   28.8060   37.3790 H   0  0  0  0  0  0  0  0  0  0  0  0
   41.4260   29.9680   38.7220 C   0  0  0  0  0  0  0  0  0  0  0  0
   42.1780   29.3460   39.2530 H   0  0  0  0  0  0  0  0  0  0  0  0
   41.0960   30.7240   39.4490 H   0  0  0  0  0  0  0  0  0  0  0  0
   41.9870   30.5300   37.5140 N   0  0  0  0  0  0  0  0  0  0  0  0
   41.5770   29.9860   36.7060 H   0  0  0  0  0  0  0  0  0  0  0  0
   41.4060   32.1610   37.3730 S   0  0  0  0  0  0  0  0  0  0  0  0
   40.1070   32.2110   36.6290 O   0  0  0  0  0  0  0  0  0  0  0  0
   39.4190   32.8820   36.9030 H   0  0  0  0  0  0  0  0  0  0  0  0
   42.4610   32.9400   36.6430 O   0  0  0  0  0  0  0  0  0  0  0  0
   42.2560   33.4050   35.7800 H   0  0  0  0  0  0  0  0  0  0  0  0
   41.2180   32.8450   38.8840 O   0  0  0  0  0  0  0  0  0  0  0  0
   40.1150   34.6820   39.9570 C   0  0  1  0  0  3  0  0  0  0  0  0
   40.0580   33.5600   38.9620 C   0  0  2  0  0  3  0  0  0  0  0  0
   38.9380   32.8050   39.2460 O   0  0  0  0  0  0  0  0  0  0  0  0
   38.0210   33.6160   39.8840 C   0  0  0  0  0  2  0  0  0  0  0  0
   38.7200   34.7590   40.5250 C   0  0  1  0  0  3  0  0  0  0  0  0
   41.0460   34.4680   40.9810 O   0  0  0  0  0  0  0  0  0  0  0  0
   40.7650   35.0850   41.7260 H   0  0  0  0  0  0  0  0  0  0  0  0
   38.7090   34.7460   41.9140 O   0  0  0  0  0  0  0  0  0  0  0  0
   39.0730   33.9390   42.3190 H   0  0  0  0  0  0  0  0  0  0  0  0
  1  9  1  0  0  0  0
  2 26  1  0  0  0  0
  2  1  2  0  0  0  0
  3  2  1  0  0  0  0
  4  3  2  0  0  0  0
  4  5  1  0  0  0  0
  5  6  2  0  0  0  0
  6  1  1  0  0  0  0
  7  3  1  0  0  0  0
  8  5  1  0  0  0  0
  9 10  1  0  0  0  0
  9 14  1  0  0  0  0
 10 16  1  0  0  0  0
 10 11  1  0  0  0  0
 11 18  1  0  0  0  0
 11 12  1  0  0  0  0
 12 20  1  0  0  0  0
 12 21  1  0  0  0  0
 13 23  1  0  0  0  0
 13 12  1  0  0  0  0
 14 25  1  0  0  0  0
 14 13  1  0  0  0  0
 15  9  1  0  0  0  0
 17 10  1  0  0  0  0
 19 11  1  0  0  0  0
 22 13  1  0  0  0  0
 24 14  1  0  0  0  0
 27 30  1  0  0  0  0
 27 26  1  0  0  0  0
 27 28  1  0  0  0  0
 29 27  1  0  0  0  0
 30 31  1  0  0  0  0
 30 32  1  0  0  0  0
 33 30  1  0  0  0  0
 34 33  1  0  0  0  0
 35 33  1  0  0  0  0
 35 40  1  0  0  0  0
 36 37  1  0  0  0  0
 36 35  1  0  0  0  0
 38 35  1  0  0  0  0
 39 38  1  0  0  0  0
 41 45  1  0  0  0  0
 41 46  1  1  0  0  0
 42 40  1  1  0  0  0
 42 43  1  0  0  0  0
 42 41  1  0  0  0  0
 43 44  1  0  0  0  0
 44 45  1  0  0  0  0
 45 48  1  1  0  0  0
 46 47  1  0  0  0  0
 48 49  1  0  0  0  0
M  END
>  <minimizedAffinity>
-6.16198635

$$$$

 OpenBabel03242514213D

 49 51  0  0  1  0  0  0  0  0999 V2000
   36.8870   28.7480   39.8540 C   0  0  0  0  0  0  0  0  0  0  0  0
   37.6580   29.1250   38.7800 C   0  0  0  0  0  0  0  0  0  0  0  0
   36.9900   29.5070   37.6470 C   0  0  0  0  0  0  0  0  0  0  0  0
   35.6400   29.5030   37.6240 N   0  0  0  0  0  0  0  0  0  0  0  0
   34.8980   29.1390   38.6650 C   0  0  0  0  0  0  0  0  0  0  0  0
   35.5410   28.7690   39.7560 N   0  0  0  0  0  0  0  0  0  0  0  0
   37.4060   29.8350   36.7040 H   0  0  0  0  0  0  0  0  0  0  0  0
   33.8170   29.1470   38.6140 H   0  0  0  0  0  0  0  0  0  0  0  0
   37.5990   28.4000   41.0910 C   0  0  0  0  0  0  0  0  0  0  0  0
   37.0630   27.1340   41.6940 C   0  0  0  0  0  0  0  0  0  0  0  0
   36.4520   27.3520   43.0050 C   0  0  0  0  0  0  0  0  0  0  0  0
   37.4020   28.0280   43.9690 C   0  0  0  0  0  0  0  0  0  0  0  0
   38.1510   29.1540   43.3710 C   0  0  0  0  0  0  0  0  0  0  0  0
   37.5840   29.5530   42.0280 C   0  0  0  0  0  0  0  0  0  0  0  0
   38.6370   28.1140   40.8290 H   0  0  0  0  0  0  0  0  0  0  0  0
   37.8200   26.3350   41.7810 H   0  0  0  0  0  0  0  0  0  0  0  0
   36.2940   26.7300   41.0040 H   0  0  0  0  0  0  0  0  0  0  0  0
   36.1600   26.3940   43.4830 H   0  0  0  0  0  0  0  0  0  0  0  0
   35.5560   28.0140   42.8940 H   0  0  0  0  0  0  0  0  0  0  0  0
   38.0980   27.2850   44.4170 H   0  0  0  0  0  0  0  0  0  0  0  0
   36.8160   28.4320   44.8350 H   0  0  0  0  0  0  0  0  0  0  0  0
   39.2210   28.8960   43.2190 H   0  0  0  0  0  0  0  0  0  0  0  0
   38.1350   30.0690   44.0060 H   0  0  0  0  0  0  0  0  0  0  0  0
   38.1410   30.4190   41.6240 H   0  0  0  0  0  0  0  0  0  0  0  0
   36.5290   29.8840   42.1580 H   0  0  0  0  0  0  0  0  0  0  0  0
   38.9790   29.1950   38.6100 O   0  0  0  0  0  0  0  0  0  0  0  0
   39.8830   30.2230   38.6080 C   0  0  0  0  0  0  0  0  0  0  0  0
   40.6660   29.9800   39.3860 H   0  0  0  0  0  0  0  0  0  0  0  0
   40.4470   30.4340   37.7020 H   0  0  0  0  0  0  0  0  0  0  0  0
   39.2890   31.5490   39.0610 C   0  0  0  0  0  0  0  0  0  0  0  0
   39.4330   31.5900   40.1620 H   0  0  0  0  0  0  0  0  0  0  0  0
   38.2010   31.4990   38.9050 H   0  0  0  0  0  0  0  0  0  0  0  0
   39.9170   32.6810   38.4190 N   0  0  0  0  0  0  0  0  0  0  0  0
   39.2130   33.0750   37.7380 H   0  0  0  0  0  0  0  0  0  0  0  0
   40.1820   33.8940   39.6340 S   0  0  0  0  0  0  0  0  0  0  0  0
   40.3660   33.2760   40.9860 O   0  0  0  0  0  0  0  0  0  0  0  0
   41.0090   33.6950   41.6260 H   0  0  0  0  0  0  0  0  0  0  0  0
   38.9790   34.7920   39.6260 O   0  0  0  0  0  0  0  0  0  0  0  0
   38.4190   34.9140   40.4480 H   0  0  0  0  0  0  0  0  0  0  0  0
   41.5150   34.8220   39.2510 O   0  0  0  0  0  0  0  0  0  0  0  0
   43.2550   34.0250   37.8090 C   0  0  1  0  0  3  0  0  0  0  0  0
   42.6440   34.0580   39.1790 C   0  0  2  0  0  3  0  0  0  0  0  0
   42.4810   32.7530   39.5970 O   0  0  0  0  0  0  0  0  0  0  0  0
   43.4090   31.9700   38.9400 C   0  0  0  0  0  2  0  0  0  0  0  0
   43.8290   32.6370   37.6800 C   0  0  1  0  0  3  0  0  0  0  0  0
   42.3310   34.2660   36.7840 O   0  0  0  0  0  0  0  0  0  0  0  0
   42.7610   33.9000   35.9500 H   0  0  0  0  0  0  0  0  0  0  0  0
   43.4210   31.9970   36.5160 O   0  0  0  0  0  0  0  0  0  0  0  0
   42.4600   31.8510   36.4440 H   0  0  0  0  0  0  0  0  0  0  0  0
  1  9  1  0  0  0  0
  2  1  2  0  0  0  0
  3  2  1  0  0  0  0
  4  3  2  0  0  0  0
  4  5  1  0  0  0  0
  5  6  2  0  0  0  0
  6  1  1  0  0  0  0
  7  3  1  0  0  0  0
  8  5  1  0  0  0  0
  9 10  1  0  0  0  0
  9 14  1  0  0  0  0
 10 16  1  0  0  0  0
 10 11  1  0  0  0  0
 11 18  1  0  0  0  0
 11 12  1  0  0  0  0
 12 20  1  0  0  0  0
 12 21  1  0  0  0  0
 13 12  1  0  0  0  0
 13 23  1  0  0  0  0
 14 25  1  0  0  0  0
 14 13  1  0  0  0  0
 15  9  1  0  0  0  0
 17 10  1  0  0  0  0
 19 11  1  0  0  0  0
 22 13  1  0  0  0  0
 24 14  1  0  0  0  0
 26  2  1  0  0  0  0
 27 26  1  0  0  0  0
 27 30  1  0  0  0  0
 27 28  1  0  0  0  0
 29 27  1  0  0  0  0
 30 31  1  0  0  0  0
 32 30  1  0  0  0  0
 33 30  1  0  0  0  0
 33 35  1  0  0  0  0
 34 33  1  0  0  0  0
 35 36  1  0  0  0  0
 36 37  1  0  0  0  0
 38 35  1  0  0  0  0
 38 39  1  0  0  0  0
 40 35  1  0  0  0  0
 41 46  1  6  0  0  0
 41 42  1  0  0  0  0
 42 40  1  6  0  0  0
 42 43  1  0  0  0  0
 44 43  1  0  0  0  0
 45 48  1  6  0  0  0
 45 41  1  0  0  0  0
 45 44  1  0  0  0  0
 47 46  1  0  0  0  0
 49 48  1  0  0  0  0
M  END
>  <minimizedAffinity>
-6.15063477

$$$$

 OpenBabel03242514213D

 49 51  0  0  1  0  0  0  0  0999 V2000
   38.4840   27.8940   41.8340 C   0  0  0  0  0  0  0  0  0  0  0  0
   38.4920   29.1860   41.3630 C   0  0  0  0  0  0  0  0  0  0  0  0
   39.5480   29.9720   41.7390 C   0  0  0  0  0  0  0  0  0  0  0  0
   40.5160   29.4690   42.5340 N   0  0  0  0  0  0  0  0  0  0  0  0
   40.5070   28.2190   42.9870 C   0  0  0  0  0  0  0  0  0  0  0  0
   39.4890   27.4620   42.6250 N   0  0  0  0  0  0  0  0  0  0  0  0
   39.7390   31.0050   41.4800 H   0  0  0  0  0  0  0  0  0  0  0  0
   41.2990   27.8460   43.6230 H   0  0  0  0  0  0  0  0  0  0  0  0
   37.3880   27.0300   41.3790 C   0  0  0  0  0  0  0  0  0  0  0  0
   36.9410   26.0940   42.4650 C   0  0  0  0  0  0  0  0  0  0  0  0
   37.1750   24.6900   42.1280 C   0  0  0  0  0  0  0  0  0  0  0  0
   36.5330   24.3080   40.8120 C   0  0  0  0  0  0  0  0  0  0  0  0
   36.7350   25.3080   39.7410 C   0  0  0  0  0  0  0  0  0  0  0  0
   37.7760   26.3350   40.1230 C   0  0  0  0  0  0  0  0  0  0  0  0
   36.4890   27.6560   41.2240 H   0  0  0  0  0  0  0  0  0  0  0  0
   35.8800   26.2230   42.7440 H   0  0  0  0  0  0  0  0  0  0  0  0
   37.5140   26.3430   43.3820 H   0  0  0  0  0  0  0  0  0  0  0  0
   36.7410   24.0100   42.8900 H   0  0  0  0  0  0  0  0  0  0  0  0
   38.2760   24.5070   42.0330 H   0  0  0  0  0  0  0  0  0  0  0  0
   35.4510   24.0930   40.9530 H   0  0  0  0  0  0  0  0  0  0  0  0
   36.9760   23.3390   40.4600 H   0  0  0  0  0  0  0  0  0  0  0  0
   35.7950   25.8530   39.5130 H   0  0  0  0  0  0  0  0  0  0  0  0
   37.0760   24.8520   38.7840 H   0  0  0  0  0  0  0  0  0  0  0  0
   37.9300   27.0460   39.2900 H   0  0  0  0  0  0  0  0  0  0  0  0
   38.7510   25.8240   40.2930 H   0  0  0  0  0  0  0  0  0  0  0  0
   37.6440   29.8560   40.5820 O   0  0  0  0  0  0  0  0  0  0  0  0
   36.8620   30.9650   40.7610 C   0  0  0  0  0  0  0  0  0  0  0  0
   35.8370   30.7200   40.3510 H   0  0  0  0  0  0  0  0  0  0  0  0
   36.6790   31.3300   41.7690 H   0  0  0  0  0  0  0  0  0  0  0  0
   37.3230   32.1650   39.9470 C   0  0  0  0  0  0  0  0  0  0  0  0
   38.3450   32.4080   40.3090 H   0  0  0  0  0  0  0  0  0  0  0  0
   36.6950   33.0230   40.2300 H   0  0  0  0  0  0  0  0  0  0  0  0
   37.3330   31.8960   38.5270 N   0  0  0  0  0  0  0  0  0  0  0  0
   36.9760   32.7670   38.0490 H   0  0  0  0  0  0  0  0  0  0  0  0
   38.9900   31.6950   38.0420 S   0  0  0  0  0  0  0  0  0  0  0  0
   39.2730   32.4290   36.7670 O   0  0  0  0  0  0  0  0  0  0  0  0
   40.1680   32.8570   36.6440 H   0  0  0  0  0  0  0  0  0  0  0  0
   39.2190   30.2230   37.8630 O   0  0  0  0  0  0  0  0  0  0  0  0
   39.5190   29.8490   36.9830 H   0  0  0  0  0  0  0  0  0  0  0  0
   40.0180   32.2310   39.2420 O   0  0  0  0  0  0  0  0  0  0  0  0
   41.9540   33.5410   38.7170 C   0  0  1  0  0  3  0  0  0  0  0  0
   41.3200   32.1870   38.8340 C   0  0  2  0  0  3  0  0  0  0  0  0
   41.5240   31.5240   37.6410 O   0  0  0  0  0  0  0  0  0  0  0  0
   42.6560   32.0440   37.0460 C   0  0  0  0  0  2  0  0  0  0  0  0
   42.9050   33.4180   37.5530 C   0  0  1  0  0  3  0  0  0  0  0  0
   41.0300   34.5680   38.4840 O   0  0  0  0  0  0  0  0  0  0  0  0
   41.5710   35.3280   38.1050 H   0  0  0  0  0  0  0  0  0  0  0  0
   42.7310   34.4280   36.6140 O   0  0  0  0  0  0  0  0  0  0  0  0
   41.8540   34.4450   36.1890 H   0  0  0  0  0  0  0  0  0  0  0  0
  1  6  1  0  0  0  0
  2  3  1  0  0  0  0
  2  1  2  0  0  0  0
  3  4  2  0  0  0  0
  4  5  1  0  0  0  0
  5  8  1  0  0  0  0
  6  5  2  0  0  0  0
  7  3  1  0  0  0  0
  9  1  1  0  0  0  0
  9 10  1  0  0  0  0
 10 16  1  0  0  0  0
 10 17  1  0  0  0  0
 11 10  1  0  0  0  0
 11 18  1  0  0  0  0
 12 20  1  0  0  0  0
 12 11  1  0  0  0  0
 13 14  1  0  0  0  0
 13 12  1  0  0  0  0
 14 25  1  0  0  0  0
 14  9  1  0  0  0  0
 15  9  1  0  0  0  0
 19 11  1  0  0  0  0
 21 12  1  0  0  0  0
 22 13  1  0  0  0  0
 23 13  1  0  0  0  0
 24 14  1  0  0  0  0
 26 27  1  0  0  0  0
 26  2  1  0  0  0  0
 27 29  1  0  0  0  0
 28 27  1  0  0  0  0
 30 32  1  0  0  0  0
 30 31  1  0  0  0  0
 30 27  1  0  0  0  0
 33 30  1  0  0  0  0
 34 33  1  0  0  0  0
 35 33  1  0  0  0  0
 35 40  1  0  0  0  0
 36 35  1  0  0  0  0
 37 36  1  0  0  0  0
 38 35  1  0  0  0  0
 39 38  1  0  0  0  0
 41 46  1  6  0  0  0
 41 42  1  0  0  0  0
 42 40  1  6  0  0  0
 43 42  1  0  0  0  0
 44 45  1  0  0  0  0
 44 43  1  0  0  0  0
 45 48  1  6  0  0  0
 45 41  1  0  0  0  0
 47 46  1  0  0  0  0
 49 48  1  0  0  0  0
M  END
>  <minimizedAffinity>
-6.08486843

$$$$

 OpenBabel03242514213D

 49 51  0  0  1  0  0  0  0  0999 V2000
   37.7540   27.2820   40.9760 C   0  0  0  0  0  0  0  0  0  0  0  0
   36.7080   28.1110   40.6440 C   0  0  0  0  0  0  0  0  0  0  0  0
   36.0060   27.7930   39.5130 C   0  0  0  0  0  0  0  0  0  0  0  0
   36.3510   26.7100   38.7840 N   0  0  0  0  0  0  0  0  0  0  0  0
   37.3620   25.9100   39.1080 C   0  0  0  0  0  0  0  0  0  0  0  0
   38.0400   26.2170   40.1980 N   0  0  0  0  0  0  0  0  0  0  0  0
   35.1590   28.3110   39.0840 H   0  0  0  0  0  0  0  0  0  0  0  0
   37.6130   25.0490   38.5030 H   0  0  0  0  0  0  0  0  0  0  0  0
   38.4680   27.5830   42.2240 C   0  0  0  0  0  0  0  0  0  0  0  0
   39.5270   28.6250   42.0110 C   0  0  0  0  0  0  0  0  0  0  0  0
   40.8760   28.1130   42.2530 C   0  0  0  0  0  0  0  0  0  0  0  0
   41.0120   27.5020   43.6310 C   0  0  0  0  0  0  0  0  0  0  0  0
   39.8750   26.6350   44.0110 C   0  0  0  0  0  0  0  0  0  0  0  0
   38.9860   26.3280   42.8280 C   0  0  0  0  0  0  0  0  0  0  0  0
   37.7690   28.0950   42.9130 H   0  0  0  0  0  0  0  0  0  0  0  0
   39.3760   29.5340   42.6200 H   0  0  0  0  0  0  0  0  0  0  0  0
   39.4580   28.9680   40.9580 H   0  0  0  0  0  0  0  0  0  0  0  0
   41.6350   28.9200   42.1990 H   0  0  0  0  0  0  0  0  0  0  0  0
   41.1120   27.3140   41.5050 H   0  0  0  0  0  0  0  0  0  0  0  0
   41.1760   28.2940   44.3950 H   0  0  0  0  0  0  0  0  0  0  0  0
   41.9410   26.8750   43.6610 H   0  0  0  0  0  0  0  0  0  0  0  0
   39.2430   27.1130   44.7890 H   0  0  0  0  0  0  0  0  0  0  0  0
   40.2010   25.6550   44.4260 H   0  0  0  0  0  0  0  0  0  0  0  0
   38.1680   25.6500   43.1350 H   0  0  0  0  0  0  0  0  0  0  0  0
   39.5780   25.7860   42.0550 H   0  0  0  0  0  0  0  0  0  0  0  0
   36.2200   29.2080   41.2240 O   0  0  0  0  0  0  0  0  0  0  0  0
   35.8740   30.4500   40.7680 C   0  0  0  0  0  0  0  0  0  0  0  0
   35.1730   30.3020   39.8940 H   0  0  0  0  0  0  0  0  0  0  0  0
   35.3510   31.1350   41.4320 H   0  0  0  0  0  0  0  0  0  0  0  0
   37.0480   31.2280   40.1890 C   0  0  0  0  0  0  0  0  0  0  0  0
   37.0540   31.0110   39.1000 H   0  0  0  0  0  0  0  0  0  0  0  0
   37.9720   30.7830   40.5870 H   0  0  0  0  0  0  0  0  0  0  0  0
   36.9370   32.6490   40.4290 N   0  0  0  0  0  0  0  0  0  0  0  0
   36.5460   32.7650   41.4030 H   0  0  0  0  0  0  0  0  0  0  0  0
   38.5460   33.3060   40.4490 S   0  0  0  0  0  0  0  0  0  0  0  0
   38.5620   34.6820   41.0410 O   0  0  0  0  0  0  0  0  0  0  0  0
   39.3460   34.9610   41.5940 H   0  0  0  0  0  0  0  0  0  0  0  0
   39.0230   33.3400   39.0260 O   0  0  0  0  0  0  0  0  0  0  0  0
   39.2980   34.2010   38.5940 H   0  0  0  0  0  0  0  0  0  0  0  0
   39.5720   32.3090   41.3090 O   0  0  0  0  0  0  0  0  0  0  0  0
   41.8570   31.8640   41.8780 C   0  0  1  0  0  3  0  0  0  0  0  0
   40.8720   32.5050   40.9440 C   0  0  2  0  0  3  0  0  0  0  0  0
   41.2330   33.8300   40.8000 O   0  0  0  0  0  0  0  0  0  0  0  0
   42.5880   33.9370   41.0450 C   0  0  0  0  0  2  0  0  0  0  0  0
   43.0390   32.8000   41.8880 C   0  0  1  0  0  3  0  0  0  0  0  0
   41.3590   31.6950   43.1760 O   0  0  0  0  0  0  0  0  0  0  0  0
   42.1740   31.5810   43.7580 H   0  0  0  0  0  0  0  0  0  0  0  0
   43.4330   33.1470   43.1750 O   0  0  0  0  0  0  0  0  0  0  0  0
   42.7620   33.6260   43.6940 H   0  0  0  0  0  0  0  0  0  0  0  0
  1  9  1  0  0  0  0
  2  1  1  0  0  0  0
  2 26  1  0  0  0  0
  3  2  2  0  0  0  0
  4  5  2  0  0  0  0
  4  3  1  0  0  0  0
  5  6  1  0  0  0  0
  6  1  2  0  0  0  0
  7  3  1  0  0  0  0
  8  5  1  0  0  0  0
  9 14  1  0  0  0  0
  9 15  1  0  0  0  0
 10  9  1  0  0  0  0
 10 11  1  0  0  0  0
 10 16  1  0  0  0  0
 11 12  1  0  0  0  0
 12 21  1  0  0  0  0
 12 13  1  0  0  0  0
 12 20  1  0  0  0  0
 13 23  1  0  0  0  0
 13 22  1  0  0  0  0
 14 24  1  0  0  0  0
 14 13  1  0  0  0  0
 17 10  1  0  0  0  0
 18 11  1  0  0  0  0
 19 11  1  0  0  0  0
 25 14  1  0  0  0  0
 27 26  1  0  0  0  0
 27 29  1  0  0  0  0
 28 27  1  0  0  0  0
 30 33  1  0  0  0  0
 30 32  1  0  0  0  0
 30 27  1  0  0  0  0
 31 30  1  0  0  0  0
 33 35  1  0  0  0  0
 33 34  1  0  0  0  0
 35 36  1  0  0  0  0
 35 40  1  0  0  0  0
 36 37  1  0  0  0  0
 38 35  1  0  0  0  0
 39 38  1  0  0  0  0
 41 45  1  0  0  0  0
 41 46  1  1  0  0  0
 42 40  1  1  0  0  0
 42 41  1  0  0  0  0
 43 42  1  0  0  0  0
 43 44  1  0  0  0  0
 44 45  1  0  0  0  0
 45 48  1  1  0  0  0
 46 47  1  0  0  0  0
 48 49  1  0  0  0  0
M  END
>  <minimizedAffinity>
-6.03046942

$$$$

 OpenBabel03242514213D

 49 51  0  0  1  0  0  0  0  0999 V2000
   36.6810   27.1360   40.3390 C   0  0  0  0  0  0  0  0  0  0  0  0
   37.0870   27.5330   41.5910 C   0  0  0  0  0  0  0  0  0  0  0  0
   37.3600   26.5400   42.4930 C   0  0  0  0  0  0  0  0  0  0  0  0
   37.2260   25.2450   42.1350 N   0  0  0  0  0  0  0  0  0  0  0  0
   36.8340   24.8640   40.9230 C   0  0  0  0  0  0  0  0  0  0  0  0
   36.5700   25.8210   40.0540 N   0  0  0  0  0  0  0  0  0  0  0  0
   37.6880   26.6400   43.5190 H   0  0  0  0  0  0  0  0  0  0  0  0
   36.7370   23.8170   40.6670 H   0  0  0  0  0  0  0  0  0  0  0  0
   36.4510   28.1970   39.3500 C   0  0  0  0  0  0  0  0  0  0  0  0
   35.1320   28.8790   39.5740 C   0  0  0  0  0  0  0  0  0  0  0  0
   34.2040   28.6860   38.4600 C   0  0  0  0  0  0  0  0  0  0  0  0
   34.8010   29.1240   37.1410 C   0  0  0  0  0  0  0  0  0  0  0  0
   36.1990   28.6820   36.9460 C   0  0  0  0  0  0  0  0  0  0  0  0
   36.6080   27.6530   37.9750 C   0  0  0  0  0  0  0  0  0  0  0  0
   37.1730   29.0140   39.5380 H   0  0  0  0  0  0  0  0  0  0  0  0
   35.2270   29.9600   39.7760 H   0  0  0  0  0  0  0  0  0  0  0  0
   34.6820   28.4510   40.4930 H   0  0  0  0  0  0  0  0  0  0  0  0
   33.2780   29.2840   38.5920 H   0  0  0  0  0  0  0  0  0  0  0  0
   33.9480   27.5990   38.3710 H   0  0  0  0  0  0  0  0  0  0  0  0
   34.7150   30.2270   37.0210 H   0  0  0  0  0  0  0  0  0  0  0  0
   34.1900   28.6940   36.3040 H   0  0  0  0  0  0  0  0  0  0  0  0
   36.9080   29.5330   37.0240 H   0  0  0  0  0  0  0  0  0  0  0  0
   36.3700   28.2180   35.9490 H   0  0  0  0  0  0  0  0  0  0  0  0
   37.6440   27.3160   37.7820 H   0  0  0  0  0  0  0  0  0  0  0  0
   35.9560   26.7560   37.8770 H   0  0  0  0  0  0  0  0  0  0  0  0
   37.2770   28.7390   42.1270 O   0  0  0  0  0  0  0  0  0  0  0  0
   38.2670   29.2940   42.8910 C   0  0  0  0  0  0  0  0  0  0  0  0
   37.7770   29.7160   43.8180 H   0  0  0  0  0  0  0  0  0  0  0  0
   39.0700   28.6620   43.2630 H   0  0  0  0  0  0  0  0  0  0  0  0
   38.9360   30.4920   42.2320 C   0  0  0  0  0  0  0  0  0  0  0  0
   40.0280   30.2920   42.2670 H   0  0  0  0  0  0  0  0  0  0  0  0
   38.7720   31.3660   42.8800 H   0  0  0  0  0  0  0  0  0  0  0  0
   38.4940   30.6880   40.8700 N   0  0  0  0  0  0  0  0  0  0  0  0
   37.4900   30.3620   40.8250 H   0  0  0  0  0  0  0  0  0  0  0  0
   38.4830   32.3980   40.5610 S   0  0  0  0  0  0  0  0  0  0  0  0
   39.3250   33.1340   41.5580 O   0  0  0  0  0  0  0  0  0  0  0  0
   39.8420   33.9340   41.2570 H   0  0  0  0  0  0  0  0  0  0  0  0
   37.0540   32.8500   40.6450 O   0  0  0  0  0  0  0  0  0  0  0  0
   36.7710   33.5510   41.3020 H   0  0  0  0  0  0  0  0  0  0  0  0
   39.0300   32.7150   39.0170 O   0  0  0  0  0  0  0  0  0  0  0  0
   40.8970   32.6070   37.5180 C   0  0  1  0  0  3  0  0  0  0  0  0
   40.3810   32.5420   38.9250 C   0  0  2  0  0  3  0  0  0  0  0  0
   40.8470   31.3710   39.4890 O   0  0  0  0  0  0  0  0  0  0  0  0
   42.0110   31.0130   38.8380 C   0  0  0  0  0  2  0  0  0  0  0  0
   42.0400   31.6240   37.4840 C   0  0  1  0  0  3  0  0  0  0  0  0
   39.9340   32.2670   36.5590 O   0  0  0  0  0  0  0  0  0  0  0  0
   40.4590   32.0270   35.7330 H   0  0  0  0  0  0  0  0  0  0  0  0
   41.9350   30.7210   36.4330 O   0  0  0  0  0  0  0  0  0  0  0  0
   41.1470   30.1490   36.4610 H   0  0  0  0  0  0  0  0  0  0  0  0
  1  2  1  0  0  0  0
  2 26  1  0  0  0  0
  2  3  2  0  0  0  0
  3  7  1  0  0  0  0
  4  3  1  0  0  0  0
  5  4  2  0  0  0  0
  6  1  2  0  0  0  0
  6  5  1  0  0  0  0
  8  5  1  0  0  0  0
  9 15  1  0  0  0  0
  9 10  1  0  0  0  0
  9  1  1  0  0  0  0
 10 16  1  0  0  0  0
 10 17  1  0  0  0  0
 11 18  1  0  0  0  0
 11 10  1  0  0  0  0
 12 11  1  0  0  0  0
 13 22  1  0  0  0  0
 13 12  1  0  0  0  0
 13 14  1  0  0  0  0
 14  9  1  0  0  0  0
 19 11  1  0  0  0  0
 20 12  1  0  0  0  0
 21 12  1  0  0  0  0
 23 13  1  0  0  0  0
 24 14  1  0  0  0  0
 25 14  1  0  0  0  0
 26 27  1  0  0  0  0
 27 29  1  0  0  0  0
 27 28  1  0  0  0  0
 30 31  1  0  0  0  0
 30 32  1  0  0  0  0
 30 27  1  0  0  0  0
 33 30  1  0  0  0  0
 34 33  1  0  0  0  0
 35 38  1  0  0  0  0
 35 33  1  0  0  0  0
 35 36  1  0  0  0  0
 37 36  1  0  0  0  0
 38 39  1  0  0  0  0
 40 35  1  0  0  0  0
 41 46  1  6  0  0  0
 41 42  1  0  0  0  0
 42 40  1  6  0  0  0
 42 43  1  0  0  0  0
 44 43  1  0  0  0  0
 45 48  1  6  0  0  0
 45 41  1  0  0  0  0
 45 44  1  0  0  0  0
 47 46  1  0  0  0  0
 48 49  1  0  0  0  0
M  END
>  <minimizedAffinity>
-6.00941515

$$$$
