
 OpenBabel03252500233D

 25 26  0  0  1  0  0  0  0  0999 V2000
   38.8140   31.9830   41.4620 O   0  0  0  0  0  0  0  0  0  0  0  0
   37.8700   32.2100   40.3020 P   0  0  2  0  0  0  0  0  0  0  0  0
   37.4080   33.8340   40.3100 O   0  0  0  0  0  0  0  0  0  0  0  0
   37.0950   34.0330   41.2440 H   0  0  0  0  0  0  0  0  0  0  0  0
   36.5330   31.1680   40.5460 O   0  0  0  0  0  0  0  0  0  0  0  0
   37.2080   28.1970   42.4140 C   0  0  0  0  0  0  0  0  0  0  0  0
   37.0020   27.1530   41.4930 C   0  0  0  0  0  0  0  0  0  0  0  0
   36.6170   27.5250   40.1920 C   0  0  0  0  0  0  0  0  0  0  0  0
   36.4690   28.8360   39.9000 N   0  0  0  0  0  0  0  0  0  0  0  0
   36.6810   29.8130   40.8280 C   0  0  0  0  0  0  0  0  0  0  0  0
   37.0470   29.4630   42.0710 N   0  0  0  0  0  0  0  0  0  0  0  0
   37.1370   26.1250   41.7900 H   0  0  0  0  0  0  0  0  0  0  0  0
   36.4480   26.7550   39.4520 H   0  0  0  0  0  0  0  0  0  0  0  0
   37.5810   27.8310   43.6800 O   0  0  0  0  0  0  0  0  0  0  0  0
   38.2610   28.4040   44.1950 H   0  0  0  0  0  0  0  0  0  0  0  0
   38.6970   31.8380   38.8970 O   0  0  0  0  0  0  0  0  0  0  0  0
   40.7800   32.2120   37.7520 C   0  0  2  0  0  3  0  0  0  0  0  0
   39.9520   32.4110   39.0050 C   0  0  1  0  0  3  0  0  0  0  0  0
   39.9540   33.7760   39.1250 O   0  0  0  0  0  0  0  0  0  0  0  0
   41.3190   34.0680   39.1200 C   0  0  0  0  0  2  0  0  0  0  0  0
   41.8780   33.2380   37.9840 C   0  0  2  0  0  3  0  0  0  0  0  0
   40.0650   32.4350   36.5910 O   0  0  0  0  0  0  0  0  0  0  0  0
   39.2150   32.9170   36.7430 H   0  0  0  0  0  0  0  0  0  0  0  0
   42.0730   34.0380   36.8650 O   0  0  0  0  0  0  0  0  0  0  0  0
   41.2230   33.9760   36.3260 H   0  0  0  0  0  0  0  0  0  0  0  0
  2  3  1  0  0  0  0
  2  5  1  0  0  0  0
  2  1  2  1  0  0  0
  3  4  1  0  0  0  0
  5 10  1  0  0  0  0
  6 14  1  0  0  0  0
  7 12  1  0  0  0  0
  7  6  2  0  0  0  0
  8  7  1  0  0  0  0
  9  8  2  0  0  0  0
  9 10  1  0  0  0  0
 10 11  2  0  0  0  0
 11  6  1  0  0  0  0
 13  8  1  0  0  0  0
 14 15  1  0  0  0  0
 16  2  1  0  0  0  0
 17 22  1  6  0  0  0
 17 21  1  0  0  0  0
 17 18  1  0  0  0  0
 18 16  1  6  0  0  0
 18 19  1  0  0  0  0
 20 19  1  0  0  0  0
 21 24  1  6  0  0  0
 21 20  1  0  0  0  0
 22 23  1  0  0  0  0
 25 24  1  0  0  0  0
M  END
>  <minimizedAffinity>
-5.67745256

$$$$

 OpenBabel03252500233D

 25 26  0  0  1  0  0  0  0  0999 V2000
   37.7100   29.7640   36.6290 O   0  0  0  0  0  0  0  0  0  0  0  0
   37.9530   30.8850   37.6140 P   0  0  2  0  0  0  0  0  0  0  0  0
   37.7180   32.3520   36.8120 O   0  0  0  0  0  0  0  0  0  0  0  0
   38.2720   32.3060   35.9740 H   0  0  0  0  0  0  0  0  0  0  0  0
   39.5650   30.7130   38.1650 O   0  0  0  0  0  0  0  0  0  0  0  0
   41.7530   33.4960   37.6710 C   0  0  0  0  0  0  0  0  0  0  0  0
   41.9950   33.9820   38.9690 C   0  0  0  0  0  0  0  0  0  0  0  0
   41.3650   33.3010   40.0270 C   0  0  0  0  0  0  0  0  0  0  0  0
   40.5770   32.2400   39.7480 N   0  0  0  0  0  0  0  0  0  0  0  0
   40.3730   31.8040   38.4710 C   0  0  0  0  0  0  0  0  0  0  0  0
   40.9720   32.4520   37.4590 N   0  0  0  0  0  0  0  0  0  0  0  0
   42.6350   34.8370   39.1240 H   0  0  0  0  0  0  0  0  0  0  0  0
   41.5230   33.6420   41.0410 H   0  0  0  0  0  0  0  0  0  0  0  0
   42.3680   34.1610   36.6440 O   0  0  0  0  0  0  0  0  0  0  0  0
   42.7290   33.6330   35.8410 H   0  0  0  0  0  0  0  0  0  0  0  0
   36.8510   30.7110   38.8610 O   0  0  0  0  0  0  0  0  0  0  0  0
   37.1730   30.7330   41.2450 C   0  0  2  0  0  3  0  0  0  0  0  0
   37.5220   30.1090   39.9100 C   0  0  1  0  0  3  0  0  0  0  0  0
   37.1970   28.7950   40.1240 O   0  0  0  0  0  0  0  0  0  0  0  0
   37.9380   28.4920   41.2680 C   0  0  0  0  0  2  0  0  0  0  0  0
   37.7010   29.6670   42.1930 C   0  0  2  0  0  3  0  0  0  0  0  0
   35.8190   30.9680   41.3930 O   0  0  0  0  0  0  0  0  0  0  0  0
   35.2640   30.4850   40.7320 H   0  0  0  0  0  0  0  0  0  0  0  0
   36.7580   29.3290   43.1560 O   0  0  0  0  0  0  0  0  0  0  0  0
   35.8630   29.6050   42.7800 H   0  0  0  0  0  0  0  0  0  0  0  0
  2  1  2  6  0  0  0
  2  5  1  0  0  0  0
  2 16  1  0  0  0  0
  3  2  1  0  0  0  0
  4  3  1  0  0  0  0
  5 10  1  0  0  0  0
  6  7  1  0  0  0  0
  7 12  1  0  0  0  0
  7  8  2  0  0  0  0
  8 13  1  0  0  0  0
  9  8  1  0  0  0  0
 10  9  2  0  0  0  0
 11  6  2  0  0  0  0
 11 10  1  0  0  0  0
 14  6  1  0  0  0  0
 15 14  1  0  0  0  0
 17 22  1  6  0  0  0
 17 21  1  0  0  0  0
 18 16  1  6  0  0  0
 18 19  1  0  0  0  0
 18 17  1  0  0  0  0
 19 20  1  0  0  0  0
 20 21  1  0  0  0  0
 21 24  1  1  0  0  0
 23 22  1  0  0  0  0
 25 24  1  0  0  0  0
M  END
>  <minimizedAffinity>
-5.64149189

$$$$

 OpenBabel03252500233D

 25 26  0  0  1  0  0  0  0  0999 V2000
   40.3080   30.7270   38.7040 O   0  0  0  0  0  0  0  0  0  0  0  0
   39.7730   32.0560   38.2200 P   0  0  2  0  0  0  0  0  0  0  0  0
   40.4820   32.3970   36.7260 O   0  0  0  0  0  0  0  0  0  0  0  0
   41.4730   32.2840   36.8530 H   0  0  0  0  0  0  0  0  0  0  0  0
   40.1970   33.2170   39.4050 O   0  0  0  0  0  0  0  0  0  0  0  0
   43.0540   33.9670   41.4180 C   0  0  0  0  0  0  0  0  0  0  0  0
   44.1100   34.0750   40.4950 C   0  0  0  0  0  0  0  0  0  0  0  0
   43.7880   33.8760   39.1400 C   0  0  0  0  0  0  0  0  0  0  0  0
   42.5110   33.5980   38.8020 N   0  0  0  0  0  0  0  0  0  0  0  0
   41.5190   33.5030   39.7340 C   0  0  0  0  0  0  0  0  0  0  0  0
   41.8210   33.6920   41.0290 N   0  0  0  0  0  0  0  0  0  0  0  0
   45.1110   34.3000   40.8310 H   0  0  0  0  0  0  0  0  0  0  0  0
   44.5710   33.9500   38.3960 H   0  0  0  0  0  0  0  0  0  0  0  0
   43.3700   34.1610   42.7360 O   0  0  0  0  0  0  0  0  0  0  0  0
   42.7100   34.6520   43.3500 H   0  0  0  0  0  0  0  0  0  0  0  0
   38.1140   31.9080   38.0650 O   0  0  0  0  0  0  0  0  0  0  0  0
   37.4780   31.5590   40.3590 C   0  0  2  0  0  3  0  0  0  0  0  0
   37.7070   30.9600   38.9870 C   0  0  1  0  0  3  0  0  0  0  0  0
   36.4880   30.3880   38.7270 O   0  0  0  0  0  0  0  0  0  0  0  0
   36.3060   29.5670   39.8400 C   0  0  0  0  0  2  0  0  0  0  0  0
   36.6870   30.4390   41.0180 C   0  0  2  0  0  3  0  0  0  0  0  0
   36.7910   32.7570   40.3170 O   0  0  0  0  0  0  0  0  0  0  0  0
   36.3460   32.9220   39.4500 H   0  0  0  0  0  0  0  0  0  0  0  0
   35.5420   30.9220   41.6400 O   0  0  0  0  0  0  0  0  0  0  0  0
   35.3430   31.8110   41.2060 H   0  0  0  0  0  0  0  0  0  0  0  0
  2  1  2  1  0  0  0
  2  5  1  0  0  0  0
  3  4  1  0  0  0  0
  3  2  1  0  0  0  0
  5 10  1  0  0  0  0
  6 14  1  0  0  0  0
  7 12  1  0  0  0  0
  7  6  2  0  0  0  0
  8  7  1  0  0  0  0
  9  8  2  0  0  0  0
  9 10  1  0  0  0  0
 10 11  2  0  0  0  0
 11  6  1  0  0  0  0
 13  8  1  0  0  0  0
 14 15  1  0  0  0  0
 16  2  1  0  0  0  0
 17 22  1  6  0  0  0
 17 21  1  0  0  0  0
 18 16  1  6  0  0  0
 18 17  1  0  0  0  0
 19 18  1  0  0  0  0
 19 20  1  0  0  0  0
 20 21  1  0  0  0  0
 21 24  1  6  0  0  0
 23 22  1  0  0  0  0
 25 24  1  0  0  0  0
M  END
>  <minimizedAffinity>
-5.53584909

$$$$

 OpenBabel03252500233D

 25 26  0  0  1  0  0  0  0  0999 V2000
   38.0390   30.1700   41.9730 O   0  0  0  0  0  0  0  0  0  0  0  0
   36.8260   29.7910   41.1530 P   0  0  2  0  0  0  0  0  0  0  0  0
   35.6660   31.0040   41.3350 O   0  0  0  0  0  0  0  0  0  0  0  0
   35.5640   31.1480   42.3240 H   0  0  0  0  0  0  0  0  0  0  0  0
   36.2750   28.2870   41.7590 O   0  0  0  0  0  0  0  0  0  0  0  0
   38.7310   25.8630   42.6910 C   0  0  0  0  0  0  0  0  0  0  0  0
   38.6290   24.8680   41.7020 C   0  0  0  0  0  0  0  0  0  0  0  0
   37.6680   25.0740   40.6940 C   0  0  0  0  0  0  0  0  0  0  0  0
   36.9110   26.1910   40.7270 N   0  0  0  0  0  0  0  0  0  0  0  0
   37.0460   27.1300   41.7080 C   0  0  0  0  0  0  0  0  0  0  0  0
   37.9610   26.9370   42.6720 N   0  0  0  0  0  0  0  0  0  0  0  0
   39.2650   23.9970   41.7330 H   0  0  0  0  0  0  0  0  0  0  0  0
   37.5570   24.3330   39.9140 H   0  0  0  0  0  0  0  0  0  0  0  0
   39.6660   25.6600   43.6700 O   0  0  0  0  0  0  0  0  0  0  0  0
   40.1990   26.4570   44.0380 H   0  0  0  0  0  0  0  0  0  0  0  0
   37.3120   29.6730   39.5570 O   0  0  0  0  0  0  0  0  0  0  0  0
   39.0220   30.4310   38.0430 C   0  0  2  0  0  3  0  0  0  0  0  0
   38.3190   30.6050   39.3730 C   0  0  1  0  0  3  0  0  0  0  0  0
   37.8930   31.9050   39.2940 O   0  0  0  0  0  0  0  0  0  0  0  0
   39.0810   32.5860   39.0220 C   0  0  0  0  0  2  0  0  0  0  0  0
   39.7490   31.7630   37.9410 C   0  0  2  0  0  3  0  0  0  0  0  0
   38.1490   30.2070   36.9950 O   0  0  0  0  0  0  0  0  0  0  0  0
   37.2110   30.4320   37.2140 H   0  0  0  0  0  0  0  0  0  0  0  0
   39.5490   32.3590   36.7010 O   0  0  0  0  0  0  0  0  0  0  0  0
   38.7100   31.9450   36.3240 H   0  0  0  0  0  0  0  0  0  0  0  0
  2  3  1  0  0  0  0
  2  5  1  0  0  0  0
  2  1  2  1  0  0  0
  3  4  1  0  0  0  0
  6 14  1  0  0  0  0
  7 12  1  0  0  0  0
  7  6  2  0  0  0  0
  8  9  2  0  0  0  0
  8  7  1  0  0  0  0
  9 10  1  0  0  0  0
 10  5  1  0  0  0  0
 10 11  2  0  0  0  0
 11  6  1  0  0  0  0
 13  8  1  0  0  0  0
 14 15  1  0  0  0  0
 16  2  1  0  0  0  0
 17 22  1  6  0  0  0
 17 18  1  0  0  0  0
 18 16  1  6  0  0  0
 19 18  1  0  0  0  0
 20 19  1  0  0  0  0
 21 24  1  6  0  0  0
 21 17  1  0  0  0  0
 21 20  1  0  0  0  0
 22 23  1  0  0  0  0
 25 24  1  0  0  0  0
M  END
>  <minimizedAffinity>
-5.36448812

$$$$

 OpenBabel03252500233D

 25 26  0  0  1  0  0  0  0  0999 V2000
   35.2380   28.7300   40.4740 O   0  0  0  0  0  0  0  0  0  0  0  0
   36.3570   29.6260   40.9570 P   0  0  2  0  0  0  0  0  0  0  0  0
   35.7000   31.1370   41.3260 O   0  0  0  0  0  0  0  0  0  0  0  0
   35.1610   31.4130   40.5240 H   0  0  0  0  0  0  0  0  0  0  0  0
   37.4930   29.7220   39.6800 O   0  0  0  0  0  0  0  0  0  0  0  0
   39.6060   32.1010   38.0500 C   0  0  0  0  0  0  0  0  0  0  0  0
   40.0510   32.9390   39.0890 C   0  0  0  0  0  0  0  0  0  0  0  0
   39.5850   32.6430   40.3830 C   0  0  0  0  0  0  0  0  0  0  0  0
   38.7540   31.5940   40.5580 N   0  0  0  0  0  0  0  0  0  0  0  0
   38.3500   30.8080   39.5190 C   0  0  0  0  0  0  0  0  0  0  0  0
   38.7910   31.0870   38.2810 N   0  0  0  0  0  0  0  0  0  0  0  0
   40.7160   33.7630   38.8820 H   0  0  0  0  0  0  0  0  0  0  0  0
   39.9020   33.2630   41.2110 H   0  0  0  0  0  0  0  0  0  0  0  0
   40.0610   32.3910   36.7920 O   0  0  0  0  0  0  0  0  0  0  0  0
   40.2890   31.6280   36.1440 H   0  0  0  0  0  0  0  0  0  0  0  0
   37.0170   28.9200   42.3210 O   0  0  0  0  0  0  0  0  0  0  0  0
   38.8010   27.3110   42.1910 C   0  0  2  0  0  3  0  0  0  0  0  0
   37.3320   27.6150   41.9870 C   0  0  1  0  0  3  0  0  0  0  0  0
   36.7400   26.6600   42.7730 O   0  0  0  0  0  0  0  0  0  0  0  0
   37.2990   25.4830   42.2740 C   0  0  0  0  0  2  0  0  0  0  0  0
   38.7760   25.7910   42.1470 C   0  0  2  0  0  3  0  0  0  0  0  0
   39.2960   27.8110   43.3800 O   0  0  0  0  0  0  0  0  0  0  0  0
   38.5880   28.0700   44.0200 H   0  0  0  0  0  0  0  0  0  0  0  0
   39.4690   25.2380   43.2170 O   0  0  0  0  0  0  0  0  0  0  0  0
   39.5080   25.9560   43.9250 H   0  0  0  0  0  0  0  0  0  0  0  0
  2  1  2  6  0  0  0
  2  3  1  0  0  0  0
  2 16  1  0  0  0  0
  4  3  1  0  0  0  0
  5  2  1  0  0  0  0
  6 11  2  0  0  0  0
  6  7  1  0  0  0  0
  7  8  2  0  0  0  0
  8  9  1  0  0  0  0
  8 13  1  0  0  0  0
 10  5  1  0  0  0  0
 10  9  2  0  0  0  0
 11 10  1  0  0  0  0
 12  7  1  0  0  0  0
 14  6  1  0  0  0  0
 15 14  1  0  0  0  0
 17 22  1  1  0  0  0
 18 17  1  0  0  0  0
 18 16  1  1  0  0  0
 18 19  1  0  0  0  0
 20 19  1  0  0  0  0
 21 17  1  0  0  0  0
 21 20  1  0  0  0  0
 21 24  1  1  0  0  0
 22 23  1  0  0  0  0
 24 25  1  0  0  0  0
M  END
>  <minimizedAffinity>
-5.34780216

$$$$

 OpenBabel03252500233D

 25 26  0  0  1  0  0  0  0  0999 V2000
   35.9520   28.1270   41.8130 O   0  0  0  0  0  0  0  0  0  0  0  0
   37.3400   28.2200   42.4070 P   0  0  2  0  0  0  0  0  0  0  0  0
   37.2990   29.3420   43.6680 O   0  0  0  0  0  0  0  0  0  0  0  0
   36.8690   30.1700   43.2940 H   0  0  0  0  0  0  0  0  0  0  0  0
   38.3810   28.7210   41.1440 O   0  0  0  0  0  0  0  0  0  0  0  0
   37.3100   31.9050   39.9250 C   0  0  0  0  0  0  0  0  0  0  0  0
   37.3240   31.7640   38.5250 C   0  0  0  0  0  0  0  0  0  0  0  0
   37.7240   30.5130   38.0200 C   0  0  0  0  0  0  0  0  0  0  0  0
   38.0650   29.5340   38.8850 N   0  0  0  0  0  0  0  0  0  0  0  0
   38.0340   29.7180   40.2370 C   0  0  0  0  0  0  0  0  0  0  0  0
   37.6540   30.9100   40.7240 N   0  0  0  0  0  0  0  0  0  0  0  0
   37.0400   32.5880   37.8880 H   0  0  0  0  0  0  0  0  0  0  0  0
   37.7500   30.3610   36.9500 H   0  0  0  0  0  0  0  0  0  0  0  0
   36.9210   33.1240   40.4140 O   0  0  0  0  0  0  0  0  0  0  0  0
   36.3540   33.1720   41.2680 H   0  0  0  0  0  0  0  0  0  0  0  0
   37.7460   26.7020   42.9800 O   0  0  0  0  0  0  0  0  0  0  0  0
   38.7130   24.9600   41.6320 C   0  0  2  0  0  3  0  0  0  0  0  0
   37.4990   25.8050   41.9560 C   0  0  1  0  0  3  0  0  0  0  0  0
   36.5620   24.8470   42.2420 O   0  0  0  0  0  0  0  0  0  0  0  0
   36.5920   24.0560   41.0930 C   0  0  0  0  0  2  0  0  0  0  0  0
   38.0660   23.8540   40.8120 C   0  0  2  0  0  3  0  0  0  0  0  0
   39.3620   24.4920   42.7580 O   0  0  0  0  0  0  0  0  0  0  0  0
   38.8180   24.5660   43.5810 H   0  0  0  0  0  0  0  0  0  0  0  0
   38.4630   22.5960   41.2490 O   0  0  0  0  0  0  0  0  0  0  0  0
   38.7890   22.7200   42.1960 H   0  0  0  0  0  0  0  0  0  0  0  0
  2  1  2  6  0  0  0
  2 16  1  0  0  0  0
  2  3  1  0  0  0  0
  4  3  1  0  0  0  0
  5  2  1  0  0  0  0
  6 14  1  0  0  0  0
  6 11  1  0  0  0  0
  7  6  2  0  0  0  0
  8  7  1  0  0  0  0
  8  9  2  0  0  0  0
  9 10  1  0  0  0  0
 10 11  2  0  0  0  0
 10  5  1  0  0  0  0
 12  7  1  0  0  0  0
 13  8  1  0  0  0  0
 14 15  1  0  0  0  0
 17 18  1  0  0  0  0
 17 22  1  1  0  0  0
 18 19  1  0  0  0  0
 18 16  1  1  0  0  0
 20 19  1  0  0  0  0
 21 20  1  0  0  0  0
 21 24  1  1  0  0  0
 21 17  1  0  0  0  0
 22 23  1  0  0  0  0
 24 25  1  0  0  0  0
M  END
>  <minimizedAffinity>
-5.32464933

$$$$

 OpenBabel03252500233D

 25 26  0  0  1  0  0  0  0  0999 V2000
   37.3430   28.1490   37.6310 O   0  0  0  0  0  0  0  0  0  0  0  0
   38.2510   29.1810   38.2620 P   0  0  2  0  0  0  0  0  0  0  0  0
   39.3400   29.7140   37.0870 O   0  0  0  0  0  0  0  0  0  0  0  0
   39.7430   28.8880   36.6810 H   0  0  0  0  0  0  0  0  0  0  0  0
   39.0500   28.4020   39.5610 O   0  0  0  0  0  0  0  0  0  0  0  0
   37.3370   28.3530   42.6980 C   0  0  0  0  0  0  0  0  0  0  0  0
   37.0110   26.9980   42.8940 C   0  0  0  0  0  0  0  0  0  0  0  0
   37.4110   26.0990   41.8880 C   0  0  0  0  0  0  0  0  0  0  0  0
   38.0740   26.5720   40.8100 N   0  0  0  0  0  0  0  0  0  0  0  0
   38.3690   27.8960   40.6640 C   0  0  0  0  0  0  0  0  0  0  0  0
   37.9880   28.7580   41.6220 N   0  0  0  0  0  0  0  0  0  0  0  0
   36.4790   26.6850   43.7790 H   0  0  0  0  0  0  0  0  0  0  0  0
   37.1810   25.0480   41.9990 H   0  0  0  0  0  0  0  0  0  0  0  0
   36.9460   29.2250   43.6780 O   0  0  0  0  0  0  0  0  0  0  0  0
   37.5570   30.0090   43.9350 H   0  0  0  0  0  0  0  0  0  0  0  0
   37.2900   30.4420   38.7930 O   0  0  0  0  0  0  0  0  0  0  0  0
   37.4160   32.7040   39.6030 C   0  0  2  0  0  3  0  0  0  0  0  0
   38.1090   31.5520   38.9070 C   0  0  1  0  0  3  0  0  0  0  0  0
   39.2150   31.3740   39.6980 O   0  0  0  0  0  0  0  0  0  0  0  0
   39.7820   32.6490   39.6990 C   0  0  0  0  0  2  0  0  0  0  0  0
   38.6130   33.5810   39.9380 C   0  0  2  0  0  3  0  0  0  0  0  0
   36.7020   32.3110   40.7190 O   0  0  0  0  0  0  0  0  0  0  0  0
   36.9410   31.4040   41.0350 H   0  0  0  0  0  0  0  0  0  0  0  0
   38.5930   33.9840   41.2680 O   0  0  0  0  0  0  0  0  0  0  0  0
   38.0030   33.3240   41.7510 H   0  0  0  0  0  0  0  0  0  0  0  0
  2  1  2  6  0  0  0
  2 16  1  0  0  0  0
  2  5  1  0  0  0  0
  3  2  1  0  0  0  0
  4  3  1  0  0  0  0
  5 10  1  0  0  0  0
  6  7  1  0  0  0  0
  6 14  1  0  0  0  0
  7 12  1  0  0  0  0
  8 13  1  0  0  0  0
  8  7  2  0  0  0  0
  9  8  1  0  0  0  0
 10  9  2  0  0  0  0
 10 11  1  0  0  0  0
 11  6  2  0  0  0  0
 14 15  1  0  0  0  0
 17 21  1  0  0  0  0
 17 22  1  1  0  0  0
 18 16  1  1  0  0  0
 18 17  1  0  0  0  0
 18 19  1  0  0  0  0
 19 20  1  0  0  0  0
 20 21  1  0  0  0  0
 21 24  1  1  0  0  0
 22 23  1  0  0  0  0
 24 25  1  0  0  0  0
M  END
>  <minimizedAffinity>
-5.29612064

$$$$

 OpenBabel03252500233D

 25 26  0  0  1  0  0  0  0  0999 V2000
   36.2910   30.4890   39.0790 O   0  0  0  0  0  0  0  0  0  0  0  0
   36.8340   31.0200   40.3880 P   0  0  2  0  0  0  0  0  0  0  0  0
   35.5710   31.0510   41.5070 O   0  0  0  0  0  0  0  0  0  0  0  0
   34.8100   31.5320   41.0610 H   0  0  0  0  0  0  0  0  0  0  0  0
   37.4380   32.5900   40.0680 O   0  0  0  0  0  0  0  0  0  0  0  0
   40.3490   32.5380   37.9940 C   0  0  0  0  0  0  0  0  0  0  0  0
   41.3230   33.2210   38.7460 C   0  0  0  0  0  0  0  0  0  0  0  0
   40.9260   33.7020   40.0070 C   0  0  0  0  0  0  0  0  0  0  0  0
   39.6580   33.4890   40.4220 N   0  0  0  0  0  0  0  0  0  0  0  0
   38.7480   32.8190   39.6570 C   0  0  0  0  0  0  0  0  0  0  0  0
   39.1230   32.3590   38.4520 N   0  0  0  0  0  0  0  0  0  0  0  0
   42.3200   33.3590   38.3560 H   0  0  0  0  0  0  0  0  0  0  0  0
   41.6430   34.2330   40.6190 H   0  0  0  0  0  0  0  0  0  0  0  0
   40.7390   32.0720   36.7680 O   0  0  0  0  0  0  0  0  0  0  0  0
   40.3880   31.1670   36.4330 H   0  0  0  0  0  0  0  0  0  0  0  0
   38.0440   29.9810   40.8910 O   0  0  0  0  0  0  0  0  0  0  0  0
   37.0490   27.8480   41.3860 C   0  0  2  0  0  3  0  0  0  0  0  0
   37.5090   29.1970   41.8970 C   0  0  1  0  0  3  0  0  0  0  0  0
   38.3950   28.8340   42.8780 O   0  0  0  0  0  0  0  0  0  0  0  0
   37.6170   27.9970   43.6800 C   0  0  0  0  0  2  0  0  0  0  0  0
   36.9030   27.0920   42.6980 C   0  0  2  0  0  3  0  0  0  0  0  0
   37.9520   27.2610   40.5200 O   0  0  0  0  0  0  0  0  0  0  0  0
   38.8490   27.6770   40.5510 H   0  0  0  0  0  0  0  0  0  0  0  0
   37.5340   25.8550   42.6470 O   0  0  0  0  0  0  0  0  0  0  0  0
   38.2120   25.9180   41.9030 H   0  0  0  0  0  0  0  0  0  0  0  0
  2  1  2  6  0  0  0
  2 16  1  0  0  0  0
  2  3  1  0  0  0  0
  4  3  1  0  0  0  0
  5  2  1  0  0  0  0
  6 11  2  0  0  0  0
  6  7  1  0  0  0  0
  7  8  2  0  0  0  0
  8  9  1  0  0  0  0
  8 13  1  0  0  0  0
 10  5  1  0  0  0  0
 10  9  2  0  0  0  0
 11 10  1  0  0  0  0
 12  7  1  0  0  0  0
 14  6  1  0  0  0  0
 15 14  1  0  0  0  0
 17 22  1  6  0  0  0
 17 18  1  0  0  0  0
 17 21  1  0  0  0  0
 18 16  1  6  0  0  0
 18 19  1  0  0  0  0
 19 20  1  0  0  0  0
 21 24  1  6  0  0  0
 21 20  1  0  0  0  0
 22 23  1  0  0  0  0
 25 24  1  0  0  0  0
M  END
>  <minimizedAffinity>
-5.27200317

$$$$

 OpenBabel03252500233D

 25 26  0  0  1  0  0  0  0  0999 V2000
   37.5960   31.8190   38.3020 O   0  0  0  0  0  0  0  0  0  0  0  0
   37.7960   32.2320   39.7440 P   0  0  2  0  0  0  0  0  0  0  0  0
   37.0180   33.7110   39.9800 O   0  0  0  0  0  0  0  0  0  0  0  0
   37.3390   34.3190   39.2470 H   0  0  0  0  0  0  0  0  0  0  0  0
   39.4860   32.3570   39.9880 O   0  0  0  0  0  0  0  0  0  0  0  0
   41.8140   33.0660   37.3700 C   0  0  0  0  0  0  0  0  0  0  0  0
   42.2480   31.7980   36.9390 C   0  0  0  0  0  0  0  0  0  0  0  0
   41.6970   30.6840   37.5970 C   0  0  0  0  0  0  0  0  0  0  0  0
   40.8000   30.8820   38.5870 N   0  0  0  0  0  0  0  0  0  0  0  0
   40.4090   32.1320   38.9700 C   0  0  0  0  0  0  0  0  0  0  0  0
   40.9330   33.1990   38.3450 N   0  0  0  0  0  0  0  0  0  0  0  0
   42.9690   31.7080   36.1410 H   0  0  0  0  0  0  0  0  0  0  0  0
   42.0030   29.6910   37.2980 H   0  0  0  0  0  0  0  0  0  0  0  0
   42.3520   34.1480   36.7280 O   0  0  0  0  0  0  0  0  0  0  0  0
   41.7660   34.9690   36.5350 H   0  0  0  0  0  0  0  0  0  0  0  0
   37.1170   31.0470   40.7080 O   0  0  0  0  0  0  0  0  0  0  0  0
   37.8120   29.6130   42.5100 C   0  0  2  0  0  3  0  0  0  0  0  0
   38.1590   30.2770   41.1940 C   0  0  1  0  0  3  0  0  0  0  0  0
   38.4890   29.1970   40.4170 O   0  0  0  0  0  0  0  0  0  0  0  0
   39.4780   28.5770   41.1830 C   0  0  0  0  0  2  0  0  0  0  0  0
   38.9150   28.5680   42.5880 C   0  0  2  0  0  3  0  0  0  0  0  0
   36.5440   29.0640   42.5220 O   0  0  0  0  0  0  0  0  0  0  0  0
   36.1520   28.9700   41.6190 H   0  0  0  0  0  0  0  0  0  0  0  0
   38.4050   27.3100   42.8860 O   0  0  0  0  0  0  0  0  0  0  0  0
   37.4300   27.3360   42.6300 H   0  0  0  0  0  0  0  0  0  0  0  0
  2  1  2  6  0  0  0
  2  3  1  0  0  0  0
  2  5  1  0  0  0  0
  2 16  1  0  0  0  0
  4  3  1  0  0  0  0
  6 11  1  0  0  0  0
  7  6  2  0  0  0  0
  7  8  1  0  0  0  0
  8  9  2  0  0  0  0
  9 10  1  0  0  0  0
 10  5  1  0  0  0  0
 11 10  2  0  0  0  0
 12  7  1  0  0  0  0
 13  8  1  0  0  0  0
 14  6  1  0  0  0  0
 15 14  1  0  0  0  0
 17 22  1  6  0  0  0
 17 21  1  0  0  0  0
 18 16  1  6  0  0  0
 18 17  1  0  0  0  0
 19 20  1  0  0  0  0
 19 18  1  0  0  0  0
 20 21  1  0  0  0  0
 21 24  1  6  0  0  0
 23 22  1  0  0  0  0
 25 24  1  0  0  0  0
M  END
>  <minimizedAffinity>
-5.2295742

$$$$
