
     RDKit          3D

 49 52  0  0  0  0  0  0  0  0999 V2000
   45.1298   36.0145   42.9158 C   0  0  0  0  0  0  0  0  0  0  0  0
   45.3705   34.6501   42.9088 C   0  0  0  0  0  0  0  0  0  0  0  0
   45.2135   33.9207   44.0611 C   0  0  0  0  0  0  0  0  0  0  0  0
   44.8115   34.6085   45.1894 N   0  0  0  0  0  0  0  0  0  0  0  0
   44.5814   35.9201   45.1882 C   0  0  0  0  0  0  0  0  0  0  0  0
   44.7452   36.6131   44.0415 N   0  0  0  0  0  0  0  0  0  0  0  0
   45.4188   32.5303   44.2195 C   0  0  0  0  0  0  0  0  0  0  0  0
   44.9409   31.5624   43.3311 C   0  0  0  0  0  0  0  0  0  0  0  0
   45.0797   30.2118   43.5162 C   0  0  0  0  0  0  0  0  0  0  0  0
   45.7240   29.7412   44.6360 C   0  0  0  0  0  0  0  0  0  0  0  0
   46.2237   30.7092   45.5595 C   0  0  0  0  0  0  0  0  0  0  0  0
   46.8637   30.2489   46.6733 C   0  0  0  0  0  0  0  0  0  0  0  0
   47.3721   31.1353   47.6023 C   0  0  0  0  0  0  0  0  0  0  0  0
   47.2259   32.5153   47.3896 C   0  0  0  0  0  0  0  0  0  0  0  0
   46.5576   32.9376   46.2267 C   0  0  0  0  0  0  0  0  0  0  0  0
   46.0607   32.0362   45.3259 C   0  0  0  0  0  0  0  0  0  0  0  0
   45.7583   34.0902   41.7240 O   0  0  0  0  0  0  0  0  0  0  0  0
   47.6823   32.4316   41.0884 O   0  0  0  0  0  0  0  0  0  0  0  0
   47.3667   33.8763   41.2405 P   0  0  1  0  0  0  0  0  0  0  0  0
   47.6550   34.6048   39.7414 O   0  0  0  0  0  0  0  0  0  0  0  0
   48.3614   34.5931   42.3878 O   0  0  0  0  0  0  0  0  0  0  0  0
   49.5353   35.2910   42.1504 C   0  0  0  0  0  0  0  0  0  0  0  0
   49.2039   36.2105   41.3813 O   0  0  0  0  0  0  0  0  0  0  0  0
   50.6392   34.6973   42.8633 N   0  0  0  0  0  0  0  0  0  0  0  0
   45.2520   36.6015   42.0097 H   0  0  0  0  0  0  0  0  0  0  0  0
   44.2672   36.4274   46.0925 H   0  0  0  0  0  0  0  0  0  0  0  0
   44.4304   31.9264   42.4445 H   0  0  0  0  0  0  0  0  0  0  0  0
   44.6807   29.5246   42.7790 H   0  0  0  0  0  0  0  0  0  0  0  0
   45.8621   28.6897   44.8367 H   0  0  0  0  0  0  0  0  0  0  0  0
   46.9923   29.1897   46.8631 H   0  0  0  0  0  0  0  0  0  0  0  0
   47.8769   30.7261   48.4818 H   0  0  0  0  0  0  0  0  0  0  0  0
   47.6544   33.1332   48.1637 H   0  0  0  0  0  0  0  0  0  0  0  0
   46.5678   34.0065   46.2329 H   0  0  0  0  0  0  0  0  0  0  0  0
   51.4641   34.1508   42.4920 H   0  0  0  0  0  0  0  0  0  0  0  0
   50.6392   34.8159   43.9039 H   0  0  0  0  0  0  0  0  0  0  0  0
   48.1216   33.9646   36.5340 O   0  0  0  0  0  0  0  0  0  0  0  0
   47.5499   33.4430   37.7057 C   0  0  2  0  0  0  0  0  0  0  0  0
   48.3799   33.7716   38.9009 C   0  0  2  0  0  0  0  0  0  0  0  0
   48.6765   32.5750   39.5450 O   0  0  0  0  0  0  0  0  0  0  0  0
   48.7369   31.5993   38.5531 C   0  0  0  0  0  0  0  0  0  0  0  0
   47.6167   31.9270   37.6129 C   0  0  2  0  0  0  0  0  0  0  0  0
   47.9295   31.4917   36.3380 O   0  0  0  0  0  0  0  0  0  0  0  0
   49.0292   34.2806   36.7713 H   0  0  0  0  0  0  0  0  0  0  0  0
   46.4948   33.7690   37.7724 H   0  0  0  0  0  0  0  0  0  0  0  0
   49.3400   34.2100   38.5875 H   0  0  0  0  0  0  0  0  0  0  0  0
   49.7244   31.6440   38.0606 H   0  0  0  0  0  0  0  0  0  0  0  0
   48.5529   30.5984   39.0236 H   0  0  0  0  0  0  0  0  0  0  0  0
   46.6527   31.5310   37.9956 H   0  0  0  0  0  0  0  0  0  0  0  0
   48.8693   31.1360   36.2760 H   0  0  0  0  0  0  0  0  0  0  0  0
  1  6  2  0
  2  1  1  0
  2  3  2  0
  3  7  1  0
  3  4  1  0
  5  4  2  0
  6  5  1  0
  7 16  2  0
  8  9  2  0
  8  7  1  0
  9 10  1  0
 10 11  2  0
 11 12  1  0
 12 13  2  0
 14 13  1  0
 15 14  2  0
 16 11  1  0
 16 15  1  0
 17  2  1  0
 19 18  2  0
 19 17  1  1
 19 21  1  0
 20 19  1  0
 22 21  1  0
 22 24  1  0
 23 22  2  0
  1 25  1  0
  5 26  1  0
  8 27  1  0
  9 28  1  0
 10 29  1  0
 12 30  1  0
 13 31  1  0
 14 32  1  0
 15 33  1  0
 24 34  1  0
 24 35  1  0
 36 37  1  0
 37 38  1  0
 38 39  1  0
 39 40  1  0
 40 41  1  0
 41 42  1  0
 41 37  1  0
 36 43  1  0
 37 44  1  1
 38 45  1  6
 40 46  1  0
 40 47  1  0
 41 48  1  1
 42 49  1  0
 20 38  1  0
M  ISO  8  25  14  26  14  27  14  28  14  29  14  30  14  31  14  32  14
M  ISO  1  33  14
M  END
>  <DihAtoms>  (1) 
18,19,37,36

>  <DihDeg>  (1) 
-122.90655934584659

$$$$
