
 OpenBabel03242516363D

 44 47  0  0  1  0  0  0  0  0999 V2000
   37.2130   29.7600   40.6700 O   0  0  0  0  0  0  0  0  0  0  0  0
   37.6250   32.0780   40.4050 C   0  0  2  0  0  0  0  0  0  0  0  0
   38.5800   31.6380   39.2610 C   0  0  1  0  0  0  0  0  0  0  0  0
   37.6930   31.6470   38.2250 O   0  0  0  0  0  0  0  0  0  0  0  0
   36.6100   30.8810   38.7000 C   0  0  0  0  0  0  0  0  0  0  0  0
   36.6560   30.9280   40.2440 C   0  0  1  0  0  0  0  0  0  0  0  0
   38.1480   32.0970   41.3550 H   0  0  0  0  0  0  0  0  0  0  0  0
   38.9380   30.6480   39.5880 H   0  0  0  0  0  0  0  0  0  0  0  0
   36.7590   29.8430   38.3590 H   0  0  0  0  0  0  0  0  0  0  0  0
   35.6750   31.3280   38.3260 H   0  0  0  0  0  0  0  0  0  0  0  0
   35.6810   31.1680   40.6950 H   0  0  0  0  0  0  0  0  0  0  0  0
   41.6210   33.6870   38.2540 C   0  0  0  0  0  0  0  0  0  0  0  0
   40.6580   32.6810   38.1440 C   0  0  0  0  0  0  0  0  0  0  0  0
   39.7060   32.5730   39.1350 C   0  0  0  0  0  0  0  0  0  0  0  0
   39.7700   33.4730   40.1750 N   0  0  0  0  0  0  0  0  0  0  0  0
   40.7090   34.4330   40.2520 C   0  0  0  0  0  0  0  0  0  0  0  0
   41.6380   34.5360   39.2830 N   0  0  0  0  0  0  0  0  0  0  0  0
   42.3280   33.6990   37.4320 H   0  0  0  0  0  0  0  0  0  0  0  0
   40.5450   31.9420   37.3630 H   0  0  0  0  0  0  0  0  0  0  0  0
   40.7200   35.1220   41.0920 H   0  0  0  0  0  0  0  0  0  0  0  0
   36.9490   33.2140   40.0640 O   0  0  0  0  0  0  0  0  0  0  0  0
   37.3720   33.5780   39.2520 H   0  0  0  0  0  0  0  0  0  0  0  0
   36.5710   28.2720   42.3850 C   0  0  1  0  0  0  0  0  0  0  0  0
   37.3570   29.6400   42.0540 C   0  0  1  0  0  0  0  0  0  0  0  0
   38.6020   29.2160   42.3380 O   0  0  0  0  0  0  0  0  0  0  0  0
   38.7010   28.1270   41.4280 C   0  0  0  0  0  0  0  0  0  0  0  0
   37.5500   27.2570   41.8740 C   0  0  1  0  0  0  0  0  0  0  0  0
   35.6020   28.3020   41.9250 H   0  0  0  0  0  0  0  0  0  0  0  0
   36.7680   30.3340   42.6480 H   0  0  0  0  0  0  0  0  0  0  0  0
   39.6460   27.5660   41.5790 H   0  0  0  0  0  0  0  0  0  0  0  0
   38.5510   28.4190   40.3930 H   0  0  0  0  0  0  0  0  0  0  0  0
   37.0810   26.7150   41.0270 H   0  0  0  0  0  0  0  0  0  0  0  0
   36.5850   28.2010   43.7850 O   0  0  0  0  0  0  0  0  0  0  0  0
   37.4830   28.5200   44.0450 H   0  0  0  0  0  0  0  0  0  0  0  0
   37.9930   26.4070   42.8690 O   0  0  0  0  0  0  0  0  0  0  0  0
   39.1440   24.4240   42.1040 C   0  0  2  0  0  3  0  0  0  0  0  0
   37.8420   25.0770   42.4940 C   0  0  2  0  0  3  0  0  0  0  0  0
   37.0070   24.9820   41.3820 O   0  0  0  0  0  0  0  0  0  0  0  0
   37.3350   23.8210   40.7260 C   0  0  0  0  0  2  0  0  0  0  0  0
   38.8240   23.6670   40.8540 C   0  0  1  0  0  3  0  0  0  0  0  0
   39.7070   23.6590   43.1120 O   0  0  0  0  0  0  0  0  0  0  0  0
   39.4740   22.6920   43.0440 H   0  0  0  0  0  0  0  0  0  0  0  0
   39.4700   24.2560   39.7530 O   0  0  0  0  0  0  0  0  0  0  0  0
   38.8290   24.5890   39.0990 H   0  0  0  0  0  0  0  0  0  0  0  0
  1 24  1  0  0  0  0
  2  7  1  1  0  0  0
  3  8  1  1  0  0  0
  3  2  1  0  0  0  0
  4  5  1  0  0  0  0
  4  3  1  0  0  0  0
  5  6  1  0  0  0  0
  6  2  1  0  0  0  0
  6  1  1  0  0  0  0
  6 11  1  1  0  0  0
  9  5  1  0  0  0  0
 10  5  1  0  0  0  0
 12 17  1  0  0  0  0
 13 12  2  0  0  0  0
 13 14  1  0  0  0  0
 14  3  1  0  0  0  0
 14 15  2  0  0  0  0
 15 16  1  0  0  0  0
 16 20  1  0  0  0  0
 17 16  2  0  0  0  0
 18 12  1  0  0  0  0
 19 13  1  0  0  0  0
 21  2  1  0  0  0  0
 22 21  1  0  0  0  0
 23 28  1  6  0  0  0
 23 33  1  0  0  0  0
 24 25  1  0  0  0  0
 24 23  1  0  0  0  0
 24 29  1  1  0  0  0
 26 30  1  0  0  0  0
 26 27  1  0  0  0  0
 26 25  1  0  0  0  0
 27 32  1  6  0  0  0
 27 23  1  0  0  0  0
 27 35  1  0  0  0  0
 31 26  1  0  0  0  0
 33 34  1  0  0  0  0
 36 37  1  0  0  0  0
 36 41  1  1  0  0  0
 37 35  1  6  0  0  0
 38 37  1  0  0  0  0
 39 40  1  0  0  0  0
 39 38  1  0  0  0  0
 40 43  1  6  0  0  0
 40 36  1  0  0  0  0
 42 41  1  0  0  0  0
 44 43  1  0  0  0  0
M  END
>  <minimizedAffinity>
-6.46150112

$$$$

 OpenBabel03242516363D

 44 47  0  0  1  0  0  0  0  0999 V2000
   38.4100   30.8840   40.6670 O   0  0  0  0  0  0  0  0  0  0  0  0
   37.2200   29.2600   41.9160 C   0  0  2  0  0  0  0  0  0  0  0  0
   38.2470   28.2540   41.3270 C   0  0  1  0  0  0  0  0  0  0  0  0
   39.2070   28.3360   42.2920 O   0  0  0  0  0  0  0  0  0  0  0  0
   39.4330   29.7210   42.4280 C   0  0  0  0  0  0  0  0  0  0  0  0
   38.1600   30.4440   41.9320 C   0  0  1  0  0  0  0  0  0  0  0  0
   36.3670   29.3690   41.2540 H   0  0  0  0  0  0  0  0  0  0  0  0
   38.5030   28.6890   40.3470 H   0  0  0  0  0  0  0  0  0  0  0  0
   40.2830   29.9860   41.7800 H   0  0  0  0  0  0  0  0  0  0  0  0
   39.6150   29.9420   43.4920 H   0  0  0  0  0  0  0  0  0  0  0  0
   37.8070   31.2180   42.6310 H   0  0  0  0  0  0  0  0  0  0  0  0
   36.5770   25.0510   40.1390 C   0  0  0  0  0  0  0  0  0  0  0  0
   37.0670   26.3550   40.0400 C   0  0  0  0  0  0  0  0  0  0  0  0
   37.6380   26.9280   41.1550 C   0  0  0  0  0  0  0  0  0  0  0  0
   37.6860   26.1680   42.3030 N   0  0  0  0  0  0  0  0  0  0  0  0
   37.2060   24.9130   42.3670 C   0  0  0  0  0  0  0  0  0  0  0  0
   36.6480   24.3560   41.2760 N   0  0  0  0  0  0  0  0  0  0  0  0
   36.1460   24.6800   39.2150 H   0  0  0  0  0  0  0  0  0  0  0  0
   37.0650   27.0100   39.1790 H   0  0  0  0  0  0  0  0  0  0  0  0
   37.2660   24.3510   43.2950 H   0  0  0  0  0  0  0  0  0  0  0  0
   36.9390   28.9610   43.2180 O   0  0  0  0  0  0  0  0  0  0  0  0
   37.3160   28.0710   43.4060 H   0  0  0  0  0  0  0  0  0  0  0  0
   39.0680   33.1430   40.8480 C   0  0  1  0  0  0  0  0  0  0  0  0
   37.8950   32.1470   40.3660 C   0  0  1  0  0  0  0  0  0  0  0  0
   37.9950   32.3650   39.0410 O   0  0  0  0  0  0  0  0  0  0  0  0
   39.3500   31.9840   38.8340 C   0  0  0  0  0  0  0  0  0  0  0  0
   40.0740   32.9390   39.7540 C   0  0  1  0  0  0  0  0  0  0  0  0
   39.3620   32.8840   41.8470 H   0  0  0  0  0  0  0  0  0  0  0  0
   37.0900   32.4910   41.0100 H   0  0  0  0  0  0  0  0  0  0  0  0
   39.6670   32.1910   37.7910 H   0  0  0  0  0  0  0  0  0  0  0  0
   39.5600   30.9630   39.1390 H   0  0  0  0  0  0  0  0  0  0  0  0
   40.9850   32.4850   40.1970 H   0  0  0  0  0  0  0  0  0  0  0  0
   38.5200   34.4220   40.6800 O   0  0  0  0  0  0  0  0  0  0  0  0
   38.0100   34.3700   39.8350 H   0  0  0  0  0  0  0  0  0  0  0  0
   40.3430   34.1050   39.0640 O   0  0  0  0  0  0  0  0  0  0  0  0
   42.3680   33.6790   37.8140 C   0  0  2  0  0  3  0  0  0  0  0  0
   41.7110   34.3420   38.9980 C   0  0  2  0  0  3  0  0  0  0  0  0
   42.3430   33.8360   40.1320 O   0  0  0  0  0  0  0  0  0  0  0  0
   43.6450   33.5690   39.7870 C   0  0  0  0  0  2  0  0  0  0  0  0
   43.6150   33.0670   38.3720 C   0  0  1  0  0  3  0  0  0  0  0  0
   42.5740   34.5300   36.7420 O   0  0  0  0  0  0  0  0  0  0  0  0
   43.4890   34.9250   36.7280 H   0  0  0  0  0  0  0  0  0  0  0  0
   43.5160   31.6650   38.3550 O   0  0  0  0  0  0  0  0  0  0  0  0
   43.5500   31.2930   39.2550 H   0  0  0  0  0  0  0  0  0  0  0  0
  1  6  1  0  0  0  0
  2  7  1  6  0  0  0
  2  6  1  0  0  0  0
  2 21  1  0  0  0  0
  3  8  1  6  0  0  0
  3  2  1  0  0  0  0
  3  4  1  0  0  0  0
  4  5  1  0  0  0  0
  5 10  1  0  0  0  0
  6  5  1  0  0  0  0
  6 11  1  1  0  0  0
  9  5  1  0  0  0  0
 12 17  1  0  0  0  0
 13 12  2  0  0  0  0
 13 14  1  0  0  0  0
 14  3  1  0  0  0  0
 14 15  2  0  0  0  0
 15 16  1  0  0  0  0
 16 20  1  0  0  0  0
 17 16  2  0  0  0  0
 18 12  1  0  0  0  0
 19 13  1  0  0  0  0
 21 22  1  0  0  0  0
 23 28  1  1  0  0  0
 24  1  1  0  0  0  0
 24 23  1  0  0  0  0
 24 29  1  1  0  0  0
 25 24  1  0  0  0  0
 26 25  1  0  0  0  0
 26 31  1  0  0  0  0
 26 27  1  0  0  0  0
 27 32  1  1  0  0  0
 27 23  1  0  0  0  0
 30 26  1  0  0  0  0
 33 23  1  0  0  0  0
 34 33  1  0  0  0  0
 35 27  1  0  0  0  0
 36 41  1  6  0  0  0
 36 40  1  0  0  0  0
 36 37  1  0  0  0  0
 37 35  1  1  0  0  0
 37 38  1  0  0  0  0
 39 38  1  0  0  0  0
 40 43  1  1  0  0  0
 40 39  1  0  0  0  0
 42 41  1  0  0  0  0
 43 44  1  0  0  0  0
M  END
>  <minimizedAffinity>
-6.4443655

$$$$

 OpenBabel03242516363D

 44 47  0  0  1  0  0  0  0  0999 V2000
   37.0350   27.8810   40.8440 O   0  0  0  0  0  0  0  0  0  0  0  0
   38.2480   26.0280   41.6830 C   0  0  2  0  0  0  0  0  0  0  0  0
   39.0040   27.0830   42.5370 C   0  0  1  0  0  0  0  0  0  0  0  0
   38.1960   27.0890   43.6350 O   0  0  0  0  0  0  0  0  0  0  0  0
   36.9030   27.2690   43.1040 C   0  0  0  0  0  0  0  0  0  0  0  0
   36.9370   26.7780   41.6390 C   0  0  1  0  0  0  0  0  0  0  0  0
   38.7280   25.9000   40.7180 H   0  0  0  0  0  0  0  0  0  0  0  0
   38.9800   27.9900   41.9090 H   0  0  0  0  0  0  0  0  0  0  0  0
   36.6780   28.3470   43.1260 H   0  0  0  0  0  0  0  0  0  0  0  0
   36.1950   26.6680   43.6980 H   0  0  0  0  0  0  0  0  0  0  0  0
   36.1040   26.1030   41.3930 H   0  0  0  0  0  0  0  0  0  0  0  0
   42.4940   26.3460   43.8530 C   0  0  0  0  0  0  0  0  0  0  0  0
   41.2040   26.8830   43.8670 C   0  0  0  0  0  0  0  0  0  0  0  0
   40.3910   26.6630   42.7770 C   0  0  0  0  0  0  0  0  0  0  0  0
   40.9100   25.9230   41.7380 N   0  0  0  0  0  0  0  0  0  0  0  0
   42.1570   25.4180   41.7550 C   0  0  0  0  0  0  0  0  0  0  0  0
   42.9500   25.6340   42.8210 N   0  0  0  0  0  0  0  0  0  0  0  0
   43.0630   26.5680   44.7500 H   0  0  0  0  0  0  0  0  0  0  0  0
   40.7300   27.4710   44.6410 H   0  0  0  0  0  0  0  0  0  0  0  0
   42.5230   24.8390   40.9120 H   0  0  0  0  0  0  0  0  0  0  0  0
   38.0270   24.8890   42.4030 O   0  0  0  0  0  0  0  0  0  0  0  0
   38.5650   24.9490   43.2250 H   0  0  0  0  0  0  0  0  0  0  0  0
   36.8020   30.2200   41.0450 C   0  0  1  0  0  0  0  0  0  0  0  0
   36.0100   28.8170   40.9990 C   0  0  1  0  0  0  0  0  0  0  0  0
   35.3840   28.9930   39.8200 O   0  0  0  0  0  0  0  0  0  0  0  0
   36.5110   29.1750   38.9720 C   0  0  0  0  0  0  0  0  0  0  0  0
   37.1660   30.3830   39.5990 C   0  0  1  0  0  0  0  0  0  0  0  0
   37.6050   30.1490   41.7540 H   0  0  0  0  0  0  0  0  0  0  0  0
   35.5420   28.8420   41.9800 H   0  0  0  0  0  0  0  0  0  0  0  0
   36.1950   29.4410   37.9420 H   0  0  0  0  0  0  0  0  0  0  0  0
   37.2030   28.3390   38.9930 H   0  0  0  0  0  0  0  0  0  0  0  0
   38.2720   30.3530   39.5120 H   0  0  0  0  0  0  0  0  0  0  0  0
   35.8070   31.1650   41.3350 O   0  0  0  0  0  0  0  0  0  0  0  0
   35.0210   30.8730   40.8120 H   0  0  0  0  0  0  0  0  0  0  0  0
   36.6210   31.5250   39.0450 O   0  0  0  0  0  0  0  0  0  0  0  0
   38.8660   31.9590   38.2590 C   0  0  2  0  0  3  0  0  0  0  0  0
   37.5920   32.5020   38.8560 C   0  0  2  0  0  3  0  0  0  0  0  0
   37.9430   33.0740   40.0770 O   0  0  0  0  0  0  0  0  0  0  0  0
   39.2200   33.5620   39.9450 C   0  0  0  0  0  2  0  0  0  0  0  0
   39.9550   32.5920   39.0660 C   0  0  1  0  0  3  0  0  0  0  0  0
   38.9700   32.1590   36.8930 O   0  0  0  0  0  0  0  0  0  0  0  0
   39.4870   32.9780   36.6570 H   0  0  0  0  0  0  0  0  0  0  0  0
   40.6040   31.6210   39.8490 O   0  0  0  0  0  0  0  0  0  0  0  0
   40.5020   31.8030   40.8000 H   0  0  0  0  0  0  0  0  0  0  0  0
  1 24  1  0  0  0  0
  1  6  1  0  0  0  0
  2  7  1  6  0  0  0
  2 21  1  0  0  0  0
  2  3  1  0  0  0  0
  3  8  1  6  0  0  0
  3 14  1  0  0  0  0
  3  4  1  0  0  0  0
  5  9  1  0  0  0  0
  5  4  1  0  0  0  0
  5 10  1  0  0  0  0
  6 11  1  6  0  0  0
  6  2  1  0  0  0  0
  6  5  1  0  0  0  0
 12 13  1  0  0  0  0
 12 18  1  0  0  0  0
 13 19  1  0  0  0  0
 14 13  2  0  0  0  0
 15 16  2  0  0  0  0
 15 14  1  0  0  0  0
 16 17  1  0  0  0  0
 17 12  2  0  0  0  0
 20 16  1  0  0  0  0
 21 22  1  0  0  0  0
 23 33  1  0  0  0  0
 23 28  1  1  0  0  0
 24 23  1  0  0  0  0
 24 29  1  1  0  0  0
 25 24  1  0  0  0  0
 26 31  1  0  0  0  0
 26 27  1  0  0  0  0
 26 25  1  0  0  0  0
 27 32  1  6  0  0  0
 27 23  1  0  0  0  0
 30 26  1  0  0  0  0
 34 33  1  0  0  0  0
 35 27  1  0  0  0  0
 36 41  1  6  0  0  0
 36 37  1  0  0  0  0
 36 40  1  0  0  0  0
 37 35  1  1  0  0  0
 37 38  1  0  0  0  0
 39 38  1  0  0  0  0
 40 43  1  1  0  0  0
 40 39  1  0  0  0  0
 42 41  1  0  0  0  0
 43 44  1  0  0  0  0
M  END
>  <minimizedAffinity>
-6.22349501

$$$$

 OpenBabel03242516363D

 44 47  0  0  1  0  0  0  0  0999 V2000
   37.4380   28.1500   41.3940 O   0  0  0  0  0  0  0  0  0  0  0  0
   37.1200   25.8030   41.4180 C   0  0  2  0  0  0  0  0  0  0  0  0
   38.5370   25.7420   40.7840 C   0  0  1  0  0  0  0  0  0  0  0  0
   39.2810   25.6820   41.9250 O   0  0  0  0  0  0  0  0  0  0  0  0
   38.7980   26.7560   42.7010 C   0  0  0  0  0  0  0  0  0  0  0  0
   37.3640   27.0640   42.2140 C   0  0  1  0  0  0  0  0  0  0  0  0
   36.3590   25.8940   40.6490 H   0  0  0  0  0  0  0  0  0  0  0  0
   38.6040   26.6800   40.2070 H   0  0  0  0  0  0  0  0  0  0  0  0
   39.4470   27.6250   42.5090 H   0  0  0  0  0  0  0  0  0  0  0  0
   38.7910   26.4470   43.7580 H   0  0  0  0  0  0  0  0  0  0  0  0
   36.6410   27.1550   43.0400 H   0  0  0  0  0  0  0  0  0  0  0  0
   39.6170   22.9160   38.4790 C   0  0  0  0  0  0  0  0  0  0  0  0
   39.7720   24.0580   39.2700 C   0  0  0  0  0  0  0  0  0  0  0  0
   38.6590   24.5820   39.8900 C   0  0  0  0  0  0  0  0  0  0  0  0
   37.4590   23.9380   39.6870 N   0  0  0  0  0  0  0  0  0  0  0  0
   37.3410   22.8390   38.9210 C   0  0  0  0  0  0  0  0  0  0  0  0
   38.4300   22.3290   38.3150 N   0  0  0  0  0  0  0  0  0  0  0  0
   40.5430   22.5740   38.0300 H   0  0  0  0  0  0  0  0  0  0  0  0
   40.6760   24.6150   39.4750 H   0  0  0  0  0  0  0  0  0  0  0  0
   36.3730   22.3640   38.7900 H   0  0  0  0  0  0  0  0  0  0  0  0
   36.9480   24.7930   42.3210 O   0  0  0  0  0  0  0  0  0  0  0  0
   37.6990   24.1650   42.2090 H   0  0  0  0  0  0  0  0  0  0  0  0
   36.7450   30.4030   41.2970 C   0  0  1  0  0  0  0  0  0  0  0  0
   36.2490   28.8700   41.2550 C   0  0  1  0  0  0  0  0  0  0  0  0
   35.8550   28.8360   39.9690 O   0  0  0  0  0  0  0  0  0  0  0  0
   37.0780   29.1810   39.3300 C   0  0  0  0  0  0  0  0  0  0  0  0
   37.3600   30.5360   39.9360 C   0  0  1  0  0  0  0  0  0  0  0  0
   37.3870   30.5440   42.1470 H   0  0  0  0  0  0  0  0  0  0  0  0
   35.5960   28.8690   42.1230 H   0  0  0  0  0  0  0  0  0  0  0  0
   36.9360   29.3060   38.2370 H   0  0  0  0  0  0  0  0  0  0  0  0
   37.8930   28.5040   39.5690 H   0  0  0  0  0  0  0  0  0  0  0  0
   38.4470   30.7220   40.0590 H   0  0  0  0  0  0  0  0  0  0  0  0
   35.5570   31.1470   41.2950 O   0  0  0  0  0  0  0  0  0  0  0  0
   34.9610   30.6680   40.6690 H   0  0  0  0  0  0  0  0  0  0  0  0
   36.7390   31.5040   39.1710 O   0  0  0  0  0  0  0  0  0  0  0  0
   39.0160   32.3090   39.0500 C   0  0  2  0  0  3  0  0  0  0  0  0
   37.5430   32.6310   39.0430 C   0  0  2  0  0  3  0  0  0  0  0  0
   37.3260   33.5010   40.1090 O   0  0  0  0  0  0  0  0  0  0  0  0
   38.4670   34.2500   40.2620 C   0  0  0  0  0  2  0  0  0  0  0  0
   39.6190   33.3340   39.9570 C   0  0  1  0  0  3  0  0  0  0  0  0
   39.5800   32.2550   37.7870 O   0  0  0  0  0  0  0  0  0  0  0  0
   40.0110   33.1110   37.5150 H   0  0  0  0  0  0  0  0  0  0  0  0
   40.0810   32.7250   41.1370 O   0  0  0  0  0  0  0  0  0  0  0  0
   39.6100   33.0610   41.9210 H   0  0  0  0  0  0  0  0  0  0  0  0
  1  6  1  0  0  0  0
  2  7  1  6  0  0  0
  2  6  1  0  0  0  0
  2 21  1  0  0  0  0
  3  8  1  6  0  0  0
  3  2  1  0  0  0  0
  3  4  1  0  0  0  0
  4  5  1  0  0  0  0
  5 10  1  0  0  0  0
  6  5  1  0  0  0  0
  6 11  1  1  0  0  0
  9  5  1  0  0  0  0
 12 13  1  0  0  0  0
 13 19  1  0  0  0  0
 13 14  2  0  0  0  0
 14  3  1  0  0  0  0
 15 14  1  0  0  0  0
 16 15  2  0  0  0  0
 17 12  2  0  0  0  0
 17 16  1  0  0  0  0
 18 12  1  0  0  0  0
 20 16  1  0  0  0  0
 22 21  1  0  0  0  0
 23 28  1  1  0  0  0
 24 23  1  0  0  0  0
 24  1  1  0  0  0  0
 24 29  1  1  0  0  0
 25 24  1  0  0  0  0
 26 31  1  0  0  0  0
 26 27  1  0  0  0  0
 26 25  1  0  0  0  0
 27 32  1  1  0  0  0
 27 23  1  0  0  0  0
 30 26  1  0  0  0  0
 33 23  1  0  0  0  0
 34 33  1  0  0  0  0
 35 27  1  0  0  0  0
 36 41  1  6  0  0  0
 36 40  1  0  0  0  0
 37 36  1  0  0  0  0
 37 35  1  1  0  0  0
 37 38  1  0  0  0  0
 38 39  1  0  0  0  0
 40 39  1  0  0  0  0
 40 43  1  1  0  0  0
 42 41  1  0  0  0  0
 43 44  1  0  0  0  0
M  END
>  <minimizedAffinity>
-5.99061108

$$$$

 OpenBabel03242516363D

 44 47  0  0  1  0  0  0  0  0999 V2000
   40.2720   32.7630   39.5020 O   0  0  0  0  0  0  0  0  0  0  0  0
   42.5800   32.3820   39.1220 C   0  0  2  0  0  0  0  0  0  0  0  0
   42.2000   32.4270   37.6170 C   0  0  1  0  0  0  0  0  0  0  0  0
   42.3540   33.7640   37.3960 O   0  0  0  0  0  0  0  0  0  0  0  0
   41.6050   34.3660   38.4270 C   0  0  0  0  0  0  0  0  0  0  0  0
   41.5040   33.3410   39.5790 C   0  0  1  0  0  0  0  0  0  0  0  0
   42.4810   31.3740   39.5130 H   0  0  0  0  0  0  0  0  0  0  0  0
   41.1650   32.0460   37.5990 H   0  0  0  0  0  0  0  0  0  0  0  0
   40.5990   34.5760   38.0310 H   0  0  0  0  0  0  0  0  0  0  0  0
   42.1360   35.2730   38.7600 H   0  0  0  0  0  0  0  0  0  0  0  0
   41.7520   33.7730   40.5610 H   0  0  0  0  0  0  0  0  0  0  0  0
   43.8190   29.7660   35.4360 C   0  0  0  0  0  0  0  0  0  0  0  0
   42.7870   30.4030   36.1300 C   0  0  0  0  0  0  0  0  0  0  0  0
   43.0800   31.5520   36.8310 C   0  0  0  0  0  0  0  0  0  0  0  0
   44.3830   31.9980   36.7990 N   0  0  0  0  0  0  0  0  0  0  0  0
   45.3550   31.3630   36.1210 C   0  0  0  0  0  0  0  0  0  0  0  0
   45.0660   30.2400   35.4370 N   0  0  0  0  0  0  0  0  0  0  0  0
   43.4990   28.8710   34.9130 H   0  0  0  0  0  0  0  0  0  0  0  0
   41.7480   30.1150   36.2010 H   0  0  0  0  0  0  0  0  0  0  0  0
   46.3690   31.7530   36.1240 H   0  0  0  0  0  0  0  0  0  0  0  0
   43.7780   33.0000   39.3400 O   0  0  0  0  0  0  0  0  0  0  0  0
   44.1940   33.1570   38.4620 H   0  0  0  0  0  0  0  0  0  0  0  0
   37.9160   32.8530   39.4180 C   0  0  1  0  0  0  0  0  0  0  0  0
   39.2360   33.4950   40.0850 C   0  0  1  0  0  0  0  0  0  0  0  0
   39.0390   33.0630   41.3450 O   0  0  0  0  0  0  0  0  0  0  0  0
   38.9960   31.6600   41.1170 C   0  0  0  0  0  0  0  0  0  0  0  0
   37.8380   31.5480   40.1530 C   0  0  1  0  0  0  0  0  0  0  0  0
   38.0420   32.8160   38.3530 H   0  0  0  0  0  0  0  0  0  0  0  0
   39.1330   34.5200   39.7380 H   0  0  0  0  0  0  0  0  0  0  0  0
   38.7360   31.1130   42.0460 H   0  0  0  0  0  0  0  0  0  0  0  0
   39.8950   31.2750   40.6450 H   0  0  0  0  0  0  0  0  0  0  0  0
   37.9800   30.7260   39.4210 H   0  0  0  0  0  0  0  0  0  0  0  0
   36.8700   33.6610   39.8860 O   0  0  0  0  0  0  0  0  0  0  0  0
   37.1010   33.8540   40.8270 H   0  0  0  0  0  0  0  0  0  0  0  0
   36.6680   31.4210   40.8760 O   0  0  0  0  0  0  0  0  0  0  0  0
   36.6610   29.0130   41.0890 C   0  0  2  0  0  3  0  0  0  0  0  0
   35.9980   30.2510   40.5390 C   0  0  2  0  0  3  0  0  0  0  0  0
   35.9630   30.0960   39.1550 O   0  0  0  0  0  0  0  0  0  0  0  0
   35.8400   28.7520   38.8990 C   0  0  0  0  0  2  0  0  0  0  0  0
   36.6500   28.0450   39.9480 C   0  0  1  0  0  3  0  0  0  0  0  0
   36.0780   28.5390   42.2520 O   0  0  0  0  0  0  0  0  0  0  0  0
   35.4090   27.8190   42.0870 H   0  0  0  0  0  0  0  0  0  0  0  0
   37.9600   27.8260   39.4860 O   0  0  0  0  0  0  0  0  0  0  0  0
   38.0660   28.1170   38.5620 H   0  0  0  0  0  0  0  0  0  0  0  0
  1  6  1  0  0  0  0
  1 24  1  0  0  0  0
  2 21  1  0  0  0  0
  2  7  1  1  0  0  0
  2  6  1  0  0  0  0
  3  8  1  6  0  0  0
  3  2  1  0  0  0  0
  4  3  1  0  0  0  0
  4  5  1  0  0  0  0
  5 10  1  0  0  0  0
  5  6  1  0  0  0  0
  6 11  1  1  0  0  0
  9  5  1  0  0  0  0
 12 17  2  0  0  0  0
 12 13  1  0  0  0  0
 13 19  1  0  0  0  0
 13 14  2  0  0  0  0
 14  3  1  0  0  0  0
 15 14  1  0  0  0  0
 16 20  1  0  0  0  0
 16 15  2  0  0  0  0
 17 16  1  0  0  0  0
 18 12  1  0  0  0  0
 22 21  1  0  0  0  0
 23 28  1  6  0  0  0
 23 33  1  0  0  0  0
 23 24  1  0  0  0  0
 23 27  1  0  0  0  0
 24 29  1  6  0  0  0
 24 25  1  0  0  0  0
 26 25  1  0  0  0  0
 26 30  1  0  0  0  0
 27 32  1  6  0  0  0
 27 35  1  0  0  0  0
 27 26  1  0  0  0  0
 31 26  1  0  0  0  0
 33 34  1  0  0  0  0
 36 41  1  1  0  0  0
 37 35  1  6  0  0  0
 37 36  1  0  0  0  0
 38 37  1  0  0  0  0
 39 38  1  0  0  0  0
 39 40  1  0  0  0  0
 40 43  1  6  0  0  0
 40 36  1  0  0  0  0
 42 41  1  0  0  0  0
 44 43  1  0  0  0  0
M  END
>  <minimizedAffinity>
-5.90670824

$$$$

 OpenBabel03242516363D

 44 47  0  0  1  0  0  0  0  0999 V2000
   38.3150   30.8960   40.7510 O   0  0  0  0  0  0  0  0  0  0  0  0
   36.2240   29.7830   40.7190 C   0  0  2  0  0  0  0  0  0  0  0  0
   36.9180   28.7940   39.7440 C   0  0  1  0  0  0  0  0  0  0  0  0
   37.4110   27.9050   40.6540 O   0  0  0  0  0  0  0  0  0  0  0  0
   38.0890   28.7160   41.5870 C   0  0  0  0  0  0  0  0  0  0  0  0
   37.4710   30.1300   41.4990 C   0  0  1  0  0  0  0  0  0  0  0  0
   35.7850   30.6140   40.1750 H   0  0  0  0  0  0  0  0  0  0  0  0
   37.6620   29.4210   39.2240 H   0  0  0  0  0  0  0  0  0  0  0  0
   39.1480   28.7570   41.2870 H   0  0  0  0  0  0  0  0  0  0  0  0
   37.9410   28.2900   42.5920 H   0  0  0  0  0  0  0  0  0  0  0  0
   37.2170   30.5490   42.4840 H   0  0  0  0  0  0  0  0  0  0  0  0
   34.8520   26.7170   37.3200 C   0  0  0  0  0  0  0  0  0  0  0  0
   35.9070   27.0000   38.1910 C   0  0  0  0  0  0  0  0  0  0  0  0
   35.9530   28.2430   38.7840 C   0  0  0  0  0  0  0  0  0  0  0  0
   34.9460   29.1300   38.4730 N   0  0  0  0  0  0  0  0  0  0  0  0
   33.9420   28.8280   37.6310 C   0  0  0  0  0  0  0  0  0  0  0  0
   33.8990   27.6130   37.0530 N   0  0  0  0  0  0  0  0  0  0  0  0
   34.8950   25.7180   36.9000 H   0  0  0  0  0  0  0  0  0  0  0  0
   36.7280   26.3590   38.4820 H   0  0  0  0  0  0  0  0  0  0  0  0
   33.1690   29.5600   37.4160 H   0  0  0  0  0  0  0  0  0  0  0  0
   35.3950   29.1180   41.5770 O   0  0  0  0  0  0  0  0  0  0  0  0
   35.3000   28.1970   41.2430 H   0  0  0  0  0  0  0  0  0  0  0  0
   39.2750   33.0320   41.0300 C   0  0  1  0  0  0  0  0  0  0  0  0
   37.9380   32.2340   40.6140 C   0  0  1  0  0  0  0  0  0  0  0  0
   37.9210   32.5610   39.3090 O   0  0  0  0  0  0  0  0  0  0  0  0
   39.1840   32.0430   38.9120 C   0  0  0  0  0  0  0  0  0  0  0  0
   40.1220   32.8130   39.8110 C   0  0  1  0  0  0  0  0  0  0  0  0
   39.6410   32.6480   41.9630 H   0  0  0  0  0  0  0  0  0  0  0  0
   37.2600   32.6100   41.3760 H   0  0  0  0  0  0  0  0  0  0  0  0
   39.4100   32.3060   37.8580 H   0  0  0  0  0  0  0  0  0  0  0  0
   39.2920   30.9800   39.1070 H   0  0  0  0  0  0  0  0  0  0  0  0
   41.0090   32.2140   40.1040 H   0  0  0  0  0  0  0  0  0  0  0  0
   38.8830   34.3780   41.0310 O   0  0  0  0  0  0  0  0  0  0  0  0
   38.2820   34.4670   40.2510 H   0  0  0  0  0  0  0  0  0  0  0  0
   40.4630   33.9980   39.1890 O   0  0  0  0  0  0  0  0  0  0  0  0
   42.3070   33.5560   37.6890 C   0  0  2  0  0  3  0  0  0  0  0  0
   41.8390   34.0950   39.0170 C   0  0  2  0  0  3  0  0  0  0  0  0
   42.4990   33.3540   39.9960 O   0  0  0  0  0  0  0  0  0  0  0  0
   43.7250   33.0060   39.4850 C   0  0  0  0  0  2  0  0  0  0  0  0
   43.5130   32.7360   38.0220 C   0  0  1  0  0  3  0  0  0  0  0  0
   42.5230   34.5360   36.7350 O   0  0  0  0  0  0  0  0  0  0  0  0
   43.4740   34.8280   36.6840 H   0  0  0  0  0  0  0  0  0  0  0  0
   43.2440   31.3720   37.8140 O   0  0  0  0  0  0  0  0  0  0  0  0
   43.3090   30.8640   38.6420 H   0  0  0  0  0  0  0  0  0  0  0  0
  1  6  1  0  0  0  0
  2  7  1  6  0  0  0
  2  6  1  0  0  0  0
  2 21  1  0  0  0  0
  3  8  1  6  0  0  0
  3  4  1  0  0  0  0
  3  2  1  0  0  0  0
  4  5  1  0  0  0  0
  5 10  1  0  0  0  0
  6  5  1  0  0  0  0
  6 11  1  1  0  0  0
  9  5  1  0  0  0  0
 12 13  1  0  0  0  0
 13 19  1  0  0  0  0
 13 14  2  0  0  0  0
 14  3  1  0  0  0  0
 15 14  1  0  0  0  0
 16 15  2  0  0  0  0
 17 12  2  0  0  0  0
 17 16  1  0  0  0  0
 18 12  1  0  0  0  0
 20 16  1  0  0  0  0
 22 21  1  0  0  0  0
 23 33  1  0  0  0  0
 23 28  1  1  0  0  0
 24  1  1  0  0  0  0
 24 23  1  0  0  0  0
 24 29  1  1  0  0  0
 25 24  1  0  0  0  0
 26 31  1  0  0  0  0
 26 25  1  0  0  0  0
 26 27  1  0  0  0  0
 27 32  1  1  0  0  0
 27 23  1  0  0  0  0
 30 26  1  0  0  0  0
 34 33  1  0  0  0  0
 35 27  1  0  0  0  0
 36 41  1  6  0  0  0
 36 40  1  0  0  0  0
 36 37  1  0  0  0  0
 37 35  1  1  0  0  0
 37 38  1  0  0  0  0
 39 38  1  0  0  0  0
 40 43  1  1  0  0  0
 40 39  1  0  0  0  0
 42 41  1  0  0  0  0
 43 44  1  0  0  0  0
M  END
>  <minimizedAffinity>
-5.88084412

$$$$

 OpenBabel03242516363D

 44 47  0  0  1  0  0  0  0  0999 V2000
   37.7200   26.5920   41.7510 O   0  0  0  0  0  0  0  0  0  0  0  0
   38.2860   24.4040   41.0410 C   0  0  2  0  0  0  0  0  0  0  0  0
   39.6590   25.0270   40.6670 C   0  0  1  0  0  0  0  0  0  0  0  0
   40.3090   24.8430   41.8510 O   0  0  0  0  0  0  0  0  0  0  0  0
   39.4240   25.3760   42.8100 C   0  0  0  0  0  0  0  0  0  0  0  0
   38.0060   25.3360   42.1970 C   0  0  1  0  0  0  0  0  0  0  0  0
   37.5880   24.4870   40.2140 H   0  0  0  0  0  0  0  0  0  0  0  0
   39.4080   26.0690   40.4050 H   0  0  0  0  0  0  0  0  0  0  0  0
   39.7170   26.4220   42.9910 H   0  0  0  0  0  0  0  0  0  0  0  0
   39.4730   24.7510   43.7160 H   0  0  0  0  0  0  0  0  0  0  0  0
   37.2560   24.9050   42.8780 H   0  0  0  0  0  0  0  0  0  0  0  0
   41.8400   23.6080   37.8930 C   0  0  0  0  0  0  0  0  0  0  0  0
   41.5280   24.3940   39.0060 C   0  0  0  0  0  0  0  0  0  0  0  0
   40.2470   24.3380   39.5100 C   0  0  0  0  0  0  0  0  0  0  0  0
   39.3540   23.5020   38.8780 N   0  0  0  0  0  0  0  0  0  0  0  0
   39.6840   22.7560   37.8090 C   0  0  0  0  0  0  0  0  0  0  0  0
   40.9360   22.8130   37.3170 N   0  0  0  0  0  0  0  0  0  0  0  0
   42.8670   23.7150   37.5640 H   0  0  0  0  0  0  0  0  0  0  0  0
   42.1710   25.0700   39.5520 H   0  0  0  0  0  0  0  0  0  0  0  0
   38.9450   22.1100   37.3430 H   0  0  0  0  0  0  0  0  0  0  0  0
   38.4480   23.1560   41.5710 O   0  0  0  0  0  0  0  0  0  0  0  0
   39.3810   22.8850   41.4120 H   0  0  0  0  0  0  0  0  0  0  0  0
   38.3360   28.7280   42.5400 C   0  0  1  0  0  0  0  0  0  0  0  0
   37.3170   27.4950   42.7380 C   0  0  1  0  0  0  0  0  0  0  0  0
   36.1910   28.1150   42.3410 O   0  0  0  0  0  0  0  0  0  0  0  0
   36.5710   28.4900   41.0220 C   0  0  0  0  0  0  0  0  0  0  0  0
   37.7820   29.3510   41.2930 C   0  0  1  0  0  0  0  0  0  0  0  0
   39.3410   28.3540   42.5030 H   0  0  0  0  0  0  0  0  0  0  0  0
   37.5670   27.2160   43.7580 H   0  0  0  0  0  0  0  0  0  0  0  0
   35.7910   29.1180   40.5460 H   0  0  0  0  0  0  0  0  0  0  0  0
   36.8610   27.6450   40.4040 H   0  0  0  0  0  0  0  0  0  0  0  0
   38.5450   29.2650   40.4910 H   0  0  0  0  0  0  0  0  0  0  0  0
   38.0390   29.5900   43.6060 O   0  0  0  0  0  0  0  0  0  0  0  0
   37.0550   29.5590   43.6890 H   0  0  0  0  0  0  0  0  0  0  0  0
   37.3680   30.6530   41.4950 O   0  0  0  0  0  0  0  0  0  0  0  0
   39.1140   32.2670   41.0590 C   0  0  2  0  0  3  0  0  0  0  0  0
   37.9180   31.5060   40.5450 C   0  0  2  0  0  3  0  0  0  0  0  0
   36.9820   32.4610   40.1550 O   0  0  0  0  0  0  0  0  0  0  0  0
   37.6800   33.5570   39.7110 C   0  0  0  0  0  2  0  0  0  0  0  0
   38.8950   33.6700   40.5880 C   0  0  1  0  0  3  0  0  0  0  0  0
   40.3280   31.7170   40.6850 O   0  0  0  0  0  0  0  0  0  0  0  0
   40.7100   32.1360   39.8660 H   0  0  0  0  0  0  0  0  0  0  0  0
   38.6290   34.5130   41.6810 O   0  0  0  0  0  0  0  0  0  0  0  0
   37.7380   34.9040   41.6230 H   0  0  0  0  0  0  0  0  0  0  0  0
  1  6  1  0  0  0  0
  1 24  1  0  0  0  0
  2  7  1  6  0  0  0
  2 21  1  0  0  0  0
  2  6  1  0  0  0  0
  3  8  1  6  0  0  0
  3  2  1  0  0  0  0
  3  4  1  0  0  0  0
  4  5  1  0  0  0  0
  5  9  1  0  0  0  0
  5 10  1  0  0  0  0
  6  5  1  0  0  0  0
  6 11  1  1  0  0  0
 12 13  1  0  0  0  0
 13 14  2  0  0  0  0
 13 19  1  0  0  0  0
 14  3  1  0  0  0  0
 15 14  1  0  0  0  0
 16 15  2  0  0  0  0
 17 16  1  0  0  0  0
 17 12  2  0  0  0  0
 18 12  1  0  0  0  0
 20 16  1  0  0  0  0
 22 21  1  0  0  0  0
 23 28  1  6  0  0  0
 23 24  1  0  0  0  0
 23 33  1  0  0  0  0
 24 29  1  1  0  0  0
 25 24  1  0  0  0  0
 26 27  1  0  0  0  0
 26 25  1  0  0  0  0
 27 32  1  6  0  0  0
 27 35  1  0  0  0  0
 27 23  1  0  0  0  0
 30 26  1  0  0  0  0
 31 26  1  0  0  0  0
 33 34  1  0  0  0  0
 36 41  1  6  0  0  0
 37 36  1  0  0  0  0
 37 35  1  1  0  0  0
 38 37  1  0  0  0  0
 39 38  1  0  0  0  0
 39 40  1  0  0  0  0
 40 36  1  0  0  0  0
 40 43  1  1  0  0  0
 42 41  1  0  0  0  0
 44 43  1  0  0  0  0
M  END
>  <minimizedAffinity>
-5.79388094

$$$$

 OpenBabel03242516363D

 44 47  0  0  1  0  0  0  0  0999 V2000
   38.3160   26.8510   41.2670 O   0  0  0  0  0  0  0  0  0  0  0  0
   37.5500   24.6180   41.4610 C   0  0  2  0  0  0  0  0  0  0  0  0
   37.8070   24.5410   39.9310 C   0  0  1  0  0  0  0  0  0  0  0  0
   39.1060   24.1290   39.9510 O   0  0  0  0  0  0  0  0  0  0  0  0
   39.7370   25.0400   40.8220 C   0  0  0  0  0  0  0  0  0  0  0  0
   38.6450   25.6200   41.7490 C   0  0  1  0  0  0  0  0  0  0  0  0
   36.5460   24.9750   41.6640 H   0  0  0  0  0  0  0  0  0  0  0  0
   37.6280   25.5740   39.5860 H   0  0  0  0  0  0  0  0  0  0  0  0
   40.1660   25.8480   40.2080 H   0  0  0  0  0  0  0  0  0  0  0  0
   40.4940   24.4950   41.4080 H   0  0  0  0  0  0  0  0  0  0  0  0
   38.9290   25.5990   42.8120 H   0  0  0  0  0  0  0  0  0  0  0  0
   35.9820   21.9440   37.8370 C   0  0  0  0  0  0  0  0  0  0  0  0
   37.0560   22.7390   38.2460 C   0  0  0  0  0  0  0  0  0  0  0  0
   36.8620   23.6170   39.2890 C   0  0  0  0  0  0  0  0  0  0  0  0
   35.6110   23.6520   39.8640 N   0  0  0  0  0  0  0  0  0  0  0  0
   34.5960   22.8720   39.4490 C   0  0  0  0  0  0  0  0  0  0  0  0
   34.7880   22.0150   38.4290 N   0  0  0  0  0  0  0  0  0  0  0  0
   36.2230   21.2830   37.0120 H   0  0  0  0  0  0  0  0  0  0  0  0
   38.0600   22.7670   37.8460 H   0  0  0  0  0  0  0  0  0  0  0  0
   33.6250   22.9340   39.9340 H   0  0  0  0  0  0  0  0  0  0  0  0
   37.9120   23.4520   42.0730 O   0  0  0  0  0  0  0  0  0  0  0  0
   38.0720   22.7840   41.3670 H   0  0  0  0  0  0  0  0  0  0  0  0
   38.6440   28.7580   42.6180 C   0  0  1  0  0  0  0  0  0  0  0  0
   37.5740   27.6510   42.1400 C   0  0  1  0  0  0  0  0  0  0  0  0
   36.7700   28.4620   41.4270 O   0  0  0  0  0  0  0  0  0  0  0  0
   37.7080   28.9660   40.4840 C   0  0  0  0  0  0  0  0  0  0  0  0
   38.7260   29.6160   41.3910 C   0  0  1  0  0  0  0  0  0  0  0  0
   39.5420   28.2650   42.9390 H   0  0  0  0  0  0  0  0  0  0  0  0
   37.3380   27.2020   43.1010 H   0  0  0  0  0  0  0  0  0  0  0  0
   37.2500   29.7510   39.8470 H   0  0  0  0  0  0  0  0  0  0  0  0
   38.1910   28.1870   39.9010 H   0  0  0  0  0  0  0  0  0  0  0  0
   39.7560   29.5460   40.9830 H   0  0  0  0  0  0  0  0  0  0  0  0
   37.9610   29.4920   43.5980 O   0  0  0  0  0  0  0  0  0  0  0  0
   37.0390   29.5780   43.2520 H   0  0  0  0  0  0  0  0  0  0  0  0
   38.3380   30.9190   41.6340 O   0  0  0  0  0  0  0  0  0  0  0  0
   38.9880   33.0370   40.6650 C   0  0  2  0  0  3  0  0  0  0  0  0
   39.3930   31.8010   41.4290 C   0  0  2  0  0  3  0  0  0  0  0  0
   40.3950   31.1870   40.6810 O   0  0  0  0  0  0  0  0  0  0  0  0
   41.0890   32.1820   40.0360 C   0  0  0  0  0  2  0  0  0  0  0  0
   40.0780   33.2270   39.6570 C   0  0  1  0  0  3  0  0  0  0  0  0
   38.7510   34.1370   41.4710 O   0  0  0  0  0  0  0  0  0  0  0  0
   39.5420   34.7360   41.5560 H   0  0  0  0  0  0  0  0  0  0  0  0
   39.5880   32.9820   38.3620 O   0  0  0  0  0  0  0  0  0  0  0  0
   40.0420   32.2280   37.9450 H   0  0  0  0  0  0  0  0  0  0  0  0
  1  6  1  0  0  0  0
  1 24  1  0  0  0  0
  2  7  1  1  0  0  0
  2  6  1  0  0  0  0
  2 21  1  0  0  0  0
  3  8  1  6  0  0  0
  3  4  1  0  0  0  0
  3  2  1  0  0  0  0
  4  5  1  0  0  0  0
  5 10  1  0  0  0  0
  5  6  1  0  0  0  0
  6 11  1  1  0  0  0
  9  5  1  0  0  0  0
 12 13  2  0  0  0  0
 12 17  1  0  0  0  0
 13 14  1  0  0  0  0
 14 15  2  0  0  0  0
 14  3  1  0  0  0  0
 16 15  1  0  0  0  0
 16 20  1  0  0  0  0
 17 16  2  0  0  0  0
 18 12  1  0  0  0  0
 19 13  1  0  0  0  0
 22 21  1  0  0  0  0
 23 28  1  1  0  0  0
 23 33  1  0  0  0  0
 24 23  1  0  0  0  0
 24 29  1  1  0  0  0
 25 24  1  0  0  0  0
 26 27  1  0  0  0  0
 26 25  1  0  0  0  0
 27 32  1  6  0  0  0
 27 35  1  0  0  0  0
 27 23  1  0  0  0  0
 30 26  1  0  0  0  0
 31 26  1  0  0  0  0
 34 33  1  0  0  0  0
 36 37  1  0  0  0  0
 36 41  1  1  0  0  0
 37 35  1  6  0  0  0
 38 37  1  0  0  0  0
 39 38  1  0  0  0  0
 40 43  1  6  0  0  0
 40 39  1  0  0  0  0
 40 36  1  0  0  0  0
 41 42  1  0  0  0  0
 44 43  1  0  0  0  0
M  END
>  <minimizedAffinity>
-5.64508057

$$$$

 OpenBabel03242516363D

 44 47  0  0  1  0  0  0  0  0999 V2000
   38.9130   31.9110   40.2550 O   0  0  0  0  0  0  0  0  0  0  0  0
   41.1360   32.6380   40.6290 C   0  0  2  0  0  0  0  0  0  0  0  0
   41.1110   33.0450   39.1310 C   0  0  1  0  0  0  0  0  0  0  0  0
   40.6410   34.3180   39.2620 O   0  0  0  0  0  0  0  0  0  0  0  0
   39.4950   34.1760   40.0700 C   0  0  0  0  0  0  0  0  0  0  0  0
   39.6620   32.8660   40.8740 C   0  0  1  0  0  0  0  0  0  0  0  0
   41.4580   31.6080   40.7420 H   0  0  0  0  0  0  0  0  0  0  0  0
   40.4210   32.3150   38.6750 H   0  0  0  0  0  0  0  0  0  0  0  0
   38.6230   34.0890   39.4030 H   0  0  0  0  0  0  0  0  0  0  0  0
   39.4360   35.0420   40.7480 H   0  0  0  0  0  0  0  0  0  0  0  0
   39.4550   32.9930   41.9480 H   0  0  0  0  0  0  0  0  0  0  0  0
   44.2720   32.1000   37.2400 C   0  0  0  0  0  0  0  0  0  0  0  0
   42.9550   31.9640   37.6870 C   0  0  0  0  0  0  0  0  0  0  0  0
   42.4480   32.9250   38.5350 C   0  0  0  0  0  0  0  0  0  0  0  0
   43.2830   33.9620   38.8870 N   0  0  0  0  0  0  0  0  0  0  0  0
   44.5470   34.0660   38.4390 C   0  0  0  0  0  0  0  0  0  0  0  0
   45.0400   33.1260   37.6110 N   0  0  0  0  0  0  0  0  0  0  0  0
   44.5870   31.3010   36.5780 H   0  0  0  0  0  0  0  0  0  0  0  0
   42.2440   31.1830   37.4550 H   0  0  0  0  0  0  0  0  0  0  0  0
   45.1680   34.9030   38.7440 H   0  0  0  0  0  0  0  0  0  0  0  0
   41.8080   33.5650   41.3740 O   0  0  0  0  0  0  0  0  0  0  0  0
   42.2700   34.1690   40.7480 H   0  0  0  0  0  0  0  0  0  0  0  0
   36.5960   31.5220   40.4730 C   0  0  1  0  0  0  0  0  0  0  0  0
   38.0500   31.1990   41.0910 C   0  0  1  0  0  0  0  0  0  0  0  0
   38.1020   29.8920   40.7770 O   0  0  0  0  0  0  0  0  0  0  0  0
   37.9570   29.9750   39.3640 C   0  0  0  0  0  0  0  0  0  0  0  0
   36.6210   30.6690   39.2400 C   0  0  1  0  0  0  0  0  0  0  0  0
   36.4960   32.5820   40.3410 H   0  0  0  0  0  0  0  0  0  0  0  0
   37.9170   31.6110   42.0880 H   0  0  0  0  0  0  0  0  0  0  0  0
   37.8740   28.9660   38.9110 H   0  0  0  0  0  0  0  0  0  0  0  0
   38.7230   30.5820   38.8900 H   0  0  0  0  0  0  0  0  0  0  0  0
   36.5750   31.3350   38.3530 H   0  0  0  0  0  0  0  0  0  0  0  0
   35.7020   30.9280   41.3760 O   0  0  0  0  0  0  0  0  0  0  0  0
   36.1310   30.0750   41.6320 H   0  0  0  0  0  0  0  0  0  0  0  0
   35.6220   29.7150   39.2410 O   0  0  0  0  0  0  0  0  0  0  0  0
   34.9550   28.7940   37.1070 C   0  0  2  0  0  3  0  0  0  0  0  0
   35.8760   28.7240   38.2990 C   0  0  2  0  0  3  0  0  0  0  0  0
   35.6930   27.4640   38.8640 O   0  0  0  0  0  0  0  0  0  0  0  0
   35.3870   26.6000   37.8420 C   0  0  0  0  0  2  0  0  0  0  0  0
   34.5430   27.3750   36.8700 C   0  0  1  0  0  3  0  0  0  0  0  0
   35.5140   29.4220   36.0080 O   0  0  0  0  0  0  0  0  0  0  0  0
   35.9200   28.7850   35.3580 H   0  0  0  0  0  0  0  0  0  0  0  0
   33.1800   27.2100   37.1710 O   0  0  0  0  0  0  0  0  0  0  0  0
   33.0490   26.5820   37.9040 H   0  0  0  0  0  0  0  0  0  0  0  0
  1  6  1  0  0  0  0
  1 24  1  0  0  0  0
  2  7  1  1  0  0  0
  2  6  1  0  0  0  0
  2 21  1  0  0  0  0
  3  8  1  6  0  0  0
  3  4  1  0  0  0  0
  3  2  1  0  0  0  0
  4  5  1  0  0  0  0
  5 10  1  0  0  0  0
  5  6  1  0  0  0  0
  6 11  1  1  0  0  0
  9  5  1  0  0  0  0
 12 17  2  0  0  0  0
 12 13  1  0  0  0  0
 13 14  2  0  0  0  0
 14 15  1  0  0  0  0
 14  3  1  0  0  0  0
 16 20  1  0  0  0  0
 16 15  2  0  0  0  0
 17 16  1  0  0  0  0
 18 12  1  0  0  0  0
 19 13  1  0  0  0  0
 22 21  1  0  0  0  0
 23 28  1  6  0  0  0
 23 24  1  0  0  0  0
 23 33  1  0  0  0  0
 24 29  1  1  0  0  0
 25 24  1  0  0  0  0
 26 25  1  0  0  0  0
 27 32  1  6  0  0  0
 27 35  1  0  0  0  0
 27 26  1  0  0  0  0
 27 23  1  0  0  0  0
 30 26  1  0  0  0  0
 31 26  1  0  0  0  0
 33 34  1  0  0  0  0
 36 41  1  6  0  0  0
 36 37  1  0  0  0  0
 37 38  1  0  0  0  0
 37 35  1  1  0  0  0
 39 38  1  0  0  0  0
 40 36  1  0  0  0  0
 40 43  1  1  0  0  0
 40 39  1  0  0  0  0
 42 41  1  0  0  0  0
 43 44  1  0  0  0  0
M  END
>  <minimizedAffinity>
-5.63592911

$$$$
