
 OpenBabel03252507493D

 45 47  0  0  1  0  0  0  0  0999 V2000
   46.5240   34.6830   41.4990 C   0  0  0  0  0  0  0  0  0  0  0  0
   46.7630   34.1350   42.4350 H   0  0  0  0  0  0  0  0  0  0  0  0
   46.5750   35.7710   41.7750 H   0  0  0  0  0  0  0  0  0  0  0  0
   45.1480   34.2850   41.1070 C   0  0  0  0  0  0  0  0  0  0  0  0
   44.0580   35.1580   41.3600 C   0  0  0  0  0  0  0  0  0  0  0  0
   42.6210   34.2410   40.7110 S   0  0  0  0  0  0  0  0  0  0  0  0
   43.7550   32.7920   40.1920 C   0  0  0  0  0  0  0  0  0  0  0  0
   44.7690   33.1850   40.5300 N   0  0  0  0  0  0  0  0  0  0  0  0
   44.0960   36.1290   41.8250 H   0  0  0  0  0  0  0  0  0  0  0  0
   43.2740   31.6480   39.5790 O   0  0  0  0  0  0  0  0  0  0  0  0
   42.6350   30.3050   37.3840 O   0  0  0  0  0  0  0  0  0  0  0  0
   43.0240   31.6920   37.9120 P   0  0  1  0  0  0  0  0  0  0  0  0
   41.7290   32.7510   37.6040 O   0  0  0  0  0  0  0  0  0  0  0  0
   41.9120   33.1940   36.7450 H   0  0  0  0  0  0  0  0  0  0  0  0
   44.3910   32.2810   37.1290 O   0  0  0  0  0  0  0  0  0  0  0  0
   44.7940   31.7970   34.8090 C   0  0  2  0  0  0  0  0  0  0  0  0
   44.8110   31.2760   36.2460 C   0  0  1  0  0  0  0  0  0  0  0  0
   46.1280   30.9350   36.4160 O   0  0  0  0  0  0  0  0  0  0  0  0
   46.4840   30.2560   35.2770 C   0  0  0  0  0  0  0  0  0  0  0  0
   45.6570   30.7530   34.1280 C   0  0  2  0  0  0  0  0  0  0  0  0
   45.3340   33.0520   34.6800 O   0  0  0  0  0  0  0  0  0  0  0  0
   45.7280   33.1510   33.7800 H   0  0  0  0  0  0  0  0  0  0  0  0
   46.3930   31.3510   33.1160 O   0  0  0  0  0  0  0  0  0  0  0  0
   46.4810   30.7870   32.3080 H   0  0  0  0  0  0  0  0  0  0  0  0
   47.5600   34.4250   40.4510 C   0  0  0  0  0  0  0  0  0  0  0  0
   47.0980   33.8570   39.6340 H   0  0  0  0  0  0  0  0  0  0  0  0
   47.8520   35.4130   40.0010 H   0  0  0  0  0  0  0  0  0  0  0  0
   48.7790   33.7850   40.9730 C   0  0  0  0  0  0  0  0  0  0  0  0
   49.2190   32.6440   40.3060 C   0  0  0  0  0  0  0  0  0  0  0  0
   50.3510   31.9760   40.7200 C   0  0  0  0  0  0  0  0  0  0  0  0
   51.0140   32.4900   41.8150 N   0  0  0  0  0  0  0  0  0  0  0  0
   50.5440   33.6150   42.4390 C   0  0  0  0  0  0  0  0  0  0  0  0
   49.4560   34.2270   42.0120 N   0  0  0  0  0  0  0  0  0  0  0  0
   50.7290   31.0870   40.2340 H   0  0  0  0  0  0  0  0  0  0  0  0
   51.1030   33.9810   43.2990 H   0  0  0  0  0  0  0  0  0  0  0  0
   48.3090   32.0320   38.8920 S   0  0  0  0  0  0  0  0  0  0  0  0
   49.1750   32.4710   37.3560 C   0  0  0  0  0  0  0  0  0  0  0  0
   50.2190   32.7610   37.6280 H   0  0  0  0  0  0  0  0  0  0  0  0
   49.2330   31.5740   36.7280 H   0  0  0  0  0  0  0  0  0  0  0  0
   48.4230   33.5620   36.6600 C   0  0  0  0  0  0  0  0  0  0  0  0
   47.4950   33.8540   37.1930 H   0  0  0  0  0  0  0  0  0  0  0  0
   49.0820   34.4550   36.6500 H   0  0  0  0  0  0  0  0  0  0  0  0
   48.1930   33.1590   35.3050 N   0  0  0  0  0  0  0  0  0  0  0  0
   47.8820   33.9720   34.7330 H   0  0  0  0  0  0  0  0  0  0  0  0
   49.0290   32.6680   34.9700 H   0  0  0  0  0  0  0  0  0  0  0  0
  1  3  1  0  0  0  0
  1  2  1  0  0  0  0
  4  5  2  0  0  0  0
  4  1  1  0  0  0  0
  5  9  1  0  0  0  0
  6  5  1  0  0  0  0
  7  8  2  0  0  0  0
  7  6  1  0  0  0  0
  8  4  1  0  0  0  0
 10  7  1  0  0  0  0
 12 11  2  6  0  0  0
 12 10  1  0  0  0  0
 13 12  1  0  0  0  0
 14 13  1  0  0  0  0
 15 12  1  0  0  0  0
 16 21  1  1  0  0  0
 16 17  1  0  0  0  0
 17 18  1  0  0  0  0
 17 15  1  1  0  0  0
 19 18  1  0  0  0  0
 20 23  1  6  0  0  0
 20 16  1  0  0  0  0
 20 19  1  0  0  0  0
 22 21  1  0  0  0  0
 24 23  1  0  0  0  0
 25 28  1  0  0  0  0
 25  1  1  0  0  0  0
 26 25  1  0  0  0  0
 27 25  1  0  0  0  0
 28 33  1  0  0  0  0
 29 30  1  0  0  0  0
 29 28  2  0  0  0  0
 30 31  2  0  0  0  0
 31 32  1  0  0  0  0
 32 35  1  0  0  0  0
 33 32  2  0  0  0  0
 34 30  1  0  0  0  0
 36 29  1  0  0  0  0
 37 38  1  0  0  0  0
 37 36  1  0  0  0  0
 39 37  1  0  0  0  0
 40 41  1  0  0  0  0
 40 37  1  0  0  0  0
 42 40  1  0  0  0  0
 43 40  1  0  0  0  0
 44 43  1  0  0  0  0
 45 43  1  0  0  0  0
M  END
>  <minimizedAffinity>
-4.89506435

>  <minimizedRMSD>
2.40456033

$$$$
