
 OpenBabel03252507103D

 36 38  0  0  1  0  0  0  0  0999 V2000
   44.5390   35.3730   45.5190 C   0  0  0  0  0  0  0  0  0  0  0  0
   44.4820   35.7390   44.1630 C   0  0  0  0  0  0  0  0  0  0  0  0
   45.2200   34.9790   43.2720 C   0  0  0  0  0  0  0  0  0  0  0  0
   45.9460   33.9440   43.7300 N   0  0  0  0  0  0  0  0  0  0  0  0
   45.9920   33.6060   45.0240 C   0  0  0  0  0  0  0  0  0  0  0  0
   45.2800   34.3310   45.9260 N   0  0  0  0  0  0  0  0  0  0  0  0
   43.9710   35.9450   46.2630 H   0  0  0  0  0  0  0  0  0  0  0  0
   43.8540   36.5990   43.9220 H   0  0  0  0  0  0  0  0  0  0  0  0
   46.7050   32.3410   47.0710 C   0  0  1  0  0  0  0  0  0  0  0  0
   46.7810   32.4910   45.5810 C   0  0  1  0  0  0  0  0  0  0  0  0
   46.1260   31.1500   45.1780 C   0  0  0  0  0  0  0  0  0  0  0  0
   46.4340   30.2530   46.1520 O   0  0  0  0  0  0  0  0  0  0  0  0
   47.1450   30.8810   47.1700 C   0  0  0  0  0  0  0  0  0  0  0  0
   45.6550   32.4130   47.4220 H   0  0  0  0  0  0  0  0  0  0  0  0
   47.8120   32.5030   45.2100 H   0  0  0  0  0  0  0  0  0  0  0  0
   45.0520   31.2800   44.9640 H   0  0  0  0  0  0  0  0  0  0  0  0
   46.6320   30.8510   44.2370 H   0  0  0  0  0  0  0  0  0  0  0  0
   46.8000   30.4590   48.1220 H   0  0  0  0  0  0  0  0  0  0  0  0
   48.2370   30.7930   47.0140 H   0  0  0  0  0  0  0  0  0  0  0  0
   47.4670   33.2170   47.7810 O   0  0  0  0  0  0  0  0  0  0  0  0
   47.4500   32.9360   48.7290 H   0  0  0  0  0  0  0  0  0  0  0  0
   45.1560   35.3450   41.9340 O   0  0  0  0  0  0  0  0  0  0  0  0
   42.9840   35.5440   40.4080 O   0  0  0  0  0  0  0  0  0  0  0  0
   44.0500   34.5750   40.8860 P   0  0  1  0  0  0  0  0  0  0  0  0
   44.8840   33.9010   39.6100 O   0  0  0  0  0  0  0  0  0  0  0  0
   45.5700   33.3040   39.9580 H   0  0  0  0  0  0  0  0  0  0  0  0
   43.2820   33.3730   41.8100 O   0  0  0  0  0  0  0  0  0  0  0  0
   41.6740   31.6970   42.0310 C   0  0  1  0  0  3  0  0  0  0  0  0
   42.3620   32.6620   41.0850 C   0  0  2  0  0  3  0  0  0  0  0  0
   42.9130   31.7750   40.1620 O   0  0  0  0  0  0  0  0  0  0  0  0
   41.7430   31.0910   39.7610 C   0  0  0  0  0  2  0  0  0  0  0  0
   41.2260   30.5960   41.0960 C   0  0  1  0  0  3  0  0  0  0  0  0
   42.6490   31.1950   42.8890 O   0  0  0  0  0  0  0  0  0  0  0  0
   43.5200   31.1970   42.4240 H   0  0  0  0  0  0  0  0  0  0  0  0
   41.8950   29.4100   41.3740 O   0  0  0  0  0  0  0  0  0  0  0  0
   42.8080   29.4070   40.9590 H   0  0  0  0  0  0  0  0  0  0  0  0
  1  6  1  0  0  0  0
  1  7  1  0  0  0  0
  2  1  2  0  0  0  0
  3  4  2  0  0  0  0
  3  2  1  0  0  0  0
  4  5  1  0  0  0  0
  5 10  1  0  0  0  0
  5  6  2  0  0  0  0
  8  2  1  0  0  0  0
  9 13  1  0  0  0  0
  9 14  1  1  0  0  0
  9 20  1  0  0  0  0
 10 15  1  6  0  0  0
 10  9  1  0  0  0  0
 11 10  1  0  0  0  0
 11 12  1  0  0  0  0
 12 13  1  0  0  0  0
 13 18  1  0  0  0  0
 16 11  1  0  0  0  0
 17 11  1  0  0  0  0
 19 13  1  0  0  0  0
 20 21  1  0  0  0  0
 22  3  1  0  0  0  0
 24 23  2  6  0  0  0
 24 27  1  0  0  0  0
 24 22  1  0  0  0  0
 25 26  1  0  0  0  0
 25 24  1  0  0  0  0
 28 33  1  1  0  0  0
 29 27  1  1  0  0  0
 29 28  1  0  0  0  0
 30 29  1  0  0  0  0
 31 30  1  0  0  0  0
 31 32  1  0  0  0  0
 32 35  1  1  0  0  0
 32 28  1  0  0  0  0
 34 33  1  0  0  0  0
 36 35  1  0  0  0  0
M  END
>  <minimizedAffinity>
-5.59220791

>  <minimizedRMSD>
5.65557623

$$$$
