
 OpenBabel03252506443D

 42 45  0  0  1  0  0  0  0  0999 V2000
   49.5240   33.5170   41.3690 N   0  0  1  0  0  0  0  0  0  0  0  0
   50.7190   33.0890   42.0940 C   0  0  0  0  0  0  0  0  0  0  0  0
   51.2680   31.7790   41.6030 C   0  0  0  0  0  0  0  0  0  0  0  0
   50.2770   30.6800   41.9560 C   0  0  0  0  0  0  0  0  0  0  0  0
   48.8650   31.1790   41.8110 C   0  0  0  0  0  0  0  0  0  0  0  0
   48.8420   32.3500   40.8630 C   0  0  2  0  0  0  0  0  0  0  0  0
   50.5270   32.9780   43.1690 H   0  0  0  0  0  0  0  0  0  0  0  0
   51.4800   33.8880   41.9840 H   0  0  0  0  0  0  0  0  0  0  0  0
   51.4700   31.7830   40.5120 H   0  0  0  0  0  0  0  0  0  0  0  0
   52.2180   31.6200   42.1280 H   0  0  0  0  0  0  0  0  0  0  0  0
   50.4880   30.2610   42.9570 H   0  0  0  0  0  0  0  0  0  0  0  0
   50.4500   29.8470   41.2290 H   0  0  0  0  0  0  0  0  0  0  0  0
   48.1520   30.4340   41.4680 H   0  0  0  0  0  0  0  0  0  0  0  0
   48.5890   31.5810   42.8280 H   0  0  0  0  0  0  0  0  0  0  0  0
   47.7620   32.6340   40.7620 H   0  0  0  0  0  0  0  0  0  0  0  0
   47.3750   34.7870   41.9710 C   0  0  1  0  0  0  0  0  0  0  0  0
   48.4870   35.7170   41.8180 C   0  0  0  0  0  0  0  0  0  0  0  0
   48.7810   34.3220   42.2700 C   0  0  2  0  0  0  0  0  0  0  0  0
   46.9320   34.2070   41.1270 H   0  0  0  0  0  0  0  0  0  0  0  0
   48.7550   35.9820   40.7570 H   0  0  0  0  0  0  0  0  0  0  0  0
   48.5770   36.5600   42.5320 H   0  0  0  0  0  0  0  0  0  0  0  0
   48.9830   34.2010   43.3540 H   0  0  0  0  0  0  0  0  0  0  0  0
   45.5530   36.0470   43.1640 C   0  0  0  0  0  0  0  0  0  0  0  0
   46.4200   34.9300   43.0980 C   0  0  0  0  0  0  0  0  0  0  0  0
   46.3410   33.9900   44.1210 C   0  0  0  0  0  0  0  0  0  0  0  0
   45.4430   34.2000   45.1110 N   0  0  0  0  0  0  0  0  0  0  0  0
   44.6280   35.2610   45.1600 C   0  0  0  0  0  0  0  0  0  0  0  0
   44.6740   36.2040   44.1800 N   0  0  0  0  0  0  0  0  0  0  0  0
   45.6510   36.7480   42.3500 H   0  0  0  0  0  0  0  0  0  0  0  0
   46.9830   33.1180   44.1160 H   0  0  0  0  0  0  0  0  0  0  0  0
   43.9410   35.3340   46.0020 H   0  0  0  0  0  0  0  0  0  0  0  0
   49.2940   31.9630   39.5580 N   0  0  0  0  0  0  0  0  0  0  0  0
   50.2190   32.3610   39.3550 H   0  0  0  0  0  0  0  0  0  0  0  0
   48.9470   32.0140   37.1380 C   0  0  2  0  0  3  0  0  0  0  0  0
   48.3960   32.3870   38.5130 C   0  0  2  0  0  3  0  0  0  0  0  0
   48.2000   33.7400   38.4700 O   0  0  0  0  0  0  0  0  0  0  0  0
   48.1170   34.1780   37.1750 C   0  0  0  0  0  2  0  0  0  0  0  0
   48.1420   32.9640   36.2730 C   0  0  1  0  0  3  0  0  0  0  0  0
   48.6790   30.6850   36.8340 O   0  0  0  0  0  0  0  0  0  0  0  0
   47.7400   30.5090   37.1010 H   0  0  0  0  0  0  0  0  0  0  0  0
   48.8580   33.2820   35.0960 O   0  0  0  0  0  0  0  0  0  0  0  0
   48.6180   34.2000   34.8160 H   0  0  0  0  0  0  0  0  0  0  0  0
  1  2  1  1  0  0  0
  1 18  1  0  0  0  0
  2  7  1  0  0  0  0
  3  4  1  0  0  0  0
  3  2  1  0  0  0  0
  3 10  1  0  0  0  0
  4 11  1  0  0  0  0
  5  4  1  0  0  0  0
  5 14  1  0  0  0  0
  6 15  1  6  0  0  0
  6  1  1  0  0  0  0
  6  5  1  0  0  0  0
  8  2  1  0  0  0  0
  9  3  1  0  0  0  0
 12  4  1  0  0  0  0
 13  5  1  0  0  0  0
 16 19  1  6  0  0  0
 16 18  1  0  0  0  0
 16 24  1  0  0  0  0
 17 16  1  0  0  0  0
 17 18  1  0  0  0  0
 17 21  1  0  0  0  0
 18 22  1  1  0  0  0
 20 17  1  0  0  0  0
 23 28  1  0  0  0  0
 24 23  2  0  0  0  0
 24 25  1  0  0  0  0
 25 26  2  0  0  0  0
 26 27  1  0  0  0  0
 27 31  1  0  0  0  0
 28 27  2  0  0  0  0
 29 23  1  0  0  0  0
 30 25  1  0  0  0  0
 32  6  1  0  0  0  0
 33 32  1  0  0  0  0
 34 39  1  6  0  0  0
 34 35  1  0  0  0  0
 35 32  1  1  0  0  0
 36 35  1  0  0  0  0
 37 36  1  0  0  0  0
 38 41  1  6  0  0  0
 38 34  1  0  0  0  0
 38 37  1  0  0  0  0
 39 40  1  0  0  0  0
 42 41  1  0  0  0  0
M  END
>  <minimizedAffinity>
-5.63914537

>  <minimizedRMSD>
2.38021088

$$$$
