
 OpenBabel03252506443D

 42 45  0  0  1  0  0  0  0  0999 V2000
   49.5580   33.5430   41.4290 N   0  0  1  0  0  0  0  0  0  0  0  0
   50.7200   33.1120   42.2050 C   0  0  0  0  0  0  0  0  0  0  0  0
   51.2740   31.7920   41.7500 C   0  0  0  0  0  0  0  0  0  0  0  0
   50.2590   30.7050   42.0760 C   0  0  0  0  0  0  0  0  0  0  0  0
   48.8590   31.2160   41.8700 C   0  0  0  0  0  0  0  0  0  0  0  0
   48.8850   32.3770   40.9090 C   0  0  2  0  0  0  0  0  0  0  0  0
   50.4840   33.0140   43.2730 H   0  0  0  0  0  0  0  0  0  0  0  0
   51.4920   33.9020   42.1160 H   0  0  0  0  0  0  0  0  0  0  0  0
   51.5190   31.7820   40.6680 H   0  0  0  0  0  0  0  0  0  0  0  0
   52.2020   31.6290   42.3140 H   0  0  0  0  0  0  0  0  0  0  0  0
   50.4270   30.2960   43.0890 H   0  0  0  0  0  0  0  0  0  0  0  0
   50.4520   29.8630   41.3650 H   0  0  0  0  0  0  0  0  0  0  0  0
   48.1530   30.4750   41.5070 H   0  0  0  0  0  0  0  0  0  0  0  0
   48.5480   31.6320   42.8710 H   0  0  0  0  0  0  0  0  0  0  0  0
   47.8120   32.6700   40.7630 H   0  0  0  0  0  0  0  0  0  0  0  0
   47.3660   34.7650   41.9750 C   0  0  1  0  0  0  0  0  0  0  0  0
   48.4440   35.7250   41.7720 C   0  0  0  0  0  0  0  0  0  0  0  0
   48.7880   34.3650   42.2920 C   0  0  2  0  0  0  0  0  0  0  0  0
   46.9420   34.1280   41.1610 H   0  0  0  0  0  0  0  0  0  0  0  0
   48.7010   35.9460   40.6990 H   0  0  0  0  0  0  0  0  0  0  0  0
   48.5050   36.6050   42.4440 H   0  0  0  0  0  0  0  0  0  0  0  0
   48.9960   34.3050   43.3800 H   0  0  0  0  0  0  0  0  0  0  0  0
   45.5600   36.0610   43.1530 C   0  0  0  0  0  0  0  0  0  0  0  0
   46.4080   34.9290   43.0950 C   0  0  0  0  0  0  0  0  0  0  0  0
   46.3080   33.9950   44.1230 C   0  0  0  0  0  0  0  0  0  0  0  0
   45.4080   34.2250   45.1070 N   0  0  0  0  0  0  0  0  0  0  0  0
   44.6120   35.3000   45.1470 C   0  0  0  0  0  0  0  0  0  0  0  0
   44.6780   36.2380   44.1630 N   0  0  0  0  0  0  0  0  0  0  0  0
   45.6740   36.7570   42.3360 H   0  0  0  0  0  0  0  0  0  0  0  0
   46.9350   33.1120   44.1250 H   0  0  0  0  0  0  0  0  0  0  0  0
   43.9220   35.3890   45.9850 H   0  0  0  0  0  0  0  0  0  0  0  0
   49.3840   31.9710   39.6270 N   0  0  0  0  0  0  0  0  0  0  0  0
   50.3150   32.3690   39.4500 H   0  0  0  0  0  0  0  0  0  0  0  0
   49.0830   31.9110   37.2020 C   0  0  2  0  0  3  0  0  0  0  0  0
   48.5230   32.3770   38.5440 C   0  0  2  0  0  3  0  0  0  0  0  0
   48.3840   33.7320   38.4270 O   0  0  0  0  0  0  0  0  0  0  0  0
   48.3430   34.1060   37.1100 C   0  0  0  0  0  2  0  0  0  0  0  0
   48.3330   32.8450   36.2730 C   0  0  1  0  0  3  0  0  0  0  0  0
   48.7650   30.5790   36.9600 O   0  0  0  0  0  0  0  0  0  0  0  0
   47.8140   30.4550   37.2180 H   0  0  0  0  0  0  0  0  0  0  0  0
   49.0820   33.0720   35.0950 O   0  0  0  0  0  0  0  0  0  0  0  0
   48.8860   33.9840   34.7640 H   0  0  0  0  0  0  0  0  0  0  0  0
  1  2  1  1  0  0  0
  1 18  1  0  0  0  0
  2  7  1  0  0  0  0
  3  4  1  0  0  0  0
  3  2  1  0  0  0  0
  3 10  1  0  0  0  0
  4 11  1  0  0  0  0
  5  4  1  0  0  0  0
  5 14  1  0  0  0  0
  6 15  1  6  0  0  0
  6  1  1  0  0  0  0
  6  5  1  0  0  0  0
  8  2  1  0  0  0  0
  9  3  1  0  0  0  0
 12  4  1  0  0  0  0
 13  5  1  0  0  0  0
 16 19  1  6  0  0  0
 16 18  1  0  0  0  0
 16 24  1  0  0  0  0
 17 16  1  0  0  0  0
 17 18  1  0  0  0  0
 17 21  1  0  0  0  0
 18 22  1  1  0  0  0
 20 17  1  0  0  0  0
 23 28  1  0  0  0  0
 24 23  2  0  0  0  0
 24 25  1  0  0  0  0
 25 30  1  0  0  0  0
 25 26  2  0  0  0  0
 26 27  1  0  0  0  0
 27 31  1  0  0  0  0
 28 27  2  0  0  0  0
 29 23  1  0  0  0  0
 32  6  1  0  0  0  0
 33 32  1  0  0  0  0
 34 39  1  6  0  0  0
 34 35  1  0  0  0  0
 35 32  1  1  0  0  0
 36 35  1  0  0  0  0
 37 36  1  0  0  0  0
 38 41  1  6  0  0  0
 38 37  1  0  0  0  0
 38 34  1  0  0  0  0
 39 40  1  0  0  0  0
 42 41  1  0  0  0  0
M  END
>  <minimizedAffinity>
-5.65294218

>  <minimizedRMSD>
2.8874414

$$$$
