
 OpenBabel03252506443D

 42 45  0  0  1  0  0  0  0  0999 V2000
   49.5520   33.4340   41.4510 N   0  0  1  0  0  0  0  0  0  0  0  0
   50.7600   33.1330   42.2170 C   0  0  0  0  0  0  0  0  0  0  0  0
   51.3630   31.8030   41.8650 C   0  0  0  0  0  0  0  0  0  0  0  0
   50.4170   30.7070   42.3300 C   0  0  0  0  0  0  0  0  0  0  0  0
   48.9860   31.1300   42.1320 C   0  0  0  0  0  0  0  0  0  0  0  0
   48.9210   32.1950   41.0680 C   0  0  2  0  0  0  0  0  0  0  0  0
   50.5670   33.1260   43.2970 H   0  0  0  0  0  0  0  0  0  0  0  0
   51.4880   33.9470   42.0250 H   0  0  0  0  0  0  0  0  0  0  0  0
   51.5710   31.7030   40.7790 H   0  0  0  0  0  0  0  0  0  0  0  0
   52.3170   31.7380   42.4050 H   0  0  0  0  0  0  0  0  0  0  0  0
   50.6400   30.4030   43.3690 H   0  0  0  0  0  0  0  0  0  0  0  0
   50.6260   29.8110   41.6930 H   0  0  0  0  0  0  0  0  0  0  0  0
   48.3050   30.3250   41.8680 H   0  0  0  0  0  0  0  0  0  0  0  0
   48.6900   31.6240   43.1020 H   0  0  0  0  0  0  0  0  0  0  0  0
   47.8300   32.4230   40.9370 H   0  0  0  0  0  0  0  0  0  0  0  0
   47.3320   34.6270   41.9470 C   0  0  1  0  0  0  0  0  0  0  0  0
   48.3740   35.6010   41.6470 C   0  0  0  0  0  0  0  0  0  0  0  0
   48.7730   34.2980   42.2630 C   0  0  2  0  0  0  0  0  0  0  0  0
   46.9140   33.9150   41.1950 H   0  0  0  0  0  0  0  0  0  0  0  0
   48.6030   35.7450   40.5540 H   0  0  0  0  0  0  0  0  0  0  0  0
   48.4200   36.5330   42.2460 H   0  0  0  0  0  0  0  0  0  0  0  0
   49.0030   34.3300   43.3480 H   0  0  0  0  0  0  0  0  0  0  0  0
   45.5710   36.0030   43.1030 C   0  0  0  0  0  0  0  0  0  0  0  0
   46.3910   34.8500   43.0720 C   0  0  0  0  0  0  0  0  0  0  0  0
   46.2800   33.9500   44.1290 C   0  0  0  0  0  0  0  0  0  0  0  0
   45.3980   34.2330   45.1150 N   0  0  0  0  0  0  0  0  0  0  0  0
   44.6280   35.3270   45.1300 C   0  0  0  0  0  0  0  0  0  0  0  0
   44.7060   36.2330   44.1170 N   0  0  0  0  0  0  0  0  0  0  0  0
   45.6930   36.6700   42.2640 H   0  0  0  0  0  0  0  0  0  0  0  0
   46.8860   33.0530   44.1520 H   0  0  0  0  0  0  0  0  0  0  0  0
   43.9500   35.4600   45.9720 H   0  0  0  0  0  0  0  0  0  0  0  0
   49.3940   31.6930   39.8110 N   0  0  0  0  0  0  0  0  0  0  0  0
   50.2820   32.1380   39.5470 H   0  0  0  0  0  0  0  0  0  0  0  0
   48.9280   33.0550   37.8340 C   0  0  2  0  0  3  0  0  0  0  0  0
   48.4580   31.9170   38.7370 C   0  0  2  0  0  3  0  0  0  0  0  0
   47.2100   32.2830   39.1610 O   0  0  0  0  0  0  0  0  0  0  0  0
   46.6690   33.2240   38.3250 C   0  0  0  0  0  2  0  0  0  0  0  0
   47.6160   33.4060   37.1600 C   0  0  1  0  0  3  0  0  0  0  0  0
   49.8770   32.6110   36.9200 O   0  0  0  0  0  0  0  0  0  0  0  0
   49.5540   31.7420   36.5650 H   0  0  0  0  0  0  0  0  0  0  0  0
   47.6110   34.7670   36.7740 O   0  0  0  0  0  0  0  0  0  0  0  0
   46.6840   35.1070   36.8190 H   0  0  0  0  0  0  0  0  0  0  0  0
  1  2  1  1  0  0  0
  1 18  1  0  0  0  0
  2  7  1  0  0  0  0
  3  2  1  0  0  0  0
  3  4  1  0  0  0  0
  3 10  1  0  0  0  0
  4 11  1  0  0  0  0
  5  4  1  0  0  0  0
  5 14  1  0  0  0  0
  6 15  1  6  0  0  0
  6  1  1  0  0  0  0
  6  5  1  0  0  0  0
  8  2  1  0  0  0  0
  9  3  1  0  0  0  0
 12  4  1  0  0  0  0
 13  5  1  0  0  0  0
 16 19  1  6  0  0  0
 16 18  1  0  0  0  0
 16 24  1  0  0  0  0
 17 16  1  0  0  0  0
 17 21  1  0  0  0  0
 17 18  1  0  0  0  0
 18 22  1  1  0  0  0
 20 17  1  0  0  0  0
 23 28  1  0  0  0  0
 24 23  2  0  0  0  0
 24 25  1  0  0  0  0
 25 30  1  0  0  0  0
 25 26  2  0  0  0  0
 26 27  1  0  0  0  0
 27 31  1  0  0  0  0
 28 27  2  0  0  0  0
 29 23  1  0  0  0  0
 32  6  1  0  0  0  0
 33 32  1  0  0  0  0
 34 39  1  6  0  0  0
 34 35  1  0  0  0  0
 35 36  1  0  0  0  0
 35 32  1  1  0  0  0
 37 36  1  0  0  0  0
 38 41  1  1  0  0  0
 38 34  1  0  0  0  0
 38 37  1  0  0  0  0
 40 39  1  0  0  0  0
 41 42  1  0  0  0  0
M  END
>  <minimizedAffinity>
-5.91736412

>  <minimizedRMSD>
2.32777834

$$$$
