
 OpenBabel03252500263D

 37 39  0  0  1  0  0  0  0  0999 V2000
   37.3480   32.1460   40.3460 C   0  0  2  0  0  0  0  0  0  0  0  0
   37.2120   30.6770   40.4310 C   0  0  2  0  0  0  0  0  0  0  0  0
   36.5170   30.3150   39.1680 C   0  0  0  0  0  0  0  0  0  0  0  0
   36.8680   31.2530   38.2140 O   0  0  0  0  0  0  0  0  0  0  0  0
   37.5400   32.2670   38.8170 C   0  0  0  0  0  0  0  0  0  0  0  0
   36.5980   32.8550   40.5290 H   0  0  0  0  0  0  0  0  0  0  0  0
   38.2380   30.2650   40.4960 H   0  0  0  0  0  0  0  0  0  0  0  0
   37.0210   29.3720   38.7980 H   0  0  0  0  0  0  0  0  0  0  0  0
   35.4750   30.0350   39.2150 H   0  0  0  0  0  0  0  0  0  0  0  0
   38.6160   32.1730   38.5620 H   0  0  0  0  0  0  0  0  0  0  0  0
   37.2210   33.2310   38.4200 H   0  0  0  0  0  0  0  0  0  0  0  0
   36.5520   30.2380   41.5550 O   0  0  0  0  0  0  0  0  0  0  0  0
   38.5710   29.6500   43.0280 O   0  0  0  0  0  0  0  0  0  0  0  0
   37.4240   29.0230   42.2840 P   0  0  1  0  0  0  0  0  0  0  0  0
   36.4390   28.2060   43.3940 O   0  0  0  0  0  0  0  0  0  0  0  0
   36.2660   27.3080   43.0290 H   0  0  0  0  0  0  0  0  0  0  0  0
   38.0870   27.9270   41.1520 O   0  0  0  0  0  0  0  0  0  0  0  0
   38.5120   24.5720   42.2850 C   0  0  0  0  0  0  0  0  0  0  0  0
   37.5900   23.8170   41.5060 C   0  0  0  0  0  0  0  0  0  0  0  0
   36.8190   24.5380   40.5710 C   0  0  0  0  0  0  0  0  0  0  0  0
   37.0040   25.8750   40.4800 N   0  0  0  0  0  0  0  0  0  0  0  0
   37.8920   26.5460   41.2420 C   0  0  0  0  0  0  0  0  0  0  0  0
   38.6400   25.8870   42.1410 N   0  0  0  0  0  0  0  0  0  0  0  0
   37.5150   22.7630   41.6490 H   0  0  0  0  0  0  0  0  0  0  0  0
   36.1130   24.0040   39.9650 H   0  0  0  0  0  0  0  0  0  0  0  0
   39.2640   23.8660   43.1960 O   0  0  0  0  0  0  0  0  0  0  0  0
   39.4080   24.3110   44.0960 H   0  0  0  0  0  0  0  0  0  0  0  0
   38.4270   32.6460   41.0360 O   0  0  0  0  0  0  0  0  0  0  0  0
   40.6370   31.9190   41.2780 C   0  0  1  0  0  3  0  0  0  0  0  0
   39.6310   32.7380   40.4760 C   0  0  2  0  0  3  0  0  0  0  0  0
   40.1140   34.0290   40.7110 O   0  0  0  0  0  0  0  0  0  0  0  0
   41.4210   33.8730   40.1930 C   0  0  0  0  0  2  0  0  0  0  0  0
   41.9090   32.7030   41.0310 C   0  0  1  0  0  3  0  0  0  0  0  0
   40.3180   31.8500   42.6080 O   0  0  0  0  0  0  0  0  0  0  0  0
   39.5480   32.3820   42.8820 H   0  0  0  0  0  0  0  0  0  0  0  0
   42.3800   33.1480   42.2760 O   0  0  0  0  0  0  0  0  0  0  0  0
   42.1850   32.4060   42.9060 H   0  0  0  0  0  0  0  0  0  0  0  0
  1  2  1  0  0  0  0
  1  6  1  1  0  0  0
  1 28  1  0  0  0  0
  2  7  1  6  0  0  0
  2 12  1  0  0  0  0
  3  9  1  0  0  0  0
  3  2  1  0  0  0  0
  4  5  1  0  0  0  0
  4  3  1  0  0  0  0
  5  1  1  0  0  0  0
  8  3  1  0  0  0  0
 10  5  1  0  0  0  0
 11  5  1  0  0  0  0
 12 14  1  0  0  0  0
 14 13  2  1  0  0  0
 14 15  1  0  0  0  0
 16 15  1  0  0  0  0
 17 22  1  0  0  0  0
 17 14  1  0  0  0  0
 18 26  1  0  0  0  0
 19 24  1  0  0  0  0
 19 18  2  0  0  0  0
 20 19  1  0  0  0  0
 21 20  2  0  0  0  0
 21 22  1  0  0  0  0
 22 23  2  0  0  0  0
 23 18  1  0  0  0  0
 25 20  1  0  0  0  0
 26 27  1  0  0  0  0
 29 34  1  1  0  0  0
 30 31  1  0  0  0  0
 30 28  1  1  0  0  0
 30 29  1  0  0  0  0
 32 31  1  0  0  0  0
 32 33  1  0  0  0  0
 33 29  1  0  0  0  0
 33 36  1  1  0  0  0
 34 35  1  0  0  0  0
 36 37  1  0  0  0  0
M  END
>  <minimizedAffinity>
-6.00504398

$$$$

 OpenBabel03252500263D

 37 39  0  0  1  0  0  0  0  0999 V2000
   36.0240   29.7650   38.3440 C   0  0  2  0  0  0  0  0  0  0  0  0
   36.5420   28.6560   39.1720 C   0  0  2  0  0  0  0  0  0  0  0  0
   36.4510   27.4750   38.2730 C   0  0  0  0  0  0  0  0  0  0  0  0
   36.5880   27.9280   36.9730 O   0  0  0  0  0  0  0  0  0  0  0  0
   36.5450   29.2860   36.9710 C   0  0  0  0  0  0  0  0  0  0  0  0
   35.0180   29.9730   38.1360 H   0  0  0  0  0  0  0  0  0  0  0  0
   37.5840   28.9180   39.4410 H   0  0  0  0  0  0  0  0  0  0  0  0
   37.4020   26.8870   38.4400 H   0  0  0  0  0  0  0  0  0  0  0  0
   35.6750   26.7470   38.4560 H   0  0  0  0  0  0  0  0  0  0  0  0
   37.5730   29.6660   36.8020 H   0  0  0  0  0  0  0  0  0  0  0  0
   35.9480   29.6510   36.1340 H   0  0  0  0  0  0  0  0  0  0  0  0
   35.8730   28.4820   40.3600 O   0  0  0  0  0  0  0  0  0  0  0  0
   38.3260   28.7170   41.0780 O   0  0  0  0  0  0  0  0  0  0  0  0
   36.9300   28.6510   41.6340 P   0  0  1  0  0  0  0  0  0  0  0  0
   36.6030   30.0980   42.4530 O   0  0  0  0  0  0  0  0  0  0  0  0
   36.2230   29.8590   43.3300 H   0  0  0  0  0  0  0  0  0  0  0  0
   36.8710   27.3260   42.7110 O   0  0  0  0  0  0  0  0  0  0  0  0
   38.7100   24.3060   42.2380 C   0  0  0  0  0  0  0  0  0  0  0  0
   39.9120   24.5070   42.9740 C   0  0  0  0  0  0  0  0  0  0  0  0
   40.0440   25.7440   43.6370 C   0  0  0  0  0  0  0  0  0  0  0  0
   39.0370   26.6400   43.5330 N   0  0  0  0  0  0  0  0  0  0  0  0
   37.9150   26.4020   42.8220 C   0  0  0  0  0  0  0  0  0  0  0  0
   37.7610   25.2340   42.1790 N   0  0  0  0  0  0  0  0  0  0  0  0
   40.6520   23.7390   42.9980 H   0  0  0  0  0  0  0  0  0  0  0  0
   40.9370   25.9320   44.2030 H   0  0  0  0  0  0  0  0  0  0  0  0
   38.5830   23.0980   41.5920 O   0  0  0  0  0  0  0  0  0  0  0  0
   38.1710   23.1290   40.6660 H   0  0  0  0  0  0  0  0  0  0  0  0
   36.5340   30.9970   38.6810 O   0  0  0  0  0  0  0  0  0  0  0  0
   37.9760   32.1600   40.1090 C   0  0  1  0  0  3  0  0  0  0  0  0
   37.8240   31.1630   38.9660 C   0  0  2  0  0  3  0  0  0  0  0  0
   38.4010   31.8900   37.9200 O   0  0  0  0  0  0  0  0  0  0  0  0
   39.6880   32.0880   38.4740 C   0  0  0  0  0  2  0  0  0  0  0  0
   39.3200   32.7730   39.7790 C   0  0  1  0  0  3  0  0  0  0  0  0
   36.9700   33.0900   40.1340 O   0  0  0  0  0  0  0  0  0  0  0  0
   36.3410   33.0440   39.3910 H   0  0  0  0  0  0  0  0  0  0  0  0
   39.1190   34.1480   39.5770 O   0  0  0  0  0  0  0  0  0  0  0  0
   38.4300   34.4080   40.2430 H   0  0  0  0  0  0  0  0  0  0  0  0
  1  6  1  1  0  0  0
  1 28  1  0  0  0  0
  1  2  1  0  0  0  0
  2  7  1  1  0  0  0
  2 12  1  0  0  0  0
  3  8  1  0  0  0  0
  3  9  1  0  0  0  0
  3  2  1  0  0  0  0
  4  3  1  0  0  0  0
  5  4  1  0  0  0  0
  5  1  1  0  0  0  0
 10  5  1  0  0  0  0
 11  5  1  0  0  0  0
 12 14  1  0  0  0  0
 14 13  2  6  0  0  0
 14 15  1  0  0  0  0
 14 17  1  0  0  0  0
 15 16  1  0  0  0  0
 17 22  1  0  0  0  0
 18 19  1  0  0  0  0
 19 24  1  0  0  0  0
 19 20  2  0  0  0  0
 20 25  1  0  0  0  0
 21 20  1  0  0  0  0
 22 21  2  0  0  0  0
 23 18  2  0  0  0  0
 23 22  1  0  0  0  0
 26 18  1  0  0  0  0
 27 26  1  0  0  0  0
 29 34  1  6  0  0  0
 30 28  1  6  0  0  0
 30 29  1  0  0  0  0
 31 32  1  0  0  0  0
 31 30  1  0  0  0  0
 32 33  1  0  0  0  0
 33 36  1  6  0  0  0
 33 29  1  0  0  0  0
 35 34  1  0  0  0  0
 36 37  1  0  0  0  0
M  END
>  <minimizedAffinity>
-5.88071299

$$$$

 OpenBabel03252500263D

 37 39  0  0  1  0  0  0  0  0999 V2000
   38.1330   27.1020   43.0950 C   0  0  2  0  0  0  0  0  0  0  0  0
   38.2680   28.3940   42.3900 C   0  0  2  0  0  0  0  0  0  0  0  0
   39.5750   28.9180   42.8660 C   0  0  0  0  0  0  0  0  0  0  0  0
   40.3770   27.8320   43.1660 O   0  0  0  0  0  0  0  0  0  0  0  0
   39.6260   26.7020   43.1200 C   0  0  0  0  0  0  0  0  0  0  0  0
   37.8520   26.9610   44.0940 H   0  0  0  0  0  0  0  0  0  0  0  0
   38.2580   28.1690   41.3060 H   0  0  0  0  0  0  0  0  0  0  0  0
   40.0780   29.3640   41.9560 H   0  0  0  0  0  0  0  0  0  0  0  0
   39.5770   29.7350   43.5730 H   0  0  0  0  0  0  0  0  0  0  0  0
   39.8850   26.1480   42.1950 H   0  0  0  0  0  0  0  0  0  0  0  0
   39.8780   26.0380   43.9480 H   0  0  0  0  0  0  0  0  0  0  0  0
   37.2260   29.2640   42.6090 O   0  0  0  0  0  0  0  0  0  0  0  0
   35.5070   28.6100   40.8190 O   0  0  0  0  0  0  0  0  0  0  0  0
   36.5160   29.6710   41.1610 P   0  0  1  0  0  0  0  0  0  0  0  0
   35.7110   31.1540   41.3210 O   0  0  0  0  0  0  0  0  0  0  0  0
   36.2140   31.8180   40.7960 H   0  0  0  0  0  0  0  0  0  0  0  0
   37.6430   29.7370   39.8780 O   0  0  0  0  0  0  0  0  0  0  0  0
   39.6190   32.1040   38.0860 C   0  0  0  0  0  0  0  0  0  0  0  0
   40.0590   33.0220   39.0810 C   0  0  0  0  0  0  0  0  0  0  0  0
   39.6320   32.7700   40.4010 C   0  0  0  0  0  0  0  0  0  0  0  0
   38.8470   31.6930   40.6280 N   0  0  0  0  0  0  0  0  0  0  0  0
   38.4560   30.8510   39.6490 C   0  0  0  0  0  0  0  0  0  0  0  0
   38.8460   31.0650   38.3830 N   0  0  0  0  0  0  0  0  0  0  0  0
   40.6790   33.8450   38.8060 H   0  0  0  0  0  0  0  0  0  0  0  0
   39.9440   33.4400   41.1790 H   0  0  0  0  0  0  0  0  0  0  0  0
   40.0380   32.3520   36.7980 O   0  0  0  0  0  0  0  0  0  0  0  0
   39.3510   32.1980   36.0690 H   0  0  0  0  0  0  0  0  0  0  0  0
   37.3700   26.1770   42.4210 O   0  0  0  0  0  0  0  0  0  0  0  0
   37.6500   25.4880   40.2040 C   0  0  1  0  0  3  0  0  0  0  0  0
   37.9260   25.2220   41.6790 C   0  0  2  0  0  3  0  0  0  0  0  0
   37.1830   24.0510   41.8670 O   0  0  0  0  0  0  0  0  0  0  0  0
   37.8190   23.2320   40.9050 C   0  0  0  0  0  2  0  0  0  0  0  0
   37.6260   24.0760   39.6560 C   0  0  1  0  0  3  0  0  0  0  0  0
   36.4660   26.1470   40.0000 O   0  0  0  0  0  0  0  0  0  0  0  0
   35.9260   26.2920   40.7980 H   0  0  0  0  0  0  0  0  0  0  0  0
   36.3540   23.8600   39.1030 O   0  0  0  0  0  0  0  0  0  0  0  0
   36.1030   24.7250   38.6850 H   0  0  0  0  0  0  0  0  0  0  0  0
  1  5  1  0  0  0  0
  1  6  1  1  0  0  0
  2  7  1  6  0  0  0
  2 12  1  0  0  0  0
  2  3  1  0  0  0  0
  2  1  1  0  0  0  0
  3  4  1  0  0  0  0
  3  9  1  0  0  0  0
  5  4  1  0  0  0  0
  5 11  1  0  0  0  0
  8  3  1  0  0  0  0
 10  5  1  0  0  0  0
 14 13  2  6  0  0  0
 14 15  1  0  0  0  0
 14 12  1  0  0  0  0
 16 15  1  0  0  0  0
 17 14  1  0  0  0  0
 18 23  2  0  0  0  0
 18 19  1  0  0  0  0
 19 20  2  0  0  0  0
 20 21  1  0  0  0  0
 20 25  1  0  0  0  0
 22 17  1  0  0  0  0
 22 21  2  0  0  0  0
 23 22  1  0  0  0  0
 24 19  1  0  0  0  0
 26 18  1  0  0  0  0
 27 26  1  0  0  0  0
 28  1  1  0  0  0  0
 29 34  1  1  0  0  0
 29 30  1  0  0  0  0
 30 31  1  0  0  0  0
 30 28  1  1  0  0  0
 32 31  1  0  0  0  0
 33 36  1  1  0  0  0
 33 29  1  0  0  0  0
 33 32  1  0  0  0  0
 34 35  1  0  0  0  0
 37 36  1  0  0  0  0
M  END
>  <minimizedAffinity>
-5.81671667

$$$$

 OpenBabel03252500263D

 37 39  0  0  1  0  0  0  0  0999 V2000
   40.6540   32.1090   39.1830 C   0  0  2  0  0  0  0  0  0  0  0  0
   41.6530   31.9720   40.2640 C   0  0  2  0  0  0  0  0  0  0  0  0
   42.9050   32.4880   39.6520 C   0  0  0  0  0  0  0  0  0  0  0  0
   42.5500   33.4330   38.7060 O   0  0  0  0  0  0  0  0  0  0  0  0
   41.2040   33.3970   38.5300 C   0  0  0  0  0  0  0  0  0  0  0  0
   40.5380   31.4770   38.3550 H   0  0  0  0  0  0  0  0  0  0  0  0
   41.2940   32.5910   41.1100 H   0  0  0  0  0  0  0  0  0  0  0  0
   43.4080   33.1070   40.4550 H   0  0  0  0  0  0  0  0  0  0  0  0
   43.6710   31.7810   39.3710 H   0  0  0  0  0  0  0  0  0  0  0  0
   40.7640   34.2880   39.0210 H   0  0  0  0  0  0  0  0  0  0  0  0
   40.9520   33.4830   37.4720 H   0  0  0  0  0  0  0  0  0  0  0  0
   41.7780   30.6930   40.7530 O   0  0  0  0  0  0  0  0  0  0  0  0
   42.4770   31.3300   43.1400 O   0  0  0  0  0  0  0  0  0  0  0  0
   41.3720   30.6630   42.3660 P   0  0  1  0  0  0  0  0  0  0  0  0
   39.9390   31.5330   42.6070 O   0  0  0  0  0  0  0  0  0  0  0  0
   39.2360   30.8830   42.8350 H   0  0  0  0  0  0  0  0  0  0  0  0
   41.2160   29.0710   42.9690 O   0  0  0  0  0  0  0  0  0  0  0  0
   37.7390   28.3240   43.2420 C   0  0  0  0  0  0  0  0  0  0  0  0
   37.6190   27.0050   42.7180 C   0  0  0  0  0  0  0  0  0  0  0  0
   38.8100   26.3970   42.2690 C   0  0  0  0  0  0  0  0  0  0  0  0
   39.9640   27.0950   42.3640 N   0  0  0  0  0  0  0  0  0  0  0  0
   40.0250   28.3450   42.8690 C   0  0  0  0  0  0  0  0  0  0  0  0
   38.9090   28.9500   43.3040 N   0  0  0  0  0  0  0  0  0  0  0  0
   36.6640   26.5340   42.6840 H   0  0  0  0  0  0  0  0  0  0  0  0
   38.7600   25.4030   41.8680 H   0  0  0  0  0  0  0  0  0  0  0  0
   36.5760   28.9150   43.6800 O   0  0  0  0  0  0  0  0  0  0  0  0
   36.4660   29.8990   43.4610 H   0  0  0  0  0  0  0  0  0  0  0  0
   39.3660   32.2760   39.6320 O   0  0  0  0  0  0  0  0  0  0  0  0
   37.0450   31.9850   39.6700 C   0  0  1  0  0  3  0  0  0  0  0  0
   38.4130   31.3860   39.3650 C   0  0  2  0  0  3  0  0  0  0  0  0
   38.4750   30.3890   40.3450 O   0  0  0  0  0  0  0  0  0  0  0  0
   37.3220   29.6540   39.9830 C   0  0  0  0  0  2  0  0  0  0  0  0
   36.2670   30.7450   40.0580 C   0  0  1  0  0  3  0  0  0  0  0  0
   37.0890   32.9100   40.6790 O   0  0  0  0  0  0  0  0  0  0  0  0
   37.9540   33.0120   41.1160 H   0  0  0  0  0  0  0  0  0  0  0  0
   35.8270   30.9200   41.3800 O   0  0  0  0  0  0  0  0  0  0  0  0
   35.5960   31.8820   41.4500 H   0  0  0  0  0  0  0  0  0  0  0  0
  1  6  1  6  0  0  0
  1 28  1  0  0  0  0
  1  2  1  0  0  0  0
  2 12  1  0  0  0  0
  2  7  1  1  0  0  0
  3  2  1  0  0  0  0
  3  8  1  0  0  0  0
  4  3  1  0  0  0  0
  5  4  1  0  0  0  0
  5 10  1  0  0  0  0
  5  1  1  0  0  0  0
  9  3  1  0  0  0  0
 11  5  1  0  0  0  0
 12 14  1  0  0  0  0
 14 15  1  0  0  0  0
 14 17  1  0  0  0  0
 14 13  2  1  0  0  0
 15 16  1  0  0  0  0
 18 23  1  0  0  0  0
 18 26  1  0  0  0  0
 19 18  2  0  0  0  0
 20 21  2  0  0  0  0
 20 19  1  0  0  0  0
 21 22  1  0  0  0  0
 22 17  1  0  0  0  0
 22 23  2  0  0  0  0
 24 19  1  0  0  0  0
 25 20  1  0  0  0  0
 27 26  1  0  0  0  0
 29 33  1  0  0  0  0
 29 34  1  1  0  0  0
 30 28  1  1  0  0  0
 30 29  1  0  0  0  0
 30 31  1  0  0  0  0
 32 33  1  0  0  0  0
 32 31  1  0  0  0  0
 33 36  1  1  0  0  0
 34 35  1  0  0  0  0
 36 37  1  0  0  0  0
M  END
>  <minimizedAffinity>
-5.70445585

$$$$

 OpenBabel03252500263D

 37 39  0  0  1  0  0  0  0  0999 V2000
   40.7030   27.5910   42.3570 C   0  0  2  0  0  0  0  0  0  0  0  0
   39.4260   27.0340   42.8520 C   0  0  2  0  0  0  0  0  0  0  0  0
   39.7550   25.6160   43.1520 C   0  0  0  0  0  0  0  0  0  0  0  0
   41.0930   25.5610   43.4970 O   0  0  0  0  0  0  0  0  0  0  0  0
   41.6670   26.7640   43.2380 C   0  0  0  0  0  0  0  0  0  0  0  0
   41.1140   27.4600   41.4010 H   0  0  0  0  0  0  0  0  0  0  0  0
   39.1520   27.6170   43.7520 H   0  0  0  0  0  0  0  0  0  0  0  0
   39.2300   25.3770   44.1250 H   0  0  0  0  0  0  0  0  0  0  0  0
   39.3930   24.8500   42.4820 H   0  0  0  0  0  0  0  0  0  0  0  0
   41.8370   27.2840   44.2020 H   0  0  0  0  0  0  0  0  0  0  0  0
   42.6520   26.6330   42.7890 H   0  0  0  0  0  0  0  0  0  0  0  0
   38.3760   27.1700   41.9740 O   0  0  0  0  0  0  0  0  0  0  0  0
   36.4810   27.4780   43.6780 O   0  0  0  0  0  0  0  0  0  0  0  0
   37.2430   28.2100   42.6070 P   0  0  1  0  0  0  0  0  0  0  0  0
   38.0230   29.5400   43.3090 O   0  0  0  0  0  0  0  0  0  0  0  0
   37.8320   30.3240   42.7440 H   0  0  0  0  0  0  0  0  0  0  0  0
   36.1090   28.7280   41.4380 O   0  0  0  0  0  0  0  0  0  0  0  0
   36.8490   31.8830   39.9480 C   0  0  0  0  0  0  0  0  0  0  0  0
   37.0540   31.5840   38.5710 C   0  0  0  0  0  0  0  0  0  0  0  0
   36.9200   30.2320   38.1960 C   0  0  0  0  0  0  0  0  0  0  0  0
   36.6120   29.3270   39.1520 N   0  0  0  0  0  0  0  0  0  0  0  0
   36.4280   29.6610   40.4460 C   0  0  0  0  0  0  0  0  0  0  0  0
   36.5490   30.9400   40.8340 N   0  0  0  0  0  0  0  0  0  0  0  0
   37.2940   32.3680   37.8890 H   0  0  0  0  0  0  0  0  0  0  0  0
   37.0670   29.9670   37.1660 H   0  0  0  0  0  0  0  0  0  0  0  0
   36.9800   33.2040   40.3130 O   0  0  0  0  0  0  0  0  0  0  0  0
   37.4490   33.3800   41.1940 H   0  0  0  0  0  0  0  0  0  0  0  0
   40.8440   28.9410   42.5750 O   0  0  0  0  0  0  0  0  0  0  0  0
   41.2980   31.1930   42.1340 C   0  0  1  0  0  3  0  0  0  0  0  0
   41.1180   29.7830   41.5810 C   0  0  2  0  0  3  0  0  0  0  0  0
   39.9480   29.9540   40.8340 O   0  0  0  0  0  0  0  0  0  0  0  0
   40.3940   30.9690   39.9560 C   0  0  0  0  0  2  0  0  0  0  0  0
   40.8310   32.0240   40.9580 C   0  0  1  0  0  3  0  0  0  0  0  0
   40.5520   31.4160   43.2600 O   0  0  0  0  0  0  0  0  0  0  0  0
   39.9560   30.6890   43.5180 H   0  0  0  0  0  0  0  0  0  0  0  0
   39.7310   32.7840   41.3890 O   0  0  0  0  0  0  0  0  0  0  0  0
   39.9450   33.0400   42.3240 H   0  0  0  0  0  0  0  0  0  0  0  0
  1  6  1  6  0  0  0
  1 28  1  0  0  0  0
  1  2  1  0  0  0  0
  1  5  1  0  0  0  0
  2  3  1  0  0  0  0
  2  7  1  1  0  0  0
  3  4  1  0  0  0  0
  3  8  1  0  0  0  0
  5  4  1  0  0  0  0
  5 10  1  0  0  0  0
  9  3  1  0  0  0  0
 11  5  1  0  0  0  0
 12 14  1  0  0  0  0
 12  2  1  0  0  0  0
 14 15  1  0  0  0  0
 14 13  2  1  0  0  0
 16 15  1  0  0  0  0
 17 14  1  0  0  0  0
 18 26  1  0  0  0  0
 18 23  1  0  0  0  0
 19 18  2  0  0  0  0
 20 19  1  0  0  0  0
 20 21  2  0  0  0  0
 21 22  1  0  0  0  0
 22 23  2  0  0  0  0
 22 17  1  0  0  0  0
 24 19  1  0  0  0  0
 25 20  1  0  0  0  0
 26 27  1  0  0  0  0
 29 34  1  1  0  0  0
 30 29  1  0  0  0  0
 30 28  1  1  0  0  0
 31 30  1  0  0  0  0
 32 31  1  0  0  0  0
 32 33  1  0  0  0  0
 33 36  1  1  0  0  0
 33 29  1  0  0  0  0
 34 35  1  0  0  0  0
 36 37  1  0  0  0  0
M  END
>  <minimizedAffinity>
-5.61638927

$$$$

 OpenBabel03252500263D

 37 39  0  0  1  0  0  0  0  0999 V2000
   36.1510   29.6060   39.8860 C   0  0  2  0  0  0  0  0  0  0  0  0
   37.1470   30.4960   40.5200 C   0  0  2  0  0  0  0  0  0  0  0  0
   37.4650   29.8100   41.8000 C   0  0  0  0  0  0  0  0  0  0  0  0
   37.2910   28.4520   41.6010 O   0  0  0  0  0  0  0  0  0  0  0  0
   36.6990   28.2540   40.3950 C   0  0  0  0  0  0  0  0  0  0  0  0
   35.1340   29.5350   40.1270 H   0  0  0  0  0  0  0  0  0  0  0  0
   38.0110   30.5510   39.8290 H   0  0  0  0  0  0  0  0  0  0  0  0
   38.5850   29.9070   41.9310 H   0  0  0  0  0  0  0  0  0  0  0  0
   37.0730   30.2220   42.7170 H   0  0  0  0  0  0  0  0  0  0  0  0
   37.4630   27.8660   39.6910 H   0  0  0  0  0  0  0  0  0  0  0  0
   35.9340   27.4800   40.4630 H   0  0  0  0  0  0  0  0  0  0  0  0
   36.7150   31.7890   40.6940 O   0  0  0  0  0  0  0  0  0  0  0  0
   36.9470   33.6790   38.9730 O   0  0  0  0  0  0  0  0  0  0  0  0
   37.7520   32.8400   39.9280 P   0  0  1  0  0  0  0  0  0  0  0  0
   38.4720   33.8610   41.0720 O   0  0  0  0  0  0  0  0  0  0  0  0
   39.4220   33.6090   41.1330 H   0  0  0  0  0  0  0  0  0  0  0  0
   38.9450   32.0270   39.0140 O   0  0  0  0  0  0  0  0  0  0  0  0
   41.9930   33.4070   37.7780 C   0  0  0  0  0  0  0  0  0  0  0  0
   42.9080   33.2670   38.8590 C   0  0  0  0  0  0  0  0  0  0  0  0
   42.4060   32.6690   40.0340 C   0  0  0  0  0  0  0  0  0  0  0  0
   41.1120   32.2760   40.0520 N   0  0  0  0  0  0  0  0  0  0  0  0
   40.2830   32.4310   38.9990 C   0  0  0  0  0  0  0  0  0  0  0  0
   40.7320   32.9970   37.8680 N   0  0  0  0  0  0  0  0  0  0  0  0
   43.9120   33.6070   38.7500 H   0  0  0  0  0  0  0  0  0  0  0  0
   43.0660   32.5460   40.8700 H   0  0  0  0  0  0  0  0  0  0  0  0
   42.4850   33.9910   36.6320 O   0  0  0  0  0  0  0  0  0  0  0  0
   41.8650   34.6380   36.1600 H   0  0  0  0  0  0  0  0  0  0  0  0
   36.1430   29.6680   38.5130 O   0  0  0  0  0  0  0  0  0  0  0  0
   37.7370   28.9300   36.9670 C   0  0  1  0  0  3  0  0  0  0  0  0
   36.4760   28.6180   37.7650 C   0  0  2  0  0  3  0  0  0  0  0  0
   35.5410   28.5190   36.7300 O   0  0  0  0  0  0  0  0  0  0  0  0
   36.1440   27.4760   35.9890 C   0  0  0  0  0  2  0  0  0  0  0  0
   37.5160   28.0790   35.7350 C   0  0  1  0  0  3  0  0  0  0  0  0
   37.8530   30.2620   36.6680 O   0  0  0  0  0  0  0  0  0  0  0  0
   37.0970   30.8170   36.9300 H   0  0  0  0  0  0  0  0  0  0  0  0
   37.4810   28.9410   34.6270 O   0  0  0  0  0  0  0  0  0  0  0  0
   38.1580   29.6400   34.8230 H   0  0  0  0  0  0  0  0  0  0  0  0
  1  6  1  1  0  0  0
  1  5  1  0  0  0  0
  1  2  1  0  0  0  0
  2  7  1  6  0  0  0
  2 12  1  0  0  0  0
  2  3  1  0  0  0  0
  3  8  1  0  0  0  0
  3  9  1  0  0  0  0
  4  3  1  0  0  0  0
  5 11  1  0  0  0  0
  5  4  1  0  0  0  0
 10  5  1  0  0  0  0
 14 13  2  6  0  0  0
 14 12  1  0  0  0  0
 14 15  1  0  0  0  0
 15 16  1  0  0  0  0
 17 14  1  0  0  0  0
 18 23  2  0  0  0  0
 18 19  1  0  0  0  0
 19 20  2  0  0  0  0
 20 21  1  0  0  0  0
 20 25  1  0  0  0  0
 22 17  1  0  0  0  0
 22 21  2  0  0  0  0
 23 22  1  0  0  0  0
 24 19  1  0  0  0  0
 26 18  1  0  0  0  0
 27 26  1  0  0  0  0
 28  1  1  0  0  0  0
 29 34  1  6  0  0  0
 29 30  1  0  0  0  0
 30 28  1  1  0  0  0
 31 30  1  0  0  0  0
 32 31  1  0  0  0  0
 33 36  1  6  0  0  0
 33 32  1  0  0  0  0
 33 29  1  0  0  0  0
 34 35  1  0  0  0  0
 36 37  1  0  0  0  0
M  END
>  <minimizedAffinity>
-5.60998964

$$$$

 OpenBabel03252500263D

 37 39  0  0  1  0  0  0  0  0999 V2000
   41.7830   31.9810   39.4610 C   0  0  2  0  0  0  0  0  0  0  0  0
   42.4320   31.2390   40.5620 C   0  0  2  0  0  0  0  0  0  0  0  0
   43.7990   30.9680   40.0460 C   0  0  0  0  0  0  0  0  0  0  0  0
   44.1270   31.9910   39.1740 O   0  0  0  0  0  0  0  0  0  0  0  0
   43.0220   32.7470   38.9440 C   0  0  0  0  0  0  0  0  0  0  0  0
   41.3940   31.5730   38.5770 H   0  0  0  0  0  0  0  0  0  0  0  0
   42.4240   31.9080   41.4450 H   0  0  0  0  0  0  0  0  0  0  0  0
   44.4980   31.1430   40.9180 H   0  0  0  0  0  0  0  0  0  0  0  0
   44.0430   29.9640   39.7320 H   0  0  0  0  0  0  0  0  0  0  0  0
   43.1330   33.7020   39.4950 H   0  0  0  0  0  0  0  0  0  0  0  0
   42.9510   33.0150   37.8890 H   0  0  0  0  0  0  0  0  0  0  0  0
   41.7630   30.0990   40.9420 O   0  0  0  0  0  0  0  0  0  0  0  0
   42.4750   30.4790   43.3780 O   0  0  0  0  0  0  0  0  0  0  0  0
   41.2620   30.2370   42.5220 P   0  0  1  0  0  0  0  0  0  0  0  0
   40.2190   31.5630   42.6720 O   0  0  0  0  0  0  0  0  0  0  0  0
   39.3160   31.2080   42.8440 H   0  0  0  0  0  0  0  0  0  0  0  0
   40.5090   28.8130   43.0940 O   0  0  0  0  0  0  0  0  0  0  0  0
   37.1070   29.2210   42.1050 C   0  0  0  0  0  0  0  0  0  0  0  0
   36.5950   27.8940   42.0450 C   0  0  0  0  0  0  0  0  0  0  0  0
   37.4970   26.8580   42.3660 C   0  0  0  0  0  0  0  0  0  0  0  0
   38.7630   27.1900   42.7030 N   0  0  0  0  0  0  0  0  0  0  0  0
   39.2010   28.4650   42.7460 C   0  0  0  0  0  0  0  0  0  0  0  0
   38.3670   29.4730   42.4450 N   0  0  0  0  0  0  0  0  0  0  0  0
   35.5790   27.7310   41.7680 H   0  0  0  0  0  0  0  0  0  0  0  0
   37.1470   25.8440   42.3330 H   0  0  0  0  0  0  0  0  0  0  0  0
   36.2250   30.2310   41.7920 O   0  0  0  0  0  0  0  0  0  0  0  0
   36.5990   30.9930   41.2380 H   0  0  0  0  0  0  0  0  0  0  0  0
   40.7910   32.8370   39.8740 O   0  0  0  0  0  0  0  0  0  0  0  0
   38.6560   33.7870   40.0020 C   0  0  1  0  0  3  0  0  0  0  0  0
   39.6580   32.9760   39.1880 C   0  0  2  0  0  3  0  0  0  0  0  0
   39.0180   31.7320   39.1680 O   0  0  0  0  0  0  0  0  0  0  0  0
   37.8050   32.1200   38.5510 C   0  0  0  0  0  2  0  0  0  0  0  0
   37.3480   33.2080   39.5070 C   0  0  1  0  0  3  0  0  0  0  0  0
   38.8210   33.6240   41.3520 O   0  0  0  0  0  0  0  0  0  0  0  0
   39.4920   32.9690   41.6160 H   0  0  0  0  0  0  0  0  0  0  0  0
   36.6880   32.6510   40.6140 O   0  0  0  0  0  0  0  0  0  0  0  0
   36.8840   33.2650   41.3680 H   0  0  0  0  0  0  0  0  0  0  0  0
  1  6  1  6  0  0  0
  1 28  1  0  0  0  0
  1  2  1  0  0  0  0
  2 12  1  0  0  0  0
  2  7  1  1  0  0  0
  3  2  1  0  0  0  0
  3  8  1  0  0  0  0
  4  3  1  0  0  0  0
  5  4  1  0  0  0  0
  5  1  1  0  0  0  0
  5 10  1  0  0  0  0
  9  3  1  0  0  0  0
 11  5  1  0  0  0  0
 12 14  1  0  0  0  0
 14 15  1  0  0  0  0
 14 17  1  0  0  0  0
 14 13  2  1  0  0  0
 15 16  1  0  0  0  0
 18 23  1  0  0  0  0
 19 18  2  0  0  0  0
 19 20  1  0  0  0  0
 20 21  2  0  0  0  0
 21 22  1  0  0  0  0
 22 17  1  0  0  0  0
 23 22  2  0  0  0  0
 24 19  1  0  0  0  0
 25 20  1  0  0  0  0
 26 18  1  0  0  0  0
 27 26  1  0  0  0  0
 29 34  1  1  0  0  0
 30 28  1  1  0  0  0
 30 29  1  0  0  0  0
 31 30  1  0  0  0  0
 32 31  1  0  0  0  0
 32 33  1  0  0  0  0
 33 29  1  0  0  0  0
 33 36  1  1  0  0  0
 34 35  1  0  0  0  0
 36 37  1  0  0  0  0
M  END
>  <minimizedAffinity>
-5.60713768

$$$$

 OpenBabel03252500263D

 37 39  0  0  1  0  0  0  0  0999 V2000
   37.0570   29.7480   37.6080 C   0  0  2  0  0  0  0  0  0  0  0  0
   36.1040   28.8030   36.9900 C   0  0  2  0  0  0  0  0  0  0  0  0
   36.8580   28.2480   35.8350 C   0  0  0  0  0  0  0  0  0  0  0  0
   38.2020   28.2720   36.1630 O   0  0  0  0  0  0  0  0  0  0  0  0
   38.3630   28.9760   37.3140 C   0  0  0  0  0  0  0  0  0  0  0  0
   37.2920   30.7110   37.2690 H   0  0  0  0  0  0  0  0  0  0  0  0
   35.8640   28.0420   37.7590 H   0  0  0  0  0  0  0  0  0  0  0  0
   36.6200   27.1420   35.8140 H   0  0  0  0  0  0  0  0  0  0  0  0
   36.5930   28.5760   34.8410 H   0  0  0  0  0  0  0  0  0  0  0  0
   38.5730   28.2590   38.1340 H   0  0  0  0  0  0  0  0  0  0  0  0
   39.2390   29.6230   37.2500 H   0  0  0  0  0  0  0  0  0  0  0  0
   34.9050   29.3710   36.6280 O   0  0  0  0  0  0  0  0  0  0  0  0
   33.9910   27.0700   37.3070 O   0  0  0  0  0  0  0  0  0  0  0  0
   33.6490   28.5350   37.3290 P   0  0  1  0  0  0  0  0  0  0  0  0
   33.4710   29.0260   38.9410 O   0  0  0  0  0  0  0  0  0  0  0  0
   32.6290   29.5340   39.0010 H   0  0  0  0  0  0  0  0  0  0  0  0
   32.1810   28.7300   36.4770 O   0  0  0  0  0  0  0  0  0  0  0  0
   30.0810   31.3320   37.7190 C   0  0  0  0  0  0  0  0  0  0  0  0
   29.9930   32.2590   36.6420 C   0  0  0  0  0  0  0  0  0  0  0  0
   30.7010   31.9270   35.4680 C   0  0  0  0  0  0  0  0  0  0  0  0
   31.4030   30.7720   35.4460 N   0  0  0  0  0  0  0  0  0  0  0  0
   31.4560   29.9250   36.4950 C   0  0  0  0  0  0  0  0  0  0  0  0
   30.7930   30.2130   37.6260 N   0  0  0  0  0  0  0  0  0  0  0  0
   29.4120   33.1460   36.7530 H   0  0  0  0  0  0  0  0  0  0  0  0
   30.6580   32.6000   34.6340 H   0  0  0  0  0  0  0  0  0  0  0  0
   29.3890   31.6580   38.8640 O   0  0  0  0  0  0  0  0  0  0  0  0
   29.8580   31.4590   39.7400 H   0  0  0  0  0  0  0  0  0  0  0  0
   36.8660   29.9290   38.9580 O   0  0  0  0  0  0  0  0  0  0  0  0
   36.2020   28.8200   40.9070 C   0  0  1  0  0  3  0  0  0  0  0  0
   37.2780   29.0280   39.8470 C   0  0  2  0  0  3  0  0  0  0  0  0
   38.2810   29.6210   40.6200 O   0  0  0  0  0  0  0  0  0  0  0  0
   38.4640   28.5900   41.5710 C   0  0  0  0  0  2  0  0  0  0  0  0
   37.0490   28.4620   42.1100 C   0  0  1  0  0  3  0  0  0  0  0  0
   35.4460   29.9420   41.1170 O   0  0  0  0  0  0  0  0  0  0  0  0
   35.7320   30.7360   40.6300 H   0  0  0  0  0  0  0  0  0  0  0  0
   36.8060   29.4270   43.1000 O   0  0  0  0  0  0  0  0  0  0  0  0
   35.8390   29.6370   43.0240 H   0  0  0  0  0  0  0  0  0  0  0  0
  1  6  1  6  0  0  0
  1 28  1  0  0  0  0
  2  1  1  0  0  0  0
  2  7  1  1  0  0  0
  3  4  1  0  0  0  0
  3  2  1  0  0  0  0
  4  5  1  0  0  0  0
  5  1  1  0  0  0  0
  5 10  1  0  0  0  0
  8  3  1  0  0  0  0
  9  3  1  0  0  0  0
 11  5  1  0  0  0  0
 12  2  1  0  0  0  0
 12 14  1  0  0  0  0
 14 13  2  6  0  0  0
 14 15  1  0  0  0  0
 15 16  1  0  0  0  0
 17 22  1  0  0  0  0
 17 14  1  0  0  0  0
 18 26  1  0  0  0  0
 19 24  1  0  0  0  0
 19 18  2  0  0  0  0
 20 19  1  0  0  0  0
 21 20  2  0  0  0  0
 21 22  1  0  0  0  0
 22 23  2  0  0  0  0
 23 18  1  0  0  0  0
 25 20  1  0  0  0  0
 26 27  1  0  0  0  0
 29 34  1  1  0  0  0
 29 33  1  0  0  0  0
 30 28  1  6  0  0  0
 30 31  1  0  0  0  0
 30 29  1  0  0  0  0
 31 32  1  0  0  0  0
 32 33  1  0  0  0  0
 33 36  1  1  0  0  0
 35 34  1  0  0  0  0
 37 36  1  0  0  0  0
M  END
>  <minimizedAffinity>
-5.50511169

$$$$

 OpenBabel03252500263D

 37 39  0  0  1  0  0  0  0  0999 V2000
   40.5710   32.1160   38.1220 C   0  0  2  0  0  0  0  0  0  0  0  0
   39.5970   31.1740   38.7130 C   0  0  2  0  0  0  0  0  0  0  0  0
   39.7060   29.9690   37.8500 C   0  0  0  0  0  0  0  0  0  0  0  0
   40.9970   29.9240   37.3560 O   0  0  0  0  0  0  0  0  0  0  0  0
   41.6280   31.0870   37.6600 C   0  0  0  0  0  0  0  0  0  0  0  0
   40.4360   32.6940   37.2580 H   0  0  0  0  0  0  0  0  0  0  0  0
   39.9210   30.9930   39.7570 H   0  0  0  0  0  0  0  0  0  0  0  0
   39.6700   29.0830   38.5530 H   0  0  0  0  0  0  0  0  0  0  0  0
   38.9090   29.7620   37.1510 H   0  0  0  0  0  0  0  0  0  0  0  0
   42.3470   30.8900   38.4810 H   0  0  0  0  0  0  0  0  0  0  0  0
   42.2240   31.4350   36.8150 H   0  0  0  0  0  0  0  0  0  0  0  0
   38.3160   31.6670   38.7920 O   0  0  0  0  0  0  0  0  0  0  0  0
   38.2580   33.3260   40.7510 O   0  0  0  0  0  0  0  0  0  0  0  0
   37.9010   31.9110   40.3850 P   0  0  1  0  0  0  0  0  0  0  0  0
   36.2290   31.7080   40.5720 O   0  0  0  0  0  0  0  0  0  0  0  0
   36.0900   30.8790   41.0860 H   0  0  0  0  0  0  0  0  0  0  0  0
   38.7530   30.8780   41.4460 O   0  0  0  0  0  0  0  0  0  0  0  0
   37.1080   27.7140   41.3920 C   0  0  0  0  0  0  0  0  0  0  0  0
   37.1130   27.2900   42.7520 C   0  0  0  0  0  0  0  0  0  0  0  0
   37.7170   28.1630   43.6790 C   0  0  0  0  0  0  0  0  0  0  0  0
   38.2420   29.3230   43.2230 N   0  0  0  0  0  0  0  0  0  0  0  0
   38.2120   29.6800   41.9220 C   0  0  0  0  0  0  0  0  0  0  0  0
   37.6440   28.8700   41.0150 N   0  0  0  0  0  0  0  0  0  0  0  0
   36.6730   26.3560   43.0160 H   0  0  0  0  0  0  0  0  0  0  0  0
   37.7400   27.8790   44.7140 H   0  0  0  0  0  0  0  0  0  0  0  0
   36.5170   26.8600   40.4880 O   0  0  0  0  0  0  0  0  0  0  0  0
   36.9860   26.7610   39.5950 H   0  0  0  0  0  0  0  0  0  0  0  0
   41.0940   33.0140   39.0220 O   0  0  0  0  0  0  0  0  0  0  0  0
   42.1290   32.4770   41.0490 C   0  0  1  0  0  3  0  0  0  0  0  0
   42.2910   32.8310   39.5750 C   0  0  2  0  0  3  0  0  0  0  0  0
   42.9060   34.0820   39.6830 O   0  0  0  0  0  0  0  0  0  0  0  0
   44.0560   33.6980   40.4130 C   0  0  0  0  0  2  0  0  0  0  0  0
   43.4070   33.0510   41.6240 C   0  0  1  0  0  3  0  0  0  0  0  0
   41.0090   33.0360   41.6050 O   0  0  0  0  0  0  0  0  0  0  0  0
   40.5090   33.6360   41.0230 H   0  0  0  0  0  0  0  0  0  0  0  0
   43.0440   34.0230   42.5710 O   0  0  0  0  0  0  0  0  0  0  0  0
   42.2340   33.6600   43.0160 H   0  0  0  0  0  0  0  0  0  0  0  0
  1  6  1  6  0  0  0
  1  2  1  0  0  0  0
  1 28  1  0  0  0  0
  2 12  1  0  0  0  0
  2  7  1  1  0  0  0
  3  8  1  0  0  0  0
  3  2  1  0  0  0  0
  4  5  1  0  0  0  0
  4  3  1  0  0  0  0
  5  1  1  0  0  0  0
  5 10  1  0  0  0  0
  9  3  1  0  0  0  0
 11  5  1  0  0  0  0
 12 14  1  0  0  0  0
 14 15  1  0  0  0  0
 14 13  2  1  0  0  0
 14 17  1  0  0  0  0
 15 16  1  0  0  0  0
 17 22  1  0  0  0  0
 18 19  1  0  0  0  0
 19 24  1  0  0  0  0
 19 20  2  0  0  0  0
 20 25  1  0  0  0  0
 21 20  1  0  0  0  0
 22 21  2  0  0  0  0
 23 18  2  0  0  0  0
 23 22  1  0  0  0  0
 26 18  1  0  0  0  0
 27 26  1  0  0  0  0
 29 34  1  1  0  0  0
 29 33  1  0  0  0  0
 30 28  1  1  0  0  0
 30 31  1  0  0  0  0
 30 29  1  0  0  0  0
 31 32  1  0  0  0  0
 32 33  1  0  0  0  0
 33 36  1  1  0  0  0
 35 34  1  0  0  0  0
 36 37  1  0  0  0  0
M  END
>  <minimizedAffinity>
-5.38128805

$$$$
