
 OpenBabel03252500243D

 37 39  0  0  1  0  0  0  0  0999 V2000
   47.2920   30.5710   48.3290 C   0  0  2  0  0  0  0  0  0  0  0  0
   45.8660   30.8060   48.6420 C   0  0  2  0  0  0  0  0  0  0  0  0
   45.1520   29.8280   47.7800 C   0  0  0  0  0  0  0  0  0  0  0  0
   45.9900   28.7430   47.5950 O   0  0  0  0  0  0  0  0  0  0  0  0
   47.2210   29.0480   48.0830 C   0  0  0  0  0  0  0  0  0  0  0  0
   47.8090   30.9060   47.4810 H   0  0  0  0  0  0  0  0  0  0  0  0
   45.7400   30.6060   49.7240 H   0  0  0  0  0  0  0  0  0  0  0  0
   44.3210   29.4030   48.4190 H   0  0  0  0  0  0  0  0  0  0  0  0
   44.6300   30.1940   46.9080 H   0  0  0  0  0  0  0  0  0  0  0  0
   47.3620   28.5030   49.0380 H   0  0  0  0  0  0  0  0  0  0  0  0
   48.0020   28.6850   47.4120 H   0  0  0  0  0  0  0  0  0  0  0  0
   45.4540   32.1030   48.4430 O   0  0  0  0  0  0  0  0  0  0  0  0
   47.2990   32.8800   46.8370 O   0  0  0  0  0  0  0  0  0  0  0  0
   45.8250   32.5830   46.8940 P   0  0  1  0  0  0  0  0  0  0  0  0
   45.4840   31.3240   45.8130 O   0  0  0  0  0  0  0  0  0  0  0  0
   44.7050   31.6010   45.2770 H   0  0  0  0  0  0  0  0  0  0  0  0
   44.9980   34.0060   46.4370 O   0  0  0  0  0  0  0  0  0  0  0  0
   44.9630   36.3630   43.7610 C   0  0  0  0  0  0  0  0  0  0  0  0
   45.0280   35.5630   42.5850 C   0  0  0  0  0  0  0  0  0  0  0  0
   45.0840   34.1670   42.7770 C   0  0  0  0  0  0  0  0  0  0  0  0
   45.0730   33.6920   44.0430 N   0  0  0  0  0  0  0  0  0  0  0  0
   45.0100   34.4930   45.1260 C   0  0  0  0  0  0  0  0  0  0  0  0
   44.9560   35.8250   44.9760 N   0  0  0  0  0  0  0  0  0  0  0  0
   45.0320   36.0300   41.6260 H   0  0  0  0  0  0  0  0  0  0  0  0
   45.1340   33.5310   41.9140 H   0  0  0  0  0  0  0  0  0  0  0  0
   44.9070   37.7250   43.5700 O   0  0  0  0  0  0  0  0  0  0  0  0
   45.4540   38.2880   44.2120 H   0  0  0  0  0  0  0  0  0  0  0  0
   48.1470   30.8820   49.3600 O   0  0  0  0  0  0  0  0  0  0  0  0
   50.1590   30.0040   50.1690 C   0  0  1  0  0  0  0  0  0  0  0  0
   49.4650   30.9340   49.1800 C   0  0  2  0  0  0  0  0  0  0  0  0
   49.9090   32.1750   49.6490 O   0  0  0  0  0  0  0  0  0  0  0  0
   51.3030   31.9720   49.5180 C   0  0  0  0  0  0  0  0  0  0  0  0
   51.4780   30.7220   50.3630 C   0  0  1  0  0  0  0  0  0  0  0  0
   49.4620   29.8670   51.3400 O   0  0  0  0  0  0  0  0  0  0  0  0
   48.6680   30.4260   51.4230 H   0  0  0  0  0  0  0  0  0  0  0  0
   51.5820   31.0520   51.7230 O   0  0  0  0  0  0  0  0  0  0  0  0
   51.1810   30.2840   52.2070 H   0  0  0  0  0  0  0  0  0  0  0  0
  1  6  1  6  0  0  0
  1  2  1  0  0  0  0
  1 28  1  0  0  0  0
  2  7  1  1  0  0  0
  3  8  1  0  0  0  0
  3  2  1  0  0  0  0
  4  3  1  0  0  0  0
  4  5  1  0  0  0  0
  5  1  1  0  0  0  0
  5 10  1  0  0  0  0
  9  3  1  0  0  0  0
 11  5  1  0  0  0  0
 12  2  1  0  0  0  0
 14 13  2  6  0  0  0
 14 12  1  0  0  0  0
 15 14  1  0  0  0  0
 16 15  1  0  0  0  0
 17 14  1  0  0  0  0
 18 23  1  0  0  0  0
 19 20  1  0  0  0  0
 19 18  2  0  0  0  0
 20 21  2  0  0  0  0
 21 22  1  0  0  0  0
 22 17  1  0  0  0  0
 23 22  2  0  0  0  0
 24 19  1  0  0  0  0
 25 20  1  0  0  0  0
 26 18  1  0  0  0  0
 26 27  1  0  0  0  0
 29 33  1  0  0  0  0
 29 34  1  1  0  0  0
 30 28  1  1  0  0  0
 30 31  1  0  0  0  0
 30 29  1  0  0  0  0
 32 31  1  0  0  0  0
 32 33  1  0  0  0  0
 33 36  1  1  0  0  0
 34 35  1  0  0  0  0
 36 37  1  0  0  0  0
M  END
>  <minimizedAffinity>
-5.56608057

>  <minimizedRMSD>
1.17230272

$$$$
