
 OpenBabel03252506483D

 42 45  0  0  1  0  0  0  0  0999 V2000
   40.2690   32.5890   39.5460 N   0  0  1  0  0  0  0  0  0  0  0  0
   39.8060   33.9620   39.7330 C   0  0  0  0  0  0  0  0  0  0  0  0
   38.4600   34.0440   40.3950 C   0  0  0  0  0  0  0  0  0  0  0  0
   37.4170   33.4890   39.4370 C   0  0  0  0  0  0  0  0  0  0  0  0
   37.9770   32.3220   38.6700 C   0  0  0  0  0  0  0  0  0  0  0  0
   39.1230   31.7190   39.4400 C   0  0  2  0  0  0  0  0  0  0  0  0
   39.7320   34.5020   38.7800 H   0  0  0  0  0  0  0  0  0  0  0  0
   40.5660   34.4910   40.3430 H   0  0  0  0  0  0  0  0  0  0  0  0
   38.4270   33.5010   41.3630 H   0  0  0  0  0  0  0  0  0  0  0  0
   38.2710   35.1080   40.5920 H   0  0  0  0  0  0  0  0  0  0  0  0
   37.0150   34.2850   38.7830 H   0  0  0  0  0  0  0  0  0  0  0  0
   36.5590   33.1400   40.0640 H   0  0  0  0  0  0  0  0  0  0  0  0
   37.2570   31.5410   38.4400 H   0  0  0  0  0  0  0  0  0  0  0  0
   38.4180   32.7700   37.7330 H   0  0  0  0  0  0  0  0  0  0  0  0
   39.4540   30.8310   38.8410 H   0  0  0  0  0  0  0  0  0  0  0  0
   42.5990   32.2630   38.5140 C   0  0  1  0  0  0  0  0  0  0  0  0
   42.1970   33.6610   38.4260 C   0  0  0  0  0  0  0  0  0  0  0  0
   41.1310   32.6110   38.4200 C   0  0  2  0  0  0  0  0  0  0  0  0
   42.8260   31.7430   39.4760 H   0  0  0  0  0  0  0  0  0  0  0  0
   42.3220   34.2620   39.3690 H   0  0  0  0  0  0  0  0  0  0  0  0
   42.4260   34.2220   37.4970 H   0  0  0  0  0  0  0  0  0  0  0  0
   40.6880   32.3830   37.4280 H   0  0  0  0  0  0  0  0  0  0  0  0
   44.5950   31.8570   37.0380 C   0  0  0  0  0  0  0  0  0  0  0  0
   43.2440   31.5870   37.3620 C   0  0  0  0  0  0  0  0  0  0  0  0
   42.5580   30.6780   36.5610 C   0  0  0  0  0  0  0  0  0  0  0  0
   43.2230   30.1100   35.5290 N   0  0  0  0  0  0  0  0  0  0  0  0
   44.5020   30.3740   35.2360 C   0  0  0  0  0  0  0  0  0  0  0  0
   45.2090   31.2580   35.9920 N   0  0  0  0  0  0  0  0  0  0  0  0
   45.0850   32.5680   37.6860 H   0  0  0  0  0  0  0  0  0  0  0  0
   41.5220   30.4380   36.7680 H   0  0  0  0  0  0  0  0  0  0  0  0
   44.9430   29.8610   34.3820 H   0  0  0  0  0  0  0  0  0  0  0  0
   38.6820   31.2230   40.7110 N   0  0  0  0  0  0  0  0  0  0  0  0
   39.4800   30.9840   41.3120 H   0  0  0  0  0  0  0  0  0  0  0  0
   36.8370   29.9770   41.7230 C   0  0  2  0  0  3  0  0  0  0  0  0
   37.8590   30.0450   40.5900 C   0  0  2  0  0  3  0  0  0  0  0  0
   38.5600   28.8720   40.6640 O   0  0  0  0  0  0  0  0  0  0  0  0
   37.8520   27.9260   41.3560 C   0  0  0  0  0  2  0  0  0  0  0  0
   36.4880   28.5020   41.6660 C   0  0  1  0  0  3  0  0  0  0  0  0
   35.7340   30.7790   41.4530 O   0  0  0  0  0  0  0  0  0  0  0  0
   35.4920   30.6300   40.5020 H   0  0  0  0  0  0  0  0  0  0  0  0
   36.0760   28.0460   42.9390 O   0  0  0  0  0  0  0  0  0  0  0  0
   36.3330   27.0950   43.0350 H   0  0  0  0  0  0  0  0  0  0  0  0
  1  2  1  6  0  0  0
  2  8  1  0  0  0  0
  2  3  1  0  0  0  0
  3 10  1  0  0  0  0
  3  9  1  0  0  0  0
  4 12  1  0  0  0  0
  4  3  1  0  0  0  0
  5  4  1  0  0  0  0
  5  6  1  0  0  0  0
  6 15  1  6  0  0  0
  6  1  1  0  0  0  0
  6 32  1  0  0  0  0
  7  2  1  0  0  0  0
 11  4  1  0  0  0  0
 13  5  1  0  0  0  0
 14  5  1  0  0  0  0
 16 19  1  1  0  0  0
 17 16  1  0  0  0  0
 17 20  1  0  0  0  0
 18 22  1  6  0  0  0
 18 17  1  0  0  0  0
 18 16  1  0  0  0  0
 18  1  1  0  0  0  0
 21 17  1  0  0  0  0
 23 24  1  0  0  0  0
 23 29  1  0  0  0  0
 24 16  1  0  0  0  0
 25 30  1  0  0  0  0
 25 24  2  0  0  0  0
 26 25  1  0  0  0  0
 27 26  2  0  0  0  0
 27 28  1  0  0  0  0
 28 23  2  0  0  0  0
 31 27  1  0  0  0  0
 32 33  1  0  0  0  0
 34 39  1  6  0  0  0
 35 36  1  0  0  0  0
 35 32  1  1  0  0  0
 35 34  1  0  0  0  0
 36 37  1  0  0  0  0
 37 38  1  0  0  0  0
 38 34  1  0  0  0  0
 38 41  1  1  0  0  0
 40 39  1  0  0  0  0
 41 42  1  0  0  0  0
M  END
>  <minimizedAffinity>
-5.91306639

$$$$

 OpenBabel03252506483D

 42 45  0  0  1  0  0  0  0  0999 V2000
   40.3180   31.7480   40.1060 N   0  0  1  0  0  0  0  0  0  0  0  0
   41.4330   32.6740   39.9150 C   0  0  0  0  0  0  0  0  0  0  0  0
   41.3690   33.4080   38.6060 C   0  0  0  0  0  0  0  0  0  0  0  0
   41.5940   32.4090   37.4800 C   0  0  0  0  0  0  0  0  0  0  0  0
   40.9440   31.0930   37.8100 C   0  0  0  0  0  0  0  0  0  0  0  0
   39.8430   31.3150   38.8150 C   0  0  2  0  0  0  0  0  0  0  0  0
   42.4020   32.1590   39.9500 H   0  0  0  0  0  0  0  0  0  0  0  0
   41.4190   33.3930   40.7580 H   0  0  0  0  0  0  0  0  0  0  0  0
   40.4070   33.9440   38.4630 H   0  0  0  0  0  0  0  0  0  0  0  0
   42.1770   34.1520   38.6230 H   0  0  0  0  0  0  0  0  0  0  0  0
   42.6690   32.3140   37.2430 H   0  0  0  0  0  0  0  0  0  0  0  0
   41.1110   32.8400   36.5680 H   0  0  0  0  0  0  0  0  0  0  0  0
   40.5380   30.5590   36.9550 H   0  0  0  0  0  0  0  0  0  0  0  0
   41.7430   30.4930   38.3340 H   0  0  0  0  0  0  0  0  0  0  0  0
   39.3720   30.3090   38.9730 H   0  0  0  0  0  0  0  0  0  0  0  0
   40.1690   30.4320   42.3070 C   0  0  1  0  0  0  0  0  0  0  0  0
   41.4220   31.1740   42.2450 C   0  0  0  0  0  0  0  0  0  0  0  0
   40.7960   30.7240   40.9630 C   0  0  2  0  0  0  0  0  0  0  0  0
   39.1660   30.9150   42.3940 H   0  0  0  0  0  0  0  0  0  0  0  0
   41.3500   32.2690   42.4960 H   0  0  0  0  0  0  0  0  0  0  0  0
   42.3480   30.6860   42.6090 H   0  0  0  0  0  0  0  0  0  0  0  0
   41.2580   29.8330   40.4900 H   0  0  0  0  0  0  0  0  0  0  0  0
   38.9240   28.3170   42.8620 C   0  0  0  0  0  0  0  0  0  0  0  0
   40.1450   29.0290   42.7890 C   0  0  0  0  0  0  0  0  0  0  0  0
   41.3030   28.3670   43.1880 C   0  0  0  0  0  0  0  0  0  0  0  0
   41.1900   27.0890   43.6160 N   0  0  0  0  0  0  0  0  0  0  0  0
   40.0280   26.4280   43.6790 C   0  0  0  0  0  0  0  0  0  0  0  0
   38.8720   27.0390   43.2990 N   0  0  0  0  0  0  0  0  0  0  0  0
   38.0550   28.8710   42.5430 H   0  0  0  0  0  0  0  0  0  0  0  0
   42.2620   28.8680   43.1510 H   0  0  0  0  0  0  0  0  0  0  0  0
   40.0480   25.4000   44.0390 H   0  0  0  0  0  0  0  0  0  0  0  0
   38.8250   32.1720   38.2790 N   0  0  0  0  0  0  0  0  0  0  0  0
   38.9340   33.1340   38.6220 H   0  0  0  0  0  0  0  0  0  0  0  0
   37.2430   31.8910   40.1230 C   0  0  2  0  0  3  0  0  0  0  0  0
   37.4950   31.7340   38.6240 C   0  0  2  0  0  3  0  0  0  0  0  0
   37.2610   30.4140   38.3540 O   0  0  0  0  0  0  0  0  0  0  0  0
   36.4880   29.8480   39.3320 C   0  0  0  0  0  2  0  0  0  0  0  0
   36.0700   30.9440   40.2860 C   0  0  1  0  0  3  0  0  0  0  0  0
   36.8990   33.2010   40.4390 O   0  0  0  0  0  0  0  0  0  0  0  0
   36.2520   33.5050   39.7520 H   0  0  0  0  0  0  0  0  0  0  0  0
   36.0390   30.4230   41.6000 O   0  0  0  0  0  0  0  0  0  0  0  0
   35.6580   29.5110   41.5720 H   0  0  0  0  0  0  0  0  0  0  0  0
  1  2  1  6  0  0  0
  1 18  1  0  0  0  0
  2  7  1  0  0  0  0
  2  8  1  0  0  0  0
  3 10  1  0  0  0  0
  3  2  1  0  0  0  0
  4  5  1  0  0  0  0
  4  3  1  0  0  0  0
  5 14  1  0  0  0  0
  5  6  1  0  0  0  0
  6 15  1  1  0  0  0
  6  1  1  0  0  0  0
  9  3  1  0  0  0  0
 11  4  1  0  0  0  0
 12  4  1  0  0  0  0
 13  5  1  0  0  0  0
 16 19  1  1  0  0  0
 16 24  1  0  0  0  0
 17 16  1  0  0  0  0
 17 20  1  0  0  0  0
 17 21  1  0  0  0  0
 18 22  1  6  0  0  0
 18 17  1  0  0  0  0
 18 16  1  0  0  0  0
 23 28  1  0  0  0  0
 24 23  2  0  0  0  0
 24 25  1  0  0  0  0
 25 26  2  0  0  0  0
 26 27  1  0  0  0  0
 27 31  1  0  0  0  0
 28 27  2  0  0  0  0
 29 23  1  0  0  0  0
 30 25  1  0  0  0  0
 32 33  1  0  0  0  0
 32  6  1  0  0  0  0
 34 38  1  0  0  0  0
 34 39  1  6  0  0  0
 35 32  1  1  0  0  0
 35 34  1  0  0  0  0
 36 35  1  0  0  0  0
 36 37  1  0  0  0  0
 37 38  1  0  0  0  0
 38 41  1  1  0  0  0
 40 39  1  0  0  0  0
 42 41  1  0  0  0  0
M  END
>  <minimizedAffinity>
-5.5195241

$$$$

 OpenBabel03252506483D

 42 45  0  0  1  0  0  0  0  0999 V2000
   38.2020   31.3850   39.6690 N   0  0  1  0  0  0  0  0  0  0  0  0
   37.2450   32.4680   39.8860 C   0  0  0  0  0  0  0  0  0  0  0  0
   37.8080   33.8230   39.5650 C   0  0  0  0  0  0  0  0  0  0  0  0
   38.8880   34.1510   40.5850 C   0  0  0  0  0  0  0  0  0  0  0  0
   39.6640   32.9130   40.9430 C   0  0  0  0  0  0  0  0  0  0  0  0
   39.5390   31.9030   39.8320 C   0  0  2  0  0  0  0  0  0  0  0  0
   36.8940   32.5010   40.9250 H   0  0  0  0  0  0  0  0  0  0  0  0
   36.3590   32.2620   39.2530 H   0  0  0  0  0  0  0  0  0  0  0  0
   38.2160   33.8820   38.5340 H   0  0  0  0  0  0  0  0  0  0  0  0
   36.9770   34.5360   39.6450 H   0  0  0  0  0  0  0  0  0  0  0  0
   38.4600   34.6650   41.4650 H   0  0  0  0  0  0  0  0  0  0  0  0
   39.5750   34.8880   40.0990 H   0  0  0  0  0  0  0  0  0  0  0  0
   40.7170   33.0800   41.1510 H   0  0  0  0  0  0  0  0  0  0  0  0
   39.1280   32.4780   41.8360 H   0  0  0  0  0  0  0  0  0  0  0  0
   40.1790   31.0350   40.1410 H   0  0  0  0  0  0  0  0  0  0  0  0
   37.0450   29.1350   40.1120 C   0  0  1  0  0  0  0  0  0  0  0  0
   36.3690   30.2040   40.8370 C   0  0  0  0  0  0  0  0  0  0  0  0
   37.8320   30.3450   40.5600 C   0  0  2  0  0  0  0  0  0  0  0  0
   37.0460   29.0470   38.9990 H   0  0  0  0  0  0  0  0  0  0  0  0
   35.6660   30.8360   40.2260 H   0  0  0  0  0  0  0  0  0  0  0  0
   36.0180   30.0060   41.8700 H   0  0  0  0  0  0  0  0  0  0  0  0
   38.5050   30.1380   41.4170 H   0  0  0  0  0  0  0  0  0  0  0  0
   36.8270   27.5680   42.0680 C   0  0  0  0  0  0  0  0  0  0  0  0
   37.3130   27.8310   40.7650 C   0  0  0  0  0  0  0  0  0  0  0  0
   38.0470   26.8280   40.1360 C   0  0  0  0  0  0  0  0  0  0  0  0
   38.2460   25.6700   40.8060 N   0  0  0  0  0  0  0  0  0  0  0  0
   37.7780   25.4360   42.0380 C   0  0  0  0  0  0  0  0  0  0  0  0
   37.0580   26.3890   42.6890 N   0  0  0  0  0  0  0  0  0  0  0  0
   36.2650   28.3740   42.5150 H   0  0  0  0  0  0  0  0  0  0  0  0
   38.4410   26.9800   39.1390 H   0  0  0  0  0  0  0  0  0  0  0  0
   37.9960   24.4680   42.4880 H   0  0  0  0  0  0  0  0  0  0  0  0
   40.0910   32.4140   38.6110 N   0  0  0  0  0  0  0  0  0  0  0  0
   39.7360   31.8940   37.7990 H   0  0  0  0  0  0  0  0  0  0  0  0
   42.0540   32.5200   37.1570 C   0  0  2  0  0  3  0  0  0  0  0  0
   41.5310   32.3400   38.5810 C   0  0  2  0  0  3  0  0  0  0  0  0
   42.0300   31.1370   39.0000 O   0  0  0  0  0  0  0  0  0  0  0  0
   43.1160   30.7740   38.2490 C   0  0  0  0  0  2  0  0  0  0  0  0
   43.4370   31.9180   37.3140 C   0  0  1  0  0  3  0  0  0  0  0  0
   42.1130   33.8660   36.8110 O   0  0  0  0  0  0  0  0  0  0  0  0
   42.4940   34.3500   37.5890 H   0  0  0  0  0  0  0  0  0  0  0  0
   43.8860   31.3920   36.0810 O   0  0  0  0  0  0  0  0  0  0  0  0
   44.4730   30.6160   36.2610 H   0  0  0  0  0  0  0  0  0  0  0  0
  1  6  1  0  0  0  0
  1  2  1  1  0  0  0
  1 18  1  0  0  0  0
  2  7  1  0  0  0  0
  3 10  1  0  0  0  0
  3  2  1  0  0  0  0
  3  4  1  0  0  0  0
  4  5  1  0  0  0  0
  4 11  1  0  0  0  0
  5 13  1  0  0  0  0
  5 14  1  0  0  0  0
  6 15  1  1  0  0  0
  6  5  1  0  0  0  0
  8  2  1  0  0  0  0
  9  3  1  0  0  0  0
 12  4  1  0  0  0  0
 16 19  1  6  0  0  0
 16 18  1  0  0  0  0
 16 24  1  0  0  0  0
 16 17  1  0  0  0  0
 17 21  1  0  0  0  0
 18 17  1  0  0  0  0
 18 22  1  1  0  0  0
 20 17  1  0  0  0  0
 23 29  1  0  0  0  0
 23 28  1  0  0  0  0
 24 23  2  0  0  0  0
 25 24  1  0  0  0  0
 25 26  2  0  0  0  0
 26 27  1  0  0  0  0
 27 31  1  0  0  0  0
 27 28  2  0  0  0  0
 30 25  1  0  0  0  0
 32  6  1  0  0  0  0
 33 32  1  0  0  0  0
 34 39  1  1  0  0  0
 34 38  1  0  0  0  0
 34 35  1  0  0  0  0
 35 32  1  6  0  0  0
 35 36  1  0  0  0  0
 37 36  1  0  0  0  0
 38 41  1  6  0  0  0
 38 37  1  0  0  0  0
 39 40  1  0  0  0  0
 41 42  1  0  0  0  0
M  END
>  <minimizedAffinity>
-5.47156525

$$$$

 OpenBabel03252506483D

 42 45  0  0  1  0  0  0  0  0999 V2000
   37.2250   29.3740   41.5390 N   0  0  1  0  0  0  0  0  0  0  0  0
   36.9350   28.3600   42.5510 C   0  0  0  0  0  0  0  0  0  0  0  0
   37.9990   28.2620   43.6070 C   0  0  0  0  0  0  0  0  0  0  0  0
   39.2650   27.7130   42.9680 C   0  0  0  0  0  0  0  0  0  0  0  0
   39.4240   28.2540   41.5730 C   0  0  0  0  0  0  0  0  0  0  0  0
   38.6550   29.5420   41.4430 C   0  0  2  0  0  0  0  0  0  0  0  0
   36.8250   27.3620   42.1090 H   0  0  0  0  0  0  0  0  0  0  0  0
   35.9600   28.6180   43.0120 H   0  0  0  0  0  0  0  0  0  0  0  0
   38.2030   29.2370   44.0990 H   0  0  0  0  0  0  0  0  0  0  0  0
   37.6220   27.5670   44.3690 H   0  0  0  0  0  0  0  0  0  0  0  0
   39.2840   26.6090   43.0100 H   0  0  0  0  0  0  0  0  0  0  0  0
   40.1200   28.0630   43.5980 H   0  0  0  0  0  0  0  0  0  0  0  0
   40.4530   28.4250   41.2650 H   0  0  0  0  0  0  0  0  0  0  0  0
   38.9110   27.5020   40.9060 H   0  0  0  0  0  0  0  0  0  0  0  0
   38.8610   29.9120   40.4040 H   0  0  0  0  0  0  0  0  0  0  0  0
   35.7960   29.8960   39.4700 C   0  0  1  0  0  0  0  0  0  0  0  0
   35.0790   28.9980   40.3670 C   0  0  0  0  0  0  0  0  0  0  0  0
   36.5740   28.9480   40.3530 C   0  0  2  0  0  0  0  0  0  0  0  0
   36.0330   30.9590   39.7170 H   0  0  0  0  0  0  0  0  0  0  0  0
   34.5890   29.4890   41.2540 H   0  0  0  0  0  0  0  0  0  0  0  0
   34.4930   28.1650   39.9300 H   0  0  0  0  0  0  0  0  0  0  0  0
   37.0200   28.0970   39.7980 H   0  0  0  0  0  0  0  0  0  0  0  0
   34.6980   29.0120   37.3860 C   0  0  0  0  0  0  0  0  0  0  0  0
   35.7920   29.6610   38.0050 C   0  0  0  0  0  0  0  0  0  0  0  0
   36.8500   30.0600   37.1920 C   0  0  0  0  0  0  0  0  0  0  0  0
   36.7650   29.8050   35.8660 N   0  0  0  0  0  0  0  0  0  0  0  0
   35.7230   29.1900   35.2950 C   0  0  0  0  0  0  0  0  0  0  0  0
   34.6690   28.7830   36.0540 N   0  0  0  0  0  0  0  0  0  0  0  0
   33.9030   28.7210   38.0560 H   0  0  0  0  0  0  0  0  0  0  0  0
   37.7100   30.5610   37.6180 H   0  0  0  0  0  0  0  0  0  0  0  0
   35.7540   29.0330   34.2180 H   0  0  0  0  0  0  0  0  0  0  0  0
   39.1610   30.5350   42.3450 N   0  0  0  0  0  0  0  0  0  0  0  0
   38.4380   30.8310   43.0130 H   0  0  0  0  0  0  0  0  0  0  0  0
   38.7830   32.0050   40.4280 C   0  0  2  0  0  3  0  0  0  0  0  0
   39.6340   31.7150   41.6630 C   0  0  2  0  0  3  0  0  0  0  0  0
   40.9170   31.6080   41.2020 O   0  0  0  0  0  0  0  0  0  0  0  0
   41.0470   32.2190   39.9840 C   0  0  0  0  0  2  0  0  0  0  0  0
   39.7370   32.9040   39.6660 C   0  0  1  0  0  3  0  0  0  0  0  0
   37.6110   32.6690   40.7720 O   0  0  0  0  0  0  0  0  0  0  0  0
   37.8550   33.3680   41.4320 H   0  0  0  0  0  0  0  0  0  0  0  0
   39.4950   32.8100   38.2760 O   0  0  0  0  0  0  0  0  0  0  0  0
   40.3470   32.9500   37.7940 H   0  0  0  0  0  0  0  0  0  0  0  0
  1  2  1  1  0  0  0
  2  8  1  0  0  0  0
  2  3  1  0  0  0  0
  3  9  1  0  0  0  0
  3 10  1  0  0  0  0
  4 11  1  0  0  0  0
  4 12  1  0  0  0  0
  4  3  1  0  0  0  0
  5  4  1  0  0  0  0
  6 15  1  6  0  0  0
  6  1  1  0  0  0  0
  6  5  1  0  0  0  0
  6 32  1  0  0  0  0
  7  2  1  0  0  0  0
 13  5  1  0  0  0  0
 14  5  1  0  0  0  0
 16 19  1  1  0  0  0
 16 18  1  0  0  0  0
 16 17  1  0  0  0  0
 17 20  1  0  0  0  0
 18 22  1  6  0  0  0
 18 17  1  0  0  0  0
 18  1  1  0  0  0  0
 21 17  1  0  0  0  0
 23 24  1  0  0  0  0
 23 29  1  0  0  0  0
 24 16  1  0  0  0  0
 25 30  1  0  0  0  0
 25 24  2  0  0  0  0
 26 25  1  0  0  0  0
 27 26  2  0  0  0  0
 27 28  1  0  0  0  0
 28 23  2  0  0  0  0
 31 27  1  0  0  0  0
 32 33  1  0  0  0  0
 34 39  1  1  0  0  0
 34 35  1  0  0  0  0
 35 32  1  6  0  0  0
 36 35  1  0  0  0  0
 37 36  1  0  0  0  0
 38 41  1  6  0  0  0
 38 37  1  0  0  0  0
 38 34  1  0  0  0  0
 39 40  1  0  0  0  0
 42 41  1  0  0  0  0
M  END
>  <minimizedAffinity>
-5.46605301

$$$$

 OpenBabel03252506483D

 42 45  0  0  1  0  0  0  0  0999 V2000
   36.6850   30.1240   39.9380 N   0  0  1  0  0  0  0  0  0  0  0  0
   35.8900   30.0460   38.7150 C   0  0  0  0  0  0  0  0  0  0  0  0
   35.1900   28.7260   38.5520 C   0  0  0  0  0  0  0  0  0  0  0  0
   36.2390   27.6500   38.3130 C   0  0  0  0  0  0  0  0  0  0  0  0
   37.4690   27.9250   39.1360 C   0  0  0  0  0  0  0  0  0  0  0  0
   37.1030   28.7950   40.3110 C   0  0  2  0  0  0  0  0  0  0  0  0
   36.5030   30.2000   37.8180 H   0  0  0  0  0  0  0  0  0  0  0  0
   35.1490   30.8700   38.7440 H   0  0  0  0  0  0  0  0  0  0  0  0
   34.5600   28.4660   39.4280 H   0  0  0  0  0  0  0  0  0  0  0  0
   34.5360   28.8230   37.6760 H   0  0  0  0  0  0  0  0  0  0  0  0
   36.4550   27.5380   37.2350 H   0  0  0  0  0  0  0  0  0  0  0  0
   35.7860   26.6820   38.6420 H   0  0  0  0  0  0  0  0  0  0  0  0
   37.9810   27.0390   39.4990 H   0  0  0  0  0  0  0  0  0  0  0  0
   38.1350   28.5460   38.4700 H   0  0  0  0  0  0  0  0  0  0  0  0
   38.0480   28.9140   40.9030 H   0  0  0  0  0  0  0  0  0  0  0  0
   38.0640   32.1850   40.6090 C   0  0  1  0  0  0  0  0  0  0  0  0
   37.3110   32.4540   39.3900 C   0  0  0  0  0  0  0  0  0  0  0  0
   37.7300   31.0460   39.6730 C   0  0  2  0  0  0  0  0  0  0  0  0
   37.5900   32.0340   41.6080 H   0  0  0  0  0  0  0  0  0  0  0  0
   36.2240   32.7070   39.5360 H   0  0  0  0  0  0  0  0  0  0  0  0
   37.8030   33.0240   38.5760 H   0  0  0  0  0  0  0  0  0  0  0  0
   38.6050   30.6800   39.0970 H   0  0  0  0  0  0  0  0  0  0  0  0
   40.4190   31.7900   41.3990 C   0  0  0  0  0  0  0  0  0  0  0  0
   39.4790   32.6120   40.7320 C   0  0  0  0  0  0  0  0  0  0  0  0
   39.9340   33.8190   40.2100 C   0  0  0  0  0  0  0  0  0  0  0  0
   41.2410   34.1300   40.3690 N   0  0  0  0  0  0  0  0  0  0  0  0
   42.1180   33.3420   41.0020 C   0  0  0  0  0  0  0  0  0  0  0  0
   41.7150   32.1540   41.5280 N   0  0  0  0  0  0  0  0  0  0  0  0
   40.0210   30.8650   41.7870 H   0  0  0  0  0  0  0  0  0  0  0  0
   39.2540   34.4830   39.6910 H   0  0  0  0  0  0  0  0  0  0  0  0
   43.1490   33.6870   41.0750 H   0  0  0  0  0  0  0  0  0  0  0  0
   36.1580   28.1320   41.1630 N   0  0  0  0  0  0  0  0  0  0  0  0
   35.4680   28.7960   41.5350 H   0  0  0  0  0  0  0  0  0  0  0  0
   37.9290   28.3330   42.8370 C   0  0  2  0  0  3  0  0  0  0  0  0
   36.7870   27.4820   42.2860 C   0  0  2  0  0  3  0  0  0  0  0  0
   37.3510   26.2740   41.9790 O   0  0  0  0  0  0  0  0  0  0  0  0
   38.5290   26.1020   42.6560 C   0  0  0  0  0  2  0  0  0  0  0  0
   38.6960   27.2710   43.6010 C   0  0  1  0  0  3  0  0  0  0  0  0
   37.4500   29.3310   43.6790 O   0  0  0  0  0  0  0  0  0  0  0  0
   36.7620   28.9160   44.2600 H   0  0  0  0  0  0  0  0  0  0  0  0
   40.0650   27.6110   43.6740 O   0  0  0  0  0  0  0  0  0  0  0  0
   40.6000   26.7790   43.6920 H   0  0  0  0  0  0  0  0  0  0  0  0
  1  2  1  6  0  0  0
  1  6  1  0  0  0  0
  2  8  1  0  0  0  0
  3  2  1  0  0  0  0
  3  9  1  0  0  0  0
  4  3  1  0  0  0  0
  4 12  1  0  0  0  0
  4  5  1  0  0  0  0
  5 13  1  0  0  0  0
  5  6  1  0  0  0  0
  6 15  1  1  0  0  0
  6 32  1  0  0  0  0
  7  2  1  0  0  0  0
 10  3  1  0  0  0  0
 11  4  1  0  0  0  0
 14  5  1  0  0  0  0
 16 24  1  0  0  0  0
 16 19  1  1  0  0  0
 17 20  1  0  0  0  0
 17 18  1  0  0  0  0
 17 16  1  0  0  0  0
 18 22  1  6  0  0  0
 18  1  1  0  0  0  0
 18 16  1  0  0  0  0
 21 17  1  0  0  0  0
 23 28  1  0  0  0  0
 23 29  1  0  0  0  0
 24 23  2  0  0  0  0
 25 26  2  0  0  0  0
 25 24  1  0  0  0  0
 26 27  1  0  0  0  0
 27 31  1  0  0  0  0
 27 28  2  0  0  0  0
 30 25  1  0  0  0  0
 32 33  1  0  0  0  0
 34 38  1  0  0  0  0
 34 39  1  1  0  0  0
 35 32  1  6  0  0  0
 35 34  1  0  0  0  0
 36 35  1  0  0  0  0
 36 37  1  0  0  0  0
 37 38  1  0  0  0  0
 38 41  1  6  0  0  0
 39 40  1  0  0  0  0
 41 42  1  0  0  0  0
M  END
>  <minimizedAffinity>
-5.432899

$$$$

 OpenBabel03252506483D

 42 45  0  0  1  0  0  0  0  0999 V2000
   38.7360   29.1600   41.4520 N   0  0  1  0  0  0  0  0  0  0  0  0
   38.8220   29.7620   42.7810 C   0  0  0  0  0  0  0  0  0  0  0  0
   39.7450   30.9470   42.8320 C   0  0  0  0  0  0  0  0  0  0  0  0
   41.1690   30.4590   42.6160 C   0  0  0  0  0  0  0  0  0  0  0  0
   41.1930   29.3380   41.6130 C   0  0  0  0  0  0  0  0  0  0  0  0
   39.9650   29.4170   40.7420 C   0  0  2  0  0  0  0  0  0  0  0  0
   39.1760   29.0450   43.5330 H   0  0  0  0  0  0  0  0  0  0  0  0
   37.7980   30.0620   43.0790 H   0  0  0  0  0  0  0  0  0  0  0  0
   39.4830   31.7240   42.0830 H   0  0  0  0  0  0  0  0  0  0  0  0
   39.6390   31.3860   43.8330 H   0  0  0  0  0  0  0  0  0  0  0  0
   41.6480   30.1920   43.5760 H   0  0  0  0  0  0  0  0  0  0  0  0
   41.7480   31.3270   42.2120 H   0  0  0  0  0  0  0  0  0  0  0  0
   42.0750   29.3140   40.9770 H   0  0  0  0  0  0  0  0  0  0  0  0
   41.0950   28.3950   42.2230 H   0  0  0  0  0  0  0  0  0  0  0  0
   40.0750   28.5920   39.9910 H   0  0  0  0  0  0  0  0  0  0  0  0
   37.0950   27.1970   41.2280 C   0  0  1  0  0  0  0  0  0  0  0  0
   37.3200   27.5120   42.6330 C   0  0  0  0  0  0  0  0  0  0  0  0
   38.4170   27.7940   41.6560 C   0  0  2  0  0  0  0  0  0  0  0  0
   36.5610   27.8750   40.5190 H   0  0  0  0  0  0  0  0  0  0  0  0
   36.7450   28.3940   43.0300 H   0  0  0  0  0  0  0  0  0  0  0  0
   37.4230   26.6770   43.3550 H   0  0  0  0  0  0  0  0  0  0  0  0
   39.2520   27.0630   41.6480 H   0  0  0  0  0  0  0  0  0  0  0  0
   37.3930   24.7360   41.6520 C   0  0  0  0  0  0  0  0  0  0  0  0
   37.0700   25.7880   40.7640 C   0  0  0  0  0  0  0  0  0  0  0  0
   36.7350   25.4490   39.4550 C   0  0  0  0  0  0  0  0  0  0  0  0
   36.7380   24.1400   39.1160 N   0  0  0  0  0  0  0  0  0  0  0  0
   37.0460   23.1540   39.9680 C   0  0  0  0  0  0  0  0  0  0  0  0
   37.3800   23.4430   41.2560 N   0  0  0  0  0  0  0  0  0  0  0  0
   37.6460   25.0470   42.6540 H   0  0  0  0  0  0  0  0  0  0  0  0
   36.4800   26.2190   38.7370 H   0  0  0  0  0  0  0  0  0  0  0  0
   37.0180   22.1320   39.5930 H   0  0  0  0  0  0  0  0  0  0  0  0
   39.9380   30.6480   40.0060 N   0  0  0  0  0  0  0  0  0  0  0  0
   39.9410   31.4570   40.6400 H   0  0  0  0  0  0  0  0  0  0  0  0
   39.1820   31.0210   37.7110 C   0  0  2  0  0  3  0  0  0  0  0  0
   38.7750   30.7610   39.1600 C   0  0  2  0  0  3  0  0  0  0  0  0
   37.9470   31.7970   39.4950 O   0  0  0  0  0  0  0  0  0  0  0  0
   37.4340   32.3910   38.3740 C   0  0  0  0  0  2  0  0  0  0  0  0
   37.8790   31.5820   37.1760 C   0  0  1  0  0  3  0  0  0  0  0  0
   39.5380   29.8400   37.0700 O   0  0  0  0  0  0  0  0  0  0  0  0
   38.8650   29.1570   37.3250 H   0  0  0  0  0  0  0  0  0  0  0  0
   38.1290   32.4600   36.0960 O   0  0  0  0  0  0  0  0  0  0  0  0
   37.4310   33.1610   36.0880 H   0  0  0  0  0  0  0  0  0  0  0  0
  1 18  1  0  0  0  0
  1  2  1  1  0  0  0
  2  3  1  0  0  0  0
  2  8  1  0  0  0  0
  2  7  1  0  0  0  0
  3 10  1  0  0  0  0
  4  3  1  0  0  0  0
  4 11  1  0  0  0  0
  5 14  1  0  0  0  0
  5  4  1  0  0  0  0
  6 15  1  6  0  0  0
  6  1  1  0  0  0  0
  6  5  1  0  0  0  0
  9  3  1  0  0  0  0
 12  4  1  0  0  0  0
 13  5  1  0  0  0  0
 16 19  1  6  0  0  0
 16 18  1  0  0  0  0
 16 17  1  0  0  0  0
 17 20  1  0  0  0  0
 17 21  1  0  0  0  0
 18 22  1  1  0  0  0
 18 17  1  0  0  0  0
 23 29  1  0  0  0  0
 24 16  1  0  0  0  0
 24 23  2  0  0  0  0
 25 24  1  0  0  0  0
 26 25  2  0  0  0  0
 26 27  1  0  0  0  0
 27 28  2  0  0  0  0
 28 23  1  0  0  0  0
 30 25  1  0  0  0  0
 31 27  1  0  0  0  0
 32 33  1  0  0  0  0
 32  6  1  0  0  0  0
 34 39  1  6  0  0  0
 34 35  1  0  0  0  0
 35 36  1  0  0  0  0
 35 32  1  1  0  0  0
 37 36  1  0  0  0  0
 38 41  1  6  0  0  0
 38 34  1  0  0  0  0
 38 37  1  0  0  0  0
 39 40  1  0  0  0  0
 42 41  1  0  0  0  0
M  END
>  <minimizedAffinity>
-5.2911582

$$$$

 OpenBabel03252506483D

 42 45  0  0  1  0  0  0  0  0999 V2000
   37.3290   28.8220   41.4640 N   0  0  1  0  0  0  0  0  0  0  0  0
   36.7040   28.0580   42.5430 C   0  0  0  0  0  0  0  0  0  0  0  0
   37.6850   27.6020   43.5850 C   0  0  0  0  0  0  0  0  0  0  0  0
   38.6060   26.5650   42.9600 C   0  0  0  0  0  0  0  0  0  0  0  0
   38.9090   26.9270   41.5310 C   0  0  0  0  0  0  0  0  0  0  0  0
   38.7040   28.4060   41.3340 C   0  0  2  0  0  0  0  0  0  0  0  0
   36.1920   27.1640   42.1660 H   0  0  0  0  0  0  0  0  0  0  0  0
   35.9290   28.7030   43.0030 H   0  0  0  0  0  0  0  0  0  0  0  0
   38.2770   28.4400   44.0110 H   0  0  0  0  0  0  0  0  0  0  0  0
   37.0970   27.1510   44.3950 H   0  0  0  0  0  0  0  0  0  0  0  0
   38.1910   25.5460   43.0710 H   0  0  0  0  0  0  0  0  0  0  0  0
   39.5550   26.5790   43.5520 H   0  0  0  0  0  0  0  0  0  0  0  0
   39.9090   26.6610   41.1960 H   0  0  0  0  0  0  0  0  0  0  0  0
   38.1150   26.4070   40.9210 H   0  0  0  0  0  0  0  0  0  0  0  0
   38.9970   28.6110   40.2700 H   0  0  0  0  0  0  0  0  0  0  0  0
   35.9660   29.7810   39.5100 C   0  0  1  0  0  0  0  0  0  0  0  0
   35.0920   29.0740   40.4380 C   0  0  0  0  0  0  0  0  0  0  0  0
   36.5150   28.6280   40.3190 C   0  0  2  0  0  0  0  0  0  0  0  0
   36.4940   30.7330   39.7600 H   0  0  0  0  0  0  0  0  0  0  0  0
   34.8080   29.6440   41.3660 H   0  0  0  0  0  0  0  0  0  0  0  0
   34.2790   28.4430   40.0270 H   0  0  0  0  0  0  0  0  0  0  0  0
   36.6820   27.7110   39.7190 H   0  0  0  0  0  0  0  0  0  0  0  0
   36.8390   30.0140   37.1630 C   0  0  0  0  0  0  0  0  0  0  0  0
   35.8090   29.6100   38.0450 C   0  0  0  0  0  0  0  0  0  0  0  0
   34.6600   29.0570   37.4870 C   0  0  0  0  0  0  0  0  0  0  0  0
   34.6000   28.9390   36.1400 N   0  0  0  0  0  0  0  0  0  0  0  0
   35.5830   29.3250   35.3180 C   0  0  0  0  0  0  0  0  0  0  0  0
   36.7230   29.8710   35.8230 N   0  0  0  0  0  0  0  0  0  0  0  0
   37.7090   30.4360   37.6410 H   0  0  0  0  0  0  0  0  0  0  0  0
   33.8440   28.7330   38.1200 H   0  0  0  0  0  0  0  0  0  0  0  0
   35.4330   29.1860   34.2480 H   0  0  0  0  0  0  0  0  0  0  0  0
   39.5970   29.1620   42.1640 N   0  0  0  0  0  0  0  0  0  0  0  0
   39.0780   29.7050   42.8650 H   0  0  0  0  0  0  0  0  0  0  0  0
   40.4250   31.4610   42.0740 C   0  0  2  0  0  3  0  0  0  0  0  0
   40.4060   30.0870   41.4080 C   0  0  2  0  0  3  0  0  0  0  0  0
   39.9520   30.3070   40.1370 O   0  0  0  0  0  0  0  0  0  0  0  0
   40.1150   31.6190   39.7830 C   0  0  0  0  0  2  0  0  0  0  0  0
   40.8680   32.3100   40.8980 C   0  0  1  0  0  3  0  0  0  0  0  0
   41.3450   31.5010   43.1160 O   0  0  0  0  0  0  0  0  0  0  0  0
   42.1670   31.0490   42.7960 H   0  0  0  0  0  0  0  0  0  0  0  0
   40.3800   33.6290   41.0330 O   0  0  0  0  0  0  0  0  0  0  0  0
   40.2190   34.0040   40.1320 H   0  0  0  0  0  0  0  0  0  0  0  0
  1  2  1  1  0  0  0
  2  8  1  0  0  0  0
  2  3  1  0  0  0  0
  3  9  1  0  0  0  0
  3 10  1  0  0  0  0
  4 11  1  0  0  0  0
  4 12  1  0  0  0  0
  4  3  1  0  0  0  0
  5  4  1  0  0  0  0
  6 15  1  6  0  0  0
  6  1  1  0  0  0  0
  6  5  1  0  0  0  0
  6 32  1  0  0  0  0
  7  2  1  0  0  0  0
 13  5  1  0  0  0  0
 14  5  1  0  0  0  0
 16 19  1  1  0  0  0
 16 18  1  0  0  0  0
 16 17  1  0  0  0  0
 17 20  1  0  0  0  0
 18 22  1  6  0  0  0
 18 17  1  0  0  0  0
 18  1  1  0  0  0  0
 21 17  1  0  0  0  0
 23 29  1  0  0  0  0
 23 24  1  0  0  0  0
 24 16  1  0  0  0  0
 25 24  2  0  0  0  0
 25 30  1  0  0  0  0
 26 25  1  0  0  0  0
 27 28  1  0  0  0  0
 27 26  2  0  0  0  0
 28 23  2  0  0  0  0
 31 27  1  0  0  0  0
 32 33  1  0  0  0  0
 34 39  1  1  0  0  0
 35 34  1  0  0  0  0
 35 32  1  1  0  0  0
 36 35  1  0  0  0  0
 37 36  1  0  0  0  0
 37 38  1  0  0  0  0
 38 41  1  1  0  0  0
 38 34  1  0  0  0  0
 40 39  1  0  0  0  0
 42 41  1  0  0  0  0
M  END
>  <minimizedAffinity>
-5.27171993

$$$$

 OpenBabel03252506483D

 42 45  0  0  1  0  0  0  0  0999 V2000
   37.6520   30.1040   40.9740 N   0  0  1  0  0  0  0  0  0  0  0  0
   36.2450   30.2810   40.6210 C   0  0  0  0  0  0  0  0  0  0  0  0
   35.4610   29.0010   40.6670 C   0  0  0  0  0  0  0  0  0  0  0  0
   35.9530   28.0930   39.5500 C   0  0  0  0  0  0  0  0  0  0  0  0
   37.4410   28.2360   39.3750 C   0  0  0  0  0  0  0  0  0  0  0  0
   38.0490   28.7550   40.6520 C   0  0  2  0  0  0  0  0  0  0  0  0
   36.1260   30.6970   39.6120 H   0  0  0  0  0  0  0  0  0  0  0  0
   35.8140   31.0200   41.3260 H   0  0  0  0  0  0  0  0  0  0  0  0
   35.5410   28.4870   41.6480 H   0  0  0  0  0  0  0  0  0  0  0  0
   34.4090   29.2700   40.5060 H   0  0  0  0  0  0  0  0  0  0  0  0
   35.3880   28.2700   38.6160 H   0  0  0  0  0  0  0  0  0  0  0  0
   35.7180   27.0450   39.8610 H   0  0  0  0  0  0  0  0  0  0  0  0
   37.9550   27.3230   39.0850 H   0  0  0  0  0  0  0  0  0  0  0  0
   37.5700   29.0480   38.6020 H   0  0  0  0  0  0  0  0  0  0  0  0
   39.1550   28.7860   40.4680 H   0  0  0  0  0  0  0  0  0  0  0  0
   39.0370   32.2670   41.0380 C   0  0  1  0  0  0  0  0  0  0  0  0
   37.7620   32.5010   40.3700 C   0  0  0  0  0  0  0  0  0  0  0  0
   38.3620   31.1320   40.3020 C   0  0  2  0  0  0  0  0  0  0  0  0
   39.1330   32.0370   42.1260 H   0  0  0  0  0  0  0  0  0  0  0  0
   36.8770   32.6410   41.0500 H   0  0  0  0  0  0  0  0  0  0  0  0
   37.7450   33.1430   39.4660 H   0  0  0  0  0  0  0  0  0  0  0  0
   38.8590   30.8730   39.3440 H   0  0  0  0  0  0  0  0  0  0  0  0
   40.2670   33.6380   39.3250 C   0  0  0  0  0  0  0  0  0  0  0  0
   40.2940   32.8250   40.4830 C   0  0  0  0  0  0  0  0  0  0  0  0
   41.5330   32.5740   41.0670 C   0  0  0  0  0  0  0  0  0  0  0  0
   42.6290   33.1210   40.4940 N   0  0  0  0  0  0  0  0  0  0  0  0
   42.5880   33.8890   39.3980 C   0  0  0  0  0  0  0  0  0  0  0  0
   41.3980   34.1580   38.7960 N   0  0  0  0  0  0  0  0  0  0  0  0
   39.2860   33.8040   38.9080 H   0  0  0  0  0  0  0  0  0  0  0  0
   41.6060   31.9580   41.9540 H   0  0  0  0  0  0  0  0  0  0  0  0
   43.5310   34.2810   39.0170 H   0  0  0  0  0  0  0  0  0  0  0  0
   37.8320   27.8380   41.7330 N   0  0  0  0  0  0  0  0  0  0  0  0
   37.6570   28.3380   42.6130 H   0  0  0  0  0  0  0  0  0  0  0  0
   38.5110   25.4970   41.9380 C   0  0  2  0  0  3  0  0  0  0  0  0
   38.9560   26.9590   41.9460 C   0  0  2  0  0  3  0  0  0  0  0  0
   39.5770   27.1410   43.1510 O   0  0  0  0  0  0  0  0  0  0  0  0
   39.9750   25.9420   43.6790 C   0  0  0  0  0  2  0  0  0  0  0  0
   39.6900   24.8670   42.6550 C   0  0  1  0  0  3  0  0  0  0  0  0
   38.3800   25.0200   40.6390 O   0  0  0  0  0  0  0  0  0  0  0  0
   39.1670   25.3450   40.1290 H   0  0  0  0  0  0  0  0  0  0  0  0
   39.2850   23.6900   43.3250 O   0  0  0  0  0  0  0  0  0  0  0  0
   39.8410   23.5770   44.1350 H   0  0  0  0  0  0  0  0  0  0  0  0
  1  2  1  6  0  0  0
  2  3  1  0  0  0  0
  2  8  1  0  0  0  0
  3  9  1  0  0  0  0
  4 12  1  0  0  0  0
  4  3  1  0  0  0  0
  5  4  1  0  0  0  0
  5  6  1  0  0  0  0
  6 15  1  6  0  0  0
  6  1  1  0  0  0  0
  6 32  1  0  0  0  0
  7  2  1  0  0  0  0
 10  3  1  0  0  0  0
 11  4  1  0  0  0  0
 13  5  1  0  0  0  0
 14  5  1  0  0  0  0
 16 19  1  1  0  0  0
 17 16  1  0  0  0  0
 17 20  1  0  0  0  0
 18 22  1  6  0  0  0
 18 17  1  0  0  0  0
 18  1  1  0  0  0  0
 18 16  1  0  0  0  0
 21 17  1  0  0  0  0
 23 24  1  0  0  0  0
 24 16  1  0  0  0  0
 24 25  2  0  0  0  0
 25 30  1  0  0  0  0
 26 25  1  0  0  0  0
 27 26  2  0  0  0  0
 28 23  2  0  0  0  0
 28 27  1  0  0  0  0
 29 23  1  0  0  0  0
 31 27  1  0  0  0  0
 32 33  1  0  0  0  0
 34 39  1  6  0  0  0
 34 35  1  0  0  0  0
 34 38  1  0  0  0  0
 35 32  1  1  0  0  0
 35 36  1  0  0  0  0
 36 37  1  0  0  0  0
 38 41  1  1  0  0  0
 38 37  1  0  0  0  0
 40 39  1  0  0  0  0
 41 42  1  0  0  0  0
M  END
>  <minimizedAffinity>
-5.27086449

$$$$

 OpenBabel03252506483D

 42 45  0  0  1  0  0  0  0  0999 V2000
   37.2560   29.7540   40.3850 N   0  0  1  0  0  0  0  0  0  0  0  0
   37.1970   31.0930   40.9670 C   0  0  0  0  0  0  0  0  0  0  0  0
   37.0500   32.1770   39.9370 C   0  0  0  0  0  0  0  0  0  0  0  0
   38.3330   32.2450   39.1220 C   0  0  0  0  0  0  0  0  0  0  0  0
   38.8930   30.8650   38.9080 C   0  0  0  0  0  0  0  0  0  0  0  0
   37.7890   29.8490   39.0480 C   0  0  2  0  0  0  0  0  0  0  0  0
   38.0960   31.3240   41.5530 H   0  0  0  0  0  0  0  0  0  0  0  0
   36.3400   31.1150   41.6700 H   0  0  0  0  0  0  0  0  0  0  0  0
   36.1760   32.0170   39.2710 H   0  0  0  0  0  0  0  0  0  0  0  0
   36.8960   33.1150   40.4860 H   0  0  0  0  0  0  0  0  0  0  0  0
   39.0590   32.9410   39.5820 H   0  0  0  0  0  0  0  0  0  0  0  0
   38.0620   32.6900   38.1330 H   0  0  0  0  0  0  0  0  0  0  0  0
   39.3890   30.7180   37.9520 H   0  0  0  0  0  0  0  0  0  0  0  0
   39.5980   30.6960   39.7720 H   0  0  0  0  0  0  0  0  0  0  0  0
   38.2630   28.8570   38.8250 H   0  0  0  0  0  0  0  0  0  0  0  0
   37.3750   27.8670   42.1230 C   0  0  1  0  0  0  0  0  0  0  0  0
   37.6940   29.1470   42.7430 C   0  0  0  0  0  0  0  0  0  0  0  0
   38.0050   28.9610   41.2910 C   0  0  2  0  0  0  0  0  0  0  0  0
   36.3620   27.6020   41.7340 H   0  0  0  0  0  0  0  0  0  0  0  0
   36.8100   29.7940   43.0010 H   0  0  0  0  0  0  0  0  0  0  0  0
   38.5170   29.1880   43.4840 H   0  0  0  0  0  0  0  0  0  0  0  0
   39.0710   28.7700   41.0490 H   0  0  0  0  0  0  0  0  0  0  0  0
   39.2690   26.7310   43.3270 C   0  0  0  0  0  0  0  0  0  0  0  0
   38.1770   26.6570   42.4300 C   0  0  0  0  0  0  0  0  0  0  0  0
   37.8960   25.4200   41.8560 C   0  0  0  0  0  0  0  0  0  0  0  0
   38.6800   24.3700   42.1910 N   0  0  0  0  0  0  0  0  0  0  0  0
   39.7100   24.4550   43.0420 C   0  0  0  0  0  0  0  0  0  0  0  0
   40.0190   25.6460   43.6250 N   0  0  0  0  0  0  0  0  0  0  0  0
   39.4490   27.7090   43.7460 H   0  0  0  0  0  0  0  0  0  0  0  0
   37.0710   25.3120   41.1640 H   0  0  0  0  0  0  0  0  0  0  0  0
   40.2780   23.5480   43.2440 H   0  0  0  0  0  0  0  0  0  0  0  0
   36.7730   30.0560   38.0560 N   0  0  0  0  0  0  0  0  0  0  0  0
   35.8960   30.3740   38.4870 H   0  0  0  0  0  0  0  0  0  0  0  0
   37.1010   28.9330   35.9090 C   0  0  2  0  0  3  0  0  0  0  0  0
   36.4820   28.8610   37.3040 C   0  0  2  0  0  3  0  0  0  0  0  0
   35.1470   28.6510   37.0960 O   0  0  0  0  0  0  0  0  0  0  0  0
   34.9230   28.1450   35.8440 C   0  0  0  0  0  2  0  0  0  0  0  0
   36.2670   27.8810   35.2040 C   0  0  1  0  0  3  0  0  0  0  0  0
   38.4480   28.5900   35.9400 O   0  0  0  0  0  0  0  0  0  0  0  0
   38.5320   27.7930   36.5230 H   0  0  0  0  0  0  0  0  0  0  0  0
   36.1820   28.1680   33.8220 O   0  0  0  0  0  0  0  0  0  0  0  0
   35.3110   27.8440   33.4820 H   0  0  0  0  0  0  0  0  0  0  0  0
  1  2  1  1  0  0  0
  1 18  1  0  0  0  0
  2  7  1  0  0  0  0
  2  8  1  0  0  0  0
  3 10  1  0  0  0  0
  3  2  1  0  0  0  0
  4 11  1  0  0  0  0
  4  3  1  0  0  0  0
  5  6  1  0  0  0  0
  5  4  1  0  0  0  0
  5 14  1  0  0  0  0
  6 15  1  6  0  0  0
  6  1  1  0  0  0  0
  9  3  1  0  0  0  0
 12  4  1  0  0  0  0
 13  5  1  0  0  0  0
 16 19  1  6  0  0  0
 16 24  1  0  0  0  0
 16 17  1  0  0  0  0
 17 20  1  0  0  0  0
 17 21  1  0  0  0  0
 18 22  1  6  0  0  0
 18 16  1  0  0  0  0
 18 17  1  0  0  0  0
 23 28  1  0  0  0  0
 23 29  1  0  0  0  0
 24 23  2  0  0  0  0
 25 26  2  0  0  0  0
 25 24  1  0  0  0  0
 26 27  1  0  0  0  0
 27 31  1  0  0  0  0
 27 28  2  0  0  0  0
 30 25  1  0  0  0  0
 32 33  1  0  0  0  0
 32  6  1  0  0  0  0
 34 39  1  1  0  0  0
 34 35  1  0  0  0  0
 35 32  1  6  0  0  0
 36 35  1  0  0  0  0
 37 36  1  0  0  0  0
 38 41  1  6  0  0  0
 38 37  1  0  0  0  0
 38 34  1  0  0  0  0
 39 40  1  0  0  0  0
 42 41  1  0  0  0  0
M  END
>  <minimizedAffinity>
-5.26814604

$$$$
