
 OpenBabel03252506453D

 42 45  0  0  1  0  0  0  0  0999 V2000
   49.1920   33.3810   41.3600 N   0  0  1  0  0  0  0  0  0  0  0  0
   50.5110   33.1000   41.9240 C   0  0  0  0  0  0  0  0  0  0  0  0
   51.0820   31.7890   41.4620 C   0  0  0  0  0  0  0  0  0  0  0  0
   50.2430   30.6640   42.0500 C   0  0  0  0  0  0  0  0  0  0  0  0
   48.7900   31.0560   42.0840 C   0  0  0  0  0  0  0  0  0  0  0  0
   48.5370   32.1320   41.0600 C   0  0  2  0  0  0  0  0  0  0  0  0
   50.4890   33.0750   43.0220 H   0  0  0  0  0  0  0  0  0  0  0  0
   51.1830   33.9330   41.6350 H   0  0  0  0  0  0  0  0  0  0  0  0
   51.1200   31.7070   40.3560 H   0  0  0  0  0  0  0  0  0  0  0  0
   52.1090   31.7410   41.8460 H   0  0  0  0  0  0  0  0  0  0  0  0
   50.6310   30.3530   43.0370 H   0  0  0  0  0  0  0  0  0  0  0  0
   50.3710   29.7820   41.3740 H   0  0  0  0  0  0  0  0  0  0  0  0
   48.0940   30.2380   41.9160 H   0  0  0  0  0  0  0  0  0  0  0  0
   48.6370   31.5300   43.0960 H   0  0  0  0  0  0  0  0  0  0  0  0
   47.4340   32.3340   41.1030 H   0  0  0  0  0  0  0  0  0  0  0  0
   47.1260   34.7290   42.0740 C   0  0  1  0  0  0  0  0  0  0  0  0
   48.2600   35.6180   41.8550 C   0  0  0  0  0  0  0  0  0  0  0  0
   48.5300   34.2150   42.2970 C   0  0  2  0  0  0  0  0  0  0  0  0
   46.6160   34.1610   41.2590 H   0  0  0  0  0  0  0  0  0  0  0  0
   48.4770   35.8700   40.7790 H   0  0  0  0  0  0  0  0  0  0  0  0
   48.4200   36.4600   42.5580 H   0  0  0  0  0  0  0  0  0  0  0  0
   48.7880   34.0910   43.3690 H   0  0  0  0  0  0  0  0  0  0  0  0
   45.3990   36.0420   43.3470 C   0  0  0  0  0  0  0  0  0  0  0  0
   46.2410   34.9090   43.2510 C   0  0  0  0  0  0  0  0  0  0  0  0
   46.2060   33.9880   44.2950 C   0  0  0  0  0  0  0  0  0  0  0  0
   45.3710   34.2320   45.3310 N   0  0  0  0  0  0  0  0  0  0  0  0
   44.5790   35.3090   45.4070 C   0  0  0  0  0  0  0  0  0  0  0  0
   44.5830   36.2340   44.4090 N   0  0  0  0  0  0  0  0  0  0  0  0
   45.4610   36.7280   42.5160 H   0  0  0  0  0  0  0  0  0  0  0  0
   46.8310   33.1050   44.2690 H   0  0  0  0  0  0  0  0  0  0  0  0
   43.9430   35.4100   46.2860 H   0  0  0  0  0  0  0  0  0  0  0  0
   48.8200   31.6570   39.7370 N   0  0  0  0  0  0  0  0  0  0  0  0
   49.7600   31.2440   39.6860 H   0  0  0  0  0  0  0  0  0  0  0  0
   47.3510   32.7800   38.1370 C   0  0  2  0  0  3  0  0  0  0  0  0
   48.7490   32.7030   38.7460 C   0  0  2  0  0  3  0  0  0  0  0  0
   49.5950   32.5180   37.6870 O   0  0  0  0  0  0  0  0  0  0  0  0
   49.0020   32.9120   36.5170 C   0  0  0  0  0  2  0  0  0  0  0  0
   47.6680   33.5350   36.8610 C   0  0  1  0  0  3  0  0  0  0  0  0
   46.4850   33.4950   38.9580 O   0  0  0  0  0  0  0  0  0  0  0  0
   46.9790   34.2960   39.2740 H   0  0  0  0  0  0  0  0  0  0  0  0
   46.7340   33.2070   35.8510 O   0  0  0  0  0  0  0  0  0  0  0  0
   47.1830   33.2620   34.9720 H   0  0  0  0  0  0  0  0  0  0  0  0
  1  2  1  1  0  0  0
  1 18  1  0  0  0  0
  2  7  1  0  0  0  0
  3 10  1  0  0  0  0
  3  2  1  0  0  0  0
  3  4  1  0  0  0  0
  4  5  1  0  0  0  0
  4 11  1  0  0  0  0
  5 14  1  0  0  0  0
  6 15  1  1  0  0  0
  6  1  1  0  0  0  0
  6  5  1  0  0  0  0
  8  2  1  0  0  0  0
  9  3  1  0  0  0  0
 12  4  1  0  0  0  0
 13  5  1  0  0  0  0
 16 19  1  6  0  0  0
 16 18  1  0  0  0  0
 16 24  1  0  0  0  0
 17 16  1  0  0  0  0
 17 18  1  0  0  0  0
 17 21  1  0  0  0  0
 18 22  1  1  0  0  0
 20 17  1  0  0  0  0
 23 28  1  0  0  0  0
 24 23  2  0  0  0  0
 24 25  1  0  0  0  0
 25 26  2  0  0  0  0
 26 27  1  0  0  0  0
 27 31  1  0  0  0  0
 28 27  2  0  0  0  0
 29 23  1  0  0  0  0
 30 25  1  0  0  0  0
 32  6  1  0  0  0  0
 33 32  1  0  0  0  0
 34 35  1  0  0  0  0
 34 39  1  1  0  0  0
 35 32  1  1  0  0  0
 36 35  1  0  0  0  0
 37 38  1  0  0  0  0
 37 36  1  0  0  0  0
 38 41  1  6  0  0  0
 38 34  1  0  0  0  0
 39 40  1  0  0  0  0
 42 41  1  0  0  0  0
M  END
>  <minimizedAffinity>
-5.51682711

>  <minimizedRMSD>
3.14440489

$$$$
