
 OpenBabel03252506443D

 42 45  0  0  1  0  0  0  0  0999 V2000
   49.5890   33.4390   41.5120 N   0  0  1  0  0  0  0  0  0  0  0  0
   50.7450   33.1260   42.3510 C   0  0  0  0  0  0  0  0  0  0  0  0
   51.3470   31.7840   42.0450 C   0  0  0  0  0  0  0  0  0  0  0  0
   50.3570   30.7050   42.4600 C   0  0  0  0  0  0  0  0  0  0  0  0
   48.9480   31.1490   42.1760 C   0  0  0  0  0  0  0  0  0  0  0  0
   48.9620   32.2060   41.1020 C   0  0  2  0  0  0  0  0  0  0  0  0
   50.4880   33.1300   43.4180 H   0  0  0  0  0  0  0  0  0  0  0  0
   51.4960   33.9260   42.1960 H   0  0  0  0  0  0  0  0  0  0  0  0
   51.6170   31.6710   40.9740 H   0  0  0  0  0  0  0  0  0  0  0  0
   52.2660   31.7080   42.6410 H   0  0  0  0  0  0  0  0  0  0  0  0
   50.5140   30.4070   43.5130 H   0  0  0  0  0  0  0  0  0  0  0  0
   50.5900   29.8010   41.8440 H   0  0  0  0  0  0  0  0  0  0  0  0
   48.2710   30.3530   41.8770 H   0  0  0  0  0  0  0  0  0  0  0  0
   48.6020   31.6550   43.1220 H   0  0  0  0  0  0  0  0  0  0  0  0
   47.8850   32.4500   40.9050 H   0  0  0  0  0  0  0  0  0  0  0  0
   47.3180   34.5550   41.9520 C   0  0  1  0  0  0  0  0  0  0  0  0
   48.3070   35.5540   41.5670 C   0  0  0  0  0  0  0  0  0  0  0  0
   48.7770   34.3210   42.2700 C   0  0  2  0  0  0  0  0  0  0  0  0
   46.9280   33.7710   41.2600 H   0  0  0  0  0  0  0  0  0  0  0  0
   48.5170   35.6280   40.4630 H   0  0  0  0  0  0  0  0  0  0  0  0
   48.3140   36.5290   42.0950 H   0  0  0  0  0  0  0  0  0  0  0  0
   49.0170   34.4440   43.3470 H   0  0  0  0  0  0  0  0  0  0  0  0
   45.5780   35.9800   43.0790 C   0  0  0  0  0  0  0  0  0  0  0  0
   46.3800   34.8140   43.0710 C   0  0  0  0  0  0  0  0  0  0  0  0
   46.2530   33.9370   44.1450 C   0  0  0  0  0  0  0  0  0  0  0  0
   45.3740   34.2520   45.1240 N   0  0  0  0  0  0  0  0  0  0  0  0
   44.6220   35.3590   45.1170 C   0  0  0  0  0  0  0  0  0  0  0  0
   44.7160   36.2430   44.0870 N   0  0  0  0  0  0  0  0  0  0  0  0
   45.7110   36.6300   42.2270 H   0  0  0  0  0  0  0  0  0  0  0  0
   46.8450   33.0310   44.1860 H   0  0  0  0  0  0  0  0  0  0  0  0
   43.9450   35.5180   45.9560 H   0  0  0  0  0  0  0  0  0  0  0  0
   49.5010   31.6870   39.8790 N   0  0  0  0  0  0  0  0  0  0  0  0
   50.4050   32.1230   39.6590 H   0  0  0  0  0  0  0  0  0  0  0  0
   49.0560   33.1360   37.9600 C   0  0  2  0  0  3  0  0  0  0  0  0
   48.6270   31.9040   38.7520 C   0  0  2  0  0  3  0  0  0  0  0  0
   47.3250   32.1330   39.1010 O   0  0  0  0  0  0  0  0  0  0  0  0
   46.7620   33.0800   38.2860 C   0  0  0  0  0  2  0  0  0  0  0  0
   47.7700   33.4200   37.2100 C   0  0  1  0  0  3  0  0  0  0  0  0
   50.1030   32.8370   37.0950 O   0  0  0  0  0  0  0  0  0  0  0  0
   49.8840   31.9710   36.6630 H   0  0  0  0  0  0  0  0  0  0  0  0
   47.6700   34.7990   36.9100 O   0  0  0  0  0  0  0  0  0  0  0  0
   46.7150   35.0560   36.9050 H   0  0  0  0  0  0  0  0  0  0  0  0
  1 18  1  0  0  0  0
  1  2  1  1  0  0  0
  2  7  1  0  0  0  0
  3  2  1  0  0  0  0
  3  4  1  0  0  0  0
  3 10  1  0  0  0  0
  4 11  1  0  0  0  0
  5  4  1  0  0  0  0
  5 14  1  0  0  0  0
  6 15  1  6  0  0  0
  6  1  1  0  0  0  0
  6  5  1  0  0  0  0
  8  2  1  0  0  0  0
  9  3  1  0  0  0  0
 12  4  1  0  0  0  0
 13  5  1  0  0  0  0
 16 19  1  6  0  0  0
 16 18  1  0  0  0  0
 16 24  1  0  0  0  0
 17 16  1  0  0  0  0
 17 21  1  0  0  0  0
 17 18  1  0  0  0  0
 18 22  1  1  0  0  0
 20 17  1  0  0  0  0
 23 28  1  0  0  0  0
 24 23  2  0  0  0  0
 24 25  1  0  0  0  0
 25 30  1  0  0  0  0
 25 26  2  0  0  0  0
 27 26  1  0  0  0  0
 27 31  1  0  0  0  0
 28 27  2  0  0  0  0
 29 23  1  0  0  0  0
 32  6  1  0  0  0  0
 33 32  1  0  0  0  0
 34 39  1  6  0  0  0
 34 35  1  0  0  0  0
 35 36  1  0  0  0  0
 35 32  1  1  0  0  0
 37 36  1  0  0  0  0
 38 41  1  1  0  0  0
 38 34  1  0  0  0  0
 38 37  1  0  0  0  0
 40 39  1  0  0  0  0
 42 41  1  0  0  0  0
M  END
>  <minimizedAffinity>
-5.91384649

>  <minimizedRMSD>
2.6741178

$$$$
