
 OpenBabel03252504323D

 40 42  0  0  1  0  0  0  0  0999 V2000
   42.8240   35.4730   40.6600 O   0  0  0  0  0  0  0  0  0  0  0  0
   41.5950   35.6800   41.1990 C   0  0  0  0  0  0  0  0  0  0  0  0
   41.5140   35.7510   42.3080 H   0  0  0  0  0  0  0  0  0  0  0  0
   41.1590   36.6290   40.8060 H   0  0  0  0  0  0  0  0  0  0  0  0
   40.8780   33.3520   41.3740 C   0  0  0  0  0  0  0  0  0  0  0  0
   40.5910   34.6230   40.8440 C   0  0  0  0  0  0  0  0  0  0  0  0
   39.4680   34.7730   40.1010 C   0  0  0  0  0  0  0  0  0  0  0  0
   38.7130   33.6770   39.9330 N   0  0  0  0  0  0  0  0  0  0  0  0
   38.9690   32.4840   40.4240 C   0  0  0  0  0  0  0  0  0  0  0  0
   40.1130   32.2730   41.1950 N   0  0  0  0  0  0  0  0  0  0  0  0
   41.7620   33.1780   41.9740 H   0  0  0  0  0  0  0  0  0  0  0  0
   39.2830   35.7480   39.7160 H   0  0  0  0  0  0  0  0  0  0  0  0
   38.8640   30.0400   39.8940 C   0  0  1  0  0  3  0  0  0  0  0  0
   38.1080   31.2850   40.2180 C   0  0  1  0  0  3  0  0  0  0  0  0
   37.4650   30.9220   41.4120 O   0  0  0  0  0  0  0  0  0  0  0  0
   36.8990   29.7050   41.1150 C   0  0  0  0  0  2  0  0  0  0  0  0
   37.7680   28.9890   40.1210 C   0  0  1  0  0  3  0  0  0  0  0  0
   39.2780   29.9810   38.5660 O   0  0  0  0  0  0  0  0  0  0  0  0
   40.0740   29.4160   38.4380 H   0  0  0  0  0  0  0  0  0  0  0  0
   37.0600   28.9110   38.9190 O   0  0  0  0  0  0  0  0  0  0  0  0
   37.1510   29.7320   38.3590 H   0  0  0  0  0  0  0  0  0  0  0  0
   44.0290   35.2920   41.3190 C   0  0  0  0  0  3  0  0  0  0  0  0
   44.0560   35.6520   42.6000 C   0  0  0  0  0  3  0  0  0  0  0  0
   45.2730   35.5330   43.5010 C   0  0  0  0  0  0  0  0  0  0  0  0
   45.5690   36.4980   43.9210 H   0  0  0  0  0  0  0  0  0  0  0  0
   46.1370   35.1800   42.8890 H   0  0  0  0  0  0  0  0  0  0  0  0
   44.9740   34.5800   44.4540 O   0  0  0  0  0  0  0  0  0  0  0  0
   45.6400   32.4190   43.0470 O   0  0  0  0  0  0  0  0  0  0  0  0
   45.9720   33.2320   44.2770 P   0  0  1  0  0  0  0  0  0  0  0  0
   47.5950   33.7330   44.1190 O   0  0  0  0  0  0  0  0  0  0  0  0
   47.7060   34.6950   44.3800 H   0  0  0  0  0  0  0  0  0  0  0  0
   45.8900   32.2600   45.6530 O   0  0  0  0  0  0  0  0  0  0  0  0
   46.1820   32.9540   46.8080 C   0  0  0  0  0  0  0  0  0  0  0  0
   47.0610   32.3160   47.8390 C   0  0  0  0  0  0  0  0  0  0  0  0
   45.5600   32.4090   48.0700 C   0  0  0  0  0  0  0  0  0  0  0  0
   46.2010   34.0500   46.7020 H   0  0  0  0  0  0  0  0  0  0  0  0
   47.6580   33.0130   48.4630 H   0  0  0  0  0  0  0  0  0  0  0  0
   47.5180   31.3450   47.6110 H   0  0  0  0  0  0  0  0  0  0  0  0
   45.1880   33.1040   48.8460 H   0  0  0  0  0  0  0  0  0  0  0  0
   45.0620   31.4320   48.0550 H   0  0  0  0  0  0  0  0  0  0  0  0
  1  2  1  0  0  0  0
  1 22  1  0  0  0  0
  2  3  1  0  0  0  0
  4  2  1  0  0  0  0
  5 11  1  0  0  0  0
  6  2  1  0  0  0  0
  6  5  2  0  0  0  0
  7  6  1  0  0  0  0
  8  7  2  0  0  0  0
  8  9  1  0  0  0  0
  9 10  2  0  0  0  0
 10  5  1  0  0  0  0
 12  7  1  0  0  0  0
 13 18  1  6  0  0  0
 13 17  1  0  0  0  0
 13 14  1  0  0  0  0
 14  9  1  1  0  0  0
 14 15  1  0  0  0  0
 16 15  1  0  0  0  0
 17 20  1  6  0  0  0
 17 16  1  0  0  0  0
 19 18  1  0  0  0  0
 21 20  1  0  0  0  0
 22 23  2  0  0  0  0
 23 24  1  0  0  0  0
 24 25  1  0  0  0  0
 24 27  1  0  0  0  0
 26 24  1  0  0  0  0
 29 28  2  6  0  0  0
 29 27  1  0  0  0  0
 29 32  1  0  0  0  0
 30 29  1  0  0  0  0
 30 31  1  0  0  0  0
 32 33  1  0  0  0  0
 33 34  1  0  0  0  0
 33 35  1  0  0  0  0
 34 35  1  0  0  0  0
 34 37  1  0  0  0  0
 35 39  1  0  0  0  0
 36 33  1  0  0  0  0
 38 34  1  0  0  0  0
 40 35  1  0  0  0  0
M  END
>  <minimizedAffinity>
-5.06438923

>  <minimizedRMSD>
0.7056849

$$$$
