
 OpenBabel03252504323D

 40 42  0  0  1  0  0  0  0  0999 V2000
   42.8940   35.4070   40.6610 O   0  0  0  0  0  0  0  0  0  0  0  0
   41.6650   35.6560   41.1800 C   0  0  0  0  0  0  0  0  0  0  0  0
   41.5760   35.7760   42.2840 H   0  0  0  0  0  0  0  0  0  0  0  0
   41.2460   36.5930   40.7420 H   0  0  0  0  0  0  0  0  0  0  0  0
   41.0800   33.2860   41.1190 C   0  0  0  0  0  0  0  0  0  0  0  0
   40.6470   34.5990   40.8630 C   0  0  0  0  0  0  0  0  0  0  0  0
   39.3930   34.7840   40.3840 C   0  0  0  0  0  0  0  0  0  0  0  0
   38.6590   33.6770   40.1940 N   0  0  0  0  0  0  0  0  0  0  0  0
   39.0500   32.4440   40.4310 C   0  0  0  0  0  0  0  0  0  0  0  0
   40.3330   32.1970   40.9230 N   0  0  0  0  0  0  0  0  0  0  0  0
   42.0710   33.0830   41.5020 H   0  0  0  0  0  0  0  0  0  0  0  0
   39.1010   35.7900   40.2010 H   0  0  0  0  0  0  0  0  0  0  0  0
   38.9840   29.9700   40.0560 C   0  0  1  0  0  3  0  0  0  0  0  0
   38.2080   31.2350   40.2090 C   0  0  1  0  0  3  0  0  0  0  0  0
   37.4290   30.9530   41.3440 O   0  0  0  0  0  0  0  0  0  0  0  0
   36.8910   29.7190   41.0660 C   0  0  0  0  0  2  0  0  0  0  0  0
   37.8620   28.9380   40.2270 C   0  0  1  0  0  3  0  0  0  0  0  0
   39.5470   29.8210   38.7920 O   0  0  0  0  0  0  0  0  0  0  0  0
   40.3470   29.2490   38.7930 H   0  0  0  0  0  0  0  0  0  0  0  0
   37.2940   28.7800   38.9600 O   0  0  0  0  0  0  0  0  0  0  0  0
   37.4550   29.5610   38.3610 H   0  0  0  0  0  0  0  0  0  0  0  0
   44.0980   35.2810   41.3330 C   0  0  0  0  0  3  0  0  0  0  0  0
   44.0820   35.5930   42.6280 C   0  0  0  0  0  3  0  0  0  0  0  0
   45.2910   35.5200   43.5450 C   0  0  0  0  0  0  0  0  0  0  0  0
   45.5580   36.4990   43.9500 H   0  0  0  0  0  0  0  0  0  0  0  0
   46.1700   35.1760   42.9510 H   0  0  0  0  0  0  0  0  0  0  0  0
   45.0020   34.5780   44.5130 O   0  0  0  0  0  0  0  0  0  0  0  0
   45.6270   32.4100   43.0990 O   0  0  0  0  0  0  0  0  0  0  0  0
   45.9810   33.2180   44.3260 P   0  0  1  0  0  0  0  0  0  0  0  0
   47.6090   33.6980   44.1530 O   0  0  0  0  0  0  0  0  0  0  0  0
   47.7350   34.6590   44.4130 H   0  0  0  0  0  0  0  0  0  0  0  0
   45.9000   32.2470   45.7030 O   0  0  0  0  0  0  0  0  0  0  0  0
   46.1990   32.9400   46.8560 C   0  0  0  0  0  0  0  0  0  0  0  0
   47.0930   32.3060   47.8770 C   0  0  0  0  0  0  0  0  0  0  0  0
   45.5930   32.3860   48.1230 C   0  0  0  0  0  0  0  0  0  0  0  0
   46.2080   34.0360   46.7530 H   0  0  0  0  0  0  0  0  0  0  0  0
   47.6910   33.0060   48.4960 H   0  0  0  0  0  0  0  0  0  0  0  0
   47.5550   31.3390   47.6420 H   0  0  0  0  0  0  0  0  0  0  0  0
   45.2230   33.0770   48.9040 H   0  0  0  0  0  0  0  0  0  0  0  0
   45.1030   31.4060   48.1100 H   0  0  0  0  0  0  0  0  0  0  0  0
  1  2  1  0  0  0  0
  1 22  1  0  0  0  0
  2  3  1  0  0  0  0
  4  2  1  0  0  0  0
  5 11  1  0  0  0  0
  6  5  2  0  0  0  0
  6  2  1  0  0  0  0
  7  6  1  0  0  0  0
  8  7  2  0  0  0  0
  8  9  1  0  0  0  0
  9 10  2  0  0  0  0
 10  5  1  0  0  0  0
 12  7  1  0  0  0  0
 13 18  1  6  0  0  0
 13 14  1  0  0  0  0
 13 17  1  0  0  0  0
 14  9  1  1  0  0  0
 14 15  1  0  0  0  0
 16 15  1  0  0  0  0
 17 20  1  6  0  0  0
 17 16  1  0  0  0  0
 18 19  1  0  0  0  0
 21 20  1  0  0  0  0
 22 23  2  0  0  0  0
 23 24  1  0  0  0  0
 24 25  1  0  0  0  0
 24 27  1  0  0  0  0
 26 24  1  0  0  0  0
 29 28  2  6  0  0  0
 29 27  1  0  0  0  0
 29 32  1  0  0  0  0
 30 29  1  0  0  0  0
 30 31  1  0  0  0  0
 32 33  1  0  0  0  0
 33 34  1  0  0  0  0
 33 35  1  0  0  0  0
 34 35  1  0  0  0  0
 34 37  1  0  0  0  0
 35 39  1  0  0  0  0
 36 33  1  0  0  0  0
 38 34  1  0  0  0  0
 40 35  1  0  0  0  0
M  END
>  <minimizedAffinity>
-5.0517168

>  <minimizedRMSD>
0.864399254

$$$$
