REMARK  Name = 
REMARK  12 active torsions:
REMARK  status: ('A' for Active; 'I' for Inactive)
REMARK    1  A    between atoms: C_1  and  O_12
REMARK    2  A    between atoms: C_2  and  C_3
REMARK    3  A    between atoms: C_3  and  O_4
REMARK    4  A    between atoms: O_4  and  P_6
REMARK    5  A    between atoms: P_6  and  O_7
REMARK    6  A    between atoms: P_6  and  O_8
REMARK    7  A    between atoms: O_8  and  C_9
REMARK    8  A    between atoms: O_12  and  C_13
REMARK    9  A    between atoms: C_13  and  C_15
REMARK   10  A    between atoms: C_18  and  C_36
REMARK   11  A    between atoms: O_34  and  C_35
REMARK   12  A    between atoms: C_39  and  O_40
REMARK                            x       y       z     vdW  Elec       q    Type
REMARK                         _______ _______ _______ _____ _____    ______ ____
ROOT
ATOM      1  O   UNL     1      42.623  35.337  40.616  0.00  0.00    +0.000 OA
ENDROOT
BRANCH   1   2
ATOM      2  C   UNL     1      41.445  35.652  41.212  0.00  0.00    +0.000 C 
ATOM      3  H   UNL     1      41.409  35.675  42.325  0.00  0.00    +0.000 HD
ATOM      4  H   UNL     1      41.106  36.663  40.881  0.00  0.00    +0.000 HD
BRANCH   2   6
ATOM      5  C   UNL     1      40.286  33.535  41.582  0.00  0.00    +0.000 A 
ATOM      6  C   UNL     1      40.315  34.734  40.847  0.00  0.00    +0.000 A 
ATOM      7  C   UNL     1      39.349  34.947  39.922  0.00  0.00    +0.000 A 
ATOM      8  N   UNL     1      38.430  33.979  39.786  0.00  0.00    +0.000 NA
ATOM      9  C   UNL     1      38.390  32.855  40.467  0.00  0.00    +0.000 A 
ATOM     10  N   UNL     1      39.362  32.583  41.431  0.00  0.00    +0.000 NA
ATOM     11  H   UNL     1      41.034  33.315  42.332  0.00  0.00    +0.000 HD
ATOM     12  H   UNL     1      39.403  35.864  39.385  0.00  0.00    +0.000 HD
BRANCH   9  14
ATOM     13  C   UNL     1      37.445  30.683  41.277  0.00  0.00    +0.000 C 
ATOM     14  C   UNL     1      37.353  31.799  40.290  0.00  0.00    +0.000 C 
ATOM     15  O   UNL     1      36.072  32.308  40.558  0.00  0.00    +0.000 OA
ATOM     16  C   UNL     1      35.276  31.188  40.566  0.00  0.00    +0.000 C 
ATOM     17  C   UNL     1      36.077  30.020  41.067  0.00  0.00    +0.000 C 
BRANCH  13  18
ATOM     18  O   UNL     1      38.445  29.765  40.973  0.00  0.00    +0.000 OA
ATOM     19  H   UNL     1      38.780  29.287  41.765  0.00  0.00    +0.000 HD
ENDBRANCH  13  18
BRANCH  17  20
ATOM     20  O   UNL     1      36.245  29.133  39.999  0.00  0.00    +0.000 OA
ATOM     21  H   UNL     1      37.016  29.369  39.413  0.00  0.00    +0.000 HD
ENDBRANCH  17  20
ENDBRANCH   9  14
ENDBRANCH   2   6
ENDBRANCH   1   2
BRANCH   1  22
ATOM     22  C   UNL     1      43.876  35.234  41.197  0.00  0.00    +0.000 C 
ATOM     23  C   UNL     1      43.957  35.581  42.480  0.00  0.00    +0.000 C 
BRANCH  23  24
ATOM     24  C   UNL     1      45.233  35.538  43.303  0.00  0.00    +0.000 C 
ATOM     25  H   UNL     1      45.545  36.534  43.629  0.00  0.00    +0.000 HD
ATOM     26  H   UNL     1      46.058  35.146  42.663  0.00  0.00    +0.000 HD
BRANCH  24  27
ATOM     27  O   UNL     1      45.009  34.658  44.343  0.00  0.00    +0.000 OA
BRANCH  27  29
ATOM     28  O   UNL     1      45.709  32.499  42.950  0.00  0.00    +0.000 OA
ATOM     29  P   UNL     1      46.002  33.303  44.196  0.00  0.00    +0.000 P 
BRANCH  29  30
ATOM     30  O   UNL     1      47.634  33.791  44.101  0.00  0.00    +0.000 OA
ATOM     31  H   UNL     1      47.743  34.751  44.371  0.00  0.00    +0.000 HD
ENDBRANCH  29  30
BRANCH  29  32
ATOM     32  O   UNL     1      45.861  32.325  45.563  0.00  0.00    +0.000 OA
BRANCH  32  33
ATOM     33  C   UNL     1      46.197  32.988  46.724  0.00  0.00    +0.000 C 
ATOM     34  C   UNL     1      47.052  32.294  47.739  0.00  0.00    +0.000 C 
ATOM     35  C   UNL     1      45.559  32.458  47.984  0.00  0.00    +0.000 C 
ATOM     36  H   UNL     1      46.270  34.083  46.632  0.00  0.00    +0.000 HD
ATOM     37  H   UNL     1      47.688  32.952  48.366  0.00  0.00    +0.000 HD
ATOM     38  H   UNL     1      47.458  31.304  47.495  0.00  0.00    +0.000 HD
ATOM     39  H   UNL     1      45.228  33.161  48.772  0.00  0.00    +0.000 HD
ATOM     40  H   UNL     1      45.013  31.508  47.961  0.00  0.00    +0.000 HD
ENDBRANCH  32  33
ENDBRANCH  29  32
ENDBRANCH  27  29
ENDBRANCH  24  27
ENDBRANCH  23  24
ENDBRANCH   1  22
TORSDOF 12
