
 OpenBabel03252504323D

 40 42  0  0  1  0  0  0  0  0999 V2000
   42.5920   35.4160   40.5660 O   0  0  0  0  0  0  0  0  0  0  0  0
   41.3950   35.6200   41.1720 C   0  0  0  0  0  0  0  0  0  0  0  0
   41.3860   35.7820   42.2740 H   0  0  0  0  0  0  0  0  0  0  0  0
   40.8900   36.5140   40.7340 H   0  0  0  0  0  0  0  0  0  0  0  0
   40.7060   33.3450   41.7290 C   0  0  0  0  0  0  0  0  0  0  0  0
   40.4170   34.4980   40.9780 C   0  0  0  0  0  0  0  0  0  0  0  0
   39.3160   34.4950   40.1890 C   0  0  0  0  0  0  0  0  0  0  0  0
   38.5830   33.3710   40.1940 N   0  0  0  0  0  0  0  0  0  0  0  0
   38.8410   32.2870   40.8920 C   0  0  0  0  0  0  0  0  0  0  0  0
   39.9630   32.2350   41.7200 N   0  0  0  0  0  0  0  0  0  0  0  0
   41.5730   33.2950   42.3750 H   0  0  0  0  0  0  0  0  0  0  0  0
   39.1290   35.3840   39.6350 H   0  0  0  0  0  0  0  0  0  0  0  0
   38.3570   30.0940   39.7880 C   0  0  1  0  0  3  0  0  0  0  0  0
   38.0030   31.0540   40.8740 C   0  0  1  0  0  3  0  0  0  0  0  0
   38.2310   30.2790   42.0220 O   0  0  0  0  0  0  0  0  0  0  0  0
   37.5680   29.1040   41.7550 C   0  0  0  0  0  2  0  0  0  0  0  0
   37.6090   28.8440   40.2750 C   0  0  1  0  0  3  0  0  0  0  0  0
   37.8540   30.4640   38.5440 O   0  0  0  0  0  0  0  0  0  0  0  0
   38.3800   30.1040   37.7950 H   0  0  0  0  0  0  0  0  0  0  0  0
   36.3050   28.9670   39.7880 O   0  0  0  0  0  0  0  0  0  0  0  0
   36.0520   29.9090   39.5820 H   0  0  0  0  0  0  0  0  0  0  0  0
   43.8450   35.3350   41.1500 C   0  0  0  0  0  3  0  0  0  0  0  0
   43.9080   35.6340   42.4460 C   0  0  0  0  0  3  0  0  0  0  0  0
   45.1810   35.6040   43.2740 C   0  0  0  0  0  0  0  0  0  0  0  0
   45.4680   36.6000   43.6220 H   0  0  0  0  0  0  0  0  0  0  0  0
   46.0180   35.2450   42.6300 H   0  0  0  0  0  0  0  0  0  0  0  0
   44.9730   34.6970   44.2950 O   0  0  0  0  0  0  0  0  0  0  0  0
   45.6910   32.5790   42.8490 O   0  0  0  0  0  0  0  0  0  0  0  0
   45.9810   33.3580   44.1110 P   0  0  1  0  0  0  0  0  0  0  0  0
   47.6070   33.8680   44.0180 O   0  0  0  0  0  0  0  0  0  0  0  0
   47.7060   34.8230   44.3080 H   0  0  0  0  0  0  0  0  0  0  0  0
   45.8610   32.3480   45.4570 O   0  0  0  0  0  0  0  0  0  0  0  0
   46.1340   33.0050   46.6370 C   0  0  0  0  0  0  0  0  0  0  0  0
   47.0470   32.3630   47.6350 C   0  0  0  0  0  0  0  0  0  0  0  0
   45.5450   32.3840   47.8790 C   0  0  0  0  0  0  0  0  0  0  0  0
   46.1080   34.1050   46.5760 H   0  0  0  0  0  0  0  0  0  0  0  0
   47.6200   33.0570   48.2830 H   0  0  0  0  0  0  0  0  0  0  0  0
   47.5410   31.4210   47.3650 H   0  0  0  0  0  0  0  0  0  0  0  0
   45.1510   33.0320   48.6850 H   0  0  0  0  0  0  0  0  0  0  0  0
   45.0870   31.3900   47.8270 H   0  0  0  0  0  0  0  0  0  0  0  0
  1 22  1  0  0  0  0
  1  2  1  0  0  0  0
  2  3  1  0  0  0  0
  4  2  1  0  0  0  0
  5 11  1  0  0  0  0
  6  2  1  0  0  0  0
  6  5  2  0  0  0  0
  7  8  2  0  0  0  0
  7  6  1  0  0  0  0
  8  9  1  0  0  0  0
  9 10  2  0  0  0  0
 10  5  1  0  0  0  0
 12  7  1  0  0  0  0
 13 18  1  6  0  0  0
 13 17  1  0  0  0  0
 13 14  1  0  0  0  0
 14  9  1  1  0  0  0
 14 15  1  0  0  0  0
 16 15  1  0  0  0  0
 17 20  1  6  0  0  0
 17 16  1  0  0  0  0
 19 18  1  0  0  0  0
 21 20  1  0  0  0  0
 22 23  2  0  0  0  0
 23 24  1  0  0  0  0
 24 25  1  0  0  0  0
 24 27  1  0  0  0  0
 26 24  1  0  0  0  0
 29 28  2  6  0  0  0
 29 27  1  0  0  0  0
 29 32  1  0  0  0  0
 30 29  1  0  0  0  0
 30 31  1  0  0  0  0
 32 33  1  0  0  0  0
 33 34  1  0  0  0  0
 33 35  1  0  0  0  0
 34 35  1  0  0  0  0
 34 37  1  0  0  0  0
 35 39  1  0  0  0  0
 36 33  1  0  0  0  0
 38 34  1  0  0  0  0
 40 35  1  0  0  0  0
M  END
>  <minimizedAffinity>
-5.14062595

>  <minimizedRMSD>
0.746943176

$$$$
