
 OpenBabel03252501063D

 40 43  0  0  1  0  0  0  0  0999 V2000
   48.5660   32.3840   37.9630 O   0  0  0  0  0  0  0  0  0  0  0  0
   48.0910   33.8190   38.1820 P   0  0  2  0  0  0  0  0  0  0  0  0
   49.3200   34.8070   37.5750 O   0  0  0  0  0  0  0  0  0  0  0  0
   48.8860   35.6850   37.3430 H   0  0  0  0  0  0  0  0  0  0  0  0
   47.6760   34.1070   39.7380 O   0  0  0  0  0  0  0  0  0  0  0  0
   48.0060   35.3140   41.8110 C   0  0  1  0  0  0  0  0  0  0  0  0
   49.1790   34.4420   41.7110 C   0  0  0  0  0  0  0  0  0  0  0  0
   48.4410   34.9490   40.4610 C   0  0  1  0  0  0  0  0  0  0  0  0
   48.1440   36.3650   42.1410 H   0  0  0  0  0  0  0  0  0  0  0  0
   49.0970   33.3420   41.8100 H   0  0  0  0  0  0  0  0  0  0  0  0
   50.2100   34.7930   41.8950 H   0  0  0  0  0  0  0  0  0  0  0  0
   49.1000   35.6020   39.8570 H   0  0  0  0  0  0  0  0  0  0  0  0
   45.6790   32.8540   43.5110 C   0  0  0  0  0  0  0  0  0  0  0  0
   46.8530   33.4610   43.0720 C   0  0  0  0  0  0  0  0  0  0  0  0
   46.7560   34.6420   42.3100 C   0  0  0  0  0  0  0  0  0  0  0  0
   45.5290   35.1590   42.0230 N   0  0  0  0  0  0  0  0  0  0  0  0
   44.4010   34.5400   42.4660 C   0  0  0  0  0  0  0  0  0  0  0  0
   44.4770   33.3920   43.2070 N   0  0  0  0  0  0  0  0  0  0  0  0
   45.7120   31.9530   44.0930 H   0  0  0  0  0  0  0  0  0  0  0  0
   47.8010   33.0270   43.3160 H   0  0  0  0  0  0  0  0  0  0  0  0
   43.4620   35.0060   42.2010 H   0  0  0  0  0  0  0  0  0  0  0  0
   46.7710   33.9920   37.1600 O   0  0  0  0  0  0  0  0  0  0  0  0
   45.7510   33.0590   37.0340 C   0  0  0  0  0  0  0  0  0  0  0  0
   45.6550   32.0270   36.1230 C   0  0  0  0  0  0  0  0  0  0  0  0
   44.5830   31.1860   36.1220 C   0  0  0  0  0  0  0  0  0  0  0  0
   43.5720   31.3530   37.0340 C   0  0  0  0  0  0  0  0  0  0  0  0
   43.7030   32.4080   37.9410 C   0  0  0  0  0  0  0  0  0  0  0  0
   44.7680   33.2360   37.9340 N   0  0  0  0  0  0  0  0  0  0  0  0
   46.5100   31.9840   35.4440 H   0  0  0  0  0  0  0  0  0  0  0  0
   44.6440   30.4250   35.3520 H   0  0  0  0  0  0  0  0  0  0  0  0
   42.7510   30.6690   36.9950 H   0  0  0  0  0  0  0  0  0  0  0  0
   42.7600   31.7510   40.1700 C   0  0  1  0  0  3  0  0  0  0  0  0
   42.5840   32.5530   38.8990 C   0  0  1  0  0  3  0  0  0  0  0  0
   42.3930   33.8170   39.3940 O   0  0  0  0  0  0  0  0  0  0  0  0
   41.3760   33.6340   40.3260 C   0  0  0  0  0  2  0  0  0  0  0  0
   41.5550   32.2810   40.9650 C   0  0  2  0  0  3  0  0  0  0  0  0
   42.6560   30.3930   39.9520 O   0  0  0  0  0  0  0  0  0  0  0  0
   41.8880   30.0020   40.4390 H   0  0  0  0  0  0  0  0  0  0  0  0
   41.7860   32.3090   42.3160 O   0  0  0  0  0  0  0  0  0  0  0  0
   41.4810   33.1180   42.7730 H   0  0  0  0  0  0  0  0  0  0  0  0
  2  1  2  6  0  0  0
  2  5  1  0  0  0  0
  3  2  1  0  0  0  0
  4  3  1  0  0  0  0
  5  8  1  0  0  0  0
  6  9  1  1  0  0  0
  6 15  1  0  0  0  0
  7 10  1  0  0  0  0
  7  6  1  0  0  0  0
  7 11  1  0  0  0  0
  8 12  1  6  0  0  0
  8  7  1  0  0  0  0
  8  6  1  0  0  0  0
 13 19  1  0  0  0  0
 14 20  1  0  0  0  0
 14 13  2  0  0  0  0
 15 14  1  0  0  0  0
 16 15  2  0  0  0  0
 16 17  1  0  0  0  0
 17 18  2  0  0  0  0
 18 13  1  0  0  0  0
 21 17  1  0  0  0  0
 22  2  1  0  0  0  0
 23 22  1  0  0  0  0
 23 28  1  0  0  0  0
 24 23  2  0  0  0  0
 25 24  1  0  0  0  0
 25 26  2  0  0  0  0
 26 27  1  0  0  0  0
 28 27  2  0  0  0  0
 29 24  1  0  0  0  0
 30 25  1  0  0  0  0
 31 26  1  0  0  0  0
 32 37  1  6  0  0  0
 32 36  1  0  0  0  0
 33 27  1  6  0  0  0
 33 34  1  0  0  0  0
 33 32  1  0  0  0  0
 34 35  1  0  0  0  0
 35 36  1  0  0  0  0
 36 39  1  1  0  0  0
 37 38  1  0  0  0  0
 39 40  1  0  0  0  0
M  END
>  <minimizedAffinity>
-5.08899784

>  <minimizedRMSD>
0.899255157

$$$$
