
 OpenBabel03252501053D

 40 43  0  0  1  0  0  0  0  0999 V2000
   48.3860   32.3580   38.2480 O   0  0  0  0  0  0  0  0  0  0  0  0
   48.0240   33.8410   38.3190 P   0  0  2  0  0  0  0  0  0  0  0  0
   49.3110   34.6620   37.5940 O   0  0  0  0  0  0  0  0  0  0  0  0
   48.9400   35.5420   37.2750 H   0  0  0  0  0  0  0  0  0  0  0  0
   47.6640   34.3220   39.8400 O   0  0  0  0  0  0  0  0  0  0  0  0
   48.2760   35.4670   41.8840 C   0  0  1  0  0  0  0  0  0  0  0  0
   49.3880   34.5440   41.6410 C   0  0  0  0  0  0  0  0  0  0  0  0
   48.5430   35.1120   40.4880 C   0  0  1  0  0  0  0  0  0  0  0  0
   48.5000   36.5030   42.2140 H   0  0  0  0  0  0  0  0  0  0  0  0
   49.2650   33.4470   41.7300 H   0  0  0  0  0  0  0  0  0  0  0  0
   50.4490   34.8430   41.7160 H   0  0  0  0  0  0  0  0  0  0  0  0
   49.1630   35.7470   39.8260 H   0  0  0  0  0  0  0  0  0  0  0  0
   46.0000   33.0050   43.6490 C   0  0  0  0  0  0  0  0  0  0  0  0
   47.1470   33.5640   43.0910 C   0  0  0  0  0  0  0  0  0  0  0  0
   47.0580   34.8430   42.5070 C   0  0  0  0  0  0  0  0  0  0  0  0
   45.8630   35.4980   42.5010 N   0  0  0  0  0  0  0  0  0  0  0  0
   44.7610   34.9230   43.0550 C   0  0  0  0  0  0  0  0  0  0  0  0
   44.8310   33.6820   43.6260 N   0  0  0  0  0  0  0  0  0  0  0  0
   46.0290   32.0330   44.1030 H   0  0  0  0  0  0  0  0  0  0  0  0
   48.0700   33.0210   43.1130 H   0  0  0  0  0  0  0  0  0  0  0  0
   43.8470   35.5000   43.0140 H   0  0  0  0  0  0  0  0  0  0  0  0
   46.7000   34.0060   37.3010 O   0  0  0  0  0  0  0  0  0  0  0  0
   45.6820   33.0700   37.1830 C   0  0  0  0  0  0  0  0  0  0  0  0
   45.5880   32.0280   36.2830 C   0  0  0  0  0  0  0  0  0  0  0  0
   44.5170   31.1860   36.2900 C   0  0  0  0  0  0  0  0  0  0  0  0
   43.5050   31.3620   37.1980 C   0  0  0  0  0  0  0  0  0  0  0  0
   43.6330   32.4270   38.0940 C   0  0  0  0  0  0  0  0  0  0  0  0
   44.6970   33.2560   38.0790 N   0  0  0  0  0  0  0  0  0  0  0  0
   46.4440   31.9780   35.6070 H   0  0  0  0  0  0  0  0  0  0  0  0
   44.5810   30.4160   35.5280 H   0  0  0  0  0  0  0  0  0  0  0  0
   42.6850   30.6760   37.1660 H   0  0  0  0  0  0  0  0  0  0  0  0
   42.9250   33.1350   40.3930 C   0  0  1  0  0  3  0  0  0  0  0  0
   42.5120   32.5810   39.0480 C   0  0  1  0  0  3  0  0  0  0  0  0
   41.5370   33.4670   38.6710 O   0  0  0  0  0  0  0  0  0  0  0  0
   40.6930   33.4880   39.7770 C   0  0  0  0  0  2  0  0  0  0  0  0
   41.5320   33.3290   41.0190 C   0  0  2  0  0  3  0  0  0  0  0  0
   43.6780   32.2380   41.1230 O   0  0  0  0  0  0  0  0  0  0  0  0
   43.2240   31.9760   41.9620 H   0  0  0  0  0  0  0  0  0  0  0  0
   41.4880   34.3910   41.8850 O   0  0  0  0  0  0  0  0  0  0  0  0
   40.6970   34.9610   41.8030 H   0  0  0  0  0  0  0  0  0  0  0  0
  2  1  2  1  0  0  0
  2  5  1  0  0  0  0
  3  2  1  0  0  0  0
  4  3  1  0  0  0  0
  5  8  1  0  0  0  0
  6  9  1  1  0  0  0
  6 15  1  0  0  0  0
  7 11  1  0  0  0  0
  7 10  1  0  0  0  0
  7  6  1  0  0  0  0
  8 12  1  6  0  0  0
  8  7  1  0  0  0  0
  8  6  1  0  0  0  0
 13 19  1  0  0  0  0
 14 20  1  0  0  0  0
 14 13  2  0  0  0  0
 15 14  1  0  0  0  0
 16 15  2  0  0  0  0
 16 17  1  0  0  0  0
 17 18  2  0  0  0  0
 18 13  1  0  0  0  0
 21 17  1  0  0  0  0
 22  2  1  0  0  0  0
 23 22  1  0  0  0  0
 23 28  1  0  0  0  0
 24 25  1  0  0  0  0
 24 23  2  0  0  0  0
 25 26  2  0  0  0  0
 26 27  1  0  0  0  0
 28 27  2  0  0  0  0
 29 24  1  0  0  0  0
 30 25  1  0  0  0  0
 31 26  1  0  0  0  0
 32 36  1  0  0  0  0
 32 37  1  1  0  0  0
 33 27  1  6  0  0  0
 33 32  1  0  0  0  0
 34 33  1  0  0  0  0
 34 35  1  0  0  0  0
 35 36  1  0  0  0  0
 36 39  1  1  0  0  0
 37 38  1  0  0  0  0
 40 39  1  0  0  0  0
M  END
>  <minimizedAffinity>
-5.29677534

>  <minimizedRMSD>
0.674609482

$$$$
