
 OpenBabel03252501063D

 40 43  0  0  1  0  0  0  0  0999 V2000
   48.6750   32.2960   38.0450 O   0  0  0  0  0  0  0  0  0  0  0  0
   48.1120   33.6940   38.2970 P   0  0  2  0  0  0  0  0  0  0  0  0
   49.2300   34.7680   37.6240 O   0  0  0  0  0  0  0  0  0  0  0  0
   48.7220   35.6120   37.4210 H   0  0  0  0  0  0  0  0  0  0  0  0
   47.7700   33.9520   39.8760 O   0  0  0  0  0  0  0  0  0  0  0  0
   47.8450   35.3850   41.8260 C   0  0  1  0  0  0  0  0  0  0  0  0
   49.2060   34.8530   41.7170 C   0  0  0  0  0  0  0  0  0  0  0  0
   48.3060   35.0290   40.4820 C   0  0  1  0  0  0  0  0  0  0  0  0
   47.7060   36.4600   42.0650 H   0  0  0  0  0  0  0  0  0  0  0  0
   49.4300   33.7850   41.9040 H   0  0  0  0  0  0  0  0  0  0  0  0
   50.1100   35.4820   41.8060 H   0  0  0  0  0  0  0  0  0  0  0  0
   48.7370   35.7770   39.7890 H   0  0  0  0  0  0  0  0  0  0  0  0
   46.3320   32.6490   43.9650 C   0  0  0  0  0  0  0  0  0  0  0  0
   47.2750   33.5080   43.4090 C   0  0  0  0  0  0  0  0  0  0  0  0
   46.8470   34.4520   42.4550 C   0  0  0  0  0  0  0  0  0  0  0  0
   45.5320   34.5020   42.1010 N   0  0  0  0  0  0  0  0  0  0  0  0
   44.6350   33.6470   42.6640 C   0  0  0  0  0  0  0  0  0  0  0  0
   45.0350   32.7240   43.5920 N   0  0  0  0  0  0  0  0  0  0  0  0
   46.6190   31.9160   44.6950 H   0  0  0  0  0  0  0  0  0  0  0  0
   48.3010   33.4410   43.7100 H   0  0  0  0  0  0  0  0  0  0  0  0
   43.6100   33.7430   42.3360 H   0  0  0  0  0  0  0  0  0  0  0  0
   46.7260   33.7710   37.3550 O   0  0  0  0  0  0  0  0  0  0  0  0
   45.6130   32.9620   37.5310 C   0  0  0  0  0  0  0  0  0  0  0  0
   45.3450   31.7470   36.9330 C   0  0  0  0  0  0  0  0  0  0  0  0
   44.1990   31.0640   37.2090 C   0  0  0  0  0  0  0  0  0  0  0  0
   43.2840   31.5780   38.0920 C   0  0  0  0  0  0  0  0  0  0  0  0
   43.5880   32.8090   38.6780 C   0  0  0  0  0  0  0  0  0  0  0  0
   44.7250   33.4780   38.3990 N   0  0  0  0  0  0  0  0  0  0  0  0
   46.1360   31.4320   36.2500 H   0  0  0  0  0  0  0  0  0  0  0  0
   44.1250   30.1280   36.6670 H   0  0  0  0  0  0  0  0  0  0  0  0
   42.3980   31.0060   38.2770 H   0  0  0  0  0  0  0  0  0  0  0  0
   42.3770   34.8240   39.5530 C   0  0  1  0  0  3  0  0  0  0  0  0
   42.5660   33.3250   39.6170 C   0  0  1  0  0  3  0  0  0  0  0  0
   41.2900   32.8750   39.4010 O   0  0  0  0  0  0  0  0  0  0  0  0
   40.5480   33.5900   40.3370 C   0  0  0  0  0  2  0  0  0  0  0  0
   41.1590   34.9590   40.4830 C   0  0  2  0  0  3  0  0  0  0  0  0
   43.4640   35.5120   40.0530 O   0  0  0  0  0  0  0  0  0  0  0  0
   43.2240   36.0470   40.8490 H   0  0  0  0  0  0  0  0  0  0  0  0
   40.3380   35.9990   40.1270 O   0  0  0  0  0  0  0  0  0  0  0  0
   39.3810   35.7970   40.1500 H   0  0  0  0  0  0  0  0  0  0  0  0
  2  1  2  6  0  0  0
  2  5  1  0  0  0  0
  3  2  1  0  0  0  0
  4  3  1  0  0  0  0
  5  8  1  0  0  0  0
  6  9  1  1  0  0  0
  6 15  1  0  0  0  0
  7 11  1  0  0  0  0
  7  6  1  0  0  0  0
  7 10  1  0  0  0  0
  8 12  1  6  0  0  0
  8  7  1  0  0  0  0
  8  6  1  0  0  0  0
 13 19  1  0  0  0  0
 14 20  1  0  0  0  0
 14 13  2  0  0  0  0
 15 14  1  0  0  0  0
 16 15  2  0  0  0  0
 16 17  1  0  0  0  0
 17 18  2  0  0  0  0
 18 13  1  0  0  0  0
 21 17  1  0  0  0  0
 22 23  1  0  0  0  0
 22  2  1  0  0  0  0
 23 28  1  0  0  0  0
 24 25  1  0  0  0  0
 24 23  2  0  0  0  0
 25 26  2  0  0  0  0
 26 31  1  0  0  0  0
 26 27  1  0  0  0  0
 28 27  2  0  0  0  0
 29 24  1  0  0  0  0
 30 25  1  0  0  0  0
 32 33  1  0  0  0  0
 32 37  1  1  0  0  0
 32 36  1  0  0  0  0
 33 27  1  6  0  0  0
 34 33  1  0  0  0  0
 34 35  1  0  0  0  0
 35 36  1  0  0  0  0
 36 39  1  6  0  0  0
 37 38  1  0  0  0  0
 39 40  1  0  0  0  0
M  END
>  <minimizedAffinity>
-5.49187183

>  <minimizedRMSD>
1.24080575

$$$$
