REMARK  Name = 
REMARK  9 active torsions:
REMARK  status: ('A' for Active; 'I' for Inactive)
REMARK    1  A    between atoms: C_1  and  C_6
REMARK    2  A    between atoms: C_3  and  O_10
REMARK    3  A    between atoms: O_10  and  P_12
REMARK    4  A    between atoms: P_12  and  O_13
REMARK    5  A    between atoms: P_12  and  O_14
REMARK    6  A    between atoms: O_14  and  C_15
REMARK    7  A    between atoms: C_19  and  C_34
REMARK    8  A    between atoms: O_32  and  C_33
REMARK    9  A    between atoms: C_37  and  O_38
REMARK                            x       y       z     vdW  Elec       q    Type
REMARK                         _______ _______ _______ _____ _____    ______ ____
ROOT
ATOM      1  O   UNL     1      48.516  32.399  37.990  0.00  0.00    +0.000 OA
ATOM      2  P   UNL     1      48.096  33.847  38.236  0.00  0.00    +0.000 P 
ENDROOT
BRANCH   2   3
ATOM      3  O   UNL     1      49.326  34.800  37.576  0.00  0.00    +0.000 OA
ATOM      4  H   UNL     1      48.909  35.692  37.367  0.00  0.00    +0.000 HD
ENDBRANCH   2   3
BRANCH   2   5
ATOM      5  O   UNL     1      47.763  34.140  39.810  0.00  0.00    +0.000 OA
BRANCH   5   8
ATOM      6  C   UNL     1      48.079  35.474  41.807  0.00  0.00    +0.000 C 
ATOM      7  C   UNL     1      49.318  34.700  41.690  0.00  0.00    +0.000 C 
ATOM      8  C   UNL     1      48.483  35.079  40.455  0.00  0.00    +0.000 C 
ATOM      9  H   UNL     1      48.140  36.548  42.080  0.00  0.00    +0.000 HD
ATOM     10  H   UNL     1      49.336  33.603  41.844  0.00  0.00    +0.000 HD
ATOM     11  H   UNL     1      50.322  35.145  41.807  0.00  0.00    +0.000 HD
ATOM     12  H   UNL     1      49.056  35.754  39.790  0.00  0.00    +0.000 HD
BRANCH   6  15
ATOM     13  C   UNL     1      46.053  32.932  43.754  0.00  0.00    +0.000 A 
ATOM     14  C   UNL     1      47.149  33.614  43.231  0.00  0.00    +0.000 A 
ATOM     15  C   UNL     1      46.916  34.725  42.397  0.00  0.00    +0.000 A 
ATOM     16  N   UNL     1      45.636  35.104  42.123  0.00  0.00    +0.000 NA
ATOM     17  C   UNL     1      44.587  34.415  42.650  0.00  0.00    +0.000 A 
ATOM     18  N   UNL     1      44.796  33.334  43.462  0.00  0.00    +0.000 NA
ATOM     19  H   UNL     1      46.190  32.081  44.393  0.00  0.00    +0.000 HD
ATOM     20  H   UNL     1      48.142  33.288  43.467  0.00  0.00    +0.000 HD
ATOM     21  H   UNL     1      43.600  34.772  42.390  0.00  0.00    +0.000 HD
ENDBRANCH   6  15
ENDBRANCH   5   8
ENDBRANCH   2   5
BRANCH   2  22
ATOM     22  O   UNL     1      46.736  34.065  37.277  0.00  0.00    +0.000 OA
BRANCH  22  23
ATOM     23  C   UNL     1      45.786  33.084  37.031  0.00  0.00    +0.000 A 
ATOM     24  C   UNL     1      45.660  32.288  35.911  0.00  0.00    +0.000 A 
ATOM     25  C   UNL     1      44.666  31.361  35.814  0.00  0.00    +0.000 A 
ATOM     26  C   UNL     1      43.766  31.203  36.837  0.00  0.00    +0.000 A 
ATOM     27  C   UNL     1      43.924  32.026  37.955  0.00  0.00    +0.000 A 
ATOM     28  N   UNL     1      44.911  32.941  38.042  0.00  0.00    +0.000 NA
ATOM     29  H   UNL     1      46.425  32.495  35.160  0.00  0.00    +0.000 HD
ATOM     30  H   UNL     1      44.692  30.811  34.880  0.00  0.00    +0.000 HD
ATOM     31  H   UNL     1      43.003  30.463  36.716  0.00  0.00    +0.000 HD
BRANCH  27  33
ATOM     32  C   UNL     1      43.304  32.458  40.347  0.00  0.00    +0.000 C 
ATOM     33  C   UNL     1      42.924  31.824  39.028  0.00  0.00    +0.000 C 
ATOM     34  O   UNL     1      41.693  32.381  38.797  0.00  0.00    +0.000 OA
ATOM     35  C   UNL     1      41.013  32.133  39.985  0.00  0.00    +0.000 C 
ATOM     36  C   UNL     1      41.998  32.217  41.122  0.00  0.00    +0.000 C 
BRANCH  32  37
ATOM     37  O   UNL     1      44.367  31.819  40.950  0.00  0.00    +0.000 OA
ATOM     38  H   UNL     1      44.111  31.422  41.819  0.00  0.00    +0.000 HD
ENDBRANCH  32  37
BRANCH  36  39
ATOM     39  O   UNL     1      41.739  33.205  42.038  0.00  0.00    +0.000 OA
ATOM     40  H   UNL     1      40.811  33.511  42.066  0.00  0.00    +0.000 HD
ENDBRANCH  36  39
ENDBRANCH  27  33
ENDBRANCH  22  23
ENDBRANCH   2  22
TORSDOF 9
