
 OpenBabel03252501063D

 40 43  0  0  1  0  0  0  0  0999 V2000
   48.3860   32.3590   38.2450 O   0  0  0  0  0  0  0  0  0  0  0  0
   48.0240   33.8410   38.3180 P   0  0  2  0  0  0  0  0  0  0  0  0
   49.3110   34.6630   37.5940 O   0  0  0  0  0  0  0  0  0  0  0  0
   48.9390   35.5430   37.2760 H   0  0  0  0  0  0  0  0  0  0  0  0
   47.6650   34.3200   39.8400 O   0  0  0  0  0  0  0  0  0  0  0  0
   48.2760   35.4670   41.8840 C   0  0  1  0  0  0  0  0  0  0  0  0
   49.3890   34.5450   41.6410 C   0  0  0  0  0  0  0  0  0  0  0  0
   48.5430   35.1110   40.4880 C   0  0  1  0  0  0  0  0  0  0  0  0
   48.4990   36.5030   42.2130 H   0  0  0  0  0  0  0  0  0  0  0  0
   49.2650   33.4470   41.7310 H   0  0  0  0  0  0  0  0  0  0  0  0
   50.4490   34.8440   41.7170 H   0  0  0  0  0  0  0  0  0  0  0  0
   49.1640   35.7460   39.8260 H   0  0  0  0  0  0  0  0  0  0  0  0
   46.0000   33.0050   43.6490 C   0  0  0  0  0  0  0  0  0  0  0  0
   47.1470   33.5640   43.0900 C   0  0  0  0  0  0  0  0  0  0  0  0
   47.0580   34.8430   42.5060 C   0  0  0  0  0  0  0  0  0  0  0  0
   45.8630   35.4980   42.5000 N   0  0  0  0  0  0  0  0  0  0  0  0
   44.7600   34.9220   43.0540 C   0  0  0  0  0  0  0  0  0  0  0  0
   44.8300   33.6810   43.6260 N   0  0  0  0  0  0  0  0  0  0  0  0
   46.0280   32.0330   44.1030 H   0  0  0  0  0  0  0  0  0  0  0  0
   48.0700   33.0200   43.1120 H   0  0  0  0  0  0  0  0  0  0  0  0
   43.8470   35.4990   43.0130 H   0  0  0  0  0  0  0  0  0  0  0  0
   46.7000   34.0060   37.3010 O   0  0  0  0  0  0  0  0  0  0  0  0
   45.6820   33.0710   37.1830 C   0  0  0  0  0  0  0  0  0  0  0  0
   45.5890   32.0290   36.2830 C   0  0  0  0  0  0  0  0  0  0  0  0
   44.5170   31.1870   36.2900 C   0  0  0  0  0  0  0  0  0  0  0  0
   43.5050   31.3630   37.1980 C   0  0  0  0  0  0  0  0  0  0  0  0
   43.6330   32.4280   38.0930 C   0  0  0  0  0  0  0  0  0  0  0  0
   44.6970   33.2570   38.0790 N   0  0  0  0  0  0  0  0  0  0  0  0
   46.4450   31.9790   35.6070 H   0  0  0  0  0  0  0  0  0  0  0  0
   44.5810   30.4170   35.5280 H   0  0  0  0  0  0  0  0  0  0  0  0
   42.6840   30.6770   37.1650 H   0  0  0  0  0  0  0  0  0  0  0  0
   42.9240   33.1360   40.3930 C   0  0  1  0  0  3  0  0  0  0  0  0
   42.5110   32.5820   39.0480 C   0  0  1  0  0  3  0  0  0  0  0  0
   41.5370   33.4680   38.6700 O   0  0  0  0  0  0  0  0  0  0  0  0
   40.6920   33.4890   39.7760 C   0  0  0  0  0  2  0  0  0  0  0  0
   41.5310   33.3300   41.0170 C   0  0  2  0  0  3  0  0  0  0  0  0
   43.6770   32.2380   41.1220 O   0  0  0  0  0  0  0  0  0  0  0  0
   43.2220   31.9770   41.9610 H   0  0  0  0  0  0  0  0  0  0  0  0
   41.4860   34.3920   41.8840 O   0  0  0  0  0  0  0  0  0  0  0  0
   40.6960   34.9620   41.8020 H   0  0  0  0  0  0  0  0  0  0  0  0
  2  1  2  1  0  0  0
  2  5  1  0  0  0  0
  3  2  1  0  0  0  0
  4  3  1  0  0  0  0
  5  8  1  0  0  0  0
  6  9  1  1  0  0  0
  6 15  1  0  0  0  0
  7 11  1  0  0  0  0
  7 10  1  0  0  0  0
  7  6  1  0  0  0  0
  8 12  1  6  0  0  0
  8  7  1  0  0  0  0
  8  6  1  0  0  0  0
 13 19  1  0  0  0  0
 14 20  1  0  0  0  0
 14 13  2  0  0  0  0
 15 14  1  0  0  0  0
 16 15  2  0  0  0  0
 16 17  1  0  0  0  0
 17 18  2  0  0  0  0
 18 13  1  0  0  0  0
 21 17  1  0  0  0  0
 22  2  1  0  0  0  0
 23 22  1  0  0  0  0
 23 28  1  0  0  0  0
 24 25  1  0  0  0  0
 24 23  2  0  0  0  0
 25 26  2  0  0  0  0
 26 27  1  0  0  0  0
 28 27  2  0  0  0  0
 29 24  1  0  0  0  0
 30 25  1  0  0  0  0
 31 26  1  0  0  0  0
 32 36  1  0  0  0  0
 32 37  1  1  0  0  0
 33 27  1  6  0  0  0
 33 32  1  0  0  0  0
 34 33  1  0  0  0  0
 34 35  1  0  0  0  0
 35 36  1  0  0  0  0
 36 39  1  1  0  0  0
 37 38  1  0  0  0  0
 40 39  1  0  0  0  0
M  END
>  <minimizedAffinity>
-5.29686451

>  <minimizedRMSD>
0.613268971

$$$$
