
 OpenBabel03252501093D

 40 43  0  0  1  0  0  0  0  0999 V2000
   34.5560   29.1030   40.1670 O   0  0  0  0  0  0  0  0  0  0  0  0
   35.9470   29.4850   40.6680 P   0  0  2  0  0  0  0  0  0  0  0  0
   35.7910   31.0370   41.3170 O   0  0  0  0  0  0  0  0  0  0  0  0
   36.5410   31.1410   41.9810 H   0  0  0  0  0  0  0  0  0  0  0  0
   37.0900   29.3320   39.5080 O   0  0  0  0  0  0  0  0  0  0  0  0
   37.0280   30.7250   37.5280 C   0  0  1  0  0  0  0  0  0  0  0  0
   37.7860   29.5410   37.1130 C   0  0  0  0  0  0  0  0  0  0  0  0
   36.7200   29.4700   38.2200 C   0  0  1  0  0  0  0  0  0  0  0  0
   36.2670   31.1440   36.8380 H   0  0  0  0  0  0  0  0  0  0  0  0
   38.7970   29.3270   37.5120 H   0  0  0  0  0  0  0  0  0  0  0  0
   37.6010   29.0060   36.1650 H   0  0  0  0  0  0  0  0  0  0  0  0
   35.8810   28.8170   37.9110 H   0  0  0  0  0  0  0  0  0  0  0  0
   39.9240   32.6920   38.9780 C   0  0  0  0  0  0  0  0  0  0  0  0
   39.2210   31.7490   38.2320 C   0  0  0  0  0  0  0  0  0  0  0  0
   37.8150   31.7390   38.3120 C   0  0  0  0  0  0  0  0  0  0  0  0
   37.1790   32.6430   39.1090 N   0  0  0  0  0  0  0  0  0  0  0  0
   37.8970   33.5510   39.8260 C   0  0  0  0  0  0  0  0  0  0  0  0
   39.2630   33.5740   39.7600 N   0  0  0  0  0  0  0  0  0  0  0  0
   40.9960   32.7310   38.9440 H   0  0  0  0  0  0  0  0  0  0  0  0
   39.7530   31.0520   37.6160 H   0  0  0  0  0  0  0  0  0  0  0  0
   37.3270   34.2370   40.4370 H   0  0  0  0  0  0  0  0  0  0  0  0
   36.2400   28.4420   41.9500 O   0  0  0  0  0  0  0  0  0  0  0  0
   37.5020   28.1360   42.4380 C   0  0  0  0  0  0  0  0  0  0  0  0
   37.8600   27.0960   43.2720 C   0  0  0  0  0  0  0  0  0  0  0  0
   39.1520   26.9240   43.6690 C   0  0  0  0  0  0  0  0  0  0  0  0
   40.1270   27.7900   43.2430 C   0  0  0  0  0  0  0  0  0  0  0  0
   39.7290   28.8310   42.4010 C   0  0  0  0  0  0  0  0  0  0  0  0
   38.4470   28.9930   42.0130 N   0  0  0  0  0  0  0  0  0  0  0  0
   37.0100   26.4690   43.5500 H   0  0  0  0  0  0  0  0  0  0  0  0
   39.2820   26.0680   44.3210 H   0  0  0  0  0  0  0  0  0  0  0  0
   41.1270   27.6150   43.5810 H   0  0  0  0  0  0  0  0  0  0  0  0
   40.7880   31.0890   42.6670 C   0  0  1  0  0  3  0  0  0  0  0  0
   40.8140   29.7430   41.9760 C   0  0  1  0  0  3  0  0  0  0  0  0
   42.0850   29.3140   42.2530 O   0  0  0  0  0  0  0  0  0  0  0  0
   42.8700   30.3910   41.8520 C   0  0  0  0  0  2  0  0  0  0  0  0
   42.1150   31.6620   42.1390 C   0  0  2  0  0  3  0  0  0  0  0  0
   39.7170   31.8620   42.2700 O   0  0  0  0  0  0  0  0  0  0  0  0
   40.0130   32.6910   41.8190 H   0  0  0  0  0  0  0  0  0  0  0  0
   42.7190   32.5020   43.0400 O   0  0  0  0  0  0  0  0  0  0  0  0
   43.6850   32.3800   43.1360 H   0  0  0  0  0  0  0  0  0  0  0  0
  2  1  2  6  0  0  0
  2  3  1  0  0  0  0
  2 22  1  0  0  0  0
  3  4  1  0  0  0  0
  5  2  1  0  0  0  0
  6  9  1  6  0  0  0
  6  8  1  0  0  0  0
  6 15  1  0  0  0  0
  7 10  1  0  0  0  0
  7  6  1  0  0  0  0
  7  8  1  0  0  0  0
  8 12  1  6  0  0  0
  8  5  1  0  0  0  0
 11  7  1  0  0  0  0
 13 18  1  0  0  0  0
 14 15  1  0  0  0  0
 14 13  2  0  0  0  0
 15 16  2  0  0  0  0
 16 17  1  0  0  0  0
 17 21  1  0  0  0  0
 18 17  2  0  0  0  0
 19 13  1  0  0  0  0
 20 14  1  0  0  0  0
 22 23  1  0  0  0  0
 23 24  1  0  0  0  0
 24 29  1  0  0  0  0
 24 25  2  0  0  0  0
 25 30  1  0  0  0  0
 26 31  1  0  0  0  0
 26 25  1  0  0  0  0
 27 26  2  0  0  0  0
 28 27  1  0  0  0  0
 28 23  2  0  0  0  0
 32 37  1  6  0  0  0
 33 34  1  0  0  0  0
 33 27  1  1  0  0  0
 33 32  1  0  0  0  0
 35 36  1  0  0  0  0
 35 34  1  0  0  0  0
 36 32  1  0  0  0  0
 36 39  1  1  0  0  0
 38 37  1  0  0  0  0
 39 40  1  0  0  0  0
M  END
>  <minimizedAffinity>
-6.43814707

$$$$

 OpenBabel03252501093D

 40 43  0  0  1  0  0  0  0  0999 V2000
   36.2050   27.0930   39.3910 O   0  0  0  0  0  0  0  0  0  0  0  0
   37.6530   27.5750   39.3230 P   0  0  2  0  0  0  0  0  0  0  0  0
   38.5210   26.3210   38.5950 O   0  0  0  0  0  0  0  0  0  0  0  0
   39.3380   26.7440   38.1880 H   0  0  0  0  0  0  0  0  0  0  0  0
   38.2190   28.0530   40.7810 O   0  0  0  0  0  0  0  0  0  0  0  0
   37.2260   27.4160   42.8970 C   0  0  1  0  0  0  0  0  0  0  0  0
   37.8210   28.7290   43.1580 C   0  0  0  0  0  0  0  0  0  0  0  0
   37.3310   28.3300   41.7560 C   0  0  1  0  0  0  0  0  0  0  0  0
   36.2160   27.1940   43.3000 H   0  0  0  0  0  0  0  0  0  0  0  0
   38.9190   28.8780   43.1750 H   0  0  0  0  0  0  0  0  0  0  0  0
   37.2920   29.5370   43.6940 H   0  0  0  0  0  0  0  0  0  0  0  0
   36.4890   28.9760   41.4390 H   0  0  0  0  0  0  0  0  0  0  0  0
   40.3100   25.3210   43.5720 C   0  0  0  0  0  0  0  0  0  0  0  0
   39.4280   26.3990   43.5810 C   0  0  0  0  0  0  0  0  0  0  0  0
   38.1940   26.2650   42.9160 C   0  0  0  0  0  0  0  0  0  0  0  0
   37.8930   25.0950   42.2850 N   0  0  0  0  0  0  0  0  0  0  0  0
   38.7780   24.0610   42.2950 C   0  0  0  0  0  0  0  0  0  0  0  0
   39.9810   24.1750   42.9360 N   0  0  0  0  0  0  0  0  0  0  0  0
   41.2600   25.3850   44.0670 H   0  0  0  0  0  0  0  0  0  0  0  0
   39.6980   27.3040   44.0870 H   0  0  0  0  0  0  0  0  0  0  0  0
   38.4730   23.1640   41.7740 H   0  0  0  0  0  0  0  0  0  0  0  0
   37.6260   28.8520   38.2350 O   0  0  0  0  0  0  0  0  0  0  0  0
   37.7200   30.1890   38.5940 C   0  0  0  0  0  0  0  0  0  0  0  0
   36.7060   31.0290   39.0060 C   0  0  0  0  0  0  0  0  0  0  0  0
   36.9550   32.3300   39.3270 C   0  0  0  0  0  0  0  0  0  0  0  0
   38.2300   32.8300   39.2440 C   0  0  0  0  0  0  0  0  0  0  0  0
   39.2310   31.9510   38.8230 C   0  0  0  0  0  0  0  0  0  0  0  0
   38.9740   30.6650   38.5070 N   0  0  0  0  0  0  0  0  0  0  0  0
   35.7340   30.5320   39.0360 H   0  0  0  0  0  0  0  0  0  0  0  0
   36.0640   32.8670   39.6330 H   0  0  0  0  0  0  0  0  0  0  0  0
   38.3770   33.8570   39.5060 H   0  0  0  0  0  0  0  0  0  0  0  0
   41.1560   32.5710   37.3400 C   0  0  1  0  0  3  0  0  0  0  0  0
   40.5870   32.5390   38.7420 C   0  0  1  0  0  3  0  0  0  0  0  0
   40.6800   33.8560   39.1080 O   0  0  0  0  0  0  0  0  0  0  0  0
   42.0100   34.1610   38.8340 C   0  0  0  0  0  2  0  0  0  0  0  0
   42.4320   33.3880   37.6120 C   0  0  2  0  0  3  0  0  0  0  0  0
   41.4620   31.3110   36.8690 O   0  0  0  0  0  0  0  0  0  0  0  0
   42.4300   31.2130   36.6920 H   0  0  0  0  0  0  0  0  0  0  0  0
   42.7980   34.1610   36.5390 O   0  0  0  0  0  0  0  0  0  0  0  0
   43.0780   35.0710   36.7600 H   0  0  0  0  0  0  0  0  0  0  0  0
  2  1  2  1  0  0  0
  2  5  1  0  0  0  0
  3  2  1  0  0  0  0
  4  3  1  0  0  0  0
  5  8  1  0  0  0  0
  6 15  1  0  0  0  0
  6  7  1  0  0  0  0
  6  9  1  1  0  0  0
  7 10  1  0  0  0  0
  7 11  1  0  0  0  0
  8 12  1  6  0  0  0
  8  6  1  0  0  0  0
  8  7  1  0  0  0  0
 13 14  1  0  0  0  0
 13 19  1  0  0  0  0
 14 20  1  0  0  0  0
 15 14  2  0  0  0  0
 16 17  2  0  0  0  0
 16 15  1  0  0  0  0
 17 18  1  0  0  0  0
 18 13  2  0  0  0  0
 21 17  1  0  0  0  0
 22 23  1  0  0  0  0
 22  2  1  0  0  0  0
 23 24  1  0  0  0  0
 24 29  1  0  0  0  0
 24 25  2  0  0  0  0
 25 30  1  0  0  0  0
 26 25  1  0  0  0  0
 26 31  1  0  0  0  0
 27 26  2  0  0  0  0
 28 23  2  0  0  0  0
 28 27  1  0  0  0  0
 32 37  1  1  0  0  0
 32 36  1  0  0  0  0
 32 33  1  0  0  0  0
 33 27  1  6  0  0  0
 33 34  1  0  0  0  0
 35 34  1  0  0  0  0
 36 39  1  6  0  0  0
 36 35  1  0  0  0  0
 38 37  1  0  0  0  0
 39 40  1  0  0  0  0
M  END
>  <minimizedAffinity>
-6.2216363

$$$$

 OpenBabel03252501093D

 40 43  0  0  1  0  0  0  0  0999 V2000
   36.2800   30.2010   39.1840 O   0  0  0  0  0  0  0  0  0  0  0  0
   35.5970   28.9030   39.6100 P   0  0  2  0  0  0  0  0  0  0  0  0
   34.1090   29.3610   40.2680 O   0  0  0  0  0  0  0  0  0  0  0  0
   33.5050   28.5610   40.1820 H   0  0  0  0  0  0  0  0  0  0  0  0
   36.5390   27.9970   40.5940 O   0  0  0  0  0  0  0  0  0  0  0  0
   36.8880   27.0670   42.8030 C   0  0  1  0  0  0  0  0  0  0  0  0
   37.6240   28.3340   42.8240 C   0  0  0  0  0  0  0  0  0  0  0  0
   36.3910   28.1320   41.9270 C   0  0  1  0  0  0  0  0  0  0  0  0
   36.2760   26.7860   43.6850 H   0  0  0  0  0  0  0  0  0  0  0  0
   38.5420   28.4850   42.2220 H   0  0  0  0  0  0  0  0  0  0  0  0
   37.5590   29.0570   43.6570 H   0  0  0  0  0  0  0  0  0  0  0  0
   35.5720   28.8120   42.2310 H   0  0  0  0  0  0  0  0  0  0  0  0
   37.6070   23.6840   41.2560 C   0  0  0  0  0  0  0  0  0  0  0  0
   36.9170   24.7250   41.8740 C   0  0  0  0  0  0  0  0  0  0  0  0
   37.6010   25.9300   42.1260 C   0  0  0  0  0  0  0  0  0  0  0  0
   38.9100   26.0490   41.7640 N   0  0  0  0  0  0  0  0  0  0  0  0
   39.5540   25.0120   41.1630 C   0  0  0  0  0  0  0  0  0  0  0  0
   38.9040   23.8350   40.9100 N   0  0  0  0  0  0  0  0  0  0  0  0
   37.1200   22.7510   41.0480 H   0  0  0  0  0  0  0  0  0  0  0  0
   35.8890   24.5960   42.1450 H   0  0  0  0  0  0  0  0  0  0  0  0
   40.5910   25.1780   40.9030 H   0  0  0  0  0  0  0  0  0  0  0  0
   35.2730   28.1000   38.1720 O   0  0  0  0  0  0  0  0  0  0  0  0
   34.4380   28.5840   37.1760 C   0  0  0  0  0  0  0  0  0  0  0  0
   34.7560   28.8560   35.8610 C   0  0  0  0  0  0  0  0  0  0  0  0
   33.8190   29.3330   34.9940 C   0  0  0  0  0  0  0  0  0  0  0  0
   32.5330   29.5530   35.4180 C   0  0  0  0  0  0  0  0  0  0  0  0
   32.2480   29.2670   36.7560 C   0  0  0  0  0  0  0  0  0  0  0  0
   33.1820   28.7960   37.6070 N   0  0  0  0  0  0  0  0  0  0  0  0
   35.8020   28.6460   35.6300 H   0  0  0  0  0  0  0  0  0  0  0  0
   34.2120   29.4990   33.9970 H   0  0  0  0  0  0  0  0  0  0  0  0
   31.8330   29.9280   34.7020 H   0  0  0  0  0  0  0  0  0  0  0  0
   30.7290   30.3800   38.4130 C   0  0  1  0  0  3  0  0  0  0  0  0
   30.8500   29.5300   37.1680 C   0  0  1  0  0  3  0  0  0  0  0  0
   30.0970   30.2420   36.2720 O   0  0  0  0  0  0  0  0  0  0  0  0
   28.8980   30.4270   36.9540 C   0  0  0  0  0  2  0  0  0  0  0  0
   29.2050   30.5920   38.4190 C   0  0  2  0  0  3  0  0  0  0  0  0
   31.1450   29.7120   39.5470 O   0  0  0  0  0  0  0  0  0  0  0  0
   30.4050   29.5960   40.1930 H   0  0  0  0  0  0  0  0  0  0  0  0
   28.8460   31.8040   38.9510 O   0  0  0  0  0  0  0  0  0  0  0  0
   28.1490   32.2820   38.4590 H   0  0  0  0  0  0  0  0  0  0  0  0
  2  1  2  6  0  0  0
  2  3  1  0  0  0  0
  2  5  1  0  0  0  0
  4  3  1  0  0  0  0
  5  8  1  0  0  0  0
  6  7  1  0  0  0  0
  6  9  1  1  0  0  0
  7 11  1  0  0  0  0
  8 12  1  1  0  0  0
  8  6  1  0  0  0  0
  8  7  1  0  0  0  0
 10  7  1  0  0  0  0
 13 14  1  0  0  0  0
 14 15  2  0  0  0  0
 14 20  1  0  0  0  0
 15  6  1  0  0  0  0
 16 15  1  0  0  0  0
 17 16  2  0  0  0  0
 18 17  1  0  0  0  0
 18 13  2  0  0  0  0
 19 13  1  0  0  0  0
 21 17  1  0  0  0  0
 22  2  1  0  0  0  0
 23 28  1  0  0  0  0
 23 22  1  0  0  0  0
 24 23  2  0  0  0  0
 25 26  2  0  0  0  0
 25 24  1  0  0  0  0
 26 27  1  0  0  0  0
 27 28  2  0  0  0  0
 29 24  1  0  0  0  0
 30 25  1  0  0  0  0
 31 26  1  0  0  0  0
 32 36  1  0  0  0  0
 32 37  1  1  0  0  0
 33 27  1  6  0  0  0
 33 32  1  0  0  0  0
 34 35  1  0  0  0  0
 34 33  1  0  0  0  0
 35 36  1  0  0  0  0
 36 39  1  6  0  0  0
 37 38  1  0  0  0  0
 40 39  1  0  0  0  0
M  END
>  <minimizedAffinity>
-6.12926054

$$$$

 OpenBabel03252501093D

 40 43  0  0  1  0  0  0  0  0999 V2000
   34.9970   28.8740   40.2690 O   0  0  0  0  0  0  0  0  0  0  0  0
   36.2090   29.5280   40.9290 P   0  0  2  0  0  0  0  0  0  0  0  0
   35.7160   31.0890   41.3490 O   0  0  0  0  0  0  0  0  0  0  0  0
   36.3160   31.3800   42.1040 H   0  0  0  0  0  0  0  0  0  0  0  0
   37.5460   29.4530   39.9900 O   0  0  0  0  0  0  0  0  0  0  0  0
   37.6060   30.5870   37.8500 C   0  0  1  0  0  0  0  0  0  0  0  0
   38.6060   29.5230   37.7240 C   0  0  0  0  0  0  0  0  0  0  0  0
   37.3890   29.3810   38.6540 C   0  0  1  0  0  0  0  0  0  0  0  0
   36.9180   30.7820   37.0010 H   0  0  0  0  0  0  0  0  0  0  0  0
   39.5530   29.5420   38.2980 H   0  0  0  0  0  0  0  0  0  0  0  0
   38.6770   28.8630   36.8410 H   0  0  0  0  0  0  0  0  0  0  0  0
   36.7330   28.5560   38.3140 H   0  0  0  0  0  0  0  0  0  0  0  0
   39.8450   33.1560   39.5060 C   0  0  0  0  0  0  0  0  0  0  0  0
   39.4460   32.0240   38.8000 C   0  0  0  0  0  0  0  0  0  0  0  0
   38.0690   31.8070   38.5980 C   0  0  0  0  0  0  0  0  0  0  0  0
   37.1670   32.7010   39.0920 N   0  0  0  0  0  0  0  0  0  0  0  0
   37.5910   33.7970   39.7790 C   0  0  0  0  0  0  0  0  0  0  0  0
   38.9240   34.0230   39.9840 N   0  0  0  0  0  0  0  0  0  0  0  0
   40.8850   33.3560   39.6810 H   0  0  0  0  0  0  0  0  0  0  0  0
   40.1820   31.3420   38.4260 H   0  0  0  0  0  0  0  0  0  0  0  0
   36.8200   34.4630   40.1420 H   0  0  0  0  0  0  0  0  0  0  0  0
   36.4240   28.6780   42.3610 O   0  0  0  0  0  0  0  0  0  0  0  0
   37.3500   27.6600   42.5350 C   0  0  0  0  0  0  0  0  0  0  0  0
   38.4850   27.6710   43.3200 C   0  0  0  0  0  0  0  0  0  0  0  0
   39.3050   26.5850   43.3890 C   0  0  0  0  0  0  0  0  0  0  0  0
   39.0130   25.4520   42.6720 C   0  0  0  0  0  0  0  0  0  0  0  0
   37.8570   25.4770   41.8880 C   0  0  0  0  0  0  0  0  0  0  0  0
   37.0510   26.5570   41.8260 N   0  0  0  0  0  0  0  0  0  0  0  0
   38.6220   28.6180   43.8460 H   0  0  0  0  0  0  0  0  0  0  0  0
   40.1550   26.7390   44.0440 H   0  0  0  0  0  0  0  0  0  0  0  0
   39.6850   24.6240   42.7570 H   0  0  0  0  0  0  0  0  0  0  0  0
   37.3450   24.4630   39.6510 C   0  0  1  0  0  3  0  0  0  0  0  0
   37.5890   24.2350   41.1270 C   0  0  1  0  0  3  0  0  0  0  0  0
   38.6170   23.3290   41.1010 O   0  0  0  0  0  0  0  0  0  0  0  0
   38.1350   22.3400   40.2470 C   0  0  0  0  0  2  0  0  0  0  0  0
   37.3010   22.9990   39.1800 C   0  0  2  0  0  3  0  0  0  0  0  0
   36.1470   25.1020   39.4100 O   0  0  0  0  0  0  0  0  0  0  0  0
   35.5310   24.5340   38.8840 H   0  0  0  0  0  0  0  0  0  0  0  0
   37.7730   22.8440   37.9020 O   0  0  0  0  0  0  0  0  0  0  0  0
   38.3640   22.0770   37.7680 H   0  0  0  0  0  0  0  0  0  0  0  0
  2  1  2  6  0  0  0
  2  3  1  0  0  0  0
  2 22  1  0  0  0  0
  3  4  1  0  0  0  0
  5  2  1  0  0  0  0
  6  9  1  6  0  0  0
  6 15  1  0  0  0  0
  6  8  1  0  0  0  0
  7  6  1  0  0  0  0
  7 10  1  0  0  0  0
  7  8  1  0  0  0  0
  8 12  1  6  0  0  0
  8  5  1  0  0  0  0
 11  7  1  0  0  0  0
 13 19  1  0  0  0  0
 13 18  1  0  0  0  0
 14 13  2  0  0  0  0
 15 14  1  0  0  0  0
 15 16  2  0  0  0  0
 16 17  1  0  0  0  0
 17 18  2  0  0  0  0
 17 21  1  0  0  0  0
 20 14  1  0  0  0  0
 22 23  1  0  0  0  0
 23 24  1  0  0  0  0
 24 25  2  0  0  0  0
 24 29  1  0  0  0  0
 25 30  1  0  0  0  0
 26 31  1  0  0  0  0
 26 25  1  0  0  0  0
 27 26  2  0  0  0  0
 28 27  1  0  0  0  0
 28 23  2  0  0  0  0
 32 37  1  1  0  0  0
 32 33  1  0  0  0  0
 33 27  1  1  0  0  0
 34 33  1  0  0  0  0
 35 34  1  0  0  0  0
 36 39  1  6  0  0  0
 36 32  1  0  0  0  0
 36 35  1  0  0  0  0
 38 37  1  0  0  0  0
 40 39  1  0  0  0  0
M  END
>  <minimizedAffinity>
-5.9832058

$$$$

 OpenBabel03252501093D

 40 43  0  0  1  0  0  0  0  0999 V2000
   39.4200   27.8120   43.1220 O   0  0  0  0  0  0  0  0  0  0  0  0
   38.2310   28.5850   42.5550 P   0  0  2  0  0  0  0  0  0  0  0  0
   36.9770   28.3830   43.6700 O   0  0  0  0  0  0  0  0  0  0  0  0
   36.3580   29.1650   43.5410 H   0  0  0  0  0  0  0  0  0  0  0  0
   37.8730   28.1400   41.0220 O   0  0  0  0  0  0  0  0  0  0  0  0
   35.7880   28.7200   39.9350 C   0  0  1  0  0  0  0  0  0  0  0  0
   36.1990   27.4720   39.2850 C   0  0  0  0  0  0  0  0  0  0  0  0
   36.6010   27.7990   40.7330 C   0  0  1  0  0  0  0  0  0  0  0  0
   34.7220   28.8550   40.2130 H   0  0  0  0  0  0  0  0  0  0  0  0
   37.0840   27.4250   38.6210 H   0  0  0  0  0  0  0  0  0  0  0  0
   35.5090   26.6280   39.1050 H   0  0  0  0  0  0  0  0  0  0  0  0
   36.1500   27.0720   41.4360 H   0  0  0  0  0  0  0  0  0  0  0  0
   37.0460   32.2850   39.6770 C   0  0  0  0  0  0  0  0  0  0  0  0
   36.4010   31.1530   40.1710 C   0  0  0  0  0  0  0  0  0  0  0  0
   36.4830   29.9550   39.4330 C   0  0  0  0  0  0  0  0  0  0  0  0
   37.1840   29.9310   38.2650 N   0  0  0  0  0  0  0  0  0  0  0  0
   37.8010   31.0550   37.8100 C   0  0  0  0  0  0  0  0  0  0  0  0
   37.7320   32.2260   38.5140 N   0  0  0  0  0  0  0  0  0  0  0  0
   37.0060   33.2150   40.2090 H   0  0  0  0  0  0  0  0  0  0  0  0
   35.8590   31.2080   41.0930 H   0  0  0  0  0  0  0  0  0  0  0  0
   38.3380   30.9630   36.8760 H   0  0  0  0  0  0  0  0  0  0  0  0
   38.6980   30.1960   42.6250 O   0  0  0  0  0  0  0  0  0  0  0  0
   39.9470   30.6660   42.2460 C   0  0  0  0  0  0  0  0  0  0  0  0
   41.0480   30.8890   43.0470 C   0  0  0  0  0  0  0  0  0  0  0  0
   42.2160   31.3580   42.5240 C   0  0  0  0  0  0  0  0  0  0  0  0
   42.3160   31.6200   41.1820 C   0  0  0  0  0  0  0  0  0  0  0  0
   41.1820   31.3830   40.4010 C   0  0  0  0  0  0  0  0  0  0  0  0
   40.0300   30.9190   40.9270 N   0  0  0  0  0  0  0  0  0  0  0  0
   40.8600   30.6490   44.0950 H   0  0  0  0  0  0  0  0  0  0  0  0
   42.9920   31.4830   43.2710 H   0  0  0  0  0  0  0  0  0  0  0  0
   43.2530   31.9870   40.8170 H   0  0  0  0  0  0  0  0  0  0  0  0
   41.3800   33.1690   38.6510 C   0  0  1  0  0  3  0  0  0  0  0  0
   41.3370   31.6880   38.9610 C   0  0  1  0  0  3  0  0  0  0  0  0
   42.5040   31.2520   38.3900 O   0  0  0  0  0  0  0  0  0  0  0  0
   42.4250   31.7620   37.0970 C   0  0  0  0  0  2  0  0  0  0  0  0
   41.7290   33.0960   37.1550 C   0  0  2  0  0  3  0  0  0  0  0  0
   40.1600   33.7820   38.8500 O   0  0  0  0  0  0  0  0  0  0  0  0
   39.7980   34.1540   38.0090 H   0  0  0  0  0  0  0  0  0  0  0  0
   42.4890   34.1610   36.7410 O   0  0  0  0  0  0  0  0  0  0  0  0
   43.2340   33.9340   36.1510 H   0  0  0  0  0  0  0  0  0  0  0  0
  2 22  1  0  0  0  0
  2  1  2  1  0  0  0
  2  3  1  0  0  0  0
  4  3  1  0  0  0  0
  5  2  1  0  0  0  0
  6  9  1  1  0  0  0
  6  8  1  0  0  0  0
  7  6  1  0  0  0  0
  7  8  1  0  0  0  0
  8  5  1  0  0  0  0
  8 12  1  1  0  0  0
 10  7  1  0  0  0  0
 11  7  1  0  0  0  0
 13 14  1  0  0  0  0
 13 19  1  0  0  0  0
 14 20  1  0  0  0  0
 15  6  1  0  0  0  0
 15 14  2  0  0  0  0
 16 15  1  0  0  0  0
 17 16  2  0  0  0  0
 17 18  1  0  0  0  0
 18 13  2  0  0  0  0
 21 17  1  0  0  0  0
 23 22  1  0  0  0  0
 23 24  1  0  0  0  0
 24 29  1  0  0  0  0
 25 24  2  0  0  0  0
 25 30  1  0  0  0  0
 26 25  1  0  0  0  0
 27 28  1  0  0  0  0
 27 26  2  0  0  0  0
 28 23  2  0  0  0  0
 31 26  1  0  0  0  0
 32 37  1  6  0  0  0
 32 33  1  0  0  0  0
 33 27  1  1  0  0  0
 34 33  1  0  0  0  0
 35 36  1  0  0  0  0
 35 34  1  0  0  0  0
 36 39  1  1  0  0  0
 36 32  1  0  0  0  0
 38 37  1  0  0  0  0
 40 39  1  0  0  0  0
M  END
>  <minimizedAffinity>
-5.8739996

$$$$

 OpenBabel03252501093D

 40 43  0  0  1  0  0  0  0  0999 V2000
   36.2090   31.1660   41.0340 O   0  0  0  0  0  0  0  0  0  0  0  0
   36.1440   29.7160   40.5560 P   0  0  2  0  0  0  0  0  0  0  0  0
   34.5000   29.3270   40.4920 O   0  0  0  0  0  0  0  0  0  0  0  0
   34.4160   28.5720   39.8320 H   0  0  0  0  0  0  0  0  0  0  0  0
   37.0560   28.7170   41.4750 O   0  0  0  0  0  0  0  0  0  0  0  0
   37.2480   26.6510   42.7260 C   0  0  1  0  0  0  0  0  0  0  0  0
   36.6620   27.5980   43.6800 C   0  0  0  0  0  0  0  0  0  0  0  0
   36.4390   27.7360   42.1640 C   0  0  1  0  0  0  0  0  0  0  0  0
   36.8470   25.6180   42.6790 H   0  0  0  0  0  0  0  0  0  0  0  0
   37.2400   28.4530   44.0820 H   0  0  0  0  0  0  0  0  0  0  0  0
   35.7970   27.3520   44.3210 H   0  0  0  0  0  0  0  0  0  0  0  0
   35.3690   27.6040   41.9140 H   0  0  0  0  0  0  0  0  0  0  0  0
   40.8790   27.5690   43.3060 C   0  0  0  0  0  0  0  0  0  0  0  0
   39.5040   27.4630   43.5050 C   0  0  0  0  0  0  0  0  0  0  0  0
   38.7370   26.7720   42.5460 C   0  0  0  0  0  0  0  0  0  0  0  0
   39.3500   26.2290   41.4570 N   0  0  0  0  0  0  0  0  0  0  0  0
   40.6950   26.3520   41.2930 C   0  0  0  0  0  0  0  0  0  0  0  0
   41.4550   27.0190   42.2140 N   0  0  0  0  0  0  0  0  0  0  0  0
   41.4970   28.0870   44.0140 H   0  0  0  0  0  0  0  0  0  0  0  0
   39.0550   27.9020   44.3720 H   0  0  0  0  0  0  0  0  0  0  0  0
   41.1130   25.8970   40.4060 H   0  0  0  0  0  0  0  0  0  0  0  0
   36.7010   29.7630   38.9740 O   0  0  0  0  0  0  0  0  0  0  0  0
   37.9030   29.2140   38.5500 C   0  0  0  0  0  0  0  0  0  0  0  0
   38.2290   27.8780   38.4300 C   0  0  0  0  0  0  0  0  0  0  0  0
   39.4610   27.4900   37.9970 C   0  0  0  0  0  0  0  0  0  0  0  0
   40.4070   28.4290   37.6720 C   0  0  0  0  0  0  0  0  0  0  0  0
   40.0420   29.7710   37.8070 C   0  0  0  0  0  0  0  0  0  0  0  0
   38.8200   30.1460   38.2360 N   0  0  0  0  0  0  0  0  0  0  0  0
   37.4070   27.2180   38.7140 H   0  0  0  0  0  0  0  0  0  0  0  0
   39.5730   26.4130   37.9530 H   0  0  0  0  0  0  0  0  0  0  0  0
   41.3600   28.0780   37.3370 H   0  0  0  0  0  0  0  0  0  0  0  0
   40.6510   32.1890   37.5330 C   0  0  1  0  0  3  0  0  0  0  0  0
   41.0980   30.7460   37.4520 C   0  0  1  0  0  3  0  0  0  0  0  0
   42.1950   30.7500   38.2740 O   0  0  0  0  0  0  0  0  0  0  0  0
   42.9490   31.8100   37.7780 C   0  0  0  0  0  2  0  0  0  0  0  0
   42.0050   32.8800   37.2970 C   0  0  2  0  0  3  0  0  0  0  0  0
   39.7450   32.5140   36.5440 O   0  0  0  0  0  0  0  0  0  0  0  0
   40.1010   33.2100   35.9380 H   0  0  0  0  0  0  0  0  0  0  0  0
   42.1050   34.0780   37.9580 O   0  0  0  0  0  0  0  0  0  0  0  0
   42.9600   34.2340   38.4060 H   0  0  0  0  0  0  0  0  0  0  0  0
  2  1  2  1  0  0  0
  2  5  1  0  0  0  0
  3  2  1  0  0  0  0
  4  3  1  0  0  0  0
  5  8  1  0  0  0  0
  6  9  1  6  0  0  0
  6  7  1  0  0  0  0
  7 10  1  0  0  0  0
  7 11  1  0  0  0  0
  8 12  1  6  0  0  0
  8  6  1  0  0  0  0
  8  7  1  0  0  0  0
 13 14  1  0  0  0  0
 13 19  1  0  0  0  0
 14 20  1  0  0  0  0
 15  6  1  0  0  0  0
 15 14  2  0  0  0  0
 16 15  1  0  0  0  0
 17 16  2  0  0  0  0
 17 18  1  0  0  0  0
 18 13  2  0  0  0  0
 21 17  1  0  0  0  0
 22  2  1  0  0  0  0
 23 22  1  0  0  0  0
 24 23  1  0  0  0  0
 24 29  1  0  0  0  0
 25 24  2  0  0  0  0
 26 27  2  0  0  0  0
 26 25  1  0  0  0  0
 27 28  1  0  0  0  0
 28 23  2  0  0  0  0
 30 25  1  0  0  0  0
 31 26  1  0  0  0  0
 32 37  1  6  0  0  0
 33 32  1  0  0  0  0
 33 27  1  1  0  0  0
 33 34  1  0  0  0  0
 35 34  1  0  0  0  0
 36 32  1  0  0  0  0
 36 35  1  0  0  0  0
 36 39  1  1  0  0  0
 38 37  1  0  0  0  0
 39 40  1  0  0  0  0
M  END
>  <minimizedAffinity>
-5.85867977

$$$$

 OpenBabel03252501093D

 40 43  0  0  1  0  0  0  0  0999 V2000
   37.1670   31.4800   38.3490 O   0  0  0  0  0  0  0  0  0  0  0  0
   37.2380   31.2470   39.8570 P   0  0  2  0  0  0  0  0  0  0  0  0
   36.7330   32.6940   40.5690 O   0  0  0  0  0  0  0  0  0  0  0  0
   36.3950   32.4540   41.4860 H   0  0  0  0  0  0  0  0  0  0  0  0
   38.7090   30.7170   40.3370 O   0  0  0  0  0  0  0  0  0  0  0  0
   39.7410   31.0080   42.5090 C   0  0  1  0  0  0  0  0  0  0  0  0
   40.8600   31.0800   41.5650 C   0  0  0  0  0  0  0  0  0  0  0  0
   39.4350   31.4970   41.1620 C   0  0  1  0  0  0  0  0  0  0  0  0
   39.7010   31.7300   43.3510 H   0  0  0  0  0  0  0  0  0  0  0  0
   41.1980   30.1930   40.9930 H   0  0  0  0  0  0  0  0  0  0  0  0
   41.6440   31.8560   41.6150 H   0  0  0  0  0  0  0  0  0  0  0  0
   39.4000   32.5770   40.9210 H   0  0  0  0  0  0  0  0  0  0  0  0
   39.6950   27.2520   43.0050 C   0  0  0  0  0  0  0  0  0  0  0  0
   40.1610   28.5310   42.7110 C   0  0  0  0  0  0  0  0  0  0  0  0
   39.2710   29.6160   42.8310 C   0  0  0  0  0  0  0  0  0  0  0  0
   37.9870   29.3920   43.2290 N   0  0  0  0  0  0  0  0  0  0  0  0
   37.5640   28.1290   43.5080 C   0  0  0  0  0  0  0  0  0  0  0  0
   38.4150   27.0640   43.3960 N   0  0  0  0  0  0  0  0  0  0  0  0
   40.3430   26.4000   42.9250 H   0  0  0  0  0  0  0  0  0  0  0  0
   41.1770   28.6700   42.4000 H   0  0  0  0  0  0  0  0  0  0  0  0
   36.5330   28.0260   43.8170 H   0  0  0  0  0  0  0  0  0  0  0  0
   36.0500   30.1040   40.1680 O   0  0  0  0  0  0  0  0  0  0  0  0
   35.9820   28.8590   39.5590 C   0  0  0  0  0  0  0  0  0  0  0  0
   35.1290   28.4520   38.5530 C   0  0  0  0  0  0  0  0  0  0  0  0
   35.1830   27.1860   38.0530 C   0  0  0  0  0  0  0  0  0  0  0  0
   36.0940   26.2860   38.5470 C   0  0  0  0  0  0  0  0  0  0  0  0
   36.9410   26.7330   39.5640 C   0  0  0  0  0  0  0  0  0  0  0  0
   36.8800   27.9880   40.0530 N   0  0  0  0  0  0  0  0  0  0  0  0
   34.4470   29.2430   38.2350 H   0  0  0  0  0  0  0  0  0  0  0  0
   34.4550   27.0110   37.2700 H   0  0  0  0  0  0  0  0  0  0  0  0
   36.0990   25.3040   38.1230 H   0  0  0  0  0  0  0  0  0  0  0  0
   37.2510   24.6000   40.8480 C   0  0  1  0  0  3  0  0  0  0  0  0
   37.9000   25.7240   40.0690 C   0  0  1  0  0  3  0  0  0  0  0  0
   38.5870   25.0330   39.1060 O   0  0  0  0  0  0  0  0  0  0  0  0
   39.3110   24.1050   39.8490 C   0  0  0  0  0  2  0  0  0  0  0  0
   38.4770   23.6900   41.0330 C   0  0  2  0  0  3  0  0  0  0  0  0
   36.7550   25.0230   42.0630 O   0  0  0  0  0  0  0  0  0  0  0  0
   37.2100   24.5750   42.8180 H   0  0  0  0  0  0  0  0  0  0  0  0
   38.1440   22.3600   41.0660 O   0  0  0  0  0  0  0  0  0  0  0  0
   38.7320   21.7720   40.5510 H   0  0  0  0  0  0  0  0  0  0  0  0
  2  1  2  6  0  0  0
  2 22  1  0  0  0  0
  2  5  1  0  0  0  0
  2  3  1  0  0  0  0
  3  4  1  0  0  0  0
  5  8  1  0  0  0  0
  6 15  1  0  0  0  0
  6  9  1  1  0  0  0
  7 11  1  0  0  0  0
  7  6  1  0  0  0  0
  8 12  1  6  0  0  0
  8  7  1  0  0  0  0
  8  6  1  0  0  0  0
 10  7  1  0  0  0  0
 13 18  1  0  0  0  0
 14 15  1  0  0  0  0
 14 13  2  0  0  0  0
 15 16  2  0  0  0  0
 16 17  1  0  0  0  0
 17 21  1  0  0  0  0
 18 17  2  0  0  0  0
 19 13  1  0  0  0  0
 20 14  1  0  0  0  0
 23 28  1  0  0  0  0
 23 22  1  0  0  0  0
 24 23  2  0  0  0  0
 25 26  2  0  0  0  0
 25 24  1  0  0  0  0
 26 27  1  0  0  0  0
 27 28  2  0  0  0  0
 29 24  1  0  0  0  0
 30 25  1  0  0  0  0
 31 26  1  0  0  0  0
 32 36  1  0  0  0  0
 32 37  1  1  0  0  0
 33 27  1  6  0  0  0
 33 32  1  0  0  0  0
 34 35  1  0  0  0  0
 34 33  1  0  0  0  0
 35 36  1  0  0  0  0
 36 39  1  6  0  0  0
 37 38  1  0  0  0  0
 40 39  1  0  0  0  0
M  END
>  <minimizedAffinity>
-5.76266146

$$$$

 OpenBabel03252501093D

 40 43  0  0  1  0  0  0  0  0999 V2000
   36.5510   25.7980   37.6030 O   0  0  0  0  0  0  0  0  0  0  0  0
   37.0300   26.6570   38.7720 P   0  0  2  0  0  0  0  0  0  0  0  0
   38.7000   26.8210   38.5660 O   0  0  0  0  0  0  0  0  0  0  0  0
   38.9610   27.6640   39.0500 H   0  0  0  0  0  0  0  0  0  0  0  0
   36.5680   26.0540   40.2190 O   0  0  0  0  0  0  0  0  0  0  0  0
   38.1970   25.2980   41.8440 C   0  0  1  0  0  0  0  0  0  0  0  0
   36.9830   24.5460   42.1740 C   0  0  0  0  0  0  0  0  0  0  0  0
   37.2700   25.0290   40.7420 C   0  0  1  0  0  0  0  0  0  0  0  0
   39.1740   24.7700   41.8490 H   0  0  0  0  0  0  0  0  0  0  0  0
   36.0870   25.0430   42.5960 H   0  0  0  0  0  0  0  0  0  0  0  0
   36.9800   23.4600   42.3760 H   0  0  0  0  0  0  0  0  0  0  0  0
   37.3990   24.1670   40.0590 H   0  0  0  0  0  0  0  0  0  0  0  0
   39.2750   28.8780   42.4590 C   0  0  0  0  0  0  0  0  0  0  0  0
   39.2650   27.5780   41.9600 C   0  0  0  0  0  0  0  0  0  0  0  0
   38.2280   26.7110   42.3560 C   0  0  0  0  0  0  0  0  0  0  0  0
   37.2650   27.1610   43.2100 N   0  0  0  0  0  0  0  0  0  0  0  0
   37.3040   28.4380   43.6800 C   0  0  0  0  0  0  0  0  0  0  0  0
   38.3050   29.2920   43.3050 N   0  0  0  0  0  0  0  0  0  0  0  0
   40.0490   29.5670   42.1800 H   0  0  0  0  0  0  0  0  0  0  0  0
   40.0380   27.2580   41.2900 H   0  0  0  0  0  0  0  0  0  0  0  0
   36.5090   28.7250   44.3530 H   0  0  0  0  0  0  0  0  0  0  0  0
   36.3500   28.1670   38.4980 O   0  0  0  0  0  0  0  0  0  0  0  0
   36.6280   29.2990   39.2510 C   0  0  0  0  0  0  0  0  0  0  0  0
   35.8300   29.9030   40.2000 C   0  0  0  0  0  0  0  0  0  0  0  0
   36.2440   31.0210   40.8610 C   0  0  0  0  0  0  0  0  0  0  0  0
   37.4720   31.5680   40.5900 C   0  0  0  0  0  0  0  0  0  0  0  0
   38.2530   30.9300   39.6240 C   0  0  0  0  0  0  0  0  0  0  0  0
   37.8350   29.8250   38.9740 N   0  0  0  0  0  0  0  0  0  0  0  0
   34.8770   29.3880   40.3370 H   0  0  0  0  0  0  0  0  0  0  0  0
   35.5130   31.3830   41.5760 H   0  0  0  0  0  0  0  0  0  0  0  0
   37.7540   32.4460   41.1340 H   0  0  0  0  0  0  0  0  0  0  0  0
   39.8810   31.7300   37.8910 C   0  0  1  0  0  3  0  0  0  0  0  0
   39.5660   31.5630   39.3610 C   0  0  1  0  0  3  0  0  0  0  0  0
   39.7010   32.8470   39.8210 O   0  0  0  0  0  0  0  0  0  0  0  0
   40.9590   33.2130   39.3480 C   0  0  0  0  0  2  0  0  0  0  0  0
   41.1720   32.5580   38.0090 C   0  0  2  0  0  3  0  0  0  0  0  0
   40.1170   30.5240   37.2650 O   0  0  0  0  0  0  0  0  0  0  0  0
   41.0410   30.4690   36.9150 H   0  0  0  0  0  0  0  0  0  0  0  0
   41.3340   33.4290   36.9610 O   0  0  0  0  0  0  0  0  0  0  0  0
   41.6350   34.3260   37.2100 H   0  0  0  0  0  0  0  0  0  0  0  0
  2  1  2  6  0  0  0
  2  5  1  0  0  0  0
  3  2  1  0  0  0  0
  3  4  1  0  0  0  0
  5  8  1  0  0  0  0
  6  9  1  1  0  0  0
  6  7  1  0  0  0  0
  6 15  1  0  0  0  0
  7 11  1  0  0  0  0
  7 10  1  0  0  0  0
  8 12  1  6  0  0  0
  8  6  1  0  0  0  0
  8  7  1  0  0  0  0
 13 18  1  0  0  0  0
 14 15  1  0  0  0  0
 14 13  2  0  0  0  0
 15 16  2  0  0  0  0
 16 17  1  0  0  0  0
 17 21  1  0  0  0  0
 18 17  2  0  0  0  0
 19 13  1  0  0  0  0
 20 14  1  0  0  0  0
 22  2  1  0  0  0  0
 22 23  1  0  0  0  0
 23 24  1  0  0  0  0
 24 29  1  0  0  0  0
 24 25  2  0  0  0  0
 25 30  1  0  0  0  0
 26 25  1  0  0  0  0
 26 31  1  0  0  0  0
 27 26  2  0  0  0  0
 28 23  2  0  0  0  0
 28 27  1  0  0  0  0
 32 37  1  1  0  0  0
 32 36  1  0  0  0  0
 32 33  1  0  0  0  0
 33 27  1  6  0  0  0
 33 34  1  0  0  0  0
 35 34  1  0  0  0  0
 36 39  1  6  0  0  0
 36 35  1  0  0  0  0
 38 37  1  0  0  0  0
 39 40  1  0  0  0  0
M  END
>  <minimizedAffinity>
-5.74501991

$$$$

 OpenBabel03252501093D

 40 43  0  0  1  0  0  0  0  0999 V2000
   36.9760   27.4940   36.3640 O   0  0  0  0  0  0  0  0  0  0  0  0
   37.7990   28.2650   37.3940 P   0  0  2  0  0  0  0  0  0  0  0  0
   39.2140   28.7290   36.5960 O   0  0  0  0  0  0  0  0  0  0  0  0
   39.5630   29.5350   37.0880 H   0  0  0  0  0  0  0  0  0  0  0  0
   38.0290   27.4140   38.7720 O   0  0  0  0  0  0  0  0  0  0  0  0
   39.8710   26.8110   40.2250 C   0  0  1  0  0  0  0  0  0  0  0  0
   39.2620   25.5280   39.8630 C   0  0  0  0  0  0  0  0  0  0  0  0
   39.1900   26.7480   38.9290 C   0  0  1  0  0  0  0  0  0  0  0  0
   40.9770   26.8970   40.2330 H   0  0  0  0  0  0  0  0  0  0  0  0
   38.2560   25.2380   40.2250 H   0  0  0  0  0  0  0  0  0  0  0  0
   39.8490   24.6490   39.5420 H   0  0  0  0  0  0  0  0  0  0  0  0
   39.7350   26.5490   37.9860 H   0  0  0  0  0  0  0  0  0  0  0  0
   37.7450   27.5940   43.2630 C   0  0  0  0  0  0  0  0  0  0  0  0
   38.4040   26.8670   42.2740 C   0  0  0  0  0  0  0  0  0  0  0  0
   39.1580   27.5670   41.3120 C   0  0  0  0  0  0  0  0  0  0  0  0
   39.2250   28.9270   41.3690 N   0  0  0  0  0  0  0  0  0  0  0  0
   38.5680   29.6070   42.3480 C   0  0  0  0  0  0  0  0  0  0  0  0
   37.8320   28.9430   43.2900 N   0  0  0  0  0  0  0  0  0  0  0  0
   37.1610   27.0960   44.0130 H   0  0  0  0  0  0  0  0  0  0  0  0
   38.3300   25.7980   42.2590 H   0  0  0  0  0  0  0  0  0  0  0  0
   38.6650   30.6840   42.3310 H   0  0  0  0  0  0  0  0  0  0  0  0
   36.9160   29.6630   37.6850 O   0  0  0  0  0  0  0  0  0  0  0  0
   37.3100   30.6710   38.5530 C   0  0  0  0  0  0  0  0  0  0  0  0
   36.5720   31.2580   39.5600 C   0  0  0  0  0  0  0  0  0  0  0  0
   37.1010   32.2460   40.3360 C   0  0  0  0  0  0  0  0  0  0  0  0
   38.3860   32.6770   40.1260 C   0  0  0  0  0  0  0  0  0  0  0  0
   39.1030   32.0600   39.0980 C   0  0  0  0  0  0  0  0  0  0  0  0
   38.5710   31.0830   38.3350 N   0  0  0  0  0  0  0  0  0  0  0  0
   35.5660   30.8420   39.6410 H   0  0  0  0  0  0  0  0  0  0  0  0
   36.4060   32.6110   41.0850 H   0  0  0  0  0  0  0  0  0  0  0  0
   38.7570   33.4550   40.7600 H   0  0  0  0  0  0  0  0  0  0  0  0
   40.9090   32.6360   37.4560 C   0  0  1  0  0  3  0  0  0  0  0  0
   40.4810   32.5650   38.9050 C   0  0  1  0  0  3  0  0  0  0  0  0
   40.6990   33.8520   39.3220 O   0  0  0  0  0  0  0  0  0  0  0  0
   42.0130   34.0860   38.9260 C   0  0  0  0  0  2  0  0  0  0  0  0
   42.2570   33.3550   37.6320 C   0  0  2  0  0  3  0  0  0  0  0  0
   41.0790   31.3860   36.8970 O   0  0  0  0  0  0  0  0  0  0  0  0
   42.0150   31.2370   36.6160 H   0  0  0  0  0  0  0  0  0  0  0  0
   42.5670   34.1590   36.5650 O   0  0  0  0  0  0  0  0  0  0  0  0
   42.9290   35.0370   36.7980 H   0  0  0  0  0  0  0  0  0  0  0  0
  2  1  2  6  0  0  0
  2 22  1  0  0  0  0
  2  5  1  0  0  0  0
  3  4  1  0  0  0  0
  3  2  1  0  0  0  0
  5  8  1  0  0  0  0
  6  9  1  6  0  0  0
  6 15  1  0  0  0  0
  7  6  1  0  0  0  0
  7 10  1  0  0  0  0
  8 12  1  6  0  0  0
  8  7  1  0  0  0  0
  8  6  1  0  0  0  0
 11  7  1  0  0  0  0
 13 18  1  0  0  0  0
 13 19  1  0  0  0  0
 14 13  2  0  0  0  0
 15 16  2  0  0  0  0
 15 14  1  0  0  0  0
 16 17  1  0  0  0  0
 17 18  2  0  0  0  0
 20 14  1  0  0  0  0
 21 17  1  0  0  0  0
 22 23  1  0  0  0  0
 23 24  1  0  0  0  0
 24 29  1  0  0  0  0
 24 25  2  0  0  0  0
 25 30  1  0  0  0  0
 26 25  1  0  0  0  0
 26 31  1  0  0  0  0
 27 26  2  0  0  0  0
 28 23  2  0  0  0  0
 28 27  1  0  0  0  0
 32 37  1  1  0  0  0
 32 36  1  0  0  0  0
 32 33  1  0  0  0  0
 33 27  1  6  0  0  0
 33 34  1  0  0  0  0
 35 34  1  0  0  0  0
 36 39  1  6  0  0  0
 36 35  1  0  0  0  0
 38 37  1  0  0  0  0
 39 40  1  0  0  0  0
M  END
>  <minimizedAffinity>
-5.7412076

$$$$
