
 OpenBabel03252501063D

 40 43  0  0  1  0  0  0  0  0999 V2000
   48.6750   32.2960   38.0450 O   0  0  0  0  0  0  0  0  0  0  0  0
   48.1120   33.6940   38.2980 P   0  0  2  0  0  0  0  0  0  0  0  0
   49.2300   34.7670   37.6240 O   0  0  0  0  0  0  0  0  0  0  0  0
   48.7220   35.6120   37.4210 H   0  0  0  0  0  0  0  0  0  0  0  0
   47.7700   33.9520   39.8760 O   0  0  0  0  0  0  0  0  0  0  0  0
   47.8460   35.3860   41.8260 C   0  0  1  0  0  0  0  0  0  0  0  0
   49.2070   34.8540   41.7160 C   0  0  0  0  0  0  0  0  0  0  0  0
   48.3060   35.0290   40.4820 C   0  0  1  0  0  0  0  0  0  0  0  0
   47.7060   36.4610   42.0650 H   0  0  0  0  0  0  0  0  0  0  0  0
   49.4310   33.7850   41.9040 H   0  0  0  0  0  0  0  0  0  0  0  0
   50.1100   35.4830   41.8060 H   0  0  0  0  0  0  0  0  0  0  0  0
   48.7370   35.7770   39.7880 H   0  0  0  0  0  0  0  0  0  0  0  0
   46.3330   32.6490   43.9660 C   0  0  0  0  0  0  0  0  0  0  0  0
   47.2770   33.5090   43.4090 C   0  0  0  0  0  0  0  0  0  0  0  0
   46.8480   34.4530   42.4550 C   0  0  0  0  0  0  0  0  0  0  0  0
   45.5330   34.5030   42.1020 N   0  0  0  0  0  0  0  0  0  0  0  0
   44.6360   33.6470   42.6650 C   0  0  0  0  0  0  0  0  0  0  0  0
   45.0360   32.7250   43.5930 N   0  0  0  0  0  0  0  0  0  0  0  0
   46.6210   31.9170   44.6960 H   0  0  0  0  0  0  0  0  0  0  0  0
   48.3030   33.4410   43.7100 H   0  0  0  0  0  0  0  0  0  0  0  0
   43.6110   33.7440   42.3370 H   0  0  0  0  0  0  0  0  0  0  0  0
   46.7250   33.7720   37.3550 O   0  0  0  0  0  0  0  0  0  0  0  0
   45.6120   32.9620   37.5320 C   0  0  0  0  0  0  0  0  0  0  0  0
   45.3440   31.7480   36.9340 C   0  0  0  0  0  0  0  0  0  0  0  0
   44.1980   31.0650   37.2090 C   0  0  0  0  0  0  0  0  0  0  0  0
   43.2830   31.5780   38.0930 C   0  0  0  0  0  0  0  0  0  0  0  0
   43.5880   32.8090   38.6790 C   0  0  0  0  0  0  0  0  0  0  0  0
   44.7250   33.4780   38.4000 N   0  0  0  0  0  0  0  0  0  0  0  0
   46.1350   31.4320   36.2500 H   0  0  0  0  0  0  0  0  0  0  0  0
   44.1240   30.1290   36.6670 H   0  0  0  0  0  0  0  0  0  0  0  0
   42.3980   31.0070   38.2780 H   0  0  0  0  0  0  0  0  0  0  0  0
   42.3780   34.8240   39.5550 C   0  0  1  0  0  3  0  0  0  0  0  0
   42.5670   33.3260   39.6190 C   0  0  1  0  0  3  0  0  0  0  0  0
   41.2890   32.8760   39.4030 O   0  0  0  0  0  0  0  0  0  0  0  0
   40.5480   33.5910   40.3390 C   0  0  0  0  0  2  0  0  0  0  0  0
   41.1600   34.9600   40.4840 C   0  0  2  0  0  3  0  0  0  0  0  0
   43.4640   35.5120   40.0530 O   0  0  0  0  0  0  0  0  0  0  0  0
   43.2250   36.0480   40.8490 H   0  0  0  0  0  0  0  0  0  0  0  0
   40.3380   35.9990   40.1280 O   0  0  0  0  0  0  0  0  0  0  0  0
   39.3810   35.7980   40.1510 H   0  0  0  0  0  0  0  0  0  0  0  0
  2  1  2  6  0  0  0
  2  5  1  0  0  0  0
  3  2  1  0  0  0  0
  4  3  1  0  0  0  0
  5  8  1  0  0  0  0
  6  9  1  1  0  0  0
  6 15  1  0  0  0  0
  7 11  1  0  0  0  0
  7  6  1  0  0  0  0
  7 10  1  0  0  0  0
  8 12  1  6  0  0  0
  8  7  1  0  0  0  0
  8  6  1  0  0  0  0
 13 19  1  0  0  0  0
 14 20  1  0  0  0  0
 14 13  2  0  0  0  0
 15 14  1  0  0  0  0
 16 15  2  0  0  0  0
 16 17  1  0  0  0  0
 17 18  2  0  0  0  0
 18 13  1  0  0  0  0
 21 17  1  0  0  0  0
 22 23  1  0  0  0  0
 22  2  1  0  0  0  0
 23 28  1  0  0  0  0
 24 25  1  0  0  0  0
 24 23  2  0  0  0  0
 25 26  2  0  0  0  0
 26 31  1  0  0  0  0
 26 27  1  0  0  0  0
 28 27  2  0  0  0  0
 29 24  1  0  0  0  0
 30 25  1  0  0  0  0
 32 33  1  0  0  0  0
 32 37  1  1  0  0  0
 32 36  1  0  0  0  0
 33 27  1  6  0  0  0
 34 33  1  0  0  0  0
 34 35  1  0  0  0  0
 35 36  1  0  0  0  0
 36 39  1  6  0  0  0
 37 38  1  0  0  0  0
 39 40  1  0  0  0  0
M  END
>  <minimizedAffinity>
-5.49182224

>  <minimizedRMSD>
1.53705549

$$$$
