
 OpenBabel03242523553D

 45 48  0  0  1  0  0  0  0  0999 V2000
   42.6820   34.4090   38.8600 C   0  0  1  0  0  0  0  0  0  0  0  0
   43.0190   35.1680   40.1370 C   0  0  1  0  0  0  0  0  0  0  0  0
   41.8160   35.5780   40.7380 O   0  0  0  0  0  0  0  0  0  0  0  0
   40.8480   35.9430   39.7980 C   0  0  0  0  0  0  0  0  0  0  0  0
   40.3310   34.7480   39.0270 C   0  0  2  0  0  0  0  0  0  0  0  0
   41.4360   33.6360   39.1480 C   0  0  1  0  0  0  0  0  0  0  0  0
   43.5330   33.7340   38.5840 H   0  0  0  0  0  0  0  0  0  0  0  0
   43.6990   36.0170   39.9720 H   0  0  0  0  0  0  0  0  0  0  0  0
   41.1500   36.7720   39.1470 H   0  0  0  0  0  0  0  0  0  0  0  0
   39.9910   36.3090   40.4010 H   0  0  0  0  0  0  0  0  0  0  0  0
   39.3870   34.3440   39.4300 H   0  0  0  0  0  0  0  0  0  0  0  0
   41.2940   33.4770   40.2650 H   0  0  0  0  0  0  0  0  0  0  0  0
   42.4820   35.2960   37.7940 O   0  0  0  0  0  0  0  0  0  0  0  0
   43.3500   35.4340   37.3670 H   0  0  0  0  0  0  0  0  0  0  0  0
   40.2710   35.0550   37.6750 O   0  0  0  0  0  0  0  0  0  0  0  0
   39.7260   34.3680   37.2020 H   0  0  0  0  0  0  0  0  0  0  0  0
   43.5210   34.1910   41.0180 O   0  0  0  0  0  0  0  0  0  0  0  0
   44.6400   34.3190   41.7410 C   0  0  0  0  0  0  0  0  0  0  0  0
   45.8930   34.4480   41.1250 C   0  0  0  0  0  0  0  0  0  0  0  0
   47.0140   34.5790   41.9290 C   0  0  0  0  0  0  0  0  0  0  0  0
   46.8660   34.5790   43.3050 N   0  0  0  0  0  0  0  0  0  0  0  0
   45.6410   34.4520   43.8640 C   0  0  0  0  0  0  0  0  0  0  0  0
   44.5330   34.3220   43.0870 N   0  0  0  0  0  0  0  0  0  0  0  0
   45.9860   34.4450   40.0500 H   0  0  0  0  0  0  0  0  0  0  0  0
   45.5450   34.4530   44.9410 H   0  0  0  0  0  0  0  0  0  0  0  0
   48.3850   34.7040   41.3490 C   0  0  0  0  0  0  0  0  0  0  0  0
   49.0870   36.0510   41.5280 C   0  0  0  0  0  0  0  0  0  0  0  0
   49.5440   34.7290   42.1810 C   0  0  0  0  0  0  0  0  0  0  0  0
   48.4230   34.2790   40.3080 H   0  0  0  0  0  0  0  0  0  0  0  0
   48.5870   36.7900   42.1700 H   0  0  0  0  0  0  0  0  0  0  0  0
   49.6850   36.3910   40.6630 H   0  0  0  0  0  0  0  0  0  0  0  0
   50.5050   34.3110   41.8200 H   0  0  0  0  0  0  0  0  0  0  0  0
   49.4720   34.7130   43.2860 H   0  0  0  0  0  0  0  0  0  0  0  0
   41.1190   32.6530   38.2890 O   0  0  0  0  0  0  0  0  0  0  0  0
   40.1710   31.6940   38.4040 C   0  0  0  0  0  0  0  0  0  0  0  0
   39.6370   31.1550   37.3390 O   0  0  0  0  0  0  0  0  0  0  0  0
   39.3900   30.8980   39.3050 N   0  0  0  0  0  0  0  0  0  0  0  0
   38.5410   30.0350   38.5030 C   0  0  0  0  0  3  0  0  0  0  0  0
   37.8810   30.5530   37.8110 H   0  0  0  0  0  0  0  0  0  0  0  0
   37.8140   29.0990   39.4340 C   0  0  0  0  0  3  0  0  0  0  0  0
   38.5280   28.3690   39.8550 H   0  0  0  0  0  0  0  0  0  0  0  0
   37.0890   29.7950   40.4620 N   0  0  0  0  0  0  0  0  0  0  0  0
   36.7610   29.0770   41.1520 H   0  0  0  0  0  0  0  0  0  0  0  0
   37.8360   30.8380   41.1000 C   0  0  0  0  0  2  0  0  0  0  0  0
   39.3190   30.8240   40.7270 C   0  0  0  0  0  2  0  0  0  0  0  0
  1  7  1  6  0  0  0
  1  6  1  0  0  0  0
  1  2  1  0  0  0  0
  2  8  1  6  0  0  0
  2  3  1  0  0  0  0
  2 17  1  0  0  0  0
  4 10  1  0  0  0  0
  4  3  1  0  0  0  0
  5  6  1  0  0  0  0
  5 11  1  1  0  0  0
  5  4  1  0  0  0  0
  6 12  1  1  0  0  0
  9  4  1  0  0  0  0
 13  1  1  0  0  0  0
 14 13  1  0  0  0  0
 15  5  1  0  0  0  0
 16 15  1  0  0  0  0
 17 18  1  0  0  0  0
 18 23  1  0  0  0  0
 19 18  2  0  0  0  0
 19 20  1  0  0  0  0
 20 21  2  0  0  0  0
 21 22  1  0  0  0  0
 22 25  1  0  0  0  0
 23 22  2  0  0  0  0
 24 19  1  0  0  0  0
 26 27  1  0  0  0  0
 26 20  1  0  0  0  0
 26 28  1  0  0  0  0
 27 30  1  0  0  0  0
 27 28  1  0  0  0  0
 28 33  1  0  0  0  0
 29 26  1  0  0  0  0
 31 27  1  0  0  0  0
 32 28  1  0  0  0  0
 34 35  1  0  0  0  0
 34  6  1  0  0  0  0
 35 37  1  0  0  0  0
 36 35  2  0  0  0  0
 37 45  1  0  0  0  0
 38 37  1  0  0  0  0
 38 40  1  0  0  0  0
 39 38  1  0  0  0  0
 40 41  1  0  0  0  0
 40 42  1  0  0  0  0
 42 44  1  0  0  0  0
 42 43  1  0  0  0  0
 45 44  1  0  0  0  0
M  END
>  <minimizedAffinity>
-6.46411371

>  <minimizedRMSD>
1.51970279

$$$$
