
     RDKit          3D

 51 54  0  0  0  0  0  0  0  0999 V2000
   42.8247   34.4786   38.7842 C   0  0  1  0  0  0  0  0  0  0  0  0
   42.9482   35.1665   40.1375 C   0  0  1  0  0  0  0  0  0  0  0  0
   41.6540   35.3801   40.6440 O   0  0  0  0  0  0  0  0  0  0  0  0
   40.7363   35.7035   39.6409 C   0  0  0  0  0  0  0  0  0  0  0  0
   40.4444   34.5217   38.7397 C   0  0  2  0  0  0  0  0  0  0  0  0
   41.6649   33.5428   38.8924 C   0  0  1  0  0  0  0  0  0  0  0  0
   42.6112   35.4210   37.7676 O   0  0  0  0  0  0  0  0  0  0  0  0
   40.4685   34.9298   37.4143 O   0  0  0  0  0  0  0  0  0  0  0  0
   43.4871   34.1860   40.9936 O   0  0  0  0  0  0  0  0  0  0  0  0
   44.6027   34.3364   41.7172 C   0  0  0  0  0  0  0  0  0  0  0  0
   45.8588   34.4455   41.1028 C   0  0  0  0  0  0  0  0  0  0  0  0
   46.9764   34.6016   41.9071 C   0  0  0  0  0  0  0  0  0  0  0  0
   46.8222   34.6447   43.2820 N   0  0  0  0  0  0  0  0  0  0  0  0
   45.5949   34.5356   43.8393 C   0  0  0  0  0  0  0  0  0  0  0  0
   44.4904   34.3821   43.0622 N   0  0  0  0  0  0  0  0  0  0  0  0
   48.3496   34.7087   41.3291 C   0  0  0  0  0  0  0  0  0  0  0  0
   49.0703   36.0449   41.5110 C   0  0  0  0  0  0  0  0  0  0  0  0
   49.5077   34.7162   42.1633 C   0  0  0  0  0  0  0  0  0  0  0  0
   41.5526   32.6032   37.9389 O   0  0  0  0  0  0  0  0  0  0  0  0
   40.9113   31.4123   37.9883 C   0  0  0  0  0  0  0  0  0  0  0  0
   39.6899   31.2947   37.5344 O   0  0  0  0  0  0  0  0  0  0  0  0
   43.7745   33.9348   38.5473 H   0  0  0  0  0  0  0  0  0  0  0  0
   43.5271   36.1001   40.1015 H   0  0  0  0  0  0  0  0  0  0  0  0
   40.9877   36.6124   39.0832 H   0  0  0  0  0  0  0  0  0  0  0  0
   39.7894   35.9136   40.1800 H   0  0  0  0  0  0  0  0  0  0  0  0
   39.5256   33.9780   39.0181 H   0  0  0  0  0  0  0  0  0  0  0  0
   41.4448   33.2773   39.9754 H   0  0  0  0  0  0  0  0  0  0  0  0
   43.4903   35.6951   37.4396 H   0  0  0  0  0  0  0  0  0  0  0  0
   40.0581   34.2238   36.8418 H   0  0  0  0  0  0  0  0  0  0  0  0
   45.9571   34.4093   40.0287 H   0  0  0  0  0  0  0  0  0  0  0  0
   45.4942   34.5712   44.9150 H   0  0  0  0  0  0  0  0  0  0  0  0
   48.3840   34.2837   40.2877 H   0  0  0  0  0  0  0  0  0  0  0  0
   48.5799   36.7904   42.1543 H   0  0  0  0  0  0  0  0  0  0  0  0
   49.6749   36.3784   40.6480 H   0  0  0  0  0  0  0  0  0  0  0  0
   50.4629   34.2847   41.8031 H   0  0  0  0  0  0  0  0  0  0  0  0
   49.4341   34.7004   43.2679 H   0  0  0  0  0  0  0  0  0  0  0  0
   40.9950   30.0328   38.3693 N   0  0  0  0  0  0  0  0  0  0  0  0
   41.2332   29.9880   39.8005 C   0  0  1  0  0  0  0  0  0  0  0  0
   42.1257   30.5113   40.1354 H   0  0  0  0  0  0  0  0  0  0  0  0
   41.1882   28.5457   40.2367 C   0  0  2  0  0  0  0  0  0  0  0  0
   40.1485   28.1751   40.1786 H   0  0  0  0  0  0  0  0  0  0  0  0
   42.0968   27.7157   39.4946 N   0  0  0  0  0  0  0  0  0  0  0  0
   41.8794   26.7196   39.7399 H   0  0  0  0  0  0  0  0  0  0  0  0
   42.0598   27.9304   38.0786 C   0  0  0  0  0  0  0  0  0  0  0  0
   40.8917   28.8135   37.6385 C   0  0  0  0  0  0  0  0  0  0  0  0
   40.3302   30.4678   40.2800 H   0  0  0  0  0  0  0  0  0  0  0  0
   41.4764   28.5080   41.3140 H   0  0  0  0  0  0  0  0  0  0  0  0
   42.9728   28.5328   37.8050 H   0  0  0  0  0  0  0  0  0  0  0  0
   42.1087   26.9842   37.4835 H   0  0  0  0  0  0  0  0  0  0  0  0
   41.0664   29.0301   36.5627 H   0  0  0  0  0  0  0  0  0  0  0  0
   39.9249   28.2896   37.7719 H   0  0  0  0  0  0  0  0  0  0  0  0
  1  6  1  0
  1  2  1  0
  2  3  1  0
  2  9  1  0
  4  3  1  0
  5  6  1  0
  5  4  1  0
  7  1  1  0
  8  5  1  0
  9 10  1  0
 10 15  1  0
 11 10  2  0
 11 12  1  0
 12 13  2  0
 13 14  1  0
 15 14  2  0
 16 17  1  0
 16 12  1  0
 16 18  1  0
 17 18  1  0
 19 20  1  0
 19  6  1  0
 21 20  2  0
  1 22  1  6
  2 23  1  6
  4 24  1  0
  4 25  1  0
  5 26  1  1
  6 27  1  1
  7 28  1  0
  8 29  1  0
 11 30  1  0
 14 31  1  0
 16 32  1  0
 17 33  1  0
 17 34  1  0
 18 35  1  0
 18 36  1  0
 37 38  1  0
 38 39  1  6
 38 40  1  0
 40 41  1  1
 40 42  1  0
 42 43  1  0
 42 44  1  0
 44 45  1  0
 45 37  1  0
 38 46  1  0
 40 47  1  0
 44 48  1  0
 44 49  1  0
 45 50  1  0
 45 51  1  0
 20 37  1  0
M  ISO  8  22  13  23  13  24  13  25  13  26  13  27  13  28   3  29   3
M  ISO  8  30  14  31  14  32  13  33  13  34  13  35  13  36  13  39   8
M  ISO  2  41   8  43   5
M  END
>  <DihAtoms>  (1) 
18,19,36,37

>  <DihDeg>  (1) 
-179.68715655838457

$$$$
