
 OpenBabel03242523553D

 45 48  0  0  1  0  0  0  0  0999 V2000
   42.8130   34.3820   38.9050 C   0  0  1  0  0  0  0  0  0  0  0  0
   43.0310   35.1880   40.1790 C   0  0  1  0  0  0  0  0  0  0  0  0
   41.7750   35.5910   40.6670 O   0  0  0  0  0  0  0  0  0  0  0  0
   40.8800   35.9050   39.6410 C   0  0  0  0  0  0  0  0  0  0  0  0
   40.4500   34.6750   38.8700 C   0  0  2  0  0  0  0  0  0  0  0  0
   41.5620   33.5920   39.1170 C   0  0  1  0  0  0  0  0  0  0  0  0
   43.6960   33.7170   38.7210 H   0  0  0  0  0  0  0  0  0  0  0  0
   43.7050   36.0460   40.0420 H   0  0  0  0  0  0  0  0  0  0  0  0
   41.2180   36.7190   38.9890 H   0  0  0  0  0  0  0  0  0  0  0  0
   39.9700   36.2710   40.1600 H   0  0  0  0  0  0  0  0  0  0  0  0
   39.4840   34.2650   39.2080 H   0  0  0  0  0  0  0  0  0  0  0  0
   41.3330   33.4650   40.2230 H   0  0  0  0  0  0  0  0  0  0  0  0
   42.6830   35.2310   37.7970 O   0  0  0  0  0  0  0  0  0  0  0  0
   43.5810   35.3740   37.4370 H   0  0  0  0  0  0  0  0  0  0  0  0
   40.4950   34.9390   37.5080 O   0  0  0  0  0  0  0  0  0  0  0  0
   40.0030   34.2260   37.0160 H   0  0  0  0  0  0  0  0  0  0  0  0
   43.4770   34.2500   41.1300 O   0  0  0  0  0  0  0  0  0  0  0  0
   44.6150   34.3520   41.8260 C   0  0  0  0  0  0  0  0  0  0  0  0
   45.8540   34.4780   41.1810 C   0  0  0  0  0  0  0  0  0  0  0  0
   46.9960   34.5830   41.9580 C   0  0  0  0  0  0  0  0  0  0  0  0
   46.8830   34.5600   43.3370 N   0  0  0  0  0  0  0  0  0  0  0  0
   45.6710   34.4370   43.9240 C   0  0  0  0  0  0  0  0  0  0  0  0
   44.5420   34.3330   43.1740 N   0  0  0  0  0  0  0  0  0  0  0  0
   45.9200   34.4930   40.1040 H   0  0  0  0  0  0  0  0  0  0  0  0
   45.6020   34.4210   45.0030 H   0  0  0  0  0  0  0  0  0  0  0  0
   48.3540   34.7030   41.3450 C   0  0  0  0  0  0  0  0  0  0  0  0
   49.0730   36.0400   41.5250 C   0  0  0  0  0  0  0  0  0  0  0  0
   49.5330   34.7050   42.1480 C   0  0  0  0  0  0  0  0  0  0  0  0
   48.3620   34.2920   40.2980 H   0  0  0  0  0  0  0  0  0  0  0  0
   48.5970   36.7740   42.1900 H   0  0  0  0  0  0  0  0  0  0  0  0
   49.6530   36.3860   40.6510 H   0  0  0  0  0  0  0  0  0  0  0  0
   50.4800   34.2820   41.7570 H   0  0  0  0  0  0  0  0  0  0  0  0
   49.4890   34.6740   43.2540 H   0  0  0  0  0  0  0  0  0  0  0  0
   41.3350   32.5760   38.2680 O   0  0  0  0  0  0  0  0  0  0  0  0
   40.4300   31.5730   38.3620 C   0  0  0  0  0  0  0  0  0  0  0  0
   40.0370   30.9300   37.2930 O   0  0  0  0  0  0  0  0  0  0  0  0
   39.6030   30.7990   39.2390 N   0  0  0  0  0  0  0  0  0  0  0  0
   38.4330   30.3860   38.4850 C   0  0  0  0  0  3  0  0  0  0  0  0
   37.8490   31.1980   38.0590 H   0  0  0  0  0  0  0  0  0  0  0  0
   37.6200   29.4590   39.3540 C   0  0  0  0  0  3  0  0  0  0  0  0
   38.1550   28.4980   39.4690 H   0  0  0  0  0  0  0  0  0  0  0  0
   37.2870   30.0430   40.6230 N   0  0  0  0  0  0  0  0  0  0  0  0
   36.8780   29.2830   41.2180 H   0  0  0  0  0  0  0  0  0  0  0  0
   38.3860   30.6910   41.2760 C   0  0  0  0  0  2  0  0  0  0  0  0
   39.7300   30.4070   40.6030 C   0  0  0  0  0  2  0  0  0  0  0  0
  1  7  1  6  0  0  0
  1  6  1  0  0  0  0
  1  2  1  0  0  0  0
  2  8  1  6  0  0  0
  2  3  1  0  0  0  0
  2 17  1  0  0  0  0
  4 10  1  0  0  0  0
  4  3  1  0  0  0  0
  5  6  1  0  0  0  0
  5 11  1  1  0  0  0
  5  4  1  0  0  0  0
  6 12  1  1  0  0  0
  9  4  1  0  0  0  0
 13  1  1  0  0  0  0
 14 13  1  0  0  0  0
 15  5  1  0  0  0  0
 16 15  1  0  0  0  0
 17 18  1  0  0  0  0
 18 23  1  0  0  0  0
 19 18  2  0  0  0  0
 19 20  1  0  0  0  0
 20 21  2  0  0  0  0
 21 22  1  0  0  0  0
 22 25  1  0  0  0  0
 23 22  2  0  0  0  0
 24 19  1  0  0  0  0
 26 27  1  0  0  0  0
 26 20  1  0  0  0  0
 26 28  1  0  0  0  0
 27 28  1  0  0  0  0
 27 30  1  0  0  0  0
 28 33  1  0  0  0  0
 29 26  1  0  0  0  0
 31 27  1  0  0  0  0
 32 28  1  0  0  0  0
 34 35  1  0  0  0  0
 34  6  1  0  0  0  0
 35 37  1  0  0  0  0
 36 35  2  0  0  0  0
 37 45  1  0  0  0  0
 38 37  1  0  0  0  0
 38 40  1  0  0  0  0
 39 38  1  0  0  0  0
 40 41  1  0  0  0  0
 40 42  1  0  0  0  0
 42 43  1  0  0  0  0
 42 44  1  0  0  0  0
 45 44  1  0  0  0  0
M  END
>  <minimizedAffinity>
-6.5018096

>  <minimizedRMSD>
1.51606727

$$$$
