
 OpenBabel03242523553D

 45 48  0  0  1  0  0  0  0  0999 V2000
   42.8070   34.4930   38.7640 C   0  0  1  0  0  0  0  0  0  0  0  0
   42.9650   35.1920   40.1080 C   0  0  1  0  0  0  0  0  0  0  0  0
   41.6840   35.4470   40.6270 O   0  0  0  0  0  0  0  0  0  0  0  0
   40.7630   35.7830   39.6320 C   0  0  0  0  0  0  0  0  0  0  0  0
   40.4270   34.6010   38.7490 C   0  0  2  0  0  0  0  0  0  0  0  0
   41.6230   33.5910   38.8970 C   0  0  1  0  0  0  0  0  0  0  0  0
   43.7390   33.9210   38.5210 H   0  0  0  0  0  0  0  0  0  0  0  0
   43.5690   36.1090   40.0540 H   0  0  0  0  0  0  0  0  0  0  0  0
   41.0320   36.6790   39.0600 H   0  0  0  0  0  0  0  0  0  0  0  0
   39.8290   36.0260   40.1800 H   0  0  0  0  0  0  0  0  0  0  0  0
   39.4990   34.0850   39.0440 H   0  0  0  0  0  0  0  0  0  0  0  0
   41.4100   33.3430   39.9860 H   0  0  0  0  0  0  0  0  0  0  0  0
   42.6060   35.4290   37.7400 O   0  0  0  0  0  0  0  0  0  0  0  0
   43.4870   35.6750   37.3980 H   0  0  0  0  0  0  0  0  0  0  0  0
   40.4460   34.9930   37.4180 O   0  0  0  0  0  0  0  0  0  0  0  0
   40.0090   34.2920   36.8590 H   0  0  0  0  0  0  0  0  0  0  0  0
   43.4880   34.2070   40.9690 O   0  0  0  0  0  0  0  0  0  0  0  0
   44.6010   34.3470   41.6990 C   0  0  0  0  0  0  0  0  0  0  0  0
   45.8620   34.4450   41.0940 C   0  0  0  0  0  0  0  0  0  0  0  0
   46.9750   34.5910   41.9060 C   0  0  0  0  0  0  0  0  0  0  0  0
   46.8120   34.6350   43.2800 N   0  0  0  0  0  0  0  0  0  0  0  0
   45.5800   34.5370   43.8280 C   0  0  0  0  0  0  0  0  0  0  0  0
   44.4790   34.3940   43.0440 N   0  0  0  0  0  0  0  0  0  0  0  0
   45.9670   34.4070   40.0210 H   0  0  0  0  0  0  0  0  0  0  0  0
   45.4720   34.5730   44.9040 H   0  0  0  0  0  0  0  0  0  0  0  0
   48.3540   34.6850   41.3380 C   0  0  0  0  0  0  0  0  0  0  0  0
   49.0760   36.0210   41.5050 C   0  0  0  0  0  0  0  0  0  0  0  0
   49.5050   34.7010   42.1810 C   0  0  0  0  0  0  0  0  0  0  0  0
   48.3950   34.2440   40.3030 H   0  0  0  0  0  0  0  0  0  0  0  0
   48.5830   36.7770   42.1330 H   0  0  0  0  0  0  0  0  0  0  0  0
   49.6890   36.3390   40.6420 H   0  0  0  0  0  0  0  0  0  0  0  0
   50.4610   34.2620   41.8350 H   0  0  0  0  0  0  0  0  0  0  0  0
   49.4220   34.7020   43.2850 H   0  0  0  0  0  0  0  0  0  0  0  0
   41.4740   32.6430   37.9560 O   0  0  0  0  0  0  0  0  0  0  0  0
   40.7690   31.4880   38.0140 C   0  0  0  0  0  0  0  0  0  0  0  0
   39.5960   31.3950   37.4440 O   0  0  0  0  0  0  0  0  0  0  0  0
   40.7440   30.1370   38.4900 N   0  0  0  0  0  0  0  0  0  0  0  0
   41.6430   29.3610   37.6530 C   0  0  0  0  0  3  0  0  0  0  0  0
   41.4110   29.3770   36.5910 H   0  0  0  0  0  0  0  0  0  0  0  0
   41.7290   27.9700   38.2250 C   0  0  0  0  0  3  0  0  0  0  0  0
   42.2880   27.9960   39.1780 H   0  0  0  0  0  0  0  0  0  0  0  0
   40.4390   27.3540   38.3770 N   0  0  0  0  0  0  0  0  0  0  0  0
   40.5770   26.4740   38.9300 H   0  0  0  0  0  0  0  0  0  0  0  0
   39.4520   28.2040   38.9750 C   0  0  0  0  0  2  0  0  0  0  0  0
   40.0440   29.4910   39.5500 C   0  0  0  0  0  2  0  0  0  0  0  0
  1  7  1  6  0  0  0
  1  6  1  0  0  0  0
  1  2  1  0  0  0  0
  2  8  1  6  0  0  0
  2  3  1  0  0  0  0
  2 17  1  0  0  0  0
  4 10  1  0  0  0  0
  4  3  1  0  0  0  0
  5  6  1  0  0  0  0
  5 11  1  1  0  0  0
  5  4  1  0  0  0  0
  6 12  1  1  0  0  0
  9  4  1  0  0  0  0
 13  1  1  0  0  0  0
 14 13  1  0  0  0  0
 15  5  1  0  0  0  0
 16 15  1  0  0  0  0
 17 18  1  0  0  0  0
 18 23  1  0  0  0  0
 19 18  2  0  0  0  0
 19 20  1  0  0  0  0
 20 21  2  0  0  0  0
 21 22  1  0  0  0  0
 22 25  1  0  0  0  0
 23 22  2  0  0  0  0
 24 19  1  0  0  0  0
 26 27  1  0  0  0  0
 26 20  1  0  0  0  0
 26 28  1  0  0  0  0
 27 30  1  0  0  0  0
 27 28  1  0  0  0  0
 28 33  1  0  0  0  0
 29 26  1  0  0  0  0
 31 27  1  0  0  0  0
 32 28  1  0  0  0  0
 34 35  1  0  0  0  0
 34  6  1  0  0  0  0
 35 37  1  0  0  0  0
 36 35  2  0  0  0  0
 37 45  1  0  0  0  0
 38 40  1  0  0  0  0
 38 37  1  0  0  0  0
 39 38  1  0  0  0  0
 40 42  1  0  0  0  0
 40 41  1  0  0  0  0
 42 43  1  0  0  0  0
 42 44  1  0  0  0  0
 44 45  1  0  0  0  0
M  END
>  <minimizedAffinity>
-5.97242975

>  <minimizedRMSD>
0.208085015

$$$$
