
 OpenBabel03252508513D

 28 30  0  0  0  0  0  0  0  0999 V2000
   45.8870   34.2230   41.0440 C   0  0  0  0  0  0  0  0  0  0  0  0
   46.5010   34.8110   42.1550 C   0  0  0  0  0  0  0  0  0  0  0  0
   47.8660   35.1220   42.0460 C   0  0  0  0  0  0  0  0  0  0  0  0
   48.4860   34.8250   40.8620 N   0  0  0  0  0  0  0  0  0  0  0  0
   47.8590   34.2640   39.8340 C   0  0  0  0  0  0  0  0  0  0  0  0
   46.5510   33.9530   39.9050 N   0  0  0  0  0  0  0  0  0  0  0  0
   48.3640   35.5790   42.8930 H   0  0  0  0  0  0  0  0  0  0  0  0
   48.4360   34.0740   38.9550 H   0  0  0  0  0  0  0  0  0  0  0  0
   45.7290   35.0750   43.3560 C   0  0  0  0  0  0  0  0  0  0  0  0
   45.0710   36.2670   43.5790 C   0  0  0  0  0  0  0  0  0  0  0  0
   44.4860   36.0740   44.8190 C   0  0  0  0  0  0  0  0  0  0  0  0
   44.7740   34.8380   45.3160 N   0  0  0  0  0  0  0  0  0  0  0  0
   45.5220   34.2680   44.4120 N   0  0  0  0  0  0  0  0  0  0  0  0
   44.9950   37.1640   42.9740 H   0  0  0  0  0  0  0  0  0  0  0  0
   43.8700   36.8230   45.3300 H   0  0  0  0  0  0  0  0  0  0  0  0
   44.4150   34.5200   46.2440 H   0  0  0  0  0  0  0  0  0  0  0  0
   44.5410   33.9130   41.1410 O   0  0  0  0  0  0  0  0  0  0  0  0
   43.5180   34.5880   40.5300 C   0  0  0  0  0  0  0  0  0  0  0  0
   42.8860   35.6110   40.9480 O   0  0  0  0  0  0  0  0  0  0  0  0
   42.8390   34.3770   39.2660 N   0  0  0  0  0  0  0  0  0  0  0  0
   41.7790   35.3100   38.9470 C   0  0  0  0  0  3  0  0  0  0  0  0
   42.2420   36.0100   38.1910 H   0  0  0  0  0  0  0  0  0  0  0  0
   40.7130   34.5150   38.2250 C   0  0  0  0  0  3  0  0  0  0  0  0
   39.7300   34.9020   38.5750 H   0  0  0  0  0  0  0  0  0  0  0  0
   40.7230   33.1130   38.5730 N   0  0  0  0  0  0  0  0  0  0  0  0
   39.9330   32.6700   38.0680 H   0  0  0  0  0  0  0  0  0  0  0  0
   41.9410   32.4490   38.1560 C   0  0  0  0  0  2  0  0  0  0  0  0
   43.1540   33.3140   38.3300 C   0  0  0  0  0  2  0  0  0  0  0  0
  1 17  1  0  0  0  0
  1  2  1  0  0  0  0
  2  9  1  0  0  0  0
  3  2  2  0  0  0  0
  3  7  1  0  0  0  0
  4  3  1  0  0  0  0
  5  6  1  0  0  0  0
  5  4  2  0  0  0  0
  6  1  2  0  0  0  0
  8  5  1  0  0  0  0
  9 10  1  0  0  0  0
  9 13  2  0  0  0  0
 10 11  2  0  0  0  0
 11 12  1  0  0  0  0
 11 15  1  0  0  0  0
 12 16  1  0  0  0  0
 13 12  1  0  0  0  0
 14 10  1  0  0  0  0
 18 19  2  0  0  0  0
 18 17  1  0  0  0  0
 20 18  1  0  0  0  0
 21 20  1  0  0  0  0
 22 21  1  0  0  0  0
 23 25  1  0  0  0  0
 23 24  1  0  0  0  0
 23 21  1  0  0  0  0
 26 25  1  0  0  0  0
 27 28  1  0  0  0  0
 27 25  1  0  0  0  0
 28 20  1  0  0  0  0
M  END
>  <minimizedAffinity>
-5.58793497

>  <minimizedRMSD>
0.735110044

$$$$
