
 OpenBabel03252502283D

 35 37  0  0  0  0  0  0  0  0999 V2000
   45.1050   34.4830   41.3170 C   0  0  0  0  0  0  0  0  0  0  0  0
   45.4600   35.0990   42.5070 C   0  0  0  0  0  0  0  0  0  0  0  0
   46.8070   35.3510   42.7560 C   0  0  0  0  0  0  0  0  0  0  0  0
   47.7450   34.9880   41.8260 C   0  0  0  0  0  0  0  0  0  0  0  0
   47.4150   34.3760   40.6380 C   0  0  0  0  0  0  0  0  0  0  0  0
   46.0570   34.1350   40.4150 C   0  0  0  0  0  0  0  0  0  0  0  0
   44.7210   35.3870   43.2410 H   0  0  0  0  0  0  0  0  0  0  0  0
   47.0390   35.8330   43.6960 H   0  0  0  0  0  0  0  0  0  0  0  0
   48.7910   35.1780   42.0070 H   0  0  0  0  0  0  0  0  0  0  0  0
   48.1390   34.0760   39.8820 H   0  0  0  0  0  0  0  0  0  0  0  0
   46.1720   32.7420   38.2050 C   0  0  0  0  0  0  0  0  0  0  0  0
   47.3660   32.4890   38.0900 O   0  0  0  0  0  0  0  0  0  0  0  0
   45.5840   33.5150   39.2360 N   0  0  0  0  0  0  0  0  0  0  0  0
   44.5470   33.7250   39.1930 H   0  0  0  0  0  0  0  0  0  0  0  0
   45.3160   32.2000   37.2020 N   0  0  0  0  0  0  0  0  0  0  0  0
   44.2850   31.2980   37.6780 C   0  0  0  0  0  3  0  0  0  0  0  0
   44.6960   30.3050   37.9440 H   0  0  0  0  0  0  0  0  0  0  0  0
   43.1190   31.2500   36.7240 C   0  0  0  0  0  3  0  0  0  0  0  0
   42.5480   32.2120   36.8720 H   0  0  0  0  0  0  0  0  0  0  0  0
   43.4620   31.0360   35.3570 N   0  0  0  0  0  0  0  0  0  0  0  0
   43.1300   30.1020   35.0270 H   0  0  0  0  0  0  0  0  0  0  0  0
   44.8910   31.0880   35.1630 C   0  0  0  0  0  2  0  0  0  0  0  0
   45.3340   32.4270   35.7700 C   0  0  0  0  0  2  0  0  0  0  0  0
   41.4250   34.8410   40.5710 C   0  0  0  0  0  0  0  0  0  0  0  0
   42.7720   35.1890   40.7220 C   0  0  0  0  0  0  0  0  0  0  0  0
   43.6800   34.2510   41.1220 C   0  0  0  0  0  0  0  0  0  0  0  0
   43.1970   32.9930   41.3560 N   0  0  0  0  0  0  0  0  0  0  0  0
   41.9030   32.6500   41.2130 C   0  0  0  0  0  0  0  0  0  0  0  0
   41.0080   33.5850   40.8160 N   0  0  0  0  0  0  0  0  0  0  0  0
   43.1310   36.1950   40.5310 H   0  0  0  0  0  0  0  0  0  0  0  0
   41.5870   31.6320   41.4150 H   0  0  0  0  0  0  0  0  0  0  0  0
   40.4360   35.8490   40.1400 C   0  0  0  0  0  0  0  0  0  0  0  0
   39.2190   35.1810   39.9300 F   0  0  0  0  0  0  0  0  0  0  0  0
   40.8370   36.2900   38.8870 F   0  0  0  0  0  0  0  0  0  0  0  0
   40.2670   36.8700   41.0340 F   0  0  0  0  0  0  0  0  0  0  0  0
  1  2  1  0  0  0  0
  2  3  2  0  0  0  0
  2  7  1  0  0  0  0
  3  8  1  0  0  0  0
  4  9  1  0  0  0  0
  4  3  1  0  0  0  0
  5  4  2  0  0  0  0
  6  5  1  0  0  0  0
  6  1  2  0  0  0  0
 10  5  1  0  0  0  0
 11 13  1  0  0  0  0
 12 11  2  0  0  0  0
 13  6  1  0  0  0  0
 14 13  1  0  0  0  0
 15 16  1  0  0  0  0
 15 11  1  0  0  0  0
 16 17  1  0  0  0  0
 18 19  1  0  0  0  0
 18 16  1  0  0  0  0
 20 18  1  0  0  0  0
 21 20  1  0  0  0  0
 22 20  1  0  0  0  0
 22 23  1  0  0  0  0
 23 15  1  0  0  0  0
 24 25  2  0  0  0  0
 24 29  1  0  0  0  0
 25 26  1  0  0  0  0
 26  1  1  0  0  0  0
 26 27  2  0  0  0  0
 28 27  1  0  0  0  0
 28 31  1  0  0  0  0
 29 28  2  0  0  0  0
 30 25  1  0  0  0  0
 32 24  1  0  0  0  0
 32 35  1  0  0  0  0
 33 32  1  0  0  0  0
 34 32  1  0  0  0  0
M  END
>  <minimizedAffinity>
-6.46886587

>  <minimizedRMSD>
0.750175178

$$$$
