
 OpenBabel03252508513D

 28 30  0  0  0  0  0  0  0  0999 V2000
   45.9340   34.2020   41.0200 C   0  0  0  0  0  0  0  0  0  0  0  0
   46.5320   34.8050   42.1310 C   0  0  0  0  0  0  0  0  0  0  0  0
   47.8910   35.1430   42.0270 C   0  0  0  0  0  0  0  0  0  0  0  0
   48.5220   34.8550   40.8470 N   0  0  0  0  0  0  0  0  0  0  0  0
   47.9100   34.2790   39.8180 C   0  0  0  0  0  0  0  0  0  0  0  0
   46.6080   33.9420   39.8840 N   0  0  0  0  0  0  0  0  0  0  0  0
   48.3770   35.6120   42.8750 H   0  0  0  0  0  0  0  0  0  0  0  0
   48.4950   34.0980   38.9420 H   0  0  0  0  0  0  0  0  0  0  0  0
   45.7510   35.0570   43.3290 C   0  0  0  0  0  0  0  0  0  0  0  0
   45.0730   36.2390   43.5490 C   0  0  0  0  0  0  0  0  0  0  0  0
   44.4850   36.0360   44.7860 C   0  0  0  0  0  0  0  0  0  0  0  0
   44.7890   34.8050   45.2840 N   0  0  0  0  0  0  0  0  0  0  0  0
   45.5500   34.2460   44.3840 N   0  0  0  0  0  0  0  0  0  0  0  0
   44.9860   37.1340   42.9440 H   0  0  0  0  0  0  0  0  0  0  0  0
   43.8550   36.7760   45.2940 H   0  0  0  0  0  0  0  0  0  0  0  0
   44.4300   34.4810   46.2110 H   0  0  0  0  0  0  0  0  0  0  0  0
   44.5940   33.8660   41.1120 O   0  0  0  0  0  0  0  0  0  0  0  0
   43.5610   34.5190   40.4950 C   0  0  0  0  0  0  0  0  0  0  0  0
   43.1220   35.6920   40.7200 O   0  0  0  0  0  0  0  0  0  0  0  0
   42.6590   34.1160   39.4330 N   0  0  0  0  0  0  0  0  0  0  0  0
   42.1580   35.1770   38.5850 C   0  0  0  0  0  3  0  0  0  0  0  0
   42.7670   35.0870   37.6370 H   0  0  0  0  0  0  0  0  0  0  0  0
   40.7330   34.8090   38.2350 C   0  0  0  0  0  3  0  0  0  0  0  0
   40.1450   35.7530   38.2420 H   0  0  0  0  0  0  0  0  0  0  0  0
   40.1120   33.9600   39.2260 N   0  0  0  0  0  0  0  0  0  0  0  0
   39.1330   33.8050   38.9210 H   0  0  0  0  0  0  0  0  0  0  0  0
   40.7520   32.6650   39.3240 C   0  0  0  0  0  2  0  0  0  0  0  0
   42.2450   32.7500   39.1800 C   0  0  0  0  0  2  0  0  0  0  0  0
  1 17  1  0  0  0  0
  1  2  1  0  0  0  0
  2  9  1  0  0  0  0
  3  2  2  0  0  0  0
  3  7  1  0  0  0  0
  4  3  1  0  0  0  0
  5  6  1  0  0  0  0
  5  4  2  0  0  0  0
  6  1  2  0  0  0  0
  8  5  1  0  0  0  0
  9 10  1  0  0  0  0
  9 13  2  0  0  0  0
 10 11  2  0  0  0  0
 11 12  1  0  0  0  0
 11 15  1  0  0  0  0
 12 16  1  0  0  0  0
 13 12  1  0  0  0  0
 14 10  1  0  0  0  0
 18 19  2  0  0  0  0
 18 17  1  0  0  0  0
 20 18  1  0  0  0  0
 21 20  1  0  0  0  0
 22 21  1  0  0  0  0
 23 24  1  0  0  0  0
 23 21  1  0  0  0  0
 23 25  1  0  0  0  0
 25 27  1  0  0  0  0
 26 25  1  0  0  0  0
 28 27  1  0  0  0  0
 28 20  1  0  0  0  0
M  END
>  <minimizedAffinity>
-5.61120081

>  <minimizedRMSD>
0.419213474

$$$$
