
 OpenBabel03242512343D

 20 21  0  0  0  0  0  0  0  0999 V2000
   47.1990   34.9370   41.9530 C   0  0  0  0  0  0  0  0  0  0  0  0
   48.2990   35.5190   41.7860 O   0  0  0  0  0  0  0  0  0  0  0  0
   47.0060   34.3100   40.6870 N   0  0  0  0  0  0  0  0  0  0  0  0
   48.1420   34.2230   39.8190 C   0  0  0  0  0  0  0  0  0  0  0  0
   48.7260   35.1810   39.9190 H   0  0  0  0  0  0  0  0  0  0  0  0
   47.7750   34.1520   38.3590 C   0  0  0  0  0  0  0  0  0  0  0  0
   48.6370   33.6060   37.8750 H   0  0  0  0  0  0  0  0  0  0  0  0
   46.6200   33.3740   38.0770 N   0  0  0  0  0  0  0  0  0  0  0  0
   45.8650   33.8710   37.5690 H   0  0  0  0  0  0  0  0  0  0  0  0
   46.1070   32.6870   39.2290 C   0  0  0  0  0  0  0  0  0  0  0  0
   45.7380   33.7620   40.2330 C   0  0  0  0  0  0  0  0  0  0  0  0
   46.3680   34.9190   43.1160 C   0  0  0  0  0  0  0  0  0  0  0  0
   45.4720   35.9900   43.1710 C   0  0  0  0  0  0  0  0  0  0  0  0
   44.6190   36.0400   44.2920 C   0  0  0  0  0  0  0  0  0  0  0  0
   44.7210   35.0630   45.2290 N   0  0  0  0  0  0  0  0  0  0  0  0
   45.6160   34.0490   45.1140 C   0  0  0  0  0  0  0  0  0  0  0  0
   46.4360   33.9820   44.0580 N   0  0  0  0  0  0  0  0  0  0  0  0
   45.3870   36.7630   42.4330 H   0  0  0  0  0  0  0  0  0  0  0  0
   43.8800   36.8260   44.4420 H   0  0  0  0  0  0  0  0  0  0  0  0
   45.5900   33.3370   45.9350 H   0  0  0  0  0  0  0  0  0  0  0  0
  1 12  1  0  0  0  0
  2  1  2  0  0  0  0
  3  1  1  0  0  0  0
  4  5  1  0  0  0  0
  4  3  1  0  0  0  0
  6  4  1  0  0  0  0
  7  6  1  0  0  0  0
  8  6  1  0  0  0  0
  8 10  1  0  0  0  0
  9  8  1  0  0  0  0
 10 11  1  0  0  0  0
 11  3  1  0  0  0  0
 12 13  2  0  0  0  0
 12 17  1  0  0  0  0
 13 14  1  0  0  0  0
 14 19  1  0  0  0  0
 14 15  2  0  0  0  0
 16 15  1  0  0  0  0
 16 20  1  0  0  0  0
 17 16  2  0  0  0  0
 18 13  1  0  0  0  0
M  END
>  <minimizedAffinity>
-4.50494099

>  <minimizedRMSD>
0.361010045

$$$$
