
 OpenBabel03242512053D

 20 21  0  0  0  0  0  0  0  0999 V2000
   39.1910   30.6150   42.1730 C   0  0  0  0  0  0  0  0  0  0  0  0
   40.0530   31.0800   42.9430 O   0  0  0  0  0  0  0  0  0  0  0  0
   38.6640   31.4240   41.1300 N   0  0  0  0  0  0  0  0  0  0  0  0
   39.4480   32.4700   40.4990 C   0  0  0  0  0  3  0  0  0  0  0  0
   40.4520   32.5560   40.9250 H   0  0  0  0  0  0  0  0  0  0  0  0
   38.6340   33.7450   40.7120 C   0  0  0  0  0  3  0  0  0  0  0  0
   38.4260   33.8240   41.8150 H   0  0  0  0  0  0  0  0  0  0  0  0
   37.3800   33.6430   40.0340 N   0  0  0  0  0  0  0  0  0  0  0  0
   37.4650   34.2070   39.1400 H   0  0  0  0  0  0  0  0  0  0  0  0
   36.9580   32.3310   39.6740 C   0  0  0  0  0  2  0  0  0  0  0  0
   37.3110   31.2440   40.6400 C   0  0  0  0  0  2  0  0  0  0  0  0
   37.8880   28.9260   43.4230 C   0  0  0  0  0  0  0  0  0  0  0  0
   38.7640   29.2720   42.3750 C   0  0  0  0  0  0  0  0  0  0  0  0
   39.2100   28.2460   41.5240 C   0  0  0  0  0  0  0  0  0  0  0  0
   38.7760   26.9780   41.7540 N   0  0  0  0  0  0  0  0  0  0  0  0
   37.9360   26.6790   42.7680 C   0  0  0  0  0  0  0  0  0  0  0  0
   37.5150   27.6520   43.5740 N   0  0  0  0  0  0  0  0  0  0  0  0
   37.5570   29.7300   44.0660 H   0  0  0  0  0  0  0  0  0  0  0  0
   39.8720   28.4200   40.7080 H   0  0  0  0  0  0  0  0  0  0  0  0
   37.6480   25.6410   42.8710 H   0  0  0  0  0  0  0  0  0  0  0  0
  1 13  1  0  0  0  0
  1  2  2  0  0  0  0
  3  1  1  0  0  0  0
  4  6  1  0  0  0  0
  4  5  1  0  0  0  0
  4  3  1  0  0  0  0
  6  7  1  0  0  0  0
  8  6  1  0  0  0  0
  9  8  1  0  0  0  0
 10  8  1  0  0  0  0
 10 11  1  0  0  0  0
 11  3  1  0  0  0  0
 12 17  1  0  0  0  0
 12 18  1  0  0  0  0
 13 12  2  0  0  0  0
 14 15  2  0  0  0  0
 14 13  1  0  0  0  0
 15 16  1  0  0  0  0
 16 20  1  0  0  0  0
 16 17  2  0  0  0  0
 19 14  1  0  0  0  0
M  END
>  <minimizedAffinity>
-4.37429428

$$$$

 OpenBabel03242512053D

 20 21  0  0  0  0  0  0  0  0999 V2000
   39.7480   33.0680   40.2680 C   0  0  0  0  0  0  0  0  0  0  0  0
   39.7680   34.1610   40.8660 O   0  0  0  0  0  0  0  0  0  0  0  0
   40.7020   32.8040   39.2470 N   0  0  0  0  0  0  0  0  0  0  0  0
   42.0310   33.3890   39.2680 C   0  0  0  0  0  3  0  0  0  0  0  0
   42.1880   34.0420   40.1310 H   0  0  0  0  0  0  0  0  0  0  0  0
   42.1350   34.1590   37.9530 C   0  0  0  0  0  3  0  0  0  0  0  0
   41.2480   34.8490   37.9030 H   0  0  0  0  0  0  0  0  0  0  0  0
   42.0520   33.2540   36.8500 N   0  0  0  0  0  0  0  0  0  0  0  0
   43.0400   33.1090   36.4930 H   0  0  0  0  0  0  0  0  0  0  0  0
   41.5020   31.9690   37.1230 C   0  0  0  0  0  2  0  0  0  0  0  0
   40.3960   31.9330   38.1290 C   0  0  0  0  0  2  0  0  0  0  0  0
   39.0750   30.9800   41.4070 C   0  0  0  0  0  0  0  0  0  0  0  0
   38.7560   32.1160   40.6370 C   0  0  0  0  0  0  0  0  0  0  0  0
   37.4190   32.2890   40.2410 C   0  0  0  0  0  0  0  0  0  0  0  0
   36.5050   31.3560   40.6180 N   0  0  0  0  0  0  0  0  0  0  0  0
   36.8420   30.2770   41.3550 C   0  0  0  0  0  0  0  0  0  0  0  0
   38.1100   30.1140   41.7300 N   0  0  0  0  0  0  0  0  0  0  0  0
   40.1090   30.8650   41.7020 H   0  0  0  0  0  0  0  0  0  0  0  0
   37.0930   33.1200   39.6590 H   0  0  0  0  0  0  0  0  0  0  0  0
   36.0440   29.5890   41.6040 H   0  0  0  0  0  0  0  0  0  0  0  0
  1 13  1  0  0  0  0
  1  2  2  0  0  0  0
  3  4  1  0  0  0  0
  3  1  1  0  0  0  0
  4  5  1  0  0  0  0
  6  4  1  0  0  0  0
  7  6  1  0  0  0  0
  8 10  1  0  0  0  0
  8  6  1  0  0  0  0
  9  8  1  0  0  0  0
 10 11  1  0  0  0  0
 11  3  1  0  0  0  0
 12 18  1  0  0  0  0
 12 17  1  0  0  0  0
 13 12  2  0  0  0  0
 14 15  2  0  0  0  0
 14 13  1  0  0  0  0
 15 16  1  0  0  0  0
 16 20  1  0  0  0  0
 16 17  2  0  0  0  0
 19 14  1  0  0  0  0
M  END
>  <minimizedAffinity>
-4.10589504

$$$$

 OpenBabel03242512053D

 20 21  0  0  0  0  0  0  0  0999 V2000
   37.2160   27.5900   42.5520 C   0  0  0  0  0  0  0  0  0  0  0  0
   36.2050   27.6360   43.2790 O   0  0  0  0  0  0  0  0  0  0  0  0
   37.4290   28.5990   41.5730 N   0  0  0  0  0  0  0  0  0  0  0  0
   36.9520   29.9590   41.7560 C   0  0  0  0  0  3  0  0  0  0  0  0
   36.4190   30.0920   42.7010 H   0  0  0  0  0  0  0  0  0  0  0  0
   36.0430   30.2140   40.5550 C   0  0  0  0  0  3  0  0  0  0  0  0
   35.2880   29.3810   40.5300 H   0  0  0  0  0  0  0  0  0  0  0  0
   36.8030   30.1550   39.3460 N   0  0  0  0  0  0  0  0  0  0  0  0
   36.9800   31.1560   39.0430 H   0  0  0  0  0  0  0  0  0  0  0  0
   38.0670   29.5010   39.4220 C   0  0  0  0  0  2  0  0  0  0  0  0
   38.1380   28.3210   40.3390 C   0  0  0  0  0  2  0  0  0  0  0  0
   37.8930   25.2450   42.1610 C   0  0  0  0  0  0  0  0  0  0  0  0
   38.1260   26.5110   42.7340 C   0  0  0  0  0  0  0  0  0  0  0  0
   39.2940   26.6830   43.4960 C   0  0  0  0  0  0  0  0  0  0  0  0
   40.1350   25.6260   43.6430 N   0  0  0  0  0  0  0  0  0  0  0  0
   39.8830   24.4240   43.0810 C   0  0  0  0  0  0  0  0  0  0  0  0
   38.7760   24.2620   42.3590 N   0  0  0  0  0  0  0  0  0  0  0  0
   36.9890   25.1320   41.5770 H   0  0  0  0  0  0  0  0  0  0  0  0
   39.5460   27.6070   43.9640 H   0  0  0  0  0  0  0  0  0  0  0  0
   40.6120   23.6430   43.2560 H   0  0  0  0  0  0  0  0  0  0  0  0
  1 13  1  0  0  0  0
  1  2  2  0  0  0  0
  3  4  1  0  0  0  0
  3  1  1  0  0  0  0
  4  5  1  0  0  0  0
  6  4  1  0  0  0  0
  7  6  1  0  0  0  0
  8 10  1  0  0  0  0
  8  6  1  0  0  0  0
  9  8  1  0  0  0  0
 10 11  1  0  0  0  0
 11  3  1  0  0  0  0
 12 17  2  0  0  0  0
 12 13  1  0  0  0  0
 13 14  2  0  0  0  0
 14 15  1  0  0  0  0
 14 19  1  0  0  0  0
 16 20  1  0  0  0  0
 16 15  2  0  0  0  0
 17 16  1  0  0  0  0
 18 12  1  0  0  0  0
M  END
>  <minimizedAffinity>
-4.06548977

$$$$

 OpenBabel03242512053D

 20 21  0  0  0  0  0  0  0  0999 V2000
   36.8350   27.3300   42.3360 C   0  0  0  0  0  0  0  0  0  0  0  0
   36.4870   27.2220   43.5270 O   0  0  0  0  0  0  0  0  0  0  0  0
   37.3590   26.2020   41.6470 N   0  0  0  0  0  0  0  0  0  0  0  0
   36.9530   24.8470   41.9750 C   0  0  0  0  0  3  0  0  0  0  0  0
   36.2310   24.8120   42.7960 H   0  0  0  0  0  0  0  0  0  0  0  0
   38.2530   24.1310   42.3360 C   0  0  0  0  0  3  0  0  0  0  0  0
   38.7580   24.7450   43.1320 H   0  0  0  0  0  0  0  0  0  0  0  0
   39.1190   24.0870   41.2000 N   0  0  0  0  0  0  0  0  0  0  0  0
   39.0470   23.1090   40.7950 H   0  0  0  0  0  0  0  0  0  0  0  0
   38.8360   25.0070   40.1510 C   0  0  0  0  0  2  0  0  0  0  0  0
   38.3270   26.3480   40.5780 C   0  0  0  0  0  2  0  0  0  0  0  0
   37.6000   29.6490   41.9490 C   0  0  0  0  0  0  0  0  0  0  0  0
   36.6930   28.5990   41.7060 C   0  0  0  0  0  0  0  0  0  0  0  0
   35.6320   28.8390   40.8160 C   0  0  0  0  0  0  0  0  0  0  0  0
   35.5350   30.0650   40.2370 N   0  0  0  0  0  0  0  0  0  0  0  0
   36.4210   31.0510   40.4910 C   0  0  0  0  0  0  0  0  0  0  0  0
   37.4260   30.8230   41.3350 N   0  0  0  0  0  0  0  0  0  0  0  0
   38.4100   29.4450   42.6370 H   0  0  0  0  0  0  0  0  0  0  0  0
   34.9020   28.1000   40.5770 H   0  0  0  0  0  0  0  0  0  0  0  0
   36.2600   31.9930   39.9830 H   0  0  0  0  0  0  0  0  0  0  0  0
  1  2  2  0  0  0  0
  3  4  1  0  0  0  0
  3  1  1  0  0  0  0
  4  6  1  0  0  0  0
  4  5  1  0  0  0  0
  6  7  1  0  0  0  0
  8  6  1  0  0  0  0
  9  8  1  0  0  0  0
 10 11  1  0  0  0  0
 10  8  1  0  0  0  0
 11  3  1  0  0  0  0
 12 18  1  0  0  0  0
 13 12  1  0  0  0  0
 13  1  1  0  0  0  0
 14 13  2  0  0  0  0
 15 16  2  0  0  0  0
 15 14  1  0  0  0  0
 16 17  1  0  0  0  0
 17 12  2  0  0  0  0
 19 14  1  0  0  0  0
 20 16  1  0  0  0  0
M  END
>  <minimizedAffinity>
-4.05996895

$$$$

 OpenBabel03242512053D

 20 21  0  0  0  0  0  0  0  0999 V2000
   39.1640   28.7370   41.8790 C   0  0  0  0  0  0  0  0  0  0  0  0
   39.9550   29.6480   42.1880 O   0  0  0  0  0  0  0  0  0  0  0  0
   37.9280   29.0560   41.2530 N   0  0  0  0  0  0  0  0  0  0  0  0
   37.7800   30.2190   40.3950 C   0  0  0  0  0  3  0  0  0  0  0  0
   38.7040   30.7980   40.3110 H   0  0  0  0  0  0  0  0  0  0  0  0
   36.6600   31.0340   41.0400 C   0  0  0  0  0  3  0  0  0  0  0  0
   36.9470   31.1960   42.1160 H   0  0  0  0  0  0  0  0  0  0  0  0
   35.4400   30.2910   41.0180 N   0  0  0  0  0  0  0  0  0  0  0  0
   34.8550   30.6810   40.2230 H   0  0  0  0  0  0  0  0  0  0  0  0
   35.5560   28.8860   40.8150 C   0  0  0  0  0  2  0  0  0  0  0  0
   36.7490   28.2320   41.4370 C   0  0  0  0  0  2  0  0  0  0  0  0
   39.3320   26.8360   43.4500 C   0  0  0  0  0  0  0  0  0  0  0  0
   39.5360   27.3950   42.1730 C   0  0  0  0  0  0  0  0  0  0  0  0
   40.1230   26.5850   41.1860 C   0  0  0  0  0  0  0  0  0  0  0  0
   40.4620   25.3090   41.5110 N   0  0  0  0  0  0  0  0  0  0  0  0
   40.2540   24.8020   42.7450 C   0  0  0  0  0  0  0  0  0  0  0  0
   39.6980   25.5710   43.6790 N   0  0  0  0  0  0  0  0  0  0  0  0
   38.8790   27.4750   44.1960 H   0  0  0  0  0  0  0  0  0  0  0  0
   40.3130   26.9290   40.1950 H   0  0  0  0  0  0  0  0  0  0  0  0
   40.5580   23.7770   42.9070 H   0  0  0  0  0  0  0  0  0  0  0  0
  1 13  1  0  0  0  0
  1  2  2  0  0  0  0
  3 11  1  0  0  0  0
  3  1  1  0  0  0  0
  4  6  1  0  0  0  0
  4  3  1  0  0  0  0
  5  4  1  0  0  0  0
  6  7  1  0  0  0  0
  8  6  1  0  0  0  0
  9  8  1  0  0  0  0
 10  8  1  0  0  0  0
 10 11  1  0  0  0  0
 12 17  1  0  0  0  0
 12 18  1  0  0  0  0
 13 12  2  0  0  0  0
 14 15  2  0  0  0  0
 14 13  1  0  0  0  0
 15 16  1  0  0  0  0
 16 20  1  0  0  0  0
 16 17  2  0  0  0  0
 19 14  1  0  0  0  0
M  END
>  <minimizedAffinity>
-4.0386281

$$$$

 OpenBabel03242512053D

 20 21  0  0  0  0  0  0  0  0999 V2000
   39.3090   30.2770   41.1660 C   0  0  0  0  0  0  0  0  0  0  0  0
   40.5290   30.1270   41.3750 O   0  0  0  0  0  0  0  0  0  0  0  0
   38.8590   31.3510   40.3510 N   0  0  0  0  0  0  0  0  0  0  0  0
   39.6670   31.8840   39.2680 C   0  0  0  0  0  3  0  0  0  0  0  0
   40.6320   31.3780   39.1770 H   0  0  0  0  0  0  0  0  0  0  0  0
   39.8360   33.3640   39.6060 C   0  0  0  0  0  3  0  0  0  0  0  0
   40.2430   33.4200   40.6530 H   0  0  0  0  0  0  0  0  0  0  0  0
   38.5650   34.0170   39.5920 N   0  0  0  0  0  0  0  0  0  0  0  0
   38.4990   34.5450   38.6740 H   0  0  0  0  0  0  0  0  0  0  0  0
   37.4190   33.1770   39.6870 C   0  0  0  0  0  2  0  0  0  0  0  0
   37.5650   31.9700   40.5590 C   0  0  0  0  0  2  0  0  0  0  0  0
   37.6750   28.4310   40.9850 C   0  0  0  0  0  0  0  0  0  0  0  0
   38.4060   29.3510   41.7610 C   0  0  0  0  0  0  0  0  0  0  0  0
   38.2210   29.3310   43.1540 C   0  0  0  0  0  0  0  0  0  0  0  0
   37.3490   28.4300   43.6790 N   0  0  0  0  0  0  0  0  0  0  0  0
   36.6620   27.5610   42.9080 C   0  0  0  0  0  0  0  0  0  0  0  0
   36.8390   27.5810   41.5880 N   0  0  0  0  0  0  0  0  0  0  0  0
   37.8320   28.4620   39.9150 H   0  0  0  0  0  0  0  0  0  0  0  0
   38.7340   29.9920   43.8140 H   0  0  0  0  0  0  0  0  0  0  0  0
   35.9910   26.8830   43.4180 H   0  0  0  0  0  0  0  0  0  0  0  0
  1  2  2  0  0  0  0
  1 13  1  0  0  0  0
  3 11  1  0  0  0  0
  3  1  1  0  0  0  0
  4  6  1  0  0  0  0
  4  3  1  0  0  0  0
  5  4  1  0  0  0  0
  6  7  1  0  0  0  0
  8  6  1  0  0  0  0
  8 10  1  0  0  0  0
  9  8  1  0  0  0  0
 10 11  1  0  0  0  0
 12 17  2  0  0  0  0
 12 13  1  0  0  0  0
 13 14  2  0  0  0  0
 14 15  1  0  0  0  0
 14 19  1  0  0  0  0
 16 20  1  0  0  0  0
 16 15  2  0  0  0  0
 17 16  1  0  0  0  0
 18 12  1  0  0  0  0
M  END
>  <minimizedAffinity>
-4.00876617

$$$$

 OpenBabel03242512053D

 20 21  0  0  0  0  0  0  0  0999 V2000
   39.2700   30.1340   41.0200 C   0  0  0  0  0  0  0  0  0  0  0  0
   40.4930   29.9180   41.1210 O   0  0  0  0  0  0  0  0  0  0  0  0
   38.8080   31.2360   40.2500 N   0  0  0  0  0  0  0  0  0  0  0  0
   39.5450   31.7320   39.1010 C   0  0  0  0  0  3  0  0  0  0  0  0
   40.4700   31.1760   38.9240 H   0  0  0  0  0  0  0  0  0  0  0  0
   39.8220   33.1990   39.4250 C   0  0  0  0  0  3  0  0  0  0  0  0
   40.3220   33.2260   40.4330 H   0  0  0  0  0  0  0  0  0  0  0  0
   38.5920   33.9190   39.5240 N   0  0  0  0  0  0  0  0  0  0  0  0
   38.4730   34.4550   38.6170 H   0  0  0  0  0  0  0  0  0  0  0  0
   37.4150   33.1400   39.7180 C   0  0  0  0  0  2  0  0  0  0  0  0
   37.5720   31.9210   40.5720 C   0  0  0  0  0  2  0  0  0  0  0  0
   38.2130   29.2930   43.0900 C   0  0  0  0  0  0  0  0  0  0  0  0
   38.3750   29.2540   41.6910 C   0  0  0  0  0  0  0  0  0  0  0  0
   37.6210   28.3150   40.9670 C   0  0  0  0  0  0  0  0  0  0  0  0
   36.7780   27.4950   41.6500 N   0  0  0  0  0  0  0  0  0  0  0  0
   36.6450   27.5570   42.9920 C   0  0  0  0  0  0  0  0  0  0  0  0
   37.3600   28.4480   43.6770 N   0  0  0  0  0  0  0  0  0  0  0  0
   38.8020   30.0230   43.6290 H   0  0  0  0  0  0  0  0  0  0  0  0
   37.6830   28.2180   39.9080 H   0  0  0  0  0  0  0  0  0  0  0  0
   35.9500   26.8620   43.4440 H   0  0  0  0  0  0  0  0  0  0  0  0
  1  2  2  0  0  0  0
  1 13  1  0  0  0  0
  3 11  1  0  0  0  0
  3  1  1  0  0  0  0
  4  6  1  0  0  0  0
  4  3  1  0  0  0  0
  5  4  1  0  0  0  0
  6  8  1  0  0  0  0
  6  7  1  0  0  0  0
  8 10  1  0  0  0  0
  9  8  1  0  0  0  0
 10 11  1  0  0  0  0
 12 18  1  0  0  0  0
 12 17  1  0  0  0  0
 13 12  2  0  0  0  0
 14 15  2  0  0  0  0
 14 13  1  0  0  0  0
 15 16  1  0  0  0  0
 16 20  1  0  0  0  0
 16 17  2  0  0  0  0
 19 14  1  0  0  0  0
M  END
>  <minimizedAffinity>
-3.98159242

$$$$

 OpenBabel03242512053D

 20 21  0  0  0  0  0  0  0  0999 V2000
   38.3480   27.6690   41.3610 C   0  0  0  0  0  0  0  0  0  0  0  0
   39.3750   28.0620   41.9470 O   0  0  0  0  0  0  0  0  0  0  0  0
   37.4110   28.6170   40.8660 N   0  0  0  0  0  0  0  0  0  0  0  0
   37.8170   29.9400   40.4250 C   0  0  0  0  0  3  0  0  0  0  0  0
   38.8930   30.1050   40.5320 H   0  0  0  0  0  0  0  0  0  0  0  0
   37.0080   30.9020   41.2940 C   0  0  0  0  0  3  0  0  0  0  0  0
   37.1950   30.6150   42.3650 H   0  0  0  0  0  0  0  0  0  0  0  0
   35.6130   30.7410   41.0320 N   0  0  0  0  0  0  0  0  0  0  0  0
   35.3220   31.5430   40.4020 H   0  0  0  0  0  0  0  0  0  0  0  0
   35.2220   29.5300   40.3910 C   0  0  0  0  0  2  0  0  0  0  0  0
   35.9970   28.3090   40.7740 C   0  0  0  0  0  2  0  0  0  0  0  0
   38.4130   25.6130   39.9900 C   0  0  0  0  0  0  0  0  0  0  0  0
   38.1540   26.2670   41.2110 C   0  0  0  0  0  0  0  0  0  0  0  0
   37.6950   25.4910   42.2890 C   0  0  0  0  0  0  0  0  0  0  0  0
   37.5250   24.1560   42.1010 N   0  0  0  0  0  0  0  0  0  0  0  0
   37.7820   23.5580   40.9180 C   0  0  0  0  0  0  0  0  0  0  0  0
   38.2160   24.2950   39.8970 N   0  0  0  0  0  0  0  0  0  0  0  0
   38.7650   26.2270   39.1730 H   0  0  0  0  0  0  0  0  0  0  0  0
   37.4760   25.9060   43.2460 H   0  0  0  0  0  0  0  0  0  0  0  0
   37.6150   22.4900   40.8660 H   0  0  0  0  0  0  0  0  0  0  0  0
  1  2  2  0  0  0  0
  3  1  1  0  0  0  0
  4  5  1  0  0  0  0
  4  3  1  0  0  0  0
  4  6  1  0  0  0  0
  6  7  1  0  0  0  0
  8  6  1  0  0  0  0
  9  8  1  0  0  0  0
 10 11  1  0  0  0  0
 10  8  1  0  0  0  0
 11  3  1  0  0  0  0
 12 13  1  0  0  0  0
 13  1  1  0  0  0  0
 13 14  2  0  0  0  0
 14 19  1  0  0  0  0
 15 14  1  0  0  0  0
 16 15  2  0  0  0  0
 17 12  2  0  0  0  0
 17 16  1  0  0  0  0
 18 12  1  0  0  0  0
 20 16  1  0  0  0  0
M  END
>  <minimizedAffinity>
-3.97489715

$$$$

 OpenBabel03242512053D

 20 21  0  0  0  0  0  0  0  0999 V2000
   37.7360   28.9070   39.7290 C   0  0  0  0  0  0  0  0  0  0  0  0
   38.0770   28.1140   38.8310 O   0  0  0  0  0  0  0  0  0  0  0  0
   37.3360   30.2290   39.3900 N   0  0  0  0  0  0  0  0  0  0  0  0
   36.7010   30.5360   38.1200 C   0  0  0  0  0  3  0  0  0  0  0  0
   36.5880   29.6540   37.4840 H   0  0  0  0  0  0  0  0  0  0  0  0
   37.6090   31.5840   37.4780 C   0  0  0  0  0  3  0  0  0  0  0  0
   38.6490   31.1560   37.4650 H   0  0  0  0  0  0  0  0  0  0  0  0
   37.6300   32.7680   38.2770 N   0  0  0  0  0  0  0  0  0  0  0  0
   36.9910   33.4710   37.8050 H   0  0  0  0  0  0  0  0  0  0  0  0
   37.1940   32.6320   39.6260 C   0  0  0  0  0  2  0  0  0  0  0  0
   37.5420   31.3400   40.2980 C   0  0  0  0  0  2  0  0  0  0  0  0
   36.5800   28.0960   41.7580 C   0  0  0  0  0  0  0  0  0  0  0  0
   37.7620   28.4500   41.0770 C   0  0  0  0  0  0  0  0  0  0  0  0
   38.9790   28.3360   41.7680 C   0  0  0  0  0  0  0  0  0  0  0  0
   38.9570   27.8940   43.0530 N   0  0  0  0  0  0  0  0  0  0  0  0
   37.8080   27.5630   43.6800 C   0  0  0  0  0  0  0  0  0  0  0  0
   36.6540   27.6710   43.0230 N   0  0  0  0  0  0  0  0  0  0  0  0
   35.6530   28.1910   41.2090 H   0  0  0  0  0  0  0  0  0  0  0  0
   39.9180   28.5820   41.3270 H   0  0  0  0  0  0  0  0  0  0  0  0
   37.8920   27.2220   44.7030 H   0  0  0  0  0  0  0  0  0  0  0  0
  1 13  1  0  0  0  0
  2  1  2  0  0  0  0
  3  1  1  0  0  0  0
  3 11  1  0  0  0  0
  4  3  1  0  0  0  0
  5  4  1  0  0  0  0
  6  4  1  0  0  0  0
  6  8  1  0  0  0  0
  7  6  1  0  0  0  0
  8 10  1  0  0  0  0
  9  8  1  0  0  0  0
 10 11  1  0  0  0  0
 12 17  1  0  0  0  0
 13 12  2  0  0  0  0
 13 14  1  0  0  0  0
 14 15  2  0  0  0  0
 15 16  1  0  0  0  0
 16 20  1  0  0  0  0
 17 16  2  0  0  0  0
 18 12  1  0  0  0  0
 19 14  1  0  0  0  0
M  END
>  <minimizedAffinity>
-3.87886524

$$$$
