
 OpenBabel03252501113D

 20 21  0  0  0  0  0  0  0  0999 V2000
   46.8840   34.8840   41.9670 C   0  0  0  0  0  0  0  0  0  0  0  0
   47.9650   35.4830   41.7640 O   0  0  0  0  0  0  0  0  0  0  0  0
   46.3600   34.1270   40.8790 N   0  0  0  0  0  0  0  0  0  0  0  0
   44.9990   33.6660   40.8740 C   0  0  0  0  0  0  0  0  0  0  0  0
   44.8670   32.7600   41.4900 H   0  0  0  0  0  0  0  0  0  0  0  0
   44.4540   33.5130   39.4830 C   0  0  0  0  0  0  0  0  0  0  0  0
   44.3070   34.5170   39.0340 H   0  0  0  0  0  0  0  0  0  0  0  0
   45.2430   32.6660   38.6400 N   0  0  0  0  0  0  0  0  0  0  0  0
   44.8350   31.7210   38.5540 H   0  0  0  0  0  0  0  0  0  0  0  0
   46.6190   32.5490   39.0340 C   0  0  0  0  0  0  0  0  0  0  0  0
   47.1460   33.7800   39.7300 C   0  0  0  0  0  0  0  0  0  0  0  0
   44.5600   36.0350   44.5880 C   0  0  0  0  0  0  0  0  0  0  0  0
   45.2850   35.9840   43.3900 C   0  0  0  0  0  0  0  0  0  0  0  0
   46.1500   34.9110   43.2080 C   0  0  0  0  0  0  0  0  0  0  0  0
   46.2480   33.9720   44.1910 N   0  0  0  0  0  0  0  0  0  0  0  0
   45.5250   34.0630   45.3330 C   0  0  0  0  0  0  0  0  0  0  0  0
   44.6740   35.1010   45.5350 N   0  0  0  0  0  0  0  0  0  0  0  0
   43.8700   36.8530   44.7790 H   0  0  0  0  0  0  0  0  0  0  0  0
   45.1160   36.7850   42.6980 H   0  0  0  0  0  0  0  0  0  0  0  0
   45.7690   33.2090   45.9580 H   0  0  0  0  0  0  0  0  0  0  0  0
  1 14  1  0  0  0  0
  2  1  2  0  0  0  0
  3  1  1  0  0  0  0
  4  3  1  0  0  0  0
  4  5  1  0  0  0  0
  6  4  1  0  0  0  0
  7  6  1  0  0  0  0
  8 10  1  0  0  0  0
  8  6  1  0  0  0  0
  9  8  1  0  0  0  0
 10 11  1  0  0  0  0
 11  3  1  0  0  0  0
 12 18  1  0  0  0  0
 12 17  1  0  0  0  0
 13 12  2  0  0  0  0
 14 13  1  0  0  0  0
 14 15  2  0  0  0  0
 15 16  1  0  0  0  0
 16 17  2  0  0  0  0
 16 20  1  0  0  0  0
 19 13  1  0  0  0  0
M  END
>  <minimizedAffinity>
-4.23191309

>  <minimizedRMSD>
0.176176295

$$$$
