
 OpenBabel03242520203D

 35 37  0  0  0  0  0  0  0  0999 V2000
   36.6530   27.4640   43.2010 C   0  0  0  0  0  0  0  0  0  0  0  0
   36.1150   27.1270   44.1130 H   0  0  0  0  0  0  0  0  0  0  0  0
   35.9210   27.6590   42.3930 H   0  0  0  0  0  0  0  0  0  0  0  0
   38.0260   24.2970   41.6540 C   0  0  0  0  0  0  0  0  0  0  0  0
   37.1200   25.3180   42.0250 C   0  0  0  0  0  0  0  0  0  0  0  0
   37.5720   26.3720   42.8010 C   0  0  0  0  0  0  0  0  0  0  0  0
   38.8890   26.3590   43.1680 N   0  0  0  0  0  0  0  0  0  0  0  0
   39.7290   25.3500   42.7880 C   0  0  0  0  0  0  0  0  0  0  0  0
   39.2980   24.3360   42.0410 N   0  0  0  0  0  0  0  0  0  0  0  0
   36.1010   25.2680   41.7030 H   0  0  0  0  0  0  0  0  0  0  0  0
   40.7590   25.4450   43.1400 H   0  0  0  0  0  0  0  0  0  0  0  0
   37.5330   23.1650   40.8310 C   0  0  0  0  0  0  0  0  0  0  0  0
   37.7900   23.4030   39.2990 C   0  0  0  0  0  0  0  0  0  0  0  0
   38.3590   22.2960   40.0750 C   0  0  0  0  0  0  0  0  0  0  0  0
   36.4520   22.9370   41.0500 H   0  0  0  0  0  0  0  0  0  0  0  0
   36.9430   23.1150   38.6220 H   0  0  0  0  0  0  0  0  0  0  0  0
   38.3660   24.2810   39.0150 H   0  0  0  0  0  0  0  0  0  0  0  0
   39.4660   22.2850   40.2090 H   0  0  0  0  0  0  0  0  0  0  0  0
   37.9950   21.2480   39.8810 H   0  0  0  0  0  0  0  0  0  0  0  0
   37.4230   28.7470   43.4320 C   0  0  0  0  0  0  0  0  0  0  0  0
   37.2300   29.1230   44.4330 H   0  0  0  0  0  0  0  0  0  0  0  0
   38.5280   28.5270   43.3900 H   0  0  0  0  0  0  0  0  0  0  0  0
   38.2130   29.8700   41.4110 C   0  0  0  0  0  0  0  0  0  0  0  0
   39.2920   29.2170   41.3440 O   0  0  0  0  0  0  0  0  0  0  0  0
   37.1930   29.7230   42.3900 N   0  0  0  0  0  0  0  0  0  0  0  0
   36.3420   30.2840   42.3500 H   0  0  0  0  0  0  0  0  0  0  0  0
   38.1250   30.8170   40.3460 N   0  0  0  0  0  0  0  0  0  0  0  0
   37.0820   31.8020   40.5980 C   0  0  0  0  0  3  0  0  0  0  0  0
   37.1680   32.1960   41.6520 H   0  0  0  0  0  0  0  0  0  0  0  0
   37.3790   33.0210   39.7220 C   0  0  0  0  0  3  0  0  0  0  0  0
   38.3420   33.4340   40.0960 H   0  0  0  0  0  0  0  0  0  0  0  0
   37.4150   32.6920   38.3310 N   0  0  0  0  0  0  0  0  0  0  0  0
   36.4390   32.7800   37.9540 H   0  0  0  0  0  0  0  0  0  0  0  0
   37.9880   31.4060   38.0230 C   0  0  0  0  0  2  0  0  0  0  0  0
   38.8850   30.9090   39.1400 C   0  0  0  0  0  2  0  0  0  0  0  0
  1 20  1  0  0  0  0
  1  2  1  0  0  0  0
  3  1  1  0  0  0  0
  4  5  2  0  0  0  0
  4  9  1  0  0  0  0
  5  6  1  0  0  0  0
  6  7  2  0  0  0  0
  6  1  1  0  0  0  0
  8 11  1  0  0  0  0
  8  7  1  0  0  0  0
  9  8  2  0  0  0  0
 10  5  1  0  0  0  0
 12 15  1  0  0  0  0
 12  4  1  0  0  0  0
 13 14  1  0  0  0  0
 13 12  1  0  0  0  0
 14 18  1  0  0  0  0
 14 12  1  0  0  0  0
 16 13  1  0  0  0  0
 17 13  1  0  0  0  0
 19 14  1  0  0  0  0
 20 21  1  0  0  0  0
 22 20  1  0  0  0  0
 23 25  1  0  0  0  0
 24 23  2  0  0  0  0
 25 20  1  0  0  0  0
 26 25  1  0  0  0  0
 27 28  1  0  0  0  0
 27 23  1  0  0  0  0
 28 29  1  0  0  0  0
 30 31  1  0  0  0  0
 30 28  1  0  0  0  0
 32 30  1  0  0  0  0
 33 32  1  0  0  0  0
 34 32  1  0  0  0  0
 34 35  1  0  0  0  0
 35 27  1  0  0  0  0
M  END
>  <minimizedAffinity>
-5.31959534

$$$$

 OpenBabel03242520203D

 35 37  0  0  0  0  0  0  0  0999 V2000
   40.8510   28.0820   42.9640 C   0  0  0  0  0  0  0  0  0  0  0  0
   41.3890   27.1090   42.9830 H   0  0  0  0  0  0  0  0  0  0  0  0
   41.1180   28.6670   43.8650 H   0  0  0  0  0  0  0  0  0  0  0  0
   37.5450   26.2750   42.6230 C   0  0  0  0  0  0  0  0  0  0  0  0
   38.9360   26.5290   42.6030 C   0  0  0  0  0  0  0  0  0  0  0  0
   39.4000   27.7830   42.9630 C   0  0  0  0  0  0  0  0  0  0  0  0
   38.4650   28.7150   43.3220 N   0  0  0  0  0  0  0  0  0  0  0  0
   37.1300   28.4270   43.3250 C   0  0  0  0  0  0  0  0  0  0  0  0
   36.6810   27.2220   42.9810 N   0  0  0  0  0  0  0  0  0  0  0  0
   39.6150   25.7530   42.3130 H   0  0  0  0  0  0  0  0  0  0  0  0
   36.4770   29.2490   43.6290 H   0  0  0  0  0  0  0  0  0  0  0  0
   37.0550   24.9320   42.2250 C   0  0  0  0  0  0  0  0  0  0  0  0
   36.9380   24.7910   40.6650 C   0  0  0  0  0  0  0  0  0  0  0  0
   37.8150   23.9740   41.5100 C   0  0  0  0  0  0  0  0  0  0  0  0
   36.0920   24.6750   42.7490 H   0  0  0  0  0  0  0  0  0  0  0  0
   36.0160   24.2670   40.3000 H   0  0  0  0  0  0  0  0  0  0  0  0
   37.3070   25.6150   40.0560 H   0  0  0  0  0  0  0  0  0  0  0  0
   38.9150   24.0940   41.3680 H   0  0  0  0  0  0  0  0  0  0  0  0
   37.5730   22.8840   41.6550 H   0  0  0  0  0  0  0  0  0  0  0  0
   41.2220   28.9160   41.7560 C   0  0  0  0  0  0  0  0  0  0  0  0
   42.2830   29.1520   41.7770 H   0  0  0  0  0  0  0  0  0  0  0  0
   41.0570   28.3070   40.8220 H   0  0  0  0  0  0  0  0  0  0  0  0
   39.9330   30.3840   40.2890 C   0  0  0  0  0  0  0  0  0  0  0  0
   40.1910   29.7330   39.2380 O   0  0  0  0  0  0  0  0  0  0  0  0
   40.3720   30.0760   41.6060 N   0  0  0  0  0  0  0  0  0  0  0  0
   40.0940   30.6520   42.4000 H   0  0  0  0  0  0  0  0  0  0  0  0
   39.1140   31.5170   39.9980 N   0  0  0  0  0  0  0  0  0  0  0  0
   39.0980   32.4580   41.1100 C   0  0  0  0  0  3  0  0  0  0  0  0
   40.1480   32.6440   41.4760 H   0  0  0  0  0  0  0  0  0  0  0  0
   38.6530   33.8140   40.5580 C   0  0  0  0  0  3  0  0  0  0  0  0
   39.4520   34.1290   39.8510 H   0  0  0  0  0  0  0  0  0  0  0  0
   37.3600   33.7530   39.9490 N   0  0  0  0  0  0  0  0  0  0  0  0
   36.6440   33.9310   40.6960 H   0  0  0  0  0  0  0  0  0  0  0  0
   37.0830   32.5370   39.2270 C   0  0  0  0  0  2  0  0  0  0  0  0
   38.3570   31.8190   38.8260 C   0  0  0  0  0  2  0  0  0  0  0  0
  1  2  1  0  0  0  0
  1  3  1  0  0  0  0
  4  9  1  0  0  0  0
  5  4  2  0  0  0  0
  5  6  1  0  0  0  0
  6  1  1  0  0  0  0
  6  7  2  0  0  0  0
  7  8  1  0  0  0  0
  8 11  1  0  0  0  0
  9  8  2  0  0  0  0
 10  5  1  0  0  0  0
 12  4  1  0  0  0  0
 12 15  1  0  0  0  0
 13 14  1  0  0  0  0
 13 12  1  0  0  0  0
 14 19  1  0  0  0  0
 14 12  1  0  0  0  0
 16 13  1  0  0  0  0
 17 13  1  0  0  0  0
 18 14  1  0  0  0  0
 20 21  1  0  0  0  0
 20  1  1  0  0  0  0
 22 20  1  0  0  0  0
 23 25  1  0  0  0  0
 24 23  2  0  0  0  0
 25 20  1  0  0  0  0
 25 26  1  0  0  0  0
 27 23  1  0  0  0  0
 27 28  1  0  0  0  0
 28 29  1  0  0  0  0
 30 28  1  0  0  0  0
 31 30  1  0  0  0  0
 32 30  1  0  0  0  0
 32 33  1  0  0  0  0
 34 32  1  0  0  0  0
 35 34  1  0  0  0  0
 35 27  1  0  0  0  0
M  END
>  <minimizedAffinity>
-5.19086123

$$$$

 OpenBabel03242520203D

 35 37  0  0  0  0  0  0  0  0999 V2000
   36.6510   27.5020   43.2390 C   0  0  0  0  0  0  0  0  0  0  0  0
   36.1330   27.2230   44.1820 H   0  0  0  0  0  0  0  0  0  0  0  0
   35.8990   27.7190   42.4560 H   0  0  0  0  0  0  0  0  0  0  0  0
   39.6020   25.1890   42.7350 C   0  0  0  0  0  0  0  0  0  0  0  0
   38.8380   26.3130   43.1260 C   0  0  0  0  0  0  0  0  0  0  0  0
   37.4840   26.3440   42.8360 C   0  0  0  0  0  0  0  0  0  0  0  0
   36.9610   25.2660   42.1760 N   0  0  0  0  0  0  0  0  0  0  0  0
   37.7380   24.2010   41.8160 C   0  0  0  0  0  0  0  0  0  0  0  0
   39.0390   24.1670   42.0940 N   0  0  0  0  0  0  0  0  0  0  0  0
   39.3100   27.1240   43.6410 H   0  0  0  0  0  0  0  0  0  0  0  0
   37.2120   23.3980   41.2930 H   0  0  0  0  0  0  0  0  0  0  0  0
   41.0540   25.1660   43.0400 C   0  0  0  0  0  0  0  0  0  0  0  0
   41.9140   25.6560   41.8200 C   0  0  0  0  0  0  0  0  0  0  0  0
   41.8780   26.3150   43.1290 C   0  0  0  0  0  0  0  0  0  0  0  0
   41.3800   24.1540   43.4110 H   0  0  0  0  0  0  0  0  0  0  0  0
   42.8430   25.0590   41.6200 H   0  0  0  0  0  0  0  0  0  0  0  0
   41.3840   26.0410   40.9510 H   0  0  0  0  0  0  0  0  0  0  0  0
   41.4420   27.3410   43.1710 H   0  0  0  0  0  0  0  0  0  0  0  0
   42.7890   26.2690   43.7910 H   0  0  0  0  0  0  0  0  0  0  0  0
   37.5060   28.7410   43.4010 C   0  0  0  0  0  0  0  0  0  0  0  0
   37.4080   29.1320   44.4110 H   0  0  0  0  0  0  0  0  0  0  0  0
   38.5910   28.4590   43.2810 H   0  0  0  0  0  0  0  0  0  0  0  0
   38.2660   29.8940   41.3860 C   0  0  0  0  0  0  0  0  0  0  0  0
   39.3540   29.2580   41.3060 O   0  0  0  0  0  0  0  0  0  0  0  0
   37.2540   29.7220   42.3700 N   0  0  0  0  0  0  0  0  0  0  0  0
   36.3950   30.2710   42.3410 H   0  0  0  0  0  0  0  0  0  0  0  0
   38.1560   30.8500   40.3310 N   0  0  0  0  0  0  0  0  0  0  0  0
   37.1000   31.8160   40.6000 C   0  0  0  0  0  3  0  0  0  0  0  0
   37.1870   32.2020   41.6560 H   0  0  0  0  0  0  0  0  0  0  0  0
   37.3720   33.0470   39.7330 C   0  0  0  0  0  3  0  0  0  0  0  0
   38.3320   33.4720   40.1050 H   0  0  0  0  0  0  0  0  0  0  0  0
   37.4040   32.7320   38.3390 N   0  0  0  0  0  0  0  0  0  0  0  0
   36.4250   32.8090   37.9690 H   0  0  0  0  0  0  0  0  0  0  0  0
   37.9950   31.4580   38.0150 C   0  0  0  0  0  2  0  0  0  0  0  0
   38.9070   30.9640   39.1210 C   0  0  0  0  0  2  0  0  0  0  0  0
  1 20  1  0  0  0  0
  1  2  1  0  0  0  0
  3  1  1  0  0  0  0
  4 12  1  0  0  0  0
  4  5  1  0  0  0  0
  5 10  1  0  0  0  0
  6  5  2  0  0  0  0
  6  1  1  0  0  0  0
  7  6  1  0  0  0  0
  8  9  1  0  0  0  0
  8  7  2  0  0  0  0
  9  4  2  0  0  0  0
 11  8  1  0  0  0  0
 12 14  1  0  0  0  0
 12 15  1  0  0  0  0
 13 12  1  0  0  0  0
 13 14  1  0  0  0  0
 14 18  1  0  0  0  0
 14 19  1  0  0  0  0
 16 13  1  0  0  0  0
 17 13  1  0  0  0  0
 20 21  1  0  0  0  0
 22 20  1  0  0  0  0
 23 25  1  0  0  0  0
 24 23  2  0  0  0  0
 25 20  1  0  0  0  0
 26 25  1  0  0  0  0
 27 28  1  0  0  0  0
 27 23  1  0  0  0  0
 28 29  1  0  0  0  0
 30 31  1  0  0  0  0
 30 28  1  0  0  0  0
 32 30  1  0  0  0  0
 33 32  1  0  0  0  0
 34 32  1  0  0  0  0
 34 35  1  0  0  0  0
 35 27  1  0  0  0  0
M  END
>  <minimizedAffinity>
-5.14363718

$$$$

 OpenBabel03242520203D

 35 37  0  0  0  0  0  0  0  0999 V2000
   40.9820   28.1840   42.9650 C   0  0  0  0  0  0  0  0  0  0  0  0
   41.4520   27.4400   42.2860 H   0  0  0  0  0  0  0  0  0  0  0  0
   41.3210   28.0010   44.0030 H   0  0  0  0  0  0  0  0  0  0  0  0
   37.5650   26.6070   42.5830 C   0  0  0  0  0  0  0  0  0  0  0  0
   38.9710   26.7460   42.6590 C   0  0  0  0  0  0  0  0  0  0  0  0
   39.5150   28.0020   42.8700 C   0  0  0  0  0  0  0  0  0  0  0  0
   38.6430   29.0490   42.9930 N   0  0  0  0  0  0  0  0  0  0  0  0
   37.2910   28.8680   42.9120 C   0  0  0  0  0  0  0  0  0  0  0  0
   36.7650   27.6630   42.7100 N   0  0  0  0  0  0  0  0  0  0  0  0
   39.5970   25.8850   42.5550 H   0  0  0  0  0  0  0  0  0  0  0  0
   36.6930   29.7760   43.0250 H   0  0  0  0  0  0  0  0  0  0  0  0
   36.9890   25.2600   42.3460 C   0  0  0  0  0  0  0  0  0  0  0  0
   36.9060   24.9220   40.8140 C   0  0  0  0  0  0  0  0  0  0  0  0
   37.6970   24.1660   41.7900 C   0  0  0  0  0  0  0  0  0  0  0  0
   35.9950   25.1420   42.8620 H   0  0  0  0  0  0  0  0  0  0  0  0
   35.9580   24.4200   40.4860 H   0  0  0  0  0  0  0  0  0  0  0  0
   37.3500   25.6300   40.1170 H   0  0  0  0  0  0  0  0  0  0  0  0
   38.8060   24.1900   41.6750 H   0  0  0  0  0  0  0  0  0  0  0  0
   37.3720   23.1240   42.0680 H   0  0  0  0  0  0  0  0  0  0  0  0
   41.3660   29.6050   42.6100 C   0  0  0  0  0  0  0  0  0  0  0  0
   41.0040   30.2910   43.3710 H   0  0  0  0  0  0  0  0  0  0  0  0
   42.4900   29.6970   42.6180 H   0  0  0  0  0  0  0  0  0  0  0  0
   41.1450   31.3210   40.8850 C   0  0  0  0  0  0  0  0  0  0  0  0
   41.6380   32.2430   41.5920 O   0  0  0  0  0  0  0  0  0  0  0  0
   40.9670   29.9630   41.2670 N   0  0  0  0  0  0  0  0  0  0  0  0
   40.5760   29.2820   40.6170 H   0  0  0  0  0  0  0  0  0  0  0  0
   40.7660   31.8130   39.5990 N   0  0  0  0  0  0  0  0  0  0  0  0
   39.8900   30.8740   38.9110 C   0  0  0  0  0  3  0  0  0  0  0  0
   39.0740   30.5240   39.6050 H   0  0  0  0  0  0  0  0  0  0  0  0
   39.1440   31.6530   37.8250 C   0  0  0  0  0  3  0  0  0  0  0  0
   38.5060   32.3880   38.3660 H   0  0  0  0  0  0  0  0  0  0  0  0
   40.0340   32.2680   36.8910 N   0  0  0  0  0  0  0  0  0  0  0  0
   40.2260   31.5760   36.1260 H   0  0  0  0  0  0  0  0  0  0  0  0
   41.2550   32.7830   37.4590 C   0  0  0  0  0  2  0  0  0  0  0  0
   41.1190   33.0340   38.9480 C   0  0  0  0  0  2  0  0  0  0  0  0
  1  3  1  0  0  0  0
  2  1  1  0  0  0  0
  4  5  2  0  0  0  0
  4  9  1  0  0  0  0
  5  6  1  0  0  0  0
  6  1  1  0  0  0  0
  6  7  2  0  0  0  0
  8  7  1  0  0  0  0
  8 11  1  0  0  0  0
  9  8  2  0  0  0  0
 10  5  1  0  0  0  0
 12  4  1  0  0  0  0
 12 15  1  0  0  0  0
 13 14  1  0  0  0  0
 13 12  1  0  0  0  0
 14 19  1  0  0  0  0
 14 12  1  0  0  0  0
 16 13  1  0  0  0  0
 17 13  1  0  0  0  0
 18 14  1  0  0  0  0
 20 22  1  0  0  0  0
 20  1  1  0  0  0  0
 20 21  1  0  0  0  0
 23 25  1  0  0  0  0
 23 24  2  0  0  0  0
 25 20  1  0  0  0  0
 26 25  1  0  0  0  0
 27 23  1  0  0  0  0
 28 27  1  0  0  0  0
 28 29  1  0  0  0  0
 30 31  1  0  0  0  0
 30 28  1  0  0  0  0
 32 34  1  0  0  0  0
 32 30  1  0  0  0  0
 33 32  1  0  0  0  0
 34 35  1  0  0  0  0
 35 27  1  0  0  0  0
M  END
>  <minimizedAffinity>
-5.13597441

$$$$

 OpenBabel03242520203D

 35 37  0  0  0  0  0  0  0  0999 V2000
   36.3920   27.4500   40.1010 C   0  0  0  0  0  0  0  0  0  0  0  0
   35.4710   27.0100   39.6580 H   0  0  0  0  0  0  0  0  0  0  0  0
   37.0470   27.8240   39.2910 H   0  0  0  0  0  0  0  0  0  0  0  0
   38.5830   25.6220   42.5840 C   0  0  0  0  0  0  0  0  0  0  0  0
   37.9520   26.6750   41.8820 C   0  0  0  0  0  0  0  0  0  0  0  0
   37.0780   26.3720   40.8520 C   0  0  0  0  0  0  0  0  0  0  0  0
   36.8750   25.0490   40.5730 N   0  0  0  0  0  0  0  0  0  0  0  0
   37.5070   24.0630   41.2770 C   0  0  0  0  0  0  0  0  0  0  0  0
   38.3470   24.3510   42.2680 N   0  0  0  0  0  0  0  0  0  0  0  0
   38.1550   27.6910   42.1520 H   0  0  0  0  0  0  0  0  0  0  0  0
   37.2690   23.0430   40.9650 H   0  0  0  0  0  0  0  0  0  0  0  0
   39.5270   25.9540   43.6800 C   0  0  0  0  0  0  0  0  0  0  0  0
   41.0240   25.8140   43.2230 C   0  0  0  0  0  0  0  0  0  0  0  0
   40.4070   27.0640   43.6790 C   0  0  0  0  0  0  0  0  0  0  0  0
   39.3080   25.3530   44.6060 H   0  0  0  0  0  0  0  0  0  0  0  0
   41.7080   25.3290   43.9670 H   0  0  0  0  0  0  0  0  0  0  0  0
   41.2120   25.5990   42.1720 H   0  0  0  0  0  0  0  0  0  0  0  0
   40.3050   27.8850   42.9300 H   0  0  0  0  0  0  0  0  0  0  0  0
   40.7190   27.4990   44.6700 H   0  0  0  0  0  0  0  0  0  0  0  0
   36.0860   28.6200   41.0110 C   0  0  0  0  0  0  0  0  0  0  0  0
   35.0280   28.6330   41.2590 H   0  0  0  0  0  0  0  0  0  0  0  0
   36.6320   28.4800   41.9880 H   0  0  0  0  0  0  0  0  0  0  0  0
   37.6760   30.4690   41.1540 C   0  0  0  0  0  0  0  0  0  0  0  0
   38.2870   30.0040   42.1560 O   0  0  0  0  0  0  0  0  0  0  0  0
   36.5740   29.8730   40.4810 N   0  0  0  0  0  0  0  0  0  0  0  0
   36.1560   30.3160   39.6630 H   0  0  0  0  0  0  0  0  0  0  0  0
   38.2360   31.7200   40.7510 N   0  0  0  0  0  0  0  0  0  0  0  0
   37.3460   32.4310   39.8430 C   0  0  0  0  0  3  0  0  0  0  0  0
   36.2940   32.4280   40.2500 H   0  0  0  0  0  0  0  0  0  0  0  0
   37.7490   33.9070   39.8670 C   0  0  0  0  0  3  0  0  0  0  0  0
   37.5400   34.2600   40.9010 H   0  0  0  0  0  0  0  0  0  0  0  0
   39.1090   34.1040   39.4730 N   0  0  0  0  0  0  0  0  0  0  0  0
   39.1290   34.2150   38.4300 H   0  0  0  0  0  0  0  0  0  0  0  0
   40.0250   33.0830   39.9150 C   0  0  0  0  0  2  0  0  0  0  0  0
   39.4830   32.3190   41.1070 C   0  0  0  0  0  2  0  0  0  0  0  0
  1  6  1  0  0  0  0
  1 20  1  0  0  0  0
  2  1  1  0  0  0  0
  3  1  1  0  0  0  0
  4 12  1  0  0  0  0
  5 10  1  0  0  0  0
  5  4  2  0  0  0  0
  6  5  1  0  0  0  0
  7  6  2  0  0  0  0
  7  8  1  0  0  0  0
  8  9  2  0  0  0  0
  9  4  1  0  0  0  0
 11  8  1  0  0  0  0
 12 15  1  0  0  0  0
 13 14  1  0  0  0  0
 13 12  1  0  0  0  0
 13 16  1  0  0  0  0
 14 12  1  0  0  0  0
 14 19  1  0  0  0  0
 17 13  1  0  0  0  0
 18 14  1  0  0  0  0
 20 21  1  0  0  0  0
 20 22  1  0  0  0  0
 23 24  2  0  0  0  0
 25 20  1  0  0  0  0
 25 23  1  0  0  0  0
 26 25  1  0  0  0  0
 27 35  1  0  0  0  0
 27 23  1  0  0  0  0
 28 30  1  0  0  0  0
 28 29  1  0  0  0  0
 28 27  1  0  0  0  0
 30 31  1  0  0  0  0
 32 30  1  0  0  0  0
 32 34  1  0  0  0  0
 33 32  1  0  0  0  0
 34 35  1  0  0  0  0
M  END
>  <minimizedAffinity>
-4.9818058

$$$$

 OpenBabel03242520203D

 35 37  0  0  0  0  0  0  0  0999 V2000
   36.8820   31.4610   39.0690 C   0  0  0  0  0  0  0  0  0  0  0  0
   35.8490   31.3940   39.4750 H   0  0  0  0  0  0  0  0  0  0  0  0
   36.8590   31.2990   37.9740 H   0  0  0  0  0  0  0  0  0  0  0  0
   38.2590   29.0620   41.6490 C   0  0  0  0  0  0  0  0  0  0  0  0
   37.4850   30.0880   41.0590 C   0  0  0  0  0  0  0  0  0  0  0  0
   37.6820   30.3990   39.7240 C   0  0  0  0  0  0  0  0  0  0  0  0
   38.6310   29.6830   39.0480 N   0  0  0  0  0  0  0  0  0  0  0  0
   39.3570   28.7010   39.6600 C   0  0  0  0  0  0  0  0  0  0  0  0
   39.1690   28.3980   40.9420 N   0  0  0  0  0  0  0  0  0  0  0  0
   36.7570   30.6100   41.6440 H   0  0  0  0  0  0  0  0  0  0  0  0
   40.0870   28.1960   39.0220 H   0  0  0  0  0  0  0  0  0  0  0  0
   38.0500   28.7400   43.0830 C   0  0  0  0  0  0  0  0  0  0  0  0
   36.9360   27.6490   43.2790 C   0  0  0  0  0  0  0  0  0  0  0  0
   38.3370   27.4880   43.6800 C   0  0  0  0  0  0  0  0  0  0  0  0
   37.8460   29.6690   43.6860 H   0  0  0  0  0  0  0  0  0  0  0  0
   36.2240   27.8390   44.1250 H   0  0  0  0  0  0  0  0  0  0  0  0
   36.5210   27.1860   42.3860 H   0  0  0  0  0  0  0  0  0  0  0  0
   38.9340   26.7120   43.1440 H   0  0  0  0  0  0  0  0  0  0  0  0
   38.5940   27.4660   44.7760 H   0  0  0  0  0  0  0  0  0  0  0  0
   37.5040   32.8200   39.3110 C   0  0  0  0  0  0  0  0  0  0  0  0
   36.8790   33.5990   38.8820 H   0  0  0  0  0  0  0  0  0  0  0  0
   37.5330   33.0210   40.4200 H   0  0  0  0  0  0  0  0  0  0  0  0
   39.7880   33.5880   39.7180 C   0  0  0  0  0  0  0  0  0  0  0  0
   39.5140   34.1530   40.8130 O   0  0  0  0  0  0  0  0  0  0  0  0
   38.8830   32.8790   38.8810 N   0  0  0  0  0  0  0  0  0  0  0  0
   39.2030   32.4360   38.0200 H   0  0  0  0  0  0  0  0  0  0  0  0
   41.1700   33.7460   39.3940 N   0  0  0  0  0  0  0  0  0  0  0  0
   41.4280   33.4190   37.9990 C   0  0  0  0  0  3  0  0  0  0  0  0
   40.6680   33.9220   37.3350 H   0  0  0  0  0  0  0  0  0  0  0  0
   42.7530   34.0770   37.6100 C   0  0  0  0  0  3  0  0  0  0  0  0
   42.5770   35.1740   37.6800 H   0  0  0  0  0  0  0  0  0  0  0  0
   43.8400   33.6320   38.4260 N   0  0  0  0  0  0  0  0  0  0  0  0
   44.2470   32.7740   37.9810 H   0  0  0  0  0  0  0  0  0  0  0  0
   43.5080   33.4050   39.8110 C   0  0  0  0  0  2  0  0  0  0  0  0
   42.2590   34.1600   40.2210 C   0  0  0  0  0  2  0  0  0  0  0  0
  1 20  1  0  0  0  0
  1  2  1  0  0  0  0
  1  6  1  0  0  0  0
  3  1  1  0  0  0  0
  4 12  1  0  0  0  0
  5 10  1  0  0  0  0
  5  4  1  0  0  0  0
  6  5  2  0  0  0  0
  7  8  2  0  0  0  0
  7  6  1  0  0  0  0
  8  9  1  0  0  0  0
  9  4  2  0  0  0  0
 11  8  1  0  0  0  0
 12 13  1  0  0  0  0
 12 14  1  0  0  0  0
 12 15  1  0  0  0  0
 13 14  1  0  0  0  0
 13 16  1  0  0  0  0
 14 19  1  0  0  0  0
 17 13  1  0  0  0  0
 18 14  1  0  0  0  0
 20 22  1  0  0  0  0
 21 20  1  0  0  0  0
 23 24  2  0  0  0  0
 25 20  1  0  0  0  0
 25 23  1  0  0  0  0
 26 25  1  0  0  0  0
 27 23  1  0  0  0  0
 27 35  1  0  0  0  0
 28 27  1  0  0  0  0
 29 28  1  0  0  0  0
 30 31  1  0  0  0  0
 30 28  1  0  0  0  0
 30 32  1  0  0  0  0
 32 34  1  0  0  0  0
 33 32  1  0  0  0  0
 34 35  1  0  0  0  0
M  END
>  <minimizedAffinity>
-4.94635677

$$$$

 OpenBabel03242520203D

 35 37  0  0  0  0  0  0  0  0999 V2000
   36.1930   30.4250   41.1290 C   0  0  0  0  0  0  0  0  0  0  0  0
   36.2930   31.3310   41.7660 H   0  0  0  0  0  0  0  0  0  0  0  0
   35.1310   30.1160   41.0920 H   0  0  0  0  0  0  0  0  0  0  0  0
   37.4080   27.0420   42.3080 C   0  0  0  0  0  0  0  0  0  0  0  0
   36.5980   28.0370   41.7120 C   0  0  0  0  0  0  0  0  0  0  0  0
   37.0120   29.3580   41.7520 C   0  0  0  0  0  0  0  0  0  0  0  0
   38.1990   29.6230   42.3770 N   0  0  0  0  0  0  0  0  0  0  0  0
   38.9490   28.6300   42.9410 C   0  0  0  0  0  0  0  0  0  0  0  0
   38.5550   27.3590   42.9030 N   0  0  0  0  0  0  0  0  0  0  0  0
   35.6800   27.7610   41.2370 H   0  0  0  0  0  0  0  0  0  0  0  0
   39.8780   28.9600   43.4130 H   0  0  0  0  0  0  0  0  0  0  0  0
   36.9540   25.6300   42.2700 C   0  0  0  0  0  0  0  0  0  0  0  0
   37.2350   24.9640   40.8750 C   0  0  0  0  0  0  0  0  0  0  0  0
   37.8120   24.5090   42.1440 C   0  0  0  0  0  0  0  0  0  0  0  0
   35.8750   25.5370   42.5760 H   0  0  0  0  0  0  0  0  0  0  0  0
   36.4070   24.3200   40.4780 H   0  0  0  0  0  0  0  0  0  0  0  0
   37.7990   25.5420   40.1450 H   0  0  0  0  0  0  0  0  0  0  0  0
   38.9170   24.6060   42.2650 H   0  0  0  0  0  0  0  0  0  0  0  0
   37.4730   23.5260   42.5780 H   0  0  0  0  0  0  0  0  0  0  0  0
   36.6410   30.6750   39.7050 C   0  0  0  0  0  0  0  0  0  0  0  0
   36.3590   29.8380   39.0720 H   0  0  0  0  0  0  0  0  0  0  0  0
   36.0920   31.5720   39.2970 H   0  0  0  0  0  0  0  0  0  0  0  0
   38.3690   32.4020   39.7000 C   0  0  0  0  0  0  0  0  0  0  0  0
   37.5610   33.3590   39.8600 O   0  0  0  0  0  0  0  0  0  0  0  0
   38.0430   31.0210   39.6210 N   0  0  0  0  0  0  0  0  0  0  0  0
   38.7700   30.3150   39.5100 H   0  0  0  0  0  0  0  0  0  0  0  0
   39.7110   32.8810   39.6010 N   0  0  0  0  0  0  0  0  0  0  0  0
   40.6010   31.8560   39.0730 C   0  0  0  0  0  3  0  0  0  0  0  0
   40.1420   31.3750   38.1620 H   0  0  0  0  0  0  0  0  0  0  0  0
   41.8460   32.5620   38.5320 C   0  0  0  0  0  3  0  0  0  0  0  0
   41.4920   33.1850   37.6790 H   0  0  0  0  0  0  0  0  0  0  0  0
   42.5180   33.3230   39.5380 N   0  0  0  0  0  0  0  0  0  0  0  0
   43.2050   32.6890   40.0160 H   0  0  0  0  0  0  0  0  0  0  0  0
   41.6530   33.9790   40.4860 C   0  0  0  0  0  2  0  0  0  0  0  0
   40.2510   34.1600   39.9360 C   0  0  0  0  0  2  0  0  0  0  0  0
  1  6  1  0  0  0  0
  1  2  1  0  0  0  0
  3  1  1  0  0  0  0
  4  9  1  0  0  0  0
  5  6  1  0  0  0  0
  5  4  2  0  0  0  0
  6  7  2  0  0  0  0
  7  8  1  0  0  0  0
  8 11  1  0  0  0  0
  9  8  2  0  0  0  0
 10  5  1  0  0  0  0
 12  4  1  0  0  0  0
 12 15  1  0  0  0  0
 13 14  1  0  0  0  0
 13 12  1  0  0  0  0
 14 18  1  0  0  0  0
 14 12  1  0  0  0  0
 14 19  1  0  0  0  0
 16 13  1  0  0  0  0
 17 13  1  0  0  0  0
 20  1  1  0  0  0  0
 21 20  1  0  0  0  0
 22 20  1  0  0  0  0
 23 24  2  0  0  0  0
 25 23  1  0  0  0  0
 25 20  1  0  0  0  0
 26 25  1  0  0  0  0
 27 23  1  0  0  0  0
 27 35  1  0  0  0  0
 28 27  1  0  0  0  0
 29 28  1  0  0  0  0
 30 28  1  0  0  0  0
 30 32  1  0  0  0  0
 31 30  1  0  0  0  0
 32 33  1  0  0  0  0
 32 34  1  0  0  0  0
 35 34  1  0  0  0  0
M  END
>  <minimizedAffinity>
-4.9006424

$$$$

 OpenBabel03242520203D

 35 37  0  0  0  0  0  0  0  0999 V2000
   36.7640   26.5890   38.4630 C   0  0  0  0  0  0  0  0  0  0  0  0
   36.5820   25.7520   37.7540 H   0  0  0  0  0  0  0  0  0  0  0  0
   37.7090   27.0990   38.1970 H   0  0  0  0  0  0  0  0  0  0  0  0
   37.3090   26.1930   42.1860 C   0  0  0  0  0  0  0  0  0  0  0  0
   37.2290   26.7840   40.9030 C   0  0  0  0  0  0  0  0  0  0  0  0
   36.8680   26.0010   39.8200 C   0  0  0  0  0  0  0  0  0  0  0  0
   36.6070   24.6800   40.0620 N   0  0  0  0  0  0  0  0  0  0  0  0
   36.6990   24.1510   41.3190 C   0  0  0  0  0  0  0  0  0  0  0  0
   37.0440   24.9010   42.3620 N   0  0  0  0  0  0  0  0  0  0  0  0
   37.4450   27.8260   40.7830 H   0  0  0  0  0  0  0  0  0  0  0  0
   36.4680   23.0850   41.3920 H   0  0  0  0  0  0  0  0  0  0  0  0
   37.7070   27.0360   43.3410 C   0  0  0  0  0  0  0  0  0  0  0  0
   39.2330   26.8820   43.6770 C   0  0  0  0  0  0  0  0  0  0  0  0
   38.5950   28.1380   43.2690 C   0  0  0  0  0  0  0  0  0  0  0  0
   37.0520   26.8410   44.2360 H   0  0  0  0  0  0  0  0  0  0  0  0
   39.4780   26.8130   44.7700 H   0  0  0  0  0  0  0  0  0  0  0  0
   39.8410   26.2830   43.0020 H   0  0  0  0  0  0  0  0  0  0  0  0
   38.9050   28.5710   42.2880 H   0  0  0  0  0  0  0  0  0  0  0  0
   38.4820   28.9650   44.0250 H   0  0  0  0  0  0  0  0  0  0  0  0
   35.6620   27.6270   38.4170 C   0  0  0  0  0  0  0  0  0  0  0  0
   35.3510   27.7940   37.3890 H   0  0  0  0  0  0  0  0  0  0  0  0
   34.7560   27.2270   38.9550 H   0  0  0  0  0  0  0  0  0  0  0  0
   36.6520   29.8600   38.3650 C   0  0  0  0  0  0  0  0  0  0  0  0
   36.9160   29.8280   37.1310 O   0  0  0  0  0  0  0  0  0  0  0  0
   36.0170   28.8380   39.1230 N   0  0  0  0  0  0  0  0  0  0  0  0
   35.8260   28.9630   40.1160 H   0  0  0  0  0  0  0  0  0  0  0  0
   37.0800   31.0930   38.9450 N   0  0  0  0  0  0  0  0  0  0  0  0
   37.1080   31.0110   40.3990 C   0  0  0  0  0  3  0  0  0  0  0  0
   37.6260   30.0640   40.7250 H   0  0  0  0  0  0  0  0  0  0  0  0
   38.0240   32.1280   40.9040 C   0  0  0  0  0  3  0  0  0  0  0  0
   39.0400   31.8790   40.5250 H   0  0  0  0  0  0  0  0  0  0  0  0
   37.5770   33.4230   40.4950 N   0  0  0  0  0  0  0  0  0  0  0  0
   36.9070   33.7770   41.2210 H   0  0  0  0  0  0  0  0  0  0  0  0
   37.0050   33.4800   39.1730 C   0  0  0  0  0  2  0  0  0  0  0  0
   37.4580   32.3160   38.3140 C   0  0  0  0  0  2  0  0  0  0  0  0
  1  6  1  0  0  0  0
  2  1  1  0  0  0  0
  3  1  1  0  0  0  0
  4  9  1  0  0  0  0
  4 12  1  0  0  0  0
  5  4  2  0  0  0  0
  6  7  2  0  0  0  0
  6  5  1  0  0  0  0
  7  8  1  0  0  0  0
  8 11  1  0  0  0  0
  8  9  2  0  0  0  0
 10  5  1  0  0  0  0
 12 13  1  0  0  0  0
 12 15  1  0  0  0  0
 13 16  1  0  0  0  0
 14 12  1  0  0  0  0
 14 13  1  0  0  0  0
 14 19  1  0  0  0  0
 17 13  1  0  0  0  0
 18 14  1  0  0  0  0
 20  1  1  0  0  0  0
 20 22  1  0  0  0  0
 20 25  1  0  0  0  0
 21 20  1  0  0  0  0
 23 27  1  0  0  0  0
 23 25  1  0  0  0  0
 24 23  2  0  0  0  0
 25 26  1  0  0  0  0
 27 28  1  0  0  0  0
 28 29  1  0  0  0  0
 28 30  1  0  0  0  0
 31 30  1  0  0  0  0
 32 30  1  0  0  0  0
 32 33  1  0  0  0  0
 34 32  1  0  0  0  0
 35 27  1  0  0  0  0
 35 34  1  0  0  0  0
M  END
>  <minimizedAffinity>
-4.85496998

$$$$

 OpenBabel03242520203D

 35 37  0  0  0  0  0  0  0  0999 V2000
   36.2390   30.8160   41.1200 C   0  0  0  0  0  0  0  0  0  0  0  0
   36.0740   31.5750   41.9150 H   0  0  0  0  0  0  0  0  0  0  0  0
   35.2630   30.4110   40.7890 H   0  0  0  0  0  0  0  0  0  0  0  0
   37.4160   27.4220   42.3060 C   0  0  0  0  0  0  0  0  0  0  0  0
   36.5980   28.4310   41.7470 C   0  0  0  0  0  0  0  0  0  0  0  0
   37.0650   29.7340   41.7070 C   0  0  0  0  0  0  0  0  0  0  0  0
   38.3110   29.9690   42.2210 N   0  0  0  0  0  0  0  0  0  0  0  0
   39.0670   28.9620   42.7520 C   0  0  0  0  0  0  0  0  0  0  0  0
   38.6220   27.7090   42.7910 N   0  0  0  0  0  0  0  0  0  0  0  0
   35.6320   28.1800   41.3610 H   0  0  0  0  0  0  0  0  0  0  0  0
   40.0450   29.2670   43.1330 H   0  0  0  0  0  0  0  0  0  0  0  0
   36.9060   26.0300   42.3550 C   0  0  0  0  0  0  0  0  0  0  0  0
   37.0720   25.2990   40.9740 C   0  0  0  0  0  0  0  0  0  0  0  0
   37.7090   24.8700   42.2240 C   0  0  0  0  0  0  0  0  0  0  0  0
   35.8450   25.9950   42.7300 H   0  0  0  0  0  0  0  0  0  0  0  0
   36.1960   24.6750   40.6560 H   0  0  0  0  0  0  0  0  0  0  0  0
   37.6110   25.8230   40.1880 H   0  0  0  0  0  0  0  0  0  0  0  0
   38.8220   24.9260   42.2730 H   0  0  0  0  0  0  0  0  0  0  0  0
   37.3600   23.9200   42.7180 H   0  0  0  0  0  0  0  0  0  0  0  0
   36.9210   31.4030   39.9020 C   0  0  0  0  0  0  0  0  0  0  0  0
   36.6980   32.4640   39.8260 H   0  0  0  0  0  0  0  0  0  0  0  0
   38.0380   31.3280   40.0330 H   0  0  0  0  0  0  0  0  0  0  0  0
   37.6790   29.8570   38.1700 C   0  0  0  0  0  0  0  0  0  0  0  0
   38.8330   29.7070   38.6610 O   0  0  0  0  0  0  0  0  0  0  0  0
   36.6310   30.6600   38.6970 N   0  0  0  0  0  0  0  0  0  0  0  0
   35.7210   30.7020   38.2380 H   0  0  0  0  0  0  0  0  0  0  0  0
   37.5350   29.0960   36.9700 N   0  0  0  0  0  0  0  0  0  0  0  0
   36.3650   29.5200   36.2120 C   0  0  0  0  0  3  0  0  0  0  0  0
   36.3420   30.6440   36.1320 H   0  0  0  0  0  0  0  0  0  0  0  0
   36.5580   29.0500   34.7690 C   0  0  0  0  0  3  0  0  0  0  0  0
   37.4400   29.6090   34.3840 H   0  0  0  0  0  0  0  0  0  0  0  0
   36.7130   27.6310   34.6770 N   0  0  0  0  0  0  0  0  0  0  0  0
   35.7570   27.2080   34.5840 H   0  0  0  0  0  0  0  0  0  0  0  0
   37.4590   27.0290   35.7530 C   0  0  0  0  0  2  0  0  0  0  0  0
   38.3450   28.0380   36.4570 C   0  0  0  0  0  2  0  0  0  0  0  0
  1  6  1  0  0  0  0
  1  2  1  0  0  0  0
  3  1  1  0  0  0  0
  4 12  1  0  0  0  0
  4  9  1  0  0  0  0
  5  4  2  0  0  0  0
  6  5  1  0  0  0  0
  6  7  2  0  0  0  0
  7  8  1  0  0  0  0
  8  9  2  0  0  0  0
  8 11  1  0  0  0  0
 10  5  1  0  0  0  0
 12 15  1  0  0  0  0
 13 14  1  0  0  0  0
 13 12  1  0  0  0  0
 14 18  1  0  0  0  0
 14 12  1  0  0  0  0
 14 19  1  0  0  0  0
 16 13  1  0  0  0  0
 17 13  1  0  0  0  0
 20 22  1  0  0  0  0
 20  1  1  0  0  0  0
 21 20  1  0  0  0  0
 23 24  2  0  0  0  0
 23 25  1  0  0  0  0
 25 20  1  0  0  0  0
 26 25  1  0  0  0  0
 27 23  1  0  0  0  0
 28 27  1  0  0  0  0
 29 28  1  0  0  0  0
 30 28  1  0  0  0  0
 31 30  1  0  0  0  0
 32 30  1  0  0  0  0
 32 34  1  0  0  0  0
 33 32  1  0  0  0  0
 34 35  1  0  0  0  0
 35 27  1  0  0  0  0
M  END
>  <minimizedAffinity>
-4.81591463

$$$$
