
 OpenBabel03242510243D

 38 41  0  0  1  0  0  0  0  0999 V2000
   39.1870   27.0850   42.6290 N   0  0  0  0  0  0  0  0  0  0  0  0
   38.2060   28.0050   42.9770 C   0  0  0  0  0  0  0  0  0  0  0  0
   37.1660   27.8710   43.6780 O   0  0  0  0  0  0  0  0  0  0  0  0
   39.4630   27.1850   41.6130 H   0  0  0  0  0  0  0  0  0  0  0  0
   39.5910   24.7130   43.1860 C   0  0  1  0  0  0  0  0  0  0  0  0
   40.8510   25.2650   42.9250 C   0  0  0  0  0  0  0  0  0  0  0  0
   39.7240   26.1440   43.5480 C   0  0  1  0  0  0  0  0  0  0  0  0
   39.3830   24.0200   44.0190 H   0  0  0  0  0  0  0  0  0  0  0  0
   41.6960   25.0090   43.6350 H   0  0  0  0  0  0  0  0  0  0  0  0
   41.2830   25.6320   41.9740 H   0  0  0  0  0  0  0  0  0  0  0  0
   40.0260   26.5240   44.5390 H   0  0  0  0  0  0  0  0  0  0  0  0
   39.1800   24.2120   40.6640 C   0  0  0  0  0  0  0  0  0  0  0  0
   38.6750   24.4110   41.9930 C   0  0  0  0  0  0  0  0  0  0  0  0
   37.3110   24.3440   42.1690 C   0  0  0  0  0  0  0  0  0  0  0  0
   36.5200   24.0970   41.1020 N   0  0  0  0  0  0  0  0  0  0  0  0
   37.0110   23.9120   39.8500 C   0  0  0  0  0  0  0  0  0  0  0  0
   38.3920   23.9740   39.6340 N   0  0  0  0  0  0  0  0  0  0  0  0
   40.2440   24.2470   40.5490 H   0  0  0  0  0  0  0  0  0  0  0  0
   36.8550   24.4820   43.1370 H   0  0  0  0  0  0  0  0  0  0  0  0
   36.3750   23.7150   38.9950 H   0  0  0  0  0  0  0  0  0  0  0  0
   38.3160   29.4350   42.4840 C   0  0  2  0  0  0  0  0  0  0  0  0
   37.2000   29.9010   41.4740 C   0  0  0  0  0  0  0  0  0  0  0  0
   38.6290   29.7370   41.0850 C   0  0  1  0  0  0  0  0  0  0  0  0
   38.4730   30.2280   43.2430 H   0  0  0  0  0  0  0  0  0  0  0  0
   36.7460   30.8710   41.6310 H   0  0  0  0  0  0  0  0  0  0  0  0
   36.5170   29.0520   41.1760 H   0  0  0  0  0  0  0  0  0  0  0  0
   38.9860   28.8860   40.4590 H   0  0  0  0  0  0  0  0  0  0  0  0
   39.4270   30.9880   40.8020 C   0  0  0  0  0  0  0  0  0  0  0  0
   39.6020   31.8220   41.6770 O   0  0  0  0  0  0  0  0  0  0  0  0
   40.0020   31.2460   39.5230 N   0  0  0  0  0  0  0  0  0  0  0  0
   39.2960   30.6940   38.3870 C   0  0  0  0  0  3  0  0  0  0  0  0
   40.0380   30.0070   37.8850 H   0  0  0  0  0  0  0  0  0  0  0  0
   38.9640   31.7530   37.3600 C   0  0  0  0  0  3  0  0  0  0  0  0
   38.1480   32.4100   37.6570 H   0  0  0  0  0  0  0  0  0  0  0  0
   40.1780   32.3910   36.9520 N   0  0  0  0  0  0  0  0  0  0  0  0
   40.7190   31.7250   36.3510 H   0  0  0  0  0  0  0  0  0  0  0  0
   40.9520   32.9390   38.0250 C   0  0  0  0  0  2  0  0  0  0  0  0
   41.1800   31.9730   39.1690 C   0  0  0  0  0  2  0  0  0  0  0  0
  1  2  1  0  0  0  0
  1  7  1  0  0  0  0
  2  3  2  0  0  0  0
  4  1  1  0  0  0  0
  5  7  1  0  0  0  0
  5  8  1  1  0  0  0
  6  5  1  0  0  0  0
  6  7  1  0  0  0  0
  6  9  1  0  0  0  0
  7 11  1  1  0  0  0
 10  6  1  0  0  0  0
 12 13  1  0  0  0  0
 13 14  2  0  0  0  0
 13  5  1  0  0  0  0
 14 19  1  0  0  0  0
 15 14  1  0  0  0  0
 16 15  2  0  0  0  0
 17 16  1  0  0  0  0
 17 12  2  0  0  0  0
 18 12  1  0  0  0  0
 20 16  1  0  0  0  0
 21  2  1  0  0  0  0
 21 24  1  1  0  0  0
 22 25  1  0  0  0  0
 22 21  1  0  0  0  0
 23 27  1  6  0  0  0
 23 22  1  0  0  0  0
 23 21  1  0  0  0  0
 26 22  1  0  0  0  0
 28 23  1  0  0  0  0
 28 29  2  0  0  0  0
 30 28  1  0  0  0  0
 31 30  1  0  0  0  0
 32 31  1  0  0  0  0
 33 34  1  0  0  0  0
 33 31  1  0  0  0  0
 35 33  1  0  0  0  0
 35 37  1  0  0  0  0
 36 35  1  0  0  0  0
 37 38  1  0  0  0  0
 38 30  1  0  0  0  0
M  END
>  <minimizedAffinity>
-5.6078825

$$$$

 OpenBabel03242510243D

 38 41  0  0  1  0  0  0  0  0999 V2000
   36.7730   28.3680   41.2500 N   0  0  0  0  0  0  0  0  0  0  0  0
   35.9170   29.0840   40.4230 C   0  0  0  0  0  0  0  0  0  0  0  0
   34.6590   29.0680   40.3310 O   0  0  0  0  0  0  0  0  0  0  0  0
   37.6200   28.0250   40.7200 H   0  0  0  0  0  0  0  0  0  0  0  0
   37.1080   26.9340   43.2320 C   0  0  1  0  0  0  0  0  0  0  0  0
   37.8000   28.1220   43.4970 C   0  0  0  0  0  0  0  0  0  0  0  0
   36.5060   28.1450   42.6280 C   0  0  1  0  0  0  0  0  0  0  0  0
   36.4880   26.4030   43.9750 H   0  0  0  0  0  0  0  0  0  0  0  0
   37.6850   28.5800   44.5280 H   0  0  0  0  0  0  0  0  0  0  0  0
   38.7110   28.5340   43.0240 H   0  0  0  0  0  0  0  0  0  0  0  0
   35.7290   28.7720   43.0990 H   0  0  0  0  0  0  0  0  0  0  0  0
   36.9910   24.8600   41.6610 C   0  0  0  0  0  0  0  0  0  0  0  0
   37.7350   25.9400   42.2450 C   0  0  0  0  0  0  0  0  0  0  0  0
   39.0650   26.0490   41.9050 C   0  0  0  0  0  0  0  0  0  0  0  0
   39.6030   25.1520   41.0510 N   0  0  0  0  0  0  0  0  0  0  0  0
   38.8870   24.1350   40.5060 C   0  0  0  0  0  0  0  0  0  0  0  0
   37.5340   23.9920   40.8290 N   0  0  0  0  0  0  0  0  0  0  0  0
   35.9530   24.8020   41.9200 H   0  0  0  0  0  0  0  0  0  0  0  0
   39.6900   26.8340   42.3020 H   0  0  0  0  0  0  0  0  0  0  0  0
   39.3210   23.4160   39.8220 H   0  0  0  0  0  0  0  0  0  0  0  0
   36.4950   30.0770   39.4320 C   0  0  2  0  0  0  0  0  0  0  0  0
   36.9450   29.4800   38.0450 C   0  0  0  0  0  0  0  0  0  0  0  0
   37.9060   30.0300   39.0420 C   0  0  1  0  0  0  0  0  0  0  0  0
   35.9290   31.0150   39.2580 H   0  0  0  0  0  0  0  0  0  0  0  0
   36.6650   30.0160   37.1460 H   0  0  0  0  0  0  0  0  0  0  0  0
   36.8640   28.3540   38.0220 H   0  0  0  0  0  0  0  0  0  0  0  0
   38.5720   29.3800   39.6540 H   0  0  0  0  0  0  0  0  0  0  0  0
   38.5830   31.3410   38.7130 C   0  0  0  0  0  0  0  0  0  0  0  0
   38.6600   31.7260   37.5570 O   0  0  0  0  0  0  0  0  0  0  0  0
   39.1530   32.1710   39.7230 N   0  0  0  0  0  0  0  0  0  0  0  0
   39.6610   31.4890   40.8940 C   0  0  0  0  0  3  0  0  0  0  0  0
   39.0740   31.9130   41.7600 H   0  0  0  0  0  0  0  0  0  0  0  0
   41.1050   31.8430   41.1700 C   0  0  0  0  0  3  0  0  0  0  0  0
   41.8090   31.3750   40.4860 H   0  0  0  0  0  0  0  0  0  0  0  0
   41.2080   33.2630   41.3160 N   0  0  0  0  0  0  0  0  0  0  0  0
   40.7790   33.5360   42.2320 H   0  0  0  0  0  0  0  0  0  0  0  0
   40.6970   34.0130   40.2080 C   0  0  0  0  0  2  0  0  0  0  0  0
   39.3090   33.5910   39.7720 C   0  0  0  0  0  2  0  0  0  0  0  0
  1  7  1  0  0  0  0
  2  1  1  0  0  0  0
  3  2  2  0  0  0  0
  4  1  1  0  0  0  0
  5  6  1  0  0  0  0
  5  8  1  1  0  0  0
  6  9  1  0  0  0  0
  7 11  1  1  0  0  0
  7  5  1  0  0  0  0
  7  6  1  0  0  0  0
 10  6  1  0  0  0  0
 12 18  1  0  0  0  0
 12 13  1  0  0  0  0
 13  5  1  0  0  0  0
 14 13  2  0  0  0  0
 14 19  1  0  0  0  0
 15 14  1  0  0  0  0
 16 17  1  0  0  0  0
 16 15  2  0  0  0  0
 17 12  2  0  0  0  0
 20 16  1  0  0  0  0
 21 24  1  6  0  0  0
 21  2  1  0  0  0  0
 22 23  1  0  0  0  0
 22 21  1  0  0  0  0
 23 21  1  0  0  0  0
 23 27  1  1  0  0  0
 25 22  1  0  0  0  0
 26 22  1  0  0  0  0
 28 23  1  0  0  0  0
 28 30  1  0  0  0  0
 29 28  2  0  0  0  0
 30 38  1  0  0  0  0
 30 31  1  0  0  0  0
 31 33  1  0  0  0  0
 31 32  1  0  0  0  0
 33 35  1  0  0  0  0
 34 33  1  0  0  0  0
 35 36  1  0  0  0  0
 37 35  1  0  0  0  0
 38 37  1  0  0  0  0
M  END
>  <minimizedAffinity>
-5.2915206

$$$$

 OpenBabel03242510243D

 38 41  0  0  1  0  0  0  0  0999 V2000
   37.7780   28.9860   41.9940 N   0  0  0  0  0  0  0  0  0  0  0  0
   38.0360   29.6350   40.7940 C   0  0  0  0  0  0  0  0  0  0  0  0
   38.0310   29.2040   39.6080 O   0  0  0  0  0  0  0  0  0  0  0  0
   38.4690   29.2710   42.7410 H   0  0  0  0  0  0  0  0  0  0  0  0
   37.0790   26.6990   42.6110 C   0  0  1  0  0  0  0  0  0  0  0  0
   36.5850   27.5360   43.6190 C   0  0  0  0  0  0  0  0  0  0  0  0
   36.7120   28.0610   42.1560 C   0  0  1  0  0  0  0  0  0  0  0  0
   36.5050   25.8680   42.1640 H   0  0  0  0  0  0  0  0  0  0  0  0
   35.5200   27.3670   43.9690 H   0  0  0  0  0  0  0  0  0  0  0  0
   37.1260   28.1140   44.3920 H   0  0  0  0  0  0  0  0  0  0  0  0
   35.7250   28.3540   41.7580 H   0  0  0  0  0  0  0  0  0  0  0  0
   39.4540   26.7830   43.6750 C   0  0  0  0  0  0  0  0  0  0  0  0
   38.5790   26.3790   42.6100 C   0  0  0  0  0  0  0  0  0  0  0  0
   39.1410   25.7010   41.5520 C   0  0  0  0  0  0  0  0  0  0  0  0
   40.4680   25.4470   41.5610 N   0  0  0  0  0  0  0  0  0  0  0  0
   41.2840   25.8360   42.5740 C   0  0  0  0  0  0  0  0  0  0  0  0
   40.7480   26.5280   43.6650 N   0  0  0  0  0  0  0  0  0  0  0  0
   38.9970   27.2910   44.4990 H   0  0  0  0  0  0  0  0  0  0  0  0
   38.5490   25.3640   40.7150 H   0  0  0  0  0  0  0  0  0  0  0  0
   42.3480   25.6320   42.5790 H   0  0  0  0  0  0  0  0  0  0  0  0
   38.3910   31.1100   40.8050 C   0  0  2  0  0  0  0  0  0  0  0  0
   37.2620   32.0920   40.3090 C   0  0  0  0  0  0  0  0  0  0  0  0
   38.5300   31.8700   39.5600 C   0  0  1  0  0  0  0  0  0  0  0  0
   38.8490   31.5200   41.7290 H   0  0  0  0  0  0  0  0  0  0  0  0
   37.0750   32.9870   40.8900 H   0  0  0  0  0  0  0  0  0  0  0  0
   36.3620   31.5360   39.9120 H   0  0  0  0  0  0  0  0  0  0  0  0
   38.5740   31.2780   38.6170 H   0  0  0  0  0  0  0  0  0  0  0  0
   39.5380   32.9960   39.5390 C   0  0  0  0  0  0  0  0  0  0  0  0
   39.2220   34.1180   39.9040 O   0  0  0  0  0  0  0  0  0  0  0  0
   40.8800   32.8010   39.1010 N   0  0  0  0  0  0  0  0  0  0  0  0
   41.0790   31.7760   38.0990 C   0  0  0  0  0  3  0  0  0  0  0  0
   41.7900   31.0370   38.5700 H   0  0  0  0  0  0  0  0  0  0  0  0
   41.7980   32.3100   36.8800 C   0  0  0  0  0  3  0  0  0  0  0  0
   41.1740   32.9340   36.2420 H   0  0  0  0  0  0  0  0  0  0  0  0
   43.0460   32.8720   37.2950 N   0  0  0  0  0  0  0  0  0  0  0  0
   43.6940   32.0910   37.5550 H   0  0  0  0  0  0  0  0  0  0  0  0
   42.9380   33.8770   38.3100 C   0  0  0  0  0  2  0  0  0  0  0  0
   42.0860   33.4620   39.4920 C   0  0  0  0  0  2  0  0  0  0  0  0
  1  7  1  0  0  0  0
  1  4  1  0  0  0  0
  2 21  1  0  0  0  0
  2  1  1  0  0  0  0
  3  2  2  0  0  0  0
  5  8  1  6  0  0  0
  5  6  1  0  0  0  0
  6  9  1  0  0  0  0
  6 10  1  0  0  0  0
  7 11  1  6  0  0  0
  7  5  1  0  0  0  0
  7  6  1  0  0  0  0
 12 18  1  0  0  0  0
 13  5  1  0  0  0  0
 13 12  2  0  0  0  0
 14 15  2  0  0  0  0
 14 13  1  0  0  0  0
 15 16  1  0  0  0  0
 16 20  1  0  0  0  0
 16 17  2  0  0  0  0
 17 12  1  0  0  0  0
 19 14  1  0  0  0  0
 21 24  1  1  0  0  0
 22 21  1  0  0  0  0
 22 25  1  0  0  0  0
 23 27  1  6  0  0  0
 23 22  1  0  0  0  0
 23 21  1  0  0  0  0
 26 22  1  0  0  0  0
 28 23  1  0  0  0  0
 28 29  2  0  0  0  0
 30 38  1  0  0  0  0
 30 28  1  0  0  0  0
 31 32  1  0  0  0  0
 31 30  1  0  0  0  0
 33 35  1  0  0  0  0
 33 31  1  0  0  0  0
 34 33  1  0  0  0  0
 35 36  1  0  0  0  0
 35 37  1  0  0  0  0
 37 38  1  0  0  0  0
M  END
>  <minimizedAffinity>
-5.28763294

$$$$

 OpenBabel03242510243D

 38 41  0  0  1  0  0  0  0  0999 V2000
   37.5310   29.8970   39.7360 N   0  0  0  0  0  0  0  0  0  0  0  0
   36.8890   29.9210   40.9680 C   0  0  0  0  0  0  0  0  0  0  0  0
   36.0860   30.7600   41.4600 O   0  0  0  0  0  0  0  0  0  0  0  0
   38.5400   29.5980   39.8350 H   0  0  0  0  0  0  0  0  0  0  0  0
   37.3090   31.5020   37.8720 C   0  0  1  0  0  0  0  0  0  0  0  0
   37.8650   30.3430   37.3160 C   0  0  0  0  0  0  0  0  0  0  0  0
   36.8800   30.2400   38.5200 C   0  0  1  0  0  0  0  0  0  0  0  0
   36.5120   32.0940   37.3910 H   0  0  0  0  0  0  0  0  0  0  0  0
   37.4440   29.9770   36.3290 H   0  0  0  0  0  0  0  0  0  0  0  0
   38.8640   29.8920   37.4650 H   0  0  0  0  0  0  0  0  0  0  0  0
   35.9850   29.6570   38.2460 H   0  0  0  0  0  0  0  0  0  0  0  0
   37.7030   33.3680   39.6450 C   0  0  0  0  0  0  0  0  0  0  0  0
   38.2200   32.4060   38.7130 C   0  0  0  0  0  0  0  0  0  0  0  0
   39.5880   32.3300   38.5750 C   0  0  0  0  0  0  0  0  0  0  0  0
   40.3710   33.1490   39.3090 N   0  0  0  0  0  0  0  0  0  0  0  0
   39.8690   34.0550   40.1860 C   0  0  0  0  0  0  0  0  0  0  0  0
   38.4840   34.1610   40.3520 N   0  0  0  0  0  0  0  0  0  0  0  0
   36.6380   33.4000   39.7550 H   0  0  0  0  0  0  0  0  0  0  0  0
   40.0520   31.6310   37.8960 H   0  0  0  0  0  0  0  0  0  0  0  0
   40.4990   34.7120   40.7740 H   0  0  0  0  0  0  0  0  0  0  0  0
   37.1260   28.7930   41.9540 C   0  0  2  0  0  0  0  0  0  0  0  0
   38.1670   29.0890   43.0990 C   0  0  0  0  0  0  0  0  0  0  0  0
   38.4130   28.0940   42.0180 C   0  0  1  0  0  0  0  0  0  0  0  0
   36.2350   28.2990   42.3920 H   0  0  0  0  0  0  0  0  0  0  0  0
   37.9070   28.8000   44.1100 H   0  0  0  0  0  0  0  0  0  0  0  0
   38.6760   30.0880   42.9610 H   0  0  0  0  0  0  0  0  0  0  0  0
   39.1240   28.2820   41.1810 H   0  0  0  0  0  0  0  0  0  0  0  0
   38.3940   26.6310   42.3940 C   0  0  0  0  0  0  0  0  0  0  0  0
   38.8500   26.2600   43.4650 O   0  0  0  0  0  0  0  0  0  0  0  0
   37.8530   25.6350   41.5300 N   0  0  0  0  0  0  0  0  0  0  0  0
   37.9450   25.9070   40.1110 C   0  0  0  0  0  3  0  0  0  0  0  0
   36.8780   25.9110   39.7420 H   0  0  0  0  0  0  0  0  0  0  0  0
   38.6280   24.7830   39.3640 C   0  0  0  0  0  3  0  0  0  0  0  0
   39.7050   24.7480   39.5150 H   0  0  0  0  0  0  0  0  0  0  0  0
   37.9120   23.5690   39.6100 N   0  0  0  0  0  0  0  0  0  0  0  0
   37.0040   23.6050   39.0870 H   0  0  0  0  0  0  0  0  0  0  0  0
   37.7510   23.2430   40.9960 C   0  0  0  0  0  2  0  0  0  0  0  0
   37.2240   24.3890   41.8350 C   0  0  0  0  0  2  0  0  0  0  0  0
  1  4  1  0  0  0  0
  1  2  1  0  0  0  0
  2  3  2  0  0  0  0
  2 21  1  0  0  0  0
  5  8  1  6  0  0  0
  5  7  1  0  0  0  0
  5 13  1  0  0  0  0
  6 10  1  0  0  0  0
  6  5  1  0  0  0  0
  6  7  1  0  0  0  0
  7 11  1  6  0  0  0
  7  1  1  0  0  0  0
  9  6  1  0  0  0  0
 12 18  1  0  0  0  0
 12 17  1  0  0  0  0
 13 12  2  0  0  0  0
 14 13  1  0  0  0  0
 14 15  2  0  0  0  0
 15 16  1  0  0  0  0
 16 17  2  0  0  0  0
 16 20  1  0  0  0  0
 19 14  1  0  0  0  0
 21 23  1  0  0  0  0
 21 24  1  1  0  0  0
 21 22  1  0  0  0  0
 22 25  1  0  0  0  0
 23 27  1  6  0  0  0
 23 28  1  0  0  0  0
 23 22  1  0  0  0  0
 26 22  1  0  0  0  0
 28 29  2  0  0  0  0
 30 38  1  0  0  0  0
 30 28  1  0  0  0  0
 31 30  1  0  0  0  0
 32 31  1  0  0  0  0
 33 34  1  0  0  0  0
 33 35  1  0  0  0  0
 33 31  1  0  0  0  0
 35 37  1  0  0  0  0
 36 35  1  0  0  0  0
 37 38  1  0  0  0  0
M  END
>  <minimizedAffinity>
-5.28082705

$$$$

 OpenBabel03242510243D

 38 41  0  0  1  0  0  0  0  0999 V2000
   36.8490   28.4520   41.2450 N   0  0  0  0  0  0  0  0  0  0  0  0
   35.9010   29.1930   40.5510 C   0  0  0  0  0  0  0  0  0  0  0  0
   34.6830   28.9570   40.3190 O   0  0  0  0  0  0  0  0  0  0  0  0
   37.7780   28.4490   40.7400 H   0  0  0  0  0  0  0  0  0  0  0  0
   37.7170   27.1690   43.1670 C   0  0  1  0  0  0  0  0  0  0  0  0
   37.3370   28.4150   43.6790 C   0  0  0  0  0  0  0  0  0  0  0  0
   36.5680   27.7960   42.4730 C   0  0  1  0  0  0  0  0  0  0  0  0
   37.5130   26.2080   43.6710 H   0  0  0  0  0  0  0  0  0  0  0  0
   36.7560   28.4310   44.6520 H   0  0  0  0  0  0  0  0  0  0  0  0
   37.7780   29.4170   43.5120 H   0  0  0  0  0  0  0  0  0  0  0  0
   35.5070   27.6340   42.7270 H   0  0  0  0  0  0  0  0  0  0  0  0
   39.2820   26.0300   41.4250 C   0  0  0  0  0  0  0  0  0  0  0  0
   39.0190   27.0880   42.3600 C   0  0  0  0  0  0  0  0  0  0  0  0
   40.0000   28.0380   42.5330 C   0  0  0  0  0  0  0  0  0  0  0  0
   41.1480   27.9380   41.8270 N   0  0  0  0  0  0  0  0  0  0  0  0
   41.3830   26.9320   40.9470 C   0  0  0  0  0  0  0  0  0  0  0  0
   40.4090   25.9470   40.7460 N   0  0  0  0  0  0  0  0  0  0  0  0
   38.5000   25.3110   41.2870 H   0  0  0  0  0  0  0  0  0  0  0  0
   39.8760   28.8640   43.2170 H   0  0  0  0  0  0  0  0  0  0  0  0
   42.3040   26.8520   40.3830 H   0  0  0  0  0  0  0  0  0  0  0  0
   36.2960   30.5210   39.9350 C   0  0  2  0  0  0  0  0  0  0  0  0
   36.6160   30.4950   38.3920 C   0  0  0  0  0  0  0  0  0  0  0  0
   37.6520   30.7540   39.4310 C   0  0  1  0  0  0  0  0  0  0  0  0
   35.6570   31.4000   40.1590 H   0  0  0  0  0  0  0  0  0  0  0  0
   36.2000   31.2810   37.7730 H   0  0  0  0  0  0  0  0  0  0  0  0
   36.6020   29.4460   37.9740 H   0  0  0  0  0  0  0  0  0  0  0  0
   38.4230   30.0000   39.7090 H   0  0  0  0  0  0  0  0  0  0  0  0
   38.2040   32.1570   39.5360 C   0  0  0  0  0  0  0  0  0  0  0  0
   37.4620   33.0990   39.7690 O   0  0  0  0  0  0  0  0  0  0  0  0
   39.5910   32.4380   39.3700 N   0  0  0  0  0  0  0  0  0  0  0  0
   40.3170   31.5530   38.4850 C   0  0  0  0  0  3  0  0  0  0  0  0
   41.1280   31.0970   39.1240 H   0  0  0  0  0  0  0  0  0  0  0  0
   41.0390   32.3140   37.3950 C   0  0  0  0  0  3  0  0  0  0  0  0
   40.3800   32.6930   36.6160 H   0  0  0  0  0  0  0  0  0  0  0  0
   41.9160   33.2650   38.0050 N   0  0  0  0  0  0  0  0  0  0  0  0
   42.7250   32.7490   38.4280 H   0  0  0  0  0  0  0  0  0  0  0  0
   41.2780   34.1610   38.9220 C   0  0  0  0  0  2  0  0  0  0  0  0
   40.4010   33.4670   39.9440 C   0  0  0  0  0  2  0  0  0  0  0  0
  1  7  1  0  0  0  0
  2  1  1  0  0  0  0
  3  2  2  0  0  0  0
  4  1  1  0  0  0  0
  5  8  1  1  0  0  0
  5  6  1  0  0  0  0
  6  9  1  0  0  0  0
  7 11  1  1  0  0  0
  7  5  1  0  0  0  0
  7  6  1  0  0  0  0
 10  6  1  0  0  0  0
 12 13  1  0  0  0  0
 13 14  2  0  0  0  0
 13  5  1  0  0  0  0
 14 19  1  0  0  0  0
 15 14  1  0  0  0  0
 16 15  2  0  0  0  0
 17 16  1  0  0  0  0
 17 12  2  0  0  0  0
 18 12  1  0  0  0  0
 20 16  1  0  0  0  0
 21 24  1  1  0  0  0
 21  2  1  0  0  0  0
 22 23  1  0  0  0  0
 22 21  1  0  0  0  0
 23 28  1  0  0  0  0
 23 27  1  1  0  0  0
 23 21  1  0  0  0  0
 25 22  1  0  0  0  0
 26 22  1  0  0  0  0
 28 29  2  0  0  0  0
 30 28  1  0  0  0  0
 30 38  1  0  0  0  0
 31 32  1  0  0  0  0
 31 30  1  0  0  0  0
 33 35  1  0  0  0  0
 33 31  1  0  0  0  0
 34 33  1  0  0  0  0
 35 36  1  0  0  0  0
 35 37  1  0  0  0  0
 37 38  1  0  0  0  0
M  END
>  <minimizedAffinity>
-5.25336695

$$$$

 OpenBabel03242510243D

 38 41  0  0  1  0  0  0  0  0999 V2000
   37.1360   28.2040   41.0640 N   0  0  0  0  0  0  0  0  0  0  0  0
   36.1190   29.0680   40.6790 C   0  0  0  0  0  0  0  0  0  0  0  0
   34.8670   28.9090   40.6650 O   0  0  0  0  0  0  0  0  0  0  0  0
   37.9470   28.2410   40.3880 H   0  0  0  0  0  0  0  0  0  0  0  0
   38.0870   27.6140   43.2650 C   0  0  1  0  0  0  0  0  0  0  0  0
   36.8500   28.2140   43.5300 C   0  0  0  0  0  0  0  0  0  0  0  0
   37.0570   27.3880   42.2250 C   0  0  1  0  0  0  0  0  0  0  0  0
   38.4580   26.7130   43.7830 H   0  0  0  0  0  0  0  0  0  0  0  0
   36.1790   27.7200   44.3000 H   0  0  0  0  0  0  0  0  0  0  0  0
   36.5240   29.2630   43.3960 H   0  0  0  0  0  0  0  0  0  0  0  0
   36.3660   26.5280   42.1900 H   0  0  0  0  0  0  0  0  0  0  0  0
   39.1800   29.9540   42.9340 C   0  0  0  0  0  0  0  0  0  0  0  0
   39.2550   28.5230   42.8590 C   0  0  0  0  0  0  0  0  0  0  0  0
   40.4230   27.9730   42.3800 C   0  0  0  0  0  0  0  0  0  0  0  0
   41.4320   28.7910   42.0080 N   0  0  0  0  0  0  0  0  0  0  0  0
   41.3480   30.1430   42.0830 C   0  0  0  0  0  0  0  0  0  0  0  0
   40.1760   30.7370   42.5640 N   0  0  0  0  0  0  0  0  0  0  0  0
   38.2730   30.3640   43.3280 H   0  0  0  0  0  0  0  0  0  0  0  0
   40.5560   26.9060   42.2950 H   0  0  0  0  0  0  0  0  0  0  0  0
   42.1580   30.7970   41.7840 H   0  0  0  0  0  0  0  0  0  0  0  0
   36.4690   30.4570   40.1790 C   0  0  2  0  0  0  0  0  0  0  0  0
   36.6220   30.6070   38.6180 C   0  0  0  0  0  0  0  0  0  0  0  0
   37.7680   30.7390   39.5620 C   0  0  1  0  0  0  0  0  0  0  0  0
   35.8730   31.3070   40.5700 H   0  0  0  0  0  0  0  0  0  0  0  0
   36.1560   31.4610   38.1420 H   0  0  0  0  0  0  0  0  0  0  0  0
   36.5460   29.6130   38.0870 H   0  0  0  0  0  0  0  0  0  0  0  0
   38.5510   29.9540   39.6670 H   0  0  0  0  0  0  0  0  0  0  0  0
   38.3520   32.1180   39.7660 C   0  0  0  0  0  0  0  0  0  0  0  0
   37.6550   33.0320   40.1800 O   0  0  0  0  0  0  0  0  0  0  0  0
   39.7200   32.4080   39.4900 N   0  0  0  0  0  0  0  0  0  0  0  0
   40.3350   31.6250   38.4400 C   0  0  0  0  0  3  0  0  0  0  0  0
   41.2000   31.0950   38.9350 H   0  0  0  0  0  0  0  0  0  0  0  0
   40.9550   32.5010   37.3730 C   0  0  0  0  0  3  0  0  0  0  0  0
   40.2260   32.9710   36.7150 H   0  0  0  0  0  0  0  0  0  0  0  0
   41.9070   33.3710   37.9920 N   0  0  0  0  0  0  0  0  0  0  0  0
   42.7450   32.8060   38.2670 H   0  0  0  0  0  0  0  0  0  0  0  0
   41.3820   34.1610   39.0660 C   0  0  0  0  0  2  0  0  0  0  0  0
   40.6020   33.3600   40.0880 C   0  0  0  0  0  2  0  0  0  0  0  0
  1  7  1  0  0  0  0
  2  1  1  0  0  0  0
  3  2  2  0  0  0  0
  4  1  1  0  0  0  0
  5  6  1  0  0  0  0
  5  8  1  1  0  0  0
  6  9  1  0  0  0  0
  7 11  1  6  0  0  0
  7  5  1  0  0  0  0
  7  6  1  0  0  0  0
 10  6  1  0  0  0  0
 12 18  1  0  0  0  0
 13 12  1  0  0  0  0
 13  5  1  0  0  0  0
 14 13  2  0  0  0  0
 15 16  2  0  0  0  0
 15 14  1  0  0  0  0
 16 17  1  0  0  0  0
 17 12  2  0  0  0  0
 19 14  1  0  0  0  0
 20 16  1  0  0  0  0
 21 24  1  1  0  0  0
 21  2  1  0  0  0  0
 22 23  1  0  0  0  0
 22 21  1  0  0  0  0
 23 27  1  6  0  0  0
 23 28  1  0  0  0  0
 23 21  1  0  0  0  0
 25 22  1  0  0  0  0
 26 22  1  0  0  0  0
 28 29  2  0  0  0  0
 30 28  1  0  0  0  0
 30 38  1  0  0  0  0
 31 32  1  0  0  0  0
 31 30  1  0  0  0  0
 33 35  1  0  0  0  0
 33 31  1  0  0  0  0
 34 33  1  0  0  0  0
 35 36  1  0  0  0  0
 35 37  1  0  0  0  0
 37 38  1  0  0  0  0
M  END
>  <minimizedAffinity>
-5.24667406

$$$$

 OpenBabel03242510243D

 38 41  0  0  1  0  0  0  0  0999 V2000
   37.8680   27.3290   41.2310 N   0  0  0  0  0  0  0  0  0  0  0  0
   37.0860   27.2690   40.0850 C   0  0  0  0  0  0  0  0  0  0  0  0
   36.2660   26.3940   39.6940 O   0  0  0  0  0  0  0  0  0  0  0  0
   38.8450   27.6680   41.0130 H   0  0  0  0  0  0  0  0  0  0  0  0
   38.2900   27.2090   43.6620 C   0  0  1  0  0  0  0  0  0  0  0  0
   37.2990   28.1830   43.4930 C   0  0  0  0  0  0  0  0  0  0  0  0
   37.3800   26.9700   42.5170 C   0  0  1  0  0  0  0  0  0  0  0  0
   38.2740   26.4470   44.4600 H   0  0  0  0  0  0  0  0  0  0  0  0
   36.4130   28.1620   44.2000 H   0  0  0  0  0  0  0  0  0  0  0  0
   37.3590   29.1860   43.0280 H   0  0  0  0  0  0  0  0  0  0  0  0
   36.4530   26.3730   42.5560 H   0  0  0  0  0  0  0  0  0  0  0  0
   40.1130   28.9060   42.9020 C   0  0  0  0  0  0  0  0  0  0  0  0
   39.7340   27.5790   43.2980 C   0  0  0  0  0  0  0  0  0  0  0  0
   40.7200   26.6180   43.3210 C   0  0  0  0  0  0  0  0  0  0  0  0
   41.9810   26.9600   42.9770 N   0  0  0  0  0  0  0  0  0  0  0  0
   42.3260   28.2190   42.6040 C   0  0  0  0  0  0  0  0  0  0  0  0
   41.3500   29.2200   42.5680 N   0  0  0  0  0  0  0  0  0  0  0  0
   39.3380   29.6440   42.9090 H   0  0  0  0  0  0  0  0  0  0  0  0
   40.5140   25.5990   43.6080 H   0  0  0  0  0  0  0  0  0  0  0  0
   43.3380   28.4900   42.3280 H   0  0  0  0  0  0  0  0  0  0  0  0
   37.1590   28.3970   39.0730 C   0  0  2  0  0  0  0  0  0  0  0  0
   38.2210   28.2220   37.9230 C   0  0  0  0  0  0  0  0  0  0  0  0
   38.3370   29.2640   38.9810 C   0  0  1  0  0  0  0  0  0  0  0  0
   36.2040   28.7550   38.6350 H   0  0  0  0  0  0  0  0  0  0  0  0
   37.9150   28.4500   36.9090 H   0  0  0  0  0  0  0  0  0  0  0  0
   38.8630   27.3050   38.0750 H   0  0  0  0  0  0  0  0  0  0  0  0
   39.0740   29.1940   39.8140 H   0  0  0  0  0  0  0  0  0  0  0  0
   38.1150   30.7030   38.5760 C   0  0  0  0  0  0  0  0  0  0  0  0
   38.0670   31.0130   37.3950 O   0  0  0  0  0  0  0  0  0  0  0  0
   37.9530   31.7430   39.5370 N   0  0  0  0  0  0  0  0  0  0  0  0
   38.6390   31.5550   40.7970 C   0  0  0  0  0  3  0  0  0  0  0  0
   37.8260   31.5630   41.5790 H   0  0  0  0  0  0  0  0  0  0  0  0
   39.5350   32.7270   41.1310 C   0  0  0  0  0  3  0  0  0  0  0  0
   40.4480   32.7620   40.5410 H   0  0  0  0  0  0  0  0  0  0  0  0
   38.7430   33.9180   41.1490 N   0  0  0  0  0  0  0  0  0  0  0  0
   38.1400   33.9050   42.0060 H   0  0  0  0  0  0  0  0  0  0  0  0
   38.0060   34.1610   39.9440 C   0  0  0  0  0  2  0  0  0  0  0  0
   37.2130   32.9630   39.4620 C   0  0  0  0  0  2  0  0  0  0  0  0
  1  7  1  0  0  0  0
  2  1  1  0  0  0  0
  3  2  2  0  0  0  0
  4  1  1  0  0  0  0
  5  8  1  1  0  0  0
  6  5  1  0  0  0  0
  6  9  1  0  0  0  0
  7 11  1  1  0  0  0
  7  6  1  0  0  0  0
  7  5  1  0  0  0  0
 10  6  1  0  0  0  0
 12 18  1  0  0  0  0
 12 13  1  0  0  0  0
 13 14  2  0  0  0  0
 13  5  1  0  0  0  0
 14 19  1  0  0  0  0
 15 14  1  0  0  0  0
 16 15  2  0  0  0  0
 17 16  1  0  0  0  0
 17 12  2  0  0  0  0
 20 16  1  0  0  0  0
 21 24  1  6  0  0  0
 21  2  1  0  0  0  0
 22 26  1  0  0  0  0
 22 23  1  0  0  0  0
 22 21  1  0  0  0  0
 23 21  1  0  0  0  0
 23 27  1  1  0  0  0
 25 22  1  0  0  0  0
 28 23  1  0  0  0  0
 28 30  1  0  0  0  0
 29 28  2  0  0  0  0
 30 31  1  0  0  0  0
 31 33  1  0  0  0  0
 31 32  1  0  0  0  0
 33 35  1  0  0  0  0
 34 33  1  0  0  0  0
 35 36  1  0  0  0  0
 37 35  1  0  0  0  0
 38 30  1  0  0  0  0
 38 37  1  0  0  0  0
M  END
>  <minimizedAffinity>
-5.1444087

$$$$

 OpenBabel03242510243D

 38 41  0  0  1  0  0  0  0  0999 V2000
   37.2500   28.6330   39.1850 N   0  0  0  0  0  0  0  0  0  0  0  0
   38.1120   29.6000   38.6850 C   0  0  0  0  0  0  0  0  0  0  0  0
   37.9090   30.5350   37.8620 O   0  0  0  0  0  0  0  0  0  0  0  0
   37.7180   27.6860   39.2250 H   0  0  0  0  0  0  0  0  0  0  0  0
   35.5970   28.7440   41.0160 C   0  0  1  0  0  0  0  0  0  0  0  0
   35.8280   30.0690   40.6290 C   0  0  0  0  0  0  0  0  0  0  0  0
   35.9150   28.9190   39.5800 C   0  0  1  0  0  0  0  0  0  0  0  0
   34.5970   28.3340   41.2450 H   0  0  0  0  0  0  0  0  0  0  0  0
   34.9280   30.7480   40.5100 H   0  0  0  0  0  0  0  0  0  0  0  0
   36.7340   30.6940   40.7400 H   0  0  0  0  0  0  0  0  0  0  0  0
   35.1720   29.0630   38.7770 H   0  0  0  0  0  0  0  0  0  0  0  0
   37.0410   26.6690   41.6430 C   0  0  0  0  0  0  0  0  0  0  0  0
   36.6720   28.0400   41.8550 C   0  0  0  0  0  0  0  0  0  0  0  0
   37.3080   28.7170   42.8720 C   0  0  0  0  0  0  0  0  0  0  0  0
   38.2370   28.0740   43.6120 N   0  0  0  0  0  0  0  0  0  0  0  0
   38.5760   26.7770   43.4000 C   0  0  0  0  0  0  0  0  0  0  0  0
   37.9490   26.0570   42.3770 N   0  0  0  0  0  0  0  0  0  0  0  0
   36.5510   26.1640   40.8350 H   0  0  0  0  0  0  0  0  0  0  0  0
   37.0860   29.7500   43.0920 H   0  0  0  0  0  0  0  0  0  0  0  0
   39.3200   26.2620   43.9960 H   0  0  0  0  0  0  0  0  0  0  0  0
   39.5570   29.6220   39.1470 C   0  0  2  0  0  0  0  0  0  0  0  0
   39.7880   29.9790   40.6640 C   0  0  0  0  0  0  0  0  0  0  0  0
   40.2100   30.8700   39.5470 C   0  0  1  0  0  0  0  0  0  0  0  0
   40.1940   28.7550   38.8760 H   0  0  0  0  0  0  0  0  0  0  0  0
   40.4900   29.3760   41.2260 H   0  0  0  0  0  0  0  0  0  0  0  0
   38.8280   30.2730   41.1810 H   0  0  0  0  0  0  0  0  0  0  0  0
   39.6740   31.8150   39.3000 H   0  0  0  0  0  0  0  0  0  0  0  0
   41.6910   31.0020   39.2760 C   0  0  0  0  0  0  0  0  0  0  0  0
   42.5050   30.4630   40.0100 O   0  0  0  0  0  0  0  0  0  0  0  0
   42.1940   31.7470   38.1700 N   0  0  0  0  0  0  0  0  0  0  0  0
   41.3850   32.8670   37.7390 C   0  0  0  0  0  3  0  0  0  0  0  0
   41.1230   32.6450   36.6640 H   0  0  0  0  0  0  0  0  0  0  0  0
   42.1780   34.1550   37.7050 C   0  0  0  0  0  3  0  0  0  0  0  0
   42.3800   34.5700   38.6900 H   0  0  0  0  0  0  0  0  0  0  0  0
   43.3070   33.9740   36.8460 N   0  0  0  0  0  0  0  0  0  0  0  0
   42.9710   33.9460   35.8540 H   0  0  0  0  0  0  0  0  0  0  0  0
   44.1450   32.8630   37.1890 C   0  0  0  0  0  2  0  0  0  0  0  0
   43.3860   31.5700   37.4010 C   0  0  0  0  0  2  0  0  0  0  0  0
  1  4  1  0  0  0  0
  1  7  1  0  0  0  0
  2 21  1  0  0  0  0
  2  1  1  0  0  0  0
  3  2  2  0  0  0  0
  5  8  1  1  0  0  0
  5 13  1  0  0  0  0
  6 10  1  0  0  0  0
  6  5  1  0  0  0  0
  7 11  1  6  0  0  0
  7  6  1  0  0  0  0
  7  5  1  0  0  0  0
  9  6  1  0  0  0  0
 12 13  2  0  0  0  0
 12 17  1  0  0  0  0
 13 14  1  0  0  0  0
 14 19  1  0  0  0  0
 14 15  2  0  0  0  0
 16 15  1  0  0  0  0
 16 20  1  0  0  0  0
 17 16  2  0  0  0  0
 18 12  1  0  0  0  0
 21 24  1  6  0  0  0
 21 23  1  0  0  0  0
 21 22  1  0  0  0  0
 22 26  1  0  0  0  0
 22 25  1  0  0  0  0
 23 27  1  6  0  0  0
 23 22  1  0  0  0  0
 28 23  1  0  0  0  0
 28 29  2  0  0  0  0
 30 28  1  0  0  0  0
 31 30  1  0  0  0  0
 32 31  1  0  0  0  0
 33 31  1  0  0  0  0
 33 34  1  0  0  0  0
 35 37  1  0  0  0  0
 35 33  1  0  0  0  0
 36 35  1  0  0  0  0
 37 38  1  0  0  0  0
 38 30  1  0  0  0  0
M  END
>  <minimizedAffinity>
-5.06988907

$$$$

 OpenBabel03242510243D

 38 41  0  0  1  0  0  0  0  0999 V2000
   38.4910   27.3220   42.6490 N   0  0  0  0  0  0  0  0  0  0  0  0
   37.2190   27.8280   42.8880 C   0  0  0  0  0  0  0  0  0  0  0  0
   36.2920   27.4030   43.6310 O   0  0  0  0  0  0  0  0  0  0  0  0
   38.7370   27.3740   41.6220 H   0  0  0  0  0  0  0  0  0  0  0  0
   40.1350   25.6160   43.3440 C   0  0  1  0  0  0  0  0  0  0  0  0
   40.8350   26.8270   43.3010 C   0  0  0  0  0  0  0  0  0  0  0  0
   39.3230   26.8090   43.6800 C   0  0  1  0  0  0  0  0  0  0  0  0
   40.2490   24.8660   44.1460 H   0  0  0  0  0  0  0  0  0  0  0  0
   41.5350   27.0620   44.1610 H   0  0  0  0  0  0  0  0  0  0  0  0
   41.1120   27.4580   42.4350 H   0  0  0  0  0  0  0  0  0  0  0  0
   39.1690   27.2070   44.6970 H   0  0  0  0  0  0  0  0  0  0  0  0
   38.6900   24.0270   41.8720 C   0  0  0  0  0  0  0  0  0  0  0  0
   39.7940   24.9330   42.0130 C   0  0  0  0  0  0  0  0  0  0  0  0
   40.5720   25.1610   40.9000 C   0  0  0  0  0  0  0  0  0  0  0  0
   40.2680   24.5340   39.7430 N   0  0  0  0  0  0  0  0  0  0  0  0
   39.2210   23.6790   39.6240 C   0  0  0  0  0  0  0  0  0  0  0  0
   38.4090   23.4220   40.7340 N   0  0  0  0  0  0  0  0  0  0  0  0
   38.0830   23.8760   42.7410 H   0  0  0  0  0  0  0  0  0  0  0  0
   41.4190   25.8300   40.9270 H   0  0  0  0  0  0  0  0  0  0  0  0
   38.9780   23.1760   38.6950 H   0  0  0  0  0  0  0  0  0  0  0  0
   36.7790   29.1000   42.1890 C   0  0  2  0  0  0  0  0  0  0  0  0
   36.0640   28.9080   40.7980 C   0  0  0  0  0  0  0  0  0  0  0  0
   37.4060   29.5390   40.9400 C   0  0  1  0  0  0  0  0  0  0  0  0
   36.2150   29.8440   42.7880 H   0  0  0  0  0  0  0  0  0  0  0  0
   35.1660   29.4820   40.6050 H   0  0  0  0  0  0  0  0  0  0  0  0
   36.0700   27.8290   40.4640 H   0  0  0  0  0  0  0  0  0  0  0  0
   38.3470   29.0210   40.6450 H   0  0  0  0  0  0  0  0  0  0  0  0
   37.5100   31.0270   40.6970 C   0  0  0  0  0  0  0  0  0  0  0  0
   36.5030   31.7160   40.6330 O   0  0  0  0  0  0  0  0  0  0  0  0
   38.7660   31.6810   40.5340 N   0  0  0  0  0  0  0  0  0  0  0  0
   39.8250   30.8850   39.9530 C   0  0  0  0  0  3  0  0  0  0  0  0
   40.6430   30.8710   40.7300 H   0  0  0  0  0  0  0  0  0  0  0  0
   40.4310   31.5520   38.7380 C   0  0  0  0  0  3  0  0  0  0  0  0
   39.7980   31.5100   37.8540 H   0  0  0  0  0  0  0  0  0  0  0  0
   40.9090   32.8460   39.1180 N   0  0  0  0  0  0  0  0  0  0  0  0
   41.7700   32.7250   39.7030 H   0  0  0  0  0  0  0  0  0  0  0  0
   39.9250   33.6880   39.7310 C   0  0  0  0  0  2  0  0  0  0  0  0
   39.1610   33.0160   40.8540 C   0  0  0  0  0  2  0  0  0  0  0  0
  1  2  1  0  0  0  0
  1  7  1  0  0  0  0
  2  3  2  0  0  0  0
  4  1  1  0  0  0  0
  5  7  1  0  0  0  0
  5  8  1  1  0  0  0
  6  5  1  0  0  0  0
  6  7  1  0  0  0  0
  6  9  1  0  0  0  0
  7 11  1  1  0  0  0
 10  6  1  0  0  0  0
 12 13  1  0  0  0  0
 12 18  1  0  0  0  0
 13  5  1  0  0  0  0
 14 19  1  0  0  0  0
 14 13  2  0  0  0  0
 15 14  1  0  0  0  0
 16 15  2  0  0  0  0
 16 17  1  0  0  0  0
 17 12  2  0  0  0  0
 20 16  1  0  0  0  0
 21 24  1  1  0  0  0
 21  2  1  0  0  0  0
 22 23  1  0  0  0  0
 22 21  1  0  0  0  0
 23 27  1  6  0  0  0
 23 21  1  0  0  0  0
 25 22  1  0  0  0  0
 26 22  1  0  0  0  0
 28 23  1  0  0  0  0
 29 28  2  0  0  0  0
 30 28  1  0  0  0  0
 30 38  1  0  0  0  0
 31 30  1  0  0  0  0
 31 32  1  0  0  0  0
 33 35  1  0  0  0  0
 33 31  1  0  0  0  0
 34 33  1  0  0  0  0
 35 36  1  0  0  0  0
 35 37  1  0  0  0  0
 37 38  1  0  0  0  0
M  END
>  <minimizedAffinity>
-5.06915522

$$$$
