
 OpenBabel03252508513D

 28 30  0  0  0  0  0  0  0  0999 V2000
   45.8970   34.0760   41.0480 C   0  0  0  0  0  0  0  0  0  0  0  0
   46.4900   34.7720   42.1070 C   0  0  0  0  0  0  0  0  0  0  0  0
   47.8180   35.1930   41.9370 C   0  0  0  0  0  0  0  0  0  0  0  0
   48.4270   34.8900   40.7480 N   0  0  0  0  0  0  0  0  0  0  0  0
   47.8210   34.2250   39.7710 C   0  0  0  0  0  0  0  0  0  0  0  0
   46.5480   33.8060   39.9010 N   0  0  0  0  0  0  0  0  0  0  0  0
   48.2990   35.7350   42.7430 H   0  0  0  0  0  0  0  0  0  0  0  0
   48.3860   34.0400   38.8830 H   0  0  0  0  0  0  0  0  0  0  0  0
   45.7340   35.0300   43.3200 C   0  0  0  0  0  0  0  0  0  0  0  0
   45.0490   36.2070   43.5420 C   0  0  0  0  0  0  0  0  0  0  0  0
   44.4930   36.0120   44.7950 C   0  0  0  0  0  0  0  0  0  0  0  0
   44.8210   34.7910   45.3000 N   0  0  0  0  0  0  0  0  0  0  0  0
   45.5670   34.2300   44.3890 N   0  0  0  0  0  0  0  0  0  0  0  0
   44.9380   37.0940   42.9290 H   0  0  0  0  0  0  0  0  0  0  0  0
   43.8670   36.7520   45.3090 H   0  0  0  0  0  0  0  0  0  0  0  0
   44.4880   34.4740   46.2390 H   0  0  0  0  0  0  0  0  0  0  0  0
   44.5870   33.6570   41.2060 O   0  0  0  0  0  0  0  0  0  0  0  0
   43.4760   34.3030   40.7300 C   0  0  0  0  0  0  0  0  0  0  0  0
   43.3160   35.5480   40.5210 O   0  0  0  0  0  0  0  0  0  0  0  0
   42.1720   33.8130   40.3270 N   0  0  0  0  0  0  0  0  0  0  0  0
   41.5550   32.8420   41.2060 C   0  0  0  0  0  3  0  0  0  0  0  0
   40.7780   33.4350   41.7730 H   0  0  0  0  0  0  0  0  0  0  0  0
   40.8120   31.8690   40.3160 C   0  0  0  0  0  3  0  0  0  0  0  0
   40.9440   30.8580   40.7620 H   0  0  0  0  0  0  0  0  0  0  0  0
   41.3720   31.7830   38.9870 N   0  0  0  0  0  0  0  0  0  0  0  0
   40.8280   31.0640   38.4760 H   0  0  0  0  0  0  0  0  0  0  0  0
   41.2530   33.0270   38.2560 C   0  0  0  0  0  2  0  0  0  0  0  0
   41.4720   34.2290   39.1270 C   0  0  0  0  0  2  0  0  0  0  0  0
  1 17  1  0  0  0  0
  1  2  1  0  0  0  0
  2  9  1  0  0  0  0
  3  2  2  0  0  0  0
  3  7  1  0  0  0  0
  4  3  1  0  0  0  0
  5  6  1  0  0  0  0
  5  4  2  0  0  0  0
  6  1  2  0  0  0  0
  8  5  1  0  0  0  0
  9 10  1  0  0  0  0
  9 13  2  0  0  0  0
 10 11  2  0  0  0  0
 11 12  1  0  0  0  0
 11 15  1  0  0  0  0
 12 16  1  0  0  0  0
 13 12  1  0  0  0  0
 14 10  1  0  0  0  0
 18 17  1  0  0  0  0
 19 18  2  0  0  0  0
 20 18  1  0  0  0  0
 20 21  1  0  0  0  0
 21 22  1  0  0  0  0
 23 24  1  0  0  0  0
 23 21  1  0  0  0  0
 25 23  1  0  0  0  0
 26 25  1  0  0  0  0
 27 25  1  0  0  0  0
 27 28  1  0  0  0  0
 28 20  1  0  0  0  0
M  END
>  <minimizedAffinity>
-5.40488672

>  <minimizedRMSD>
0.945465803

$$$$
