
 OpenBabel03252504013D

 34 37  0  0  0  0  0  0  0  0999 V2000
   47.1560   34.8970   42.6480 C   0  0  0  0  0  0  0  0  0  0  0  0
   46.1480   35.8340   42.3920 C   0  0  0  0  0  0  0  0  0  0  0  0
   45.0100   35.7830   43.1950 C   0  0  0  0  0  0  0  0  0  0  0  0
   44.9380   34.8370   44.1750 N   0  0  0  0  0  0  0  0  0  0  0  0
   45.9410   33.9550   44.3800 C   0  0  0  0  0  0  0  0  0  0  0  0
   47.0490   33.9840   43.6200 N   0  0  0  0  0  0  0  0  0  0  0  0
   46.1600   36.5950   41.6350 H   0  0  0  0  0  0  0  0  0  0  0  0
   44.1830   36.4810   43.0540 H   0  0  0  0  0  0  0  0  0  0  0  0
   46.0670   31.6190   45.0930 C   0  0  0  0  0  0  0  0  0  0  0  0
   45.8640   32.9380   45.4330 C   0  0  0  0  0  0  0  0  0  0  0  0
   45.5980   33.2510   46.7410 C   0  0  0  0  0  0  0  0  0  0  0  0
   45.5300   32.2780   47.7110 C   0  0  0  0  0  0  0  0  0  0  0  0
   45.2960   32.2820   49.0270 N   0  0  0  0  0  0  0  0  0  0  0  0
   45.3470   31.0180   49.5140 C   0  0  0  0  0  0  0  0  0  0  0  0
   45.6250   30.1440   48.4750 C   0  0  0  0  0  0  0  0  0  0  0  0
   45.7380   30.9340   47.3580 C   0  0  0  0  0  0  0  0  0  0  0  0
   46.0070   30.6180   46.0400 C   0  0  0  0  0  0  0  0  0  0  0  0
   46.2810   31.3220   44.0710 H   0  0  0  0  0  0  0  0  0  0  0  0
   45.4390   34.3010   46.9940 H   0  0  0  0  0  0  0  0  0  0  0  0
   45.1050   33.1780   49.5540 H   0  0  0  0  0  0  0  0  0  0  0  0
   45.1840   30.7830   50.5670 H   0  0  0  0  0  0  0  0  0  0  0  0
   45.7290   29.0590   48.5490 H   0  0  0  0  0  0  0  0  0  0  0  0
   46.1660   29.5650   45.7850 H   0  0  0  0  0  0  0  0  0  0  0  0
   48.2970   35.0090   41.7840 C   0  0  0  0  0  0  0  0  0  0  0  0
   49.2230   35.8890   41.8860 O   0  0  0  0  0  0  0  0  0  0  0  0
   48.3450   34.0250   40.7410 N   0  0  0  0  0  0  0  0  0  0  0  0
   48.0540   34.2320   39.3330 C   0  0  0  0  0  3  0  0  0  0  0  0
   47.8010   35.2890   39.1180 H   0  0  0  0  0  0  0  0  0  0  0  0
   46.9400   33.3430   38.9140 C   0  0  0  0  0  3  0  0  0  0  0  0
   47.1800   32.9130   37.9010 H   0  0  0  0  0  0  0  0  0  0  0  0
   46.6190   32.3020   39.8560 N   0  0  0  0  0  0  0  0  0  0  0  0
   46.1110   31.5610   39.3210 H   0  0  0  0  0  0  0  0  0  0  0  0
   47.7770   31.6810   40.4470 C   0  0  0  0  0  2  0  0  0  0  0  0
   48.7180   32.6650   41.0760 C   0  0  0  0  0  2  0  0  0  0  0  0
  1  6  1  0  0  0  0
  2  1  2  0  0  0  0
  2  3  1  0  0  0  0
  3  4  2  0  0  0  0
  4  5  1  0  0  0  0
  5 10  1  0  0  0  0
  6  5  2  0  0  0  0
  7  2  1  0  0  0  0
  8  3  1  0  0  0  0
  9 10  2  0  0  0  0
  9 17  1  0  0  0  0
 10 11  1  0  0  0  0
 11 19  1  0  0  0  0
 11 12  2  0  0  0  0
 12 13  1  0  0  0  0
 13 14  1  0  0  0  0
 13 20  1  0  0  0  0
 14 21  1  0  0  0  0
 15 22  1  0  0  0  0
 15 14  2  0  0  0  0
 16 12  1  0  0  0  0
 16 15  1  0  0  0  0
 17 16  2  0  0  0  0
 18  9  1  0  0  0  0
 23 17  1  0  0  0  0
 24 25  2  0  0  0  0
 24  1  1  0  0  0  0
 26 34  1  0  0  0  0
 26 24  1  0  0  0  0
 27 26  1  0  0  0  0
 28 27  1  0  0  0  0
 29 27  1  0  0  0  0
 29 31  1  0  0  0  0
 30 29  1  0  0  0  0
 31 33  1  0  0  0  0
 32 31  1  0  0  0  0
 33 34  1  0  0  0  0
M  END
>  <minimizedAffinity>
-6.21418142

>  <minimizedRMSD>
0.413834184

$$$$
