
 OpenBabel03252501113D

 20 21  0  0  0  0  0  0  0  0999 V2000
   47.0880   34.6660   42.0930 C   0  0  0  0  0  0  0  0  0  0  0  0
   47.9930   35.4690   41.7660 O   0  0  0  0  0  0  0  0  0  0  0  0
   46.8600   33.5690   41.2130 N   0  0  0  0  0  0  0  0  0  0  0  0
   47.3000   32.2410   41.5420 C   0  0  0  0  0  3  0  0  0  0  0  0
   48.3770   32.1000   41.3440 H   0  0  0  0  0  0  0  0  0  0  0  0
   46.4440   31.1820   40.9070 C   0  0  0  0  0  3  0  0  0  0  0  0
   45.4490   31.1720   41.3980 H   0  0  0  0  0  0  0  0  0  0  0  0
   46.3310   31.3040   39.4850 N   0  0  0  0  0  0  0  0  0  0  0  0
   46.9490   30.6400   38.9910 H   0  0  0  0  0  0  0  0  0  0  0  0
   46.5670   32.6270   38.9790 C   0  0  0  0  0  2  0  0  0  0  0  0
   46.1860   33.7140   39.9550 C   0  0  0  0  0  2  0  0  0  0  0  0
   44.5690   35.9650   44.4510 C   0  0  0  0  0  0  0  0  0  0  0  0
   45.3680   35.8310   43.3080 C   0  0  0  0  0  0  0  0  0  0  0  0
   46.2780   34.7800   43.2810 C   0  0  0  0  0  0  0  0  0  0  0  0
   46.3460   33.9410   44.3530 N   0  0  0  0  0  0  0  0  0  0  0  0
   45.5510   34.1110   45.4370 C   0  0  0  0  0  0  0  0  0  0  0  0
   44.6550   35.1300   45.4890 N   0  0  0  0  0  0  0  0  0  0  0  0
   43.8420   36.7710   44.5230 H   0  0  0  0  0  0  0  0  0  0  0  0
   45.2170   36.5580   42.5350 H   0  0  0  0  0  0  0  0  0  0  0  0
   45.7840   33.3290   46.1540 H   0  0  0  0  0  0  0  0  0  0  0  0
  1 14  1  0  0  0  0
  2  1  2  0  0  0  0
  3  4  1  0  0  0  0
  3  1  1  0  0  0  0
  5  4  1  0  0  0  0
  6  7  1  0  0  0  0
  6  4  1  0  0  0  0
  8  6  1  0  0  0  0
  9  8  1  0  0  0  0
 10  8  1  0  0  0  0
 10 11  1  0  0  0  0
 11  3  1  0  0  0  0
 12 18  1  0  0  0  0
 12 17  1  0  0  0  0
 13 12  2  0  0  0  0
 14 13  1  0  0  0  0
 14 15  2  0  0  0  0
 15 16  1  0  0  0  0
 16 17  2  0  0  0  0
 16 20  1  0  0  0  0
 19 13  1  0  0  0  0
M  END
>  <minimizedAffinity>
-3.87578034

>  <minimizedRMSD>
0.780621886

$$$$
