
     RDKit          3D

 34 36  0  0  0  0  0  0  0  0999 V2000
   46.0796   34.1506   41.0071 C   0  0  0  0  0  0  0  0  0  0  0  0
   46.6149   34.8360   42.1027 C   0  0  0  0  0  0  0  0  0  0  0  0
   47.9394   35.2915   41.9944 C   0  0  0  0  0  0  0  0  0  0  0  0
   48.6004   35.0275   40.8239 N   0  0  0  0  0  0  0  0  0  0  0  0
   48.0481   34.3714   39.8098 C   0  0  0  0  0  0  0  0  0  0  0  0
   46.7812   33.9214   39.8811 N   0  0  0  0  0  0  0  0  0  0  0  0
   45.8073   35.0502   43.2903 C   0  0  0  0  0  0  0  0  0  0  0  0
   45.0479   36.1852   43.4879 C   0  0  0  0  0  0  0  0  0  0  0  0
   44.4642   35.9589   44.7227 C   0  0  0  0  0  0  0  0  0  0  0  0
   44.8474   34.7594   45.2408 N   0  0  0  0  0  0  0  0  0  0  0  0
   45.6530   34.2418   44.3545 N   0  0  0  0  0  0  0  0  0  0  0  0
   44.7752   33.6985   41.1038 O   0  0  0  0  0  0  0  0  0  0  0  0
   43.7000   34.2025   40.4211 C   0  0  0  0  0  0  0  0  0  0  0  0
   43.2514   35.3943   40.4228 O   0  0  0  0  0  0  0  0  0  0  0  0
   48.3761   35.8251   42.8300 H   0  0  0  0  0  0  0  0  0  0  0  0
   48.6524   34.2187   38.9411 H   0  0  0  0  0  0  0  0  0  0  0  0
   44.9051   37.0642   42.8693 H   0  0  0  0  0  0  0  0  0  0  0  0
   43.7802   36.6613   45.2153 H   0  0  0  0  0  0  0  0  0  0  0  0
   44.5026   34.4236   46.1694 H   0  0  0  0  0  0  0  0  0  0  0  0
   42.7555   33.5828   39.5128 N   0  0  0  0  0  0  0  0  0  0  0  0
   43.1318   32.2876   38.9857 C   0  0  2  0  0  0  0  0  0  0  0  0
   42.5155   31.5535   39.5838 H   0  0  0  0  0  0  0  0  0  0  0  0
   42.6240   32.2405   37.5609 C   0  0  1  0  0  0  0  0  0  0  0  0
   43.3977   31.7129   36.9597 H   0  0  0  0  0  0  0  0  0  0  0  0
   42.4974   33.5506   36.9656 N   0  0  0  0  0  0  0  0  0  0  0  0
   42.1914   33.4088   35.9846 H   0  0  0  0  0  0  0  0  0  0  0  0
   41.4973   34.3636   37.6253 C   0  0  0  0  0  0  0  0  0  0  0  0
   41.4906   34.1694   39.1141 C   0  0  0  0  0  0  0  0  0  0  0  0
   44.2020   32.0733   39.0352 H   0  0  0  0  0  0  0  0  0  0  0  0
   41.7027   31.6169   37.4842 H   0  0  0  0  0  0  0  0  0  0  0  0
   40.4651   34.2116   37.1987 H   0  0  0  0  0  0  0  0  0  0  0  0
   41.7520   35.4251   37.4221 H   0  0  0  0  0  0  0  0  0  0  0  0
   40.7209   33.3762   39.3278 H   0  0  0  0  0  0  0  0  0  0  0  0
   41.2221   35.0565   39.6839 H   0  0  0  0  0  0  0  0  0  0  0  0
  1 12  1  0
  1  2  1  0
  2  7  1  0
  3  2  2  0
  4  3  1  0
  5  6  1  0
  5  4  2  0
  6  1  2  0
  7  8  1  0
  7 11  2  0
  8  9  2  0
  9 10  1  0
 11 10  1  0
 13 14  2  0
 13 12  1  0
  3 15  1  0
  5 16  1  0
  8 17  1  0
  9 18  1  0
 10 19  1  0
 20 21  1  0
 21 22  1  1
 21 23  1  0
 23 24  1  6
 23 25  1  0
 25 26  1  0
 25 27  1  0
 27 28  1  0
 28 20  1  0
 21 29  1  0
 23 30  1  0
 27 31  1  0
 27 32  1  0
 28 33  1  0
 28 34  1  0
 13 20  1  0
M  ISO  8  15  14  16  14  17  14  18  14  19   9  22   8  24   8  26   5
M  END
>  <DihAtoms>  (1) 
13,12,19,20

>  <DihDeg>  (1) 
-0.13438117919780287

$$$$
