
 OpenBabel03252504003D

 34 37  0  0  0  0  0  0  0  0999 V2000
   46.9070   34.8650   42.6090 C   0  0  0  0  0  0  0  0  0  0  0  0
   46.0130   35.9390   42.5380 C   0  0  0  0  0  0  0  0  0  0  0  0
   45.0180   36.0080   43.5130 C   0  0  0  0  0  0  0  0  0  0  0  0
   44.9680   35.0390   44.4710 N   0  0  0  0  0  0  0  0  0  0  0  0
   45.8580   34.0220   44.4940 C   0  0  0  0  0  0  0  0  0  0  0  0
   46.8260   33.9340   43.5670 N   0  0  0  0  0  0  0  0  0  0  0  0
   46.0120   36.7230   41.8050 H   0  0  0  0  0  0  0  0  0  0  0  0
   44.2850   36.8160   43.5210 H   0  0  0  0  0  0  0  0  0  0  0  0
   46.0340   31.6740   45.1560 C   0  0  0  0  0  0  0  0  0  0  0  0
   45.8040   32.9800   45.5250 C   0  0  0  0  0  0  0  0  0  0  0  0
   45.5340   33.2590   46.8400 C   0  0  0  0  0  0  0  0  0  0  0  0
   45.4890   32.2630   47.7890 C   0  0  0  0  0  0  0  0  0  0  0  0
   45.2590   32.2340   49.1040 N   0  0  0  0  0  0  0  0  0  0  0  0
   45.3370   30.9610   49.5630 C   0  0  0  0  0  0  0  0  0  0  0  0
   45.6310   30.1160   48.5040 C   0  0  0  0  0  0  0  0  0  0  0  0
   45.7250   30.9320   47.4050 C   0  0  0  0  0  0  0  0  0  0  0  0
   45.9980   30.6510   46.0800 C   0  0  0  0  0  0  0  0  0  0  0  0
   46.2520   31.4040   44.1270 H   0  0  0  0  0  0  0  0  0  0  0  0
   45.3540   34.3000   47.1170 H   0  0  0  0  0  0  0  0  0  0  0  0
   45.0500   33.1140   49.6520 H   0  0  0  0  0  0  0  0  0  0  0  0
   45.1810   30.6990   50.6110 H   0  0  0  0  0  0  0  0  0  0  0  0
   45.7580   29.0320   48.5540 H   0  0  0  0  0  0  0  0  0  0  0  0
   46.1780   29.6080   45.8020 H   0  0  0  0  0  0  0  0  0  0  0  0
   47.9040   34.8590   41.5760 C   0  0  0  0  0  0  0  0  0  0  0  0
   48.7770   35.7760   41.3810 O   0  0  0  0  0  0  0  0  0  0  0  0
   47.8640   33.7040   40.7270 N   0  0  0  0  0  0  0  0  0  0  0  0
   48.5740   32.4530   40.9230 C   0  0  0  0  0  3  0  0  0  0  0  0
   49.1660   32.4600   41.8590 H   0  0  0  0  0  0  0  0  0  0  0  0
   49.4590   32.1880   39.7580 C   0  0  0  0  0  3  0  0  0  0  0  0
   49.3920   31.0960   39.4920 H   0  0  0  0  0  0  0  0  0  0  0  0
   49.2000   33.0190   38.6100 N   0  0  0  0  0  0  0  0  0  0  0  0
   49.6000   32.5210   37.7840 H   0  0  0  0  0  0  0  0  0  0  0  0
   47.7960   33.2170   38.3470 C   0  0  0  0  0  2  0  0  0  0  0  0
   47.0410   33.7390   39.5330 C   0  0  0  0  0  2  0  0  0  0  0  0
  1  6  1  0  0  0  0
  2  1  2  0  0  0  0
  2  3  1  0  0  0  0
  3  8  1  0  0  0  0
  3  4  2  0  0  0  0
  4  5  1  0  0  0  0
  5 10  1  0  0  0  0
  6  5  2  0  0  0  0
  7  2  1  0  0  0  0
  9 10  2  0  0  0  0
  9 17  1  0  0  0  0
 10 11  1  0  0  0  0
 11 19  1  0  0  0  0
 11 12  2  0  0  0  0
 12 13  1  0  0  0  0
 13 14  1  0  0  0  0
 13 20  1  0  0  0  0
 14 21  1  0  0  0  0
 15 22  1  0  0  0  0
 15 14  2  0  0  0  0
 16 12  1  0  0  0  0
 16 15  1  0  0  0  0
 17 16  2  0  0  0  0
 18  9  1  0  0  0  0
 23 17  1  0  0  0  0
 24  1  1  0  0  0  0
 25 24  2  0  0  0  0
 26 27  1  0  0  0  0
 26 24  1  0  0  0  0
 27 28  1  0  0  0  0
 29 27  1  0  0  0  0
 30 29  1  0  0  0  0
 31 29  1  0  0  0  0
 32 31  1  0  0  0  0
 33 31  1  0  0  0  0
 33 34  1  0  0  0  0
 34 26  1  0  0  0  0
M  END
>  <minimizedAffinity>
-6.44268036

>  <minimizedRMSD>
0.137330368

$$$$
