
 OpenBabel03252504013D

 34 37  0  0  0  0  0  0  0  0999 V2000
   46.6220   35.0580   42.7360 C   0  0  0  0  0  0  0  0  0  0  0  0
   45.7320   36.1360   42.7750 C   0  0  0  0  0  0  0  0  0  0  0  0
   44.8070   36.1630   43.8190 C   0  0  0  0  0  0  0  0  0  0  0  0
   44.8180   35.1520   44.7340 N   0  0  0  0  0  0  0  0  0  0  0  0
   45.7010   34.1330   44.6490 C   0  0  0  0  0  0  0  0  0  0  0  0
   46.6030   34.0840   43.6540 N   0  0  0  0  0  0  0  0  0  0  0  0
   45.6850   36.9520   42.0800 H   0  0  0  0  0  0  0  0  0  0  0  0
   44.0810   36.9720   43.9140 H   0  0  0  0  0  0  0  0  0  0  0  0
   46.0240   31.7730   45.2070 C   0  0  0  0  0  0  0  0  0  0  0  0
   45.7130   33.0460   45.6330 C   0  0  0  0  0  0  0  0  0  0  0  0
   45.4280   33.2490   46.9590 C   0  0  0  0  0  0  0  0  0  0  0  0
   45.4450   32.2120   47.8630 C   0  0  0  0  0  0  0  0  0  0  0  0
   45.2180   32.1100   49.1750 N   0  0  0  0  0  0  0  0  0  0  0  0
   45.3750   30.8260   49.5780 C   0  0  0  0  0  0  0  0  0  0  0  0
   45.7210   30.0480   48.4840 C   0  0  0  0  0  0  0  0  0  0  0  0
   45.7630   30.9160   47.4220 C   0  0  0  0  0  0  0  0  0  0  0  0
   46.0510   30.7110   46.0860 C   0  0  0  0  0  0  0  0  0  0  0  0
   46.2570   31.5630   44.1680 H   0  0  0  0  0  0  0  0  0  0  0  0
   45.1840   34.2640   47.2800 H   0  0  0  0  0  0  0  0  0  0  0  0
   44.9560   32.9510   49.7600 H   0  0  0  0  0  0  0  0  0  0  0  0
   45.2370   30.5090   50.6130 H   0  0  0  0  0  0  0  0  0  0  0  0
   45.9150   28.9730   48.4860 H   0  0  0  0  0  0  0  0  0  0  0  0
   46.2960   29.6940   45.7630 H   0  0  0  0  0  0  0  0  0  0  0  0
   47.5450   35.0960   41.6370 C   0  0  0  0  0  0  0  0  0  0  0  0
   48.6270   35.7820   41.5980 O   0  0  0  0  0  0  0  0  0  0  0  0
   47.1670   34.2760   40.5220 N   0  0  0  0  0  0  0  0  0  0  0  0
   45.8620   33.6880   40.2750 C   0  0  0  0  0  3  0  0  0  0  0  0
   45.1320   33.9680   41.0600 H   0  0  0  0  0  0  0  0  0  0  0  0
   45.9850   32.2100   40.1910 C   0  0  0  0  0  3  0  0  0  0  0  0
   45.3400   31.8400   39.3450 H   0  0  0  0  0  0  0  0  0  0  0  0
   47.3360   31.7280   40.0630 N   0  0  0  0  0  0  0  0  0  0  0  0
   47.2730   30.7660   39.6590 H   0  0  0  0  0  0  0  0  0  0  0  0
   48.1460   32.5140   39.1670 C   0  0  0  0  0  2  0  0  0  0  0  0
   48.1560   33.9740   39.5070 C   0  0  0  0  0  2  0  0  0  0  0  0
  1  2  2  0  0  0  0
  1  6  1  0  0  0  0
  2  3  1  0  0  0  0
  3  8  1  0  0  0  0
  3  4  2  0  0  0  0
  5  4  1  0  0  0  0
  5 10  1  0  0  0  0
  6  5  2  0  0  0  0
  7  2  1  0  0  0  0
  9 10  2  0  0  0  0
  9 17  1  0  0  0  0
 10 11  1  0  0  0  0
 11 19  1  0  0  0  0
 11 12  2  0  0  0  0
 12 13  1  0  0  0  0
 13 14  1  0  0  0  0
 13 20  1  0  0  0  0
 14 21  1  0  0  0  0
 15 22  1  0  0  0  0
 15 14  2  0  0  0  0
 16 12  1  0  0  0  0
 16 15  1  0  0  0  0
 17 16  2  0  0  0  0
 18  9  1  0  0  0  0
 23 17  1  0  0  0  0
 24  1  1  0  0  0  0
 25 24  2  0  0  0  0
 26 24  1  0  0  0  0
 27 26  1  0  0  0  0
 27 28  1  0  0  0  0
 29 27  1  0  0  0  0
 30 29  1  0  0  0  0
 31 29  1  0  0  0  0
 32 31  1  0  0  0  0
 33 34  1  0  0  0  0
 33 31  1  0  0  0  0
 34 26  1  0  0  0  0
M  END
>  <minimizedAffinity>
-6.20355177

>  <minimizedRMSD>
0.646988392

$$$$
