
 OpenBabel03252504013D

 34 37  0  0  0  0  0  0  0  0999 V2000
   46.9200   34.8710   42.6100 C   0  0  0  0  0  0  0  0  0  0  0  0
   46.0230   35.9420   42.5340 C   0  0  0  0  0  0  0  0  0  0  0  0
   45.0220   36.0070   43.5040 C   0  0  0  0  0  0  0  0  0  0  0  0
   44.9700   35.0370   44.4610 N   0  0  0  0  0  0  0  0  0  0  0  0
   45.8620   34.0230   44.4890 C   0  0  0  0  0  0  0  0  0  0  0  0
   46.8360   33.9380   43.5670 N   0  0  0  0  0  0  0  0  0  0  0  0
   46.0240   36.7260   41.8020 H   0  0  0  0  0  0  0  0  0  0  0  0
   44.2870   36.8130   43.5080 H   0  0  0  0  0  0  0  0  0  0  0  0
   46.0320   31.6740   45.1470 C   0  0  0  0  0  0  0  0  0  0  0  0
   45.8060   32.9810   45.5180 C   0  0  0  0  0  0  0  0  0  0  0  0
   45.5370   33.2580   46.8340 C   0  0  0  0  0  0  0  0  0  0  0  0
   45.4900   32.2620   47.7810 C   0  0  0  0  0  0  0  0  0  0  0  0
   45.2600   32.2320   49.0970 N   0  0  0  0  0  0  0  0  0  0  0  0
   45.3340   30.9580   49.5540 C   0  0  0  0  0  0  0  0  0  0  0  0
   45.6260   30.1130   48.4940 C   0  0  0  0  0  0  0  0  0  0  0  0
   45.7210   30.9310   47.3960 C   0  0  0  0  0  0  0  0  0  0  0  0
   45.9930   30.6500   46.0710 C   0  0  0  0  0  0  0  0  0  0  0  0
   46.2490   31.4040   44.1180 H   0  0  0  0  0  0  0  0  0  0  0  0
   45.3610   34.3000   47.1110 H   0  0  0  0  0  0  0  0  0  0  0  0
   45.0540   33.1120   49.6450 H   0  0  0  0  0  0  0  0  0  0  0  0
   45.1780   30.6950   50.6010 H   0  0  0  0  0  0  0  0  0  0  0  0
   45.7490   29.0290   48.5430 H   0  0  0  0  0  0  0  0  0  0  0  0
   46.1700   29.6070   45.7910 H   0  0  0  0  0  0  0  0  0  0  0  0
   47.9220   34.8680   41.5830 C   0  0  0  0  0  0  0  0  0  0  0  0
   48.8240   35.7650   41.4220 O   0  0  0  0  0  0  0  0  0  0  0  0
   47.8540   33.7430   40.6960 N   0  0  0  0  0  0  0  0  0  0  0  0
   48.7380   32.5900   40.6780 C   0  0  0  0  0  3  0  0  0  0  0  0
   49.5020   32.6500   41.4780 H   0  0  0  0  0  0  0  0  0  0  0  0
   49.3930   32.4790   39.3500 C   0  0  0  0  0  3  0  0  0  0  0  0
   49.4090   31.3960   39.0430 H   0  0  0  0  0  0  0  0  0  0  0  0
   48.8060   33.3010   38.3230 N   0  0  0  0  0  0  0  0  0  0  0  0
   49.0890   32.8830   37.4080 H   0  0  0  0  0  0  0  0  0  0  0  0
   47.3640   33.3200   38.3540 C   0  0  0  0  0  2  0  0  0  0  0  0
   46.8080   33.7030   39.6920 C   0  0  0  0  0  2  0  0  0  0  0  0
  1  6  1  0  0  0  0
  2  1  2  0  0  0  0
  2  3  1  0  0  0  0
  3  8  1  0  0  0  0
  3  4  2  0  0  0  0
  4  5  1  0  0  0  0
  5 10  1  0  0  0  0
  6  5  2  0  0  0  0
  7  2  1  0  0  0  0
  9 10  2  0  0  0  0
  9 17  1  0  0  0  0
 10 11  1  0  0  0  0
 11 19  1  0  0  0  0
 11 12  2  0  0  0  0
 12 13  1  0  0  0  0
 13 14  1  0  0  0  0
 13 20  1  0  0  0  0
 14 21  1  0  0  0  0
 15 22  1  0  0  0  0
 15 14  2  0  0  0  0
 16 12  1  0  0  0  0
 16 15  1  0  0  0  0
 17 16  2  0  0  0  0
 18  9  1  0  0  0  0
 23 17  1  0  0  0  0
 24  1  1  0  0  0  0
 25 24  2  0  0  0  0
 26 24  1  0  0  0  0
 27 26  1  0  0  0  0
 27 28  1  0  0  0  0
 29 27  1  0  0  0  0
 30 29  1  0  0  0  0
 31 33  1  0  0  0  0
 31 29  1  0  0  0  0
 32 31  1  0  0  0  0
 33 34  1  0  0  0  0
 34 26  1  0  0  0  0
M  END
>  <minimizedAffinity>
-6.33874702

>  <minimizedRMSD>
0.0951907337

$$$$
