
 OpenBabel03252508513D

 28 30  0  0  0  0  0  0  0  0999 V2000
   45.9040   34.1200   41.0400 C   0  0  0  0  0  0  0  0  0  0  0  0
   46.5020   34.7860   42.1150 C   0  0  0  0  0  0  0  0  0  0  0  0
   47.8400   35.1840   41.9620 C   0  0  0  0  0  0  0  0  0  0  0  0
   48.4520   34.8880   40.7730 N   0  0  0  0  0  0  0  0  0  0  0  0
   47.8410   34.2500   39.7810 C   0  0  0  0  0  0  0  0  0  0  0  0
   46.5590   33.8550   39.8940 N   0  0  0  0  0  0  0  0  0  0  0  0
   48.3260   35.7020   42.7800 H   0  0  0  0  0  0  0  0  0  0  0  0
   48.4100   34.0690   38.8940 H   0  0  0  0  0  0  0  0  0  0  0  0
   45.7420   35.0400   43.3250 C   0  0  0  0  0  0  0  0  0  0  0  0
   45.0700   36.2220   43.5570 C   0  0  0  0  0  0  0  0  0  0  0  0
   44.5030   36.0210   44.8040 C   0  0  0  0  0  0  0  0  0  0  0  0
   44.8140   34.7900   45.2970 N   0  0  0  0  0  0  0  0  0  0  0  0
   45.5590   34.2300   44.3840 N   0  0  0  0  0  0  0  0  0  0  0  0
   44.9730   37.1170   42.9520 H   0  0  0  0  0  0  0  0  0  0  0  0
   43.8830   36.7620   45.3220 H   0  0  0  0  0  0  0  0  0  0  0  0
   44.4710   34.4670   46.2300 H   0  0  0  0  0  0  0  0  0  0  0  0
   44.5850   33.7240   41.1800 O   0  0  0  0  0  0  0  0  0  0  0  0
   43.4920   34.3950   40.6990 C   0  0  0  0  0  0  0  0  0  0  0  0
   43.3140   35.6520   40.6100 O   0  0  0  0  0  0  0  0  0  0  0  0
   42.2310   33.9270   40.1590 N   0  0  0  0  0  0  0  0  0  0  0  0
   42.0580   32.4890   40.0950 C   0  0  0  0  0  3  0  0  0  0  0  0
   41.3810   32.2520   40.9670 H   0  0  0  0  0  0  0  0  0  0  0  0
   41.2750   32.2080   38.8310 C   0  0  0  0  0  3  0  0  0  0  0  0
   41.6970   31.2780   38.3900 H   0  0  0  0  0  0  0  0  0  0  0  0
   41.4480   33.2280   37.8220 N   0  0  0  0  0  0  0  0  0  0  0  0
   40.9150   32.9220   36.9870 H   0  0  0  0  0  0  0  0  0  0  0  0
   40.9200   34.5100   38.2360 C   0  0  0  0  0  2  0  0  0  0  0  0
   41.1640   34.7890   39.6910 C   0  0  0  0  0  2  0  0  0  0  0  0
  1 17  1  0  0  0  0
  1  2  1  0  0  0  0
  2  9  1  0  0  0  0
  3  2  2  0  0  0  0
  3  7  1  0  0  0  0
  4  3  1  0  0  0  0
  5  6  1  0  0  0  0
  5  4  2  0  0  0  0
  6  1  2  0  0  0  0
  8  5  1  0  0  0  0
  9 10  1  0  0  0  0
  9 13  2  0  0  0  0
 10 11  2  0  0  0  0
 11 12  1  0  0  0  0
 11 15  1  0  0  0  0
 12 16  1  0  0  0  0
 13 12  1  0  0  0  0
 14 10  1  0  0  0  0
 18 17  1  0  0  0  0
 19 18  2  0  0  0  0
 20 18  1  0  0  0  0
 21 20  1  0  0  0  0
 21 22  1  0  0  0  0
 23 21  1  0  0  0  0
 24 23  1  0  0  0  0
 25 27  1  0  0  0  0
 25 23  1  0  0  0  0
 26 25  1  0  0  0  0
 27 28  1  0  0  0  0
 28 20  1  0  0  0  0
M  END
>  <minimizedAffinity>
-5.67456675

>  <minimizedRMSD>
0.743821979

$$$$
