
 OpenBabel03242519113D

 47 50  0  0  1  0  0  0  0  0999 V2000
   47.8820   32.0880   36.4120 C   0  0  0  0  0  0  0  0  0  0  0  0
   47.4030   32.6860   37.5990 C   0  0  0  0  0  0  0  0  0  0  0  0
   46.0960   33.0770   37.5100 C   0  0  0  0  0  0  0  0  0  0  0  0
   45.2670   32.9390   36.4180 C   0  0  0  0  0  0  0  0  0  0  0  0
   45.7820   32.3520   35.2910 C   0  0  0  0  0  0  0  0  0  0  0  0
   47.0830   31.9380   35.3130 C   0  0  0  0  0  0  0  0  0  0  0  0
   45.6460   33.5510   38.3910 H   0  0  0  0  0  0  0  0  0  0  0  0
   44.2460   33.2830   36.4490 H   0  0  0  0  0  0  0  0  0  0  0  0
   45.1250   32.2470   34.4380 H   0  0  0  0  0  0  0  0  0  0  0  0
   48.1530   32.1310   33.1000 C   0  0  0  0  0  0  0  0  0  0  0  0
   48.2020   33.4070   33.2760 O   0  0  0  0  0  0  0  0  0  0  0  0
   47.5940   31.3300   34.1210 N   0  0  0  0  0  0  0  0  0  0  0  0
   47.4930   30.3040   34.1350 H   0  0  0  0  0  0  0  0  0  0  0  0
   48.6350   31.4430   31.9160 N   0  0  0  0  0  0  0  0  0  0  0  0
   48.8380   30.0230   31.9190 C   0  0  0  0  0  0  0  0  0  0  0  0
   49.8060   29.7210   32.3660 H   0  0  0  0  0  0  0  0  0  0  0  0
   48.7730   29.4680   30.5180 C   0  0  0  0  0  0  0  0  0  0  0  0
   48.0330   28.6370   30.4110 H   0  0  0  0  0  0  0  0  0  0  0  0
   48.4040   30.4500   29.5200 N   0  0  0  0  0  0  0  0  0  0  0  0
   47.4600   30.8690   29.6830 H   0  0  0  0  0  0  0  0  0  0  0  0
   49.3630   31.5470   29.6450 C   0  0  0  0  0  0  0  0  0  0  0  0
   48.8630   32.3800   30.8040 C   0  0  0  0  0  0  0  0  0  0  0  0
   48.1730   32.8700   38.7600 N   0  0  0  0  0  0  0  0  0  0  0  0
   49.1740   32.9280   38.4660 H   0  0  0  0  0  0  0  0  0  0  0  0
   47.4240   34.2150   41.9660 N   0  0  0  0  0  0  0  0  0  0  0  0
   47.2650   34.3140   40.5220 C   0  0  0  0  0  0  0  0  0  0  0  0
   47.8290   32.9810   40.1370 C   0  0  2  0  0  0  0  0  0  0  0  0
   49.1210   32.9580   40.9310 C   0  0  0  0  0  0  0  0  0  0  0  0
   48.7430   33.6780   42.1930 C   0  0  0  0  0  0  0  0  0  0  0  0
   46.2020   34.4390   40.2390 H   0  0  0  0  0  0  0  0  0  0  0  0
   47.9330   35.1160   40.1600 H   0  0  0  0  0  0  0  0  0  0  0  0
   47.1460   32.1730   40.4800 H   0  0  0  0  0  0  0  0  0  0  0  0
   49.8630   33.5850   40.4020 H   0  0  0  0  0  0  0  0  0  0  0  0
   49.4760   31.9300   41.1390 H   0  0  0  0  0  0  0  0  0  0  0  0
   49.4270   34.5350   42.4010 H   0  0  0  0  0  0  0  0  0  0  0  0
   48.7220   33.0170   43.0660 H   0  0  0  0  0  0  0  0  0  0  0  0
   44.8000   35.8470   44.0570 C   0  0  0  0  0  0  0  0  0  0  0  0
   45.6340   35.6130   42.9740 C   0  0  0  0  0  0  0  0  0  0  0  0
   46.5330   34.5480   43.0030 C   0  0  0  0  0  0  0  0  0  0  0  0
   46.5290   33.7910   44.1250 N   0  0  0  0  0  0  0  0  0  0  0  0
   45.7340   33.9990   45.1820 C   0  0  0  0  0  0  0  0  0  0  0  0
   44.8600   35.0500   45.1300 N   0  0  0  0  0  0  0  0  0  0  0  0
   44.1250   36.6910   43.9700 H   0  0  0  0  0  0  0  0  0  0  0  0
   45.6730   36.1940   42.0500 H   0  0  0  0  0  0  0  0  0  0  0  0
   45.8140   33.3340   46.0230 H   0  0  0  0  0  0  0  0  0  0  0  0
   50.3640   31.2830   36.4170 N   0  0  0  0  0  0  0  0  0  0  0  0
   49.2690   31.6400   36.4170 C   0  0  0  0  0  0  0  0  0  0  0  0
  1 47  1  0  0  0  0
  1  2  1  0  0  0  0
  2 23  1  0  0  0  0
  3  2  2  0  0  0  0
  3  7  1  0  0  0  0
  4  8  1  0  0  0  0
  4  3  1  0  0  0  0
  5  6  1  0  0  0  0
  5  4  2  0  0  0  0
  6  1  2  0  0  0  0
  9  5  1  0  0  0  0
 10 11  2  0  0  0  0
 10 12  1  0  0  0  0
 12 13  1  0  0  0  0
 12  6  1  0  0  0  0
 14 15  1  0  0  0  0
 14 10  1  0  0  0  0
 15 16  1  0  0  0  0
 17 15  1  0  0  0  0
 18 17  1  0  0  0  0
 19 21  1  0  0  0  0
 19 20  1  0  0  0  0
 19 17  1  0  0  0  0
 21 22  1  0  0  0  0
 22 14  1  0  0  0  0
 23 27  1  0  0  0  0
 24 23  1  0  0  0  0
 25 29  1  0  0  0  0
 25 39  1  0  0  0  0
 26 25  1  0  0  0  0
 27 32  1  1  0  0  0
 27 26  1  0  0  0  0
 27 28  1  0  0  0  0
 28 34  1  0  0  0  0
 28 29  1  0  0  0  0
 29 35  1  0  0  0  0
 29 36  1  0  0  0  0
 30 26  1  0  0  0  0
 31 26  1  0  0  0  0
 33 28  1  0  0  0  0
 37 42  1  0  0  0  0
 38 39  1  0  0  0  0
 38 37  2  0  0  0  0
 39 40  2  0  0  0  0
 40 41  1  0  0  0  0
 41 45  1  0  0  0  0
 42 41  2  0  0  0  0
 43 37  1  0  0  0  0
 44 38  1  0  0  0  0
 47 46  3  0  0  0  0
M  END
>  <minimizedAffinity>
-6.01583099

>  <minimizedRMSD>
1.37100327

$$$$
