
     RDKit          3D

 32 33  0  0  0  0  0  0  0  0999 V2000
   46.5382   33.6142   44.3326 C   0  0  0  0  0  0  0  0  0  0  0  0
   46.2301   33.1999   45.6466 C   0  0  0  0  0  0  0  0  0  0  0  0
   45.2885   33.9029   46.3611 C   0  0  0  0  0  0  0  0  0  0  0  0
   44.6853   34.9738   45.7763 N   0  0  0  0  0  0  0  0  0  0  0  0
   44.9955   35.3512   44.5201 C   0  0  0  0  0  0  0  0  0  0  0  0
   45.9075   34.6883   43.7992 N   0  0  0  0  0  0  0  0  0  0  0  0
   45.0307   33.4537   47.6388 O   0  0  0  0  0  0  0  0  0  0  0  0
   45.3325   30.8585   47.4695 O   0  0  0  0  0  0  0  0  0  0  0  0
   45.8097   32.0896   48.2666 P   0  0  2  0  0  0  0  0  0  0  0  0
   45.3181   31.8219   49.8538 O   0  0  0  0  0  0  0  0  0  0  0  0
   47.4479   32.2625   48.1505 O   0  0  0  0  0  0  0  0  0  0  0  0
   48.4612   31.4482   48.5422 C   0  0  0  0  0  0  0  0  0  0  0  0
   49.2447   31.9772   49.4058 O   0  0  0  0  0  0  0  0  0  0  0  0
   47.2658   33.1177   43.7027 H   0  0  0  0  0  0  0  0  0  0  0  0
   46.8051   32.3400   45.9266 H   0  0  0  0  0  0  0  0  0  0  0  0
   44.4518   36.2295   44.1400 H   0  0  0  0  0  0  0  0  0  0  0  0
   44.4708   32.2823   50.0816 H   0  0  0  0  0  0  0  0  0  0  0  0
   49.2468   30.2646   48.5769 N   0  0  0  0  0  0  0  0  0  0  0  0
   50.6549   30.6489   48.5234 C   0  0  2  0  0  0  0  0  0  0  0  0
   50.9766   31.2538   49.3867 H   0  0  0  0  0  0  0  0  0  0  0  0
   51.4385   29.3525   48.4764 C   0  0  2  0  0  0  0  0  0  0  0  0
   51.4532   28.8290   49.4545 H   0  0  0  0  0  0  0  0  0  0  0  0
   50.7987   28.4232   47.5307 N   0  0  0  0  0  0  0  0  0  0  0  0
   50.3807   29.0448   46.7840 H   0  0  0  0  0  0  0  0  0  0  0  0
   49.6952   27.8513   48.2524 C   0  0  0  0  0  0  0  0  0  0  0  0
   48.7402   28.9088   48.6507 C   0  0  0  0  0  0  0  0  0  0  0  0
   50.9169   31.1921   47.6051 H   0  0  0  0  0  0  0  0  0  0  0  0
   52.4692   29.4925   48.1409 H   0  0  0  0  0  0  0  0  0  0  0  0
   50.0415   27.3352   49.1770 H   0  0  0  0  0  0  0  0  0  0  0  0
   49.1570   27.0672   47.6766 H   0  0  0  0  0  0  0  0  0  0  0  0
   47.8048   28.8984   48.0230 H   0  0  0  0  0  0  0  0  0  0  0  0
   48.4096   28.7908   49.7245 H   0  0  0  0  0  0  0  0  0  0  0  0
  1  2  2  0
  2  3  1  0
  3  7  1  0
  4  3  2  0
  5  4  1  0
  6  1  1  0
  6  5  2  0
  9  7  1  6
  9  8  2  0
  9 10  1  0
 11  9  1  0
 11 12  1  0
 12 13  2  0
  1 14  1  0
  2 15  1  0
  5 16  1  0
 10 17  1  0
 18 19  1  0
 19 20  1  1
 19 21  1  0
 21 22  1  1
 21 23  1  0
 23 24  1  0
 23 25  1  0
 25 26  1  0
 26 18  1  0
 19 27  1  0
 21 28  1  0
 25 29  1  0
 25 30  1  0
 26 31  1  0
 26 32  1  0
 12 18  1  0
M  ISO  7  14  14  15  14  16  14  17   3  20   8  22   8  24   5
M  END
>  <DihAtoms>  (1) 
10,11,17,18

>  <DihDeg>  (1) 
179.79983724700978

$$$$
