
 OpenBabel03242520013D

 30 32  0  0  0  0  0  0  0  0999 V2000
   44.4200   33.3840   41.1240 Br  0  0  0  0  0  0  0  0  0  0  0  0
   46.1720   34.1060   40.9870 C   0  0  0  0  0  0  0  0  0  0  0  0
   46.7660   34.8060   42.0180 C   0  0  0  0  0  0  0  0  0  0  0  0
   48.0370   35.3210   41.8020 C   0  0  0  0  0  0  0  0  0  0  0  0
   48.7260   35.1670   40.6130 C   0  0  0  0  0  0  0  0  0  0  0  0
   48.1210   34.4570   39.5740 C   0  0  0  0  0  0  0  0  0  0  0  0
   46.8600   33.9550   39.8160 C   0  0  0  0  0  0  0  0  0  0  0  0
   48.3970   35.8430   42.6730 H   0  0  0  0  0  0  0  0  0  0  0  0
   49.7090   35.6180   40.5700 H   0  0  0  0  0  0  0  0  0  0  0  0
   48.6810   34.3560   38.6680 H   0  0  0  0  0  0  0  0  0  0  0  0
   46.3240   33.1620   38.7420 C   0  0  0  0  0  0  0  0  0  0  0  0
   46.6530   33.4120   37.5080 O   0  0  0  0  0  0  0  0  0  0  0  0
   45.4540   32.0490   38.4790 N   0  0  0  0  0  0  0  0  0  0  0  0
   44.2740   32.7140   37.9890 C   0  0  0  0  0  0  0  0  0  0  0  0
   43.8270   33.4210   38.7500 H   0  0  0  0  0  0  0  0  0  0  0  0
   43.1900   31.6800   37.7810 C   0  0  0  0  0  0  0  0  0  0  0  0
   42.2500   32.2540   37.6260 H   0  0  0  0  0  0  0  0  0  0  0  0
   43.0170   30.9570   39.0300 N   0  0  0  0  0  0  0  0  0  0  0  0
   42.1620   30.3660   38.9400 H   0  0  0  0  0  0  0  0  0  0  0  0
   44.2020   30.1770   39.3450 C   0  0  0  0  0  0  0  0  0  0  0  0
   45.3760   30.5800   38.5080 C   0  0  0  0  0  0  0  0  0  0  0  0
   44.4770   36.0440   44.7510 C   0  0  0  0  0  0  0  0  0  0  0  0
   45.1710   35.9680   43.5310 C   0  0  0  0  0  0  0  0  0  0  0  0
   46.0250   34.9300   43.2640 C   0  0  0  0  0  0  0  0  0  0  0  0
   46.1300   34.0090   44.2710 N   0  0  0  0  0  0  0  0  0  0  0  0
   45.4720   34.0810   45.4270 C   0  0  0  0  0  0  0  0  0  0  0  0
   44.6540   35.0870   45.6680 N   0  0  0  0  0  0  0  0  0  0  0  0
   43.8390   36.9120   44.8290 H   0  0  0  0  0  0  0  0  0  0  0  0
   45.0680   36.7130   42.7530 H   0  0  0  0  0  0  0  0  0  0  0  0
   45.6300   33.3000   46.1490 H   0  0  0  0  0  0  0  0  0  0  0  0
  2  1  1  0  0  0  0
  2  3  1  0  0  0  0
  3 24  1  0  0  0  0
  4  3  2  0  0  0  0
  4  8  1  0  0  0  0
  5  4  1  0  0  0  0
  6  7  1  0  0  0  0
  6  5  2  0  0  0  0
  7  2  2  0  0  0  0
  9  5  1  0  0  0  0
 10  6  1  0  0  0  0
 11  7  1  0  0  0  0
 12 11  2  0  0  0  0
 13 21  1  0  0  0  0
 13 11  1  0  0  0  0
 14 13  1  0  0  0  0
 14 15  1  0  0  0  0
 16 14  1  0  0  0  0
 16 18  1  0  0  0  0
 17 16  1  0  0  0  0
 18 20  1  0  0  0  0
 19 18  1  0  0  0  0
 21 20  1  0  0  0  0
 22 28  1  0  0  0  0
 22 27  1  0  0  0  0
 23 22  2  0  0  0  0
 24 23  1  0  0  0  0
 24 25  2  0  0  0  0
 25 26  1  0  0  0  0
 26 27  2  0  0  0  0
 26 30  1  0  0  0  0
 29 23  1  0  0  0  0
M  END
>  <minimizedAffinity>
-5.73529911

>  <minimizedRMSD>
0.566703737

$$$$
