
 OpenBabel03252508513D

 28 30  0  0  0  0  0  0  0  0999 V2000
   45.8950   34.0840   41.0530 C   0  0  0  0  0  0  0  0  0  0  0  0
   46.4890   34.7740   42.1150 C   0  0  0  0  0  0  0  0  0  0  0  0
   47.8220   35.1840   41.9520 C   0  0  0  0  0  0  0  0  0  0  0  0
   48.4340   34.8760   40.7660 N   0  0  0  0  0  0  0  0  0  0  0  0
   47.8270   34.2160   39.7860 C   0  0  0  0  0  0  0  0  0  0  0  0
   46.5500   33.8090   39.9090 N   0  0  0  0  0  0  0  0  0  0  0  0
   48.3040   35.7200   42.7610 H   0  0  0  0  0  0  0  0  0  0  0  0
   48.3960   34.0270   38.9000 H   0  0  0  0  0  0  0  0  0  0  0  0
   45.7290   35.0380   43.3240 C   0  0  0  0  0  0  0  0  0  0  0  0
   45.0230   36.2060   43.5270 C   0  0  0  0  0  0  0  0  0  0  0  0
   44.4710   36.0220   44.7840 C   0  0  0  0  0  0  0  0  0  0  0  0
   44.8220   34.8150   45.3090 N   0  0  0  0  0  0  0  0  0  0  0  0
   45.5780   34.2530   44.4060 N   0  0  0  0  0  0  0  0  0  0  0  0
   44.8950   37.0810   42.8990 H   0  0  0  0  0  0  0  0  0  0  0  0
   43.8320   36.7580   45.2860 H   0  0  0  0  0  0  0  0  0  0  0  0
   44.4950   34.5080   46.2520 H   0  0  0  0  0  0  0  0  0  0  0  0
   44.5810   33.6770   41.2030 O   0  0  0  0  0  0  0  0  0  0  0  0
   43.5000   34.1980   40.5430 C   0  0  0  0  0  0  0  0  0  0  0  0
   43.2800   35.4100   40.2220 O   0  0  0  0  0  0  0  0  0  0  0  0
   42.3000   33.5800   40.0150 N   0  0  0  0  0  0  0  0  0  0  0  0
   42.4980   32.5630   39.0020 C   0  0  0  0  0  3  0  0  0  0  0  0
   42.3460   31.5880   39.5530 H   0  0  0  0  0  0  0  0  0  0  0  0
   41.3540   32.7050   38.0220 C   0  0  0  0  0  3  0  0  0  0  0  0
   41.7740   32.5280   37.0070 H   0  0  0  0  0  0  0  0  0  0  0  0
   40.8080   34.0430   37.9860 N   0  0  0  0  0  0  0  0  0  0  0  0
   40.0690   34.0470   37.2570 H   0  0  0  0  0  0  0  0  0  0  0  0
   40.1910   34.4220   39.2400 C   0  0  0  0  0  2  0  0  0  0  0  0
   40.9510   33.9120   40.4300 C   0  0  0  0  0  2  0  0  0  0  0  0
  1 17  1  0  0  0  0
  1  2  1  0  0  0  0
  2  9  1  0  0  0  0
  3  2  2  0  0  0  0
  3  7  1  0  0  0  0
  4  3  1  0  0  0  0
  5  6  1  0  0  0  0
  5  4  2  0  0  0  0
  6  1  2  0  0  0  0
  8  5  1  0  0  0  0
  9 10  1  0  0  0  0
  9 13  2  0  0  0  0
 10 11  2  0  0  0  0
 11 15  1  0  0  0  0
 11 12  1  0  0  0  0
 12 16  1  0  0  0  0
 13 12  1  0  0  0  0
 14 10  1  0  0  0  0
 18 17  1  0  0  0  0
 19 18  2  0  0  0  0
 20 28  1  0  0  0  0
 20 18  1  0  0  0  0
 21 22  1  0  0  0  0
 21 20  1  0  0  0  0
 23 21  1  0  0  0  0
 24 23  1  0  0  0  0
 25 23  1  0  0  0  0
 25 27  1  0  0  0  0
 26 25  1  0  0  0  0
 27 28  1  0  0  0  0
M  END
>  <minimizedAffinity>
-5.61820793

>  <minimizedRMSD>
0.564474404

$$$$
