
 OpenBabel03242522513D

 26 27  0  0  0  0  0  0  0  0999 V2000
   45.2130   30.8360   47.5280 O   0  0  0  0  0  0  0  0  0  0  0  0
   45.7270   32.0560   48.3220 P   0  0  2  0  0  0  0  0  0  0  0  0
   45.1840   31.8330   49.8990 O   0  0  0  0  0  0  0  0  0  0  0  0
   44.3540   32.3350   50.1000 H   0  0  0  0  0  0  0  0  0  0  0  0
   45.0270   33.4460   47.6570 O   0  0  0  0  0  0  0  0  0  0  0  0
   46.6650   33.5320   44.4110 C   0  0  0  0  0  0  0  0  0  0  0  0
   46.3140   33.1570   45.7260 C   0  0  0  0  0  0  0  0  0  0  0  0
   45.3240   33.8560   46.3750 C   0  0  0  0  0  0  0  0  0  0  0  0
   44.7150   34.8870   45.7260 N   0  0  0  0  0  0  0  0  0  0  0  0
   45.0660   35.2280   44.4710 C   0  0  0  0  0  0  0  0  0  0  0  0
   46.0260   34.5670   43.8130 N   0  0  0  0  0  0  0  0  0  0  0  0
   47.4320   33.0360   43.8300 H   0  0  0  0  0  0  0  0  0  0  0  0
   46.9020   32.3250   46.0610 H   0  0  0  0  0  0  0  0  0  0  0  0
   44.5150   36.0760   44.0370 H   0  0  0  0  0  0  0  0  0  0  0  0
   47.3730   32.1530   48.2450 O   0  0  0  0  0  0  0  0  0  0  0  0
   48.3360   31.2580   48.5840 C   0  0  0  0  0  0  0  0  0  0  0  0
   49.1960   31.7150   49.4150 O   0  0  0  0  0  0  0  0  0  0  0  0
   49.0280   30.0170   48.5740 N   0  0  0  0  0  0  0  0  0  0  0  0
   48.3260   29.1090   47.6720 C   0  0  0  0  0  3  0  0  0  0  0  0
   48.3090   29.4570   46.6260 H   0  0  0  0  0  0  0  0  0  0  0  0
   49.0520   27.7820   47.7670 C   0  0  0  0  0  3  0  0  0  0  0  0
   50.0330   27.7960   47.2470 H   0  0  0  0  0  0  0  0  0  0  0  0
   49.3490   27.4820   49.1770 N   0  0  0  0  0  0  0  0  0  0  0  0
   48.5450   27.9080   49.7170 H   0  0  0  0  0  0  0  0  0  0  0  0
   50.5140   28.2610   49.4920 C   0  0  0  0  0  2  0  0  0  0  0  0
   50.2240   29.7030   49.3310 C   0  0  0  0  0  2  0  0  0  0  0  0
  2  1  2  6  0  0  0
  2  3  1  0  0  0  0
  3  4  1  0  0  0  0
  5  2  1  0  0  0  0
  6  7  1  0  0  0  0
  7 13  1  0  0  0  0
  7  8  2  0  0  0  0
  8  5  1  0  0  0  0
  9  8  1  0  0  0  0
 10  9  2  0  0  0  0
 11  6  2  0  0  0  0
 11 10  1  0  0  0  0
 12  6  1  0  0  0  0
 14 10  1  0  0  0  0
 15  2  1  0  0  0  0
 15 16  1  0  0  0  0
 16 17  2  0  0  0  0
 18 16  1  0  0  0  0
 18 26  1  0  0  0  0
 19 21  1  0  0  0  0
 19 18  1  0  0  0  0
 20 19  1  0  0  0  0
 21 23  1  0  0  0  0
 22 21  1  0  0  0  0
 23 25  1  0  0  0  0
 23 24  1  0  0  0  0
 26 25  1  0  0  0  0
M  END
>  <minimizedAffinity>
-5.0703907

>  <minimizedRMSD>
0.276852429

$$$$
