
 OpenBabel03242522513D

 26 27  0  0  0  0  0  0  0  0999 V2000
   45.3610   30.8040   47.5430 O   0  0  0  0  0  0  0  0  0  0  0  0
   45.7790   32.0490   48.3550 P   0  0  2  0  0  0  0  0  0  0  0  0
   45.1920   31.7940   49.9120 O   0  0  0  0  0  0  0  0  0  0  0  0
   44.3300   32.2490   50.0820 H   0  0  0  0  0  0  0  0  0  0  0  0
   45.0300   33.3990   47.6650 O   0  0  0  0  0  0  0  0  0  0  0  0
   46.6900   33.5010   44.4310 C   0  0  0  0  0  0  0  0  0  0  0  0
   46.3300   33.1190   45.7420 C   0  0  0  0  0  0  0  0  0  0  0  0
   45.3360   33.8160   46.3870 C   0  0  0  0  0  0  0  0  0  0  0  0
   44.7330   34.8510   45.7400 N   0  0  0  0  0  0  0  0  0  0  0  0
   45.0930   35.1980   44.4890 C   0  0  0  0  0  0  0  0  0  0  0  0
   46.0570   34.5390   43.8330 N   0  0  0  0  0  0  0  0  0  0  0  0
   47.4610   33.0060   43.8530 H   0  0  0  0  0  0  0  0  0  0  0  0
   46.9140   32.2840   46.0760 H   0  0  0  0  0  0  0  0  0  0  0  0
   44.5460   36.0490   44.0550 H   0  0  0  0  0  0  0  0  0  0  0  0
   47.4190   32.2340   48.3370 O   0  0  0  0  0  0  0  0  0  0  0  0
   48.4190   31.3550   48.6060 C   0  0  0  0  0  0  0  0  0  0  0  0
   49.1620   31.7030   49.5890 O   0  0  0  0  0  0  0  0  0  0  0  0
   49.2090   30.1850   48.4430 N   0  0  0  0  0  0  0  0  0  0  0  0
   50.5710   30.4880   48.8770 C   0  0  0  0  0  3  0  0  0  0  0  0
   50.6400   30.7580   49.9440 H   0  0  0  0  0  0  0  0  0  0  0  0
   51.3830   29.2390   48.6020 C   0  0  0  0  0  3  0  0  0  0  0  0
   51.1650   28.4230   49.3220 H   0  0  0  0  0  0  0  0  0  0  0  0
   51.0380   28.7080   47.2720 N   0  0  0  0  0  0  0  0  0  0  0  0
   50.8040   29.5630   46.6940 H   0  0  0  0  0  0  0  0  0  0  0  0
   49.8060   27.9920   47.4620 C   0  0  0  0  0  2  0  0  0  0  0  0
   48.7460   28.9100   47.9330 C   0  0  0  0  0  2  0  0  0  0  0  0
  2  1  2  6  0  0  0
  2  3  1  0  0  0  0
  3  4  1  0  0  0  0
  5  2  1  0  0  0  0
  6  7  1  0  0  0  0
  7 13  1  0  0  0  0
  7  8  2  0  0  0  0
  8  5  1  0  0  0  0
  9  8  1  0  0  0  0
 10  9  2  0  0  0  0
 11  6  2  0  0  0  0
 11 10  1  0  0  0  0
 12  6  1  0  0  0  0
 14 10  1  0  0  0  0
 15  2  1  0  0  0  0
 15 16  1  0  0  0  0
 16 17  2  0  0  0  0
 18 16  1  0  0  0  0
 18 19  1  0  0  0  0
 19 20  1  0  0  0  0
 21 19  1  0  0  0  0
 21 22  1  0  0  0  0
 23 25  1  0  0  0  0
 23 21  1  0  0  0  0
 24 23  1  0  0  0  0
 25 26  1  0  0  0  0
 26 18  1  0  0  0  0
M  END
>  <minimizedAffinity>
-4.72905779

>  <minimizedRMSD>
0.245188117

$$$$
