
 OpenBabel03252501113D

 20 21  0  0  0  0  0  0  0  0999 V2000
   47.0310   34.7230   41.9850 C   0  0  0  0  0  0  0  0  0  0  0  0
   48.1360   35.2850   41.7990 O   0  0  0  0  0  0  0  0  0  0  0  0
   46.5580   33.8850   40.9340 N   0  0  0  0  0  0  0  0  0  0  0  0
   45.4870   32.9510   41.1460 C   0  0  0  0  0  3  0  0  0  0  0  0
   45.8330   32.0300   41.6440 H   0  0  0  0  0  0  0  0  0  0  0  0
   44.7090   32.6800   39.8890 C   0  0  0  0  0  3  0  0  0  0  0  0
   44.1170   33.5790   39.6230 H   0  0  0  0  0  0  0  0  0  0  0  0
   45.5160   32.2340   38.7940 N   0  0  0  0  0  0  0  0  0  0  0  0
   45.4550   31.2100   38.6640 H   0  0  0  0  0  0  0  0  0  0  0  0
   46.8970   32.6160   38.8750 C   0  0  0  0  0  2  0  0  0  0  0  0
   47.1130   33.9150   39.6110 C   0  0  0  0  0  2  0  0  0  0  0  0
   44.5590   36.1180   44.3370 C   0  0  0  0  0  0  0  0  0  0  0  0
   45.3540   35.9530   43.1960 C   0  0  0  0  0  0  0  0  0  0  0  0
   46.2240   34.8690   43.1710 C   0  0  0  0  0  0  0  0  0  0  0  0
   46.2580   34.0290   44.2440 N   0  0  0  0  0  0  0  0  0  0  0  0
   45.4690   34.2290   45.3260 C   0  0  0  0  0  0  0  0  0  0  0  0
   44.6110   35.2810   45.3750 N   0  0  0  0  0  0  0  0  0  0  0  0
   43.8620   36.9500   44.4070 H   0  0  0  0  0  0  0  0  0  0  0  0
   45.2310   36.6840   42.4210 H   0  0  0  0  0  0  0  0  0  0  0  0
   45.6710   33.4400   46.0440 H   0  0  0  0  0  0  0  0  0  0  0  0
  1 14  1  0  0  0  0
  2  1  2  0  0  0  0
  3  4  1  0  0  0  0
  3  1  1  0  0  0  0
  4  5  1  0  0  0  0
  6  4  1  0  0  0  0
  7  6  1  0  0  0  0
  8 10  1  0  0  0  0
  8  6  1  0  0  0  0
  9  8  1  0  0  0  0
 10 11  1  0  0  0  0
 11  3  1  0  0  0  0
 12 18  1  0  0  0  0
 12 17  1  0  0  0  0
 13 12  2  0  0  0  0
 14 13  1  0  0  0  0
 14 15  2  0  0  0  0
 15 16  1  0  0  0  0
 16 17  2  0  0  0  0
 16 20  1  0  0  0  0
 19 13  1  0  0  0  0
M  END
>  <minimizedAffinity>
-3.98855996

>  <minimizedRMSD>
0.172278389

$$$$
