
 OpenBabel03252504003D

 34 37  0  0  0  0  0  0  0  0999 V2000
   46.9370   34.9580   42.6580 C   0  0  0  0  0  0  0  0  0  0  0  0
   45.9980   35.9900   42.5560 C   0  0  0  0  0  0  0  0  0  0  0  0
   44.9620   36.0050   43.4900 C   0  0  0  0  0  0  0  0  0  0  0  0
   44.9190   35.0270   44.4400 N   0  0  0  0  0  0  0  0  0  0  0  0
   45.8530   34.0530   44.4940 C   0  0  0  0  0  0  0  0  0  0  0  0
   46.8610   34.0160   43.6060 N   0  0  0  0  0  0  0  0  0  0  0  0
   45.9900   36.7780   41.8280 H   0  0  0  0  0  0  0  0  0  0  0  0
   44.1930   36.7780   43.4720 H   0  0  0  0  0  0  0  0  0  0  0  0
   46.0470   31.7010   45.1350 C   0  0  0  0  0  0  0  0  0  0  0  0
   45.8070   33.0020   45.5160 C   0  0  0  0  0  0  0  0  0  0  0  0
   45.5350   33.2680   46.8330 C   0  0  0  0  0  0  0  0  0  0  0  0
   45.4960   32.2640   47.7730 C   0  0  0  0  0  0  0  0  0  0  0  0
   45.2660   32.2220   49.0880 N   0  0  0  0  0  0  0  0  0  0  0  0
   45.3530   30.9460   49.5370 C   0  0  0  0  0  0  0  0  0  0  0  0
   45.6540   30.1120   48.4710 C   0  0  0  0  0  0  0  0  0  0  0  0
   45.7420   30.9380   47.3790 C   0  0  0  0  0  0  0  0  0  0  0  0
   46.0170   30.6700   46.0510 C   0  0  0  0  0  0  0  0  0  0  0  0
   46.2660   31.4410   44.1050 H   0  0  0  0  0  0  0  0  0  0  0  0
   45.3470   34.3050   47.1180 H   0  0  0  0  0  0  0  0  0  0  0  0
   45.0500   33.0960   49.6430 H   0  0  0  0  0  0  0  0  0  0  0  0
   45.1990   30.6740   50.5820 H   0  0  0  0  0  0  0  0  0  0  0  0
   45.7880   29.0280   48.5120 H   0  0  0  0  0  0  0  0  0  0  0  0
   46.2050   29.6300   45.7640 H   0  0  0  0  0  0  0  0  0  0  0  0
   47.9740   35.0050   41.6660 C   0  0  0  0  0  0  0  0  0  0  0  0
   48.8700   35.9170   41.5700 O   0  0  0  0  0  0  0  0  0  0  0  0
   47.9490   33.9140   40.7350 N   0  0  0  0  0  0  0  0  0  0  0  0
   47.0190   33.7270   39.6340 C   0  0  0  0  0  3  0  0  0  0  0  0
   46.3040   34.5700   39.5570 H   0  0  0  0  0  0  0  0  0  0  0  0
   46.2880   32.4460   39.8050 C   0  0  0  0  0  3  0  0  0  0  0  0
   46.2130   31.9350   38.8040 H   0  0  0  0  0  0  0  0  0  0  0  0
   46.8500   31.5640   40.7950 N   0  0  0  0  0  0  0  0  0  0  0  0
   46.5000   30.6050   40.5740 H   0  0  0  0  0  0  0  0  0  0  0  0
   48.2900   31.5080   40.7680 C   0  0  0  0  0  2  0  0  0  0  0  0
   48.9340   32.8590   40.8640 C   0  0  0  0  0  2  0  0  0  0  0  0
  1  6  1  0  0  0  0
  2  1  2  0  0  0  0
  2  3  1  0  0  0  0
  3  4  2  0  0  0  0
  4  5  1  0  0  0  0
  5 10  1  0  0  0  0
  6  5  2  0  0  0  0
  7  2  1  0  0  0  0
  8  3  1  0  0  0  0
  9 10  2  0  0  0  0
  9 17  1  0  0  0  0
 10 11  1  0  0  0  0
 11 19  1  0  0  0  0
 11 12  2  0  0  0  0
 12 13  1  0  0  0  0
 13 14  1  0  0  0  0
 13 20  1  0  0  0  0
 14 21  1  0  0  0  0
 15 22  1  0  0  0  0
 15 14  2  0  0  0  0
 16 12  1  0  0  0  0
 16 15  1  0  0  0  0
 17 16  2  0  0  0  0
 18  9  1  0  0  0  0
 23 17  1  0  0  0  0
 24  1  1  0  0  0  0
 25 24  2  0  0  0  0
 26 34  1  0  0  0  0
 26 24  1  0  0  0  0
 27 29  1  0  0  0  0
 27 26  1  0  0  0  0
 28 27  1  0  0  0  0
 29 31  1  0  0  0  0
 30 29  1  0  0  0  0
 32 31  1  0  0  0  0
 33 31  1  0  0  0  0
 33 34  1  0  0  0  0
M  END
>  <minimizedAffinity>
-6.15951252

>  <minimizedRMSD>
0.108660206

$$$$
