
 OpenBabel03242522513D

 26 27  0  0  0  0  0  0  0  0999 V2000
   45.3980   30.7910   47.5480 O   0  0  0  0  0  0  0  0  0  0  0  0
   45.8050   32.0380   48.3600 P   0  0  2  0  0  0  0  0  0  0  0  0
   45.2230   31.7760   49.9170 O   0  0  0  0  0  0  0  0  0  0  0  0
   44.3570   32.2240   50.0900 H   0  0  0  0  0  0  0  0  0  0  0  0
   45.0440   33.3830   47.6730 O   0  0  0  0  0  0  0  0  0  0  0  0
   46.6920   33.4960   44.4330 C   0  0  0  0  0  0  0  0  0  0  0  0
   46.3380   33.1100   45.7440 C   0  0  0  0  0  0  0  0  0  0  0  0
   45.3440   33.8030   46.3940 C   0  0  0  0  0  0  0  0  0  0  0  0
   44.7350   34.8370   45.7510 N   0  0  0  0  0  0  0  0  0  0  0  0
   45.0900   35.1870   44.4990 C   0  0  0  0  0  0  0  0  0  0  0  0
   46.0530   34.5330   43.8400 N   0  0  0  0  0  0  0  0  0  0  0  0
   47.4630   33.0060   43.8510 H   0  0  0  0  0  0  0  0  0  0  0  0
   46.9260   32.2780   46.0750 H   0  0  0  0  0  0  0  0  0  0  0  0
   44.5370   36.0370   44.0690 H   0  0  0  0  0  0  0  0  0  0  0  0
   47.4440   32.2380   48.3410 O   0  0  0  0  0  0  0  0  0  0  0  0
   48.4500   31.3970   48.6960 C   0  0  0  0  0  0  0  0  0  0  0  0
   49.3850   31.9630   49.3640 O   0  0  0  0  0  0  0  0  0  0  0  0
   49.1550   30.1660   48.7820 N   0  0  0  0  0  0  0  0  0  0  0  0
   48.8410   29.3760   47.5940 C   0  0  0  0  0  0  0  0  0  0  0  0
   49.1690   29.8500   46.6540 H   0  0  0  0  0  0  0  0  0  0  0  0
   49.5460   28.0480   47.7790 C   0  0  0  0  0  0  0  0  0  0  0  0
   50.6440   28.1250   47.6340 H   0  0  0  0  0  0  0  0  0  0  0  0
   49.3550   27.5760   49.1600 N   0  0  0  0  0  0  0  0  0  0  0  0
   48.3980   27.9320   49.4360 H   0  0  0  0  0  0  0  0  0  0  0  0
   50.3080   28.3100   49.9460 C   0  0  0  0  0  0  0  0  0  0  0  0
   50.0320   29.7610   49.8610 C   0  0  0  0  0  0  0  0  0  0  0  0
  2  1  2  6  0  0  0
  2  3  1  0  0  0  0
  3  4  1  0  0  0  0
  5  2  1  0  0  0  0
  6  7  1  0  0  0  0
  7 13  1  0  0  0  0
  7  8  2  0  0  0  0
  8  5  1  0  0  0  0
  9  8  1  0  0  0  0
 10  9  2  0  0  0  0
 11  6  2  0  0  0  0
 11 10  1  0  0  0  0
 12  6  1  0  0  0  0
 14 10  1  0  0  0  0
 15  2  1  0  0  0  0
 15 16  1  0  0  0  0
 16 18  1  0  0  0  0
 16 17  2  0  0  0  0
 18 26  1  0  0  0  0
 19 21  1  0  0  0  0
 19 18  1  0  0  0  0
 20 19  1  0  0  0  0
 21 23  1  0  0  0  0
 22 21  1  0  0  0  0
 23 24  1  0  0  0  0
 23 25  1  0  0  0  0
 26 25  1  0  0  0  0
M  END
>  <minimizedAffinity>
-5.1648531

>  <minimizedRMSD>
0.28060478

$$$$
