
 OpenBabel03252501113D

 20 21  0  0  0  0  0  0  0  0999 V2000
   47.1170   34.7110   42.1520 C   0  0  0  0  0  0  0  0  0  0  0  0
   48.2440   35.2460   42.0310 O   0  0  0  0  0  0  0  0  0  0  0  0
   46.6560   33.9380   41.0460 N   0  0  0  0  0  0  0  0  0  0  0  0
   47.2770   34.0350   39.7550 C   0  0  0  0  0  3  0  0  0  0  0  0
   46.9380   34.9260   39.1980 H   0  0  0  0  0  0  0  0  0  0  0  0
   47.1490   32.7650   38.9620 C   0  0  0  0  0  3  0  0  0  0  0  0
   47.7930   31.9840   39.4160 H   0  0  0  0  0  0  0  0  0  0  0  0
   45.7990   32.3140   38.8060 N   0  0  0  0  0  0  0  0  0  0  0  0
   45.4200   32.5500   37.8740 H   0  0  0  0  0  0  0  0  0  0  0  0
   44.8920   32.7860   39.8140 C   0  0  0  0  0  2  0  0  0  0  0  0
   45.5560   33.0240   41.1480 C   0  0  0  0  0  2  0  0  0  0  0  0
   44.5510   36.0240   44.4500 C   0  0  0  0  0  0  0  0  0  0  0  0
   45.3810   35.8900   43.3290 C   0  0  0  0  0  0  0  0  0  0  0  0
   46.2750   34.8250   43.3160 C   0  0  0  0  0  0  0  0  0  0  0  0
   46.2970   33.9730   44.3800 N   0  0  0  0  0  0  0  0  0  0  0  0
   45.4730   34.1440   45.4420 C   0  0  0  0  0  0  0  0  0  0  0  0
   44.5920   35.1760   45.4790 N   0  0  0  0  0  0  0  0  0  0  0  0
   43.8350   36.8410   44.5090 H   0  0  0  0  0  0  0  0  0  0  0  0
   45.2640   36.6270   42.5600 H   0  0  0  0  0  0  0  0  0  0  0  0
   45.6720   33.3500   46.1560 H   0  0  0  0  0  0  0  0  0  0  0  0
  1 14  1  0  0  0  0
  2  1  2  0  0  0  0
  3 11  1  0  0  0  0
  3  1  1  0  0  0  0
  4  3  1  0  0  0  0
  5  4  1  0  0  0  0
  6  7  1  0  0  0  0
  6  4  1  0  0  0  0
  8  6  1  0  0  0  0
  8 10  1  0  0  0  0
  9  8  1  0  0  0  0
 10 11  1  0  0  0  0
 12 18  1  0  0  0  0
 12 17  1  0  0  0  0
 13 12  2  0  0  0  0
 14 13  1  0  0  0  0
 14 15  2  0  0  0  0
 15 16  1  0  0  0  0
 16 17  2  0  0  0  0
 16 20  1  0  0  0  0
 19 13  1  0  0  0  0
M  END
>  <minimizedAffinity>
-4.00196457

>  <minimizedRMSD>
0.23850511

$$$$
