REMARK  Name = 
REMARK  1 active torsions:
REMARK  status: ('A' for Active; 'I' for Inactive)
REMARK    1  A    between atoms: C_3  and  C_7
REMARK                            x       y       z     vdW  Elec       q    Type
REMARK                         _______ _______ _______ _____ _____    ______ ____
ROOT
ATOM      1  C   UNL     1      46.969  34.788  41.945  0.00  0.00    +0.000 C 
ATOM      2  O   UNL     1      48.046  35.394  41.736  0.00  0.00    +0.000 OA
ATOM      3  N   UNL     1      46.472  33.984  40.878  0.00  0.00    +0.000 N 
ATOM      4  C   UNL     1      45.689  32.807  41.130  0.00  0.00    +0.000 C 
ATOM      5  H   UNL     1      46.317  31.943  41.408  0.00  0.00    +0.000 HD
ATOM      6  C   UNL     1      44.739  32.501  40.006  0.00  0.00    +0.000 C 
ATOM      7  H   UNL     1      43.930  33.260  39.995  0.00  0.00    +0.000 HD
ATOM      8  N   UNL     1      45.373  32.384  38.728  0.00  0.00    +0.000 NA
ATOM      9  H   UNL     1      45.503  31.396  38.452  0.00  0.00    +0.000 HD
ATOM     10  C   UNL     1      46.630  33.069  38.620  0.00  0.00    +0.000 C 
ATOM     11  C   UNL     1      46.718  34.293  39.499  0.00  0.00    +0.000 C 
ENDROOT
BRANCH   1  14
ATOM     12  C   UNL     1      44.580  35.996  44.480  0.00  0.00    +0.000 A 
ATOM     13  C   UNL     1      45.324  35.911  43.296  0.00  0.00    +0.000 A 
ATOM     14  C   UNL     1      46.216  34.851  43.173  0.00  0.00    +0.000 A 
ATOM     15  N   UNL     1      46.319  33.957  44.197  0.00  0.00    +0.000 NA
ATOM     16  C   UNL     1      45.577  34.081  45.323  0.00  0.00    +0.000 A 
ATOM     17  N   UNL     1      44.700  35.107  45.468  0.00  0.00    +0.000 NA
ATOM     18  H   UNL     1      43.869  36.806  44.626  0.00  0.00    +0.000 HD
ATOM     19  H   UNL     1      45.149  36.678  42.568  0.00  0.00    +0.000 HD
ATOM     20  H   UNL     1      45.830  33.260  45.988  0.00  0.00    +0.000 HD
ENDBRANCH   1  14
TORSDOF 1
