
 OpenBabel03242521193D

 38 40  0  0  0  0  0  0  0  0999 V2000
   40.0470   31.3870   38.8600 C   0  0  0  0  0  0  0  0  0  0  0  0
   39.4430   30.4230   39.6960 C   0  0  0  0  0  0  0  0  0  0  0  0
   38.5510   30.8950   40.6550 C   0  0  0  0  0  0  0  0  0  0  0  0
   38.3010   32.2490   40.7450 N   0  0  0  0  0  0  0  0  0  0  0  0
   38.9050   33.1160   39.9230 C   0  0  0  0  0  0  0  0  0  0  0  0
   39.7870   32.7050   38.9680 N   0  0  0  0  0  0  0  0  0  0  0  0
   40.7500   31.0830   38.0950 H   0  0  0  0  0  0  0  0  0  0  0  0
   39.6780   29.3760   39.5790 H   0  0  0  0  0  0  0  0  0  0  0  0
   37.9290   29.9370   41.5110 N   0  0  0  0  0  0  0  0  0  0  0  0
   38.5920   29.5630   42.6330 C   0  0  0  0  0  0  0  0  0  0  0  0
   38.0090   28.6360   43.4760 C   0  0  0  0  0  0  0  0  0  0  0  0
   36.7770   28.1380   43.1340 C   0  0  0  0  0  0  0  0  0  0  0  0
   36.2340   27.2870   43.9020 O   0  0  0  0  0  0  0  0  0  0  0  0
   36.1140   28.5010   42.0300 N   0  0  0  0  0  0  0  0  0  0  0  0
   36.7330   29.4170   41.2330 C   0  0  0  0  0  0  0  0  0  0  0  0
   36.2040   29.8210   40.1850 O   0  0  0  0  0  0  0  0  0  0  0  0
   39.5670   29.9440   42.9210 H   0  0  0  0  0  0  0  0  0  0  0  0
   38.4950   28.3030   44.3840 H   0  0  0  0  0  0  0  0  0  0  0  0
   35.1610   28.1050   41.7780 H   0  0  0  0  0  0  0  0  0  0  0  0
   38.4800   34.5070   40.2090 C   0  0  0  0  0  0  0  0  0  0  0  0
   37.6010   34.7970   39.6050 H   0  0  0  0  0  0  0  0  0  0  0  0
   38.2030   34.5280   41.2940 H   0  0  0  0  0  0  0  0  0  0  0  0
   39.6450   35.4750   40.0830 C   0  0  0  0  0  0  0  0  0  0  0  0
   40.1210   35.4820   39.1030 H   0  0  0  0  0  0  0  0  0  0  0  0
   39.2590   36.5010   40.2500 H   0  0  0  0  0  0  0  0  0  0  0  0
   41.9180   34.8690   40.7640 C   0  0  0  0  0  0  0  0  0  0  0  0
   42.1940   34.8610   39.5510 O   0  0  0  0  0  0  0  0  0  0  0  0
   40.6010   35.1740   41.1230 N   0  0  0  0  0  0  0  0  0  0  0  0
   40.2540   35.1990   42.0990 H   0  0  0  0  0  0  0  0  0  0  0  0
   42.8950   34.5830   41.7590 N   0  0  0  0  0  0  0  0  0  0  0  0
   43.3560   33.2290   42.0080 C   0  0  0  0  0  3  0  0  0  0  0  0
   42.8620   32.4860   41.3870 H   0  0  0  0  0  0  0  0  0  0  0  0
   44.8660   33.1460   41.9600 C   0  0  0  0  0  3  0  0  0  0  0  0
   45.1370   32.9980   40.8890 H   0  0  0  0  0  0  0  0  0  0  0  0
   45.5100   34.3270   42.4240 N   0  0  0  0  0  0  0  0  0  0  0  0
   46.1920   34.7700   41.8050 H   0  0  0  0  0  0  0  0  0  0  0  0
   44.7170   35.1990   43.2420 C   0  0  0  0  0  2  0  0  0  0  0  0
   43.4540   35.6610   42.5520 C   0  0  0  0  0  2  0  0  0  0  0  0
  1  6  2  0  0  0  0
  1  2  1  0  0  0  0
  2  3  2  0  0  0  0
  3  4  1  0  0  0  0
  3  9  1  0  0  0  0
  5 20  1  0  0  0  0
  5  4  2  0  0  0  0
  6  5  1  0  0  0  0
  7  1  1  0  0  0  0
  8  2  1  0  0  0  0
  9 10  1  0  0  0  0
 10 17  1  0  0  0  0
 10 11  2  0  0  0  0
 11 18  1  0  0  0  0
 12 11  1  0  0  0  0
 12 13  2  0  0  0  0
 14 12  1  0  0  0  0
 15  9  1  0  0  0  0
 15 14  1  0  0  0  0
 16 15  2  0  0  0  0
 19 14  1  0  0  0  0
 20 22  1  0  0  0  0
 21 20  1  0  0  0  0
 23 20  1  0  0  0  0
 23 25  1  0  0  0  0
 23 28  1  0  0  0  0
 24 23  1  0  0  0  0
 26 28  1  0  0  0  0
 26 30  1  0  0  0  0
 27 26  2  0  0  0  0
 28 29  1  0  0  0  0
 30 31  1  0  0  0  0
 30 38  1  0  0  0  0
 32 31  1  0  0  0  0
 33 31  1  0  0  0  0
 33 35  1  0  0  0  0
 34 33  1  0  0  0  0
 35 37  1  0  0  0  0
 36 35  1  0  0  0  0
 38 37  1  0  0  0  0
M  END
>  <minimizedAffinity>
-6.38321924

$$$$

 OpenBabel03242521193D

 38 40  0  0  0  0  0  0  0  0999 V2000
   37.1600   30.3750   36.8180 C   0  0  0  0  0  0  0  0  0  0  0  0
   37.9220   31.4240   37.3750 C   0  0  0  0  0  0  0  0  0  0  0  0
   37.7210   31.6960   38.7260 C   0  0  0  0  0  0  0  0  0  0  0  0
   36.8090   30.9490   39.4430 N   0  0  0  0  0  0  0  0  0  0  0  0
   36.1150   29.9660   38.8580 C   0  0  0  0  0  0  0  0  0  0  0  0
   36.2750   29.6590   37.5390 N   0  0  0  0  0  0  0  0  0  0  0  0
   37.2710   30.1150   35.7730 H   0  0  0  0  0  0  0  0  0  0  0  0
   38.6210   31.9740   36.7650 H   0  0  0  0  0  0  0  0  0  0  0  0
   38.4820   32.7540   39.3110 N   0  0  0  0  0  0  0  0  0  0  0  0
   39.7760   32.5030   39.6300 C   0  0  0  0  0  0  0  0  0  0  0  0
   40.5300   33.5130   40.1980 C   0  0  0  0  0  0  0  0  0  0  0  0
   39.9280   34.7270   40.4100 C   0  0  0  0  0  0  0  0  0  0  0  0
   40.6130   35.6590   40.9310 O   0  0  0  0  0  0  0  0  0  0  0  0
   38.6520   34.9830   40.0980 N   0  0  0  0  0  0  0  0  0  0  0  0
   37.9530   33.9550   39.5420 C   0  0  0  0  0  0  0  0  0  0  0  0
   36.7620   34.0870   39.2160 O   0  0  0  0  0  0  0  0  0  0  0  0
   40.2700   31.5500   39.4700 H   0  0  0  0  0  0  0  0  0  0  0  0
   41.5670   33.3670   40.4710 H   0  0  0  0  0  0  0  0  0  0  0  0
   38.2000   35.9290   40.2710 H   0  0  0  0  0  0  0  0  0  0  0  0
   35.2020   29.3090   39.8250 C   0  0  0  0  0  0  0  0  0  0  0  0
   34.2430   29.8510   39.9120 H   0  0  0  0  0  0  0  0  0  0  0  0
   35.0080   28.2830   39.4190 H   0  0  0  0  0  0  0  0  0  0  0  0
   35.8890   29.0780   41.1610 C   0  0  0  0  0  0  0  0  0  0  0  0
   36.3170   29.9750   41.6080 H   0  0  0  0  0  0  0  0  0  0  0  0
   35.1300   28.7040   41.8770 H   0  0  0  0  0  0  0  0  0  0  0  0
   37.1970   27.2130   42.0600 C   0  0  0  0  0  0  0  0  0  0  0  0
   36.5880   27.4040   43.1280 O   0  0  0  0  0  0  0  0  0  0  0  0
   36.8930   28.0550   40.9850 N   0  0  0  0  0  0  0  0  0  0  0  0
   37.3450   27.9970   40.0540 H   0  0  0  0  0  0  0  0  0  0  0  0
   38.1680   26.1810   41.9240 N   0  0  0  0  0  0  0  0  0  0  0  0
   39.4930   26.2990   42.5060 C   0  0  0  0  0  3  0  0  0  0  0  0
   39.6570   27.2450   43.0130 H   0  0  0  0  0  0  0  0  0  0  0  0
   39.8260   25.0930   43.3570 C   0  0  0  0  0  3  0  0  0  0  0  0
   39.4070   25.3000   44.3700 H   0  0  0  0  0  0  0  0  0  0  0  0
   39.2500   23.8850   42.8750 N   0  0  0  0  0  0  0  0  0  0  0  0
   38.6810   23.3380   43.5240 H   0  0  0  0  0  0  0  0  0  0  0  0
   38.8410   23.8870   41.4990 C   0  0  0  0  0  2  0  0  0  0  0  0
   37.8410   24.9750   41.1870 C   0  0  0  0  0  2  0  0  0  0  0  0
  1  2  2  0  0  0  0
  1  6  1  0  0  0  0
  2  3  1  0  0  0  0
  3  9  1  0  0  0  0
  3  4  2  0  0  0  0
  5  4  1  0  0  0  0
  5 20  1  0  0  0  0
  6  5  2  0  0  0  0
  7  1  1  0  0  0  0
  8  2  1  0  0  0  0
  9 15  1  0  0  0  0
  9 10  1  0  0  0  0
 10 11  2  0  0  0  0
 11 12  1  0  0  0  0
 11 18  1  0  0  0  0
 12 13  2  0  0  0  0
 14 19  1  0  0  0  0
 14 12  1  0  0  0  0
 15 14  1  0  0  0  0
 16 15  2  0  0  0  0
 17 10  1  0  0  0  0
 20 21  1  0  0  0  0
 20 23  1  0  0  0  0
 22 20  1  0  0  0  0
 23 24  1  0  0  0  0
 23 25  1  0  0  0  0
 26 27  2  0  0  0  0
 28 23  1  0  0  0  0
 28 26  1  0  0  0  0
 29 28  1  0  0  0  0
 30 26  1  0  0  0  0
 30 31  1  0  0  0  0
 31 32  1  0  0  0  0
 31 33  1  0  0  0  0
 33 34  1  0  0  0  0
 35 33  1  0  0  0  0
 35 36  1  0  0  0  0
 37 35  1  0  0  0  0
 38 37  1  0  0  0  0
 38 30  1  0  0  0  0
M  END
>  <minimizedAffinity>
-6.189394

$$$$

 OpenBabel03242521193D

 38 40  0  0  0  0  0  0  0  0999 V2000
   37.1380   27.6790   43.6950 C   0  0  0  0  0  0  0  0  0  0  0  0
   37.3330   28.9970   43.2290 C   0  0  0  0  0  0  0  0  0  0  0  0
   37.5510   29.1520   41.8620 C   0  0  0  0  0  0  0  0  0  0  0  0
   37.5660   28.0410   41.0440 N   0  0  0  0  0  0  0  0  0  0  0  0
   37.3740   26.8150   41.5450 C   0  0  0  0  0  0  0  0  0  0  0  0
   37.1570   26.6090   42.8760 N   0  0  0  0  0  0  0  0  0  0  0  0
   36.9640   27.4920   44.7480 H   0  0  0  0  0  0  0  0  0  0  0  0
   37.3110   29.8280   43.9170 H   0  0  0  0  0  0  0  0  0  0  0  0
   37.7520   30.4770   41.3690 N   0  0  0  0  0  0  0  0  0  0  0  0
   38.9950   31.0100   41.4680 C   0  0  0  0  0  0  0  0  0  0  0  0
   39.2110   32.2920   40.9970 C   0  0  0  0  0  0  0  0  0  0  0  0
   38.1500   32.9650   40.4470 C   0  0  0  0  0  0  0  0  0  0  0  0
   38.3390   34.1410   40.0130 O   0  0  0  0  0  0  0  0  0  0  0  0
   36.9200   32.4470   40.3450 N   0  0  0  0  0  0  0  0  0  0  0  0
   36.7600   31.1820   40.8240 C   0  0  0  0  0  0  0  0  0  0  0  0
   35.6590   30.6090   40.7770 O   0  0  0  0  0  0  0  0  0  0  0  0
   39.8470   30.4940   41.8990 H   0  0  0  0  0  0  0  0  0  0  0  0
   40.1830   32.7640   41.0510 H   0  0  0  0  0  0  0  0  0  0  0  0
   36.1080   32.9820   39.9180 H   0  0  0  0  0  0  0  0  0  0  0  0
   37.4340   25.7870   40.4790 C   0  0  0  0  0  0  0  0  0  0  0  0
   36.4500   25.3070   40.3210 H   0  0  0  0  0  0  0  0  0  0  0  0
   37.7330   26.3280   39.5450 H   0  0  0  0  0  0  0  0  0  0  0  0
   38.5560   24.7940   40.7340 C   0  0  0  0  0  0  0  0  0  0  0  0
   38.3160   24.0190   41.4610 H   0  0  0  0  0  0  0  0  0  0  0  0
   38.7750   24.2720   39.7810 H   0  0  0  0  0  0  0  0  0  0  0  0
   40.3420   25.2290   42.3520 C   0  0  0  0  0  0  0  0  0  0  0  0
   39.8200   24.3390   43.0470 O   0  0  0  0  0  0  0  0  0  0  0  0
   39.7340   25.5320   41.1290 N   0  0  0  0  0  0  0  0  0  0  0  0
   40.0720   26.2600   40.4740 H   0  0  0  0  0  0  0  0  0  0  0  0
   41.5140   25.9200   42.7720 N   0  0  0  0  0  0  0  0  0  0  0  0
   41.4690   26.9380   43.8060 C   0  0  0  0  0  3  0  0  0  0  0  0
   40.4680   27.1210   44.1850 H   0  0  0  0  0  0  0  0  0  0  0  0
   42.4830   26.6580   44.8930 C   0  0  0  0  0  3  0  0  0  0  0  0
   41.9880   25.9640   45.6120 H   0  0  0  0  0  0  0  0  0  0  0  0
   43.6680   26.0320   44.4130 N   0  0  0  0  0  0  0  0  0  0  0  0
   43.9570   25.1600   44.8590 H   0  0  0  0  0  0  0  0  0  0  0  0
   43.9200   26.1550   43.0060 C   0  0  0  0  0  2  0  0  0  0  0  0
   42.7920   25.6110   42.1590 C   0  0  0  0  0  2  0  0  0  0  0  0
  1  7  1  0  0  0  0
  2  1  1  0  0  0  0
  2  8  1  0  0  0  0
  3  2  2  0  0  0  0
  4  5  2  0  0  0  0
  4  3  1  0  0  0  0
  5  6  1  0  0  0  0
  6  1  2  0  0  0  0
  9 10  1  0  0  0  0
  9  3  1  0  0  0  0
 10 17  1  0  0  0  0
 11 18  1  0  0  0  0
 11 10  2  0  0  0  0
 12 11  1  0  0  0  0
 13 12  2  0  0  0  0
 14 12  1  0  0  0  0
 14 15  1  0  0  0  0
 15  9  1  0  0  0  0
 16 15  2  0  0  0  0
 19 14  1  0  0  0  0
 20 23  1  0  0  0  0
 20  5  1  0  0  0  0
 21 20  1  0  0  0  0
 22 20  1  0  0  0  0
 23 28  1  0  0  0  0
 23 24  1  0  0  0  0
 25 23  1  0  0  0  0
 26 30  1  0  0  0  0
 26 27  2  0  0  0  0
 28 26  1  0  0  0  0
 29 28  1  0  0  0  0
 30 31  1  0  0  0  0
 31 32  1  0  0  0  0
 31 33  1  0  0  0  0
 33 34  1  0  0  0  0
 35 36  1  0  0  0  0
 35 33  1  0  0  0  0
 37 35  1  0  0  0  0
 38 30  1  0  0  0  0
 38 37  1  0  0  0  0
M  END
>  <minimizedAffinity>
-6.15274286

$$$$

 OpenBabel03242521193D

 38 40  0  0  0  0  0  0  0  0999 V2000
   37.2280   30.3420   37.8600 C   0  0  0  0  0  0  0  0  0  0  0  0
   36.9260   29.9870   39.1930 C   0  0  0  0  0  0  0  0  0  0  0  0
   37.9080   29.2920   39.8940 C   0  0  0  0  0  0  0  0  0  0  0  0
   39.1030   28.9880   39.2740 N   0  0  0  0  0  0  0  0  0  0  0  0
   39.3310   29.3510   38.0060 C   0  0  0  0  0  0  0  0  0  0  0  0
   38.4030   30.0330   37.2760 N   0  0  0  0  0  0  0  0  0  0  0  0
   36.5060   30.8830   37.2620 H   0  0  0  0  0  0  0  0  0  0  0  0
   35.9740   30.2520   39.6260 H   0  0  0  0  0  0  0  0  0  0  0  0
   37.6240   28.9230   41.2440 N   0  0  0  0  0  0  0  0  0  0  0  0
   36.9180   27.7850   41.4560 C   0  0  0  0  0  0  0  0  0  0  0  0
   36.6310   27.4090   42.7550 C   0  0  0  0  0  0  0  0  0  0  0  0
   37.0790   28.2120   43.7730 C   0  0  0  0  0  0  0  0  0  0  0  0
   36.8200   27.8750   44.9680 O   0  0  0  0  0  0  0  0  0  0  0  0
   37.7770   29.3360   43.5740 N   0  0  0  0  0  0  0  0  0  0  0  0
   38.0320   29.6620   42.2760 C   0  0  0  0  0  0  0  0  0  0  0  0
   38.6720   30.6850   41.9820 O   0  0  0  0  0  0  0  0  0  0  0  0
   36.5540   27.1370   40.6640 H   0  0  0  0  0  0  0  0  0  0  0  0
   36.0710   26.5100   42.9790 H   0  0  0  0  0  0  0  0  0  0  0  0
   38.1160   29.9480   44.3730 H   0  0  0  0  0  0  0  0  0  0  0  0
   40.6760   28.9160   37.5600 C   0  0  0  0  0  0  0  0  0  0  0  0
   41.0200   28.0240   38.1150 H   0  0  0  0  0  0  0  0  0  0  0  0
   40.5730   28.6570   36.4750 H   0  0  0  0  0  0  0  0  0  0  0  0
   41.6670   30.0680   37.5960 C   0  0  0  0  0  0  0  0  0  0  0  0
   42.7040   29.7660   37.7390 H   0  0  0  0  0  0  0  0  0  0  0  0
   41.6250   30.5860   36.6160 H   0  0  0  0  0  0  0  0  0  0  0  0
   40.9800   32.3210   38.2640 C   0  0  0  0  0  0  0  0  0  0  0  0
   41.1300   32.6360   37.0700 O   0  0  0  0  0  0  0  0  0  0  0  0
   41.2500   30.9960   38.6210 N   0  0  0  0  0  0  0  0  0  0  0  0
   41.1710   30.6230   39.5850 H   0  0  0  0  0  0  0  0  0  0  0  0
   40.5500   33.2640   39.2410 N   0  0  0  0  0  0  0  0  0  0  0  0
   41.4410   34.2860   39.7590 C   0  0  0  0  0  3  0  0  0  0  0  0
   42.4450   34.2280   39.3490 H   0  0  0  0  0  0  0  0  0  0  0  0
   40.8220   35.6610   39.6450 C   0  0  0  0  0  3  0  0  0  0  0  0
   41.0620   36.0280   38.6200 H   0  0  0  0  0  0  0  0  0  0  0  0
   39.4070   35.6570   39.7970 N   0  0  0  0  0  0  0  0  0  0  0  0
   38.8490   36.0880   39.0570 H   0  0  0  0  0  0  0  0  0  0  0  0
   38.8450   34.5060   40.4430 C   0  0  0  0  0  2  0  0  0  0  0  0
   39.1890   33.2140   39.7410 C   0  0  0  0  0  2  0  0  0  0  0  0
  1  2  1  0  0  0  0
  2  8  1  0  0  0  0
  2  3  2  0  0  0  0
  3  9  1  0  0  0  0
  4  3  1  0  0  0  0
  5  4  2  0  0  0  0
  6  1  2  0  0  0  0
  6  5  1  0  0  0  0
  7  1  1  0  0  0  0
  9 10  1  0  0  0  0
  9 15  1  0  0  0  0
 10 11  2  0  0  0  0
 11 18  1  0  0  0  0
 11 12  1  0  0  0  0
 12 13  2  0  0  0  0
 14 12  1  0  0  0  0
 14 19  1  0  0  0  0
 15 14  1  0  0  0  0
 16 15  2  0  0  0  0
 17 10  1  0  0  0  0
 20 23  1  0  0  0  0
 20  5  1  0  0  0  0
 20 21  1  0  0  0  0
 22 20  1  0  0  0  0
 23 24  1  0  0  0  0
 23 28  1  0  0  0  0
 25 23  1  0  0  0  0
 26 28  1  0  0  0  0
 26 30  1  0  0  0  0
 27 26  2  0  0  0  0
 28 29  1  0  0  0  0
 30 38  1  0  0  0  0
 30 31  1  0  0  0  0
 32 31  1  0  0  0  0
 33 31  1  0  0  0  0
 33 35  1  0  0  0  0
 34 33  1  0  0  0  0
 35 37  1  0  0  0  0
 36 35  1  0  0  0  0
 38 37  1  0  0  0  0
M  END
>  <minimizedAffinity>
-6.13371134

$$$$

 OpenBabel03242521193D

 38 40  0  0  0  0  0  0  0  0999 V2000
   37.0890   28.3860   43.8190 C   0  0  0  0  0  0  0  0  0  0  0  0
   36.9740   27.1020   43.2450 C   0  0  0  0  0  0  0  0  0  0  0  0
   37.9600   26.7320   42.3340 C   0  0  0  0  0  0  0  0  0  0  0  0
   38.9810   27.6130   42.0390 N   0  0  0  0  0  0  0  0  0  0  0  0
   39.0360   28.8180   42.6170 C   0  0  0  0  0  0  0  0  0  0  0  0
   38.0960   29.2290   43.5150 N   0  0  0  0  0  0  0  0  0  0  0  0
   36.3540   28.7330   44.5350 H   0  0  0  0  0  0  0  0  0  0  0  0
   36.1530   26.4560   43.5140 H   0  0  0  0  0  0  0  0  0  0  0  0
   37.8630   25.4370   41.7410 N   0  0  0  0  0  0  0  0  0  0  0  0
   37.0030   25.2760   40.7040 C   0  0  0  0  0  0  0  0  0  0  0  0
   36.8930   24.0300   40.1150 C   0  0  0  0  0  0  0  0  0  0  0  0
   37.6650   23.0110   40.6120 C   0  0  0  0  0  0  0  0  0  0  0  0
   37.5700   21.8650   40.0770 O   0  0  0  0  0  0  0  0  0  0  0  0
   38.5160   23.1600   41.6330 N   0  0  0  0  0  0  0  0  0  0  0  0
   38.5870   24.4070   42.1780 C   0  0  0  0  0  0  0  0  0  0  0  0
   39.3450   24.6520   43.1310 O   0  0  0  0  0  0  0  0  0  0  0  0
   36.3840   26.0690   40.2970 H   0  0  0  0  0  0  0  0  0  0  0  0
   36.2230   23.8480   39.2850 H   0  0  0  0  0  0  0  0  0  0  0  0
   39.1070   22.3600   42.0070 H   0  0  0  0  0  0  0  0  0  0  0  0
   40.2170   29.5820   42.1460 C   0  0  0  0  0  0  0  0  0  0  0  0
   41.1380   29.2730   42.6720 H   0  0  0  0  0  0  0  0  0  0  0  0
   40.3200   29.3480   41.0550 H   0  0  0  0  0  0  0  0  0  0  0  0
   39.9620   31.0790   42.2030 C   0  0  0  0  0  0  0  0  0  0  0  0
   38.9600   31.3780   41.8950 H   0  0  0  0  0  0  0  0  0  0  0  0
   40.0760   31.4070   43.2560 H   0  0  0  0  0  0  0  0  0  0  0  0
   40.7320   31.9420   40.0440 C   0  0  0  0  0  0  0  0  0  0  0  0
   39.6580   31.5180   39.5810 O   0  0  0  0  0  0  0  0  0  0  0  0
   40.9690   31.7430   41.4080 N   0  0  0  0  0  0  0  0  0  0  0  0
   41.8310   32.0410   41.9000 H   0  0  0  0  0  0  0  0  0  0  0  0
   41.6910   32.6060   39.2290 N   0  0  0  0  0  0  0  0  0  0  0  0
   42.5320   31.8790   38.2950 C   0  0  0  0  0  3  0  0  0  0  0  0
   42.3670   30.8060   38.3140 H   0  0  0  0  0  0  0  0  0  0  0  0
   42.4520   32.4760   36.9070 C   0  0  0  0  0  3  0  0  0  0  0  0
   41.5690   32.0060   36.4150 H   0  0  0  0  0  0  0  0  0  0  0  0
   42.2630   33.8860   36.9090 N   0  0  0  0  0  0  0  0  0  0  0  0
   41.4740   34.2600   36.3790 H   0  0  0  0  0  0  0  0  0  0  0  0
   42.6050   34.5670   38.1260 C   0  0  0  0  0  2  0  0  0  0  0  0
   41.8440   34.0460   39.3220 C   0  0  0  0  0  2  0  0  0  0  0  0
  1  7  1  0  0  0  0
  2  8  1  0  0  0  0
  2  1  2  0  0  0  0
  3  2  1  0  0  0  0
  4  3  2  0  0  0  0
  4  5  1  0  0  0  0
  5  6  2  0  0  0  0
  6  1  1  0  0  0  0
  9 15  1  0  0  0  0
  9  3  1  0  0  0  0
 10  9  1  0  0  0  0
 11 12  1  0  0  0  0
 11 10  2  0  0  0  0
 12 14  1  0  0  0  0
 13 12  2  0  0  0  0
 14 19  1  0  0  0  0
 14 15  1  0  0  0  0
 15 16  2  0  0  0  0
 17 10  1  0  0  0  0
 18 11  1  0  0  0  0
 20 23  1  0  0  0  0
 20  5  1  0  0  0  0
 20 21  1  0  0  0  0
 22 20  1  0  0  0  0
 23 25  1  0  0  0  0
 24 23  1  0  0  0  0
 26 28  1  0  0  0  0
 27 26  2  0  0  0  0
 28 29  1  0  0  0  0
 28 23  1  0  0  0  0
 30 38  1  0  0  0  0
 30 26  1  0  0  0  0
 31 32  1  0  0  0  0
 31 30  1  0  0  0  0
 33 35  1  0  0  0  0
 33 31  1  0  0  0  0
 34 33  1  0  0  0  0
 35 37  1  0  0  0  0
 36 35  1  0  0  0  0
 37 38  1  0  0  0  0
M  END
>  <minimizedAffinity>
-6.10115242

$$$$

 OpenBabel03242521193D

 38 40  0  0  0  0  0  0  0  0999 V2000
   37.2720   27.7700   43.6960 C   0  0  0  0  0  0  0  0  0  0  0  0
   38.6240   27.3910   43.8370 C   0  0  0  0  0  0  0  0  0  0  0  0
   39.2370   26.8270   42.7200 C   0  0  0  0  0  0  0  0  0  0  0  0
   38.5150   26.6680   41.5550 N   0  0  0  0  0  0  0  0  0  0  0  0
   37.2340   27.0480   41.4820 C   0  0  0  0  0  0  0  0  0  0  0  0
   36.5880   27.6040   42.5470 N   0  0  0  0  0  0  0  0  0  0  0  0
   36.7400   28.2140   44.5280 H   0  0  0  0  0  0  0  0  0  0  0  0
   39.1380   27.5390   44.7740 H   0  0  0  0  0  0  0  0  0  0  0  0
   40.6050   26.4350   42.8410 N   0  0  0  0  0  0  0  0  0  0  0  0
   41.5520   27.4010   42.7520 C   0  0  0  0  0  0  0  0  0  0  0  0
   42.8830   27.0440   42.8650 C   0  0  0  0  0  0  0  0  0  0  0  0
   43.1810   25.7190   43.0640 C   0  0  0  0  0  0  0  0  0  0  0  0
   44.3990   25.3820   43.1690 O   0  0  0  0  0  0  0  0  0  0  0  0
   42.2530   24.7590   43.1530 N   0  0  0  0  0  0  0  0  0  0  0  0
   40.9580   25.1640   43.0350 C   0  0  0  0  0  0  0  0  0  0  0  0
   40.0200   24.3530   43.1030 O   0  0  0  0  0  0  0  0  0  0  0  0
   41.3370   28.4530   42.5940 H   0  0  0  0  0  0  0  0  0  0  0  0
   43.6780   27.7750   42.8010 H   0  0  0  0  0  0  0  0  0  0  0  0
   42.5000   23.7370   43.3070 H   0  0  0  0  0  0  0  0  0  0  0  0
   36.6730   26.7780   40.1360 C   0  0  0  0  0  0  0  0  0  0  0  0
   37.4080   26.2730   39.4830 H   0  0  0  0  0  0  0  0  0  0  0  0
   35.7970   26.0990   40.2980 H   0  0  0  0  0  0  0  0  0  0  0  0
   36.0860   28.0390   39.5230 C   0  0  0  0  0  0  0  0  0  0  0  0
   35.6500   27.8970   38.5340 H   0  0  0  0  0  0  0  0  0  0  0  0
   35.2630   28.3880   40.1790 H   0  0  0  0  0  0  0  0  0  0  0  0
   36.8500   30.2960   40.0870 C   0  0  0  0  0  0  0  0  0  0  0  0
   35.7250   30.4640   40.5920 O   0  0  0  0  0  0  0  0  0  0  0  0
   37.1120   29.0540   39.4990 N   0  0  0  0  0  0  0  0  0  0  0  0
   38.0060   28.8040   39.0380 H   0  0  0  0  0  0  0  0  0  0  0  0
   37.8400   31.3180   40.1000 N   0  0  0  0  0  0  0  0  0  0  0  0
   37.7610   32.4680   39.2170 C   0  0  0  0  0  3  0  0  0  0  0  0
   36.9030   32.4400   38.5510 H   0  0  0  0  0  0  0  0  0  0  0  0
   37.8800   33.7620   39.9920 C   0  0  0  0  0  3  0  0  0  0  0  0
   36.8510   34.0120   40.3430 H   0  0  0  0  0  0  0  0  0  0  0  0
   38.7280   33.6630   41.1300 N   0  0  0  0  0  0  0  0  0  0  0  0
   38.3450   33.9470   42.0330 H   0  0  0  0  0  0  0  0  0  0  0  0
   39.6500   32.5630   41.1360 C   0  0  0  0  0  2  0  0  0  0  0  0
   38.9630   31.2230   41.0130 C   0  0  0  0  0  2  0  0  0  0  0  0
  1  2  1  0  0  0  0
  1  7  1  0  0  0  0
  2  8  1  0  0  0  0
  3  9  1  0  0  0  0
  3  2  2  0  0  0  0
  4  3  1  0  0  0  0
  5  4  2  0  0  0  0
  5  6  1  0  0  0  0
  6  1  2  0  0  0  0
  9 15  1  0  0  0  0
 10  9  1  0  0  0  0
 10 11  2  0  0  0  0
 11 12  1  0  0  0  0
 12 14  1  0  0  0  0
 12 13  2  0  0  0  0
 14 19  1  0  0  0  0
 15 16  2  0  0  0  0
 15 14  1  0  0  0  0
 17 10  1  0  0  0  0
 18 11  1  0  0  0  0
 20 22  1  0  0  0  0
 20  5  1  0  0  0  0
 21 20  1  0  0  0  0
 23 20  1  0  0  0  0
 23 25  1  0  0  0  0
 24 23  1  0  0  0  0
 26 30  1  0  0  0  0
 26 27  2  0  0  0  0
 28 23  1  0  0  0  0
 28 26  1  0  0  0  0
 29 28  1  0  0  0  0
 30 38  1  0  0  0  0
 31 33  1  0  0  0  0
 31 30  1  0  0  0  0
 32 31  1  0  0  0  0
 33 34  1  0  0  0  0
 33 35  1  0  0  0  0
 35 37  1  0  0  0  0
 35 36  1  0  0  0  0
 38 37  1  0  0  0  0
M  END
>  <minimizedAffinity>
-6.05897856

$$$$

 OpenBabel03242521193D

 38 40  0  0  0  0  0  0  0  0999 V2000
   37.5780   31.3730   38.1310 C   0  0  0  0  0  0  0  0  0  0  0  0
   37.3290   30.9390   39.4510 C   0  0  0  0  0  0  0  0  0  0  0  0
   37.8100   29.6790   39.7980 C   0  0  0  0  0  0  0  0  0  0  0  0
   38.4920   28.9280   38.8620 N   0  0  0  0  0  0  0  0  0  0  0  0
   38.6970   29.3940   37.6250 C   0  0  0  0  0  0  0  0  0  0  0  0
   38.2470   30.6210   37.2350 N   0  0  0  0  0  0  0  0  0  0  0  0
   37.2300   32.3430   37.8000 H   0  0  0  0  0  0  0  0  0  0  0  0
   36.7900   31.5700   40.1400 H   0  0  0  0  0  0  0  0  0  0  0  0
   37.5690   29.2200   41.1280 N   0  0  0  0  0  0  0  0  0  0  0  0
   38.4900   29.5160   42.0790 C   0  0  0  0  0  0  0  0  0  0  0  0
   38.2770   29.0800   43.3740 C   0  0  0  0  0  0  0  0  0  0  0  0
   37.1350   28.3660   43.6340 C   0  0  0  0  0  0  0  0  0  0  0  0
   36.9310   27.9620   44.8200 O   0  0  0  0  0  0  0  0  0  0  0  0
   36.2210   28.0690   42.7030 N   0  0  0  0  0  0  0  0  0  0  0  0
   36.4790   28.5210   41.4440 C   0  0  0  0  0  0  0  0  0  0  0  0
   35.6950   28.3010   40.5070 O   0  0  0  0  0  0  0  0  0  0  0  0
   39.3990   30.0790   41.8930 H   0  0  0  0  0  0  0  0  0  0  0  0
   38.9790   29.2890   44.1700 H   0  0  0  0  0  0  0  0  0  0  0  0
   35.3420   27.5140   42.9210 H   0  0  0  0  0  0  0  0  0  0  0  0
   39.4480   28.4140   36.8030 C   0  0  0  0  0  0  0  0  0  0  0  0
   39.0000   27.4060   36.8620 H   0  0  0  0  0  0  0  0  0  0  0  0
   39.3850   28.7840   35.7480 H   0  0  0  0  0  0  0  0  0  0  0  0
   40.9310   28.4370   37.1390 C   0  0  0  0  0  0  0  0  0  0  0  0
   41.2570   27.6300   37.7940 H   0  0  0  0  0  0  0  0  0  0  0  0
   41.4980   28.3200   36.1930 H   0  0  0  0  0  0  0  0  0  0  0  0
   42.1150   30.5770   37.0080 C   0  0  0  0  0  0  0  0  0  0  0  0
   42.5810   30.1620   35.9310 O   0  0  0  0  0  0  0  0  0  0  0  0
   41.2490   29.7280   37.7040 N   0  0  0  0  0  0  0  0  0  0  0  0
   40.8110   29.9600   38.6150 H   0  0  0  0  0  0  0  0  0  0  0  0
   42.4420   31.8630   37.5220 N   0  0  0  0  0  0  0  0  0  0  0  0
   43.7330   32.1380   38.1270 C   0  0  0  0  0  3  0  0  0  0  0  0
   44.3830   31.2680   38.1650 H   0  0  0  0  0  0  0  0  0  0  0  0
   44.3840   33.3510   37.5010 C   0  0  0  0  0  3  0  0  0  0  0  0
   44.9300   32.9820   36.6000 H   0  0  0  0  0  0  0  0  0  0  0  0
   43.4510   34.3400   37.0830 N   0  0  0  0  0  0  0  0  0  0  0  0
   43.4980   34.6570   36.1120 H   0  0  0  0  0  0  0  0  0  0  0  0
   42.1470   34.2690   37.6780 C   0  0  0  0  0  2  0  0  0  0  0  0
   41.4700   32.9380   37.4470 C   0  0  0  0  0  2  0  0  0  0  0  0
  1  2  1  0  0  0  0
  2  3  2  0  0  0  0
  2  8  1  0  0  0  0
  3  9  1  0  0  0  0
  4  3  1  0  0  0  0
  5  4  2  0  0  0  0
  6  5  1  0  0  0  0
  6  1  2  0  0  0  0
  7  1  1  0  0  0  0
  9 15  1  0  0  0  0
  9 10  1  0  0  0  0
 10 11  2  0  0  0  0
 11 12  1  0  0  0  0
 11 18  1  0  0  0  0
 12 13  2  0  0  0  0
 14 19  1  0  0  0  0
 14 12  1  0  0  0  0
 15 14  1  0  0  0  0
 16 15  2  0  0  0  0
 17 10  1  0  0  0  0
 20 21  1  0  0  0  0
 20 23  1  0  0  0  0
 20  5  1  0  0  0  0
 22 20  1  0  0  0  0
 23 28  1  0  0  0  0
 23 24  1  0  0  0  0
 25 23  1  0  0  0  0
 26 30  1  0  0  0  0
 26 28  1  0  0  0  0
 27 26  2  0  0  0  0
 28 29  1  0  0  0  0
 30 31  1  0  0  0  0
 31 32  1  0  0  0  0
 33 31  1  0  0  0  0
 34 33  1  0  0  0  0
 35 33  1  0  0  0  0
 35 37  1  0  0  0  0
 36 35  1  0  0  0  0
 38 30  1  0  0  0  0
 38 37  1  0  0  0  0
M  END
>  <minimizedAffinity>
-5.96327591

$$$$

 OpenBabel03242521193D

 38 40  0  0  0  0  0  0  0  0999 V2000
   38.4040   31.3720   37.8540 C   0  0  0  0  0  0  0  0  0  0  0  0
   39.4530   32.1450   38.3970 C   0  0  0  0  0  0  0  0  0  0  0  0
   39.3540   32.4760   39.7460 C   0  0  0  0  0  0  0  0  0  0  0  0
   38.2640   32.0460   40.4750 N   0  0  0  0  0  0  0  0  0  0  0  0
   37.3000   31.3140   39.9030 C   0  0  0  0  0  0  0  0  0  0  0  0
   37.3490   30.9640   38.5860 N   0  0  0  0  0  0  0  0  0  0  0  0
   38.4230   31.0820   36.8110 H   0  0  0  0  0  0  0  0  0  0  0  0
   40.2810   32.4530   37.7780 H   0  0  0  0  0  0  0  0  0  0  0  0
   40.4030   33.2580   40.3170 N   0  0  0  0  0  0  0  0  0  0  0  0
   41.5410   32.6190   40.6870 C   0  0  0  0  0  0  0  0  0  0  0  0
   42.5700   33.3570   41.2420 C   0  0  0  0  0  0  0  0  0  0  0  0
   42.3870   34.7090   41.3910 C   0  0  0  0  0  0  0  0  0  0  0  0
   43.3260   35.3940   41.9000 O   0  0  0  0  0  0  0  0  0  0  0  0
   41.2690   35.3470   41.0290 N   0  0  0  0  0  0  0  0  0  0  0  0
   40.2860   34.5740   40.4870 C   0  0  0  0  0  0  0  0  0  0  0  0
   39.2080   35.0680   40.1180 O   0  0  0  0  0  0  0  0  0  0  0  0
   41.7050   31.5520   40.5780 H   0  0  0  0  0  0  0  0  0  0  0  0
   43.4990   32.8980   41.5540 H   0  0  0  0  0  0  0  0  0  0  0  0
   41.1420   36.3950   41.1520 H   0  0  0  0  0  0  0  0  0  0  0  0
   36.2380   30.9720   40.8810 C   0  0  0  0  0  0  0  0  0  0  0  0
   36.4610   31.3820   41.8830 H   0  0  0  0  0  0  0  0  0  0  0  0
   35.2980   31.4420   40.4920 H   0  0  0  0  0  0  0  0  0  0  0  0
   35.9570   29.4790   40.8870 C   0  0  0  0  0  0  0  0  0  0  0  0
   35.2640   29.1540   41.6630 H   0  0  0  0  0  0  0  0  0  0  0  0
   35.4870   29.2140   39.9180 H   0  0  0  0  0  0  0  0  0  0  0  0
   37.4040   27.8730   42.0380 C   0  0  0  0  0  0  0  0  0  0  0  0
   36.4680   27.7280   42.8440 O   0  0  0  0  0  0  0  0  0  0  0  0
   37.2160   28.7790   40.9890 N   0  0  0  0  0  0  0  0  0  0  0  0
   37.9280   28.9900   40.2660 H   0  0  0  0  0  0  0  0  0  0  0  0
   38.6240   27.1500   42.1650 N   0  0  0  0  0  0  0  0  0  0  0  0
   39.6120   27.4940   43.1710 C   0  0  0  0  0  3  0  0  0  0  0  0
   39.3320   28.3540   43.7720 H   0  0  0  0  0  0  0  0  0  0  0  0
   40.0000   26.2850   43.9930 C   0  0  0  0  0  3  0  0  0  0  0  0
   39.2490   26.2110   44.8140 H   0  0  0  0  0  0  0  0  0  0  0  0
   39.9740   25.0680   43.2550 N   0  0  0  0  0  0  0  0  0  0  0  0
   39.4160   24.2980   43.6290 H   0  0  0  0  0  0  0  0  0  0  0  0
   40.0250   25.1960   41.8260 C   0  0  0  0  0  2  0  0  0  0  0  0
   38.9010   26.0400   41.2730 C   0  0  0  0  0  2  0  0  0  0  0  0
  1  2  2  0  0  0  0
  1  6  1  0  0  0  0
  2  3  1  0  0  0  0
  3  9  1  0  0  0  0
  3  4  2  0  0  0  0
  5  4  1  0  0  0  0
  5 20  1  0  0  0  0
  6  5  2  0  0  0  0
  7  1  1  0  0  0  0
  8  2  1  0  0  0  0
  9 15  1  0  0  0  0
  9 10  1  0  0  0  0
 10 11  2  0  0  0  0
 11 12  1  0  0  0  0
 11 18  1  0  0  0  0
 12 13  2  0  0  0  0
 14 19  1  0  0  0  0
 14 12  1  0  0  0  0
 15 14  1  0  0  0  0
 16 15  2  0  0  0  0
 17 10  1  0  0  0  0
 20 23  1  0  0  0  0
 20 21  1  0  0  0  0
 22 20  1  0  0  0  0
 23 28  1  0  0  0  0
 23 24  1  0  0  0  0
 25 23  1  0  0  0  0
 26 30  1  0  0  0  0
 26 27  2  0  0  0  0
 28 26  1  0  0  0  0
 29 28  1  0  0  0  0
 30 31  1  0  0  0  0
 31 32  1  0  0  0  0
 31 33  1  0  0  0  0
 33 34  1  0  0  0  0
 35 36  1  0  0  0  0
 35 33  1  0  0  0  0
 37 35  1  0  0  0  0
 38 37  1  0  0  0  0
 38 30  1  0  0  0  0
M  END
>  <minimizedAffinity>
-5.9565444

$$$$

 OpenBabel03242521193D

 38 40  0  0  0  0  0  0  0  0999 V2000
   36.2590   30.8580   41.0540 C   0  0  0  0  0  0  0  0  0  0  0  0
   37.2780   31.5360   40.3500 C   0  0  0  0  0  0  0  0  0  0  0  0
   38.2150   30.7470   39.6890 C   0  0  0  0  0  0  0  0  0  0  0  0
   38.1120   29.3720   39.7480 N   0  0  0  0  0  0  0  0  0  0  0  0
   37.1220   28.7860   40.4320 C   0  0  0  0  0  0  0  0  0  0  0  0
   36.1790   29.5130   41.0960 N   0  0  0  0  0  0  0  0  0  0  0  0
   35.5000   31.4150   41.5880 H   0  0  0  0  0  0  0  0  0  0  0  0
   37.3080   32.6140   40.3400 H   0  0  0  0  0  0  0  0  0  0  0  0
   39.2550   31.4120   38.9710 N   0  0  0  0  0  0  0  0  0  0  0  0
   40.3810   31.7480   39.6500 C   0  0  0  0  0  0  0  0  0  0  0  0
   41.3990   32.3940   38.9740 C   0  0  0  0  0  0  0  0  0  0  0  0
   41.2200   32.6640   37.6410 C   0  0  0  0  0  0  0  0  0  0  0  0
   42.1500   33.2560   37.0140 O   0  0  0  0  0  0  0  0  0  0  0  0
   40.1140   32.3360   36.9640 N   0  0  0  0  0  0  0  0  0  0  0  0
   39.1410   31.7020   37.6750 C   0  0  0  0  0  0  0  0  0  0  0  0
   38.0740   31.3550   37.1420 O   0  0  0  0  0  0  0  0  0  0  0  0
   40.5410   31.5440   40.7040 H   0  0  0  0  0  0  0  0  0  0  0  0
   42.3180   32.6830   39.4680 H   0  0  0  0  0  0  0  0  0  0  0  0
   39.9900   32.5530   35.9310 H   0  0  0  0  0  0  0  0  0  0  0  0
   37.2190   27.3080   40.3500 C   0  0  0  0  0  0  0  0  0  0  0  0
   36.3000   26.8630   39.9270 H   0  0  0  0  0  0  0  0  0  0  0  0
   38.0800   27.0930   39.6670 H   0  0  0  0  0  0  0  0  0  0  0  0
   37.6210   26.7080   41.6880 C   0  0  0  0  0  0  0  0  0  0  0  0
   37.2050   27.2220   42.5550 H   0  0  0  0  0  0  0  0  0  0  0  0
   37.2370   25.6690   41.7260 H   0  0  0  0  0  0  0  0  0  0  0  0
   39.6860   26.7170   43.0020 C   0  0  0  0  0  0  0  0  0  0  0  0
   38.9550   26.8160   44.0040 O   0  0  0  0  0  0  0  0  0  0  0  0
   39.0630   26.6640   41.7520 N   0  0  0  0  0  0  0  0  0  0  0  0
   39.5690   26.5950   40.8500 H   0  0  0  0  0  0  0  0  0  0  0  0
   41.1050   26.6600   43.1110 N   0  0  0  0  0  0  0  0  0  0  0  0
   41.8950   27.8400   43.4100 C   0  0  0  0  0  3  0  0  0  0  0  0
   41.2990   28.7430   43.5080 H   0  0  0  0  0  0  0  0  0  0  0  0
   42.8190   27.5980   44.5830 C   0  0  0  0  0  3  0  0  0  0  0  0
   42.2230   27.8150   45.5000 H   0  0  0  0  0  0  0  0  0  0  0  0
   43.2900   26.2580   44.6630 N   0  0  0  0  0  0  0  0  0  0  0  0
   43.1480   25.7570   45.5430 H   0  0  0  0  0  0  0  0  0  0  0  0
   43.2010   25.4850   43.4570 C   0  0  0  0  0  2  0  0  0  0  0  0
   41.7920   25.3970   42.9200 C   0  0  0  0  0  2  0  0  0  0  0  0
  1  6  1  0  0  0  0
  1  7  1  0  0  0  0
  2  1  2  0  0  0  0
  3  4  2  0  0  0  0
  3  2  1  0  0  0  0
  4  5  1  0  0  0  0
  5  6  2  0  0  0  0
  8  2  1  0  0  0  0
  9 10  1  0  0  0  0
  9  3  1  0  0  0  0
 10 17  1  0  0  0  0
 11 18  1  0  0  0  0
 11 10  2  0  0  0  0
 12 11  1  0  0  0  0
 13 12  2  0  0  0  0
 14 12  1  0  0  0  0
 14 15  1  0  0  0  0
 15  9  1  0  0  0  0
 16 15  2  0  0  0  0
 19 14  1  0  0  0  0
 20  5  1  0  0  0  0
 20 23  1  0  0  0  0
 21 20  1  0  0  0  0
 22 20  1  0  0  0  0
 23 25  1  0  0  0  0
 23 28  1  0  0  0  0
 23 24  1  0  0  0  0
 26 30  1  0  0  0  0
 26 27  2  0  0  0  0
 28 26  1  0  0  0  0
 29 28  1  0  0  0  0
 30 31  1  0  0  0  0
 31 32  1  0  0  0  0
 31 33  1  0  0  0  0
 33 35  1  0  0  0  0
 33 34  1  0  0  0  0
 35 36  1  0  0  0  0
 37 35  1  0  0  0  0
 38 30  1  0  0  0  0
 38 37  1  0  0  0  0
M  END
>  <minimizedAffinity>
-5.87124443

$$$$
