
 OpenBabel03252502293D

 35 37  0  0  0  0  0  0  0  0999 V2000
   45.2340   34.3690   41.0560 C   0  0  0  0  0  0  0  0  0  0  0  0
   45.4900   34.9230   42.3010 C   0  0  0  0  0  0  0  0  0  0  0  0
   46.8120   35.1710   42.6660 C   0  0  0  0  0  0  0  0  0  0  0  0
   47.8210   34.8650   41.7920 C   0  0  0  0  0  0  0  0  0  0  0  0
   47.5900   34.3160   40.5510 C   0  0  0  0  0  0  0  0  0  0  0  0
   46.2560   34.0770   40.2130 C   0  0  0  0  0  0  0  0  0  0  0  0
   44.6940   35.1650   42.9910 H   0  0  0  0  0  0  0  0  0  0  0  0
   46.9660   35.6040   43.6450 H   0  0  0  0  0  0  0  0  0  0  0  0
   48.8480   35.0530   42.0630 H   0  0  0  0  0  0  0  0  0  0  0  0
   48.3730   34.0630   39.8380 H   0  0  0  0  0  0  0  0  0  0  0  0
   45.6930   32.2040   38.4770 C   0  0  0  0  0  0  0  0  0  0  0  0
   45.9110   31.1680   39.0950 O   0  0  0  0  0  0  0  0  0  0  0  0
   45.8820   33.5180   38.9690 N   0  0  0  0  0  0  0  0  0  0  0  0
   45.7250   34.3390   38.3170 H   0  0  0  0  0  0  0  0  0  0  0  0
   45.2050   32.0500   37.1470 N   0  0  0  0  0  0  0  0  0  0  0  0
   44.7110   30.7290   36.8080 C   0  0  0  0  0  3  0  0  0  0  0  0
   45.5380   30.0090   36.6490 H   0  0  0  0  0  0  0  0  0  0  0  0
   43.7190   30.7910   35.6760 C   0  0  0  0  0  3  0  0  0  0  0  0
   42.7610   31.1940   36.1160 H   0  0  0  0  0  0  0  0  0  0  0  0
   44.1410   31.5400   34.5370 N   0  0  0  0  0  0  0  0  0  0  0  0
   44.2910   30.9170   33.7130 H   0  0  0  0  0  0  0  0  0  0  0  0
   45.3810   32.2310   34.7990 C   0  0  0  0  0  2  0  0  0  0  0  0
   45.1350   33.0340   36.0840 C   0  0  0  0  0  2  0  0  0  0  0  0
   41.5990   34.7500   40.1240 C   0  0  0  0  0  0  0  0  0  0  0  0
   42.9250   35.1020   40.4060 C   0  0  0  0  0  0  0  0  0  0  0  0
   43.8310   34.1370   40.7400 C   0  0  0  0  0  0  0  0  0  0  0  0
   43.3690   32.8500   40.7790 N   0  0  0  0  0  0  0  0  0  0  0  0
   42.0960   32.5040   40.5090 C   0  0  0  0  0  0  0  0  0  0  0  0
   41.2020   33.4660   40.1780 N   0  0  0  0  0  0  0  0  0  0  0  0
   43.2660   36.1300   40.3680 H   0  0  0  0  0  0  0  0  0  0  0  0
   41.7960   31.4630   40.5580 H   0  0  0  0  0  0  0  0  0  0  0  0
   40.6120   35.7860   39.7610 C   0  0  0  0  0  0  0  0  0  0  0  0
   39.3980   35.1340   39.4950 F   0  0  0  0  0  0  0  0  0  0  0  0
   41.0210   36.3200   38.5480 F   0  0  0  0  0  0  0  0  0  0  0  0
   40.4350   36.7380   40.7280 F   0  0  0  0  0  0  0  0  0  0  0  0
  1  2  1  0  0  0  0
  2  3  2  0  0  0  0
  2  7  1  0  0  0  0
  3  8  1  0  0  0  0
  4  9  1  0  0  0  0
  4  3  1  0  0  0  0
  5  4  2  0  0  0  0
  6  5  1  0  0  0  0
  6  1  2  0  0  0  0
 10  5  1  0  0  0  0
 11 13  1  0  0  0  0
 11 12  2  0  0  0  0
 13  6  1  0  0  0  0
 14 13  1  0  0  0  0
 15 11  1  0  0  0  0
 16 15  1  0  0  0  0
 17 16  1  0  0  0  0
 18 19  1  0  0  0  0
 18 16  1  0  0  0  0
 20 22  1  0  0  0  0
 20 18  1  0  0  0  0
 21 20  1  0  0  0  0
 22 23  1  0  0  0  0
 23 15  1  0  0  0  0
 24 29  2  0  0  0  0
 24 25  1  0  0  0  0
 25 26  2  0  0  0  0
 26 27  1  0  0  0  0
 26  1  1  0  0  0  0
 28 31  1  0  0  0  0
 28 27  2  0  0  0  0
 29 28  1  0  0  0  0
 30 25  1  0  0  0  0
 32 24  1  0  0  0  0
 32 35  1  0  0  0  0
 33 32  1  0  0  0  0
 34 32  1  0  0  0  0
M  END
>  <minimizedAffinity>
-6.4626298

>  <minimizedRMSD>
0.561329067

$$$$
