
 OpenBabel03242510233D

 38 41  0  0  1  0  0  0  0  0999 V2000
   48.0350   33.2200   43.1390 N   0  0  0  0  0  0  0  0  0  0  0  0
   49.1740   33.2510   42.3450 C   0  0  0  0  0  0  0  0  0  0  0  0
   50.3460   32.8410   42.5720 O   0  0  0  0  0  0  0  0  0  0  0  0
   47.5010   34.1300   43.0780 H   0  0  0  0  0  0  0  0  0  0  0  0
   46.3120   32.1060   44.5120 C   0  0  1  0  0  0  0  0  0  0  0  0
   46.4310   31.3360   43.3480 C   0  0  0  0  0  0  0  0  0  0  0  0
   47.6700   32.0910   43.9200 C   0  0  1  0  0  0  0  0  0  0  0  0
   46.2200   31.6790   45.5260 H   0  0  0  0  0  0  0  0  0  0  0  0
   46.4710   30.2090   43.4640 H   0  0  0  0  0  0  0  0  0  0  0  0
   46.1540   31.5770   42.3050 H   0  0  0  0  0  0  0  0  0  0  0  0
   48.4720   31.3820   44.1870 H   0  0  0  0  0  0  0  0  0  0  0  0
   45.0730   33.9650   43.1740 C   0  0  0  0  0  0  0  0  0  0  0  0
   45.5600   33.4400   44.4190 C   0  0  0  0  0  0  0  0  0  0  0  0
   45.3480   34.1950   45.5510 C   0  0  0  0  0  0  0  0  0  0  0  0
   44.7020   35.3760   45.4440 N   0  0  0  0  0  0  0  0  0  0  0  0
   44.2480   35.8620   44.2610 C   0  0  0  0  0  0  0  0  0  0  0  0
   44.4460   35.1230   43.0900 N   0  0  0  0  0  0  0  0  0  0  0  0
   45.2280   33.3560   42.3070 H   0  0  0  0  0  0  0  0  0  0  0  0
   45.6830   33.8660   46.5230 H   0  0  0  0  0  0  0  0  0  0  0  0
   43.7310   36.8100   44.1770 H   0  0  0  0  0  0  0  0  0  0  0  0
   49.0990   33.8550   40.9550 C   0  0  2  0  0  0  0  0  0  0  0  0
   48.5770   35.3400   40.8790 C   0  0  0  0  0  0  0  0  0  0  0  0
   47.8120   34.1830   40.3360 C   0  0  1  0  0  0  0  0  0  0  0  0
   49.9890   33.7490   40.3020 H   0  0  0  0  0  0  0  0  0  0  0  0
   49.1130   36.0350   40.2450 H   0  0  0  0  0  0  0  0  0  0  0  0
   48.2300   35.7190   41.8850 H   0  0  0  0  0  0  0  0  0  0  0  0
   46.9020   33.7790   40.8340 H   0  0  0  0  0  0  0  0  0  0  0  0
   47.7090   34.0550   38.8340 C   0  0  0  0  0  0  0  0  0  0  0  0
   48.4390   34.7080   38.1040 O   0  0  0  0  0  0  0  0  0  0  0  0
   46.7700   33.1800   38.2120 N   0  0  0  0  0  0  0  0  0  0  0  0
   45.5400   32.9500   38.9390 C   0  0  0  0  0  0  0  0  0  0  0  0
   45.5080   31.8360   39.1190 H   0  0  0  0  0  0  0  0  0  0  0  0
   44.3210   33.2590   38.0970 C   0  0  0  0  0  0  0  0  0  0  0  0
   44.1430   34.3240   37.9600 H   0  0  0  0  0  0  0  0  0  0  0  0
   44.3740   32.4660   36.9080 N   0  0  0  0  0  0  0  0  0  0  0  0
   44.1660   31.4700   37.1620 H   0  0  0  0  0  0  0  0  0  0  0  0
   45.5780   32.6140   36.1450 C   0  0  0  0  0  0  0  0  0  0  0  0
   46.8420   32.4790   36.9690 C   0  0  0  0  0  0  0  0  0  0  0  0
  1  7  1  0  0  0  0
  2  3  2  0  0  0  0
  2  1  1  0  0  0  0
  4  1  1  0  0  0  0
  5  8  1  1  0  0  0
  6  9  1  0  0  0  0
  6  7  1  0  0  0  0
  6  5  1  0  0  0  0
  7 11  1  1  0  0  0
  7  5  1  0  0  0  0
 10  6  1  0  0  0  0
 12 13  1  0  0  0  0
 13  5  1  0  0  0  0
 13 14  2  0  0  0  0
 14 19  1  0  0  0  0
 15 14  1  0  0  0  0
 16 15  2  0  0  0  0
 17 12  2  0  0  0  0
 17 16  1  0  0  0  0
 18 12  1  0  0  0  0
 20 16  1  0  0  0  0
 21 24  1  6  0  0  0
 21  2  1  0  0  0  0
 22 21  1  0  0  0  0
 22 26  1  0  0  0  0
 23 27  1  1  0  0  0
 23 22  1  0  0  0  0
 23 21  1  0  0  0  0
 25 22  1  0  0  0  0
 28 23  1  0  0  0  0
 29 28  2  0  0  0  0
 30 28  1  0  0  0  0
 30 31  1  0  0  0  0
 31 32  1  0  0  0  0
 33 31  1  0  0  0  0
 34 33  1  0  0  0  0
 35 36  1  0  0  0  0
 35 33  1  0  0  0  0
 37 35  1  0  0  0  0
 37 38  1  0  0  0  0
 38 30  1  0  0  0  0
M  END
>  <minimizedAffinity>
-5.37419891

>  <minimizedRMSD>
0.0972680449

$$$$
