
 OpenBabel03252504003D

 34 37  0  0  0  0  0  0  0  0999 V2000
   47.0050   34.9230   42.6110 C   0  0  0  0  0  0  0  0  0  0  0  0
   46.0080   35.8850   42.4180 C   0  0  0  0  0  0  0  0  0  0  0  0
   44.9140   35.8530   43.2830 C   0  0  0  0  0  0  0  0  0  0  0  0
   44.8740   34.9010   44.2580 N   0  0  0  0  0  0  0  0  0  0  0  0
   45.8660   33.9950   44.4010 C   0  0  0  0  0  0  0  0  0  0  0  0
   46.9300   34.0040   43.5810 N   0  0  0  0  0  0  0  0  0  0  0  0
   45.9950   36.6510   41.6670 H   0  0  0  0  0  0  0  0  0  0  0  0
   44.0980   36.5710   43.1930 H   0  0  0  0  0  0  0  0  0  0  0  0
   46.0570   31.6590   45.1020 C   0  0  0  0  0  0  0  0  0  0  0  0
   45.8230   32.9710   45.4500 C   0  0  0  0  0  0  0  0  0  0  0  0
   45.5600   33.2700   46.7620 C   0  0  0  0  0  0  0  0  0  0  0  0
   45.5240   32.2910   47.7280 C   0  0  0  0  0  0  0  0  0  0  0  0
   45.3020   32.2830   49.0450 N   0  0  0  0  0  0  0  0  0  0  0  0
   45.3880   31.0190   49.5250 C   0  0  0  0  0  0  0  0  0  0  0  0
   45.6800   30.1570   48.4790 C   0  0  0  0  0  0  0  0  0  0  0  0
   45.7640   30.9550   47.3660 C   0  0  0  0  0  0  0  0  0  0  0  0
   46.0300   30.6520   46.0440 C   0  0  0  0  0  0  0  0  0  0  0  0
   46.2690   31.3720   44.0770 H   0  0  0  0  0  0  0  0  0  0  0  0
   45.3770   34.3160   47.0210 H   0  0  0  0  0  0  0  0  0  0  0  0
   45.0930   33.1720   49.5780 H   0  0  0  0  0  0  0  0  0  0  0  0
   45.2400   30.7740   50.5780 H   0  0  0  0  0  0  0  0  0  0  0  0
   45.8120   29.0750   48.5470 H   0  0  0  0  0  0  0  0  0  0  0  0
   46.2130   29.6050   45.7830 H   0  0  0  0  0  0  0  0  0  0  0  0
   48.1000   35.0160   41.6870 C   0  0  0  0  0  0  0  0  0  0  0  0
   49.0030   35.9240   41.6930 O   0  0  0  0  0  0  0  0  0  0  0  0
   48.1260   33.9750   40.6990 N   0  0  0  0  0  0  0  0  0  0  0  0
   48.0580   34.1380   39.2580 C   0  0  0  0  0  3  0  0  0  0  0  0
   48.0070   35.2080   38.9690 H   0  0  0  0  0  0  0  0  0  0  0  0
   46.8810   33.4080   38.7230 C   0  0  0  0  0  3  0  0  0  0  0  0
   47.1810   32.8860   37.7700 H   0  0  0  0  0  0  0  0  0  0  0  0
   46.2770   32.4860   39.6500 N   0  0  0  0  0  0  0  0  0  0  0  0
   45.7330   31.8010   39.0810 H   0  0  0  0  0  0  0  0  0  0  0  0
   47.2360   31.7310   40.4210 C   0  0  0  0  0  2  0  0  0  0  0  0
   48.2300   32.5970   41.1350 C   0  0  0  0  0  2  0  0  0  0  0  0
  1  6  1  0  0  0  0
  2  1  2  0  0  0  0
  2  3  1  0  0  0  0
  3  4  2  0  0  0  0
  4  5  1  0  0  0  0
  5 10  1  0  0  0  0
  6  5  2  0  0  0  0
  7  2  1  0  0  0  0
  8  3  1  0  0  0  0
  9 10  2  0  0  0  0
  9 17  1  0  0  0  0
 10 11  1  0  0  0  0
 11 19  1  0  0  0  0
 11 12  2  0  0  0  0
 12 13  1  0  0  0  0
 13 14  1  0  0  0  0
 13 20  1  0  0  0  0
 14 21  1  0  0  0  0
 15 22  1  0  0  0  0
 15 14  2  0  0  0  0
 16 12  1  0  0  0  0
 16 15  1  0  0  0  0
 17 16  2  0  0  0  0
 18  9  1  0  0  0  0
 23 17  1  0  0  0  0
 24 25  2  0  0  0  0
 24  1  1  0  0  0  0
 26 34  1  0  0  0  0
 26 24  1  0  0  0  0
 27 26  1  0  0  0  0
 28 27  1  0  0  0  0
 29 27  1  0  0  0  0
 29 31  1  0  0  0  0
 30 29  1  0  0  0  0
 31 33  1  0  0  0  0
 32 31  1  0  0  0  0
 33 34  1  0  0  0  0
M  END
>  <minimizedAffinity>
-6.22105551

>  <minimizedRMSD>
0.257570356

$$$$
