
 OpenBabel03242522523D

 26 27  0  0  0  0  0  0  0  0999 V2000
   35.7490   28.6920   40.2300 O   0  0  0  0  0  0  0  0  0  0  0  0
   36.5940   29.6660   41.0790 P   0  0  2  0  0  0  0  0  0  0  0  0
   35.5570   30.9270   41.4890 O   0  0  0  0  0  0  0  0  0  0  0  0
   35.6510   31.7160   40.8970 H   0  0  0  0  0  0  0  0  0  0  0  0
   37.8570   30.2420   40.1140 O   0  0  0  0  0  0  0  0  0  0  0  0
   40.0080   33.1400   40.5590 C   0  0  0  0  0  0  0  0  0  0  0  0
   39.5530   31.8050   40.5000 C   0  0  0  0  0  0  0  0  0  0  0  0
   38.2450   31.5640   40.1520 C   0  0  0  0  0  0  0  0  0  0  0  0
   37.4330   32.6210   39.8750 N   0  0  0  0  0  0  0  0  0  0  0  0
   37.8890   33.8880   39.9380 C   0  0  0  0  0  0  0  0  0  0  0  0
   39.1570   34.1560   40.2730 N   0  0  0  0  0  0  0  0  0  0  0  0
   41.0210   33.4180   40.8240 H   0  0  0  0  0  0  0  0  0  0  0  0
   40.3370   31.1180   40.7470 H   0  0  0  0  0  0  0  0  0  0  0  0
   37.1530   34.6700   39.6980 H   0  0  0  0  0  0  0  0  0  0  0  0
   37.1960   28.9050   42.4150 O   0  0  0  0  0  0  0  0  0  0  0  0
   38.1180   27.9160   42.5390 C   0  0  0  0  0  0  0  0  0  0  0  0
   39.2040   28.2910   43.1060 O   0  0  0  0  0  0  0  0  0  0  0  0
   38.6570   26.6080   42.4090 N   0  0  0  0  0  0  0  0  0  0  0  0
   38.0780   25.9920   41.2180 C   0  0  0  0  0  3  0  0  0  0  0  0
   38.3340   26.5210   40.2840 H   0  0  0  0  0  0  0  0  0  0  0  0
   38.6180   24.5760   41.1770 C   0  0  0  0  0  3  0  0  0  0  0  0
   39.6850   24.5360   40.8760 H   0  0  0  0  0  0  0  0  0  0  0  0
   38.5570   23.9860   42.5240 N   0  0  0  0  0  0  0  0  0  0  0  0
   37.7040   24.4240   42.9710 H   0  0  0  0  0  0  0  0  0  0  0  0
   39.7000   24.5130   43.2190 C   0  0  0  0  0  2  0  0  0  0  0  0
   39.6120   25.9870   43.3050 C   0  0  0  0  0  2  0  0  0  0  0  0
  2  1  2  6  0  0  0
  2  3  1  0  0  0  0
  2 15  1  0  0  0  0
  4  3  1  0  0  0  0
  5  8  1  0  0  0  0
  5  2  1  0  0  0  0
  6 12  1  0  0  0  0
  7  6  1  0  0  0  0
  7 13  1  0  0  0  0
  8  7  2  0  0  0  0
  9 10  2  0  0  0  0
  9  8  1  0  0  0  0
 10 11  1  0  0  0  0
 11  6  2  0  0  0  0
 14 10  1  0  0  0  0
 15 16  1  0  0  0  0
 16 17  2  0  0  0  0
 18 16  1  0  0  0  0
 18 26  1  0  0  0  0
 19 18  1  0  0  0  0
 20 19  1  0  0  0  0
 21 19  1  0  0  0  0
 21 23  1  0  0  0  0
 22 21  1  0  0  0  0
 23 24  1  0  0  0  0
 23 25  1  0  0  0  0
 25 26  1  0  0  0  0
M  END
>  <minimizedAffinity>
-5.18442678

$$$$

 OpenBabel03242522523D

 26 27  0  0  0  0  0  0  0  0999 V2000
   36.9640   31.6090   38.4030 O   0  0  0  0  0  0  0  0  0  0  0  0
   37.3270   32.0220   39.8450 P   0  0  2  0  0  0  0  0  0  0  0  0
   36.9910   33.6680   39.9450 O   0  0  0  0  0  0  0  0  0  0  0  0
   37.7920   34.2370   39.8200 H   0  0  0  0  0  0  0  0  0  0  0  0
   38.9820   31.7510   40.0660 O   0  0  0  0  0  0  0  0  0  0  0  0
   41.2600   32.3860   37.3030 C   0  0  0  0  0  0  0  0  0  0  0  0
   40.2970   31.7720   38.1320 C   0  0  0  0  0  0  0  0  0  0  0  0
   39.9250   32.4000   39.2970 C   0  0  0  0  0  0  0  0  0  0  0  0
   40.5000   33.5930   39.6120 N   0  0  0  0  0  0  0  0  0  0  0  0
   41.4180   34.1610   38.8060 C   0  0  0  0  0  0  0  0  0  0  0  0
   41.8010   33.5750   37.6650 N   0  0  0  0  0  0  0  0  0  0  0  0
   41.6090   31.9600   36.3710 H   0  0  0  0  0  0  0  0  0  0  0  0
   39.9620   30.8430   37.7140 H   0  0  0  0  0  0  0  0  0  0  0  0
   41.8220   35.1250   39.1520 H   0  0  0  0  0  0  0  0  0  0  0  0
   36.4540   31.1480   40.9410 O   0  0  0  0  0  0  0  0  0  0  0  0
   36.4880   29.8290   41.2600 C   0  0  0  0  0  0  0  0  0  0  0  0
   35.5030   29.1580   40.7900 O   0  0  0  0  0  0  0  0  0  0  0  0
   36.9950   28.6400   41.8510 N   0  0  0  0  0  0  0  0  0  0  0  0
   37.7260   29.0070   43.0610 C   0  0  0  0  0  3  0  0  0  0  0  0
   37.0910   29.4810   43.8280 H   0  0  0  0  0  0  0  0  0  0  0  0
   38.3150   27.7190   43.5990 C   0  0  0  0  0  3  0  0  0  0  0  0
   37.5500   27.0640   44.0660 H   0  0  0  0  0  0  0  0  0  0  0  0
   38.8900   26.9390   42.4910 N   0  0  0  0  0  0  0  0  0  0  0  0
   39.2400   27.6640   41.8050 H   0  0  0  0  0  0  0  0  0  0  0  0
   37.7720   26.2890   41.8660 C   0  0  0  0  0  2  0  0  0  0  0  0
   36.8230   27.2950   41.3410 C   0  0  0  0  0  2  0  0  0  0  0  0
  2  1  2  6  0  0  0
  2  3  1  0  0  0  0
  2  5  1  0  0  0  0
  2 15  1  0  0  0  0
  4  3  1  0  0  0  0
  6 11  2  0  0  0  0
  6  7  1  0  0  0  0
  7  8  2  0  0  0  0
  8  9  1  0  0  0  0
  8  5  1  0  0  0  0
 10 14  1  0  0  0  0
 10  9  2  0  0  0  0
 11 10  1  0  0  0  0
 12  6  1  0  0  0  0
 13  7  1  0  0  0  0
 15 16  1  0  0  0  0
 16 18  1  0  0  0  0
 17 16  2  0  0  0  0
 18 19  1  0  0  0  0
 19 21  1  0  0  0  0
 19 20  1  0  0  0  0
 21 22  1  0  0  0  0
 23 21  1  0  0  0  0
 24 23  1  0  0  0  0
 25 23  1  0  0  0  0
 26 18  1  0  0  0  0
 26 25  1  0  0  0  0
M  END
>  <minimizedAffinity>
-5.08583736

$$$$

 OpenBabel03242522523D

 26 27  0  0  0  0  0  0  0  0999 V2000
   36.4530   30.5580   39.1080 O   0  0  0  0  0  0  0  0  0  0  0  0
   36.9280   31.0750   40.4820 P   0  0  2  0  0  0  0  0  0  0  0  0
   35.5570   31.0930   41.4590 O   0  0  0  0  0  0  0  0  0  0  0  0
   35.1330   31.9860   41.5200 H   0  0  0  0  0  0  0  0  0  0  0  0
   37.5140   32.6480   40.2750 O   0  0  0  0  0  0  0  0  0  0  0  0
   40.8740   34.0280   40.0950 C   0  0  0  0  0  0  0  0  0  0  0  0
   39.5630   33.7460   40.5350 C   0  0  0  0  0  0  0  0  0  0  0  0
   38.7860   32.8840   39.7980 C   0  0  0  0  0  0  0  0  0  0  0  0
   39.3080   32.3320   38.6680 N   0  0  0  0  0  0  0  0  0  0  0  0
   40.5630   32.6160   38.2670 C   0  0  0  0  0  0  0  0  0  0  0  0
   41.3440   33.4500   38.9620 N   0  0  0  0  0  0  0  0  0  0  0  0
   41.5520   34.6940   40.6150 H   0  0  0  0  0  0  0  0  0  0  0  0
   39.3370   34.2710   41.4420 H   0  0  0  0  0  0  0  0  0  0  0  0
   40.8890   32.1190   37.3400 H   0  0  0  0  0  0  0  0  0  0  0  0
   38.1100   30.1010   41.0980 O   0  0  0  0  0  0  0  0  0  0  0  0
   38.0450   28.8700   41.6670 C   0  0  0  0  0  0  0  0  0  0  0  0
   36.8560   28.3990   41.7440 O   0  0  0  0  0  0  0  0  0  0  0  0
   38.5360   27.6870   42.2820 N   0  0  0  0  0  0  0  0  0  0  0  0
   39.7400   28.0300   43.0350 C   0  0  0  0  0  3  0  0  0  0  0  0
   39.5540   28.7450   43.8540 H   0  0  0  0  0  0  0  0  0  0  0  0
   40.2660   26.7240   43.5950 C   0  0  0  0  0  3  0  0  0  0  0  0
   39.6530   26.3440   44.4390 H   0  0  0  0  0  0  0  0  0  0  0  0
   40.2100   25.6830   42.5560 N   0  0  0  0  0  0  0  0  0  0  0  0
   40.3740   26.2000   41.6480 H   0  0  0  0  0  0  0  0  0  0  0  0
   38.8420   25.2430   42.5360 C   0  0  0  0  0  2  0  0  0  0  0  0
   37.9480   26.3660   42.1800 C   0  0  0  0  0  2  0  0  0  0  0  0
  2  1  2  6  0  0  0
  2 15  1  0  0  0  0
  2  3  1  0  0  0  0
  3  4  1  0  0  0  0
  5  2  1  0  0  0  0
  6  7  1  0  0  0  0
  6 12  1  0  0  0  0
  7 13  1  0  0  0  0
  8  5  1  0  0  0  0
  8  7  2  0  0  0  0
  9  8  1  0  0  0  0
 10  9  2  0  0  0  0
 10 11  1  0  0  0  0
 11  6  2  0  0  0  0
 14 10  1  0  0  0  0
 15 16  1  0  0  0  0
 16 17  2  0  0  0  0
 16 18  1  0  0  0  0
 18 19  1  0  0  0  0
 19 21  1  0  0  0  0
 19 20  1  0  0  0  0
 21 22  1  0  0  0  0
 23 21  1  0  0  0  0
 24 23  1  0  0  0  0
 25 23  1  0  0  0  0
 26 18  1  0  0  0  0
 26 25  1  0  0  0  0
M  END
>  <minimizedAffinity>
-4.85375929

$$$$

 OpenBabel03242522523D

 26 27  0  0  0  0  0  0  0  0999 V2000
   36.9500   29.6350   39.6580 O   0  0  0  0  0  0  0  0  0  0  0  0
   37.0270   30.8200   40.6440 P   0  0  2  0  0  0  0  0  0  0  0  0
   35.5370   30.8600   41.4240 O   0  0  0  0  0  0  0  0  0  0  0  0
   34.9090   31.5180   41.0310 H   0  0  0  0  0  0  0  0  0  0  0  0
   37.2520   32.2350   39.7450 O   0  0  0  0  0  0  0  0  0  0  0  0
   40.4840   32.3240   38.0800 C   0  0  0  0  0  0  0  0  0  0  0  0
   39.1870   31.9240   38.4690 C   0  0  0  0  0  0  0  0  0  0  0  0
   38.5120   32.6760   39.4020 C   0  0  0  0  0  0  0  0  0  0  0  0
   39.1180   33.7800   39.9190 N   0  0  0  0  0  0  0  0  0  0  0  0
   40.3570   34.1430   39.5320 C   0  0  0  0  0  0  0  0  0  0  0  0
   41.0400   33.4330   38.6260 N   0  0  0  0  0  0  0  0  0  0  0  0
   41.0830   31.7910   37.3530 H   0  0  0  0  0  0  0  0  0  0  0  0
   38.8840   31.0360   37.9510 H   0  0  0  0  0  0  0  0  0  0  0  0
   40.7570   35.0500   40.0110 H   0  0  0  0  0  0  0  0  0  0  0  0
   38.2730   30.6150   41.7070 O   0  0  0  0  0  0  0  0  0  0  0  0
   38.6260   29.5510   42.4740 C   0  0  0  0  0  0  0  0  0  0  0  0
   37.8050   29.3070   43.4270 O   0  0  0  0  0  0  0  0  0  0  0  0
   39.4200   28.4520   42.8990 N   0  0  0  0  0  0  0  0  0  0  0  0
   40.8120   28.7360   42.5600 C   0  0  0  0  0  3  0  0  0  0  0  0
   41.2150   29.6220   43.0790 H   0  0  0  0  0  0  0  0  0  0  0  0
   41.5970   27.5020   42.9540 C   0  0  0  0  0  3  0  0  0  0  0  0
   41.7160   27.4060   44.0540 H   0  0  0  0  0  0  0  0  0  0  0  0
   40.8710   26.2960   42.5210 N   0  0  0  0  0  0  0  0  0  0  0  0
   40.3740   26.5860   41.6340 H   0  0  0  0  0  0  0  0  0  0  0  0
   39.8520   26.0920   43.5140 C   0  0  0  0  0  2  0  0  0  0  0  0
   38.9350   27.2520   43.5520 C   0  0  0  0  0  2  0  0  0  0  0  0
  2  1  2  6  0  0  0
  2  3  1  0  0  0  0
  2 15  1  0  0  0  0
  4  3  1  0  0  0  0
  5  2  1  0  0  0  0
  6  7  2  0  0  0  0
  6 11  1  0  0  0  0
  7  8  1  0  0  0  0
  8  5  1  0  0  0  0
  8  9  2  0  0  0  0
 10  9  1  0  0  0  0
 10 14  1  0  0  0  0
 11 10  2  0  0  0  0
 12  6  1  0  0  0  0
 13  7  1  0  0  0  0
 15 16  1  0  0  0  0
 16 18  1  0  0  0  0
 16 17  2  0  0  0  0
 18 26  1  0  0  0  0
 19 18  1  0  0  0  0
 19 21  1  0  0  0  0
 19 20  1  0  0  0  0
 21 22  1  0  0  0  0
 23 21  1  0  0  0  0
 23 25  1  0  0  0  0
 24 23  1  0  0  0  0
 25 26  1  0  0  0  0
M  END
>  <minimizedAffinity>
-4.83955479

$$$$

 OpenBabel03242522523D

 26 27  0  0  0  0  0  0  0  0999 V2000
   38.2080   29.4400   43.6210 O   0  0  0  0  0  0  0  0  0  0  0  0
   37.4190   28.7990   42.4600 P   0  0  2  0  0  0  0  0  0  0  0  0
   36.2230   27.8630   43.1850 O   0  0  0  0  0  0  0  0  0  0  0  0
   36.4650   26.9050   43.2520 H   0  0  0  0  0  0  0  0  0  0  0  0
   38.4810   27.8110   41.5880 O   0  0  0  0  0  0  0  0  0  0  0  0
   40.5410   25.2200   43.0940 C   0  0  0  0  0  0  0  0  0  0  0  0
   40.1060   26.4700   42.6040 C   0  0  0  0  0  0  0  0  0  0  0  0
   38.8490   26.5670   42.0530 C   0  0  0  0  0  0  0  0  0  0  0  0
   38.0680   25.4530   42.0000 N   0  0  0  0  0  0  0  0  0  0  0  0
   38.5040   24.2700   42.4750 C   0  0  0  0  0  0  0  0  0  0  0  0
   39.7210   24.1430   43.0160 N   0  0  0  0  0  0  0  0  0  0  0  0
   41.5130   25.0570   43.5420 H   0  0  0  0  0  0  0  0  0  0  0  0
   40.8580   27.2220   42.7370 H   0  0  0  0  0  0  0  0  0  0  0  0
   37.7970   23.4320   42.3830 H   0  0  0  0  0  0  0  0  0  0  0  0
   36.7810   29.9610   41.4760 O   0  0  0  0  0  0  0  0  0  0  0  0
   37.3600   31.0190   40.8530 C   0  0  0  0  0  0  0  0  0  0  0  0
   36.5700   31.6510   40.0670 O   0  0  0  0  0  0  0  0  0  0  0  0
   38.3980   31.9280   40.5140 N   0  0  0  0  0  0  0  0  0  0  0  0
   39.6740   31.2240   40.6180 C   0  0  0  0  0  3  0  0  0  0  0  0
   39.7660   30.3790   39.9150 H   0  0  0  0  0  0  0  0  0  0  0  0
   40.7450   32.2570   40.3320 C   0  0  0  0  0  3  0  0  0  0  0  0
   40.7990   32.5270   39.2570 H   0  0  0  0  0  0  0  0  0  0  0  0
   40.4300   33.5050   41.0460 N   0  0  0  0  0  0  0  0  0  0  0  0
   39.9420   33.1920   41.9320 H   0  0  0  0  0  0  0  0  0  0  0  0
   39.4360   34.1600   40.2410 C   0  0  0  0  0  2  0  0  0  0  0  0
   38.2260   33.3160   40.1330 C   0  0  0  0  0  2  0  0  0  0  0  0
  2  3  1  0  0  0  0
  2  1  2  1  0  0  0
  3  4  1  0  0  0  0
  5  8  1  0  0  0  0
  5  2  1  0  0  0  0
  6 12  1  0  0  0  0
  7 13  1  0  0  0  0
  7  6  2  0  0  0  0
  8  7  1  0  0  0  0
  9  8  2  0  0  0  0
  9 10  1  0  0  0  0
 10 11  2  0  0  0  0
 11  6  1  0  0  0  0
 14 10  1  0  0  0  0
 15  2  1  0  0  0  0
 16 15  1  0  0  0  0
 17 16  2  0  0  0  0
 18 19  1  0  0  0  0
 18 16  1  0  0  0  0
 20 19  1  0  0  0  0
 21 19  1  0  0  0  0
 21 23  1  0  0  0  0
 22 21  1  0  0  0  0
 23 24  1  0  0  0  0
 25 23  1  0  0  0  0
 26 25  1  0  0  0  0
 26 18  1  0  0  0  0
M  END
>  <minimizedAffinity>
-4.80133057

$$$$

 OpenBabel03242522523D

 26 27  0  0  0  0  0  0  0  0999 V2000
   37.1780   32.5410   40.2110 O   0  0  0  0  0  0  0  0  0  0  0  0
   37.1030   31.0590   40.6370 P   0  0  2  0  0  0  0  0  0  0  0  0
   35.5520   30.8410   41.2520 O   0  0  0  0  0  0  0  0  0  0  0  0
   35.5140   30.8940   42.2400 H   0  0  0  0  0  0  0  0  0  0  0  0
   38.2520   30.8060   41.8520 O   0  0  0  0  0  0  0  0  0  0  0  0
   39.8350   27.7590   43.0500 C   0  0  0  0  0  0  0  0  0  0  0  0
   39.6380   29.0140   42.4360 C   0  0  0  0  0  0  0  0  0  0  0  0
   38.3850   29.5810   42.4710 C   0  0  0  0  0  0  0  0  0  0  0  0
   37.3790   28.9120   43.0970 N   0  0  0  0  0  0  0  0  0  0  0  0
   37.5910   27.7140   43.6770 C   0  0  0  0  0  0  0  0  0  0  0  0
   38.7970   27.1360   43.6600 N   0  0  0  0  0  0  0  0  0  0  0  0
   40.7870   27.2430   43.0680 H   0  0  0  0  0  0  0  0  0  0  0  0
   40.5460   29.3800   42.0000 H   0  0  0  0  0  0  0  0  0  0  0  0
   36.7110   27.2550   44.1550 H   0  0  0  0  0  0  0  0  0  0  0  0
   37.4020   30.0660   39.3520 O   0  0  0  0  0  0  0  0  0  0  0  0
   36.7960   29.9670   38.1410 C   0  0  0  0  0  0  0  0  0  0  0  0
   37.2590   30.7770   37.2640 O   0  0  0  0  0  0  0  0  0  0  0  0
   35.8810   29.4690   37.1750 N   0  0  0  0  0  0  0  0  0  0  0  0
   34.6790   29.0190   37.8730 C   0  0  0  0  0  3  0  0  0  0  0  0
   34.1520   29.8290   38.4030 H   0  0  0  0  0  0  0  0  0  0  0  0
   33.7790   28.4220   36.8100 C   0  0  0  0  0  3  0  0  0  0  0  0
   33.3100   29.1950   36.1660 H   0  0  0  0  0  0  0  0  0  0  0  0
   34.5760   27.5760   35.9070 N   0  0  0  0  0  0  0  0  0  0  0  0
   35.3390   27.1740   36.5190 H   0  0  0  0  0  0  0  0  0  0  0  0
   35.2160   28.4890   35.0000 C   0  0  0  0  0  2  0  0  0  0  0  0
   36.1000   29.4130   35.7430 C   0  0  0  0  0  2  0  0  0  0  0  0
  2  1  2  6  0  0  0
  2  3  1  0  0  0  0
  2  5  1  0  0  0  0
  3  4  1  0  0  0  0
  5  8  1  0  0  0  0
  6 12  1  0  0  0  0
  6 11  1  0  0  0  0
  7  8  1  0  0  0  0
  7  6  2  0  0  0  0
  8  9  2  0  0  0  0
  9 10  1  0  0  0  0
 10 14  1  0  0  0  0
 11 10  2  0  0  0  0
 13  7  1  0  0  0  0
 15  2  1  0  0  0  0
 16 15  1  0  0  0  0
 17 16  2  0  0  0  0
 18 19  1  0  0  0  0
 18 16  1  0  0  0  0
 19 20  1  0  0  0  0
 21 19  1  0  0  0  0
 22 21  1  0  0  0  0
 23 24  1  0  0  0  0
 23 21  1  0  0  0  0
 25 26  1  0  0  0  0
 25 23  1  0  0  0  0
 26 18  1  0  0  0  0
M  END
>  <minimizedAffinity>
-4.74679518

$$$$

 OpenBabel03242522523D

 26 27  0  0  0  0  0  0  0  0999 V2000
   38.5330   28.8810   43.1910 O   0  0  0  0  0  0  0  0  0  0  0  0
   37.2680   28.7180   42.3220 P   0  0  2  0  0  0  0  0  0  0  0  0
   36.1410   27.9420   43.3010 O   0  0  0  0  0  0  0  0  0  0  0  0
   36.0990   26.9640   43.1480 H   0  0  0  0  0  0  0  0  0  0  0  0
   37.6630   27.7380   41.0010 O   0  0  0  0  0  0  0  0  0  0  0  0
   36.7560   24.4250   39.8060 C   0  0  0  0  0  0  0  0  0  0  0  0
   37.0070   25.8130   39.8450 C   0  0  0  0  0  0  0  0  0  0  0  0
   37.4370   26.3780   41.0230 C   0  0  0  0  0  0  0  0  0  0  0  0
   37.6060   25.5780   42.1110 N   0  0  0  0  0  0  0  0  0  0  0  0
   37.3600   24.2540   42.0510 C   0  0  0  0  0  0  0  0  0  0  0  0
   36.9410   23.6750   40.9200 N   0  0  0  0  0  0  0  0  0  0  0  0
   36.4150   23.9010   38.9210 H   0  0  0  0  0  0  0  0  0  0  0  0
   36.8190   26.2680   38.8920 H   0  0  0  0  0  0  0  0  0  0  0  0
   37.5260   23.6970   42.9850 H   0  0  0  0  0  0  0  0  0  0  0  0
   36.7240   30.1870   41.8010 O   0  0  0  0  0  0  0  0  0  0  0  0
   36.8070   30.7900   40.5870 C   0  0  0  0  0  0  0  0  0  0  0  0
   36.8690   32.0680   40.6490 O   0  0  0  0  0  0  0  0  0  0  0  0
   36.8710   30.8720   39.1700 N   0  0  0  0  0  0  0  0  0  0  0  0
   36.1450   29.7330   38.6140 C   0  0  0  0  0  3  0  0  0  0  0  0
   35.0720   29.7310   38.8710 H   0  0  0  0  0  0  0  0  0  0  0  0
   36.3180   29.8220   37.1110 C   0  0  0  0  0  3  0  0  0  0  0  0
   35.7120   30.6350   36.6600 H   0  0  0  0  0  0  0  0  0  0  0  0
   37.7200   30.1430   36.7940 N   0  0  0  0  0  0  0  0  0  0  0  0
   38.2810   29.6800   37.5620 H   0  0  0  0  0  0  0  0  0  0  0  0
   37.8380   31.5610   36.9970 C   0  0  0  0  0  2  0  0  0  0  0  0
   37.5430   31.9030   38.4050 C   0  0  0  0  0  2  0  0  0  0  0  0
  2  1  2  1  0  0  0
  2  3  1  0  0  0  0
  4  3  1  0  0  0  0
  5  8  1  0  0  0  0
  5  2  1  0  0  0  0
  6  7  2  0  0  0  0
  6 11  1  0  0  0  0
  7  8  1  0  0  0  0
  8  9  2  0  0  0  0
 10  9  1  0  0  0  0
 10 14  1  0  0  0  0
 11 10  2  0  0  0  0
 12  6  1  0  0  0  0
 13  7  1  0  0  0  0
 15  2  1  0  0  0  0
 16 17  2  0  0  0  0
 16 15  1  0  0  0  0
 18 16  1  0  0  0  0
 19 20  1  0  0  0  0
 19 18  1  0  0  0  0
 21 19  1  0  0  0  0
 22 21  1  0  0  0  0
 23 25  1  0  0  0  0
 23 21  1  0  0  0  0
 23 24  1  0  0  0  0
 25 26  1  0  0  0  0
 26 18  1  0  0  0  0
M  END
>  <minimizedAffinity>
-4.64256763

$$$$

 OpenBabel03242522523D

 26 27  0  0  0  0  0  0  0  0999 V2000
   36.1880   30.7810   41.2150 O   0  0  0  0  0  0  0  0  0  0  0  0
   35.9010   29.3780   40.6410 P   0  0  2  0  0  0  0  0  0  0  0  0
   34.2900   29.4060   40.1530 O   0  0  0  0  0  0  0  0  0  0  0  0
   33.6740   29.0130   40.8220 H   0  0  0  0  0  0  0  0  0  0  0  0
   36.1120   28.2500   41.8850 O   0  0  0  0  0  0  0  0  0  0  0  0
   38.8710   25.9430   42.4240 C   0  0  0  0  0  0  0  0  0  0  0  0
   37.6060   26.4600   42.0710 C   0  0  0  0  0  0  0  0  0  0  0  0
   37.3660   27.8030   42.2440 C   0  0  0  0  0  0  0  0  0  0  0  0
   38.3570   28.5880   42.7490 N   0  0  0  0  0  0  0  0  0  0  0  0
   39.5570   28.0720   43.0790 C   0  0  0  0  0  0  0  0  0  0  0  0
   39.8220   26.7700   42.9230 N   0  0  0  0  0  0  0  0  0  0  0  0
   39.1420   24.9000   42.3210 H   0  0  0  0  0  0  0  0  0  0  0  0
   36.9650   25.6900   41.6910 H   0  0  0  0  0  0  0  0  0  0  0  0
   40.2890   28.7910   43.4790 H   0  0  0  0  0  0  0  0  0  0  0  0
   36.9180   29.0410   39.3850 O   0  0  0  0  0  0  0  0  0  0  0  0
   38.1710   29.4850   39.1080 C   0  0  0  0  0  0  0  0  0  0  0  0
   39.0870   28.6160   39.3250 O   0  0  0  0  0  0  0  0  0  0  0  0
   39.1680   30.4070   38.6900 N   0  0  0  0  0  0  0  0  0  0  0  0
   38.6990   31.7560   38.9970 C   0  0  0  0  0  3  0  0  0  0  0  0
   38.5540   31.9330   40.0760 H   0  0  0  0  0  0  0  0  0  0  0  0
   39.7560   32.6980   38.4550 C   0  0  0  0  0  3  0  0  0  0  0  0
   40.6780   32.7040   39.0720 H   0  0  0  0  0  0  0  0  0  0  0  0
   40.1710   32.2530   37.1150 N   0  0  0  0  0  0  0  0  0  0  0  0
   39.3030   31.8190   36.6940 H   0  0  0  0  0  0  0  0  0  0  0  0
   41.0980   31.1780   37.3440 C   0  0  0  0  0  2  0  0  0  0  0  0
   40.4300   30.0720   38.0630 C   0  0  0  0  0  2  0  0  0  0  0  0
  2  1  2  1  0  0  0
  2  5  1  0  0  0  0
  3  2  1  0  0  0  0
  3  4  1  0  0  0  0
  5  8  1  0  0  0  0
  6 11  1  0  0  0  0
  7  8  1  0  0  0  0
  7  6  2  0  0  0  0
  8  9  2  0  0  0  0
  9 10  1  0  0  0  0
 10 14  1  0  0  0  0
 11 10  2  0  0  0  0
 12  6  1  0  0  0  0
 13  7  1  0  0  0  0
 15  2  1  0  0  0  0
 16 17  2  0  0  0  0
 16 15  1  0  0  0  0
 18 19  1  0  0  0  0
 18 16  1  0  0  0  0
 19 20  1  0  0  0  0
 21 19  1  0  0  0  0
 21 22  1  0  0  0  0
 23 25  1  0  0  0  0
 23 21  1  0  0  0  0
 24 23  1  0  0  0  0
 25 26  1  0  0  0  0
 26 18  1  0  0  0  0
M  END
>  <minimizedAffinity>
-4.64073992

$$$$

 OpenBabel03242522523D

 26 27  0  0  0  0  0  0  0  0999 V2000
   37.7390   29.8820   42.2780 O   0  0  0  0  0  0  0  0  0  0  0  0
   36.7630   29.8100   41.0850 P   0  0  2  0  0  0  0  0  0  0  0  0
   35.5850   30.9740   41.3900 O   0  0  0  0  0  0  0  0  0  0  0  0
   34.7640   30.5990   41.7960 H   0  0  0  0  0  0  0  0  0  0  0  0
   36.0670   28.2680   41.0710 O   0  0  0  0  0  0  0  0  0  0  0  0
   37.5870   25.3800   39.4670 C   0  0  0  0  0  0  0  0  0  0  0  0
   36.8200   26.5460   39.6800 C   0  0  0  0  0  0  0  0  0  0  0  0
   36.8360   27.1340   40.9230 C   0  0  0  0  0  0  0  0  0  0  0  0
   37.5920   26.5720   41.9050 N   0  0  0  0  0  0  0  0  0  0  0  0
   38.3160   25.4580   41.6800 C   0  0  0  0  0  0  0  0  0  0  0  0
   38.3210   24.8620   40.4820 N   0  0  0  0  0  0  0  0  0  0  0  0
   37.6300   24.8540   38.5210 H   0  0  0  0  0  0  0  0  0  0  0  0
   36.2980   26.8340   38.7890 H   0  0  0  0  0  0  0  0  0  0  0  0
   38.8910   25.0830   42.5400 H   0  0  0  0  0  0  0  0  0  0  0  0
   37.5540   30.0930   39.6640 O   0  0  0  0  0  0  0  0  0  0  0  0
   38.7590   30.6670   39.4120 C   0  0  0  0  0  0  0  0  0  0  0  0
   39.6020   29.8770   38.8590 O   0  0  0  0  0  0  0  0  0  0  0  0
   39.7350   31.6980   39.3900 N   0  0  0  0  0  0  0  0  0  0  0  0
   39.4900   32.5840   40.5250 C   0  0  0  0  0  3  0  0  0  0  0  0
   39.5990   32.0840   41.5010 H   0  0  0  0  0  0  0  0  0  0  0  0
   40.5000   33.7070   40.4020 C   0  0  0  0  0  3  0  0  0  0  0  0
   41.5290   33.3860   40.6690 H   0  0  0  0  0  0  0  0  0  0  0  0
   40.5700   34.1580   39.0030 N   0  0  0  0  0  0  0  0  0  0  0  0
   39.5910   34.0200   38.6270 H   0  0  0  0  0  0  0  0  0  0  0  0
   41.4040   33.1950   38.3370 C   0  0  0  0  0  2  0  0  0  0  0  0
   40.7910   31.8510   38.4090 C   0  0  0  0  0  2  0  0  0  0  0  0
  2  3  1  0  0  0  0
  2  1  2  1  0  0  0
  3  4  1  0  0  0  0
  5  2  1  0  0  0  0
  6  7  2  0  0  0  0
  6 11  1  0  0  0  0
  7  8  1  0  0  0  0
  8  5  1  0  0  0  0
  8  9  2  0  0  0  0
 10  9  1  0  0  0  0
 10 14  1  0  0  0  0
 11 10  2  0  0  0  0
 12  6  1  0  0  0  0
 13  7  1  0  0  0  0
 15  2  1  0  0  0  0
 16 15  1  0  0  0  0
 17 16  2  0  0  0  0
 18 16  1  0  0  0  0
 18 19  1  0  0  0  0
 19 20  1  0  0  0  0
 21 19  1  0  0  0  0
 21 22  1  0  0  0  0
 23 21  1  0  0  0  0
 24 23  1  0  0  0  0
 25 26  1  0  0  0  0
 25 23  1  0  0  0  0
 26 18  1  0  0  0  0
M  END
>  <minimizedAffinity>
-4.63810539

$$$$
