
 OpenBabel03242510523D

 22 23  0  0  0  0  0  0  0  0999 V2000
   38.7100   32.0760   40.9290 C   0  0  0  0  0  0  0  0  0  0  0  0
   37.4560   32.2820   40.3350 C   0  0  0  0  0  0  0  0  0  0  0  0
   36.5650   31.1920   40.3000 C   0  0  0  0  0  0  0  0  0  0  0  0
   36.9670   30.0020   40.8400 N   0  0  0  0  0  0  0  0  0  0  0  0
   38.1730   29.8480   41.3970 C   0  0  0  0  0  0  0  0  0  0  0  0
   39.0620   30.8800   41.4500 N   0  0  0  0  0  0  0  0  0  0  0  0
   37.7140   27.4760   41.5460 C   0  0  0  0  0  0  0  0  0  0  0  0
   36.7360   27.5320   40.7790 O   0  0  0  0  0  0  0  0  0  0  0  0
   38.5350   28.5870   41.9430 N   0  0  0  0  0  0  0  0  0  0  0  0
   39.4470   32.8550   40.9960 H   0  0  0  0  0  0  0  0  0  0  0  0
   37.1990   33.2470   39.9260 H   0  0  0  0  0  0  0  0  0  0  0  0
   35.5980   31.3420   39.8450 H   0  0  0  0  0  0  0  0  0  0  0  0
   39.3400   28.4480   42.5940 H   0  0  0  0  0  0  0  0  0  0  0  0
   38.0720   26.2040   42.0900 N   0  0  0  0  0  0  0  0  0  0  0  0
   37.0340   25.1940   42.3190 C   0  0  0  0  0  3  0  0  0  0  0  0
   36.0370   25.5250   41.9720 H   0  0  0  0  0  0  0  0  0  0  0  0
   37.4660   23.9990   41.4600 C   0  0  0  0  0  3  0  0  0  0  0  0
   37.5830   24.4110   40.4330 H   0  0  0  0  0  0  0  0  0  0  0  0
   38.7720   23.5390   41.8610 N   0  0  0  0  0  0  0  0  0  0  0  0
   39.4010   23.3370   41.0650 H   0  0  0  0  0  0  0  0  0  0  0  0
   39.3830   24.3750   42.8660 C   0  0  0  0  0  2  0  0  0  0  0  0
   39.4210   25.8330   42.4410 C   0  0  0  0  0  2  0  0  0  0  0  0
  1 10  1  0  0  0  0
  1  6  1  0  0  0  0
  2  1  2  0  0  0  0
  3  2  1  0  0  0  0
  3  4  2  0  0  0  0
  4  5  1  0  0  0  0
  5  6  2  0  0  0  0
  5  9  1  0  0  0  0
  7  9  1  0  0  0  0
  7 14  1  0  0  0  0
  8  7  2  0  0  0  0
  9 13  1  0  0  0  0
 11  2  1  0  0  0  0
 12  3  1  0  0  0  0
 14 15  1  0  0  0  0
 14 22  1  0  0  0  0
 16 15  1  0  0  0  0
 17 19  1  0  0  0  0
 17 15  1  0  0  0  0
 18 17  1  0  0  0  0
 19 21  1  0  0  0  0
 20 19  1  0  0  0  0
 22 21  1  0  0  0  0
M  END
>  <minimizedAffinity>
-4.44292545

$$$$

 OpenBabel03242510523D

 22 23  0  0  0  0  0  0  0  0999 V2000
   38.3310   32.3040   40.6830 C   0  0  0  0  0  0  0  0  0  0  0  0
   37.0000   31.9220   40.4570 C   0  0  0  0  0  0  0  0  0  0  0  0
   36.6130   30.6330   40.8720 C   0  0  0  0  0  0  0  0  0  0  0  0
   37.5460   29.8310   41.4670 N   0  0  0  0  0  0  0  0  0  0  0  0
   38.8060   30.2350   41.6640 C   0  0  0  0  0  0  0  0  0  0  0  0
   39.2170   31.4750   41.2750 N   0  0  0  0  0  0  0  0  0  0  0  0
   39.3410   27.9750   42.3460 C   0  0  0  0  0  0  0  0  0  0  0  0
   38.2800   27.5010   41.9030 O   0  0  0  0  0  0  0  0  0  0  0  0
   39.7330   29.3560   42.2880 N   0  0  0  0  0  0  0  0  0  0  0  0
   38.7060   33.2690   40.3960 H   0  0  0  0  0  0  0  0  0  0  0  0
   36.3110   32.6030   39.9820 H   0  0  0  0  0  0  0  0  0  0  0  0
   35.5910   30.3310   40.7030 H   0  0  0  0  0  0  0  0  0  0  0  0
   40.6460   29.6680   42.6870 H   0  0  0  0  0  0  0  0  0  0  0  0
   40.2680   27.0850   42.9710 N   0  0  0  0  0  0  0  0  0  0  0  0
   39.7730   25.8910   43.6650 C   0  0  0  0  0  3  0  0  0  0  0  0
   38.6770   25.7720   43.5740 H   0  0  0  0  0  0  0  0  0  0  0  0
   40.4420   24.7200   42.9360 C   0  0  0  0  0  3  0  0  0  0  0  0
   40.1730   24.8560   41.8650 H   0  0  0  0  0  0  0  0  0  0  0  0
   41.8770   24.8370   43.0090 N   0  0  0  0  0  0  0  0  0  0  0  0
   42.3530   24.6460   42.1100 H   0  0  0  0  0  0  0  0  0  0  0  0
   42.3140   26.0630   43.6310 C   0  0  0  0  0  2  0  0  0  0  0  0
   41.6970   27.2830   42.9690 C   0  0  0  0  0  2  0  0  0  0  0  0
  1  6  1  0  0  0  0
  2  1  2  0  0  0  0
  2  3  1  0  0  0  0
  3  4  2  0  0  0  0
  4  5  1  0  0  0  0
  5  9  1  0  0  0  0
  6  5  2  0  0  0  0
  7 14  1  0  0  0  0
  8  7  2  0  0  0  0
  9  7  1  0  0  0  0
  9 13  1  0  0  0  0
 10  1  1  0  0  0  0
 11  2  1  0  0  0  0
 12  3  1  0  0  0  0
 14 15  1  0  0  0  0
 16 15  1  0  0  0  0
 17 19  1  0  0  0  0
 17 15  1  0  0  0  0
 18 17  1  0  0  0  0
 19 21  1  0  0  0  0
 20 19  1  0  0  0  0
 22 14  1  0  0  0  0
 22 21  1  0  0  0  0
M  END
>  <minimizedAffinity>
-4.42905474

$$$$

 OpenBabel03242510523D

 22 23  0  0  0  0  0  0  0  0999 V2000
   43.7460   30.0400   35.5080 C   0  0  0  0  0  0  0  0  0  0  0  0
   44.8110   30.8690   35.8920 C   0  0  0  0  0  0  0  0  0  0  0  0
   44.5820   31.7790   36.9410 C   0  0  0  0  0  0  0  0  0  0  0  0
   43.3460   31.8070   37.5250 N   0  0  0  0  0  0  0  0  0  0  0  0
   42.3580   30.9980   37.1280 C   0  0  0  0  0  0  0  0  0  0  0  0
   42.5420   30.1040   36.1160 N   0  0  0  0  0  0  0  0  0  0  0  0
   40.8640   32.2480   38.5660 C   0  0  0  0  0  0  0  0  0  0  0  0
   41.6680   33.1830   38.7280 O   0  0  0  0  0  0  0  0  0  0  0  0
   41.0920   31.0720   37.7730 N   0  0  0  0  0  0  0  0  0  0  0  0
   43.8380   29.3200   34.7170 H   0  0  0  0  0  0  0  0  0  0  0  0
   45.7640   30.7980   35.3910 H   0  0  0  0  0  0  0  0  0  0  0  0
   45.3960   32.4210   37.2430 H   0  0  0  0  0  0  0  0  0  0  0  0
   40.3590   30.3330   37.6920 H   0  0  0  0  0  0  0  0  0  0  0  0
   39.5950   32.3300   39.2170 N   0  0  0  0  0  0  0  0  0  0  0  0
   39.4760   33.0500   40.4890 C   0  0  0  0  0  3  0  0  0  0  0  0
   40.4260   33.5280   40.7960 H   0  0  0  0  0  0  0  0  0  0  0  0
   38.4530   34.1580   40.2080 C   0  0  0  0  0  3  0  0  0  0  0  0
   38.8570   34.7060   39.3290 H   0  0  0  0  0  0  0  0  0  0  0  0
   37.1990   33.5870   39.7860 N   0  0  0  0  0  0  0  0  0  0  0  0
   36.7770   34.0730   38.9760 H   0  0  0  0  0  0  0  0  0  0  0  0
   37.2550   32.1550   39.6200 C   0  0  0  0  0  2  0  0  0  0  0  0
   38.3870   31.7380   38.6960 C   0  0  0  0  0  2  0  0  0  0  0  0
  1  2  2  0  0  0  0
  1  6  1  0  0  0  0
  2  3  1  0  0  0  0
  3 12  1  0  0  0  0
  3  4  2  0  0  0  0
  5  4  1  0  0  0  0
  5  9  1  0  0  0  0
  6  5  2  0  0  0  0
  7  8  2  0  0  0  0
  7 14  1  0  0  0  0
  9  7  1  0  0  0  0
 10  1  1  0  0  0  0
 11  2  1  0  0  0  0
 13  9  1  0  0  0  0
 14 15  1  0  0  0  0
 15 16  1  0  0  0  0
 17 15  1  0  0  0  0
 18 17  1  0  0  0  0
 19 17  1  0  0  0  0
 20 19  1  0  0  0  0
 21 19  1  0  0  0  0
 22 14  1  0  0  0  0
 22 21  1  0  0  0  0
M  END
>  <minimizedAffinity>
-4.35792971

$$$$

 OpenBabel03242510523D

 22 23  0  0  0  0  0  0  0  0999 V2000
   44.5680   31.4410   36.5970 C   0  0  0  0  0  0  0  0  0  0  0  0
   44.3680   30.2310   35.9160 C   0  0  0  0  0  0  0  0  0  0  0  0
   43.0560   29.7240   35.8600 C   0  0  0  0  0  0  0  0  0  0  0  0
   42.0560   30.4310   36.4680 N   0  0  0  0  0  0  0  0  0  0  0  0
   42.2900   31.5820   37.1070 C   0  0  0  0  0  0  0  0  0  0  0  0
   43.5470   32.1040   37.1820 N   0  0  0  0  0  0  0  0  0  0  0  0
   40.0060   31.5110   37.9070 C   0  0  0  0  0  0  0  0  0  0  0  0
   39.8420   30.3220   37.5820 O   0  0  0  0  0  0  0  0  0  0  0  0
   41.2100   32.2750   37.7200 N   0  0  0  0  0  0  0  0  0  0  0  0
   45.5380   31.8950   36.6860 H   0  0  0  0  0  0  0  0  0  0  0  0
   45.2010   29.7200   35.4570 H   0  0  0  0  0  0  0  0  0  0  0  0
   42.8930   28.7930   35.3380 H   0  0  0  0  0  0  0  0  0  0  0  0
   41.2610   33.2720   38.0240 H   0  0  0  0  0  0  0  0  0  0  0  0
   38.9160   32.1990   38.5230 N   0  0  0  0  0  0  0  0  0  0  0  0
   37.5390   31.8230   38.1900 C   0  0  0  0  0  3  0  0  0  0  0  0
   37.4900   30.9580   37.5020 H   0  0  0  0  0  0  0  0  0  0  0  0
   36.9230   31.4010   39.5300 C   0  0  0  0  0  3  0  0  0  0  0  0
   37.6030   30.6140   39.9240 H   0  0  0  0  0  0  0  0  0  0  0  0
   36.9770   32.4900   40.4720 N   0  0  0  0  0  0  0  0  0  0  0  0
   37.2850   32.2030   41.4170 H   0  0  0  0  0  0  0  0  0  0  0  0
   37.6900   33.6380   39.9700 C   0  0  0  0  0  2  0  0  0  0  0  0
   39.0790   33.2700   39.4770 C   0  0  0  0  0  2  0  0  0  0  0  0
  1 10  1  0  0  0  0
  1  6  1  0  0  0  0
  2  1  2  0  0  0  0
  3  2  1  0  0  0  0
  3  4  2  0  0  0  0
  4  5  1  0  0  0  0
  5  6  2  0  0  0  0
  5  9  1  0  0  0  0
  7 14  1  0  0  0  0
  8  7  2  0  0  0  0
  9  7  1  0  0  0  0
  9 13  1  0  0  0  0
 11  2  1  0  0  0  0
 12  3  1  0  0  0  0
 14 22  1  0  0  0  0
 15 14  1  0  0  0  0
 15 17  1  0  0  0  0
 16 15  1  0  0  0  0
 17 18  1  0  0  0  0
 17 19  1  0  0  0  0
 19 20  1  0  0  0  0
 21 19  1  0  0  0  0
 22 21  1  0  0  0  0
M  END
>  <minimizedAffinity>
-4.30886841

$$$$

 OpenBabel03242510523D

 22 23  0  0  0  0  0  0  0  0999 V2000
   40.2760   25.4090   43.6780 C   0  0  0  0  0  0  0  0  0  0  0  0
   39.5610   24.4540   42.9400 C   0  0  0  0  0  0  0  0  0  0  0  0
   38.8230   24.9080   41.8300 C   0  0  0  0  0  0  0  0  0  0  0  0
   38.8420   26.2430   41.5350 N   0  0  0  0  0  0  0  0  0  0  0  0
   39.5390   27.1200   42.2650 C   0  0  0  0  0  0  0  0  0  0  0  0
   40.2650   26.7180   43.3460 N   0  0  0  0  0  0  0  0  0  0  0  0
   38.4800   28.8930   41.0020 C   0  0  0  0  0  0  0  0  0  0  0  0
   37.6140   28.1430   40.5170 O   0  0  0  0  0  0  0  0  0  0  0  0
   39.5210   28.4970   41.9090 N   0  0  0  0  0  0  0  0  0  0  0  0
   40.8630   25.1450   44.5380 H   0  0  0  0  0  0  0  0  0  0  0  0
   39.5860   23.4140   43.2260 H   0  0  0  0  0  0  0  0  0  0  0  0
   38.2690   24.1800   41.2560 H   0  0  0  0  0  0  0  0  0  0  0  0
   40.2090   29.1950   42.2690 H   0  0  0  0  0  0  0  0  0  0  0  0
   38.4550   30.2750   40.6400 N   0  0  0  0  0  0  0  0  0  0  0  0
   37.9450   30.6710   39.3230 C   0  0  0  0  0  3  0  0  0  0  0  0
   37.5590   29.8130   38.7420 H   0  0  0  0  0  0  0  0  0  0  0  0
   36.7680   31.6050   39.6340 C   0  0  0  0  0  3  0  0  0  0  0  0
   36.1010   31.0150   40.3010 H   0  0  0  0  0  0  0  0  0  0  0  0
   37.2160   32.7350   40.4080 N   0  0  0  0  0  0  0  0  0  0  0  0
   36.5900   32.9670   41.2000 H   0  0  0  0  0  0  0  0  0  0  0  0
   38.6030   32.6460   40.7920 C   0  0  0  0  0  2  0  0  0  0  0  0
   38.9100   31.3380   41.5020 C   0  0  0  0  0  2  0  0  0  0  0  0
  1 10  1  0  0  0  0
  2 11  1  0  0  0  0
  2  1  2  0  0  0  0
  3  2  1  0  0  0  0
  4  3  2  0  0  0  0
  4  5  1  0  0  0  0
  5  6  2  0  0  0  0
  6  1  1  0  0  0  0
  7  9  1  0  0  0  0
  8  7  2  0  0  0  0
  9  5  1  0  0  0  0
  9 13  1  0  0  0  0
 12  3  1  0  0  0  0
 14  7  1  0  0  0  0
 14 22  1  0  0  0  0
 15 17  1  0  0  0  0
 15 14  1  0  0  0  0
 16 15  1  0  0  0  0
 17 18  1  0  0  0  0
 17 19  1  0  0  0  0
 19 21  1  0  0  0  0
 19 20  1  0  0  0  0
 21 22  1  0  0  0  0
M  END
>  <minimizedAffinity>
-4.28855419

$$$$

 OpenBabel03242510523D

 22 23  0  0  0  0  0  0  0  0999 V2000
   36.7660   26.9240   42.7850 C   0  0  0  0  0  0  0  0  0  0  0  0
   37.8410   26.0360   42.6320 C   0  0  0  0  0  0  0  0  0  0  0  0
   39.0760   26.5730   42.2190 C   0  0  0  0  0  0  0  0  0  0  0  0
   39.1590   27.9180   41.9900 N   0  0  0  0  0  0  0  0  0  0  0  0
   38.1080   28.7300   42.1480 C   0  0  0  0  0  0  0  0  0  0  0  0
   36.8980   28.2470   42.5470 N   0  0  0  0  0  0  0  0  0  0  0  0
   39.4260   30.5010   41.1540 C   0  0  0  0  0  0  0  0  0  0  0  0
   40.2990   29.7250   40.7280 O   0  0  0  0  0  0  0  0  0  0  0  0
   38.2550   30.1220   41.8950 N   0  0  0  0  0  0  0  0  0  0  0  0
   35.7920   26.5950   43.0960 H   0  0  0  0  0  0  0  0  0  0  0  0
   37.7110   24.9830   42.8290 H   0  0  0  0  0  0  0  0  0  0  0  0
   39.9090   25.8980   42.0990 H   0  0  0  0  0  0  0  0  0  0  0  0
   37.5710   30.8430   42.2160 H   0  0  0  0  0  0  0  0  0  0  0  0
   39.5810   31.8980   40.8960 N   0  0  0  0  0  0  0  0  0  0  0  0
   40.9260   32.4690   40.7730 C   0  0  0  0  0  3  0  0  0  0  0  0
   41.7200   31.7020   40.8410 H   0  0  0  0  0  0  0  0  0  0  0  0
   40.9610   33.0670   39.3620 C   0  0  0  0  0  3  0  0  0  0  0  0
   40.6820   32.2290   38.6860 H   0  0  0  0  0  0  0  0  0  0  0  0
   39.9300   34.0640   39.2140 N   0  0  0  0  0  0  0  0  0  0  0  0
   39.4100   33.9910   38.3220 H   0  0  0  0  0  0  0  0  0  0  0  0
   39.0660   34.1600   40.3650 C   0  0  0  0  0  2  0  0  0  0  0  0
   38.4760   32.8120   40.7420 C   0  0  0  0  0  2  0  0  0  0  0  0
  1 10  1  0  0  0  0
  2  1  1  0  0  0  0
  2 11  1  0  0  0  0
  3  2  2  0  0  0  0
  4  5  2  0  0  0  0
  4  3  1  0  0  0  0
  5  6  1  0  0  0  0
  6  1  2  0  0  0  0
  7  9  1  0  0  0  0
  8  7  2  0  0  0  0
  9  5  1  0  0  0  0
  9 13  1  0  0  0  0
 12  3  1  0  0  0  0
 14  7  1  0  0  0  0
 15 16  1  0  0  0  0
 15 14  1  0  0  0  0
 17 15  1  0  0  0  0
 18 17  1  0  0  0  0
 19 17  1  0  0  0  0
 19 21  1  0  0  0  0
 20 19  1  0  0  0  0
 21 22  1  0  0  0  0
 22 14  1  0  0  0  0
M  END
>  <minimizedAffinity>
-4.26440239

$$$$

 OpenBabel03242510523D

 22 23  0  0  0  0  0  0  0  0999 V2000
   37.4660   24.6400   42.1540 C   0  0  0  0  0  0  0  0  0  0  0  0
   36.7560   24.1160   41.0630 C   0  0  0  0  0  0  0  0  0  0  0  0
   36.5000   24.9780   39.9800 C   0  0  0  0  0  0  0  0  0  0  0  0
   36.9510   26.2670   40.0490 N   0  0  0  0  0  0  0  0  0  0  0  0
   37.6240   26.7260   41.1100 C   0  0  0  0  0  0  0  0  0  0  0  0
   37.8920   25.9210   42.1770 N   0  0  0  0  0  0  0  0  0  0  0  0
   37.4610   28.9440   40.1550 C   0  0  0  0  0  0  0  0  0  0  0  0
   36.5960   28.6130   39.3240 O   0  0  0  0  0  0  0  0  0  0  0  0
   38.0690   28.0760   41.1260 N   0  0  0  0  0  0  0  0  0  0  0  0
   37.7020   24.0480   43.0190 H   0  0  0  0  0  0  0  0  0  0  0  0
   36.4270   23.0890   41.0690 H   0  0  0  0  0  0  0  0  0  0  0  0
   35.9540   24.5850   39.1350 H   0  0  0  0  0  0  0  0  0  0  0  0
   38.7890   28.4390   41.7880 H   0  0  0  0  0  0  0  0  0  0  0  0
   37.9020   30.3030   40.1650 N   0  0  0  0  0  0  0  0  0  0  0  0
   37.8980   31.0770   38.9190 C   0  0  0  0  0  3  0  0  0  0  0  0
   37.4750   30.5090   38.0690 H   0  0  0  0  0  0  0  0  0  0  0  0
   36.9700   32.2640   39.2090 C   0  0  0  0  0  3  0  0  0  0  0  0
   36.0140   31.8060   39.5470 H   0  0  0  0  0  0  0  0  0  0  0  0
   37.4680   33.0290   40.3240 N   0  0  0  0  0  0  0  0  0  0  0  0
   36.7330   33.2990   41.0010 H   0  0  0  0  0  0  0  0  0  0  0  0
   38.6210   32.4320   40.9510 C   0  0  0  0  0  2  0  0  0  0  0  0
   38.3640   30.9880   41.3470 C   0  0  0  0  0  2  0  0  0  0  0  0
  1  6  1  0  0  0  0
  1 10  1  0  0  0  0
  2 11  1  0  0  0  0
  2  1  2  0  0  0  0
  3  4  2  0  0  0  0
  3  2  1  0  0  0  0
  4  5  1  0  0  0  0
  5  9  1  0  0  0  0
  5  6  2  0  0  0  0
  7 14  1  0  0  0  0
  7  9  1  0  0  0  0
  8  7  2  0  0  0  0
  9 13  1  0  0  0  0
 12  3  1  0  0  0  0
 14 22  1  0  0  0  0
 15 17  1  0  0  0  0
 15 14  1  0  0  0  0
 16 15  1  0  0  0  0
 17 18  1  0  0  0  0
 17 19  1  0  0  0  0
 19 21  1  0  0  0  0
 19 20  1  0  0  0  0
 21 22  1  0  0  0  0
M  END
>  <minimizedAffinity>
-4.23941135

$$$$

 OpenBabel03242510523D

 22 23  0  0  0  0  0  0  0  0999 V2000
   36.6470   24.5210   40.2910 C   0  0  0  0  0  0  0  0  0  0  0  0
   36.8830   24.4230   41.6710 C   0  0  0  0  0  0  0  0  0  0  0  0
   37.0800   25.6210   42.3840 C   0  0  0  0  0  0  0  0  0  0  0  0
   37.0320   26.8040   41.7000 N   0  0  0  0  0  0  0  0  0  0  0  0
   36.8040   26.8520   40.3830 C   0  0  0  0  0  0  0  0  0  0  0  0
   36.6080   25.7140   39.6600 N   0  0  0  0  0  0  0  0  0  0  0  0
   37.3190   29.2160   40.4600 C   0  0  0  0  0  0  0  0  0  0  0  0
   37.8180   29.1550   41.5970 O   0  0  0  0  0  0  0  0  0  0  0  0
   36.7650   28.1120   39.7250 N   0  0  0  0  0  0  0  0  0  0  0  0
   36.4870   23.6550   39.6760 H   0  0  0  0  0  0  0  0  0  0  0  0
   36.9090   23.4570   42.1520 H   0  0  0  0  0  0  0  0  0  0  0  0
   37.2630   25.5560   43.4460 H   0  0  0  0  0  0  0  0  0  0  0  0
   36.3650   28.2540   38.7710 H   0  0  0  0  0  0  0  0  0  0  0  0
   37.2840   30.4860   39.8060 N   0  0  0  0  0  0  0  0  0  0  0  0
   37.1810   31.7120   40.6040 C   0  0  0  0  0  3  0  0  0  0  0  0
   37.2010   31.5120   41.6920 H   0  0  0  0  0  0  0  0  0  0  0  0
   38.4400   32.5100   40.2430 C   0  0  0  0  0  3  0  0  0  0  0  0
   39.2880   31.8190   40.4460 H   0  0  0  0  0  0  0  0  0  0  0  0
   38.4720   32.7830   38.8280 N   0  0  0  0  0  0  0  0  0  0  0  0
   39.4000   32.6250   38.3980 H   0  0  0  0  0  0  0  0  0  0  0  0
   37.3990   32.1470   38.1040 C   0  0  0  0  0  2  0  0  0  0  0  0
   37.3440   30.6530   38.3740 C   0  0  0  0  0  2  0  0  0  0  0  0
  1  2  1  0  0  0  0
  2 11  1  0  0  0  0
  2  3  2  0  0  0  0
  3 12  1  0  0  0  0
  4  3  1  0  0  0  0
  5  4  2  0  0  0  0
  6  1  2  0  0  0  0
  6  5  1  0  0  0  0
  7  8  2  0  0  0  0
  9  5  1  0  0  0  0
  9  7  1  0  0  0  0
 10  1  1  0  0  0  0
 13  9  1  0  0  0  0
 14  7  1  0  0  0  0
 14 15  1  0  0  0  0
 15 16  1  0  0  0  0
 17 18  1  0  0  0  0
 17 15  1  0  0  0  0
 19 17  1  0  0  0  0
 20 19  1  0  0  0  0
 21 22  1  0  0  0  0
 21 19  1  0  0  0  0
 22 14  1  0  0  0  0
M  END
>  <minimizedAffinity>
-4.16806698

$$$$

 OpenBabel03242510523D

 22 23  0  0  0  0  0  0  0  0999 V2000
   37.3810   26.7540   42.2500 C   0  0  0  0  0  0  0  0  0  0  0  0
   37.2050   27.3340   43.5150 C   0  0  0  0  0  0  0  0  0  0  0  0
   37.4900   28.7070   43.6470 C   0  0  0  0  0  0  0  0  0  0  0  0
   37.9190   29.3940   42.5460 N   0  0  0  0  0  0  0  0  0  0  0  0
   38.0720   28.8020   41.3560 C   0  0  0  0  0  0  0  0  0  0  0  0
   37.8060   27.4750   41.1900 N   0  0  0  0  0  0  0  0  0  0  0  0
   39.1090   30.8400   40.5630 C   0  0  0  0  0  0  0  0  0  0  0  0
   39.2520   31.3100   41.7050 O   0  0  0  0  0  0  0  0  0  0  0  0
   38.5210   29.5680   40.2460 N   0  0  0  0  0  0  0  0  0  0  0  0
   37.1860   25.7140   42.0650 H   0  0  0  0  0  0  0  0  0  0  0  0
   36.8640   26.7360   44.3460 H   0  0  0  0  0  0  0  0  0  0  0  0
   37.3580   29.1620   44.6170 H   0  0  0  0  0  0  0  0  0  0  0  0
   38.4400   29.2500   39.2540 H   0  0  0  0  0  0  0  0  0  0  0  0
   39.5630   31.6160   39.4520 N   0  0  0  0  0  0  0  0  0  0  0  0
   39.5520   33.0800   39.5360 C   0  0  0  0  0  3  0  0  0  0  0  0
   39.2290   33.4450   40.5290 H   0  0  0  0  0  0  0  0  0  0  0  0
   41.0170   33.4860   39.3320 C   0  0  0  0  0  3  0  0  0  0  0  0
   41.5830   32.9190   40.1040 H   0  0  0  0  0  0  0  0  0  0  0  0
   41.4950   33.0170   38.0560 N   0  0  0  0  0  0  0  0  0  0  0  0
   42.4370   32.5900   38.0990 H   0  0  0  0  0  0  0  0  0  0  0  0
   40.5350   32.1980   37.3580 C   0  0  0  0  0  2  0  0  0  0  0  0
   40.0450   31.0450   38.2180 C   0  0  0  0  0  2  0  0  0  0  0  0
  1  2  1  0  0  0  0
  2  3  2  0  0  0  0
  2 11  1  0  0  0  0
  3 12  1  0  0  0  0
  4  3  1  0  0  0  0
  5  4  2  0  0  0  0
  6  5  1  0  0  0  0
  6  1  2  0  0  0  0
  7  8  2  0  0  0  0
  9  7  1  0  0  0  0
  9  5  1  0  0  0  0
 10  1  1  0  0  0  0
 13  9  1  0  0  0  0
 14 15  1  0  0  0  0
 14  7  1  0  0  0  0
 15 16  1  0  0  0  0
 17 15  1  0  0  0  0
 17 18  1  0  0  0  0
 19 20  1  0  0  0  0
 19 17  1  0  0  0  0
 21 19  1  0  0  0  0
 21 22  1  0  0  0  0
 22 14  1  0  0  0  0
M  END
>  <minimizedAffinity>
-4.15027046

$$$$
