
 OpenBabel03242519123D

 47 50  0  0  1  0  0  0  0  0999 V2000
   39.3790   31.2130   39.6950 C   0  0  0  0  0  0  0  0  0  0  0  0
   39.1940   32.5740   39.3670 C   0  0  0  0  0  0  0  0  0  0  0  0
   37.9210   33.0130   39.6100 C   0  0  0  0  0  0  0  0  0  0  0  0
   36.8770   32.2720   40.1190 C   0  0  0  0  0  0  0  0  0  0  0  0
   37.1110   30.9550   40.4210 C   0  0  0  0  0  0  0  0  0  0  0  0
   38.3620   30.4520   40.2020 C   0  0  0  0  0  0  0  0  0  0  0  0
   37.6930   34.0610   39.3820 H   0  0  0  0  0  0  0  0  0  0  0  0
   35.9070   32.7140   40.2740 H   0  0  0  0  0  0  0  0  0  0  0  0
   36.2870   30.3800   40.8200 H   0  0  0  0  0  0  0  0  0  0  0  0
   38.9020   28.6970   41.8470 C   0  0  0  0  0  0  0  0  0  0  0  0
   38.9880   29.6180   42.7460 O   0  0  0  0  0  0  0  0  0  0  0  0
   38.5760   29.0730   40.5250 N   0  0  0  0  0  0  0  0  0  0  0  0
   38.4610   28.4600   39.7040 H   0  0  0  0  0  0  0  0  0  0  0  0
   39.1180   27.2820   42.0920 N   0  0  0  0  0  0  0  0  0  0  0  0
   38.7030   26.2960   41.1360 C   0  0  0  0  0  3  0  0  0  0  0  0
   37.6270   26.0420   41.2110 H   0  0  0  0  0  0  0  0  0  0  0  0
   39.5000   25.0260   41.2960 C   0  0  0  0  0  3  0  0  0  0  0  0
   39.9890   24.6940   40.3470 H   0  0  0  0  0  0  0  0  0  0  0  0
   40.5650   25.1250   42.2710 N   0  0  0  0  0  0  0  0  0  0  0  0
   41.2760   25.8540   42.0330 H   0  0  0  0  0  0  0  0  0  0  0  0
   39.9420   25.5580   43.5220 C   0  0  0  0  0  2  0  0  0  0  0  0
   39.7810   27.0550   43.3860 C   0  0  0  0  0  2  0  0  0  0  0  0
   40.1960   33.4070   38.8430 N   0  0  0  0  0  0  0  0  0  0  0  0
   40.1840   33.2960   37.8030 H   0  0  0  0  0  0  0  0  0  0  0  0
   42.1310   35.1430   41.2700 N   0  0  0  0  0  0  0  0  0  0  0  0
   41.5560   33.8800   40.8280 C   0  0  0  0  0  0  0  0  0  0  0  0
   41.1310   34.2910   39.4510 C   0  0  2  0  0  0  0  0  0  0  0  0
   40.4080   35.5940   39.7330 C   0  0  0  0  0  0  0  0  0  0  0  0
   41.2060   36.1740   40.8650 C   0  0  0  0  0  0  0  0  0  0  0  0
   42.3090   33.0690   40.8310 H   0  0  0  0  0  0  0  0  0  0  0  0
   40.6630   33.6780   41.4450 H   0  0  0  0  0  0  0  0  0  0  0  0
   42.0300   34.4720   38.8220 H   0  0  0  0  0  0  0  0  0  0  0  0
   39.4030   35.3530   40.1270 H   0  0  0  0  0  0  0  0  0  0  0  0
   40.3910   36.2710   38.8570 H   0  0  0  0  0  0  0  0  0  0  0  0
   40.5620   36.4150   41.7440 H   0  0  0  0  0  0  0  0  0  0  0  0
   41.7640   37.0700   40.5730 H   0  0  0  0  0  0  0  0  0  0  0  0
   44.6890   36.4000   43.6780 C   0  0  0  0  0  0  0  0  0  0  0  0
   43.4490   36.2150   43.0830 C   0  0  0  0  0  0  0  0  0  0  0  0
   43.3320   35.4040   41.9550 C   0  0  0  0  0  0  0  0  0  0  0  0
   44.4740   34.8360   41.5040 N   0  0  0  0  0  0  0  0  0  0  0  0
   45.6800   35.0020   42.0610 C   0  0  0  0  0  0  0  0  0  0  0  0
   45.7700   35.8010   43.1680 N   0  0  0  0  0  0  0  0  0  0  0  0
   44.7100   37.0430   44.5510 H   0  0  0  0  0  0  0  0  0  0  0  0
   42.5020   36.6500   43.4090 H   0  0  0  0  0  0  0  0  0  0  0  0
   46.5230   34.5020   41.6200 H   0  0  0  0  0  0  0  0  0  0  0  0
   41.7590   30.2240   39.2840 N   0  0  0  0  0  0  0  0  0  0  0  0
   40.7080   30.6590   39.4680 C   0  0  0  0  0  0  0  0  0  0  0  0
  1  6  1  0  0  0  0
  2  3  1  0  0  0  0
  2  1  2  0  0  0  0
  3  4  2  0  0  0  0
  4  8  1  0  0  0  0
  4  5  1  0  0  0  0
  5  9  1  0  0  0  0
  6  5  2  0  0  0  0
  6 12  1  0  0  0  0
  7  3  1  0  0  0  0
 10 14  1  0  0  0  0
 10 11  2  0  0  0  0
 12 10  1  0  0  0  0
 13 12  1  0  0  0  0
 14 22  1  0  0  0  0
 15 16  1  0  0  0  0
 15 17  1  0  0  0  0
 15 14  1  0  0  0  0
 17 19  1  0  0  0  0
 18 17  1  0  0  0  0
 19 21  1  0  0  0  0
 20 19  1  0  0  0  0
 22 21  1  0  0  0  0
 23  2  1  0  0  0  0
 23 27  1  0  0  0  0
 24 23  1  0  0  0  0
 25 39  1  0  0  0  0
 26 30  1  0  0  0  0
 26 25  1  0  0  0  0
 26 31  1  0  0  0  0
 27 32  1  6  0  0  0
 27 28  1  0  0  0  0
 27 26  1  0  0  0  0
 28 33  1  0  0  0  0
 28 29  1  0  0  0  0
 29 25  1  0  0  0  0
 29 35  1  0  0  0  0
 34 28  1  0  0  0  0
 36 29  1  0  0  0  0
 37 43  1  0  0  0  0
 38 44  1  0  0  0  0
 38 37  2  0  0  0  0
 39 38  1  0  0  0  0
 40 39  2  0  0  0  0
 40 41  1  0  0  0  0
 41 42  2  0  0  0  0
 42 37  1  0  0  0  0
 45 41  1  0  0  0  0
 46 47  3  0  0  0  0
 47  1  1  0  0  0  0
M  END
>  <minimizedAffinity>
-6.4663415

$$$$

 OpenBabel03242519123D

 47 50  0  0  1  0  0  0  0  0999 V2000
   38.1490   27.3450   41.4550 C   0  0  0  0  0  0  0  0  0  0  0  0
   38.5180   28.4590   42.2400 C   0  0  0  0  0  0  0  0  0  0  0  0
   37.8320   28.5300   43.4220 C   0  0  0  0  0  0  0  0  0  0  0  0
   36.8730   27.6500   43.8720 C   0  0  0  0  0  0  0  0  0  0  0  0
   36.5520   26.5840   43.0700 C   0  0  0  0  0  0  0  0  0  0  0  0
   37.2010   26.4540   41.8750 C   0  0  0  0  0  0  0  0  0  0  0  0
   38.0600   29.3680   44.0920 H   0  0  0  0  0  0  0  0  0  0  0  0
   36.3890   27.7950   44.8230 H   0  0  0  0  0  0  0  0  0  0  0  0
   35.7980   25.8970   43.4300 H   0  0  0  0  0  0  0  0  0  0  0  0
   37.5400   24.1110   41.1880 C   0  0  0  0  0  0  0  0  0  0  0  0
   38.4870   24.0320   42.0600 O   0  0  0  0  0  0  0  0  0  0  0  0
   36.8440   25.3330   41.0580 N   0  0  0  0  0  0  0  0  0  0  0  0
   36.0630   25.5500   40.4210 H   0  0  0  0  0  0  0  0  0  0  0  0
   37.1300   23.0260   40.3150 N   0  0  0  0  0  0  0  0  0  0  0  0
   35.8850   23.0810   39.6040 C   0  0  0  0  0  3  0  0  0  0  0  0
   35.0170   22.7790   40.2220 H   0  0  0  0  0  0  0  0  0  0  0  0
   35.9250   22.1970   38.3830 C   0  0  0  0  0  3  0  0  0  0  0  0
   35.6570   22.7400   37.4430 H   0  0  0  0  0  0  0  0  0  0  0  0
   37.2210   21.6030   38.1360 N   0  0  0  0  0  0  0  0  0  0  0  0
   37.9750   22.3090   37.9760 H   0  0  0  0  0  0  0  0  0  0  0  0
   37.5870   20.8870   39.3580 C   0  0  0  0  0  2  0  0  0  0  0  0
   38.1310   21.9470   40.2900 C   0  0  0  0  0  2  0  0  0  0  0  0
   39.4830   29.4090   41.8650 N   0  0  0  0  0  0  0  0  0  0  0  0
   40.3890   29.1230   42.3020 H   0  0  0  0  0  0  0  0  0  0  0  0
   39.1570   32.7970   40.8370 N   0  0  0  0  0  0  0  0  0  0  0  0
   39.6900   31.8510   41.8070 C   0  0  0  0  0  0  0  0  0  0  0  0
   39.4210   30.5810   41.0600 C   0  0  2  0  0  0  0  0  0  0  0  0
   37.9750   30.7730   40.6470 C   0  0  0  0  0  0  0  0  0  0  0  0
   37.9020   32.2490   40.3830 C   0  0  0  0  0  0  0  0  0  0  0  0
   40.7660   32.0290   41.9970 H   0  0  0  0  0  0  0  0  0  0  0  0
   39.0520   31.8920   42.7080 H   0  0  0  0  0  0  0  0  0  0  0  0
   40.0790   30.5270   40.1650 H   0  0  0  0  0  0  0  0  0  0  0  0
   37.3340   30.5620   41.5230 H   0  0  0  0  0  0  0  0  0  0  0  0
   37.7060   30.1850   39.7480 H   0  0  0  0  0  0  0  0  0  0  0  0
   37.0870   32.7350   40.9710 H   0  0  0  0  0  0  0  0  0  0  0  0
   37.7650   32.4820   39.3220 H   0  0  0  0  0  0  0  0  0  0  0  0
   39.7110   36.4080   40.0720 C   0  0  0  0  0  0  0  0  0  0  0  0
   39.1000   35.2680   40.5750 C   0  0  0  0  0  0  0  0  0  0  0  0
   39.6830   34.0180   40.3740 C   0  0  0  0  0  0  0  0  0  0  0  0
   40.8430   34.0030   39.6770 N   0  0  0  0  0  0  0  0  0  0  0  0
   41.4490   35.0890   39.1820 C   0  0  0  0  0  0  0  0  0  0  0  0
   40.8590   36.3050   39.3930 N   0  0  0  0  0  0  0  0  0  0  0  0
   39.2050   37.3470   40.2640 H   0  0  0  0  0  0  0  0  0  0  0  0
   38.1670   35.2290   41.1410 H   0  0  0  0  0  0  0  0  0  0  0  0
   42.3710   34.9620   38.6440 H   0  0  0  0  0  0  0  0  0  0  0  0
   39.3680   27.0730   39.1640 N   0  0  0  0  0  0  0  0  0  0  0  0
   38.8310   27.1900   40.1760 C   0  0  0  0  0  0  0  0  0  0  0  0
  1  6  2  0  0  0  0
  1  2  1  0  0  0  0
  2  3  2  0  0  0  0
  3  4  1  0  0  0  0
  3  7  1  0  0  0  0
  4  8  1  0  0  0  0
  5  9  1  0  0  0  0
  5  4  2  0  0  0  0
  6  5  1  0  0  0  0
 10 11  2  0  0  0  0
 12 10  1  0  0  0  0
 12  6  1  0  0  0  0
 13 12  1  0  0  0  0
 14 10  1  0  0  0  0
 15 16  1  0  0  0  0
 15 14  1  0  0  0  0
 17 15  1  0  0  0  0
 18 17  1  0  0  0  0
 19 17  1  0  0  0  0
 19 21  1  0  0  0  0
 20 19  1  0  0  0  0
 21 22  1  0  0  0  0
 22 14  1  0  0  0  0
 23  2  1  0  0  0  0
 23 24  1  0  0  0  0
 25 26  1  0  0  0  0
 26 30  1  0  0  0  0
 26 31  1  0  0  0  0
 27 32  1  6  0  0  0
 27 26  1  0  0  0  0
 27 23  1  0  0  0  0
 28 27  1  0  0  0  0
 28 33  1  0  0  0  0
 29 28  1  0  0  0  0
 29 25  1  0  0  0  0
 29 35  1  0  0  0  0
 34 28  1  0  0  0  0
 36 29  1  0  0  0  0
 37 43  1  0  0  0  0
 37 38  1  0  0  0  0
 38 44  1  0  0  0  0
 39 38  2  0  0  0  0
 39 25  1  0  0  0  0
 40 39  1  0  0  0  0
 41 42  1  0  0  0  0
 41 40  2  0  0  0  0
 42 37  2  0  0  0  0
 45 41  1  0  0  0  0
 46 47  3  0  0  0  0
 47  1  1  0  0  0  0
M  END
>  <minimizedAffinity>
-6.27546549

$$$$

 OpenBabel03242519123D

 47 50  0  0  1  0  0  0  0  0999 V2000
   38.0520   30.1810   41.6200 C   0  0  0  0  0  0  0  0  0  0  0  0
   37.4120   28.9280   41.7330 C   0  0  0  0  0  0  0  0  0  0  0  0
   36.1840   28.8990   41.1310 C   0  0  0  0  0  0  0  0  0  0  0  0
   35.5680   29.9360   40.4660 C   0  0  0  0  0  0  0  0  0  0  0  0
   36.2330   31.1330   40.3850 C   0  0  0  0  0  0  0  0  0  0  0  0
   37.4660   31.2290   40.9660 C   0  0  0  0  0  0  0  0  0  0  0  0
   35.6200   27.9590   41.1730 H   0  0  0  0  0  0  0  0  0  0  0  0
   34.5930   29.8100   40.0240 H   0  0  0  0  0  0  0  0  0  0  0  0
   35.7430   31.9420   39.8610 H   0  0  0  0  0  0  0  0  0  0  0  0
   39.1020   32.7040   39.8600 C   0  0  0  0  0  0  0  0  0  0  0  0
   39.3530   31.7450   39.0350 O   0  0  0  0  0  0  0  0  0  0  0  0
   38.1350   32.4910   40.8670 N   0  0  0  0  0  0  0  0  0  0  0  0
   37.8180   33.1560   41.5890 H   0  0  0  0  0  0  0  0  0  0  0  0
   39.7480   34.0040   39.8340 N   0  0  0  0  0  0  0  0  0  0  0  0
   39.2060   35.1120   40.5670 C   0  0  0  0  0  3  0  0  0  0  0  0
   38.3790   35.6230   40.0360 H   0  0  0  0  0  0  0  0  0  0  0  0
   40.2750   36.1320   40.8670 C   0  0  0  0  0  3  0  0  0  0  0  0
   40.3500   36.3800   41.9550 H   0  0  0  0  0  0  0  0  0  0  0  0
   41.6040   35.7170   40.4690 N   0  0  0  0  0  0  0  0  0  0  0  0
   41.9260   34.8470   40.9500 H   0  0  0  0  0  0  0  0  0  0  0  0
   41.5250   35.3900   39.0450 C   0  0  0  0  0  2  0  0  0  0  0  0
   40.9550   33.9900   38.9920 C   0  0  0  0  0  2  0  0  0  0  0  0
   37.9600   27.8140   42.3920 N   0  0  0  0  0  0  0  0  0  0  0  0
   37.8480   27.9720   43.4190 H   0  0  0  0  0  0  0  0  0  0  0  0
   38.5110   24.4350   41.4300 N   0  0  0  0  0  0  0  0  0  0  0  0
   37.6180   25.5860   41.4280 C   0  0  0  0  0  0  0  0  0  0  0  0
   38.5800   26.6230   41.9200 C   0  0  2  0  0  0  0  0  0  0  0  0
   39.1940   25.9240   43.1170 C   0  0  0  0  0  0  0  0  0  0  0  0
   39.2430   24.4920   42.6720 C   0  0  0  0  0  0  0  0  0  0  0  0
   37.2280   25.7940   40.4140 H   0  0  0  0  0  0  0  0  0  0  0  0
   36.8390   25.4130   42.1920 H   0  0  0  0  0  0  0  0  0  0  0  0
   39.3520   26.8150   41.1420 H   0  0  0  0  0  0  0  0  0  0  0  0
   38.4770   25.9850   43.9570 H   0  0  0  0  0  0  0  0  0  0  0  0
   40.2030   26.3080   43.3650 H   0  0  0  0  0  0  0  0  0  0  0  0
   38.7320   23.8150   43.3970 H   0  0  0  0  0  0  0  0  0  0  0  0
   40.2650   24.1340   42.5080 H   0  0  0  0  0  0  0  0  0  0  0  0
   38.3290   21.2560   39.4850 C   0  0  0  0  0  0  0  0  0  0  0  0
   38.0740   22.1760   40.4920 C   0  0  0  0  0  0  0  0  0  0  0  0
   38.6930   23.4250   40.4680 C   0  0  0  0  0  0  0  0  0  0  0  0
   39.5270   23.6600   39.4280 N   0  0  0  0  0  0  0  0  0  0  0  0
   39.7880   22.7870   38.4470 C   0  0  0  0  0  0  0  0  0  0  0  0
   39.1690   21.5680   38.4920 N   0  0  0  0  0  0  0  0  0  0  0  0
   37.8160   20.3040   39.5650 H   0  0  0  0  0  0  0  0  0  0  0  0
   37.4120   22.0330   41.3480 H   0  0  0  0  0  0  0  0  0  0  0  0
   40.4680   23.0790   37.6680 H   0  0  0  0  0  0  0  0  0  0  0  0
   40.4060   30.3980   42.7240 N   0  0  0  0  0  0  0  0  0  0  0  0
   39.3680   30.3030   42.2340 C   0  0  0  0  0  0  0  0  0  0  0  0
  1  2  1  0  0  0  0
  1 47  1  0  0  0  0
  2 23  1  0  0  0  0
  3  7  1  0  0  0  0
  3  2  2  0  0  0  0
  4  3  1  0  0  0  0
  5  4  2  0  0  0  0
  5  6  1  0  0  0  0
  6  1  2  0  0  0  0
  8  4  1  0  0  0  0
  9  5  1  0  0  0  0
 10 12  1  0  0  0  0
 11 10  2  0  0  0  0
 12  6  1  0  0  0  0
 12 13  1  0  0  0  0
 14 10  1  0  0  0  0
 14 15  1  0  0  0  0
 15 17  1  0  0  0  0
 16 15  1  0  0  0  0
 17 18  1  0  0  0  0
 19 17  1  0  0  0  0
 19 20  1  0  0  0  0
 21 19  1  0  0  0  0
 22 21  1  0  0  0  0
 22 14  1  0  0  0  0
 23 24  1  0  0  0  0
 25 29  1  0  0  0  0
 26 25  1  0  0  0  0
 26 27  1  0  0  0  0
 26 31  1  0  0  0  0
 27 32  1  6  0  0  0
 27 23  1  0  0  0  0
 27 28  1  0  0  0  0
 28 34  1  0  0  0  0
 28 33  1  0  0  0  0
 29 28  1  0  0  0  0
 29 35  1  0  0  0  0
 30 26  1  0  0  0  0
 36 29  1  0  0  0  0
 37 43  1  0  0  0  0
 37 38  1  0  0  0  0
 38 44  1  0  0  0  0
 39 38  2  0  0  0  0
 39 25  1  0  0  0  0
 40 39  1  0  0  0  0
 41 42  1  0  0  0  0
 41 40  2  0  0  0  0
 42 37  2  0  0  0  0
 45 41  1  0  0  0  0
 47 46  3  0  0  0  0
M  END
>  <minimizedAffinity>
-6.27129984

$$$$

 OpenBabel03242519123D

 47 50  0  0  1  0  0  0  0  0999 V2000
   38.8730   31.8500   41.2850 C   0  0  0  0  0  0  0  0  0  0  0  0
   37.6440   31.2210   40.9910 C   0  0  0  0  0  0  0  0  0  0  0  0
   36.9110   31.8930   40.0520 C   0  0  0  0  0  0  0  0  0  0  0  0
   37.2630   33.0620   39.4130 C   0  0  0  0  0  0  0  0  0  0  0  0
   38.4690   33.6320   39.7350 C   0  0  0  0  0  0  0  0  0  0  0  0
   39.2510   33.0100   40.6680 C   0  0  0  0  0  0  0  0  0  0  0  0
   35.9400   31.4700   39.7660 H   0  0  0  0  0  0  0  0  0  0  0  0
   36.6120   33.5140   38.6840 H   0  0  0  0  0  0  0  0  0  0  0  0
   38.7390   34.5490   39.2300 H   0  0  0  0  0  0  0  0  0  0  0  0
   41.6270   33.4210   40.1560 C   0  0  0  0  0  0  0  0  0  0  0  0
   41.4930   32.6770   39.1120 O   0  0  0  0  0  0  0  0  0  0  0  0
   40.5020   33.6290   40.9850 N   0  0  0  0  0  0  0  0  0  0  0  0
   40.4460   34.2010   41.8420 H   0  0  0  0  0  0  0  0  0  0  0  0
   42.8640   34.0700   40.5520 N   0  0  0  0  0  0  0  0  0  0  0  0
   42.8650   35.1200   41.5300 C   0  0  0  0  0  3  0  0  0  0  0  0
   42.5990   36.1090   41.1070 H   0  0  0  0  0  0  0  0  0  0  0  0
   44.2170   35.2380   42.1880 C   0  0  0  0  0  3  0  0  0  0  0  0
   44.1660   35.1820   43.3040 H   0  0  0  0  0  0  0  0  0  0  0  0
   45.1520   34.2080   41.7880 N   0  0  0  0  0  0  0  0  0  0  0  0
   44.8270   33.2420   42.0220 H   0  0  0  0  0  0  0  0  0  0  0  0
   45.2320   34.2670   40.3290 C   0  0  0  0  0  2  0  0  0  0  0  0
   44.0200   33.5100   39.8340 C   0  0  0  0  0  2  0  0  0  0  0  0
   37.1990   30.0310   41.5900 N   0  0  0  0  0  0  0  0  0  0  0  0
   36.4440   30.2840   42.2680 H   0  0  0  0  0  0  0  0  0  0  0  0
   37.0620   26.4950   41.2390 N   0  0  0  0  0  0  0  0  0  0  0  0
   36.4940   27.7890   40.8890 C   0  0  0  0  0  0  0  0  0  0  0  0
   37.5800   28.6680   41.4290 C   0  0  2  0  0  0  0  0  0  0  0  0
   37.7830   28.0850   42.8130 C   0  0  0  0  0  0  0  0  0  0  0  0
   37.5560   26.6190   42.5890 C   0  0  0  0  0  0  0  0  0  0  0  0
   36.3530   27.8870   39.7960 H   0  0  0  0  0  0  0  0  0  0  0  0
   35.5750   27.9290   41.4850 H   0  0  0  0  0  0  0  0  0  0  0  0
   38.5000   28.5460   40.8150 H   0  0  0  0  0  0  0  0  0  0  0  0
   36.9670   28.4500   43.4650 H   0  0  0  0  0  0  0  0  0  0  0  0
   38.7950   28.2840   43.2170 H   0  0  0  0  0  0  0  0  0  0  0  0
   36.7740   26.2110   43.2730 H   0  0  0  0  0  0  0  0  0  0  0  0
   38.4710   26.0280   42.6980 H   0  0  0  0  0  0  0  0  0  0  0  0
   37.3400   22.9280   40.1760 C   0  0  0  0  0  0  0  0  0  0  0  0
   37.2530   24.0270   41.0190 C   0  0  0  0  0  0  0  0  0  0  0  0
   37.1560   25.3100   40.4840 C   0  0  0  0  0  0  0  0  0  0  0  0
   37.1550   25.3980   39.1340 N   0  0  0  0  0  0  0  0  0  0  0  0
   37.2380   24.3530   38.3020 C   0  0  0  0  0  0  0  0  0  0  0  0
   37.3320   23.1020   38.8500 N   0  0  0  0  0  0  0  0  0  0  0  0
   37.4130   21.9590   40.6560 H   0  0  0  0  0  0  0  0  0  0  0  0
   37.2510   24.0060   42.1110 H   0  0  0  0  0  0  0  0  0  0  0  0
   37.2270   24.5370   37.2420 H   0  0  0  0  0  0  0  0  0  0  0  0
   40.3890   30.6930   43.0660 N   0  0  0  0  0  0  0  0  0  0  0  0
   39.7210   31.2010   42.2780 C   0  0  0  0  0  0  0  0  0  0  0  0
  1 47  1  0  0  0  0
  2  1  1  0  0  0  0
  2 23  1  0  0  0  0
  3  2  2  0  0  0  0
  4  5  2  0  0  0  0
  4  3  1  0  0  0  0
  5  6  1  0  0  0  0
  6 12  1  0  0  0  0
  6  1  2  0  0  0  0
  7  3  1  0  0  0  0
  8  4  1  0  0  0  0
  9  5  1  0  0  0  0
 10 14  1  0  0  0  0
 10 12  1  0  0  0  0
 11 10  2  0  0  0  0
 12 13  1  0  0  0  0
 14 15  1  0  0  0  0
 15 17  1  0  0  0  0
 16 15  1  0  0  0  0
 17 18  1  0  0  0  0
 19 20  1  0  0  0  0
 19 17  1  0  0  0  0
 21 19  1  0  0  0  0
 22 21  1  0  0  0  0
 22 14  1  0  0  0  0
 23 24  1  0  0  0  0
 25 29  1  0  0  0  0
 26 25  1  0  0  0  0
 26 27  1  0  0  0  0
 26 31  1  0  0  0  0
 27 32  1  6  0  0  0
 27 23  1  0  0  0  0
 27 28  1  0  0  0  0
 28 34  1  0  0  0  0
 28 33  1  0  0  0  0
 29 36  1  0  0  0  0
 29 28  1  0  0  0  0
 29 35  1  0  0  0  0
 30 26  1  0  0  0  0
 37 43  1  0  0  0  0
 37 38  1  0  0  0  0
 38 44  1  0  0  0  0
 39 38  2  0  0  0  0
 39 25  1  0  0  0  0
 40 39  1  0  0  0  0
 41 42  1  0  0  0  0
 41 40  2  0  0  0  0
 42 37  2  0  0  0  0
 45 41  1  0  0  0  0
 47 46  3  0  0  0  0
M  END
>  <minimizedAffinity>
-6.09781981

$$$$

 OpenBabel03242519123D

 47 50  0  0  1  0  0  0  0  0999 V2000
   37.6390   27.2070   41.0980 C   0  0  0  0  0  0  0  0  0  0  0  0
   37.7710   28.4930   41.6650 C   0  0  0  0  0  0  0  0  0  0  0  0
   38.4660   28.4880   42.8430 C   0  0  0  0  0  0  0  0  0  0  0  0
   39.0110   27.3910   43.4740 C   0  0  0  0  0  0  0  0  0  0  0  0
   38.8540   26.1650   42.8800 C   0  0  0  0  0  0  0  0  0  0  0  0
   38.1680   26.0990   41.7000 C   0  0  0  0  0  0  0  0  0  0  0  0
   38.6140   29.4490   43.3500 H   0  0  0  0  0  0  0  0  0  0  0  0
   39.5440   27.4940   44.4040 H   0  0  0  0  0  0  0  0  0  0  0  0
   39.2850   25.3080   43.3800 H   0  0  0  0  0  0  0  0  0  0  0  0
   39.0170   24.3020   40.2410 C   0  0  0  0  0  0  0  0  0  0  0  0
   40.0600   25.0260   40.0180 O   0  0  0  0  0  0  0  0  0  0  0  0
   38.0180   24.8050   41.1050 N   0  0  0  0  0  0  0  0  0  0  0  0
   37.1390   24.3470   41.3890 H   0  0  0  0  0  0  0  0  0  0  0  0
   38.7850   22.9890   39.6650 N   0  0  0  0  0  0  0  0  0  0  0  0
   37.7750   22.1190   40.1950 C   0  0  0  0  0  3  0  0  0  0  0  0
   38.1090   21.5570   41.0900 H   0  0  0  0  0  0  0  0  0  0  0  0
   37.3250   21.1240   39.1540 C   0  0  0  0  0  3  0  0  0  0  0  0
   36.2180   21.1290   38.9960 H   0  0  0  0  0  0  0  0  0  0  0  0
   37.9060   21.3450   37.8470 N   0  0  0  0  0  0  0  0  0  0  0  0
   37.6680   22.2780   37.4420 H   0  0  0  0  0  0  0  0  0  0  0  0
   39.3570   21.3420   38.0350 C   0  0  0  0  0  2  0  0  0  0  0  0
   39.6940   22.7280   38.5380 C   0  0  0  0  0  2  0  0  0  0  0  0
   37.2490   29.6670   41.0970 N   0  0  0  0  0  0  0  0  0  0  0  0
   36.2250   29.6880   41.3060 H   0  0  0  0  0  0  0  0  0  0  0  0
   38.2290   32.9120   40.0210 N   0  0  0  0  0  0  0  0  0  0  0  0
   38.0080   31.9990   41.1340 C   0  0  0  0  0  0  0  0  0  0  0  0
   37.8450   30.7280   40.3580 C   0  0  2  0  0  0  0  0  0  0  0  0
   36.8550   31.1490   39.2890 C   0  0  0  0  0  0  0  0  0  0  0  0
   37.2530   32.5700   39.0150 C   0  0  0  0  0  0  0  0  0  0  0  0
   38.8730   31.9840   41.8240 H   0  0  0  0  0  0  0  0  0  0  0  0
   37.0470   32.2680   41.6080 H   0  0  0  0  0  0  0  0  0  0  0  0
   38.8170   30.4440   39.8990 H   0  0  0  0  0  0  0  0  0  0  0  0
   35.8460   31.1700   39.7420 H   0  0  0  0  0  0  0  0  0  0  0  0
   36.9190   30.5250   38.3770 H   0  0  0  0  0  0  0  0  0  0  0  0
   36.3920   33.2710   39.1270 H   0  0  0  0  0  0  0  0  0  0  0  0
   37.6940   32.7020   38.0210 H   0  0  0  0  0  0  0  0  0  0  0  0
   41.3220   34.8690   39.2910 C   0  0  0  0  0  0  0  0  0  0  0  0
   40.4770   33.7740   39.4040 C   0  0  0  0  0  0  0  0  0  0  0  0
   39.1730   33.9440   39.8670 C   0  0  0  0  0  0  0  0  0  0  0  0
   38.8110   35.2090   40.1860 N   0  0  0  0  0  0  0  0  0  0  0  0
   39.6090   36.2790   40.0860 C   0  0  0  0  0  0  0  0  0  0  0  0
   40.8850   36.0870   39.6290 N   0  0  0  0  0  0  0  0  0  0  0  0
   42.3220   34.6670   38.9260 H   0  0  0  0  0  0  0  0  0  0  0  0
   40.7220   32.7380   39.1600 H   0  0  0  0  0  0  0  0  0  0  0  0
   39.2180   37.2400   40.3670 H   0  0  0  0  0  0  0  0  0  0  0  0
   36.3340   27.0520   38.8430 N   0  0  0  0  0  0  0  0  0  0  0  0
   36.9090   27.1170   39.8390 C   0  0  0  0  0  0  0  0  0  0  0  0
  1  2  2  0  0  0  0
  1  6  1  0  0  0  0
  2  3  1  0  0  0  0
  3  7  1  0  0  0  0
  3  4  2  0  0  0  0
  4  8  1  0  0  0  0
  5  9  1  0  0  0  0
  5  4  1  0  0  0  0
  6  5  2  0  0  0  0
 10 12  1  0  0  0  0
 11 10  2  0  0  0  0
 12 13  1  0  0  0  0
 12  6  1  0  0  0  0
 14 15  1  0  0  0  0
 14 10  1  0  0  0  0
 15 16  1  0  0  0  0
 17 15  1  0  0  0  0
 18 17  1  0  0  0  0
 19 21  1  0  0  0  0
 19 17  1  0  0  0  0
 20 19  1  0  0  0  0
 21 22  1  0  0  0  0
 22 14  1  0  0  0  0
 23 24  1  0  0  0  0
 23  2  1  0  0  0  0
 25 26  1  0  0  0  0
 26 31  1  0  0  0  0
 26 30  1  0  0  0  0
 27 32  1  6  0  0  0
 27 23  1  0  0  0  0
 27 26  1  0  0  0  0
 28 33  1  0  0  0  0
 28 27  1  0  0  0  0
 29 35  1  0  0  0  0
 29 28  1  0  0  0  0
 29 25  1  0  0  0  0
 34 28  1  0  0  0  0
 36 29  1  0  0  0  0
 37 38  2  0  0  0  0
 37 42  1  0  0  0  0
 38 39  1  0  0  0  0
 39 25  1  0  0  0  0
 39 40  2  0  0  0  0
 41 40  1  0  0  0  0
 41 45  1  0  0  0  0
 42 41  2  0  0  0  0
 43 37  1  0  0  0  0
 44 38  1  0  0  0  0
 46 47  3  0  0  0  0
 47  1  1  0  0  0  0
M  END
>  <minimizedAffinity>
-5.97493029

$$$$

 OpenBabel03242519123D

 47 50  0  0  1  0  0  0  0  0999 V2000
   37.3680   29.4570   40.9180 C   0  0  0  0  0  0  0  0  0  0  0  0
   36.8560   28.1440   40.8260 C   0  0  0  0  0  0  0  0  0  0  0  0
   36.0790   27.9500   39.7170 C   0  0  0  0  0  0  0  0  0  0  0  0
   35.7800   28.8820   38.7470 C   0  0  0  0  0  0  0  0  0  0  0  0
   36.3030   30.1420   38.8840 C   0  0  0  0  0  0  0  0  0  0  0  0
   37.0890   30.4030   39.9710 C   0  0  0  0  0  0  0  0  0  0  0  0
   35.6420   26.9550   39.5710 H   0  0  0  0  0  0  0  0  0  0  0  0
   35.1540   28.6280   37.9080 H   0  0  0  0  0  0  0  0  0  0  0  0
   36.0640   30.8680   38.1190 H   0  0  0  0  0  0  0  0  0  0  0  0
   38.8530   32.0540   39.4820 C   0  0  0  0  0  0  0  0  0  0  0  0
   39.4730   31.1400   38.8180 O   0  0  0  0  0  0  0  0  0  0  0  0
   37.6200   31.7280   40.0880 N   0  0  0  0  0  0  0  0  0  0  0  0
   37.0030   32.3450   40.6390 H   0  0  0  0  0  0  0  0  0  0  0  0
   39.3320   33.4140   39.6580 N   0  0  0  0  0  0  0  0  0  0  0  0
   38.4570   34.4480   40.1310 C   0  0  0  0  0  3  0  0  0  0  0  0
   37.8230   34.8820   39.3320 H   0  0  0  0  0  0  0  0  0  0  0  0
   39.2430   35.5670   40.7670 C   0  0  0  0  0  3  0  0  0  0  0  0
   38.9050   35.8030   41.8060 H   0  0  0  0  0  0  0  0  0  0  0  0
   40.6610   35.2960   40.8710 N   0  0  0  0  0  0  0  0  0  0  0  0
   40.8800   34.4550   41.4520 H   0  0  0  0  0  0  0  0  0  0  0  0
   41.1230   34.9850   39.5180 C   0  0  0  0  0  2  0  0  0  0  0  0
   40.7530   33.5360   39.2960 C   0  0  0  0  0  2  0  0  0  0  0  0
   37.1050   27.1290   41.7650 N   0  0  0  0  0  0  0  0  0  0  0  0
   36.1830   26.8400   42.1650 H   0  0  0  0  0  0  0  0  0  0  0  0
   40.2890   25.5460   41.7880 N   0  0  0  0  0  0  0  0  0  0  0  0
   39.4380   26.5910   41.2370 C   0  0  0  0  0  0  0  0  0  0  0  0
   38.3000   26.4950   42.2070 C   0  0  2  0  0  0  0  0  0  0  0  0
   38.0430   25.0010   42.2270 C   0  0  0  0  0  0  0  0  0  0  0  0
   39.4230   24.4280   42.0790 C   0  0  0  0  0  0  0  0  0  0  0  0
   39.9450   27.5750   41.2500 H   0  0  0  0  0  0  0  0  0  0  0  0
   39.1000   26.2630   40.2380 H   0  0  0  0  0  0  0  0  0  0  0  0
   38.6330   26.8480   43.2080 H   0  0  0  0  0  0  0  0  0  0  0  0
   37.4760   24.7360   41.3150 H   0  0  0  0  0  0  0  0  0  0  0  0
   37.5600   24.6630   43.1640 H   0  0  0  0  0  0  0  0  0  0  0  0
   39.4870   23.7180   41.2200 H   0  0  0  0  0  0  0  0  0  0  0  0
   39.7710   23.9250   42.9870 H   0  0  0  0  0  0  0  0  0  0  0  0
   43.6540   25.4540   43.3980 C   0  0  0  0  0  0  0  0  0  0  0  0
   42.2710   25.4590   43.2840 C   0  0  0  0  0  0  0  0  0  0  0  0
   41.6760   25.5340   42.0260 C   0  0  0  0  0  0  0  0  0  0  0  0
   42.5170   25.6000   40.9680 N   0  0  0  0  0  0  0  0  0  0  0  0
   43.8530   25.5980   41.0540 C   0  0  0  0  0  0  0  0  0  0  0  0
   44.4150   25.5220   42.3000 N   0  0  0  0  0  0  0  0  0  0  0  0
   44.0520   25.3940   44.4040 H   0  0  0  0  0  0  0  0  0  0  0  0
   41.5540   25.4080   44.1050 H   0  0  0  0  0  0  0  0  0  0  0  0
   44.4260   25.6530   40.1460 H   0  0  0  0  0  0  0  0  0  0  0  0
   38.8700   29.9920   42.9830 N   0  0  0  0  0  0  0  0  0  0  0  0
   38.2090   29.7540   42.0710 C   0  0  0  0  0  0  0  0  0  0  0  0
  1 47  1  0  0  0  0
  2  1  1  0  0  0  0
  2 23  1  0  0  0  0
  3  2  2  0  0  0  0
  4  5  2  0  0  0  0
  4  3  1  0  0  0  0
  5  6  1  0  0  0  0
  6 12  1  0  0  0  0
  6  1  2  0  0  0  0
  7  3  1  0  0  0  0
  8  4  1  0  0  0  0
  9  5  1  0  0  0  0
 10 14  1  0  0  0  0
 10 12  1  0  0  0  0
 11 10  2  0  0  0  0
 12 13  1  0  0  0  0
 14 15  1  0  0  0  0
 15 17  1  0  0  0  0
 16 15  1  0  0  0  0
 17 19  1  0  0  0  0
 17 18  1  0  0  0  0
 19 20  1  0  0  0  0
 21 19  1  0  0  0  0
 22 21  1  0  0  0  0
 22 14  1  0  0  0  0
 23 24  1  0  0  0  0
 23 27  1  0  0  0  0
 25 39  1  0  0  0  0
 25 29  1  0  0  0  0
 26 30  1  0  0  0  0
 26 25  1  0  0  0  0
 26 27  1  0  0  0  0
 27 28  1  0  0  0  0
 27 32  1  1  0  0  0
 28 34  1  0  0  0  0
 29 28  1  0  0  0  0
 29 36  1  0  0  0  0
 31 26  1  0  0  0  0
 33 28  1  0  0  0  0
 35 29  1  0  0  0  0
 37 43  1  0  0  0  0
 38 37  1  0  0  0  0
 38 44  1  0  0  0  0
 39 38  2  0  0  0  0
 40 41  2  0  0  0  0
 40 39  1  0  0  0  0
 41 42  1  0  0  0  0
 42 37  2  0  0  0  0
 45 41  1  0  0  0  0
 47 46  3  0  0  0  0
M  END
>  <minimizedAffinity>
-5.9477191

$$$$

 OpenBabel03242519123D

 47 50  0  0  1  0  0  0  0  0999 V2000
   38.9530   29.8610   42.1220 C   0  0  0  0  0  0  0  0  0  0  0  0
   39.0040   28.5230   42.5700 C   0  0  0  0  0  0  0  0  0  0  0  0
   40.2400   28.1630   43.0330 C   0  0  0  0  0  0  0  0  0  0  0  0
   41.3620   28.9590   43.0920 C   0  0  0  0  0  0  0  0  0  0  0  0
   41.2580   30.2510   42.6440 C   0  0  0  0  0  0  0  0  0  0  0  0
   40.0500   30.6760   42.1670 C   0  0  0  0  0  0  0  0  0  0  0  0
   40.3650   27.1370   43.4010 H   0  0  0  0  0  0  0  0  0  0  0  0
   42.2940   28.5780   43.4760 H   0  0  0  0  0  0  0  0  0  0  0  0
   42.1430   30.8700   42.6930 H   0  0  0  0  0  0  0  0  0  0  0  0
   40.6780   32.4250   40.5480 C   0  0  0  0  0  0  0  0  0  0  0  0
   41.3760   31.5410   39.9200 O   0  0  0  0  0  0  0  0  0  0  0  0
   39.9710   32.0290   41.7050 N   0  0  0  0  0  0  0  0  0  0  0  0
   39.3660   32.6090   42.3050 H   0  0  0  0  0  0  0  0  0  0  0  0
   40.5600   33.8170   40.1510 N   0  0  0  0  0  0  0  0  0  0  0  0
   39.5330   34.6560   40.7000 C   0  0  0  0  0  3  0  0  0  0  0  0
   38.5540   34.5330   40.1950 H   0  0  0  0  0  0  0  0  0  0  0  0
   39.9270   36.1090   40.6170 C   0  0  0  0  0  3  0  0  0  0  0  0
   39.8770   36.6320   41.6040 H   0  0  0  0  0  0  0  0  0  0  0  0
   41.2740   36.3210   40.1310 N   0  0  0  0  0  0  0  0  0  0  0  0
   42.0050   35.8830   40.7360 H   0  0  0  0  0  0  0  0  0  0  0  0
   41.3580   35.6430   38.8370 C   0  0  0  0  0  2  0  0  0  0  0  0
   41.5910   34.1860   39.1680 C   0  0  0  0  0  2  0  0  0  0  0  0
   37.9140   27.6370   42.5490 N   0  0  0  0  0  0  0  0  0  0  0  0
   37.2160   27.9840   43.2450 H   0  0  0  0  0  0  0  0  0  0  0  0
   38.1680   25.0010   40.1760 N   0  0  0  0  0  0  0  0  0  0  0  0
   38.8460   25.8710   41.1270 C   0  0  0  0  0  0  0  0  0  0  0  0
   37.6430   26.4590   41.7970 C   0  0  2  0  0  0  0  0  0  0  0  0
   36.7990   26.8650   40.6050 C   0  0  0  0  0  0  0  0  0  0  0  0
   37.0910   25.7790   39.6110 C   0  0  0  0  0  0  0  0  0  0  0  0
   39.4930   25.2930   41.8140 H   0  0  0  0  0  0  0  0  0  0  0  0
   39.3710   26.6560   40.5550 H   0  0  0  0  0  0  0  0  0  0  0  0
   37.1260   25.6750   42.3930 H   0  0  0  0  0  0  0  0  0  0  0  0
   37.2090   27.8070   40.1950 H   0  0  0  0  0  0  0  0  0  0  0  0
   35.7190   26.9180   40.8440 H   0  0  0  0  0  0  0  0  0  0  0  0
   37.4480   26.1930   38.6380 H   0  0  0  0  0  0  0  0  0  0  0  0
   36.2290   25.1290   39.4290 H   0  0  0  0  0  0  0  0  0  0  0  0
   38.1900   21.2750   39.9690 C   0  0  0  0  0  0  0  0  0  0  0  0
   37.8520   22.5470   40.4090 C   0  0  0  0  0  0  0  0  0  0  0  0
   38.4330   23.6670   39.8150 C   0  0  0  0  0  0  0  0  0  0  0  0
   39.3160   23.4260   38.8180 N   0  0  0  0  0  0  0  0  0  0  0  0
   39.6560   22.2090   38.3780 C   0  0  0  0  0  0  0  0  0  0  0  0
   39.0730   21.1250   38.9760 N   0  0  0  0  0  0  0  0  0  0  0  0
   37.7030   20.4490   40.4730 H   0  0  0  0  0  0  0  0  0  0  0  0
   37.1480   22.7910   41.2070 H   0  0  0  0  0  0  0  0  0  0  0  0
   40.3690   22.1330   37.5770 H   0  0  0  0  0  0  0  0  0  0  0  0
   36.6590   30.7070   41.2090 N   0  0  0  0  0  0  0  0  0  0  0  0
   37.6720   30.3320   41.6100 C   0  0  0  0  0  0  0  0  0  0  0  0
  1  6  2  0  0  0  0
  1  2  1  0  0  0  0
  2  3  2  0  0  0  0
  3  4  1  0  0  0  0
  3  7  1  0  0  0  0
  4  8  1  0  0  0  0
  5  9  1  0  0  0  0
  5  4  2  0  0  0  0
  6  5  1  0  0  0  0
 10 12  1  0  0  0  0
 11 10  2  0  0  0  0
 12  6  1  0  0  0  0
 12 13  1  0  0  0  0
 14 10  1  0  0  0  0
 14 15  1  0  0  0  0
 16 15  1  0  0  0  0
 17 15  1  0  0  0  0
 17 18  1  0  0  0  0
 19 17  1  0  0  0  0
 19 20  1  0  0  0  0
 21 22  1  0  0  0  0
 21 19  1  0  0  0  0
 22 14  1  0  0  0  0
 23  2  1  0  0  0  0
 23 24  1  0  0  0  0
 25 26  1  0  0  0  0
 26 27  1  0  0  0  0
 26 30  1  0  0  0  0
 27 32  1  1  0  0  0
 27 23  1  0  0  0  0
 28 34  1  0  0  0  0
 28 27  1  0  0  0  0
 29 25  1  0  0  0  0
 29 28  1  0  0  0  0
 31 26  1  0  0  0  0
 33 28  1  0  0  0  0
 35 29  1  0  0  0  0
 36 29  1  0  0  0  0
 37 38  1  0  0  0  0
 37 43  1  0  0  0  0
 38 44  1  0  0  0  0
 39 25  1  0  0  0  0
 39 38  2  0  0  0  0
 40 39  1  0  0  0  0
 41 40  2  0  0  0  0
 41 42  1  0  0  0  0
 42 37  2  0  0  0  0
 45 41  1  0  0  0  0
 46 47  3  0  0  0  0
 47  1  1  0  0  0  0
M  END
>  <minimizedAffinity>
-5.84623098

$$$$

 OpenBabel03242519123D

 47 50  0  0  1  0  0  0  0  0999 V2000
   37.4720   29.1120   40.9040 C   0  0  0  0  0  0  0  0  0  0  0  0
   37.1650   27.7860   41.2810 C   0  0  0  0  0  0  0  0  0  0  0  0
   37.5070   27.5070   42.5750 C   0  0  0  0  0  0  0  0  0  0  0  0
   38.0920   28.3680   43.4780 C   0  0  0  0  0  0  0  0  0  0  0  0
   38.3700   29.6450   43.0600 C   0  0  0  0  0  0  0  0  0  0  0  0
   38.0520   29.9900   41.7770 C   0  0  0  0  0  0  0  0  0  0  0  0
   37.3010   26.4960   42.9490 H   0  0  0  0  0  0  0  0  0  0  0  0
   38.3230   28.0490   44.4800 H   0  0  0  0  0  0  0  0  0  0  0  0
   38.8280   30.3150   43.7740 H   0  0  0  0  0  0  0  0  0  0  0  0
   39.6650   31.6640   40.9540 C   0  0  0  0  0  0  0  0  0  0  0  0
   40.5630   30.7390   40.9430 O   0  0  0  0  0  0  0  0  0  0  0  0
   38.3560   31.3280   41.3680 N   0  0  0  0  0  0  0  0  0  0  0  0
   37.5330   31.9470   41.4220 H   0  0  0  0  0  0  0  0  0  0  0  0
   39.8980   33.0440   40.5700 N   0  0  0  0  0  0  0  0  0  0  0  0
   38.8020   33.9320   40.3070 C   0  0  0  0  0  3  0  0  0  0  0  0
   38.3880   33.8220   39.2840 H   0  0  0  0  0  0  0  0  0  0  0  0
   39.2180   35.3690   40.4940 C   0  0  0  0  0  3  0  0  0  0  0  0
   38.5580   35.9260   41.2040 H   0  0  0  0  0  0  0  0  0  0  0  0
   40.5620   35.5230   41.0080 N   0  0  0  0  0  0  0  0  0  0  0  0
   40.6990   35.0840   41.9470 H   0  0  0  0  0  0  0  0  0  0  0  0
   41.4420   34.8000   40.0890 C   0  0  0  0  0  2  0  0  0  0  0  0
   41.3360   33.3490   40.5000 C   0  0  0  0  0  2  0  0  0  0  0  0
   36.5710   26.8380   40.4320 N   0  0  0  0  0  0  0  0  0  0  0  0
   35.6200   27.1940   40.1820 H   0  0  0  0  0  0  0  0  0  0  0  0
   37.5630   23.4330   40.1790 N   0  0  0  0  0  0  0  0  0  0  0  0
   36.6360   24.4060   40.7380 C   0  0  0  0  0  0  0  0  0  0  0  0
   37.0230   25.5930   39.9110 C   0  0  2  0  0  0  0  0  0  0  0  0
   38.5340   25.5690   40.0340 C   0  0  0  0  0  0  0  0  0  0  0  0
   38.8380   24.1000   40.0720 C   0  0  0  0  0  0  0  0  0  0  0  0
   35.5840   24.0940   40.5930 H   0  0  0  0  0  0  0  0  0  0  0  0
   36.9210   24.5810   41.7910 H   0  0  0  0  0  0  0  0  0  0  0  0
   36.7150   25.4280   38.8550 H   0  0  0  0  0  0  0  0  0  0  0  0
   38.8060   25.9890   41.0210 H   0  0  0  0  0  0  0  0  0  0  0  0
   39.0400   26.0680   39.1850 H   0  0  0  0  0  0  0  0  0  0  0  0
   39.4400   23.8250   40.9700 H   0  0  0  0  0  0  0  0  0  0  0  0
   39.3570   23.7520   39.1730 H   0  0  0  0  0  0  0  0  0  0  0  0
   37.8770   19.7480   39.6790 C   0  0  0  0  0  0  0  0  0  0  0  0
   38.1860   21.0280   40.1170 C   0  0  0  0  0  0  0  0  0  0  0  0
   37.3520   22.0960   39.7910 C   0  0  0  0  0  0  0  0  0  0  0  0
   36.2630   21.8000   39.0430 N   0  0  0  0  0  0  0  0  0  0  0  0
   35.9470   20.5740   38.6090 C   0  0  0  0  0  0  0  0  0  0  0  0
   36.7800   19.5410   38.9430 N   0  0  0  0  0  0  0  0  0  0  0  0
   38.5670   18.9630   39.9670 H   0  0  0  0  0  0  0  0  0  0  0  0
   39.0500   21.3150   40.7200 H   0  0  0  0  0  0  0  0  0  0  0  0
   35.0550   20.4520   38.0210 H   0  0  0  0  0  0  0  0  0  0  0  0
   36.8750   29.8040   38.4600 N   0  0  0  0  0  0  0  0  0  0  0  0
   37.1410   29.4980   39.5380 C   0  0  0  0  0  0  0  0  0  0  0  0
  1  2  2  0  0  0  0
  1  6  1  0  0  0  0
  2  3  1  0  0  0  0
  3  7  1  0  0  0  0
  3  4  2  0  0  0  0
  4  8  1  0  0  0  0
  5  4  1  0  0  0  0
  5  9  1  0  0  0  0
  6  5  2  0  0  0  0
 10 12  1  0  0  0  0
 11 10  2  0  0  0  0
 12 13  1  0  0  0  0
 12  6  1  0  0  0  0
 14 10  1  0  0  0  0
 15 17  1  0  0  0  0
 15 14  1  0  0  0  0
 16 15  1  0  0  0  0
 17 19  1  0  0  0  0
 17 18  1  0  0  0  0
 19 20  1  0  0  0  0
 21 22  1  0  0  0  0
 21 19  1  0  0  0  0
 22 14  1  0  0  0  0
 23  2  1  0  0  0  0
 24 23  1  0  0  0  0
 25 26  1  0  0  0  0
 26 31  1  0  0  0  0
 27 32  1  6  0  0  0
 27 28  1  0  0  0  0
 27 23  1  0  0  0  0
 27 26  1  0  0  0  0
 28 29  1  0  0  0  0
 28 33  1  0  0  0  0
 29 25  1  0  0  0  0
 29 35  1  0  0  0  0
 30 26  1  0  0  0  0
 34 28  1  0  0  0  0
 36 29  1  0  0  0  0
 37 43  1  0  0  0  0
 37 38  1  0  0  0  0
 38 44  1  0  0  0  0
 39 38  2  0  0  0  0
 39 25  1  0  0  0  0
 40 39  1  0  0  0  0
 41 42  1  0  0  0  0
 41 40  2  0  0  0  0
 42 37  2  0  0  0  0
 45 41  1  0  0  0  0
 46 47  3  0  0  0  0
 47  1  1  0  0  0  0
M  END
>  <minimizedAffinity>
-5.8241806

$$$$

 OpenBabel03242519123D

 47 50  0  0  1  0  0  0  0  0999 V2000
   39.2080   27.0530   42.1930 C   0  0  0  0  0  0  0  0  0  0  0  0
   39.2540   28.3190   42.8170 C   0  0  0  0  0  0  0  0  0  0  0  0
   38.0670   28.6700   43.3990 C   0  0  0  0  0  0  0  0  0  0  0  0
   36.9080   27.9260   43.4210 C   0  0  0  0  0  0  0  0  0  0  0  0
   36.9170   26.7030   42.8000 C   0  0  0  0  0  0  0  0  0  0  0  0
   38.0720   26.2920   42.1980 C   0  0  0  0  0  0  0  0  0  0  0  0
   38.0180   29.6410   43.9070 H   0  0  0  0  0  0  0  0  0  0  0  0
   36.0210   28.2950   43.9100 H   0  0  0  0  0  0  0  0  0  0  0  0
   36.0040   26.1250   42.8210 H   0  0  0  0  0  0  0  0  0  0  0  0
   37.5600   24.8870   40.2370 C   0  0  0  0  0  0  0  0  0  0  0  0
   37.1480   25.9480   39.6310 O   0  0  0  0  0  0  0  0  0  0  0  0
   38.0520   25.0110   41.5560 N   0  0  0  0  0  0  0  0  0  0  0  0
   38.4230   24.2670   42.1640 H   0  0  0  0  0  0  0  0  0  0  0  0
   37.5580   23.5540   39.6610 N   0  0  0  0  0  0  0  0  0  0  0  0
   38.3100   22.4900   40.2600 C   0  0  0  0  0  3  0  0  0  0  0  0
   39.3820   22.5020   39.9780 H   0  0  0  0  0  0  0  0  0  0  0  0
   37.7380   21.1480   39.8800 C   0  0  0  0  0  3  0  0  0  0  0  0
   37.4980   20.5090   40.7660 H   0  0  0  0  0  0  0  0  0  0  0  0
   36.5100   21.2330   39.1180 N   0  0  0  0  0  0  0  0  0  0  0  0
   35.7380   21.7150   39.6310 H   0  0  0  0  0  0  0  0  0  0  0  0
   36.8050   22.0670   37.9520 C   0  0  0  0  0  2  0  0  0  0  0  0
   36.7190   23.4920   38.4530 C   0  0  0  0  0  2  0  0  0  0  0  0
   40.3880   29.1480   42.8460 N   0  0  0  0  0  0  0  0  0  0  0  0
   41.0720   28.7190   43.5100 H   0  0  0  0  0  0  0  0  0  0  0  0
   40.2210   31.9880   40.7120 N   0  0  0  0  0  0  0  0  0  0  0  0
   39.5280   31.0980   41.6330 C   0  0  0  0  0  0  0  0  0  0  0  0
   40.7140   30.3600   42.1740 C   0  0  2  0  0  0  0  0  0  0  0  0
   41.4480   29.9900   40.9000 C   0  0  0  0  0  0  0  0  0  0  0  0
   41.1920   31.1770   40.0170 C   0  0  0  0  0  0  0  0  0  0  0  0
   38.9760   31.6660   42.4060 H   0  0  0  0  0  0  0  0  0  0  0  0
   38.9050   30.4090   41.0370 H   0  0  0  0  0  0  0  0  0  0  0  0
   41.3310   31.0460   42.7950 H   0  0  0  0  0  0  0  0  0  0  0  0
   40.9350   29.1220   40.4450 H   0  0  0  0  0  0  0  0  0  0  0  0
   42.5320   29.8300   41.0620 H   0  0  0  0  0  0  0  0  0  0  0  0
   40.7440   30.8760   39.0400 H   0  0  0  0  0  0  0  0  0  0  0  0
   42.0940   31.7680   39.8310 H   0  0  0  0  0  0  0  0  0  0  0  0
   38.7740   35.3830   40.1610 C   0  0  0  0  0  0  0  0  0  0  0  0
   38.8210   34.0160   40.3960 C   0  0  0  0  0  0  0  0  0  0  0  0
   40.0510   33.3650   40.4770 C   0  0  0  0  0  0  0  0  0  0  0  0
   41.1500   34.1370   40.3140 N   0  0  0  0  0  0  0  0  0  0  0  0
   41.1280   35.4560   40.0860 C   0  0  0  0  0  0  0  0  0  0  0  0
   39.9090   36.0740   40.0110 N   0  0  0  0  0  0  0  0  0  0  0  0
   37.7870   35.8270   40.1090 H   0  0  0  0  0  0  0  0  0  0  0  0
   37.9650   33.3530   40.5340 H   0  0  0  0  0  0  0  0  0  0  0  0
   42.0640   35.9730   39.9720 H   0  0  0  0  0  0  0  0  0  0  0  0
   41.3990   26.2340   41.0360 N   0  0  0  0  0  0  0  0  0  0  0  0
   40.4310   26.5970   41.5440 C   0  0  0  0  0  0  0  0  0  0  0  0
  1  6  2  0  0  0  0
  1  2  1  0  0  0  0
  2 23  1  0  0  0  0
  2  3  2  0  0  0  0
  3  4  1  0  0  0  0
  3  7  1  0  0  0  0
  4  8  1  0  0  0  0
  5  9  1  0  0  0  0
  5  4  2  0  0  0  0
  6  5  1  0  0  0  0
 10 12  1  0  0  0  0
 11 10  2  0  0  0  0
 12 13  1  0  0  0  0
 12  6  1  0  0  0  0
 14 10  1  0  0  0  0
 14 15  1  0  0  0  0
 16 15  1  0  0  0  0
 17 15  1  0  0  0  0
 17 18  1  0  0  0  0
 19 20  1  0  0  0  0
 19 17  1  0  0  0  0
 21 22  1  0  0  0  0
 21 19  1  0  0  0  0
 22 14  1  0  0  0  0
 23 24  1  0  0  0  0
 25 26  1  0  0  0  0
 26 27  1  0  0  0  0
 26 30  1  0  0  0  0
 27 32  1  1  0  0  0
 27 23  1  0  0  0  0
 28 34  1  0  0  0  0
 28 27  1  0  0  0  0
 29 25  1  0  0  0  0
 29 28  1  0  0  0  0
 31 26  1  0  0  0  0
 33 28  1  0  0  0  0
 35 29  1  0  0  0  0
 36 29  1  0  0  0  0
 37 38  1  0  0  0  0
 38 39  2  0  0  0  0
 38 44  1  0  0  0  0
 39 25  1  0  0  0  0
 40 39  1  0  0  0  0
 41 40  2  0  0  0  0
 42 41  1  0  0  0  0
 42 37  2  0  0  0  0
 43 37  1  0  0  0  0
 45 41  1  0  0  0  0
 46 47  3  0  0  0  0
 47  1  1  0  0  0  0
M  END
>  <minimizedAffinity>
-5.80142069

$$$$
