REMARK  Name = 
REMARK  1 active torsions:
REMARK  status: ('A' for Active; 'I' for Inactive)
REMARK    1  A    between atoms: C_3  and  C_7
REMARK                            x       y       z     vdW  Elec       q    Type
REMARK                         _______ _______ _______ _____ _____    ______ ____
ROOT
ATOM      1  C   UNL     1      46.969  34.788  41.945  0.00  0.00    +0.000 C 
ATOM      2  O   UNL     1      48.046  35.394  41.736  0.00  0.00    +0.000 OA
ATOM      3  N   UNL     1      46.472  33.984  40.878  0.00  0.00    +0.000 N 
ATOM      4  C   UNL     1      47.065  32.715  40.558  0.00  0.00    +0.000 C 
ATOM      5  H   UNL     1      47.988  32.827  39.964  0.00  0.00    +0.000 HD
ATOM      6  C   UNL     1      46.080  31.766  39.935  0.00  0.00    +0.000 C 
ATOM      7  H   UNL     1      45.351  31.438  40.705  0.00  0.00    +0.000 HD
ATOM      8  N   UNL     1      45.426  32.289  38.775  0.00  0.00    +0.000 NA
ATOM      9  H   UNL     1      45.838  31.920  37.902  0.00  0.00    +0.000 HD
ATOM     10  C   UNL     1      45.388  33.723  38.706  0.00  0.00    +0.000 C 
ATOM     11  C   UNL     1      45.362  34.383  40.063  0.00  0.00    +0.000 C 
ENDROOT
BRANCH   1  14
ATOM     12  C   UNL     1      44.580  35.996  44.480  0.00  0.00    +0.000 A 
ATOM     13  C   UNL     1      45.324  35.911  43.296  0.00  0.00    +0.000 A 
ATOM     14  C   UNL     1      46.216  34.851  43.173  0.00  0.00    +0.000 A 
ATOM     15  N   UNL     1      46.319  33.957  44.197  0.00  0.00    +0.000 NA
ATOM     16  C   UNL     1      45.577  34.081  45.323  0.00  0.00    +0.000 A 
ATOM     17  N   UNL     1      44.700  35.107  45.468  0.00  0.00    +0.000 NA
ATOM     18  H   UNL     1      43.869  36.806  44.626  0.00  0.00    +0.000 HD
ATOM     19  H   UNL     1      45.149  36.678  42.568  0.00  0.00    +0.000 HD
ATOM     20  H   UNL     1      45.830  33.260  45.988  0.00  0.00    +0.000 HD
ENDBRANCH   1  14
TORSDOF 1
