
     RDKit          3D

 25 26  0  0  0  0  0  0  0  0999 V2000
   44.5133   35.9782   44.5346 C   0  0  0  0  0  0  0  0  0  0  0  0
   45.1902   35.9089   43.2960 C   0  0  0  0  0  0  0  0  0  0  0  0
   46.1124   34.8810   43.1028 C   0  0  0  0  0  0  0  0  0  0  0  0
   46.2973   34.0153   44.1200 N   0  0  0  0  0  0  0  0  0  0  0  0
   45.6443   34.0930   45.2978 C   0  0  0  0  0  0  0  0  0  0  0  0
   44.7577   35.0726   45.4972 N   0  0  0  0  0  0  0  0  0  0  0  0
   46.0988   32.8100   46.4445 S   0  0  0  0  0  0  0  0  0  0  0  0
   43.8156   36.7680   44.6599 H   0  0  0  0  0  0  0  0  0  0  0  0
   45.0614   36.5820   42.4759 H   0  0  0  0  0  0  0  0  0  0  0  0
   46.6524   34.7952   42.1642 H   0  0  0  0  0  0  0  0  0  0  0  0
   46.4426   30.4830   45.0554 H   0  0  0  0  0  0  0  0  0  0  0  0
   45.9810   30.2366   45.9482 N   0  0  0  0  0  0  0  0  0  0  0  0
   45.0722   31.3273   46.2798 C   0  0  1  0  0  0  0  0  0  0  0  0
   44.4559   30.9597   47.6311 C   0  0  2  0  0  0  0  0  0  0  0  0
   43.3344   30.9004   47.5548 H   0  0  0  0  0  0  0  0  0  0  0  0
   44.8830   29.6601   48.0981 N   0  0  0  0  0  0  0  0  0  0  0  0
   44.5797   28.9565   47.3690 H   0  0  0  0  0  0  0  0  0  0  0  0
   46.3222   29.5616   48.2078 C   0  0  0  0  0  0  0  0  0  0  0  0
   46.9744   30.1965   47.0118 C   0  0  0  0  0  0  0  0  0  0  0  0
   44.2520   31.4368   45.5598 H   0  0  0  0  0  0  0  0  0  0  0  0
   44.6602   31.7527   48.3738 H   0  0  0  0  0  0  0  0  0  0  0  0
   46.6918   29.9863   49.1656 H   0  0  0  0  0  0  0  0  0  0  0  0
   46.5418   28.4567   48.1498 H   0  0  0  0  0  0  0  0  0  0  0  0
   47.8661   29.6364   46.6579 H   0  0  0  0  0  0  0  0  0  0  0  0
   47.2729   31.2418   47.2442 H   0  0  0  0  0  0  0  0  0  0  0  0
  1  6  2  0
  2  1  1  0
  3  2  2  0
  3  4  1  0
  4  5  2  0
  5  6  1  0
  5  7  1  0
  1  8  1  0
  2  9  1  0
  3 10  1  0
 11 12  1  0
 12 13  1  0
 13 14  1  0
 14 15  1  6
 14 16  1  0
 16 17  1  0
 16 18  1  0
 18 19  1  0
 19 12  1  0
 13 20  1  6
 14 21  1  0
 18 22  1  0
 18 23  1  0
 19 24  1  0
 19 25  1  0
  7 13  1  0
M  ISO  6   8  14   9  14  10  14  11   5  15   8  17   5
M  END
>  <DihAtoms>  (1) 
4,6,12,11

>  <DihDeg>  (1) 
-179.92071705024233

$$$$
