
 OpenBabel03242521103D

 19 20  0  0  1  0  0  0  0  0999 V2000
   37.4610   27.5050   40.7920 S   0  0  0  0  0  0  0  0  0  0  0  0
   39.8260   26.0000   43.6790 C   0  0  0  0  0  0  0  0  0  0  0  0
   39.9080   24.6470   43.2780 C   0  0  0  0  0  0  0  0  0  0  0  0
   39.2250   24.2560   42.1270 C   0  0  0  0  0  0  0  0  0  0  0  0
   38.5270   25.2040   41.4690 N   0  0  0  0  0  0  0  0  0  0  0  0
   38.4570   26.4920   41.8630 C   0  0  0  0  0  0  0  0  0  0  0  0
   39.1070   26.8810   42.9640 N   0  0  0  0  0  0  0  0  0  0  0  0
   40.3540   26.2760   44.5570 H   0  0  0  0  0  0  0  0  0  0  0  0
   40.4540   23.8790   43.7820 H   0  0  0  0  0  0  0  0  0  0  0  0
   39.2640   23.2250   41.7880 H   0  0  0  0  0  0  0  0  0  0  0  0
   37.5260   28.7930   43.2000 H   0  0  0  0  0  0  0  0  0  0  0  0
   36.9560   29.3750   42.5610 N   0  0  0  0  0  0  0  0  0  0  0  0
   36.2180   28.4660   41.6930 C   0  0  1  0  0  3  0  0  0  0  0  0
   35.4370   29.3570   40.7240 C   0  0  0  0  0  3  0  0  0  0  0  0
   34.3320   29.1570   40.8020 H   0  0  0  0  0  0  0  0  0  0  0  0
   35.5990   30.7640   41.0150 N   0  0  0  0  0  0  0  0  0  0  0  0
   35.2450   30.9170   41.9990 H   0  0  0  0  0  0  0  0  0  0  0  0
   36.9870   31.1720   40.9960 C   0  0  0  0  0  2  0  0  0  0  0  0
   37.8350   30.1440   41.6920 C   0  0  0  0  0  2  0  0  0  0  0  0
  1  6  1  0  0  0  0
  2  8  1  0  0  0  0
  3  2  1  0  0  0  0
  3  9  1  0  0  0  0
  4  3  2  0  0  0  0
  5  6  2  0  0  0  0
  5  4  1  0  0  0  0
  6  7  1  0  0  0  0
  7  2  2  0  0  0  0
 10  4  1  0  0  0  0
 12 11  1  0  0  0  0
 13  1  1  6  0  0  0
 13 12  1  0  0  0  0
 14 15  1  0  0  0  0
 14 16  1  0  0  0  0
 14 13  1  0  0  0  0
 16 17  1  0  0  0  0
 18 16  1  0  0  0  0
 18 19  1  0  0  0  0
 19 12  1  0  0  0  0
M  END
>  <minimizedAffinity>
-4.39667416

$$$$

 OpenBabel03242521103D

 19 20  0  0  1  0  0  0  0  0999 V2000
   37.4930   30.0700   41.3700 S   0  0  0  0  0  0  0  0  0  0  0  0
   39.6940   33.3700   40.6930 C   0  0  0  0  0  0  0  0  0  0  0  0
   38.7730   34.1610   39.9690 C   0  0  0  0  0  0  0  0  0  0  0  0
   37.5050   33.6370   39.7200 C   0  0  0  0  0  0  0  0  0  0  0  0
   37.2410   32.4020   40.1910 N   0  0  0  0  0  0  0  0  0  0  0  0
   38.1300   31.6570   40.8800 C   0  0  0  0  0  0  0  0  0  0  0  0
   39.3490   32.1460   41.1260 N   0  0  0  0  0  0  0  0  0  0  0  0
   40.6530   33.7880   40.8710 H   0  0  0  0  0  0  0  0  0  0  0  0
   38.9580   35.1410   39.5860 H   0  0  0  0  0  0  0  0  0  0  0  0
   36.7700   34.2150   39.1670 H   0  0  0  0  0  0  0  0  0  0  0  0
   36.3010   29.5140   43.7650 H   0  0  0  0  0  0  0  0  0  0  0  0
   37.0620   28.8240   43.6380 N   0  0  0  0  0  0  0  0  0  0  0  0
   38.1560   29.5080   42.9590 C   0  0  1  0  0  3  0  0  0  0  0  0
   39.2350   28.4460   42.7340 C   0  0  0  0  0  3  0  0  0  0  0  0
   40.2010   28.7480   43.2250 H   0  0  0  0  0  0  0  0  0  0  0  0
   38.8840   27.1700   43.3170 N   0  0  0  0  0  0  0  0  0  0  0  0
   38.7580   27.3310   44.3540 H   0  0  0  0  0  0  0  0  0  0  0  0
   37.6270   26.6620   42.8120 C   0  0  0  0  0  2  0  0  0  0  0  0
   36.6170   27.7720   42.7370 C   0  0  0  0  0  2  0  0  0  0  0  0
  2  8  1  0  0  0  0
  2  7  1  0  0  0  0
  3  2  2  0  0  0  0
  4  3  1  0  0  0  0
  4  5  2  0  0  0  0
  5  6  1  0  0  0  0
  6  7  2  0  0  0  0
  6  1  1  0  0  0  0
  9  3  1  0  0  0  0
 10  4  1  0  0  0  0
 12 11  1  0  0  0  0
 13  1  1  6  0  0  0
 13 12  1  0  0  0  0
 14 13  1  0  0  0  0
 14 15  1  0  0  0  0
 14 16  1  0  0  0  0
 16 17  1  0  0  0  0
 18 16  1  0  0  0  0
 19 18  1  0  0  0  0
 19 12  1  0  0  0  0
M  END
>  <minimizedAffinity>
-4.18008852

$$$$

 OpenBabel03242521103D

 19 20  0  0  1  0  0  0  0  0999 V2000
   38.1680   29.9740   39.8380 S   0  0  0  0  0  0  0  0  0  0  0  0
   37.1160   26.8060   42.0860 C   0  0  0  0  0  0  0  0  0  0  0  0
   37.1400   27.3770   43.3790 C   0  0  0  0  0  0  0  0  0  0  0  0
   37.4820   28.7230   43.5010 C   0  0  0  0  0  0  0  0  0  0  0  0
   37.7690   29.3950   42.3670 N   0  0  0  0  0  0  0  0  0  0  0  0
   37.7420   28.8370   41.1390 C   0  0  0  0  0  0  0  0  0  0  0  0
   37.4170   27.5480   41.0070 N   0  0  0  0  0  0  0  0  0  0  0  0
   36.8530   25.7810   42.0160 H   0  0  0  0  0  0  0  0  0  0  0  0
   36.9170   26.8660   44.2910 H   0  0  0  0  0  0  0  0  0  0  0  0
   37.5120   29.1970   44.4780 H   0  0  0  0  0  0  0  0  0  0  0  0
   36.6180   31.4680   41.5210 H   0  0  0  0  0  0  0  0  0  0  0  0
   36.8460   32.0660   40.7070 N   0  0  0  0  0  0  0  0  0  0  0  0
   36.8750   31.2050   39.5310 C   0  0  1  0  0  3  0  0  0  0  0  0
   37.2730   32.1080   38.3620 C   0  0  0  0  0  3  0  0  0  0  0  0
   36.4830   32.0950   37.5610 H   0  0  0  0  0  0  0  0  0  0  0  0
   37.4070   33.4930   38.7550 N   0  0  0  0  0  0  0  0  0  0  0  0
   36.4670   33.7980   39.1320 H   0  0  0  0  0  0  0  0  0  0  0  0
   38.3680   33.6710   39.8210 C   0  0  0  0  0  2  0  0  0  0  0  0
   38.1930   32.5960   40.8570 C   0  0  0  0  0  2  0  0  0  0  0  0
  1  6  1  0  0  0  0
  2  3  1  0  0  0  0
  3  4  2  0  0  0  0
  3  9  1  0  0  0  0
  4 10  1  0  0  0  0
  5  4  1  0  0  0  0
  6  5  2  0  0  0  0
  7  6  1  0  0  0  0
  7  2  2  0  0  0  0
  8  2  1  0  0  0  0
 12 19  1  0  0  0  0
 12 11  1  0  0  0  0
 13  1  1  1  0  0  0
 13 12  1  0  0  0  0
 14 16  1  0  0  0  0
 14 13  1  0  0  0  0
 15 14  1  0  0  0  0
 16 17  1  0  0  0  0
 16 18  1  0  0  0  0
 18 19  1  0  0  0  0
M  END
>  <minimizedAffinity>
-4.12089777

$$$$

 OpenBabel03242521103D

 19 20  0  0  1  0  0  0  0  0999 V2000
   39.3530   31.1870   40.4630 S   0  0  0  0  0  0  0  0  0  0  0  0
   36.4950   28.4040   40.9930 C   0  0  0  0  0  0  0  0  0  0  0  0
   36.6720   28.0980   42.3620 C   0  0  0  0  0  0  0  0  0  0  0  0
   37.6710   28.7680   43.0650 C   0  0  0  0  0  0  0  0  0  0  0  0
   38.4080   29.6710   42.3870 N   0  0  0  0  0  0  0  0  0  0  0  0
   38.2290   29.9530   41.0800 C   0  0  0  0  0  0  0  0  0  0  0  0
   37.2750   29.3180   40.3930 N   0  0  0  0  0  0  0  0  0  0  0  0
   35.7290   27.8820   40.4770 H   0  0  0  0  0  0  0  0  0  0  0  0
   36.1010   27.3870   42.9210 H   0  0  0  0  0  0  0  0  0  0  0  0
   37.8370   28.5600   44.1190 H   0  0  0  0  0  0  0  0  0  0  0  0
   39.1770   33.8640   39.9460 H   0  0  0  0  0  0  0  0  0  0  0  0
   39.3750   33.3940   39.0450 N   0  0  0  0  0  0  0  0  0  0  0  0
   38.6760   32.1150   39.0630 C   0  0  1  0  0  3  0  0  0  0  0  0
   39.0400   31.4230   37.7470 C   0  0  0  0  0  3  0  0  0  0  0  0
   38.1150   31.1930   37.1480 H   0  0  0  0  0  0  0  0  0  0  0  0
   39.8600   32.2550   36.8940 N   0  0  0  0  0  0  0  0  0  0  0  0
   39.3020   33.1290   36.6900 H   0  0  0  0  0  0  0  0  0  0  0  0
   41.0810   32.6740   37.5460 C   0  0  0  0  0  2  0  0  0  0  0  0
   40.7940   33.0820   38.9640 C   0  0  0  0  0  2  0  0  0  0  0  0
  1  6  1  0  0  0  0
  2  3  1  0  0  0  0
  3  9  1  0  0  0  0
  3  4  2  0  0  0  0
  4 10  1  0  0  0  0
  5  4  1  0  0  0  0
  6  5  2  0  0  0  0
  7  2  2  0  0  0  0
  7  6  1  0  0  0  0
  8  2  1  0  0  0  0
 12 13  1  0  0  0  0
 12 11  1  0  0  0  0
 13  1  1  1  0  0  0
 14 13  1  0  0  0  0
 15 14  1  0  0  0  0
 16 18  1  0  0  0  0
 16 14  1  0  0  0  0
 17 16  1  0  0  0  0
 18 19  1  0  0  0  0
 19 12  1  0  0  0  0
M  END
>  <minimizedAffinity>
-4.0896163

$$$$

 OpenBabel03242521103D

 19 20  0  0  1  0  0  0  0  0999 V2000
   37.8890   31.0400   39.4700 S   0  0  0  0  0  0  0  0  0  0  0  0
   41.0520   33.1620   38.1730 C   0  0  0  0  0  0  0  0  0  0  0  0
   41.1360   34.1560   39.1760 C   0  0  0  0  0  0  0  0  0  0  0  0
   40.2060   34.1260   40.2150 C   0  0  0  0  0  0  0  0  0  0  0  0
   39.2830   33.1440   40.1920 N   0  0  0  0  0  0  0  0  0  0  0  0
   39.2140   32.2020   39.2290 C   0  0  0  0  0  0  0  0  0  0  0  0
   40.0980   32.2180   38.2270 N   0  0  0  0  0  0  0  0  0  0  0  0
   41.7700   33.2040   37.3930 H   0  0  0  0  0  0  0  0  0  0  0  0
   41.8570   34.9430   39.2160 H   0  0  0  0  0  0  0  0  0  0  0  0
   40.2380   34.8730   41.0030 H   0  0  0  0  0  0  0  0  0  0  0  0
   35.4370   31.7410   40.4510 H   0  0  0  0  0  0  0  0  0  0  0  0
   35.7720   30.9410   41.0170 N   0  0  0  0  0  0  0  0  0  0  0  0
   37.2170   31.0820   41.1520 C   0  0  1  0  0  3  0  0  0  0  0  0
   37.6840   29.8540   41.9370 C   0  0  0  0  0  3  0  0  0  0  0  0
   38.2090   30.1630   42.8840 H   0  0  0  0  0  0  0  0  0  0  0  0
   36.5830   29.0160   42.3580 N   0  0  0  0  0  0  0  0  0  0  0  0
   35.9610   29.6110   42.9710 H   0  0  0  0  0  0  0  0  0  0  0  0
   35.7770   28.5690   41.2430 C   0  0  0  0  0  2  0  0  0  0  0  0
   35.5510   29.7030   40.2830 C   0  0  0  0  0  2  0  0  0  0  0  0
  2  7  2  0  0  0  0
  2  3  1  0  0  0  0
  3  9  1  0  0  0  0
  3  4  2  0  0  0  0
  4 10  1  0  0  0  0
  5  4  1  0  0  0  0
  6  1  1  0  0  0  0
  6  5  2  0  0  0  0
  7  6  1  0  0  0  0
  8  2  1  0  0  0  0
 11 12  1  0  0  0  0
 12 13  1  0  0  0  0
 13  1  1  6  0  0  0
 13 14  1  0  0  0  0
 14 16  1  0  0  0  0
 14 15  1  0  0  0  0
 16 17  1  0  0  0  0
 18 16  1  0  0  0  0
 19 12  1  0  0  0  0
 19 18  1  0  0  0  0
M  END
>  <minimizedAffinity>
-4.08447123

$$$$

 OpenBabel03242521103D

 19 20  0  0  1  0  0  0  0  0999 V2000
   36.3850   30.6520   40.9420 S   0  0  0  0  0  0  0  0  0  0  0  0
   36.9430   27.1660   42.8740 C   0  0  0  0  0  0  0  0  0  0  0  0
   38.2400   27.3580   43.4010 C   0  0  0  0  0  0  0  0  0  0  0  0
   38.8900   28.5620   43.1350 C   0  0  0  0  0  0  0  0  0  0  0  0
   38.2310   29.4700   42.3870 N   0  0  0  0  0  0  0  0  0  0  0  0
   36.9930   29.2740   41.8900 C   0  0  0  0  0  0  0  0  0  0  0  0
   36.3580   28.1240   42.1370 N   0  0  0  0  0  0  0  0  0  0  0  0
   36.4670   26.2420   43.0890 H   0  0  0  0  0  0  0  0  0  0  0  0
   38.7830   26.6550   43.9960 H   0  0  0  0  0  0  0  0  0  0  0  0
   39.8890   28.7460   43.5230 H   0  0  0  0  0  0  0  0  0  0  0  0
   39.0060   30.2380   40.2910 H   0  0  0  0  0  0  0  0  0  0  0  0
   38.6500   30.9760   39.6580 N   0  0  0  0  0  0  0  0  0  0  0  0
   37.7030   31.7800   40.4220 C   0  0  1  0  0  3  0  0  0  0  0  0
   37.1520   32.8180   39.4410 C   0  0  0  0  0  3  0  0  0  0  0  0
   37.3540   33.8620   39.8100 H   0  0  0  0  0  0  0  0  0  0  0  0
   37.7790   32.7370   38.1410 N   0  0  0  0  0  0  0  0  0  0  0  0
   38.8130   32.9030   38.2870 H   0  0  0  0  0  0  0  0  0  0  0  0
   37.6420   31.4250   37.5460 C   0  0  0  0  0  2  0  0  0  0  0  0
   37.8870   30.3630   38.5810 C   0  0  0  0  0  2  0  0  0  0  0  0
  1  6  1  0  0  0  0
  2  8  1  0  0  0  0
  2  3  1  0  0  0  0
  3  9  1  0  0  0  0
  4  3  2  0  0  0  0
  4 10  1  0  0  0  0
  5  4  1  0  0  0  0
  6  7  1  0  0  0  0
  6  5  2  0  0  0  0
  7  2  2  0  0  0  0
 12 11  1  0  0  0  0
 12 13  1  0  0  0  0
 13  1  1  6  0  0  0
 14 15  1  0  0  0  0
 14 13  1  0  0  0  0
 16 17  1  0  0  0  0
 16 14  1  0  0  0  0
 18 16  1  0  0  0  0
 18 19  1  0  0  0  0
 19 12  1  0  0  0  0
M  END
>  <minimizedAffinity>
-4.0065999

$$$$

 OpenBabel03242521103D

 19 20  0  0  1  0  0  0  0  0999 V2000
   41.3410   31.8280   38.7920 S   0  0  0  0  0  0  0  0  0  0  0  0
   38.3180   34.1570   40.0710 C   0  0  0  0  0  0  0  0  0  0  0  0
   37.2100   33.4990   39.4890 C   0  0  0  0  0  0  0  0  0  0  0  0
   37.4460   32.3590   38.7220 C   0  0  0  0  0  0  0  0  0  0  0  0
   38.7270   31.9570   38.5870 N   0  0  0  0  0  0  0  0  0  0  0  0
   39.7750   32.5950   39.1480 C   0  0  0  0  0  0  0  0  0  0  0  0
   39.5630   33.6890   39.8850 N   0  0  0  0  0  0  0  0  0  0  0  0
   38.1150   35.0220   40.6510 H   0  0  0  0  0  0  0  0  0  0  0  0
   36.1880   33.7980   39.5810 H   0  0  0  0  0  0  0  0  0  0  0  0
   36.6210   31.8260   38.2590 H   0  0  0  0  0  0  0  0  0  0  0  0
   41.2380   34.0390   37.1900 H   0  0  0  0  0  0  0  0  0  0  0  0
   42.1370   33.5640   36.9940 N   0  0  0  0  0  0  0  0  0  0  0  0
   41.8980   32.1300   37.0950 C   0  0  1  0  0  3  0  0  0  0  0  0
   43.2560   31.4640   36.8610 C   0  0  0  0  0  3  0  0  0  0  0  0
   43.2100   30.7610   35.9830 H   0  0  0  0  0  0  0  0  0  0  0  0
   44.2920   32.4200   36.5390 N   0  0  0  0  0  0  0  0  0  0  0  0
   43.9870   32.9190   35.6590 H   0  0  0  0  0  0  0  0  0  0  0  0
   44.4460   33.4290   37.5650 C   0  0  0  0  0  2  0  0  0  0  0  0
   43.0970   33.8930   38.0370 C   0  0  0  0  0  2  0  0  0  0  0  0
  1  6  1  0  0  0  0
  2  8  1  0  0  0  0
  3  9  1  0  0  0  0
  3  2  2  0  0  0  0
  4  3  1  0  0  0  0
  5  4  2  0  0  0  0
  5  6  1  0  0  0  0
  6  7  2  0  0  0  0
  7  2  1  0  0  0  0
 10  4  1  0  0  0  0
 12 13  1  0  0  0  0
 12 11  1  0  0  0  0
 12 19  1  0  0  0  0
 13  1  1  1  0  0  0
 14 13  1  0  0  0  0
 15 14  1  0  0  0  0
 16 14  1  0  0  0  0
 16 18  1  0  0  0  0
 17 16  1  0  0  0  0
 18 19  1  0  0  0  0
M  END
>  <minimizedAffinity>
-3.99139333

$$$$

 OpenBabel03242521103D

 19 20  0  0  1  0  0  0  0  0999 V2000
   36.9630   27.6630   39.7760 S   0  0  0  0  0  0  0  0  0  0  0  0
   37.9430   23.7600   39.8540 C   0  0  0  0  0  0  0  0  0  0  0  0
   37.7530   23.4650   41.2230 C   0  0  0  0  0  0  0  0  0  0  0  0
   37.3280   24.4900   42.0680 C   0  0  0  0  0  0  0  0  0  0  0  0
   37.1250   25.7040   41.5160 N   0  0  0  0  0  0  0  0  0  0  0  0
   37.3110   25.9720   40.2070 C   0  0  0  0  0  0  0  0  0  0  0  0
   37.7180   24.9990   39.3860 N   0  0  0  0  0  0  0  0  0  0  0  0
   38.2670   22.9660   39.2300 H   0  0  0  0  0  0  0  0  0  0  0  0
   37.9070   22.5130   41.6840 H   0  0  0  0  0  0  0  0  0  0  0  0
   37.1710   24.3010   43.1260 H   0  0  0  0  0  0  0  0  0  0  0  0
   37.0310   27.9500   42.4930 H   0  0  0  0  0  0  0  0  0  0  0  0
   36.6410   28.8270   42.1050 N   0  0  0  0  0  0  0  0  0  0  0  0
   35.8350   28.4660   40.9450 C   0  0  1  0  0  3  0  0  0  0  0  0
   35.3260   29.7870   40.3630 C   0  0  0  0  0  3  0  0  0  0  0  0
   34.2010   29.8040   40.3370 H   0  0  0  0  0  0  0  0  0  0  0  0
   35.7150   30.9280   41.1610 N   0  0  0  0  0  0  0  0  0  0  0  0
   35.3020   30.7840   42.1240 H   0  0  0  0  0  0  0  0  0  0  0  0
   37.1490   31.0210   41.3250 C   0  0  0  0  0  2  0  0  0  0  0  0
   37.7240   29.6610   41.6050 C   0  0  0  0  0  2  0  0  0  0  0  0
  1  6  1  0  0  0  0
  2  3  1  0  0  0  0
  3  9  1  0  0  0  0
  3  4  2  0  0  0  0
  4 10  1  0  0  0  0
  5  4  1  0  0  0  0
  6  5  2  0  0  0  0
  7  2  2  0  0  0  0
  7  6  1  0  0  0  0
  8  2  1  0  0  0  0
 12 11  1  0  0  0  0
 13  1  1  6  0  0  0
 13 12  1  0  0  0  0
 14 13  1  0  0  0  0
 14 16  1  0  0  0  0
 15 14  1  0  0  0  0
 16 18  1  0  0  0  0
 16 17  1  0  0  0  0
 18 19  1  0  0  0  0
 19 12  1  0  0  0  0
M  END
>  <minimizedAffinity>
-3.92739272

$$$$

 OpenBabel03242521103D

 19 20  0  0  1  0  0  0  0  0999 V2000
   39.3640   29.8930   41.4760 S   0  0  0  0  0  0  0  0  0  0  0  0
   37.6900   33.2960   40.1290 C   0  0  0  0  0  0  0  0  0  0  0  0
   38.8170   34.1480   40.0840 C   0  0  0  0  0  0  0  0  0  0  0  0
   40.0520   33.6320   40.4740 C   0  0  0  0  0  0  0  0  0  0  0  0
   40.0880   32.3430   40.8710 N   0  0  0  0  0  0  0  0  0  0  0  0
   39.0040   31.5410   40.9090 C   0  0  0  0  0  0  0  0  0  0  0  0
   37.8140   32.0230   40.5380 N   0  0  0  0  0  0  0  0  0  0  0  0
   36.7610   33.7100   39.8270 H   0  0  0  0  0  0  0  0  0  0  0  0
   38.8140   35.1710   39.7740 H   0  0  0  0  0  0  0  0  0  0  0  0
   40.9410   34.2560   40.4540 H   0  0  0  0  0  0  0  0  0  0  0  0
   36.8700   30.5460   42.3810 H   0  0  0  0  0  0  0  0  0  0  0  0
   37.0480   29.5660   42.6630 N   0  0  0  0  0  0  0  0  0  0  0  0
   38.4660   29.4600   42.9880 C   0  0  1  0  0  3  0  0  0  0  0  0
   38.7040   27.9900   43.3390 C   0  0  0  0  0  3  0  0  0  0  0  0
   39.1140   27.8910   44.3830 H   0  0  0  0  0  0  0  0  0  0  0  0
   37.4840   27.2140   43.3250 N   0  0  0  0  0  0  0  0  0  0  0  0
   36.8360   27.6470   44.0390 H   0  0  0  0  0  0  0  0  0  0  0  0
   36.8080   27.2760   42.0480 C   0  0  0  0  0  2  0  0  0  0  0  0
   36.8240   28.6860   41.5260 C   0  0  0  0  0  2  0  0  0  0  0  0
  2  7  1  0  0  0  0
  3  2  2  0  0  0  0
  3  4  1  0  0  0  0
  4  5  2  0  0  0  0
  5  6  1  0  0  0  0
  6  1  1  0  0  0  0
  7  6  2  0  0  0  0
  8  2  1  0  0  0  0
  9  3  1  0  0  0  0
 10  4  1  0  0  0  0
 11 12  1  0  0  0  0
 12 13  1  0  0  0  0
 13  1  1  6  0  0  0
 13 14  1  0  0  0  0
 14 15  1  0  0  0  0
 16 14  1  0  0  0  0
 16 17  1  0  0  0  0
 18 16  1  0  0  0  0
 19 18  1  0  0  0  0
 19 12  1  0  0  0  0
M  END
>  <minimizedAffinity>
-3.88926673

$$$$
