
 OpenBabel03242521093D

 19 20  0  0  1  0  0  0  0  0999 V2000
   46.4370   32.6960   46.8450 S   0  0  0  0  0  0  0  0  0  0  0  0
   44.5590   35.5900   44.7730 C   0  0  0  0  0  0  0  0  0  0  0  0
   45.1970   35.4770   43.5180 C   0  0  0  0  0  0  0  0  0  0  0  0
   46.1860   34.5050   43.3640 C   0  0  0  0  0  0  0  0  0  0  0  0
   46.4680   33.7340   44.4340 N   0  0  0  0  0  0  0  0  0  0  0  0
   45.8500   33.8530   45.6270 C   0  0  0  0  0  0  0  0  0  0  0  0
   44.9020   34.7800   45.7880 N   0  0  0  0  0  0  0  0  0  0  0  0
   43.8100   36.3360   44.8670 H   0  0  0  0  0  0  0  0  0  0  0  0
   44.9920   36.0750   42.6560 H   0  0  0  0  0  0  0  0  0  0  0  0
   46.6990   34.3880   42.4140 H   0  0  0  0  0  0  0  0  0  0  0  0
   45.9600   31.1040   44.6770 H   0  0  0  0  0  0  0  0  0  0  0  0
   46.2250   30.4790   45.4580 N   0  0  0  0  0  0  0  0  0  0  0  0
   45.6780   31.0600   46.6790 C   0  0  1  0  0  3  0  0  0  0  0  0
   46.1390   30.1470   47.8170 C   0  0  0  0  0  3  0  0  0  0  0  0
   45.2560   29.7340   48.3790 H   0  0  0  0  0  0  0  0  0  0  0  0
   46.8690   28.9940   47.3400 N   0  0  0  0  0  0  0  0  0  0  0  0
   46.2170   28.4600   46.7010 H   0  0  0  0  0  0  0  0  0  0  0  0
   48.0250   29.3640   46.5510 C   0  0  0  0  0  2  0  0  0  0  0  0
   47.6720   30.4870   45.6160 C   0  0  0  0  0  2  0  0  0  0  0  0
  2  8  1  0  0  0  0
  2  7  1  0  0  0  0
  3  2  2  0  0  0  0
  4  3  1  0  0  0  0
  4  5  2  0  0  0  0
  5  6  1  0  0  0  0
  6  7  2  0  0  0  0
  6  1  1  0  0  0  0
  9  3  1  0  0  0  0
 10  4  1  0  0  0  0
 11 12  1  0  0  0  0
 12 19  1  0  0  0  0
 12 13  1  0  0  0  0
 13  1  1  1  0  0  0
 13 14  1  0  0  0  0
 14 15  1  0  0  0  0
 16 14  1  0  0  0  0
 17 16  1  0  0  0  0
 18 16  1  0  0  0  0
 19 18  1  0  0  0  0
M  END
>  <minimizedAffinity>
-3.54574132

>  <minimizedRMSD>
1.41809607

$$$$
