
 OpenBabel03242521093D

 19 20  0  0  1  0  0  0  0  0999 V2000
   46.4910   32.6850   46.7880 S   0  0  0  0  0  0  0  0  0  0  0  0
   44.5570   35.5850   44.7760 C   0  0  0  0  0  0  0  0  0  0  0  0
   45.1970   35.5100   43.5190 C   0  0  0  0  0  0  0  0  0  0  0  0
   46.2040   34.5610   43.3450 C   0  0  0  0  0  0  0  0  0  0  0  0
   46.5020   33.7730   44.3980 N   0  0  0  0  0  0  0  0  0  0  0  0
   45.8820   33.8560   45.5940 C   0  0  0  0  0  0  0  0  0  0  0  0
   44.9150   34.7610   45.7740 N   0  0  0  0  0  0  0  0  0  0  0  0
   43.7940   36.3140   44.8860 H   0  0  0  0  0  0  0  0  0  0  0  0
   44.9800   36.1220   42.6700 H   0  0  0  0  0  0  0  0  0  0  0  0
   46.7200   34.4740   42.3930 H   0  0  0  0  0  0  0  0  0  0  0  0
   46.6260   30.7020   44.9150 H   0  0  0  0  0  0  0  0  0  0  0  0
   46.5480   30.2400   45.8370 N   0  0  0  0  0  0  0  0  0  0  0  0
   45.6790   31.0710   46.6630 C   0  0  1  0  0  3  0  0  0  0  0  0
   45.6350   30.3940   48.0340 C   0  0  0  0  0  3  0  0  0  0  0  0
   44.5780   30.1290   48.3140 H   0  0  0  0  0  0  0  0  0  0  0  0
   46.3690   29.1490   48.0590 N   0  0  0  0  0  0  0  0  0  0  0  0
   45.9240   28.5150   47.3390 H   0  0  0  0  0  0  0  0  0  0  0  0
   47.7540   29.3190   47.6750 C   0  0  0  0  0  2  0  0  0  0  0  0
   47.8490   30.2390   46.4900 C   0  0  0  0  0  2  0  0  0  0  0  0
  2  8  1  0  0  0  0
  2  7  1  0  0  0  0
  3  2  2  0  0  0  0
  4  3  1  0  0  0  0
  4  5  2  0  0  0  0
  5  6  1  0  0  0  0
  6  7  2  0  0  0  0
  6  1  1  0  0  0  0
  9  3  1  0  0  0  0
 10  4  1  0  0  0  0
 11 12  1  0  0  0  0
 12 19  1  0  0  0  0
 12 13  1  0  0  0  0
 13  1  1  1  0  0  0
 13 14  1  0  0  0  0
 14 16  1  0  0  0  0
 14 15  1  0  0  0  0
 17 16  1  0  0  0  0
 18 16  1  0  0  0  0
 19 18  1  0  0  0  0
M  END
>  <minimizedAffinity>
-3.85239148

>  <minimizedRMSD>
0.716941893

$$$$
