
     RDKit          3D

 25 26  0  0  0  0  0  0  0  0999 V2000
   44.5133   35.9782   44.5346 C   0  0  0  0  0  0  0  0  0  0  0  0
   45.1902   35.9089   43.2960 C   0  0  0  0  0  0  0  0  0  0  0  0
   46.1124   34.8810   43.1028 C   0  0  0  0  0  0  0  0  0  0  0  0
   46.2973   34.0153   44.1200 N   0  0  0  0  0  0  0  0  0  0  0  0
   45.6443   34.0930   45.2978 C   0  0  0  0  0  0  0  0  0  0  0  0
   44.7577   35.0726   45.4972 N   0  0  0  0  0  0  0  0  0  0  0  0
   46.0988   32.8100   46.4445 S   0  0  0  0  0  0  0  0  0  0  0  0
   43.8156   36.7680   44.6599 H   0  0  0  0  0  0  0  0  0  0  0  0
   45.0614   36.5820   42.4759 H   0  0  0  0  0  0  0  0  0  0  0  0
   46.6524   34.7952   42.1642 H   0  0  0  0  0  0  0  0  0  0  0  0
   44.5219   31.8840   44.4150 H   0  0  0  0  0  0  0  0  0  0  0  0
   44.9696   31.0589   44.8505 N   0  0  0  0  0  0  0  0  0  0  0  0
   45.0722   31.3273   46.2798 C   0  0  1  0  0  0  0  0  0  0  0  0
   45.7921   30.1179   46.8801 C   0  0  2  0  0  0  0  0  0  0  0  0
   45.1562   29.6265   47.6682 H   0  0  0  0  0  0  0  0  0  0  0  0
   46.0586   29.0904   45.8990 N   0  0  0  0  0  0  0  0  0  0  0  0
   45.1231   28.7867   45.5100 H   0  0  0  0  0  0  0  0  0  0  0  0
   46.8397   29.5835   44.7855 C   0  0  0  0  0  0  0  0  0  0  0  0
   46.3348   30.9338   44.3605 C   0  0  0  0  0  0  0  0  0  0  0  0
   44.0956   31.4103   46.7723 H   0  0  0  0  0  0  0  0  0  0  0  0
   46.7125   30.4397   47.4011 H   0  0  0  0  0  0  0  0  0  0  0  0
   47.9261   29.5925   45.0171 H   0  0  0  0  0  0  0  0  0  0  0  0
   46.6176   28.8720   43.9389 H   0  0  0  0  0  0  0  0  0  0  0  0
   46.3411   31.0700   43.2580 H   0  0  0  0  0  0  0  0  0  0  0  0
   46.9436   31.7383   44.8274 H   0  0  0  0  0  0  0  0  0  0  0  0
  1  6  2  0
  2  1  1  0
  3  2  2  0
  3  4  1  0
  4  5  2  0
  5  6  1  0
  5  7  1  0
  1  8  1  0
  2  9  1  0
  3 10  1  0
 11 12  1  0
 12 13  1  0
 13 14  1  0
 14 15  1  1
 14 16  1  0
 16 17  1  0
 16 18  1  0
 18 19  1  0
 19 12  1  0
 13 20  1  1
 14 21  1  0
 18 22  1  0
 18 23  1  0
 19 24  1  0
 19 25  1  0
  7 13  1  0
M  ISO  6   8  14   9  14  10  14  11   5  15   8  17   5
M  END
>  <DihAtoms>  (1) 
4,6,12,11

>  <DihDeg>  (1) 
-179.92071705024233

$$$$
