
 OpenBabel03242520123D

 34 36  0  0  0  0  0  0  0  0999 V2000
   46.1380   32.5660   46.9570 C   0  0  0  0  0  0  0  0  0  0  0  0
   45.2190   32.5810   47.9460 C   0  0  0  0  0  0  0  0  0  0  0  0
   45.4030   31.7630   49.0450 C   0  0  0  0  0  0  0  0  0  0  0  0
   46.5270   30.9400   49.1150 C   0  0  0  0  0  0  0  0  0  0  0  0
   47.4660   30.9520   48.0600 C   0  0  0  0  0  0  0  0  0  0  0  0
   47.2300   31.7470   47.0560 N   0  0  0  0  0  0  0  0  0  0  0  0
   44.3700   33.2420   47.8270 H   0  0  0  0  0  0  0  0  0  0  0  0
   44.6560   31.8020   49.8060 H   0  0  0  0  0  0  0  0  0  0  0  0
   46.6740   30.2930   49.9860 H   0  0  0  0  0  0  0  0  0  0  0  0
   44.9500   35.0190   44.5160 C   0  0  0  0  0  0  0  0  0  0  0  0
   45.9220   34.8960   43.4990 C   0  0  0  0  0  0  0  0  0  0  0  0
   46.9720   33.9830   43.6440 C   0  0  0  0  0  0  0  0  0  0  0  0
   46.9520   33.2870   44.7810 N   0  0  0  0  0  0  0  0  0  0  0  0
   46.0520   33.3920   45.7400 C   0  0  0  0  0  0  0  0  0  0  0  0
   45.0340   34.2670   45.6140 N   0  0  0  0  0  0  0  0  0  0  0  0
   43.8810   35.9590   44.3470 N   0  0  0  0  0  0  0  0  0  0  0  0
   45.8210   35.5250   42.6230 H   0  0  0  0  0  0  0  0  0  0  0  0
   47.6780   33.9190   42.8610 H   0  0  0  0  0  0  0  0  0  0  0  0
   43.6650   36.9020   44.7100 H   0  0  0  0  0  0  0  0  0  0  0  0
   43.2920   35.4070   43.6860 H   0  0  0  0  0  0  0  0  0  0  0  0
   48.6440   30.1100   48.1020 C   0  0  0  0  0  0  0  0  0  0  0  0
   49.6850   30.3910   48.8670 C   0  0  0  0  0  0  0  0  0  0  0  0
   49.7550   31.5830   49.7510 C   0  0  0  0  0  0  0  0  0  0  0  0
   49.5280   31.2830   50.7730 H   0  0  0  0  0  0  0  0  0  0  0  0
   48.9680   32.3060   49.4100 H   0  0  0  0  0  0  0  0  0  0  0  0
   51.0950   32.1180   49.6190 N   0  0  0  0  0  0  0  0  0  0  0  0
   52.0960   31.0690   49.3850 C   0  0  0  0  0  0  0  0  0  0  0  0
   51.6600   30.3720   48.6670 H   0  0  0  0  0  0  0  0  0  0  0  0
   53.3000   31.8370   48.8330 C   0  0  0  0  0  0  0  0  0  0  0  0
   54.2250   31.2630   48.8820 H   0  0  0  0  0  0  0  0  0  0  0  0
   53.3660   33.1500   49.4620 N   0  0  0  0  0  0  0  0  0  0  0  0
   52.8390   33.8490   48.9080 H   0  0  0  0  0  0  0  0  0  0  0  0
   52.8690   33.1140   50.8340 C   0  0  0  0  0  0  0  0  0  0  0  0
   51.4070   32.7480   50.9150 C   0  0  0  0  0  0  0  0  0  0  0  0
  1  6  2  0  0  0  0
  1  2  1  0  0  0  0
  2  3  2  0  0  0  0
  3  4  1  0  0  0  0
  3  8  1  0  0  0  0
  4  9  1  0  0  0  0
  5 21  1  0  0  0  0
  5  4  2  0  0  0  0
  6  5  1  0  0  0  0
  7  2  1  0  0  0  0
 10 15  1  0  0  0  0
 11 12  1  0  0  0  0
 11 10  2  0  0  0  0
 12 13  2  0  0  0  0
 13 14  1  0  0  0  0
 14  1  1  0  0  0  0
 15 14  2  0  0  0  0
 16 10  1  0  0  0  0
 16 19  1  0  0  0  0
 17 11  1  0  0  0  0
 18 12  1  0  0  0  0
 20 16  1  0  0  0  0
 21 22  2  0  0  0  0
 22 23  1  0  0  0  0
 23 24  1  0  0  0  0
 25 23  1  0  0  0  0
 26 23  1  0  0  0  0
 26 34  1  0  0  0  0
 27 26  1  0  0  0  0
 28 27  1  0  0  0  0
 29 30  1  0  0  0  0
 29 27  1  0  0  0  0
 29 31  1  0  0  0  0
 31 33  1  0  0  0  0
 32 31  1  0  0  0  0
 33 34  1  0  0  0  0
M  END
>  <minimizedAffinity>
-6.30884314

>  <minimizedRMSD>
0.777252436

$$$$
