
 OpenBabel03242516213D

 29 31  0  0  1  0  0  0  0  0999 V2000
   45.9860   32.8120   47.0740 C   0  0  0  0  0  0  0  0  0  0  0  0
   47.2900   32.5830   47.5090 C   0  0  0  0  0  0  0  0  0  0  0  0
   47.5180   31.7650   48.6040 C   0  0  0  0  0  0  0  0  0  0  0  0
   46.4850   31.1620   49.2900 C   0  0  0  0  0  0  0  0  0  0  0  0
   45.2140   31.3830   48.8700 C   0  0  0  0  0  0  0  0  0  0  0  0
   44.9720   32.1960   47.7790 C   0  0  0  0  0  0  0  0  0  0  0  0
   48.0660   33.0840   46.9300 H   0  0  0  0  0  0  0  0  0  0  0  0
   46.7760   30.5380   50.1390 H   0  0  0  0  0  0  0  0  0  0  0  0
   44.4250   30.8960   49.4280 H   0  0  0  0  0  0  0  0  0  0  0  0
   43.9560   32.3750   47.4400 H   0  0  0  0  0  0  0  0  0  0  0  0
   44.5440   35.4800   45.0410 C   0  0  0  0  0  0  0  0  0  0  0  0
   45.1920   35.3420   43.8020 C   0  0  0  0  0  0  0  0  0  0  0  0
   46.1310   34.3250   43.6640 C   0  0  0  0  0  0  0  0  0  0  0  0
   46.3710   33.5200   44.7320 N   0  0  0  0  0  0  0  0  0  0  0  0
   45.7350   33.6710   45.9190 C   0  0  0  0  0  0  0  0  0  0  0  0
   44.8190   34.6550   46.0700 N   0  0  0  0  0  0  0  0  0  0  0  0
   43.8300   36.2920   45.0720 H   0  0  0  0  0  0  0  0  0  0  0  0
   45.0360   35.9510   42.9330 H   0  0  0  0  0  0  0  0  0  0  0  0
   46.7180   34.0760   42.7920 H   0  0  0  0  0  0  0  0  0  0  0  0
   49.2100   31.5200   49.1080 S   0  0  0  0  0  0  0  0  0  0  0  0
   49.5000   28.0150   49.7830 H   0  0  0  0  0  0  0  0  0  0  0  0
   49.4000   28.9130   49.2710 N   0  0  0  0  0  0  0  0  0  0  0  0
   49.3500   30.0360   50.1780 C   0  0  1  0  0  3  0  0  0  0  0  0
   50.5150   30.1410   51.0840 C   0  0  0  0  0  3  0  0  0  0  0  0
   50.7730   31.2090   51.2340 H   0  0  0  0  0  0  0  0  0  0  0  0
   51.6850   29.4290   50.7100 N   0  0  0  0  0  0  0  0  0  0  0  0
   52.5870   29.9120   50.9260 H   0  0  0  0  0  0  0  0  0  0  0  0
   51.7510   28.8390   49.4310 C   0  0  0  0  0  2  0  0  0  0  0  0
   50.6290   29.1250   48.4890 C   0  0  0  0  0  2  0  0  0  0  0  0
  1  2  2  0  0  0  0
  1  6  1  0  0  0  0
  2  3  1  0  0  0  0
  3 20  1  0  0  0  0
  3  4  2  0  0  0  0
  4  8  1  0  0  0  0
  5  4  1  0  0  0  0
  5  9  1  0  0  0  0
  6  5  2  0  0  0  0
  7  2  1  0  0  0  0
 10  6  1  0  0  0  0
 11 17  1  0  0  0  0
 11 16  1  0  0  0  0
 12 11  2  0  0  0  0
 13 12  1  0  0  0  0
 13 14  2  0  0  0  0
 14 15  1  0  0  0  0
 15 16  2  0  0  0  0
 15  1  1  0  0  0  0
 18 12  1  0  0  0  0
 19 13  1  0  0  0  0
 22 21  1  0  0  0  0
 22 23  1  0  0  0  0
 23 20  1  6  0  0  0
 23 24  1  0  0  0  0
 24 25  1  0  0  0  0
 26 27  1  0  0  0  0
 26 24  1  0  0  0  0
 28 26  1  0  0  0  0
 29 22  1  0  0  0  0
 29 28  1  0  0  0  0
M  END
>  <minimizedAffinity>
-5.39320183

>  <minimizedRMSD>
1.52394927

$$$$
