
 OpenBabel03242516213D

 29 31  0  0  1  0  0  0  0  0999 V2000
   45.9720   32.7860   47.0890 C   0  0  0  0  0  0  0  0  0  0  0  0
   47.2690   32.5740   47.5490 C   0  0  0  0  0  0  0  0  0  0  0  0
   47.4860   31.7530   48.6450 C   0  0  0  0  0  0  0  0  0  0  0  0
   46.4480   31.1310   49.3050 C   0  0  0  0  0  0  0  0  0  0  0  0
   45.1830   31.3360   48.8590 C   0  0  0  0  0  0  0  0  0  0  0  0
   44.9510   32.1510   47.7680 C   0  0  0  0  0  0  0  0  0  0  0  0
   48.0500   33.0900   46.9890 H   0  0  0  0  0  0  0  0  0  0  0  0
   46.7300   30.5060   50.1560 H   0  0  0  0  0  0  0  0  0  0  0  0
   44.3900   30.8340   49.3980 H   0  0  0  0  0  0  0  0  0  0  0  0
   43.9410   32.3170   47.4090 H   0  0  0  0  0  0  0  0  0  0  0  0
   44.5570   35.4660   45.0510 C   0  0  0  0  0  0  0  0  0  0  0  0
   45.2110   35.3250   43.8160 C   0  0  0  0  0  0  0  0  0  0  0  0
   46.1440   34.3030   43.6820 C   0  0  0  0  0  0  0  0  0  0  0  0
   46.3740   33.4950   44.7490 N   0  0  0  0  0  0  0  0  0  0  0  0
   45.7320   33.6480   45.9330 C   0  0  0  0  0  0  0  0  0  0  0  0
   44.8210   34.6370   46.0810 N   0  0  0  0  0  0  0  0  0  0  0  0
   43.8470   36.2810   45.0790 H   0  0  0  0  0  0  0  0  0  0  0  0
   45.0630   35.9370   42.9470 H   0  0  0  0  0  0  0  0  0  0  0  0
   46.7360   34.0520   42.8130 H   0  0  0  0  0  0  0  0  0  0  0  0
   49.1710   31.5290   49.1820 S   0  0  0  0  0  0  0  0  0  0  0  0
   50.2420   28.1290   48.8520 H   0  0  0  0  0  0  0  0  0  0  0  0
   50.0320   29.1200   48.6240 N   0  0  0  0  0  0  0  0  0  0  0  0
   49.4370   29.8050   49.7500 C   0  0  1  0  0  3  0  0  0  0  0  0
   50.2500   29.7700   50.9850 C   0  0  0  0  0  3  0  0  0  0  0  0
   50.1530   30.7350   51.5210 H   0  0  0  0  0  0  0  0  0  0  0  0
   51.6280   29.4600   50.8370 N   0  0  0  0  0  0  0  0  0  0  0  0
   52.2720   29.9780   51.4780 H   0  0  0  0  0  0  0  0  0  0  0  0
   52.1850   29.4010   49.5440 C   0  0  0  0  0  2  0  0  0  0  0  0
   51.3120   29.8130   48.4050 C   0  0  0  0  0  2  0  0  0  0  0  0
  1  2  2  0  0  0  0
  1  6  1  0  0  0  0
  2  3  1  0  0  0  0
  3 20  1  0  0  0  0
  3  4  2  0  0  0  0
  4  8  1  0  0  0  0
  5  4  1  0  0  0  0
  5  9  1  0  0  0  0
  6  5  2  0  0  0  0
  7  2  1  0  0  0  0
 10  6  1  0  0  0  0
 11 17  1  0  0  0  0
 11 16  1  0  0  0  0
 12 11  2  0  0  0  0
 13 12  1  0  0  0  0
 13 14  2  0  0  0  0
 14 15  1  0  0  0  0
 15 16  2  0  0  0  0
 15  1  1  0  0  0  0
 18 12  1  0  0  0  0
 19 13  1  0  0  0  0
 22 21  1  0  0  0  0
 22 23  1  0  0  0  0
 23 20  1  6  0  0  0
 23 24  1  0  0  0  0
 24 25  1  0  0  0  0
 26 24  1  0  0  0  0
 26 27  1  0  0  0  0
 28 26  1  0  0  0  0
 29 22  1  0  0  0  0
 29 28  1  0  0  0  0
M  END
>  <minimizedAffinity>
-5.26657677

>  <minimizedRMSD>
1.04882753

$$$$
