
     RDKit          3D

 47 50  0  0  0  0  0  0  0  0999 V2000
   45.2826   35.2979   43.1155 Cl  0  0  0  0  0  0  0  0  0  0  0  0
   45.1710   34.5386   41.5533 C   0  0  0  0  0  0  0  0  0  0  0  0
   46.2739   34.1573   40.8795 C   0  0  0  0  0  0  0  0  0  0  0  0
   46.0708   33.5601   39.6399 C   0  0  0  0  0  0  0  0  0  0  0  0
   44.8174   33.3641   39.1175 C   0  0  0  0  0  0  0  0  0  0  0  0
   43.7210   33.7566   39.8161 C   0  0  0  0  0  0  0  0  0  0  0  0
   43.9079   34.3476   41.0427 C   0  0  0  0  0  0  0  0  0  0  0  0
   49.5483   35.7402   41.8898 C   0  0  0  0  0  0  0  0  0  0  0  0
   48.2900   35.5471   41.3111 C   0  0  0  0  0  0  0  0  0  0  0  0
   47.5729   34.3723   41.4673 C   0  0  0  0  0  0  0  0  0  0  0  0
   48.1841   33.4226   42.2247 N   0  0  0  0  0  0  0  0  0  0  0  0
   49.3924   33.6090   42.7802 C   0  0  0  0  0  0  0  0  0  0  0  0
   50.0645   34.7546   42.6135 N   0  0  0  0  0  0  0  0  0  0  0  0
   47.8000   31.8870   38.9826 C   0  0  0  0  0  0  0  0  0  0  0  0
   47.2242   33.1174   38.8775 C   0  0  0  0  0  0  0  0  0  0  0  0
   47.7610   34.0245   37.9823 C   0  0  0  0  0  0  0  0  0  0  0  0
   48.8512   33.6901   37.2149 C   0  0  0  0  0  0  0  0  0  0  0  0
   49.4507   32.4384   37.3078 C   0  0  0  0  0  0  0  0  0  0  0  0
   48.9053   31.5342   38.2099 C   0  0  0  0  0  0  0  0  0  0  0  0
   47.1953   30.7159   40.0313 S   0  0  0  0  0  0  0  0  0  0  0  0
   46.7859   29.4435   39.3221 O   0  0  0  0  0  0  0  0  0  0  0  0
   48.4326   30.2850   40.8723 O   0  0  0  0  0  0  0  0  0  0  0  0
   44.6567   32.8965   38.1439 H   0  0  0  0  0  0  0  0  0  0  0  0
   42.7197   33.6184   39.4384 H   0  0  0  0  0  0  0  0  0  0  0  0
   43.0135   34.6578   41.5922 H   0  0  0  0  0  0  0  0  0  0  0  0
   50.0351   36.6932   41.7126 H   0  0  0  0  0  0  0  0  0  0  0  0
   47.8373   36.3284   40.7146 H   0  0  0  0  0  0  0  0  0  0  0  0
   49.8781   32.8497   43.3843 H   0  0  0  0  0  0  0  0  0  0  0  0
   47.3251   35.0155   37.8752 H   0  0  0  0  0  0  0  0  0  0  0  0
   49.2292   34.4346   36.5339 H   0  0  0  0  0  0  0  0  0  0  0  0
   50.2941   32.1771   36.7142 H   0  0  0  0  0  0  0  0  0  0  0  0
   49.3774   30.5682   38.2737 H   0  0  0  0  0  0  0  0  0  0  0  0
   45.5703   32.8328   40.7761 H   0  0  0  0  0  0  0  0  0  0  0  0
   45.6695   32.2663   41.6241 N   0  0  0  0  0  0  0  0  0  0  0  0
   46.0149   30.8815   41.2262 C   0  0  1  0  0  0  0  0  0  0  0  0
   44.6622   30.6240   40.4611 C   0  0  1  0  0  0  0  0  0  0  0  0
   44.4986   31.4064   39.7167 H   0  0  0  0  0  0  0  0  0  0  0  0
   43.5864   30.4735   41.3873 N   0  0  0  0  0  0  0  0  0  0  0  0
   43.1889   29.5128   41.4072 H   0  0  0  0  0  0  0  0  0  0  0  0
   43.8579   31.0014   42.6936 C   0  0  0  0  0  0  0  0  0  0  0  0
   44.6046   32.3036   42.5665 C   0  0  0  0  0  0  0  0  0  0  0  0
   45.8570   30.1521   42.0092 H   0  0  0  0  0  0  0  0  0  0  0  0
   44.8491   29.6729   39.8996 H   0  0  0  0  0  0  0  0  0  0  0  0
   44.3644   30.3244   43.3891 H   0  0  0  0  0  0  0  0  0  0  0  0
   42.8508   31.2735   43.1261 H   0  0  0  0  0  0  0  0  0  0  0  0
   43.8992   33.1505   42.3276 H   0  0  0  0  0  0  0  0  0  0  0  0
   45.0226   32.5453   43.5673 H   0  0  0  0  0  0  0  0  0  0  0  0
  2  1  1  0
  3 10  1  0
  3  2  2  0
  4  3  1  0
  5  4  2  0
  5  6  1  0
  6  7  2  0
  7  2  1  0
  8 13  2  0
  9 10  2  0
  9  8  1  0
 10 11  1  0
 11 12  2  0
 13 12  1  0
 14 20  1  0
 15 14  1  0
 15  4  1  0
 16 15  2  0
 17 18  2  0
 17 16  1  0
 18 19  1  0
 19 14  2  0
 20 22  2  0
 21 20  2  0
  5 23  1  0
  6 24  1  0
  7 25  1  0
  8 26  1  0
  9 27  1  0
 12 28  1  0
 16 29  1  0
 17 30  1  0
 18 31  1  0
 19 32  1  0
 33 34  1  0
 34 35  1  0
 35 36  1  0
 36 37  1  6
 36 38  1  0
 38 39  1  0
 38 40  1  0
 40 41  1  0
 41 34  1  0
 35 42  1  1
 36 43  1  0
 40 44  1  0
 40 45  1  0
 41 46  1  0
 41 47  1  0
 20 35  1  0
M  ISO  8  23  14  24  14  25  14  26  14  27  14  28  14  29  14  30  14
M  ISO  5  31  14  32  14  33   5  37   8  39   5
M  END
>  <DihAtoms>  (1) 
13,19,34,33

>  <DihDeg>  (1) 
90.05871409495809

$$$$
