
 OpenBabel03252501433D

 45 48  0  0  0  0  0  0  0  0999 V2000
   37.5220   31.8250   40.5300 C   0  0  0  0  0  0  0  0  0  0  0  0
   37.4160   32.6020   39.5110 O   0  0  0  0  0  0  0  0  0  0  0  0
   38.8000   31.9120   41.1440 N   0  0  0  0  0  0  0  0  0  0  0  0
   39.0620   31.3840   41.9870 H   0  0  0  0  0  0  0  0  0  0  0  0
   39.6250   32.8400   40.3980 C   0  0  0  0  0  0  0  0  0  0  0  0
   39.6280   34.1950   40.5450 C   0  0  0  0  0  0  0  0  0  0  0  0
   40.4800   34.9210   39.7500 C   0  0  0  0  0  0  0  0  0  0  0  0
   41.2530   34.2460   38.8800 N   0  0  0  0  0  0  0  0  0  0  0  0
   41.2260   32.8960   38.7580 C   0  0  0  0  0  0  0  0  0  0  0  0
   40.3970   32.1650   39.5280 N   0  0  0  0  0  0  0  0  0  0  0  0
   40.4910   35.9930   39.8590 H   0  0  0  0  0  0  0  0  0  0  0  0
   42.0830   32.2670   37.8060 N   0  0  0  0  0  0  0  0  0  0  0  0
   43.3630   32.7860   37.4050 C   0  0  0  0  0  3  0  0  0  0  0  0
   43.2490   33.4530   36.5030 H   0  0  0  0  0  0  0  0  0  0  0  0
   44.1390   31.5770   36.8640 C   0  0  0  0  0  3  0  0  0  0  0  0
   43.9040   31.4000   35.7910 H   0  0  0  0  0  0  0  0  0  0  0  0
   43.9380   30.4190   37.6830 N   0  0  0  0  0  0  0  0  0  0  0  0
   44.5990   29.6890   37.3400 H   0  0  0  0  0  0  0  0  0  0  0  0
   42.5870   29.9700   37.7990 C   0  0  0  0  0  2  0  0  0  0  0  0
   41.6840   31.0240   37.1750 C   0  0  0  0  0  2  0  0  0  0  0  0
   38.7470   34.7510   41.5170 N   0  0  0  0  0  0  0  0  0  0  0  0
   37.7390   34.5830   41.3790 H   0  0  0  0  0  0  0  0  0  0  0  0
   39.0790   35.3050   42.3350 H   0  0  0  0  0  0  0  0  0  0  0  0
   36.5410   30.9670   41.0370 O   0  0  0  0  0  0  0  0  0  0  0  0
   38.0380   28.7630   42.3580 Cl  0  0  0  0  0  0  0  0  0  0  0  0
   37.0170   28.6340   40.9410 C   0  0  0  0  0  0  0  0  0  0  0  0
   36.3530   29.7310   40.3930 C   0  0  0  0  0  0  0  0  0  0  0  0
   35.5700   29.5820   39.2900 C   0  0  0  0  0  0  0  0  0  0  0  0
   35.3830   28.3680   38.6540 C   0  0  0  0  0  0  0  0  0  0  0  0
   36.0450   27.2430   39.1900 C   0  0  0  0  0  0  0  0  0  0  0  0
   35.8710   25.6590   38.4540 Cl  0  0  0  0  0  0  0  0  0  0  0  0
   36.8300   27.4340   40.3100 C   0  0  0  0  0  0  0  0  0  0  0  0
   35.0740   30.4560   38.8980 H   0  0  0  0  0  0  0  0  0  0  0  0
   34.7530   28.2560   37.7690 H   0  0  0  0  0  0  0  0  0  0  0  0
   39.3410   26.8070   39.4790 F   0  0  0  0  0  0  0  0  0  0  0  0
   38.7890   25.9840   40.4360 C   0  0  0  0  0  0  0  0  0  0  0  0
   37.5190   26.2780   40.8740 C   0  0  0  0  0  0  0  0  0  0  0  0
   36.9900   25.4170   41.8480 C   0  0  0  0  0  0  0  0  0  0  0  0
   37.7470   24.3530   42.3020 C   0  0  0  0  0  0  0  0  0  0  0  0
   39.0370   24.1160   41.8050 C   0  0  0  0  0  0  0  0  0  0  0  0
   39.5920   24.9480   40.8420 C   0  0  0  0  0  0  0  0  0  0  0  0
   35.9910   25.6460   42.1940 H   0  0  0  0  0  0  0  0  0  0  0  0
   37.3110   23.7070   43.0530 H   0  0  0  0  0  0  0  0  0  0  0  0
   39.6240   23.2720   42.1740 H   0  0  0  0  0  0  0  0  0  0  0  0
   40.5840   24.7990   40.4350 H   0  0  0  0  0  0  0  0  0  0  0  0
  1 24  1  0  0  0  0
  1  3  1  0  0  0  0
  2  1  2  0  0  0  0
  3  4  1  0  0  0  0
  5  6  1  0  0  0  0
  5  3  1  0  0  0  0
  6 21  1  0  0  0  0
  7 11  1  0  0  0  0
  7  6  2  0  0  0  0
  8  7  1  0  0  0  0
  9  8  2  0  0  0  0
  9 10  1  0  0  0  0
 10  5  2  0  0  0  0
 12  9  1  0  0  0  0
 13 12  1  0  0  0  0
 14 13  1  0  0  0  0
 15 13  1  0  0  0  0
 15 17  1  0  0  0  0
 16 15  1  0  0  0  0
 17 19  1  0  0  0  0
 18 17  1  0  0  0  0
 20 19  1  0  0  0  0
 20 12  1  0  0  0  0
 21 23  1  0  0  0  0
 22 21  1  0  0  0  0
 26 25  1  0  0  0  0
 27 26  1  0  0  0  0
 27 24  1  0  0  0  0
 28 27  2  0  0  0  0
 29 30  2  0  0  0  0
 29 28  1  0  0  0  0
 30 32  1  0  0  0  0
 31 30  1  0  0  0  0
 32 37  1  0  0  0  0
 32 26  2  0  0  0  0
 33 28  1  0  0  0  0
 34 29  1  0  0  0  0
 35 36  1  0  0  0  0
 36 41  2  0  0  0  0
 36 37  1  0  0  0  0
 37 38  2  0  0  0  0
 38 42  1  0  0  0  0
 38 39  1  0  0  0  0
 39 43  1  0  0  0  0
 40 44  1  0  0  0  0
 40 39  2  0  0  0  0
 41 40  1  0  0  0  0
 45 41  1  0  0  0  0
M  END
>  <minimizedAffinity>
-7.24059582

$$$$

 OpenBabel03252501433D

 45 48  0  0  0  0  0  0  0  0999 V2000
   38.7510   30.9390   38.7330 C   0  0  0  0  0  0  0  0  0  0  0  0
   39.2610   31.8510   37.9840 O   0  0  0  0  0  0  0  0  0  0  0  0
   38.5620   31.3810   40.0700 N   0  0  0  0  0  0  0  0  0  0  0  0
   38.1420   30.8000   40.8060 H   0  0  0  0  0  0  0  0  0  0  0  0
   39.0480   32.7400   40.1940 C   0  0  0  0  0  0  0  0  0  0  0  0
   38.3140   33.8690   39.9780 C   0  0  0  0  0  0  0  0  0  0  0  0
   38.9410   35.0790   40.1440 C   0  0  0  0  0  0  0  0  0  0  0  0
   40.2360   35.0690   40.5100 N   0  0  0  0  0  0  0  0  0  0  0  0
   40.9380   33.9280   40.7170 C   0  0  0  0  0  0  0  0  0  0  0  0
   40.3430   32.7300   40.5590 N   0  0  0  0  0  0  0  0  0  0  0  0
   38.3700   35.9770   39.9760 H   0  0  0  0  0  0  0  0  0  0  0  0
   42.3090   34.0160   41.1030 N   0  0  0  0  0  0  0  0  0  0  0  0
   42.8650   35.0980   41.8690 C   0  0  0  0  0  3  0  0  0  0  0  0
   43.2550   35.9040   41.1830 H   0  0  0  0  0  0  0  0  0  0  0  0
   44.1360   34.5280   42.5140 C   0  0  0  0  0  3  0  0  0  0  0  0
   45.0030   34.6070   41.8240 H   0  0  0  0  0  0  0  0  0  0  0  0
   43.9210   33.1970   43.0010 N   0  0  0  0  0  0  0  0  0  0  0  0
   44.7720   32.9350   43.5440 H   0  0  0  0  0  0  0  0  0  0  0  0
   43.5400   32.2330   42.0190 C   0  0  0  0  0  2  0  0  0  0  0  0
   43.2430   32.9730   40.7220 C   0  0  0  0  0  2  0  0  0  0  0  0
   36.9520   33.7020   39.5980 N   0  0  0  0  0  0  0  0  0  0  0  0
   36.7740   33.1960   38.7180 H   0  0  0  0  0  0  0  0  0  0  0  0
   36.1550   34.0650   40.1630 H   0  0  0  0  0  0  0  0  0  0  0  0
   38.3940   29.6410   38.3520 O   0  0  0  0  0  0  0  0  0  0  0  0
   40.6690   28.4910   39.8820 Cl  0  0  0  0  0  0  0  0  0  0  0  0
   38.9670   28.1640   40.1320 C   0  0  0  0  0  0  0  0  0  0  0  0
   37.9690   28.7560   39.3570 C   0  0  0  0  0  0  0  0  0  0  0  0
   36.6580   28.4700   39.5890 C   0  0  0  0  0  0  0  0  0  0  0  0
   36.2370   27.6000   40.5770 C   0  0  0  0  0  0  0  0  0  0  0  0
   37.2290   26.9880   41.3730 C   0  0  0  0  0  0  0  0  0  0  0  0
   36.7940   25.8680   42.6530 Cl  0  0  0  0  0  0  0  0  0  0  0  0
   38.5470   27.3030   41.1090 C   0  0  0  0  0  0  0  0  0  0  0  0
   35.9180   28.9500   38.9680 H   0  0  0  0  0  0  0  0  0  0  0  0
   35.1830   27.3760   40.7570 H   0  0  0  0  0  0  0  0  0  0  0  0
   39.3740   28.4950   43.4080 F   0  0  0  0  0  0  0  0  0  0  0  0
   39.9810   27.3030   43.0830 C   0  0  0  0  0  0  0  0  0  0  0  0
   39.5820   26.6770   41.9260 C   0  0  0  0  0  0  0  0  0  0  0  0
   40.2240   25.4660   41.6280 C   0  0  0  0  0  0  0  0  0  0  0  0
   41.1930   24.9780   42.4860 C   0  0  0  0  0  0  0  0  0  0  0  0
   41.5480   25.6740   43.6500 C   0  0  0  0  0  0  0  0  0  0  0  0
   40.9330   26.8760   43.9760 C   0  0  0  0  0  0  0  0  0  0  0  0
   39.9120   24.9720   40.7180 H   0  0  0  0  0  0  0  0  0  0  0  0
   41.6690   24.0410   42.2290 H   0  0  0  0  0  0  0  0  0  0  0  0
   42.3140   25.2760   44.3190 H   0  0  0  0  0  0  0  0  0  0  0  0
   41.1790   27.4420   44.8650 H   0  0  0  0  0  0  0  0  0  0  0  0
  1  3  1  0  0  0  0
  2  1  2  0  0  0  0
  3  5  1  0  0  0  0
  3  4  1  0  0  0  0
  5 10  1  0  0  0  0
  6  7  1  0  0  0  0
  6  5  2  0  0  0  0
  7  8  2  0  0  0  0
  8  9  1  0  0  0  0
  9 12  1  0  0  0  0
 10  9  2  0  0  0  0
 11  7  1  0  0  0  0
 12 13  1  0  0  0  0
 13 15  1  0  0  0  0
 14 13  1  0  0  0  0
 15 17  1  0  0  0  0
 16 15  1  0  0  0  0
 17 18  1  0  0  0  0
 19 17  1  0  0  0  0
 20 12  1  0  0  0  0
 20 19  1  0  0  0  0
 21  6  1  0  0  0  0
 21 23  1  0  0  0  0
 22 21  1  0  0  0  0
 24  1  1  0  0  0  0
 24 27  1  0  0  0  0
 25 26  1  0  0  0  0
 26 32  1  0  0  0  0
 27 28  1  0  0  0  0
 27 26  2  0  0  0  0
 28 29  2  0  0  0  0
 29 34  1  0  0  0  0
 29 30  1  0  0  0  0
 30 31  1  0  0  0  0
 32 30  2  0  0  0  0
 32 37  1  0  0  0  0
 33 28  1  0  0  0  0
 36 35  1  0  0  0  0
 36 41  1  0  0  0  0
 37 36  2  0  0  0  0
 38 37  1  0  0  0  0
 38 39  2  0  0  0  0
 39 40  1  0  0  0  0
 40 41  2  0  0  0  0
 40 44  1  0  0  0  0
 41 45  1  0  0  0  0
 42 38  1  0  0  0  0
 43 39  1  0  0  0  0
M  END
>  <minimizedAffinity>
-7.21014404

$$$$

 OpenBabel03252501433D

 45 48  0  0  0  0  0  0  0  0999 V2000
   37.7130   30.1940   40.5210 C   0  0  0  0  0  0  0  0  0  0  0  0
   38.4050   30.4370   39.4660 O   0  0  0  0  0  0  0  0  0  0  0  0
   37.7950   31.2430   41.4750 N   0  0  0  0  0  0  0  0  0  0  0  0
   37.2880   31.2390   42.3700 H   0  0  0  0  0  0  0  0  0  0  0  0
   38.6820   32.2730   40.9740 C   0  0  0  0  0  0  0  0  0  0  0  0
   38.3130   33.3280   40.1940 C   0  0  0  0  0  0  0  0  0  0  0  0
   39.2920   34.2110   39.8110 C   0  0  0  0  0  0  0  0  0  0  0  0
   40.5490   33.9750   40.2320 N   0  0  0  0  0  0  0  0  0  0  0  0
   40.8830   32.9150   41.0080 C   0  0  0  0  0  0  0  0  0  0  0  0
   39.9380   32.0360   41.3940 N   0  0  0  0  0  0  0  0  0  0  0  0
   39.0120   35.0490   39.1950 H   0  0  0  0  0  0  0  0  0  0  0  0
   42.2420   32.7460   41.4060 N   0  0  0  0  0  0  0  0  0  0  0  0
   43.1670   33.8300   41.6040 C   0  0  0  0  0  3  0  0  0  0  0  0
   43.7240   34.0480   40.6480 H   0  0  0  0  0  0  0  0  0  0  0  0
   44.2520   33.2710   42.5350 C   0  0  0  0  0  3  0  0  0  0  0  0
   45.0400   32.7410   41.9560 H   0  0  0  0  0  0  0  0  0  0  0  0
   43.6840   32.4710   43.5780 N   0  0  0  0  0  0  0  0  0  0  0  0
   44.4560   32.2480   44.2420 H   0  0  0  0  0  0  0  0  0  0  0  0
   42.9430   31.3290   43.1470 C   0  0  0  0  0  2  0  0  0  0  0  0
   42.7760   31.4170   41.6370 C   0  0  0  0  0  2  0  0  0  0  0  0
   36.9380   33.4330   39.8390 N   0  0  0  0  0  0  0  0  0  0  0  0
   36.5380   32.6530   39.2960 H   0  0  0  0  0  0  0  0  0  0  0  0
   36.3430   34.2460   40.1030 H   0  0  0  0  0  0  0  0  0  0  0  0
   36.9420   29.0540   40.7760 O   0  0  0  0  0  0  0  0  0  0  0  0
   37.0220   26.6630   39.0090 Cl  0  0  0  0  0  0  0  0  0  0  0  0
   37.6620   26.7870   40.6360 C   0  0  0  0  0  0  0  0  0  0  0  0
   37.5740   27.9580   41.3880 C   0  0  0  0  0  0  0  0  0  0  0  0
   38.0860   28.0060   42.6490 C   0  0  0  0  0  0  0  0  0  0  0  0
   38.7090   26.9300   43.2540 C   0  0  0  0  0  0  0  0  0  0  0  0
   38.8080   25.7330   42.5110 C   0  0  0  0  0  0  0  0  0  0  0  0
   39.5820   24.3120   43.1930 Cl  0  0  0  0  0  0  0  0  0  0  0  0
   38.2790   25.7230   41.2370 C   0  0  0  0  0  0  0  0  0  0  0  0
   37.9980   28.9310   43.1960 H   0  0  0  0  0  0  0  0  0  0  0  0
   39.1170   26.9760   44.2660 H   0  0  0  0  0  0  0  0  0  0  0  0
   36.2930   23.8710   41.3640 F   0  0  0  0  0  0  0  0  0  0  0  0
   37.3570   23.5730   40.5430 C   0  0  0  0  0  0  0  0  0  0  0  0
   38.3760   24.4920   40.4590 C   0  0  0  0  0  0  0  0  0  0  0  0
   39.4430   24.1530   39.6130 C   0  0  0  0  0  0  0  0  0  0  0  0
   39.4160   22.9510   38.9290 C   0  0  0  0  0  0  0  0  0  0  0  0
   38.3390   22.0630   39.0660 C   0  0  0  0  0  0  0  0  0  0  0  0
   37.2670   22.3660   39.8940 C   0  0  0  0  0  0  0  0  0  0  0  0
   40.2470   24.8740   39.5460 H   0  0  0  0  0  0  0  0  0  0  0  0
   40.2530   22.7180   38.2850 H   0  0  0  0  0  0  0  0  0  0  0  0
   38.3320   21.1180   38.5180 H   0  0  0  0  0  0  0  0  0  0  0  0
   36.4190   21.7080   40.0250 H   0  0  0  0  0  0  0  0  0  0  0  0
  1 24  1  0  0  0  0
  1  3  1  0  0  0  0
  2  1  2  0  0  0  0
  3  4  1  0  0  0  0
  5 10  1  0  0  0  0
  5  3  1  0  0  0  0
  6  5  2  0  0  0  0
  7  6  1  0  0  0  0
  7  8  2  0  0  0  0
  8  9  1  0  0  0  0
  9 10  2  0  0  0  0
  9 12  1  0  0  0  0
 11  7  1  0  0  0  0
 12 13  1  0  0  0  0
 12 20  1  0  0  0  0
 13 15  1  0  0  0  0
 14 13  1  0  0  0  0
 15 17  1  0  0  0  0
 16 15  1  0  0  0  0
 17 18  1  0  0  0  0
 19 17  1  0  0  0  0
 20 19  1  0  0  0  0
 21 23  1  0  0  0  0
 21  6  1  0  0  0  0
 22 21  1  0  0  0  0
 24 27  1  0  0  0  0
 25 26  1  0  0  0  0
 26 32  2  0  0  0  0
 26 27  1  0  0  0  0
 27 28  2  0  0  0  0
 28 33  1  0  0  0  0
 28 29  1  0  0  0  0
 29 34  1  0  0  0  0
 30 31  1  0  0  0  0
 30 29  2  0  0  0  0
 32 30  1  0  0  0  0
 36 35  1  0  0  0  0
 37 36  1  0  0  0  0
 37 32  1  0  0  0  0
 38 37  2  0  0  0  0
 39 40  2  0  0  0  0
 39 38  1  0  0  0  0
 40 41  1  0  0  0  0
 41 45  1  0  0  0  0
 41 36  2  0  0  0  0
 42 38  1  0  0  0  0
 43 39  1  0  0  0  0
 44 40  1  0  0  0  0
M  END
>  <minimizedAffinity>
-7.09742737

$$$$

 OpenBabel03252501433D

 45 48  0  0  0  0  0  0  0  0999 V2000
   37.9740   30.5390   41.0540 C   0  0  0  0  0  0  0  0  0  0  0  0
   37.6960   30.9430   39.8670 O   0  0  0  0  0  0  0  0  0  0  0  0
   39.1750   31.1110   41.5530 N   0  0  0  0  0  0  0  0  0  0  0  0
   39.5440   30.9250   42.4940 H   0  0  0  0  0  0  0  0  0  0  0  0
   39.7530   31.9650   40.5360 C   0  0  0  0  0  0  0  0  0  0  0  0
   39.6390   33.3220   40.4800 C   0  0  0  0  0  0  0  0  0  0  0  0
   40.2550   33.9720   39.4390 C   0  0  0  0  0  0  0  0  0  0  0  0
   40.9310   33.2250   38.5470 N   0  0  0  0  0  0  0  0  0  0  0  0
   41.0260   31.8760   38.6310 C   0  0  0  0  0  0  0  0  0  0  0  0
   40.4280   31.2180   39.6430 N   0  0  0  0  0  0  0  0  0  0  0  0
   40.1720   35.0440   39.3860 H   0  0  0  0  0  0  0  0  0  0  0  0
   41.7650   31.1670   37.6370 N   0  0  0  0  0  0  0  0  0  0  0  0
   42.8920   31.7110   36.9280 C   0  0  0  0  0  3  0  0  0  0  0  0
   42.5520   32.2110   35.9760 H   0  0  0  0  0  0  0  0  0  0  0  0
   43.6850   30.4930   36.4330 C   0  0  0  0  0  3  0  0  0  0  0  0
   43.2850   30.1260   35.4620 H   0  0  0  0  0  0  0  0  0  0  0  0
   43.7550   29.4720   37.4360 N   0  0  0  0  0  0  0  0  0  0  0  0
   44.4180   28.7500   37.0840 H   0  0  0  0  0  0  0  0  0  0  0  0
   42.5010   28.9460   37.8710 C   0  0  0  0  0  2  0  0  0  0  0  0
   41.3960   29.8100   37.2820 C   0  0  0  0  0  2  0  0  0  0  0  0
   38.8880   33.9600   41.5080 N   0  0  0  0  0  0  0  0  0  0  0  0
   37.8950   33.6950   41.5910 H   0  0  0  0  0  0  0  0  0  0  0  0
   39.2970   34.6640   42.1580 H   0  0  0  0  0  0  0  0  0  0  0  0
   37.2320   29.6420   41.8310 O   0  0  0  0  0  0  0  0  0  0  0  0
   36.8370   27.5060   39.8010 Cl  0  0  0  0  0  0  0  0  0  0  0  0
   37.7150   27.3670   41.3110 C   0  0  0  0  0  0  0  0  0  0  0  0
   37.8450   28.4320   42.2020 C   0  0  0  0  0  0  0  0  0  0  0  0
   38.5360   28.2770   43.3640 C   0  0  0  0  0  0  0  0  0  0  0  0
   39.1400   27.0880   43.7320 C   0  0  0  0  0  0  0  0  0  0  0  0
   39.0210   25.9960   42.8450 C   0  0  0  0  0  0  0  0  0  0  0  0
   39.7530   24.4450   43.2230 Cl  0  0  0  0  0  0  0  0  0  0  0  0
   38.3140   26.1920   41.6770 C   0  0  0  0  0  0  0  0  0  0  0  0
   38.6130   29.1250   44.0250 H   0  0  0  0  0  0  0  0  0  0  0  0
   39.6930   26.9710   44.6660 H   0  0  0  0  0  0  0  0  0  0  0  0
   36.2790   24.4120   41.9690 F   0  0  0  0  0  0  0  0  0  0  0  0
   37.1460   24.1860   40.9240 C   0  0  0  0  0  0  0  0  0  0  0  0
   38.1850   25.0700   40.7510 C   0  0  0  0  0  0  0  0  0  0  0  0
   39.0470   24.8070   39.6770 C   0  0  0  0  0  0  0  0  0  0  0  0
   38.8160   23.7070   38.8710 C   0  0  0  0  0  0  0  0  0  0  0  0
   37.7330   22.8470   39.1100 C   0  0  0  0  0  0  0  0  0  0  0  0
   36.8600   23.0790   40.1640 C   0  0  0  0  0  0  0  0  0  0  0  0
   39.8650   25.5010   39.5400 H   0  0  0  0  0  0  0  0  0  0  0  0
   39.4980   23.5300   38.0500 H   0  0  0  0  0  0  0  0  0  0  0  0
   37.5630   21.9830   38.4640 H   0  0  0  0  0  0  0  0  0  0  0  0
   36.0140   22.4400   40.3800 H   0  0  0  0  0  0  0  0  0  0  0  0
  1  3  1  0  0  0  0
  1 24  1  0  0  0  0
  2  1  2  0  0  0  0
  3  4  1  0  0  0  0
  5  3  1  0  0  0  0
  6  5  1  0  0  0  0
  6 21  1  0  0  0  0
  7  6  2  0  0  0  0
  8  9  2  0  0  0  0
  8  7  1  0  0  0  0
  9 10  1  0  0  0  0
 10  5  2  0  0  0  0
 11  7  1  0  0  0  0
 12  9  1  0  0  0  0
 13 12  1  0  0  0  0
 14 13  1  0  0  0  0
 15 13  1  0  0  0  0
 15 17  1  0  0  0  0
 16 15  1  0  0  0  0
 17 19  1  0  0  0  0
 18 17  1  0  0  0  0
 20 12  1  0  0  0  0
 20 19  1  0  0  0  0
 21 22  1  0  0  0  0
 21 23  1  0  0  0  0
 24 27  1  0  0  0  0
 25 26  1  0  0  0  0
 26 32  2  0  0  0  0
 26 27  1  0  0  0  0
 27 28  2  0  0  0  0
 28 29  1  0  0  0  0
 28 33  1  0  0  0  0
 29 34  1  0  0  0  0
 30 31  1  0  0  0  0
 30 29  2  0  0  0  0
 32 30  1  0  0  0  0
 36 35  1  0  0  0  0
 37 36  1  0  0  0  0
 37 32  1  0  0  0  0
 38 37  2  0  0  0  0
 39 40  2  0  0  0  0
 39 38  1  0  0  0  0
 40 41  1  0  0  0  0
 41 45  1  0  0  0  0
 41 36  2  0  0  0  0
 42 38  1  0  0  0  0
 43 39  1  0  0  0  0
 44 40  1  0  0  0  0
M  END
>  <minimizedAffinity>
-7.04879045

$$$$

 OpenBabel03252501433D

 45 48  0  0  0  0  0  0  0  0999 V2000
   36.6380   31.1150   39.9040 C   0  0  0  0  0  0  0  0  0  0  0  0
   37.4390   31.2400   38.9070 O   0  0  0  0  0  0  0  0  0  0  0  0
   36.9550   32.0030   40.9660 N   0  0  0  0  0  0  0  0  0  0  0  0
   36.4110   32.0660   41.8360 H   0  0  0  0  0  0  0  0  0  0  0  0
   38.1320   32.7690   40.6100 C   0  0  0  0  0  0  0  0  0  0  0  0
   38.1420   33.9110   39.8670 C   0  0  0  0  0  0  0  0  0  0  0  0
   39.3560   34.5060   39.6280 C   0  0  0  0  0  0  0  0  0  0  0  0
   40.4530   33.9210   40.1430 N   0  0  0  0  0  0  0  0  0  0  0  0
   40.4090   32.7840   40.8790 C   0  0  0  0  0  0  0  0  0  0  0  0
   39.2290   32.1830   41.1250 N   0  0  0  0  0  0  0  0  0  0  0  0
   39.3750   35.4100   39.0420 H   0  0  0  0  0  0  0  0  0  0  0  0
   41.6260   32.2360   41.3850 N   0  0  0  0  0  0  0  0  0  0  0  0
   42.7820   33.0190   41.7310 C   0  0  0  0  0  3  0  0  0  0  0  0
   43.4720   33.1100   40.8430 H   0  0  0  0  0  0  0  0  0  0  0  0
   43.5770   32.1520   42.7180 C   0  0  0  0  0  3  0  0  0  0  0  0
   44.2480   31.4480   42.1800 H   0  0  0  0  0  0  0  0  0  0  0  0
   42.7100   31.5010   43.6560 N   0  0  0  0  0  0  0  0  0  0  0  0
   43.3230   31.0530   44.3700 H   0  0  0  0  0  0  0  0  0  0  0  0
   41.7380   30.6210   43.0900 C   0  0  0  0  0  2  0  0  0  0  0  0
   41.7560   30.8040   41.5800 C   0  0  0  0  0  2  0  0  0  0  0  0
   36.8890   34.4000   39.3990 N   0  0  0  0  0  0  0  0  0  0  0  0
   36.3530   33.7780   38.7750 H   0  0  0  0  0  0  0  0  0  0  0  0
   36.5100   35.3350   39.6580 H   0  0  0  0  0  0  0  0  0  0  0  0
   35.5560   30.2340   40.0070 O   0  0  0  0  0  0  0  0  0  0  0  0
   37.1950   28.5110   41.7930 Cl  0  0  0  0  0  0  0  0  0  0  0  0
   36.4740   28.0490   40.2650 C   0  0  0  0  0  0  0  0  0  0  0  0
   35.7180   28.9340   39.4960 C   0  0  0  0  0  0  0  0  0  0  0  0
   35.1780   28.5300   38.3140 C   0  0  0  0  0  0  0  0  0  0  0  0
   35.3350   27.2520   37.8080 C   0  0  0  0  0  0  0  0  0  0  0  0
   36.0960   26.3400   38.5690 C   0  0  0  0  0  0  0  0  0  0  0  0
   36.3530   24.6950   38.0100 Cl  0  0  0  0  0  0  0  0  0  0  0  0
   36.6280   26.7860   39.7620 C   0  0  0  0  0  0  0  0  0  0  0  0
   34.6000   29.2450   37.7500 H   0  0  0  0  0  0  0  0  0  0  0  0
   34.8980   26.9350   36.8580 H   0  0  0  0  0  0  0  0  0  0  0  0
   39.3080   26.5780   39.3590 F   0  0  0  0  0  0  0  0  0  0  0  0
   38.7700   25.7670   40.3330 C   0  0  0  0  0  0  0  0  0  0  0  0
   37.4170   25.8510   40.5590 C   0  0  0  0  0  0  0  0  0  0  0  0
   36.9050   25.0090   41.5570 C   0  0  0  0  0  0  0  0  0  0  0  0
   37.7600   24.1650   42.2420 C   0  0  0  0  0  0  0  0  0  0  0  0
   39.1330   24.1340   41.9550 C   0  0  0  0  0  0  0  0  0  0  0  0
   39.6730   24.9540   40.9730 C   0  0  0  0  0  0  0  0  0  0  0  0
   35.8400   25.0730   41.7360 H   0  0  0  0  0  0  0  0  0  0  0  0
   37.3360   23.5270   43.0070 H   0  0  0  0  0  0  0  0  0  0  0  0
   39.7960   23.4630   42.5050 H   0  0  0  0  0  0  0  0  0  0  0  0
   40.7260   24.9600   40.7240 H   0  0  0  0  0  0  0  0  0  0  0  0
  1 24  1  0  0  0  0
  1  3  1  0  0  0  0
  2  1  2  0  0  0  0
  3  4  1  0  0  0  0
  5  3  1  0  0  0  0
  5 10  1  0  0  0  0
  6  5  2  0  0  0  0
  7  6  1  0  0  0  0
  7  8  2  0  0  0  0
  8  9  1  0  0  0  0
  9 10  2  0  0  0  0
  9 12  1  0  0  0  0
 11  7  1  0  0  0  0
 12 20  1  0  0  0  0
 12 13  1  0  0  0  0
 13 15  1  0  0  0  0
 14 13  1  0  0  0  0
 15 17  1  0  0  0  0
 16 15  1  0  0  0  0
 17 18  1  0  0  0  0
 19 17  1  0  0  0  0
 20 19  1  0  0  0  0
 21 23  1  0  0  0  0
 21  6  1  0  0  0  0
 22 21  1  0  0  0  0
 26 25  1  0  0  0  0
 27 24  1  0  0  0  0
 27 26  2  0  0  0  0
 28 27  1  0  0  0  0
 29 28  2  0  0  0  0
 29 30  1  0  0  0  0
 30 32  2  0  0  0  0
 31 30  1  0  0  0  0
 32 26  1  0  0  0  0
 32 37  1  0  0  0  0
 33 28  1  0  0  0  0
 34 29  1  0  0  0  0
 35 36  1  0  0  0  0
 36 37  2  0  0  0  0
 36 41  1  0  0  0  0
 37 38  1  0  0  0  0
 38 42  1  0  0  0  0
 38 39  2  0  0  0  0
 39 43  1  0  0  0  0
 40 39  1  0  0  0  0
 40 44  1  0  0  0  0
 41 40  2  0  0  0  0
 45 41  1  0  0  0  0
M  END
>  <minimizedAffinity>
-7.03811169

$$$$

 OpenBabel03252501433D

 45 48  0  0  0  0  0  0  0  0999 V2000
   37.0830   30.5900   40.0730 C   0  0  0  0  0  0  0  0  0  0  0  0
   37.9200   30.7260   39.1070 O   0  0  0  0  0  0  0  0  0  0  0  0
   37.2480   31.5830   41.0750 N   0  0  0  0  0  0  0  0  0  0  0  0
   36.6530   31.6510   41.9110 H   0  0  0  0  0  0  0  0  0  0  0  0
   38.3570   32.4420   40.7150 C   0  0  0  0  0  0  0  0  0  0  0  0
   38.2730   33.5760   39.9630 C   0  0  0  0  0  0  0  0  0  0  0  0
   39.4330   34.2690   39.7210 C   0  0  0  0  0  0  0  0  0  0  0  0
   40.5740   33.7830   40.2440 N   0  0  0  0  0  0  0  0  0  0  0  0
   40.6240   32.6520   40.9880 C   0  0  0  0  0  0  0  0  0  0  0  0
   39.4980   31.9560   41.2370 N   0  0  0  0  0  0  0  0  0  0  0  0
   39.3770   35.1670   39.1280 H   0  0  0  0  0  0  0  0  0  0  0  0
   41.8810   32.2120   41.5010 N   0  0  0  0  0  0  0  0  0  0  0  0
   42.9660   33.0930   41.8430 C   0  0  0  0  0  3  0  0  0  0  0  0
   43.6480   33.2350   40.9560 H   0  0  0  0  0  0  0  0  0  0  0  0
   43.8280   32.3040   42.8390 C   0  0  0  0  0  3  0  0  0  0  0  0
   44.5580   31.6550   42.3080 H   0  0  0  0  0  0  0  0  0  0  0  0
   43.0180   31.5900   43.7800 N   0  0  0  0  0  0  0  0  0  0  0  0
   43.6640   31.2000   44.4990 H   0  0  0  0  0  0  0  0  0  0  0  0
   42.1250   30.6260   43.2200 C   0  0  0  0  0  2  0  0  0  0  0  0
   42.1310   30.7990   41.7080 C   0  0  0  0  0  2  0  0  0  0  0  0
   36.9840   33.9530   39.4880 N   0  0  0  0  0  0  0  0  0  0  0  0
   36.5040   33.2840   38.8680 H   0  0  0  0  0  0  0  0  0  0  0  0
   36.5260   34.8550   39.7390 H   0  0  0  0  0  0  0  0  0  0  0  0
   36.0940   29.6080   40.1950 O   0  0  0  0  0  0  0  0  0  0  0  0
   36.1210   27.4160   38.1840 Cl  0  0  0  0  0  0  0  0  0  0  0  0
   36.5060   27.2800   39.8880 C   0  0  0  0  0  0  0  0  0  0  0  0
   36.4640   28.3720   40.7550 C   0  0  0  0  0  0  0  0  0  0  0  0
   36.7710   28.2170   42.0720 C   0  0  0  0  0  0  0  0  0  0  0  0
   37.1340   27.0040   42.6260 C   0  0  0  0  0  0  0  0  0  0  0  0
   37.1830   25.8840   41.7680 C   0  0  0  0  0  0  0  0  0  0  0  0
   37.6340   24.3000   42.3780 Cl  0  0  0  0  0  0  0  0  0  0  0  0
   36.8660   26.0800   40.4390 C   0  0  0  0  0  0  0  0  0  0  0  0
   36.7260   29.0870   42.7080 H   0  0  0  0  0  0  0  0  0  0  0  0
   37.3790   26.8870   43.6840 H   0  0  0  0  0  0  0  0  0  0  0  0
   39.1730   25.4600   39.1410 F   0  0  0  0  0  0  0  0  0  0  0  0
   38.0940   24.6400   38.8980 C   0  0  0  0  0  0  0  0  0  0  0  0
   36.9130   24.9300   39.5410 C   0  0  0  0  0  0  0  0  0  0  0  0
   35.8360   24.0740   39.2680 C   0  0  0  0  0  0  0  0  0  0  0  0
   36.0100   23.0160   38.3940 C   0  0  0  0  0  0  0  0  0  0  0  0
   37.2470   22.7830   37.7750 C   0  0  0  0  0  0  0  0  0  0  0  0
   38.3340   23.6110   38.0220 C   0  0  0  0  0  0  0  0  0  0  0  0
   34.9070   24.3000   39.7720 H   0  0  0  0  0  0  0  0  0  0  0  0
   35.1620   22.3730   38.2040 H   0  0  0  0  0  0  0  0  0  0  0  0
   37.3700   21.9430   37.0880 H   0  0  0  0  0  0  0  0  0  0  0  0
   39.3030   23.4640   37.5640 H   0  0  0  0  0  0  0  0  0  0  0  0
  1 24  1  0  0  0  0
  1  3  1  0  0  0  0
  2  1  2  0  0  0  0
  3  4  1  0  0  0  0
  5  3  1  0  0  0  0
  5 10  1  0  0  0  0
  6  5  2  0  0  0  0
  7  6  1  0  0  0  0
  7  8  2  0  0  0  0
  8  9  1  0  0  0  0
  9 10  2  0  0  0  0
  9 12  1  0  0  0  0
 11  7  1  0  0  0  0
 12 20  1  0  0  0  0
 12 13  1  0  0  0  0
 13 15  1  0  0  0  0
 14 13  1  0  0  0  0
 15 17  1  0  0  0  0
 16 15  1  0  0  0  0
 17 18  1  0  0  0  0
 19 17  1  0  0  0  0
 20 19  1  0  0  0  0
 21 23  1  0  0  0  0
 21  6  1  0  0  0  0
 22 21  1  0  0  0  0
 24 27  1  0  0  0  0
 25 26  1  0  0  0  0
 26 32  2  0  0  0  0
 26 27  1  0  0  0  0
 27 28  2  0  0  0  0
 28 29  1  0  0  0  0
 28 33  1  0  0  0  0
 29 34  1  0  0  0  0
 30 31  1  0  0  0  0
 30 29  2  0  0  0  0
 32 30  1  0  0  0  0
 36 35  1  0  0  0  0
 36 37  1  0  0  0  0
 37 32  1  0  0  0  0
 38 37  2  0  0  0  0
 38 42  1  0  0  0  0
 39 38  1  0  0  0  0
 40 41  1  0  0  0  0
 40 39  2  0  0  0  0
 41 36  2  0  0  0  0
 43 39  1  0  0  0  0
 44 40  1  0  0  0  0
 45 41  1  0  0  0  0
M  END
>  <minimizedAffinity>
-6.78920507

$$$$

 OpenBabel03252501433D

 45 48  0  0  0  0  0  0  0  0999 V2000
   41.6120   31.3910   37.7330 C   0  0  0  0  0  0  0  0  0  0  0  0
   42.8390   31.1220   37.4610 O   0  0  0  0  0  0  0  0  0  0  0  0
   41.4770   32.5800   38.4970 N   0  0  0  0  0  0  0  0  0  0  0  0
   40.5700   32.9690   38.7880 H   0  0  0  0  0  0  0  0  0  0  0  0
   42.7920   33.1190   38.7760 C   0  0  0  0  0  0  0  0  0  0  0  0
   43.5020   33.9450   37.9560 C   0  0  0  0  0  0  0  0  0  0  0  0
   44.7390   34.3610   38.3840 C   0  0  0  0  0  0  0  0  0  0  0  0
   45.1660   33.9240   39.5830 N   0  0  0  0  0  0  0  0  0  0  0  0
   44.4350   33.1020   40.3750 C   0  0  0  0  0  0  0  0  0  0  0  0
   43.2200   32.6820   39.9740 N   0  0  0  0  0  0  0  0  0  0  0  0
   45.3070   35.0140   37.7440 H   0  0  0  0  0  0  0  0  0  0  0  0
   44.9710   32.6900   41.6320 N   0  0  0  0  0  0  0  0  0  0  0  0
   45.8760   33.4810   42.4220 C   0  0  0  0  0  3  0  0  0  0  0  0
   46.9450   33.2340   42.1560 H   0  0  0  0  0  0  0  0  0  0  0  0
   45.7300   32.9530   43.8560 C   0  0  0  0  0  3  0  0  0  0  0  0
   46.3900   32.0750   44.0270 H   0  0  0  0  0  0  0  0  0  0  0  0
   44.3580   32.7000   44.1810 N   0  0  0  0  0  0  0  0  0  0  0  0
   44.3250   32.4840   45.2000 H   0  0  0  0  0  0  0  0  0  0  0  0
   43.6960   31.7340   43.3620 C   0  0  0  0  0  2  0  0  0  0  0  0
   44.6110   31.4010   42.1920 C   0  0  0  0  0  2  0  0  0  0  0  0
   42.9010   34.3160   36.7190 N   0  0  0  0  0  0  0  0  0  0  0  0
   42.6800   33.5510   36.0630 H   0  0  0  0  0  0  0  0  0  0  0  0
   42.6860   35.3020   36.4640 H   0  0  0  0  0  0  0  0  0  0  0  0
   40.4860   30.6510   37.3570 O   0  0  0  0  0  0  0  0  0  0  0  0
   40.4380   28.4750   39.3830 Cl  0  0  0  0  0  0  0  0  0  0  0  0
   39.2390   29.7340   39.1700 C   0  0  0  0  0  0  0  0  0  0  0  0
   39.3510   30.7160   38.1850 C   0  0  0  0  0  0  0  0  0  0  0  0
   38.3940   31.6750   38.0570 C   0  0  0  0  0  0  0  0  0  0  0  0
   37.2770   31.7410   38.8700 C   0  0  0  0  0  0  0  0  0  0  0  0
   37.1420   30.7580   39.8730 C   0  0  0  0  0  0  0  0  0  0  0  0
   35.7590   30.7580   40.9550 Cl  0  0  0  0  0  0  0  0  0  0  0  0
   38.1330   29.8030   39.9720 C   0  0  0  0  0  0  0  0  0  0  0  0
   38.5190   32.4150   37.2830 H   0  0  0  0  0  0  0  0  0  0  0  0
   36.5130   32.5140   38.7610 H   0  0  0  0  0  0  0  0  0  0  0  0
   39.1610   30.2390   42.4520 F   0  0  0  0  0  0  0  0  0  0  0  0
   38.5350   29.0290   42.2520 C   0  0  0  0  0  0  0  0  0  0  0  0
   38.0050   28.7810   41.0070 C   0  0  0  0  0  0  0  0  0  0  0  0
   37.3770   27.5380   40.8410 C   0  0  0  0  0  0  0  0  0  0  0  0
   37.3220   26.6530   41.9030 C   0  0  0  0  0  0  0  0  0  0  0  0
   37.8870   26.9770   43.1460 C   0  0  0  0  0  0  0  0  0  0  0  0
   38.5170   28.1990   43.3450 C   0  0  0  0  0  0  0  0  0  0  0  0
   36.9600   27.3410   39.8630 H   0  0  0  0  0  0  0  0  0  0  0  0
   36.8310   25.7030   41.7450 H   0  0  0  0  0  0  0  0  0  0  0  0
   37.8360   26.2690   43.9760 H   0  0  0  0  0  0  0  0  0  0  0  0
   38.9630   28.4850   44.2880 H   0  0  0  0  0  0  0  0  0  0  0  0
  1  3  1  0  0  0  0
  2  1  2  0  0  0  0
  3  5  1  0  0  0  0
  3  4  1  0  0  0  0
  5 10  1  0  0  0  0
  6  7  1  0  0  0  0
  6  5  2  0  0  0  0
  7  8  2  0  0  0  0
  8  9  1  0  0  0  0
  9 12  1  0  0  0  0
 10  9  2  0  0  0  0
 11  7  1  0  0  0  0
 12 20  1  0  0  0  0
 12 13  1  0  0  0  0
 13 15  1  0  0  0  0
 14 13  1  0  0  0  0
 15 16  1  0  0  0  0
 15 17  1  0  0  0  0
 17 18  1  0  0  0  0
 19 17  1  0  0  0  0
 20 19  1  0  0  0  0
 21  6  1  0  0  0  0
 22 21  1  0  0  0  0
 23 21  1  0  0  0  0
 24  1  1  0  0  0  0
 24 27  1  0  0  0  0
 26 25  1  0  0  0  0
 26 32  1  0  0  0  0
 27 26  2  0  0  0  0
 28 27  1  0  0  0  0
 28 29  2  0  0  0  0
 29 30  1  0  0  0  0
 30 32  2  0  0  0  0
 30 31  1  0  0  0  0
 32 37  1  0  0  0  0
 33 28  1  0  0  0  0
 34 29  1  0  0  0  0
 36 35  1  0  0  0  0
 36 41  1  0  0  0  0
 37 36  2  0  0  0  0
 38 37  1  0  0  0  0
 38 39  2  0  0  0  0
 39 40  1  0  0  0  0
 40 41  2  0  0  0  0
 40 44  1  0  0  0  0
 41 45  1  0  0  0  0
 42 38  1  0  0  0  0
 43 39  1  0  0  0  0
M  END
>  <minimizedAffinity>
-6.68662691

$$$$

 OpenBabel03252501433D

 45 48  0  0  0  0  0  0  0  0999 V2000
   37.9650   28.2130   42.7790 C   0  0  0  0  0  0  0  0  0  0  0  0
   37.2920   27.2440   43.2890 O   0  0  0  0  0  0  0  0  0  0  0  0
   39.1400   27.7650   42.1180 N   0  0  0  0  0  0  0  0  0  0  0  0
   39.7910   28.3930   41.6290 H   0  0  0  0  0  0  0  0  0  0  0  0
   39.2450   26.3270   42.2560 C   0  0  0  0  0  0  0  0  0  0  0  0
   39.7910   25.6680   43.3160 C   0  0  0  0  0  0  0  0  0  0  0  0
   39.8050   24.2960   43.2770 C   0  0  0  0  0  0  0  0  0  0  0  0
   39.2780   23.6950   42.1940 N   0  0  0  0  0  0  0  0  0  0  0  0
   38.7410   24.3800   41.1550 C   0  0  0  0  0  0  0  0  0  0  0  0
   38.7180   25.7270   41.1730 N   0  0  0  0  0  0  0  0  0  0  0  0
   40.2340   23.7650   44.1100 H   0  0  0  0  0  0  0  0  0  0  0  0
   38.2050   23.6560   40.0480 N   0  0  0  0  0  0  0  0  0  0  0  0
   37.6190   22.3460   40.1470 C   0  0  0  0  0  3  0  0  0  0  0  0
   38.4040   21.5540   39.9780 H   0  0  0  0  0  0  0  0  0  0  0  0
   36.7050   22.2170   38.9210 C   0  0  0  0  0  3  0  0  0  0  0  0
   37.2760   21.8660   38.0340 H   0  0  0  0  0  0  0  0  0  0  0  0
   35.9790   23.4290   38.6820 N   0  0  0  0  0  0  0  0  0  0  0  0
   35.2850   23.2210   37.9320 H   0  0  0  0  0  0  0  0  0  0  0  0
   36.7750   24.5870   38.4290 C   0  0  0  0  0  2  0  0  0  0  0  0
   38.2270   24.2340   38.7180 C   0  0  0  0  0  2  0  0  0  0  0  0
   40.3040   26.4580   44.3850 N   0  0  0  0  0  0  0  0  0  0  0  0
   41.0720   27.1070   44.1560 H   0  0  0  0  0  0  0  0  0  0  0  0
   39.9400   26.4010   45.3600 H   0  0  0  0  0  0  0  0  0  0  0  0
   37.6450   29.5740   42.8250 O   0  0  0  0  0  0  0  0  0  0  0  0
   39.9800   31.3320   42.2780 Cl  0  0  0  0  0  0  0  0  0  0  0  0
   38.5730   31.1120   41.2590 C   0  0  0  0  0  0  0  0  0  0  0  0
   37.5230   30.2610   41.6040 C   0  0  0  0  0  0  0  0  0  0  0  0
   36.4490   30.1230   40.7790 C   0  0  0  0  0  0  0  0  0  0  0  0
   36.3270   30.7970   39.5780 C   0  0  0  0  0  0  0  0  0  0  0  0
   37.3770   31.6650   39.2080 C   0  0  0  0  0  0  0  0  0  0  0  0
   37.3140   32.5640   37.7010 Cl  0  0  0  0  0  0  0  0  0  0  0  0
   38.4490   31.7780   40.0690 C   0  0  0  0  0  0  0  0  0  0  0  0
   35.6600   29.4550   41.0840 H   0  0  0  0  0  0  0  0  0  0  0  0
   35.4620   30.6810   38.9210 H   0  0  0  0  0  0  0  0  0  0  0  0
   38.3870   34.3900   40.8190 F   0  0  0  0  0  0  0  0  0  0  0  0
   39.4840   33.9880   40.0900 C   0  0  0  0  0  0  0  0  0  0  0  0
   39.5420   32.6720   39.6970 C   0  0  0  0  0  0  0  0  0  0  0  0
   40.6730   32.2990   38.9560 C   0  0  0  0  0  0  0  0  0  0  0  0
   41.6410   33.2440   38.6680 C   0  0  0  0  0  0  0  0  0  0  0  0
   41.5120   34.5710   39.1030 C   0  0  0  0  0  0  0  0  0  0  0  0
   40.4050   34.9740   39.8390 C   0  0  0  0  0  0  0  0  0  0  0  0
   40.7210   31.2640   38.6450 H   0  0  0  0  0  0  0  0  0  0  0  0
   42.5020   32.9270   38.0940 H   0  0  0  0  0  0  0  0  0  0  0  0
   42.2850   35.3060   38.8690 H   0  0  0  0  0  0  0  0  0  0  0  0
   40.2700   35.9870   40.1930 H   0  0  0  0  0  0  0  0  0  0  0  0
  1 24  1  0  0  0  0
  1  2  2  0  0  0  0
  3  5  1  0  0  0  0
  3  1  1  0  0  0  0
  4  3  1  0  0  0  0
  5  6  1  0  0  0  0
  6 21  1  0  0  0  0
  7  6  2  0  0  0  0
  7 11  1  0  0  0  0
  8  7  1  0  0  0  0
  9 10  1  0  0  0  0
  9  8  2  0  0  0  0
 10  5  2  0  0  0  0
 12 13  1  0  0  0  0
 12  9  1  0  0  0  0
 14 13  1  0  0  0  0
 15 13  1  0  0  0  0
 16 15  1  0  0  0  0
 17 15  1  0  0  0  0
 18 17  1  0  0  0  0
 19 17  1  0  0  0  0
 19 20  1  0  0  0  0
 20 12  1  0  0  0  0
 21 23  1  0  0  0  0
 22 21  1  0  0  0  0
 26 27  1  0  0  0  0
 26 25  1  0  0  0  0
 27 24  1  0  0  0  0
 28 33  1  0  0  0  0
 28 27  2  0  0  0  0
 29 28  1  0  0  0  0
 30 29  2  0  0  0  0
 30 32  1  0  0  0  0
 31 30  1  0  0  0  0
 32 26  2  0  0  0  0
 34 29  1  0  0  0  0
 36 35  1  0  0  0  0
 37 32  1  0  0  0  0
 37 36  2  0  0  0  0
 38 37  1  0  0  0  0
 39 38  2  0  0  0  0
 39 40  1  0  0  0  0
 40 41  2  0  0  0  0
 41 36  1  0  0  0  0
 41 45  1  0  0  0  0
 42 38  1  0  0  0  0
 43 39  1  0  0  0  0
 44 40  1  0  0  0  0
M  END
>  <minimizedAffinity>
-6.66363955

$$$$

 OpenBabel03252501433D

 45 48  0  0  0  0  0  0  0  0999 V2000
   40.9000   31.5990   42.0150 C   0  0  0  0  0  0  0  0  0  0  0  0
   42.0550   31.0350   42.0210 O   0  0  0  0  0  0  0  0  0  0  0  0
   40.8630   32.7440   41.1760 N   0  0  0  0  0  0  0  0  0  0  0  0
   40.0180   33.3100   41.0240 H   0  0  0  0  0  0  0  0  0  0  0  0
   42.1750   32.9550   40.6000 C   0  0  0  0  0  0  0  0  0  0  0  0
   43.1770   33.6930   41.1560 C   0  0  0  0  0  0  0  0  0  0  0  0
   44.3610   33.7840   40.4660 C   0  0  0  0  0  0  0  0  0  0  0  0
   44.4510   33.1390   39.2890 N   0  0  0  0  0  0  0  0  0  0  0  0
   43.4350   32.4120   38.7630 C   0  0  0  0  0  0  0  0  0  0  0  0
   42.2650   32.3100   39.4230 N   0  0  0  0  0  0  0  0  0  0  0  0
   45.1590   34.3650   40.8970 H   0  0  0  0  0  0  0  0  0  0  0  0
   43.6230   31.7610   37.5070 N   0  0  0  0  0  0  0  0  0  0  0  0
   44.8900   31.2780   37.0300 C   0  0  0  0  0  3  0  0  0  0  0  0
   45.4090   32.0760   36.4230 H   0  0  0  0  0  0  0  0  0  0  0  0
   44.5480   30.2000   35.9910 C   0  0  0  0  0  3  0  0  0  0  0  0
   44.3730   30.6520   34.9900 H   0  0  0  0  0  0  0  0  0  0  0  0
   43.4650   29.3740   36.4340 N   0  0  0  0  0  0  0  0  0  0  0  0
   43.3860   28.5900   35.7520 H   0  0  0  0  0  0  0  0  0  0  0  0
   42.2330   30.0520   36.6840 C   0  0  0  0  0  2  0  0  0  0  0  0
   42.4960   31.5500   36.6190 C   0  0  0  0  0  2  0  0  0  0  0  0
   42.9170   34.3110   42.4130 N   0  0  0  0  0  0  0  0  0  0  0  0
   42.1460   34.9950   42.4430 H   0  0  0  0  0  0  0  0  0  0  0  0
   43.4640   34.1010   43.2740 H   0  0  0  0  0  0  0  0  0  0  0  0
   39.7640   31.1930   42.7230 O   0  0  0  0  0  0  0  0  0  0  0  0
   37.5680   31.5570   40.7510 Cl  0  0  0  0  0  0  0  0  0  0  0  0
   38.1210   30.0420   41.4350 C   0  0  0  0  0  0  0  0  0  0  0  0
   39.1640   29.9740   42.3580 C   0  0  0  0  0  0  0  0  0  0  0  0
   39.5600   28.7730   42.8620 C   0  0  0  0  0  0  0  0  0  0  0  0
   38.9730   27.5730   42.5060 C   0  0  0  0  0  0  0  0  0  0  0  0
   37.9150   27.6180   41.5730 C   0  0  0  0  0  0  0  0  0  0  0  0
   37.1060   26.1470   41.0570 Cl  0  0  0  0  0  0  0  0  0  0  0  0
   37.5430   28.8530   41.0830 C   0  0  0  0  0  0  0  0  0  0  0  0
   40.3700   28.7650   43.5740 H   0  0  0  0  0  0  0  0  0  0  0  0
   39.2960   26.6130   42.9150 H   0  0  0  0  0  0  0  0  0  0  0  0
   38.0640   28.6510   38.4230 F   0  0  0  0  0  0  0  0  0  0  0  0
   36.7430   28.8070   38.7780 C   0  0  0  0  0  0  0  0  0  0  0  0
   36.4490   28.9120   40.1170 C   0  0  0  0  0  0  0  0  0  0  0  0
   35.0940   29.0710   40.4400 C   0  0  0  0  0  0  0  0  0  0  0  0
   34.1510   29.1120   39.4290 C   0  0  0  0  0  0  0  0  0  0  0  0
   34.5280   28.9990   38.0820 C   0  0  0  0  0  0  0  0  0  0  0  0
   35.8610   28.8410   37.7270 C   0  0  0  0  0  0  0  0  0  0  0  0
   34.8610   29.1540   41.4930 H   0  0  0  0  0  0  0  0  0  0  0  0
   33.1140   29.2350   39.7090 H   0  0  0  0  0  0  0  0  0  0  0  0
   33.7720   29.0330   37.2940 H   0  0  0  0  0  0  0  0  0  0  0  0
   36.1900   28.7500   36.7000 H   0  0  0  0  0  0  0  0  0  0  0  0
  1  2  2  0  0  0  0
  1 24  1  0  0  0  0
  3  1  1  0  0  0  0
  4  3  1  0  0  0  0
  5  6  1  0  0  0  0
  5  3  1  0  0  0  0
  6 21  1  0  0  0  0
  7 11  1  0  0  0  0
  7  6  2  0  0  0  0
  8  7  1  0  0  0  0
  9  8  2  0  0  0  0
  9 10  1  0  0  0  0
 10  5  2  0  0  0  0
 12  9  1  0  0  0  0
 13 12  1  0  0  0  0
 14 13  1  0  0  0  0
 15 17  1  0  0  0  0
 15 13  1  0  0  0  0
 16 15  1  0  0  0  0
 17 19  1  0  0  0  0
 18 17  1  0  0  0  0
 20 19  1  0  0  0  0
 20 12  1  0  0  0  0
 21 22  1  0  0  0  0
 21 23  1  0  0  0  0
 25 26  1  0  0  0  0
 26 27  1  0  0  0  0
 27 24  1  0  0  0  0
 27 28  2  0  0  0  0
 28 33  1  0  0  0  0
 29 28  1  0  0  0  0
 29 34  1  0  0  0  0
 30 29  2  0  0  0  0
 31 30  1  0  0  0  0
 32 26  2  0  0  0  0
 32 30  1  0  0  0  0
 35 36  1  0  0  0  0
 36 37  1  0  0  0  0
 37 38  2  0  0  0  0
 37 32  1  0  0  0  0
 38 42  1  0  0  0  0
 39 43  1  0  0  0  0
 39 38  1  0  0  0  0
 40 39  2  0  0  0  0
 41 40  1  0  0  0  0
 41 36  2  0  0  0  0
 44 40  1  0  0  0  0
 45 41  1  0  0  0  0
M  END
>  <minimizedAffinity>
-6.66229534

$$$$
