
 OpenBabel03252507053D

 47 50  0  0  1  0  0  0  0  0999 V2000
   39.7940   31.0580   40.3710 C   0  0  0  0  0  0  0  0  0  0  0  0
   40.9020   31.0740   40.4470 H   0  0  0  0  0  0  0  0  0  0  0  0
   39.5720   30.0010   39.9910 H   0  0  0  0  0  0  0  0  0  0  0  0
   39.3050   32.0230   39.5880 N   0  0  0  0  0  0  0  0  0  0  0  0
   38.4730   31.8710   38.4400 C   0  0  0  0  0  0  0  0  0  0  0  0
   37.1510   32.3340   39.0460 C   0  0  0  0  0  0  0  0  0  0  0  0
   37.1700   33.6940   39.5550 C   0  0  0  0  0  0  0  0  0  0  0  0
   38.4390   34.2730   39.9390 C   0  0  0  0  0  0  0  0  0  0  0  0
   39.6700   33.4070   39.9990 C   0  0  0  0  0  0  0  0  0  0  0  0
   38.3340   30.7850   38.2260 H   0  0  0  0  0  0  0  0  0  0  0  0
   38.7280   32.3820   37.5280 H   0  0  0  0  0  0  0  0  0  0  0  0
   36.8900   31.5370   39.7990 H   0  0  0  0  0  0  0  0  0  0  0  0
   36.3930   32.1910   38.2370 H   0  0  0  0  0  0  0  0  0  0  0  0
   36.7190   34.3750   38.7760 H   0  0  0  0  0  0  0  0  0  0  0  0
   36.4730   33.7900   40.4210 H   0  0  0  0  0  0  0  0  0  0  0  0
   38.5710   35.2710   40.2040 H   0  0  0  0  0  0  0  0  0  0  0  0
   41.2270   33.9440   40.4930 S   0  0  0  0  0  0  0  0  0  0  0  0
   43.6390   35.3540   39.2160 H   0  0  0  0  0  0  0  0  0  0  0  0
   43.7530   34.4030   39.5930 N   0  0  0  0  0  0  0  0  0  0  0  0
   42.5610   33.6030   39.3780 C   0  0  2  0  0  3  0  0  0  0  0  0
   42.1910   33.6800   37.9260 C   0  0  0  0  0  3  0  0  0  0  0  0
   41.2140   34.1790   37.8130 H   0  0  0  0  0  0  0  0  0  0  0  0
   43.2160   34.3080   37.1280 N   0  0  0  0  0  0  0  0  0  0  0  0
   43.2570   35.3420   37.2120 H   0  0  0  0  0  0  0  0  0  0  0  0
   44.5230   33.7200   37.3720 C   0  0  0  0  0  2  0  0  0  0  0  0
   44.8420   33.7710   38.8520 C   0  0  0  0  0  2  0  0  0  0  0  0
   39.2380   31.0640   41.7510 C   0  0  0  0  0  0  0  0  0  0  0  0
   38.6160   31.9830   41.9580 H   0  0  0  0  0  0  0  0  0  0  0  0
   40.0350   31.0610   42.5210 H   0  0  0  0  0  0  0  0  0  0  0  0
   38.4280   29.8470   41.9240 C   0  0  0  0  0  0  0  0  0  0  0  0
   38.2760   29.2820   43.1690 C   0  0  0  0  0  0  0  0  0  0  0  0
   37.5090   28.1290   43.2830 C   0  0  0  0  0  0  0  0  0  0  0  0
   36.9410   27.6170   42.1500 N   0  0  0  0  0  0  0  0  0  0  0  0
   37.1100   28.1950   40.9620 C   0  0  0  0  0  0  0  0  0  0  0  0
   37.8520   29.2970   40.8830 N   0  0  0  0  0  0  0  0  0  0  0  0
   38.6190   29.5370   44.1580 H   0  0  0  0  0  0  0  0  0  0  0  0
   37.2840   27.5500   44.1760 H   0  0  0  0  0  0  0  0  0  0  0  0
   36.4350   27.5940   39.8150 C   0  0  0  0  0  0  0  0  0  0  0  0
   35.6120   28.3720   39.0030 C   0  0  0  0  0  0  0  0  0  0  0  0
   34.9610   27.7970   37.9290 C   0  0  0  0  0  0  0  0  0  0  0  0
   35.2070   26.4540   37.7680 C   0  0  0  0  0  0  0  0  0  0  0  0
   36.0180   25.6310   38.5480 C   0  0  0  0  0  0  0  0  0  0  0  0
   36.6180   26.2750   39.5810 N   0  0  0  0  0  0  0  0  0  0  0  0
   35.4730   29.4230   39.1990 H   0  0  0  0  0  0  0  0  0  0  0  0
   34.3130   28.3140   37.2550 H   0  0  0  0  0  0  0  0  0  0  0  0
   34.7060   25.9630   36.9250 H   0  0  0  0  0  0  0  0  0  0  0  0
   36.1410   24.5990   38.3380 H   0  0  0  0  0  0  0  0  0  0  0  0
  1  2  1  0  0  0  0
  1 27  1  0  0  0  0
  3  1  1  0  0  0  0
  4  9  1  0  0  0  0
  4  1  1  0  0  0  0
  5  6  1  0  0  0  0
  5  4  1  0  0  0  0
  6  7  1  0  0  0  0
  6 12  1  0  0  0  0
  7  8  1  0  0  0  0
  7 15  1  0  0  0  0
  8  9  2  0  0  0  0
  8 16  1  0  0  0  0
  9 17  1  0  0  0  0
 10  5  1  0  0  0  0
 11  5  1  0  0  0  0
 13  6  1  0  0  0  0
 14  7  1  0  0  0  0
 18 19  1  0  0  0  0
 20 19  1  0  0  0  0
 20 17  1  1  0  0  0
 21 20  1  0  0  0  0
 22 21  1  0  0  0  0
 23 24  1  0  0  0  0
 23 25  1  0  0  0  0
 23 21  1  0  0  0  0
 25 26  1  0  0  0  0
 26 19  1  0  0  0  0
 27 30  1  0  0  0  0
 27 28  1  0  0  0  0
 27 29  1  0  0  0  0
 30 31  1  0  0  0  0
 31 32  2  0  0  0  0
 31 36  1  0  0  0  0
 32 37  1  0  0  0  0
 33 32  1  0  0  0  0
 34 33  2  0  0  0  0
 35 34  1  0  0  0  0
 35 30  2  0  0  0  0
 38 34  1  0  0  0  0
 39 44  1  0  0  0  0
 39 38  2  0  0  0  0
 40 39  1  0  0  0  0
 41 40  2  0  0  0  0
 41 42  1  0  0  0  0
 42 43  2  0  0  0  0
 43 38  1  0  0  0  0
 45 40  1  0  0  0  0
 46 41  1  0  0  0  0
 47 42  1  0  0  0  0
M  END
>  <minimizedAffinity>
-6.10212755

$$$$

 OpenBabel03252507053D

 47 50  0  0  1  0  0  0  0  0999 V2000
   38.3200   32.7320   40.0890 C   0  0  0  0  0  0  0  0  0  0  0  0
   38.0470   32.0610   39.2470 H   0  0  0  0  0  0  0  0  0  0  0  0
   37.3030   33.0420   40.5160 H   0  0  0  0  0  0  0  0  0  0  0  0
   39.0820   33.7630   39.7140 N   0  0  0  0  0  0  0  0  0  0  0  0
   38.8270   35.1510   39.9230 C   0  0  0  0  0  0  0  0  0  0  0  0
   39.8360   35.4090   41.0390 C   0  0  0  0  0  0  0  0  0  0  0  0
   41.2150   35.1350   40.6730 C   0  0  0  0  0  0  0  0  0  0  0  0
   41.4750   34.2020   39.5990 C   0  0  0  0  0  0  0  0  0  0  0  0
   40.3460   33.3880   39.0240 C   0  0  0  0  0  0  0  0  0  0  0  0
   37.8250   35.2750   40.3980 H   0  0  0  0  0  0  0  0  0  0  0  0
   38.9160   35.8370   39.0980 H   0  0  0  0  0  0  0  0  0  0  0  0
   39.4410   34.8250   41.9180 H   0  0  0  0  0  0  0  0  0  0  0  0
   39.6760   36.4750   41.3360 H   0  0  0  0  0  0  0  0  0  0  0  0
   41.7120   36.1090   40.3930 H   0  0  0  0  0  0  0  0  0  0  0  0
   41.7900   34.7980   41.5680 H   0  0  0  0  0  0  0  0  0  0  0  0
   42.4170   34.0280   39.1900 H   0  0  0  0  0  0  0  0  0  0  0  0
   40.5180   32.2040   37.7890 S   0  0  0  0  0  0  0  0  0  0  0  0
   42.8570   32.6430   35.8470 H   0  0  0  0  0  0  0  0  0  0  0  0
   43.0470   32.5720   36.8570 N   0  0  0  0  0  0  0  0  0  0  0  0
   42.1620   31.6140   37.4940 C   0  0  2  0  0  3  0  0  0  0  0  0
   42.2320   30.3220   36.7340 C   0  0  0  0  0  3  0  0  0  0  0  0
   41.2510   30.1010   36.2800 H   0  0  0  0  0  0  0  0  0  0  0  0
   43.2950   30.3120   35.7590 N   0  0  0  0  0  0  0  0  0  0  0  0
   43.0970   30.8540   34.8960 H   0  0  0  0  0  0  0  0  0  0  0  0
   44.5630   30.7200   36.3430 C   0  0  0  0  0  2  0  0  0  0  0  0
   44.4110   32.0730   37.0070 C   0  0  0  0  0  2  0  0  0  0  0  0
   38.9200   31.9000   41.1660 C   0  0  0  0  0  0  0  0  0  0  0  0
   38.9650   32.4460   42.1530 H   0  0  0  0  0  0  0  0  0  0  0  0
   39.9640   31.6100   40.9350 H   0  0  0  0  0  0  0  0  0  0  0  0
   38.1200   30.6710   41.2950 C   0  0  0  0  0  0  0  0  0  0  0  0
   36.7970   30.6570   40.9180 C   0  0  0  0  0  0  0  0  0  0  0  0
   36.0800   29.4760   41.0650 C   0  0  0  0  0  0  0  0  0  0  0  0
   36.7280   28.3870   41.5750 N   0  0  0  0  0  0  0  0  0  0  0  0
   38.0110   28.4390   41.9260 C   0  0  0  0  0  0  0  0  0  0  0  0
   38.6730   29.5840   41.7760 N   0  0  0  0  0  0  0  0  0  0  0  0
   36.1290   31.3870   40.4920 H   0  0  0  0  0  0  0  0  0  0  0  0
   35.0370   29.2830   40.8250 H   0  0  0  0  0  0  0  0  0  0  0  0
   38.6260   27.2130   42.4270 C   0  0  0  0  0  0  0  0  0  0  0  0
   39.6020   27.2760   43.4190 C   0  0  0  0  0  0  0  0  0  0  0  0
   40.1930   26.1150   43.8800 C   0  0  0  0  0  0  0  0  0  0  0  0
   39.7320   24.9660   43.2820 C   0  0  0  0  0  0  0  0  0  0  0  0
   38.7610   24.8470   42.2900 C   0  0  0  0  0  0  0  0  0  0  0  0
   38.2330   26.0340   41.8950 N   0  0  0  0  0  0  0  0  0  0  0  0
   39.9070   28.2220   43.8370 H   0  0  0  0  0  0  0  0  0  0  0  0
   40.9480   26.0680   44.6350 H   0  0  0  0  0  0  0  0  0  0  0  0
   40.1790   24.0250   43.6230 H   0  0  0  0  0  0  0  0  0  0  0  0
   38.4750   23.9070   41.8920 H   0  0  0  0  0  0  0  0  0  0  0  0
  1  3  1  0  0  0  0
  1 27  1  0  0  0  0
  2  1  1  0  0  0  0
  4  5  1  0  0  0  0
  4  1  1  0  0  0  0
  5 10  1  0  0  0  0
  5  6  1  0  0  0  0
  6 13  1  0  0  0  0
  6 12  1  0  0  0  0
  7  6  1  0  0  0  0
  7 15  1  0  0  0  0
  8  7  1  0  0  0  0
  9  8  2  0  0  0  0
  9  4  1  0  0  0  0
 11  5  1  0  0  0  0
 14  7  1  0  0  0  0
 16  8  1  0  0  0  0
 17  9  1  0  0  0  0
 18 19  1  0  0  0  0
 19 26  1  0  0  0  0
 19 20  1  0  0  0  0
 20 17  1  6  0  0  0
 21 20  1  0  0  0  0
 22 21  1  0  0  0  0
 23 25  1  0  0  0  0
 23 21  1  0  0  0  0
 24 23  1  0  0  0  0
 25 26  1  0  0  0  0
 27 30  1  0  0  0  0
 27 28  1  0  0  0  0
 29 27  1  0  0  0  0
 30 35  1  0  0  0  0
 31 32  1  0  0  0  0
 31 30  2  0  0  0  0
 32 33  2  0  0  0  0
 33 34  1  0  0  0  0
 34 38  1  0  0  0  0
 35 34  2  0  0  0  0
 36 31  1  0  0  0  0
 37 32  1  0  0  0  0
 38 39  1  0  0  0  0
 39 44  1  0  0  0  0
 39 40  2  0  0  0  0
 40 45  1  0  0  0  0
 41 46  1  0  0  0  0
 41 40  1  0  0  0  0
 42 41  2  0  0  0  0
 43 42  1  0  0  0  0
 43 38  2  0  0  0  0
 47 42  1  0  0  0  0
M  END
>  <minimizedAffinity>
-5.96972895

$$$$

 OpenBabel03252507053D

 47 50  0  0  1  0  0  0  0  0999 V2000
   38.3910   32.0010   40.8560 C   0  0  0  0  0  0  0  0  0  0  0  0
   38.6410   32.2160   41.9170 H   0  0  0  0  0  0  0  0  0  0  0  0
   38.9480   31.0220   40.6490 H   0  0  0  0  0  0  0  0  0  0  0  0
   38.7240   32.9940   40.0260 N   0  0  0  0  0  0  0  0  0  0  0  0
   38.0840   34.2620   39.8900 C   0  0  0  0  0  0  0  0  0  0  0  0
   39.1260   35.1260   40.5960 C   0  0  0  0  0  0  0  0  0  0  0  0
   40.4450   35.0880   39.9880 C   0  0  0  0  0  0  0  0  0  0  0  0
   40.8100   33.9370   39.1930 C   0  0  0  0  0  0  0  0  0  0  0  0
   39.9150   32.7250   39.1750 C   0  0  0  0  0  0  0  0  0  0  0  0
   37.1830   34.2930   40.5470 H   0  0  0  0  0  0  0  0  0  0  0  0
   37.8220   34.6210   38.9110 H   0  0  0  0  0  0  0  0  0  0  0  0
   39.0780   34.8020   41.6750 H   0  0  0  0  0  0  0  0  0  0  0  0
   38.6900   36.1550   40.6100 H   0  0  0  0  0  0  0  0  0  0  0  0
   40.5610   35.9960   39.3280 H   0  0  0  0  0  0  0  0  0  0  0  0
   41.2310   35.2310   40.7680 H   0  0  0  0  0  0  0  0  0  0  0  0
   41.6810   33.8690   38.6260 H   0  0  0  0  0  0  0  0  0  0  0  0
   40.2500   31.2690   38.3250 S   0  0  0  0  0  0  0  0  0  0  0  0
   39.3680   29.5960   35.9030 H   0  0  0  0  0  0  0  0  0  0  0  0
   39.1530   29.2600   36.8530 N   0  0  0  0  0  0  0  0  0  0  0  0
   38.8420   30.3620   37.7450 C   0  0  2  0  0  3  0  0  0  0  0  0
   37.7790   31.2060   37.1060 C   0  0  0  0  0  3  0  0  0  0  0  0
   38.1780   32.2110   36.8900 H   0  0  0  0  0  0  0  0  0  0  0  0
   37.2110   30.5840   35.9340 N   0  0  0  0  0  0  0  0  0  0  0  0
   37.8090   30.6290   35.0870 H   0  0  0  0  0  0  0  0  0  0  0  0
   36.7950   29.2170   36.2000 C   0  0  0  0  0  2  0  0  0  0  0  0
   37.9590   28.4250   36.7570 C   0  0  0  0  0  2  0  0  0  0  0  0
   36.9560   31.6160   40.7900 C   0  0  0  0  0  0  0  0  0  0  0  0
   36.4320   32.0700   39.8990 H   0  0  0  0  0  0  0  0  0  0  0  0
   36.3910   31.9600   41.6780 H   0  0  0  0  0  0  0  0  0  0  0  0
   36.8780   30.1480   40.7370 C   0  0  0  0  0  0  0  0  0  0  0  0
   35.9410   29.5270   39.9430 C   0  0  0  0  0  0  0  0  0  0  0  0
   35.9000   28.1370   39.9320 C   0  0  0  0  0  0  0  0  0  0  0  0
   36.7960   27.4590   40.7080 N   0  0  0  0  0  0  0  0  0  0  0  0
   37.6910   28.0960   41.4620 C   0  0  0  0  0  0  0  0  0  0  0  0
   37.7050   29.4270   41.4550 N   0  0  0  0  0  0  0  0  0  0  0  0
   35.1810   29.8750   39.2650 H   0  0  0  0  0  0  0  0  0  0  0  0
   35.2340   27.4850   39.3730 H   0  0  0  0  0  0  0  0  0  0  0  0
   38.6300   27.2840   42.2300 C   0  0  0  0  0  0  0  0  0  0  0  0
   38.5130   25.8950   42.2300 C   0  0  0  0  0  0  0  0  0  0  0  0
   39.3930   25.1300   42.9710 C   0  0  0  0  0  0  0  0  0  0  0  0
   40.3360   25.8540   43.6610 C   0  0  0  0  0  0  0  0  0  0  0  0
   40.4960   27.2380   43.6950 C   0  0  0  0  0  0  0  0  0  0  0  0
   39.5910   27.9140   42.9410 N   0  0  0  0  0  0  0  0  0  0  0  0
   37.7420   25.4030   41.6590 H   0  0  0  0  0  0  0  0  0  0  0  0
   39.3790   24.0630   43.0310 H   0  0  0  0  0  0  0  0  0  0  0  0
   41.0520   25.2800   44.2600 H   0  0  0  0  0  0  0  0  0  0  0  0
   41.2620   27.7030   44.2630 H   0  0  0  0  0  0  0  0  0  0  0  0
  1  2  1  0  0  0  0
  3  1  1  0  0  0  0
  4  1  1  0  0  0  0
  5  4  1  0  0  0  0
  5 10  1  0  0  0  0
  5  6  1  0  0  0  0
  6 13  1  0  0  0  0
  6 12  1  0  0  0  0
  7  6  1  0  0  0  0
  7 15  1  0  0  0  0
  8  7  1  0  0  0  0
  9  8  2  0  0  0  0
  9  4  1  0  0  0  0
 11  5  1  0  0  0  0
 14  7  1  0  0  0  0
 16  8  1  0  0  0  0
 17  9  1  0  0  0  0
 18 19  1  0  0  0  0
 19 20  1  0  0  0  0
 20 17  1  6  0  0  0
 21 20  1  0  0  0  0
 22 21  1  0  0  0  0
 23 25  1  0  0  0  0
 23 21  1  0  0  0  0
 24 23  1  0  0  0  0
 25 26  1  0  0  0  0
 26 19  1  0  0  0  0
 27  1  1  0  0  0  0
 27 29  1  0  0  0  0
 28 27  1  0  0  0  0
 30 27  1  0  0  0  0
 30 35  1  0  0  0  0
 31 30  2  0  0  0  0
 32 31  1  0  0  0  0
 32 33  2  0  0  0  0
 33 34  1  0  0  0  0
 34 38  1  0  0  0  0
 35 34  2  0  0  0  0
 36 31  1  0  0  0  0
 37 32  1  0  0  0  0
 38 43  1  0  0  0  0
 39 38  2  0  0  0  0
 39 40  1  0  0  0  0
 40 45  1  0  0  0  0
 40 41  2  0  0  0  0
 41 42  1  0  0  0  0
 41 46  1  0  0  0  0
 42 47  1  0  0  0  0
 43 42  2  0  0  0  0
 44 39  1  0  0  0  0
M  END
>  <minimizedAffinity>
-5.96935415

$$$$

 OpenBabel03252507053D

 47 50  0  0  1  0  0  0  0  0999 V2000
   39.8450   29.9540   40.8290 C   0  0  0  0  0  0  0  0  0  0  0  0
   40.8150   30.4840   40.7130 H   0  0  0  0  0  0  0  0  0  0  0  0
   40.1100   28.8680   40.5800 H   0  0  0  0  0  0  0  0  0  0  0  0
   38.8740   30.4590   40.0630 N   0  0  0  0  0  0  0  0  0  0  0  0
   38.1780   29.8070   39.0020 C   0  0  0  0  0  0  0  0  0  0  0  0
   36.8500   29.5560   39.7140 C   0  0  0  0  0  0  0  0  0  0  0  0
   36.1820   30.7620   40.1730 C   0  0  0  0  0  0  0  0  0  0  0  0
   36.9770   31.9450   40.4180 C   0  0  0  0  0  0  0  0  0  0  0  0
   38.4800   31.8570   40.3920 C   0  0  0  0  0  0  0  0  0  0  0  0
   38.6190   28.7950   38.8390 H   0  0  0  0  0  0  0  0  0  0  0  0
   38.0690   30.3030   38.0540 H   0  0  0  0  0  0  0  0  0  0  0  0
   37.0960   28.8010   40.5140 H   0  0  0  0  0  0  0  0  0  0  0  0
   36.2330   28.9770   38.9840 H   0  0  0  0  0  0  0  0  0  0  0  0
   35.3930   31.0440   39.4180 H   0  0  0  0  0  0  0  0  0  0  0  0
   35.5940   30.5460   41.0970 H   0  0  0  0  0  0  0  0  0  0  0  0
   36.5800   32.8830   40.6370 H   0  0  0  0  0  0  0  0  0  0  0  0
   39.5480   33.1630   40.7210 S   0  0  0  0  0  0  0  0  0  0  0  0
   42.1920   32.4630   39.3220 H   0  0  0  0  0  0  0  0  0  0  0  0
   41.3620   32.6770   38.7520 N   0  0  0  0  0  0  0  0  0  0  0  0
   40.5510   33.7120   39.3670 C   0  0  2  0  0  3  0  0  0  0  0  0
   41.4340   34.8830   39.6840 C   0  0  0  0  0  3  0  0  0  0  0  0
   41.4810   35.0340   40.7760 H   0  0  0  0  0  0  0  0  0  0  0  0
   42.7460   34.7590   39.0970 N   0  0  0  0  0  0  0  0  0  0  0  0
   43.3800   34.1000   39.5890 H   0  0  0  0  0  0  0  0  0  0  0  0
   42.6740   34.4440   37.6800 C   0  0  0  0  0  2  0  0  0  0  0  0
   41.8370   33.1980   37.4730 C   0  0  0  0  0  2  0  0  0  0  0  0
   39.5100   29.9170   42.2770 C   0  0  0  0  0  0  0  0  0  0  0  0
   39.0030   30.8640   42.6240 H   0  0  0  0  0  0  0  0  0  0  0  0
   40.4130   29.8110   42.9110 H   0  0  0  0  0  0  0  0  0  0  0  0
   38.6430   28.7520   42.5170 C   0  0  0  0  0  0  0  0  0  0  0  0
   37.6170   28.8230   43.4310 C   0  0  0  0  0  0  0  0  0  0  0  0
   36.8290   27.6950   43.6290 C   0  0  0  0  0  0  0  0  0  0  0  0
   37.1120   26.5740   42.9020 N   0  0  0  0  0  0  0  0  0  0  0  0
   38.1140   26.5450   42.0240 C   0  0  0  0  0  0  0  0  0  0  0  0
   38.8530   27.6390   41.8570 N   0  0  0  0  0  0  0  0  0  0  0  0
   37.2330   29.5980   44.0720 H   0  0  0  0  0  0  0  0  0  0  0  0
   35.9850   27.5690   44.3040 H   0  0  0  0  0  0  0  0  0  0  0  0
   38.3160   25.3120   41.2690 C   0  0  0  0  0  0  0  0  0  0  0  0
   37.4810   24.2180   41.4840 C   0  0  0  0  0  0  0  0  0  0  0  0
   37.6850   23.0460   40.7790 C   0  0  0  0  0  0  0  0  0  0  0  0
   38.7400   23.0880   39.8990 C   0  0  0  0  0  0  0  0  0  0  0  0
   39.6030   24.1530   39.6470 C   0  0  0  0  0  0  0  0  0  0  0  0
   39.3330   25.2640   40.3800 N   0  0  0  0  0  0  0  0  0  0  0  0
   36.6720   24.2680   42.1950 H   0  0  0  0  0  0  0  0  0  0  0  0
   37.0970   22.1600   40.8790 H   0  0  0  0  0  0  0  0  0  0  0  0
   38.9320   22.1760   39.3220 H   0  0  0  0  0  0  0  0  0  0  0  0
   40.3930   24.0830   38.9420 H   0  0  0  0  0  0  0  0  0  0  0  0
  1 27  1  0  0  0  0
  2  1  1  0  0  0  0
  3  1  1  0  0  0  0
  4  9  1  0  0  0  0
  4  1  1  0  0  0  0
  5  6  1  0  0  0  0
  5  4  1  0  0  0  0
  6  7  1  0  0  0  0
  6 12  1  0  0  0  0
  7  8  1  0  0  0  0
  7 15  1  0  0  0  0
  8 16  1  0  0  0  0
  9  8  2  0  0  0  0
  9 17  1  0  0  0  0
 10  5  1  0  0  0  0
 11  5  1  0  0  0  0
 13  6  1  0  0  0  0
 14  7  1  0  0  0  0
 19 18  1  0  0  0  0
 19 20  1  0  0  0  0
 20 21  1  0  0  0  0
 20 17  1  1  0  0  0
 21 22  1  0  0  0  0
 23 24  1  0  0  0  0
 23 21  1  0  0  0  0
 25 23  1  0  0  0  0
 26 25  1  0  0  0  0
 26 19  1  0  0  0  0
 27 30  1  0  0  0  0
 27 28  1  0  0  0  0
 27 29  1  0  0  0  0
 30 31  1  0  0  0  0
 31 32  2  0  0  0  0
 31 36  1  0  0  0  0
 32 37  1  0  0  0  0
 33 32  1  0  0  0  0
 34 33  2  0  0  0  0
 35 34  1  0  0  0  0
 35 30  2  0  0  0  0
 38 39  1  0  0  0  0
 38 34  1  0  0  0  0
 39 44  1  0  0  0  0
 40 45  1  0  0  0  0
 40 39  2  0  0  0  0
 41 40  1  0  0  0  0
 42 41  2  0  0  0  0
 42 43  1  0  0  0  0
 43 38  2  0  0  0  0
 46 41  1  0  0  0  0
 47 42  1  0  0  0  0
M  END
>  <minimizedAffinity>
-5.92121124

$$$$

 OpenBabel03252507053D

 47 50  0  0  1  0  0  0  0  0999 V2000
   39.7480   30.6760   41.1310 C   0  0  0  0  0  0  0  0  0  0  0  0
   40.4740   30.6510   40.2910 H   0  0  0  0  0  0  0  0  0  0  0  0
   40.3300   31.2020   41.9650 H   0  0  0  0  0  0  0  0  0  0  0  0
   39.2970   29.4660   41.4720 N   0  0  0  0  0  0  0  0  0  0  0  0
   39.3790   28.8380   42.7510 C   0  0  0  0  0  0  0  0  0  0  0  0
   37.9230   28.9920   43.1820 C   0  0  0  0  0  0  0  0  0  0  0  0
   36.9660   28.3510   42.2960 C   0  0  0  0  0  0  0  0  0  0  0  0
   37.3420   28.1210   40.9180 C   0  0  0  0  0  0  0  0  0  0  0  0
   38.6140   28.7210   40.3790 C   0  0  0  0  0  0  0  0  0  0  0  0
   39.9610   29.4890   43.4450 H   0  0  0  0  0  0  0  0  0  0  0  0
   39.7420   27.8280   42.8230 H   0  0  0  0  0  0  0  0  0  0  0  0
   37.7860   30.1020   43.3230 H   0  0  0  0  0  0  0  0  0  0  0  0
   37.8810   28.5860   44.2220 H   0  0  0  0  0  0  0  0  0  0  0  0
   36.6870   27.3500   42.7340 H   0  0  0  0  0  0  0  0  0  0  0  0
   36.0020   28.9140   42.3000 H   0  0  0  0  0  0  0  0  0  0  0  0
   36.7750   27.5700   40.2410 H   0  0  0  0  0  0  0  0  0  0  0  0
   39.1550   28.5800   38.7530 S   0  0  0  0  0  0  0  0  0  0  0  0
   38.9910   29.1600   35.7410 H   0  0  0  0  0  0  0  0  0  0  0  0
   38.3380   28.4820   36.1600 N   0  0  0  0  0  0  0  0  0  0  0  0
   37.9440   28.8850   37.4970 C   0  0  2  0  0  3  0  0  0  0  0  0
   37.4510   30.3020   37.4410 C   0  0  0  0  0  3  0  0  0  0  0  0
   38.1160   30.9540   38.0310 H   0  0  0  0  0  0  0  0  0  0  0  0
   37.2880   30.7760   36.0880 N   0  0  0  0  0  0  0  0  0  0  0  0
   38.1730   31.0250   35.6060 H   0  0  0  0  0  0  0  0  0  0  0  0
   36.5070   29.8500   35.2840 C   0  0  0  0  0  2  0  0  0  0  0  0
   37.1340   28.4720   35.3330 C   0  0  0  0  0  2  0  0  0  0  0  0
   38.6730   31.6420   40.7820 C   0  0  0  0  0  0  0  0  0  0  0  0
   37.8590   31.6780   41.5630 H   0  0  0  0  0  0  0  0  0  0  0  0
   38.1670   31.3780   39.8330 H   0  0  0  0  0  0  0  0  0  0  0  0
   39.2860   32.9700   40.6200 C   0  0  0  0  0  0  0  0  0  0  0  0
   38.5080   34.0690   40.3350 C   0  0  0  0  0  0  0  0  0  0  0  0
   39.1320   35.3010   40.1830 C   0  0  0  0  0  0  0  0  0  0  0  0
   40.4890   35.3590   40.3270 N   0  0  0  0  0  0  0  0  0  0  0  0
   41.2090   34.2730   40.6040 C   0  0  0  0  0  0  0  0  0  0  0  0
   40.5840   33.1050   40.7420 N   0  0  0  0  0  0  0  0  0  0  0  0
   37.4500   34.2270   40.2050 H   0  0  0  0  0  0  0  0  0  0  0  0
   38.6810   36.2650   39.9580 H   0  0  0  0  0  0  0  0  0  0  0  0
   42.6490   34.4410   40.7740 C   0  0  0  0  0  0  0  0  0  0  0  0
   43.5270   33.9660   39.8020 C   0  0  0  0  0  0  0  0  0  0  0  0
   44.8910   34.1120   39.9740 C   0  0  0  0  0  0  0  0  0  0  0  0
   45.2530   34.7430   41.1400 C   0  0  0  0  0  0  0  0  0  0  0  0
   44.4180   35.2360   42.1420 C   0  0  0  0  0  0  0  0  0  0  0  0
   43.0960   35.0510   41.8940 N   0  0  0  0  0  0  0  0  0  0  0  0
   43.1600   33.4810   38.9120 H   0  0  0  0  0  0  0  0  0  0  0  0
   45.6350   33.7790   39.2830 H   0  0  0  0  0  0  0  0  0  0  0  0
   46.3280   34.8770   41.3100 H   0  0  0  0  0  0  0  0  0  0  0  0
   44.8010   35.7100   43.0100 H   0  0  0  0  0  0  0  0  0  0  0  0
  1  4  1  0  0  0  0
  1  3  1  0  0  0  0
  2  1  1  0  0  0  0
  4  5  1  0  0  0  0
  5 11  1  0  0  0  0
  5  6  1  0  0  0  0
  5 10  1  0  0  0  0
  6 12  1  0  0  0  0
  6 13  1  0  0  0  0
  7 15  1  0  0  0  0
  7 14  1  0  0  0  0
  7  6  1  0  0  0  0
  8  7  1  0  0  0  0
  9  8  2  0  0  0  0
  9  4  1  0  0  0  0
 16  8  1  0  0  0  0
 17  9  1  0  0  0  0
 18 19  1  0  0  0  0
 19 20  1  0  0  0  0
 20 17  1  1  0  0  0
 21 20  1  0  0  0  0
 21 22  1  0  0  0  0
 23 21  1  0  0  0  0
 24 23  1  0  0  0  0
 25 26  1  0  0  0  0
 25 23  1  0  0  0  0
 26 19  1  0  0  0  0
 27  1  1  0  0  0  0
 27 28  1  0  0  0  0
 29 27  1  0  0  0  0
 30 35  1  0  0  0  0
 30 27  1  0  0  0  0
 31 30  2  0  0  0  0
 32 33  2  0  0  0  0
 32 31  1  0  0  0  0
 33 34  1  0  0  0  0
 34 35  2  0  0  0  0
 34 38  1  0  0  0  0
 36 31  1  0  0  0  0
 37 32  1  0  0  0  0
 38 43  1  0  0  0  0
 39 40  1  0  0  0  0
 39 38  2  0  0  0  0
 40 41  2  0  0  0  0
 41 46  1  0  0  0  0
 41 42  1  0  0  0  0
 42 47  1  0  0  0  0
 43 42  2  0  0  0  0
 44 39  1  0  0  0  0
 45 40  1  0  0  0  0
M  END
>  <minimizedAffinity>
-5.87246037

$$$$

 OpenBabel03252507053D

 47 50  0  0  1  0  0  0  0  0999 V2000
   38.1410   27.4470   38.8870 C   0  0  0  0  0  0  0  0  0  0  0  0
   39.0390   27.5330   39.5350 H   0  0  0  0  0  0  0  0  0  0  0  0
   38.1560   26.3490   38.5620 H   0  0  0  0  0  0  0  0  0  0  0  0
   38.1450   28.3090   37.8660 N   0  0  0  0  0  0  0  0  0  0  0  0
   38.0770   28.0050   36.4740 C   0  0  0  0  0  0  0  0  0  0  0  0
   36.6310   28.4210   36.2140 C   0  0  0  0  0  0  0  0  0  0  0  0
   36.3500   29.8160   36.5040 C   0  0  0  0  0  0  0  0  0  0  0  0
   37.1950   30.5130   37.4490 C   0  0  0  0  0  0  0  0  0  0  0  0
   38.2050   29.7440   38.2590 C   0  0  0  0  0  0  0  0  0  0  0  0
   38.0940   26.8980   36.3370 H   0  0  0  0  0  0  0  0  0  0  0  0
   38.7810   28.4560   35.7970 H   0  0  0  0  0  0  0  0  0  0  0  0
   36.0140   27.6710   36.7870 H   0  0  0  0  0  0  0  0  0  0  0  0
   36.4400   28.1590   35.1450 H   0  0  0  0  0  0  0  0  0  0  0  0
   36.3870   30.3970   35.5370 H   0  0  0  0  0  0  0  0  0  0  0  0
   35.2910   29.9330   36.8380 H   0  0  0  0  0  0  0  0  0  0  0  0
   37.1450   31.5360   37.6350 H   0  0  0  0  0  0  0  0  0  0  0  0
   39.2320   30.4280   39.4560 S   0  0  0  0  0  0  0  0  0  0  0  0
   40.7390   32.6870   40.8930 H   0  0  0  0  0  0  0  0  0  0  0  0
   40.5370   32.7760   39.8870 N   0  0  0  0  0  0  0  0  0  0  0  0
   39.2490   32.1970   39.5530 C   0  0  2  0  0  3  0  0  0  0  0  0
   38.2130   32.7790   40.4690 C   0  0  0  0  0  3  0  0  0  0  0  0
   37.7900   31.9860   41.1090 H   0  0  0  0  0  0  0  0  0  0  0  0
   38.7210   33.8860   41.2430 N   0  0  0  0  0  0  0  0  0  0  0  0
   39.3290   33.6160   42.0390 H   0  0  0  0  0  0  0  0  0  0  0  0
   39.3810   34.8710   40.4020 C   0  0  0  0  0  2  0  0  0  0  0  0
   40.4670   34.2030   39.5840 C   0  0  0  0  0  2  0  0  0  0  0  0
   36.9360   27.5470   39.7530 C   0  0  0  0  0  0  0  0  0  0  0  0
   36.1900   26.7260   39.5450 H   0  0  0  0  0  0  0  0  0  0  0  0
   36.3880   28.4970   39.5970 H   0  0  0  0  0  0  0  0  0  0  0  0
   37.3760   27.4980   41.1570 C   0  0  0  0  0  0  0  0  0  0  0  0
   36.5240   27.8780   42.1690 C   0  0  0  0  0  0  0  0  0  0  0  0
   36.9860   27.8220   43.4780 C   0  0  0  0  0  0  0  0  0  0  0  0
   38.2630   27.3880   43.6940 N   0  0  0  0  0  0  0  0  0  0  0  0
   39.0570   27.0250   42.6880 C   0  0  0  0  0  0  0  0  0  0  0  0
   38.5890   27.0920   41.4440 N   0  0  0  0  0  0  0  0  0  0  0  0
   35.5050   28.2240   42.2030 H   0  0  0  0  0  0  0  0  0  0  0  0
   36.4590   28.0830   44.3930 H   0  0  0  0  0  0  0  0  0  0  0  0
   40.3930   26.5410   43.0220 C   0  0  0  0  0  0  0  0  0  0  0  0
   41.0130   26.9570   44.1980 C   0  0  0  0  0  0  0  0  0  0  0  0
   42.2840   26.5100   44.5030 C   0  0  0  0  0  0  0  0  0  0  0  0
   42.8280   25.6610   43.5690 C   0  0  0  0  0  0  0  0  0  0  0  0
   42.2540   25.2140   42.3800 C   0  0  0  0  0  0  0  0  0  0  0  0
   41.0060   25.7010   42.1580 N   0  0  0  0  0  0  0  0  0  0  0  0
   40.5150   27.6280   44.8800 H   0  0  0  0  0  0  0  0  0  0  0  0
   42.8350   26.7760   45.3800 H   0  0  0  0  0  0  0  0  0  0  0  0
   43.8370   25.2860   43.7780 H   0  0  0  0  0  0  0  0  0  0  0  0
   42.7610   24.5550   41.7230 H   0  0  0  0  0  0  0  0  0  0  0  0
  1  2  1  0  0  0  0
  1 27  1  0  0  0  0
  3  1  1  0  0  0  0
  4  9  1  0  0  0  0
  4  1  1  0  0  0  0
  5  4  1  0  0  0  0
  6  5  1  0  0  0  0
  6  7  1  0  0  0  0
  6 12  1  0  0  0  0
  7 15  1  0  0  0  0
  7  8  1  0  0  0  0
  8 16  1  0  0  0  0
  8  9  2  0  0  0  0
  9 17  1  0  0  0  0
 10  5  1  0  0  0  0
 11  5  1  0  0  0  0
 13  6  1  0  0  0  0
 14  7  1  0  0  0  0
 19 18  1  0  0  0  0
 20 17  1  1  0  0  0
 20 19  1  0  0  0  0
 20 21  1  0  0  0  0
 21 22  1  0  0  0  0
 21 23  1  0  0  0  0
 23 24  1  0  0  0  0
 25 23  1  0  0  0  0
 26 19  1  0  0  0  0
 26 25  1  0  0  0  0
 27 30  1  0  0  0  0
 28 27  1  0  0  0  0
 29 27  1  0  0  0  0
 30 35  2  0  0  0  0
 30 31  1  0  0  0  0
 31 36  1  0  0  0  0
 31 32  2  0  0  0  0
 32 33  1  0  0  0  0
 32 37  1  0  0  0  0
 34 38  1  0  0  0  0
 34 33  2  0  0  0  0
 35 34  1  0  0  0  0
 38 39  1  0  0  0  0
 39 40  2  0  0  0  0
 39 44  1  0  0  0  0
 40 45  1  0  0  0  0
 41 46  1  0  0  0  0
 41 40  1  0  0  0  0
 42 41  2  0  0  0  0
 43 42  1  0  0  0  0
 43 38  2  0  0  0  0
 47 42  1  0  0  0  0
M  END
>  <minimizedAffinity>
-5.80205822

$$$$

 OpenBabel03252507053D

 47 50  0  0  1  0  0  0  0  0999 V2000
   36.2760   28.7130   40.9590 C   0  0  0  0  0  0  0  0  0  0  0  0
   35.4430   28.1320   41.4080 H   0  0  0  0  0  0  0  0  0  0  0  0
   36.3380   28.3010   39.8930 H   0  0  0  0  0  0  0  0  0  0  0  0
   37.4200   28.6070   41.6420 N   0  0  0  0  0  0  0  0  0  0  0  0
   37.7340   29.1940   42.9040 C   0  0  0  0  0  0  0  0  0  0  0  0
   37.6390   27.9430   43.7740 C   0  0  0  0  0  0  0  0  0  0  0  0
   38.5570   26.8830   43.3980 C   0  0  0  0  0  0  0  0  0  0  0  0
   39.0490   26.8400   42.0380 C   0  0  0  0  0  0  0  0  0  0  0  0
   38.4560   27.7540   40.9980 C   0  0  0  0  0  0  0  0  0  0  0  0
   36.8880   29.8440   43.2300 H   0  0  0  0  0  0  0  0  0  0  0  0
   38.6590   29.7300   43.0240 H   0  0  0  0  0  0  0  0  0  0  0  0
   36.5460   27.6690   43.7570 H   0  0  0  0  0  0  0  0  0  0  0  0
   37.8050   28.3020   44.8190 H   0  0  0  0  0  0  0  0  0  0  0  0
   39.4590   26.9330   44.0740 H   0  0  0  0  0  0  0  0  0  0  0  0
   38.1100   25.8870   43.6330 H   0  0  0  0  0  0  0  0  0  0  0  0
   39.7930   26.1930   41.7050 H   0  0  0  0  0  0  0  0  0  0  0  0
   38.9000   27.7730   39.3380 S   0  0  0  0  0  0  0  0  0  0  0  0
   39.8200   30.7040   39.2820 H   0  0  0  0  0  0  0  0  0  0  0  0
   40.4550   29.9830   39.6530 N   0  0  0  0  0  0  0  0  0  0  0  0
   40.3270   28.7370   38.9210 C   0  0  2  0  0  3  0  0  0  0  0  0
   40.4720   29.0290   37.4560 C   0  0  0  0  0  3  0  0  0  0  0  0
   39.5300   28.8000   36.9320 H   0  0  0  0  0  0  0  0  0  0  0  0
   40.9190   30.3770   37.2040 N   0  0  0  0  0  0  0  0  0  0  0  0
   40.1860   31.1040   37.3150 H   0  0  0  0  0  0  0  0  0  0  0  0
   42.0960   30.7090   37.9900 C   0  0  0  0  0  2  0  0  0  0  0  0
   41.8190   30.4660   39.4590 C   0  0  0  0  0  2  0  0  0  0  0  0
   35.8140   30.1150   40.7740 C   0  0  0  0  0  0  0  0  0  0  0  0
   35.8790   30.7170   41.7270 H   0  0  0  0  0  0  0  0  0  0  0  0
   34.7540   30.1650   40.4580 H   0  0  0  0  0  0  0  0  0  0  0  0
   36.6360   30.7320   39.7200 C   0  0  0  0  0  0  0  0  0  0  0  0
   36.5390   30.3010   38.4170 C   0  0  0  0  0  0  0  0  0  0  0  0
   37.3400   30.9090   37.4580 C   0  0  0  0  0  0  0  0  0  0  0  0
   38.1830   31.9070   37.8590 N   0  0  0  0  0  0  0  0  0  0  0  0
   38.2470   32.2980   39.1310 C   0  0  0  0  0  0  0  0  0  0  0  0
   37.4690   31.6960   40.0280 N   0  0  0  0  0  0  0  0  0  0  0  0
   35.9400   29.5620   37.9130 H   0  0  0  0  0  0  0  0  0  0  0  0
   37.3980   30.6990   36.3920 H   0  0  0  0  0  0  0  0  0  0  0  0
   39.1530   33.3960   39.4550 C   0  0  0  0  0  0  0  0  0  0  0  0
   38.7280   34.4270   40.2910 C   0  0  0  0  0  0  0  0  0  0  0  0
   39.5810   35.4740   40.5830 C   0  0  0  0  0  0  0  0  0  0  0  0
   40.8180   35.3820   39.9900 C   0  0  0  0  0  0  0  0  0  0  0  0
   41.2920   34.3760   39.1490 C   0  0  0  0  0  0  0  0  0  0  0  0
   40.3910   33.3880   38.9140 N   0  0  0  0  0  0  0  0  0  0  0  0
   37.7370   34.4230   40.7180 H   0  0  0  0  0  0  0  0  0  0  0  0
   39.3420   36.3040   41.2120 H   0  0  0  0  0  0  0  0  0  0  0  0
   41.5220   36.1960   40.1990 H   0  0  0  0  0  0  0  0  0  0  0  0
   42.2700   34.4000   38.7400 H   0  0  0  0  0  0  0  0  0  0  0  0
  1  2  1  0  0  0  0
  1  4  1  0  0  0  0
  3  1  1  0  0  0  0
  4  5  1  0  0  0  0
  5 11  1  0  0  0  0
  5 10  1  0  0  0  0
  5  6  1  0  0  0  0
  6 13  1  0  0  0  0
  7 15  1  0  0  0  0
  7  6  1  0  0  0  0
  7 14  1  0  0  0  0
  8  7  1  0  0  0  0
  9  4  1  0  0  0  0
  9  8  2  0  0  0  0
 12  6  1  0  0  0  0
 16  8  1  0  0  0  0
 17  9  1  0  0  0  0
 18 19  1  0  0  0  0
 20 17  1  6  0  0  0
 20 19  1  0  0  0  0
 21 20  1  0  0  0  0
 22 21  1  0  0  0  0
 23 24  1  0  0  0  0
 23 21  1  0  0  0  0
 23 25  1  0  0  0  0
 25 26  1  0  0  0  0
 26 19  1  0  0  0  0
 27  1  1  0  0  0  0
 27 28  1  0  0  0  0
 29 27  1  0  0  0  0
 30 35  1  0  0  0  0
 30 27  1  0  0  0  0
 31 30  2  0  0  0  0
 32 33  2  0  0  0  0
 32 31  1  0  0  0  0
 33 34  1  0  0  0  0
 34 38  1  0  0  0  0
 34 35  2  0  0  0  0
 36 31  1  0  0  0  0
 37 32  1  0  0  0  0
 38 39  1  0  0  0  0
 39 40  2  0  0  0  0
 39 44  1  0  0  0  0
 40 45  1  0  0  0  0
 41 46  1  0  0  0  0
 41 40  1  0  0  0  0
 42 41  2  0  0  0  0
 43 42  1  0  0  0  0
 43 38  2  0  0  0  0
 47 42  1  0  0  0  0
M  END
>  <minimizedAffinity>
-5.79907417

$$$$

 OpenBabel03252507053D

 47 50  0  0  1  0  0  0  0  0999 V2000
   39.2720   27.8100   40.7650 C   0  0  0  0  0  0  0  0  0  0  0  0
   39.9160   27.1340   41.3650 H   0  0  0  0  0  0  0  0  0  0  0  0
   39.9910   28.6410   40.4430 H   0  0  0  0  0  0  0  0  0  0  0  0
   38.2060   28.2550   41.4370 N   0  0  0  0  0  0  0  0  0  0  0  0
   36.8560   27.8130   41.3140 C   0  0  0  0  0  0  0  0  0  0  0  0
   36.7540   27.0060   42.6050 C   0  0  0  0  0  0  0  0  0  0  0  0
   36.9890   27.7790   43.8130 C   0  0  0  0  0  0  0  0  0  0  0  0
   37.7750   28.9890   43.7200 C   0  0  0  0  0  0  0  0  0  0  0  0
   38.4980   29.3170   42.4400 C   0  0  0  0  0  0  0  0  0  0  0  0
   36.7870   27.0630   40.4910 H   0  0  0  0  0  0  0  0  0  0  0  0
   36.0690   28.5380   41.1980 H   0  0  0  0  0  0  0  0  0  0  0  0
   37.4450   26.1300   42.4460 H   0  0  0  0  0  0  0  0  0  0  0  0
   35.7350   26.5470   42.5820 H   0  0  0  0  0  0  0  0  0  0  0  0
   35.9910   28.0660   44.2540 H   0  0  0  0  0  0  0  0  0  0  0  0
   37.4450   27.1310   44.5990 H   0  0  0  0  0  0  0  0  0  0  0  0
   37.9010   29.6660   44.5010 H   0  0  0  0  0  0  0  0  0  0  0  0
   39.5120   30.6850   42.2060 S   0  0  0  0  0  0  0  0  0  0  0  0
   38.1370   33.4310   42.1240 H   0  0  0  0  0  0  0  0  0  0  0  0
   38.9430   33.2530   41.5080 N   0  0  0  0  0  0  0  0  0  0  0  0
   38.9480   31.8830   41.0280 C   0  0  2  0  0  3  0  0  0  0  0  0
   37.6050   31.5820   40.4320 C   0  0  0  0  0  3  0  0  0  0  0  0
   37.1000   30.7980   41.0190 H   0  0  0  0  0  0  0  0  0  0  0  0
   36.7880   32.7630   40.2890 N   0  0  0  0  0  0  0  0  0  0  0  0
   36.3620   33.1040   41.1720 H   0  0  0  0  0  0  0  0  0  0  0  0
   37.5040   33.8340   39.6160 C   0  0  0  0  0  2  0  0  0  0  0  0
   38.8000   34.1230   40.3440 C   0  0  0  0  0  2  0  0  0  0  0  0
   38.9330   27.1180   39.4930 C   0  0  0  0  0  0  0  0  0  0  0  0
   37.8870   27.3540   39.1420 H   0  0  0  0  0  0  0  0  0  0  0  0
   38.9750   26.0150   39.5960 H   0  0  0  0  0  0  0  0  0  0  0  0
   39.9190   27.5200   38.4770 C   0  0  0  0  0  0  0  0  0  0  0  0
   40.4170   26.5990   37.5840 C   0  0  0  0  0  0  0  0  0  0  0  0
   41.3510   27.0230   36.6470 C   0  0  0  0  0  0  0  0  0  0  0  0
   41.7260   28.3370   36.6590 N   0  0  0  0  0  0  0  0  0  0  0  0
   41.2200   29.2000   37.5390 C   0  0  0  0  0  0  0  0  0  0  0  0
   40.3280   28.7650   38.4260 N   0  0  0  0  0  0  0  0  0  0  0  0
   40.2390   25.5510   37.4070 H   0  0  0  0  0  0  0  0  0  0  0  0
   41.8480   26.4410   35.8740 H   0  0  0  0  0  0  0  0  0  0  0  0
   41.6560   30.5910   37.4490 C   0  0  0  0  0  0  0  0  0  0  0  0
   42.9760   30.8880   37.1190 C   0  0  0  0  0  0  0  0  0  0  0  0
   43.3900   32.2050   37.0520 C   0  0  0  0  0  0  0  0  0  0  0  0
   42.4070   33.1250   37.3300 C   0  0  0  0  0  0  0  0  0  0  0  0
   41.0760   32.8820   37.6640 C   0  0  0  0  0  0  0  0  0  0  0  0
   40.7540   31.5630   37.7080 N   0  0  0  0  0  0  0  0  0  0  0  0
   43.6870   30.1040   36.9140 H   0  0  0  0  0  0  0  0  0  0  0  0
   44.3790   32.5260   36.8070 H   0  0  0  0  0  0  0  0  0  0  0  0
   42.6990   34.1810   37.2860 H   0  0  0  0  0  0  0  0  0  0  0  0
   40.3930   33.6680   37.8620 H   0  0  0  0  0  0  0  0  0  0  0  0
  1  2  1  0  0  0  0
  1  4  1  0  0  0  0
  3  1  1  0  0  0  0
  4  9  1  0  0  0  0
  5  4  1  0  0  0  0
  5  6  1  0  0  0  0
  6  7  1  0  0  0  0
  7 14  1  0  0  0  0
  7 15  1  0  0  0  0
  8  7  1  0  0  0  0
  8 16  1  0  0  0  0
  9  8  2  0  0  0  0
 10  5  1  0  0  0  0
 11  5  1  0  0  0  0
 12  6  1  0  0  0  0
 13  6  1  0  0  0  0
 17  9  1  0  0  0  0
 19 18  1  0  0  0  0
 20 19  1  0  0  0  0
 20 17  1  1  0  0  0
 21 22  1  0  0  0  0
 21 20  1  0  0  0  0
 23 21  1  0  0  0  0
 23 24  1  0  0  0  0
 25 23  1  0  0  0  0
 25 26  1  0  0  0  0
 26 19  1  0  0  0  0
 27 29  1  0  0  0  0
 27  1  1  0  0  0  0
 28 27  1  0  0  0  0
 30 27  1  0  0  0  0
 31 30  2  0  0  0  0
 32 33  2  0  0  0  0
 32 31  1  0  0  0  0
 33 34  1  0  0  0  0
 34 35  2  0  0  0  0
 35 30  1  0  0  0  0
 36 31  1  0  0  0  0
 37 32  1  0  0  0  0
 38 34  1  0  0  0  0
 38 43  1  0  0  0  0
 39 38  2  0  0  0  0
 40 39  1  0  0  0  0
 40 41  2  0  0  0  0
 41 42  1  0  0  0  0
 42 43  2  0  0  0  0
 42 47  1  0  0  0  0
 44 39  1  0  0  0  0
 45 40  1  0  0  0  0
 46 41  1  0  0  0  0
M  END
>  <minimizedAffinity>
-5.73364449

$$$$

 OpenBabel03252507053D

 47 50  0  0  1  0  0  0  0  0999 V2000
   36.8210   27.4730   42.4980 C   0  0  0  0  0  0  0  0  0  0  0  0
   35.8750   27.1850   43.0040 H   0  0  0  0  0  0  0  0  0  0  0  0
   36.5370   28.4310   41.9380 H   0  0  0  0  0  0  0  0  0  0  0  0
   37.3090   26.5140   41.7070 N   0  0  0  0  0  0  0  0  0  0  0  0
   38.0730   25.3740   42.0960 C   0  0  0  0  0  0  0  0  0  0  0  0
   36.9940   24.3050   41.9450 C   0  0  0  0  0  0  0  0  0  0  0  0
   36.4490   24.1910   40.6030 C   0  0  0  0  0  0  0  0  0  0  0  0
   36.5300   25.3360   39.7220 C   0  0  0  0  0  0  0  0  0  0  0  0
   36.9820   26.6670   40.2630 C   0  0  0  0  0  0  0  0  0  0  0  0
   38.2840   25.4260   43.1910 H   0  0  0  0  0  0  0  0  0  0  0  0
   38.9830   25.1400   41.5710 H   0  0  0  0  0  0  0  0  0  0  0  0
   36.2460   24.5420   42.7550 H   0  0  0  0  0  0  0  0  0  0  0  0
   37.4710   23.3570   42.2960 H   0  0  0  0  0  0  0  0  0  0  0  0
   36.9630   23.3340   40.0800 H   0  0  0  0  0  0  0  0  0  0  0  0
   35.3820   23.8670   40.6480 H   0  0  0  0  0  0  0  0  0  0  0  0
   36.2750   25.3160   38.7130 H   0  0  0  0  0  0  0  0  0  0  0  0
   37.0700   28.1200   39.3490 S   0  0  0  0  0  0  0  0  0  0  0  0
   39.8730   29.3280   39.6990 H   0  0  0  0  0  0  0  0  0  0  0  0
   39.7720   28.4200   39.2250 N   0  0  0  0  0  0  0  0  0  0  0  0
   38.5610   28.3730   38.4260 C   0  0  2  0  0  3  0  0  0  0  0  0
   38.5380   29.5740   37.5260 C   0  0  0  0  0  3  0  0  0  0  0  0
   37.6870   30.2240   37.7890 H   0  0  0  0  0  0  0  0  0  0  0  0
   39.7900   30.2920   37.5320 N   0  0  0  0  0  0  0  0  0  0  0  0
   39.9490   30.8780   38.3730 H   0  0  0  0  0  0  0  0  0  0  0  0
   40.9180   29.4050   37.3000 C   0  0  0  0  0  2  0  0  0  0  0  0
   40.9030   28.2790   38.3130 C   0  0  0  0  0  2  0  0  0  0  0  0
   37.7770   27.9390   43.5380 C   0  0  0  0  0  0  0  0  0  0  0  0
   38.3200   27.0830   44.0350 H   0  0  0  0  0  0  0  0  0  0  0  0
   37.2680   28.4870   44.3560 H   0  0  0  0  0  0  0  0  0  0  0  0
   38.7360   28.8550   42.9010 C   0  0  0  0  0  0  0  0  0  0  0  0
   40.0870   28.5960   42.9490 C   0  0  0  0  0  0  0  0  0  0  0  0
   40.9550   29.4930   42.3400 C   0  0  0  0  0  0  0  0  0  0  0  0
   40.4220   30.5880   41.7210 N   0  0  0  0  0  0  0  0  0  0  0  0
   39.1080   30.8040   41.6940 C   0  0  0  0  0  0  0  0  0  0  0  0
   38.3000   29.9280   42.2880 N   0  0  0  0  0  0  0  0  0  0  0  0
   40.6850   27.8010   43.3620 H   0  0  0  0  0  0  0  0  0  0  0  0
   42.0400   29.4510   42.2800 H   0  0  0  0  0  0  0  0  0  0  0  0
   38.6310   31.9830   40.9770 C   0  0  0  0  0  0  0  0  0  0  0  0
   37.4960   31.9000   40.1730 C   0  0  0  0  0  0  0  0  0  0  0  0
   37.0570   33.0140   39.4830 C   0  0  0  0  0  0  0  0  0  0  0  0
   37.8230   34.1390   39.6730 C   0  0  0  0  0  0  0  0  0  0  0  0
   38.9630   34.2760   40.4630 C   0  0  0  0  0  0  0  0  0  0  0  0
   39.3250   33.1360   41.1050 N   0  0  0  0  0  0  0  0  0  0  0  0
   36.9500   30.9750   40.0790 H   0  0  0  0  0  0  0  0  0  0  0  0
   36.2000   33.0420   38.8460 H   0  0  0  0  0  0  0  0  0  0  0  0
   37.5040   35.0430   39.1400 H   0  0  0  0  0  0  0  0  0  0  0  0
   39.4860   35.1960   40.5420 H   0  0  0  0  0  0  0  0  0  0  0  0
  1  2  1  0  0  0  0
  1 27  1  0  0  0  0
  3  1  1  0  0  0  0
  4  5  1  0  0  0  0
  4  1  1  0  0  0  0
  5 10  1  0  0  0  0
  6  5  1  0  0  0  0
  6 13  1  0  0  0  0
  6 12  1  0  0  0  0
  7 15  1  0  0  0  0
  7  6  1  0  0  0  0
  8  9  2  0  0  0  0
  8  7  1  0  0  0  0
  9  4  1  0  0  0  0
 11  5  1  0  0  0  0
 14  7  1  0  0  0  0
 16  8  1  0  0  0  0
 17  9  1  0  0  0  0
 19 18  1  0  0  0  0
 20 19  1  0  0  0  0
 20 17  1  1  0  0  0
 21 23  1  0  0  0  0
 21 22  1  0  0  0  0
 21 20  1  0  0  0  0
 23 24  1  0  0  0  0
 25 23  1  0  0  0  0
 25 26  1  0  0  0  0
 26 19  1  0  0  0  0
 27 28  1  0  0  0  0
 27 29  1  0  0  0  0
 30 31  1  0  0  0  0
 30 27  1  0  0  0  0
 31 36  1  0  0  0  0
 32 31  2  0  0  0  0
 33 32  1  0  0  0  0
 34 33  2  0  0  0  0
 34 35  1  0  0  0  0
 35 30  2  0  0  0  0
 37 32  1  0  0  0  0
 38 43  1  0  0  0  0
 38 34  1  0  0  0  0
 39 38  2  0  0  0  0
 40 41  2  0  0  0  0
 40 39  1  0  0  0  0
 41 42  1  0  0  0  0
 42 47  1  0  0  0  0
 42 43  2  0  0  0  0
 44 39  1  0  0  0  0
 45 40  1  0  0  0  0
 46 41  1  0  0  0  0
M  END
>  <minimizedAffinity>
-5.72120094

$$$$
