
 OpenBabel03252509133D

 45 49  0  0  1  0  0  0  0  0999 V2000
   46.9670   34.2480   40.7800 S   0  0  0  0  0  0  0  0  0  0  0  0
   48.8160   31.1460   38.8830 C   0  0  0  0  0  0  0  0  0  0  0  0
   47.8910   32.1120   39.2700 C   0  0  0  0  0  0  0  0  0  0  0  0
   48.1480   33.0220   40.2950 C   0  0  0  0  0  0  0  0  0  0  0  0
   49.3750   32.9670   40.9630 C   0  0  0  0  0  0  0  0  0  0  0  0
   49.9530   33.6580   41.9650 N   0  0  0  0  0  0  0  0  0  0  0  0
   51.1820   33.1640   42.2130 C   0  0  0  0  0  0  0  0  0  0  0  0
   51.3460   32.1560   41.3390 N   0  0  0  0  0  0  0  0  0  0  0  0
   50.2650   32.0110   40.5650 C   0  0  0  0  0  0  0  0  0  0  0  0
   50.0430   31.0910   39.5520 C   0  0  0  0  0  0  0  0  0  0  0  0
   48.6050   30.4450   38.0860 H   0  0  0  0  0  0  0  0  0  0  0  0
   49.4610   34.4360   42.4240 H   0  0  0  0  0  0  0  0  0  0  0  0
   51.8060   33.5780   42.9760 H   0  0  0  0  0  0  0  0  0  0  0  0
   50.8070   30.3580   39.2950 H   0  0  0  0  0  0  0  0  0  0  0  0
   44.3740   31.5360   38.4370 C   0  0  0  0  0  0  0  0  0  0  0  0
   44.1950   32.3270   37.2940 C   0  0  0  0  0  0  0  0  0  0  0  0
   45.2950   33.0530   36.8210 C   0  0  0  0  0  0  0  0  0  0  0  0
   46.4920   32.9650   37.4870 N   0  0  0  0  0  0  0  0  0  0  0  0
   46.6120   32.1850   38.5890 C   0  0  0  0  0  0  0  0  0  0  0  0
   45.5720   31.4550   39.0930 N   0  0  0  0  0  0  0  0  0  0  0  0
   43.5730   30.9570   38.8470 H   0  0  0  0  0  0  0  0  0  0  0  0
   43.2350   32.3650   36.8040 H   0  0  0  0  0  0  0  0  0  0  0  0
   45.1760   33.6620   35.9500 H   0  0  0  0  0  0  0  0  0  0  0  0
   47.1290   33.2870   43.2230 N   0  0  0  0  0  0  0  0  0  0  0  0
   46.1260   33.8740   42.3430 C   0  0  1  0  0  0  0  0  0  0  0  0
   45.6230   35.2090   42.8760 C   0  0  0  0  0  0  0  0  0  0  0  0
   45.3790   35.1950   44.2350 O   0  0  0  0  0  0  0  0  0  0  0  0
   45.4330   33.9730   44.8420 C   0  0  0  0  0  0  0  0  0  0  0  0
   46.7930   33.3690   44.6010 C   0  0  1  0  0  0  0  0  0  0  0  0
   48.0480   33.7300   42.9860 H   0  0  0  0  0  0  0  0  0  0  0  0
   45.2890   33.1900   42.1380 H   0  0  0  0  0  0  0  0  0  0  0  0
   44.6530   35.4110   42.4300 H   0  0  0  0  0  0  0  0  0  0  0  0
   46.3700   35.9980   42.6550 H   0  0  0  0  0  0  0  0  0  0  0  0
   45.2760   34.1090   45.9100 H   0  0  0  0  0  0  0  0  0  0  0  0
   44.6720   33.3090   44.3650 H   0  0  0  0  0  0  0  0  0  0  0  0
   47.5150   34.1100   45.0560 H   0  0  0  0  0  0  0  0  0  0  0  0
   47.0190   32.1480   45.3570 N   0  0  1  0  0  0  0  0  0  0  0  0
   45.6990   31.5070   45.4330 C   0  0  0  0  0  3  0  0  0  0  0  0
   44.8920   32.2480   45.5510 H   0  0  0  0  0  0  0  0  0  0  0  0
   45.4490   30.6120   44.2530 C   0  0  0  0  0  3  0  0  0  0  0  0
   45.5720   31.0950   43.2740 H   0  0  0  0  0  0  0  0  0  0  0  0
   46.3290   29.4680   44.4010 N   0  0  0  0  0  0  0  0  0  0  0  0
   46.2750   28.9120   43.5230 H   0  0  0  0  0  0  0  0  0  0  0  0
   47.6660   29.8360   44.7920 C   0  0  0  0  0  2  0  0  0  0  0  0
   47.8880   31.3170   44.5640 C   0  0  0  0  0  2  0  0  0  0  0  0
  1 25  1  0  0  0  0
  2  3  2  0  0  0  0
  2 10  1  0  0  0  0
  3  4  1  0  0  0  0
  4  1  1  0  0  0  0
  4  5  2  0  0  0  0
  5  6  1  0  0  0  0
  6  7  1  0  0  0  0
  6 12  1  0  0  0  0
  7 13  1  0  0  0  0
  8  7  2  0  0  0  0
  9  5  1  0  0  0  0
  9  8  1  0  0  0  0
 10  9  2  0  0  0  0
 11  2  1  0  0  0  0
 14 10  1  0  0  0  0
 15 21  1  0  0  0  0
 15 20  1  0  0  0  0
 16 15  2  0  0  0  0
 17 16  1  0  0  0  0
 17 18  2  0  0  0  0
 18 19  1  0  0  0  0
 19 20  2  0  0  0  0
 19  3  1  0  0  0  0
 22 16  1  0  0  0  0
 23 17  1  0  0  0  0
 24 29  1  0  0  0  0
 25 31  1  6  0  0  0
 25 26  1  0  0  0  0
 25 24  1  0  0  0  0
 26 27  1  0  0  0  0
 27 28  1  0  0  0  0
 28 34  1  0  0  0  0
 29 28  1  0  0  0  0
 29 36  1  1  0  0  0
 29 37  1  0  0  0  0
 30 24  1  0  0  0  0
 32 26  1  0  0  0  0
 33 26  1  0  0  0  0
 35 28  1  0  0  0  0
 37 45  1  6  0  0  0
 37 38  1  0  0  0  0
 38 39  1  0  0  0  0
 40 42  1  0  0  0  0
 40 38  1  0  0  0  0
 41 40  1  0  0  0  0
 42 44  1  0  0  0  0
 43 42  1  0  0  0  0
 45 44  1  0  0  0  0
M  END
>  <minimizedAffinity>
-4.46984243

>  <minimizedRMSD>
6.15286732

$$$$
