
 OpenBabel03242512063D

 27 29  0  0  1  0  0  0  0  0999 V2000
   47.0720   35.0420   42.1880 C   0  0  1  0  0  0  0  0  0  0  0  0
   45.9810   34.5700   41.1650 C   0  0  0  0  0  0  0  0  0  0  0  0
   46.3270   33.8340   42.4020 C   0  0  2  0  0  0  0  0  0  0  0  0
   46.7680   36.0700   42.5590 H   0  0  0  0  0  0  0  0  0  0  0  0
   46.3480   34.1860   40.1960 H   0  0  0  0  0  0  0  0  0  0  0  0
   45.1430   35.2430   41.0810 H   0  0  0  0  0  0  0  0  0  0  0  0
   46.9010   32.8740   42.2290 H   0  0  0  0  0  0  0  0  0  0  0  0
   45.4450   33.7210   43.5150 N   0  0  2  0  0  0  0  0  0  0  0  0
   45.1860   34.9610   44.1570 C   0  0  0  0  0  0  0  0  0  0  0  0
   44.3640   35.4980   43.6150 H   0  0  0  0  0  0  0  0  0  0  0  0
   44.7850   34.8980   45.5980 C   0  0  0  0  0  0  0  0  0  0  0  0
   44.8930   35.9230   46.0130 H   0  0  0  0  0  0  0  0  0  0  0  0
   45.6080   34.0320   46.3950 N   0  0  0  0  0  0  0  0  0  0  0  0
   46.1760   34.5090   47.0980 H   0  0  0  0  0  0  0  0  0  0  0  0
   46.3610   33.0790   45.6210 C   0  0  0  0  0  0  0  0  0  0  0  0
   45.6230   32.6240   44.3880 C   0  0  0  0  0  0  0  0  0  0  0  0
   48.4430   35.0150   41.6050 C   0  0  0  0  0  0  0  0  0  0  0  0
   48.9060   36.0790   41.1910 O   0  0  0  0  0  0  0  0  0  0  0  0
   49.0860   32.9220   40.5080 C   0  0  0  0  0  0  0  0  0  0  0  0
   49.2430   33.8310   41.5130 C   0  0  0  0  0  0  0  0  0  0  0  0
   50.2440   33.5830   42.4720 C   0  0  0  0  0  0  0  0  0  0  0  0
   51.0080   32.4770   42.3790 N   0  0  0  0  0  0  0  0  0  0  0  0
   50.8220   31.5820   41.3520 C   0  0  0  0  0  0  0  0  0  0  0  0
   49.8790   31.8200   40.4530 N   0  0  0  0  0  0  0  0  0  0  0  0
   48.3090   33.1430   39.7910 H   0  0  0  0  0  0  0  0  0  0  0  0
   50.4370   34.2490   43.3000 H   0  0  0  0  0  0  0  0  0  0  0  0
   51.3800   30.6810   41.1990 H   0  0  0  0  0  0  0  0  0  0  0  0
  1  3  1  0  0  0  0
  1  4  1  1  0  0  0
  2  1  1  0  0  0  0
  2  3  1  0  0  0  0
  3  7  1  6  0  0  0
  3  8  1  0  0  0  0
  5  2  1  0  0  0  0
  6  2  1  0  0  0  0
  8  9  1  0  0  0  0
  8 16  1  1  0  0  0
  9 11  1  0  0  0  0
 10  9  1  0  0  0  0
 11 12  1  0  0  0  0
 11 13  1  0  0  0  0
 13 14  1  0  0  0  0
 15 13  1  0  0  0  0
 16 15  1  0  0  0  0
 17  1  1  0  0  0  0
 18 17  2  0  0  0  0
 19 20  1  0  0  0  0
 20 17  1  0  0  0  0
 20 21  2  0  0  0  0
 21 26  1  0  0  0  0
 22 21  1  0  0  0  0
 23 22  2  0  0  0  0
 24 19  2  0  0  0  0
 24 23  1  0  0  0  0
 25 19  1  0  0  0  0
 27 23  1  0  0  0  0
M  END
>  <minimizedAffinity>
-4.68001556

>  <minimizedRMSD>
5.68451071

$$$$
