
 OpenBabel03242520433D

 39 42  0  0  1  0  0  0  0  0999 V2000
   42.3830   29.8580   38.6760 C   0  0  0  0  0  0  0  0  0  0  0  0
   42.1310   28.9910   37.5870 C   0  0  0  0  0  0  0  0  0  0  0  0
   40.8030   28.9420   37.0940 C   0  0  0  0  0  0  0  0  0  0  0  0
   39.8340   29.7170   37.6810 N   0  0  0  0  0  0  0  0  0  0  0  0
   40.1480   30.5270   38.7260 C   0  0  0  0  0  0  0  0  0  0  0  0
   41.4110   30.5840   39.2040 N   0  0  0  0  0  0  0  0  0  0  0  0
   39.0980   31.2730   39.2710 N   0  0  0  0  0  0  0  0  0  0  0  0
   37.9420   30.6380   39.8070 C   0  0  2  0  0  0  0  0  0  0  0  0
   36.7980   31.5470   40.0930 C   0  0  0  0  0  0  0  0  0  0  0  0
   37.1240   32.8790   40.4410 N   0  0  0  0  0  0  0  0  0  0  0  0
   38.5010   33.1500   40.5560 C   0  0  0  0  0  0  0  0  0  0  0  0
   39.1810   32.7250   39.2870 C   0  0  0  0  0  0  0  0  0  0  0  0
   43.4000   29.8630   39.0230 H   0  0  0  0  0  0  0  0  0  0  0  0
   42.8550   28.3730   37.1160 H   0  0  0  0  0  0  0  0  0  0  0  0
   40.5490   28.3030   36.2740 H   0  0  0  0  0  0  0  0  0  0  0  0
   37.5580   29.9680   38.9720 H   0  0  0  0  0  0  0  0  0  0  0  0
   36.1780   31.1170   40.9120 H   0  0  0  0  0  0  0  0  0  0  0  0
   36.0940   31.6140   39.2210 H   0  0  0  0  0  0  0  0  0  0  0  0
   36.4920   33.3470   41.1160 H   0  0  0  0  0  0  0  0  0  0  0  0
   38.9450   32.7480   41.4700 H   0  0  0  0  0  0  0  0  0  0  0  0
   38.6100   34.2710   40.6610 H   0  0  0  0  0  0  0  0  0  0  0  0
   40.2490   33.0300   39.3980 H   0  0  0  0  0  0  0  0  0  0  0  0
   38.6910   33.1930   38.4380 H   0  0  0  0  0  0  0  0  0  0  0  0
   38.2730   29.7430   40.9380 C   0  0  0  0  0  0  0  0  0  0  0  0
   38.6190   30.0010   42.2480 C   0  0  0  0  0  0  0  0  0  0  0  0
   38.8410   28.8640   42.9410 N   0  0  0  0  0  0  0  0  0  0  0  0
   38.6300   27.8820   42.0530 C   0  0  0  0  0  0  0  0  0  0  0  0
   38.2930   28.4000   40.8630 N   0  0  0  0  0  0  0  0  0  0  0  0
   38.7120   30.9830   42.6870 H   0  0  0  0  0  0  0  0  0  0  0  0
   39.1100   28.7270   43.9210 H   0  0  0  0  0  0  0  0  0  0  0  0
   38.7260   26.4610   42.2030 N   0  0  0  0  0  0  0  0  0  0  0  0
   37.6000   25.5680   42.1600 C   0  0  0  0  0  3  0  0  0  0  0  0
   37.0450   25.6140   43.1230 H   0  0  0  0  0  0  0  0  0  0  0  0
   38.0980   24.1790   41.8700 C   0  0  0  0  0  3  0  0  0  0  0  0
   38.4230   24.1320   40.8080 H   0  0  0  0  0  0  0  0  0  0  0  0
   39.1020   23.6930   42.7590 N   0  0  0  0  0  0  0  0  0  0  0  0
   39.8080   23.1310   42.2360 H   0  0  0  0  0  0  0  0  0  0  0  0
   39.7820   24.7570   43.4440 C   0  0  0  0  0  2  0  0  0  0  0  0
   40.0350   25.8430   42.4050 C   0  0  0  0  0  2  0  0  0  0  0  0
  1 13  1  0  0  0  0
  1  6  1  0  0  0  0
  2  1  2  0  0  0  0
  3  2  1  0  0  0  0
  3  4  2  0  0  0  0
  4  5  1  0  0  0  0
  5  6  2  0  0  0  0
  5  7  1  0  0  0  0
  7 12  1  0  0  0  0
  7  8  1  0  0  0  0
  8 16  1  6  0  0  0
  8  9  1  0  0  0  0
  8 24  1  0  0  0  0
  9 10  1  0  0  0  0
  9 17  1  0  0  0  0
 10 11  1  0  0  0  0
 10 19  1  0  0  0  0
 11 21  1  0  0  0  0
 11 20  1  0  0  0  0
 12 22  1  0  0  0  0
 12 11  1  0  0  0  0
 14  2  1  0  0  0  0
 15  3  1  0  0  0  0
 18  9  1  0  0  0  0
 23 12  1  0  0  0  0
 24 25  2  0  0  0  0
 25 29  1  0  0  0  0
 25 26  1  0  0  0  0
 26 30  1  0  0  0  0
 27 31  1  0  0  0  0
 27 26  1  0  0  0  0
 28 24  1  0  0  0  0
 28 27  2  0  0  0  0
 31 39  1  0  0  0  0
 32 31  1  0  0  0  0
 32 33  1  0  0  0  0
 34 32  1  0  0  0  0
 34 36  1  0  0  0  0
 35 34  1  0  0  0  0
 36 38  1  0  0  0  0
 37 36  1  0  0  0  0
 39 38  1  0  0  0  0
M  END
>  <minimizedAffinity>
-5.97790241

$$$$

 OpenBabel03242520433D

 39 42  0  0  1  0  0  0  0  0999 V2000
   40.1730   26.3660   41.6210 C   0  0  0  0  0  0  0  0  0  0  0  0
   41.1800   26.8850   42.4680 C   0  0  0  0  0  0  0  0  0  0  0  0
   40.9840   28.1930   42.9790 C   0  0  0  0  0  0  0  0  0  0  0  0
   39.8520   28.8900   42.6380 N   0  0  0  0  0  0  0  0  0  0  0  0
   38.9260   28.3290   41.8170 C   0  0  0  0  0  0  0  0  0  0  0  0
   39.1000   27.0820   41.3240 N   0  0  0  0  0  0  0  0  0  0  0  0
   37.8090   29.1130   41.5120 N   0  0  0  0  0  0  0  0  0  0  0  0
   37.9480   30.3790   40.8750 C   0  0  2  0  0  0  0  0  0  0  0  0
   36.7200   31.2190   40.8640 C   0  0  0  0  0  0  0  0  0  0  0  0
   35.4850   30.5280   40.8480 N   0  0  0  0  0  0  0  0  0  0  0  0
   35.5830   29.1260   40.7560 C   0  0  0  0  0  0  0  0  0  0  0  0
   36.4790   28.6350   41.8550 C   0  0  0  0  0  0  0  0  0  0  0  0
   40.3610   25.3740   41.2510 H   0  0  0  0  0  0  0  0  0  0  0  0
   42.0700   26.3760   42.7450 H   0  0  0  0  0  0  0  0  0  0  0  0
   41.7120   28.6410   43.6230 H   0  0  0  0  0  0  0  0  0  0  0  0
   38.6730   30.9620   41.5300 H   0  0  0  0  0  0  0  0  0  0  0  0
   36.7450   31.9030   39.9860 H   0  0  0  0  0  0  0  0  0  0  0  0
   36.6810   31.9090   41.7490 H   0  0  0  0  0  0  0  0  0  0  0  0
   34.7090   30.9830   40.3330 H   0  0  0  0  0  0  0  0  0  0  0  0
   35.8500   28.7770   39.7560 H   0  0  0  0  0  0  0  0  0  0  0  0
   34.5440   28.7110   40.9300 H   0  0  0  0  0  0  0  0  0  0  0  0
   36.4620   27.5210   41.7860 H   0  0  0  0  0  0  0  0  0  0  0  0
   36.1220   29.0080   42.8110 H   0  0  0  0  0  0  0  0  0  0  0  0
   38.5890   30.2650   39.5460 C   0  0  0  0  0  0  0  0  0  0  0  0
   38.1410   29.7530   38.3460 C   0  0  0  0  0  0  0  0  0  0  0  0
   39.0760   29.8550   37.3770 N   0  0  0  0  0  0  0  0  0  0  0  0
   40.1220   30.4390   37.9780 C   0  0  0  0  0  0  0  0  0  0  0  0
   39.8370   30.6850   39.2660 N   0  0  0  0  0  0  0  0  0  0  0  0
   37.1690   29.3150   38.1790 H   0  0  0  0  0  0  0  0  0  0  0  0
   39.0440   29.5680   36.3930 H   0  0  0  0  0  0  0  0  0  0  0  0
   41.4080   30.7950   37.4600 N   0  0  0  0  0  0  0  0  0  0  0  0
   41.8590   32.1480   37.2770 C   0  0  0  0  0  3  0  0  0  0  0  0
   41.3920   32.5800   36.3650 H   0  0  0  0  0  0  0  0  0  0  0  0
   43.3600   32.1480   37.1880 C   0  0  0  0  0  3  0  0  0  0  0  0
   43.7770   31.9400   38.1980 H   0  0  0  0  0  0  0  0  0  0  0  0
   43.9120   31.2860   36.1940 N   0  0  0  0  0  0  0  0  0  0  0  0
   44.7890   30.8420   36.5450 H   0  0  0  0  0  0  0  0  0  0  0  0
   42.9980   30.2480   35.8060 C   0  0  0  0  0  2  0  0  0  0  0  0
   42.3530   29.7420   37.0920 C   0  0  0  0  0  2  0  0  0  0  0  0
  1  2  1  0  0  0  0
  2 14  1  0  0  0  0
  2  3  2  0  0  0  0
  3 15  1  0  0  0  0
  4  3  1  0  0  0  0
  5  4  2  0  0  0  0
  6  1  2  0  0  0  0
  6  5  1  0  0  0  0
  7  5  1  0  0  0  0
  7 12  1  0  0  0  0
  8  7  1  0  0  0  0
  8 16  1  1  0  0  0
  9  8  1  0  0  0  0
  9 18  1  0  0  0  0
 10  9  1  0  0  0  0
 11 10  1  0  0  0  0
 11 21  1  0  0  0  0
 11 12  1  0  0  0  0
 12 23  1  0  0  0  0
 13  1  1  0  0  0  0
 17  9  1  0  0  0  0
 19 10  1  0  0  0  0
 20 11  1  0  0  0  0
 22 12  1  0  0  0  0
 24  8  1  0  0  0  0
 25 24  2  0  0  0  0
 26 27  1  0  0  0  0
 26 25  1  0  0  0  0
 27 28  2  0  0  0  0
 28 24  1  0  0  0  0
 29 25  1  0  0  0  0
 30 26  1  0  0  0  0
 31 27  1  0  0  0  0
 32 31  1  0  0  0  0
 33 32  1  0  0  0  0
 34 32  1  0  0  0  0
 34 35  1  0  0  0  0
 36 37  1  0  0  0  0
 36 34  1  0  0  0  0
 38 36  1  0  0  0  0
 38 39  1  0  0  0  0
 39 31  1  0  0  0  0
M  END
>  <minimizedAffinity>
-5.95847845

$$$$

 OpenBabel03242520433D

 39 42  0  0  1  0  0  0  0  0999 V2000
   40.5370   26.3040   41.4600 C   0  0  0  0  0  0  0  0  0  0  0  0
   40.6030   25.9980   42.8390 C   0  0  0  0  0  0  0  0  0  0  0  0
   39.6210   26.5810   43.6780 C   0  0  0  0  0  0  0  0  0  0  0  0
   38.6680   27.4050   43.1340 N   0  0  0  0  0  0  0  0  0  0  0  0
   38.6650   27.6570   41.7990 C   0  0  0  0  0  0  0  0  0  0  0  0
   39.5950   27.1050   40.9870 N   0  0  0  0  0  0  0  0  0  0  0  0
   37.6660   28.5150   41.3310 N   0  0  0  0  0  0  0  0  0  0  0  0
   37.5490   29.8480   41.8190 C   0  0  2  0  0  0  0  0  0  0  0  0
   36.2890   30.5480   41.4490 C   0  0  0  0  0  0  0  0  0  0  0  0
   35.6960   30.1680   40.2210 N   0  0  0  0  0  0  0  0  0  0  0  0
   36.4270   29.2310   39.4650 C   0  0  0  0  0  0  0  0  0  0  0  0
   36.7220   28.0420   40.3310 C   0  0  0  0  0  0  0  0  0  0  0  0
   41.3000   25.8460   40.8570 H   0  0  0  0  0  0  0  0  0  0  0  0
   41.3310   25.3720   43.2920 H   0  0  0  0  0  0  0  0  0  0  0  0
   39.6220   26.3900   44.7320 H   0  0  0  0  0  0  0  0  0  0  0  0
   37.4820   29.7430   42.9500 H   0  0  0  0  0  0  0  0  0  0  0  0
   36.4690   31.6460   41.4200 H   0  0  0  0  0  0  0  0  0  0  0  0
   35.4960   30.4190   42.2330 H   0  0  0  0  0  0  0  0  0  0  0  0
   35.1990   30.9130   39.6990 H   0  0  0  0  0  0  0  0  0  0  0  0
   37.2980   29.6650   38.9690 H   0  0  0  0  0  0  0  0  0  0  0  0
   35.7570   28.8980   38.6160 H   0  0  0  0  0  0  0  0  0  0  0  0
   37.2310   27.3020   39.6680 H   0  0  0  0  0  0  0  0  0  0  0  0
   35.7970   27.6640   40.7580 H   0  0  0  0  0  0  0  0  0  0  0  0
   38.7640   30.6480   41.5480 C   0  0  0  0  0  0  0  0  0  0  0  0
   39.7260   31.1760   42.3830 C   0  0  0  0  0  0  0  0  0  0  0  0
   40.6720   31.8490   41.6940 N   0  0  0  0  0  0  0  0  0  0  0  0
   40.2970   31.7400   40.4110 C   0  0  0  0  0  0  0  0  0  0  0  0
   39.1640   31.0280   40.3210 N   0  0  0  0  0  0  0  0  0  0  0  0
   39.7400   31.0810   43.4580 H   0  0  0  0  0  0  0  0  0  0  0  0
   41.5050   32.3470   42.0250 H   0  0  0  0  0  0  0  0  0  0  0  0
   40.9010   32.2600   39.2220 N   0  0  0  0  0  0  0  0  0  0  0  0
   41.5220   31.4470   38.2110 C   0  0  0  0  0  3  0  0  0  0  0  0
   42.5260   31.1190   38.5560 H   0  0  0  0  0  0  0  0  0  0  0  0
   41.6020   32.2420   36.9370 C   0  0  0  0  0  3  0  0  0  0  0  0
   40.5800   32.3350   36.5100 H   0  0  0  0  0  0  0  0  0  0  0  0
   42.2530   33.5070   37.0470 N   0  0  0  0  0  0  0  0  0  0  0  0
   41.7730   34.2150   36.4500 H   0  0  0  0  0  0  0  0  0  0  0  0
   42.2770   33.9900   38.4000 C   0  0  0  0  0  2  0  0  0  0  0  0
   40.8980   33.7010   38.9820 C   0  0  0  0  0  2  0  0  0  0  0  0
  1  2  1  0  0  0  0
  2 14  1  0  0  0  0
  2  3  2  0  0  0  0
  3 15  1  0  0  0  0
  4  3  1  0  0  0  0
  5  4  2  0  0  0  0
  6  1  2  0  0  0  0
  6  5  1  0  0  0  0
  7  5  1  0  0  0  0
  7  8  1  0  0  0  0
  8 16  1  1  0  0  0
  9  8  1  0  0  0  0
  9 18  1  0  0  0  0
 10  9  1  0  0  0  0
 11 10  1  0  0  0  0
 11 12  1  0  0  0  0
 12 23  1  0  0  0  0
 12  7  1  0  0  0  0
 13  1  1  0  0  0  0
 17  9  1  0  0  0  0
 19 10  1  0  0  0  0
 20 11  1  0  0  0  0
 21 11  1  0  0  0  0
 22 12  1  0  0  0  0
 24  8  1  0  0  0  0
 24 25  2  0  0  0  0
 25 29  1  0  0  0  0
 26 30  1  0  0  0  0
 26 25  1  0  0  0  0
 27 26  1  0  0  0  0
 28 27  2  0  0  0  0
 28 24  1  0  0  0  0
 31 27  1  0  0  0  0
 32 33  1  0  0  0  0
 32 31  1  0  0  0  0
 34 36  1  0  0  0  0
 34 32  1  0  0  0  0
 35 34  1  0  0  0  0
 36 38  1  0  0  0  0
 37 36  1  0  0  0  0
 38 39  1  0  0  0  0
 39 31  1  0  0  0  0
M  END
>  <minimizedAffinity>
-5.78536797

$$$$

 OpenBabel03242520433D

 39 42  0  0  1  0  0  0  0  0999 V2000
   38.4130   28.1710   36.4530 C   0  0  0  0  0  0  0  0  0  0  0  0
   37.2060   28.1330   35.7160 C   0  0  0  0  0  0  0  0  0  0  0  0
   36.3680   29.2730   35.7910 C   0  0  0  0  0  0  0  0  0  0  0  0
   36.7480   30.3440   36.5590 N   0  0  0  0  0  0  0  0  0  0  0  0
   37.9220   30.3120   37.2420 C   0  0  0  0  0  0  0  0  0  0  0  0
   38.7320   29.2310   37.1780 N   0  0  0  0  0  0  0  0  0  0  0  0
   38.2270   31.4410   38.0090 N   0  0  0  0  0  0  0  0  0  0  0  0
   37.3630   31.8800   39.0520 C   0  0  2  0  0  0  0  0  0  0  0  0
   37.6610   33.2350   39.5910 C   0  0  0  0  0  0  0  0  0  0  0  0
   39.0150   33.6450   39.5460 N   0  0  0  0  0  0  0  0  0  0  0  0
   39.9210   32.6780   39.0720 C   0  0  0  0  0  0  0  0  0  0  0  0
   39.4440   32.1890   37.7360 C   0  0  0  0  0  0  0  0  0  0  0  0
   39.0190   27.2870   36.3740 H   0  0  0  0  0  0  0  0  0  0  0  0
   36.8790   27.3180   35.1190 H   0  0  0  0  0  0  0  0  0  0  0  0
   35.4390   29.3020   35.2580 H   0  0  0  0  0  0  0  0  0  0  0  0
   36.3430   31.9990   38.5610 H   0  0  0  0  0  0  0  0  0  0  0  0
   37.3160   33.2980   40.6480 H   0  0  0  0  0  0  0  0  0  0  0  0
   37.0740   34.0310   39.0610 H   0  0  0  0  0  0  0  0  0  0  0  0
   39.3370   34.2570   40.3190 H   0  0  0  0  0  0  0  0  0  0  0  0
   40.1300   31.8900   39.8000 H   0  0  0  0  0  0  0  0  0  0  0  0
   40.9150   33.1980   38.9280 H   0  0  0  0  0  0  0  0  0  0  0  0
   40.2310   31.4860   37.3710 H   0  0  0  0  0  0  0  0  0  0  0  0
   39.2890   33.0350   37.0720 H   0  0  0  0  0  0  0  0  0  0  0  0
   37.1980   30.8540   40.1060 C   0  0  0  0  0  0  0  0  0  0  0  0
   36.2060   30.6420   41.0390 C   0  0  0  0  0  0  0  0  0  0  0  0
   36.4700   29.5710   41.8170 N   0  0  0  0  0  0  0  0  0  0  0  0
   37.6440   29.1070   41.3650 C   0  0  0  0  0  0  0  0  0  0  0  0
   38.0790   29.8670   40.3480 N   0  0  0  0  0  0  0  0  0  0  0  0
   35.3190   31.2460   41.1560 H   0  0  0  0  0  0  0  0  0  0  0  0
   35.9330   29.1630   42.5890 H   0  0  0  0  0  0  0  0  0  0  0  0
   38.4330   27.9970   41.8050 N   0  0  0  0  0  0  0  0  0  0  0  0
   38.6460   26.8020   41.0340 C   0  0  0  0  0  3  0  0  0  0  0  0
   37.7420   26.1560   41.0840 H   0  0  0  0  0  0  0  0  0  0  0  0
   39.8640   26.0980   41.5630 C   0  0  0  0  0  3  0  0  0  0  0  0
   40.7670   26.6790   41.2710 H   0  0  0  0  0  0  0  0  0  0  0  0
   39.8430   25.8080   42.9600 N   0  0  0  0  0  0  0  0  0  0  0  0
   40.7930   25.9370   43.3710 H   0  0  0  0  0  0  0  0  0  0  0  0
   38.9180   26.6430   43.6740 C   0  0  0  0  0  2  0  0  0  0  0  0
   39.0880   28.0500   43.1100 C   0  0  0  0  0  2  0  0  0  0  0  0
  1  6  1  0  0  0  0
  2  3  1  0  0  0  0
  2  1  2  0  0  0  0
  3  4  2  0  0  0  0
  4  5  1  0  0  0  0
  5  7  1  0  0  0  0
  6  5  2  0  0  0  0
  7  8  1  0  0  0  0
  8 16  1  6  0  0  0
  8  9  1  0  0  0  0
  8 24  1  0  0  0  0
  9 17  1  0  0  0  0
 10  9  1  0  0  0  0
 10 19  1  0  0  0  0
 11 10  1  0  0  0  0
 11 20  1  0  0  0  0
 12  7  1  0  0  0  0
 12 11  1  0  0  0  0
 13  1  1  0  0  0  0
 14  2  1  0  0  0  0
 15  3  1  0  0  0  0
 18  9  1  0  0  0  0
 21 11  1  0  0  0  0
 22 12  1  0  0  0  0
 23 12  1  0  0  0  0
 24 28  1  0  0  0  0
 24 25  2  0  0  0  0
 25 29  1  0  0  0  0
 25 26  1  0  0  0  0
 26 30  1  0  0  0  0
 27 31  1  0  0  0  0
 27 26  1  0  0  0  0
 28 27  2  0  0  0  0
 31 39  1  0  0  0  0
 32 33  1  0  0  0  0
 32 34  1  0  0  0  0
 32 31  1  0  0  0  0
 34 36  1  0  0  0  0
 35 34  1  0  0  0  0
 36 37  1  0  0  0  0
 36 38  1  0  0  0  0
 39 38  1  0  0  0  0
M  END
>  <minimizedAffinity>
-5.75571203

$$$$

 OpenBabel03242520433D

 39 42  0  0  1  0  0  0  0  0999 V2000
   38.5180   27.1430   41.0490 C   0  0  0  0  0  0  0  0  0  0  0  0
   37.7370   26.9540   42.2130 C   0  0  0  0  0  0  0  0  0  0  0  0
   36.8570   28.0030   42.5770 C   0  0  0  0  0  0  0  0  0  0  0  0
   36.7990   29.1370   41.8060 N   0  0  0  0  0  0  0  0  0  0  0  0
   37.5800   29.2510   40.7000 C   0  0  0  0  0  0  0  0  0  0  0  0
   38.4220   28.2560   40.3410 N   0  0  0  0  0  0  0  0  0  0  0  0
   37.4660   30.4430   39.9790 N   0  0  0  0  0  0  0  0  0  0  0  0
   37.7380   31.7020   40.5870 C   0  0  2  0  0  0  0  0  0  0  0  0
   37.3110   32.8890   39.7970 C   0  0  0  0  0  0  0  0  0  0  0  0
   37.3170   32.7440   38.3900 N   0  0  0  0  0  0  0  0  0  0  0  0
   37.8110   31.5140   37.9150 C   0  0  0  0  0  0  0  0  0  0  0  0
   37.0560   30.4040   38.5840 C   0  0  0  0  0  0  0  0  0  0  0  0
   39.1760   26.3270   40.8090 H   0  0  0  0  0  0  0  0  0  0  0  0
   37.7640   26.0940   42.8350 H   0  0  0  0  0  0  0  0  0  0  0  0
   36.2420   27.9200   43.4510 H   0  0  0  0  0  0  0  0  0  0  0  0
   37.0750   31.7340   41.5100 H   0  0  0  0  0  0  0  0  0  0  0  0
   37.9550   33.7600   40.0580 H   0  0  0  0  0  0  0  0  0  0  0  0
   36.2750   33.2210   40.0740 H   0  0  0  0  0  0  0  0  0  0  0  0
   37.5490   33.5920   37.8390 H   0  0  0  0  0  0  0  0  0  0  0  0
   38.8980   31.4330   37.9790 H   0  0  0  0  0  0  0  0  0  0  0  0
   37.5920   31.4770   36.8050 H   0  0  0  0  0  0  0  0  0  0  0  0
   37.4290   29.4590   38.1200 H   0  0  0  0  0  0  0  0  0  0  0  0
   35.9890   30.5530   38.4450 H   0  0  0  0  0  0  0  0  0  0  0  0
   39.1320   31.7950   41.0740 C   0  0  0  0  0  0  0  0  0  0  0  0
   39.7460   31.3130   42.2110 C   0  0  0  0  0  0  0  0  0  0  0  0
   41.0560   31.6380   42.2490 N   0  0  0  0  0  0  0  0  0  0  0  0
   41.2640   32.3320   41.1210 C   0  0  0  0  0  0  0  0  0  0  0  0
   40.1240   32.4270   40.4210 N   0  0  0  0  0  0  0  0  0  0  0  0
   39.2600   30.7470   42.9910 H   0  0  0  0  0  0  0  0  0  0  0  0
   41.7700   31.4290   42.9540 H   0  0  0  0  0  0  0  0  0  0  0  0
   42.4550   32.9470   40.6180 N   0  0  0  0  0  0  0  0  0  0  0  0
   43.1640   32.4970   39.4510 C   0  0  0  0  0  3  0  0  0  0  0  0
   43.7570   31.5890   39.6970 H   0  0  0  0  0  0  0  0  0  0  0  0
   44.0370   33.6160   38.9560 C   0  0  0  0  0  3  0  0  0  0  0  0
   43.3900   34.3980   38.5010 H   0  0  0  0  0  0  0  0  0  0  0  0
   44.9350   34.1610   39.9210 N   0  0  0  0  0  0  0  0  0  0  0  0
   45.0130   35.1950   39.8010 H   0  0  0  0  0  0  0  0  0  0  0  0
   44.5180   33.8880   41.2680 C   0  0  0  0  0  2  0  0  0  0  0  0
   43.0100   34.1120   41.3030 C   0  0  0  0  0  2  0  0  0  0  0  0
  1  2  1  0  0  0  0
  2  3  2  0  0  0  0
  2 14  1  0  0  0  0
  3 15  1  0  0  0  0
  4  3  1  0  0  0  0
  5  4  2  0  0  0  0
  6  5  1  0  0  0  0
  6  1  2  0  0  0  0
  7  8  1  0  0  0  0
  7  5  1  0  0  0  0
  8 24  1  0  0  0  0
  8 16  1  1  0  0  0
  9 17  1  0  0  0  0
  9 18  1  0  0  0  0
  9  8  1  0  0  0  0
 10  9  1  0  0  0  0
 11 20  1  0  0  0  0
 11 10  1  0  0  0  0
 11 12  1  0  0  0  0
 12  7  1  0  0  0  0
 13  1  1  0  0  0  0
 19 10  1  0  0  0  0
 21 11  1  0  0  0  0
 22 12  1  0  0  0  0
 23 12  1  0  0  0  0
 24 25  2  0  0  0  0
 25 26  1  0  0  0  0
 25 29  1  0  0  0  0
 26 30  1  0  0  0  0
 27 26  1  0  0  0  0
 28 24  1  0  0  0  0
 28 27  2  0  0  0  0
 31 27  1  0  0  0  0
 31 39  1  0  0  0  0
 32 33  1  0  0  0  0
 32 31  1  0  0  0  0
 34 32  1  0  0  0  0
 34 36  1  0  0  0  0
 35 34  1  0  0  0  0
 36 38  1  0  0  0  0
 37 36  1  0  0  0  0
 38 39  1  0  0  0  0
M  END
>  <minimizedAffinity>
-5.7533989

$$$$

 OpenBabel03242520433D

 39 42  0  0  1  0  0  0  0  0999 V2000
   39.5820   28.1360   36.9400 C   0  0  0  0  0  0  0  0  0  0  0  0
   38.5400   27.3560   36.3870 C   0  0  0  0  0  0  0  0  0  0  0  0
   37.2110   27.7570   36.6730 C   0  0  0  0  0  0  0  0  0  0  0  0
   36.9910   28.8600   37.4580 N   0  0  0  0  0  0  0  0  0  0  0  0
   38.0410   29.5640   37.9580 C   0  0  0  0  0  0  0  0  0  0  0  0
   39.3140   29.1920   37.6910 N   0  0  0  0  0  0  0  0  0  0  0  0
   37.7260   30.6670   38.7570 N   0  0  0  0  0  0  0  0  0  0  0  0
   36.9570   30.5200   39.9470 C   0  0  2  0  0  0  0  0  0  0  0  0
   36.4650   31.7930   40.5400 C   0  0  0  0  0  0  0  0  0  0  0  0
   37.2700   32.9380   40.3300 N   0  0  0  0  0  0  0  0  0  0  0  0
   38.4830   32.7040   39.6540 C   0  0  0  0  0  0  0  0  0  0  0  0
   38.1850   31.9910   38.3680 C   0  0  0  0  0  0  0  0  0  0  0  0
   40.5750   27.7980   36.7050 H   0  0  0  0  0  0  0  0  0  0  0  0
   38.6760   26.4930   35.7830 H   0  0  0  0  0  0  0  0  0  0  0  0
   36.3800   27.2040   36.2850 H   0  0  0  0  0  0  0  0  0  0  0  0
   36.0080   29.9850   39.6210 H   0  0  0  0  0  0  0  0  0  0  0  0
   36.3290   31.6630   41.6380 H   0  0  0  0  0  0  0  0  0  0  0  0
   35.4410   32.0580   40.1660 H   0  0  0  0  0  0  0  0  0  0  0  0
   37.2810   33.6410   41.0930 H   0  0  0  0  0  0  0  0  0  0  0  0
   39.2390   32.2240   40.2800 H   0  0  0  0  0  0  0  0  0  0  0  0
   38.9240   33.7170   39.4070 H   0  0  0  0  0  0  0  0  0  0  0  0
   39.1630   31.8980   37.8380 H   0  0  0  0  0  0  0  0  0  0  0  0
   37.4460   32.5530   37.8030 H   0  0  0  0  0  0  0  0  0  0  0  0
   37.6180   29.6340   40.9300 C   0  0  0  0  0  0  0  0  0  0  0  0
   38.3410   29.9010   42.0730 C   0  0  0  0  0  0  0  0  0  0  0  0
   38.7660   28.7690   42.6740 N   0  0  0  0  0  0  0  0  0  0  0  0
   38.3010   27.7810   41.8970 C   0  0  0  0  0  0  0  0  0  0  0  0
   37.6190   28.2900   40.8610 N   0  0  0  0  0  0  0  0  0  0  0  0
   38.5590   30.8860   42.4580 H   0  0  0  0  0  0  0  0  0  0  0  0
   39.3180   28.6390   43.5280 H   0  0  0  0  0  0  0  0  0  0  0  0
   38.4430   26.3610   42.0200 N   0  0  0  0  0  0  0  0  0  0  0  0
   37.3600   25.4660   42.3240 C   0  0  0  0  0  3  0  0  0  0  0  0
   37.1220   25.5180   43.4080 H   0  0  0  0  0  0  0  0  0  0  0  0
   37.7520   24.0760   41.9050 C   0  0  0  0  0  3  0  0  0  0  0  0
   37.7420   24.0220   40.7940 H   0  0  0  0  0  0  0  0  0  0  0  0
   38.9800   23.5980   42.4520 N   0  0  0  0  0  0  0  0  0  0  0  0
   39.4970   23.0330   41.7440 H   0  0  0  0  0  0  0  0  0  0  0  0
   39.8310   24.6670   42.8940 C   0  0  0  0  0  2  0  0  0  0  0  0
   39.7540   25.7470   41.8210 C   0  0  0  0  0  2  0  0  0  0  0  0
  1  6  1  0  0  0  0
  2  3  1  0  0  0  0
  2  1  2  0  0  0  0
  3  4  2  0  0  0  0
  4  5  1  0  0  0  0
  5  7  1  0  0  0  0
  6  5  2  0  0  0  0
  7  8  1  0  0  0  0
  8 16  1  6  0  0  0
  8  9  1  0  0  0  0
  8 24  1  0  0  0  0
  9 17  1  0  0  0  0
 10  9  1  0  0  0  0
 10 19  1  0  0  0  0
 11 20  1  0  0  0  0
 11 10  1  0  0  0  0
 12  7  1  0  0  0  0
 12 11  1  0  0  0  0
 13  1  1  0  0  0  0
 14  2  1  0  0  0  0
 15  3  1  0  0  0  0
 18  9  1  0  0  0  0
 21 11  1  0  0  0  0
 22 12  1  0  0  0  0
 23 12  1  0  0  0  0
 24 25  2  0  0  0  0
 25 29  1  0  0  0  0
 25 26  1  0  0  0  0
 26 30  1  0  0  0  0
 27 31  1  0  0  0  0
 27 26  1  0  0  0  0
 28 24  1  0  0  0  0
 28 27  2  0  0  0  0
 31 32  1  0  0  0  0
 32 33  1  0  0  0  0
 34 32  1  0  0  0  0
 34 36  1  0  0  0  0
 35 34  1  0  0  0  0
 36 38  1  0  0  0  0
 37 36  1  0  0  0  0
 39 31  1  0  0  0  0
 39 38  1  0  0  0  0
M  END
>  <minimizedAffinity>
-5.70804167

$$$$

 OpenBabel03242520433D

 39 42  0  0  1  0  0  0  0  0999 V2000
   38.6710   27.6190   41.1890 C   0  0  0  0  0  0  0  0  0  0  0  0
   38.5930   27.5690   42.6010 C   0  0  0  0  0  0  0  0  0  0  0  0
   38.2700   28.7750   43.2730 C   0  0  0  0  0  0  0  0  0  0  0  0
   38.0550   29.9180   42.5460 N   0  0  0  0  0  0  0  0  0  0  0  0
   38.1480   29.8940   41.1900 C   0  0  0  0  0  0  0  0  0  0  0  0
   38.4530   28.7500   40.5370 N   0  0  0  0  0  0  0  0  0  0  0  0
   37.9250   31.1050   40.5290 N   0  0  0  0  0  0  0  0  0  0  0  0
   38.7270   32.2510   40.7970 C   0  0  2  0  0  0  0  0  0  0  0  0
   38.2070   33.5290   40.2400 C   0  0  0  0  0  0  0  0  0  0  0  0
   37.4480   33.4350   39.0500 N   0  0  0  0  0  0  0  0  0  0  0  0
   37.3550   32.1430   38.4980 C   0  0  0  0  0  0  0  0  0  0  0  0
   36.8500   31.2050   39.5540 C   0  0  0  0  0  0  0  0  0  0  0  0
   38.9220   26.6860   40.7170 H   0  0  0  0  0  0  0  0  0  0  0  0
   38.7610   26.7040   43.1920 H   0  0  0  0  0  0  0  0  0  0  0  0
   38.2000   28.8000   44.3410 H   0  0  0  0  0  0  0  0  0  0  0  0
   38.6660   32.3980   41.9240 H   0  0  0  0  0  0  0  0  0  0  0  0
   39.0560   34.2260   40.0540 H   0  0  0  0  0  0  0  0  0  0  0  0
   37.5620   34.0730   40.9800 H   0  0  0  0  0  0  0  0  0  0  0  0
   37.5290   34.2280   38.3860 H   0  0  0  0  0  0  0  0  0  0  0  0
   38.2730   31.8200   37.9990 H   0  0  0  0  0  0  0  0  0  0  0  0
   36.5880   32.1920   37.6670 H   0  0  0  0  0  0  0  0  0  0  0  0
   36.7220   30.2180   39.0490 H   0  0  0  0  0  0  0  0  0  0  0  0
   35.9250   31.5920   39.9720 H   0  0  0  0  0  0  0  0  0  0  0  0
   40.1540   32.0150   40.4860 C   0  0  0  0  0  0  0  0  0  0  0  0
   41.2740   31.9470   41.2890 C   0  0  0  0  0  0  0  0  0  0  0  0
   42.3920   31.7110   40.5690 N   0  0  0  0  0  0  0  0  0  0  0  0
   41.9660   31.6290   39.3010 C   0  0  0  0  0  0  0  0  0  0  0  0
   40.6380   31.8090   39.2480 N   0  0  0  0  0  0  0  0  0  0  0  0
   41.2820   32.0690   42.3610 H   0  0  0  0  0  0  0  0  0  0  0  0
   43.3660   31.6080   40.8730 H   0  0  0  0  0  0  0  0  0  0  0  0
   42.6970   31.4040   38.0910 N   0  0  0  0  0  0  0  0  0  0  0  0
   42.5910   30.2110   37.2950 C   0  0  0  0  0  3  0  0  0  0  0  0
   43.1640   29.3870   37.7730 H   0  0  0  0  0  0  0  0  0  0  0  0
   43.0950   30.5100   35.9100 C   0  0  0  0  0  3  0  0  0  0  0  0
   42.3530   31.1550   35.3920 H   0  0  0  0  0  0  0  0  0  0  0  0
   44.4130   31.0530   35.8450 N   0  0  0  0  0  0  0  0  0  0  0  0
   44.4710   31.7750   35.0950 H   0  0  0  0  0  0  0  0  0  0  0  0
   44.8170   31.6520   37.0870 C   0  0  0  0  0  2  0  0  0  0  0  0
   43.6100   32.4320   37.5980 C   0  0  0  0  0  2  0  0  0  0  0  0
  1  2  1  0  0  0  0
  2 14  1  0  0  0  0
  2  3  2  0  0  0  0
  3 15  1  0  0  0  0
  4  3  1  0  0  0  0
  5  4  2  0  0  0  0
  6  1  2  0  0  0  0
  6  5  1  0  0  0  0
  7  8  1  0  0  0  0
  7  5  1  0  0  0  0
  8 16  1  1  0  0  0
  9  8  1  0  0  0  0
  9 18  1  0  0  0  0
 10  9  1  0  0  0  0
 11 10  1  0  0  0  0
 11 12  1  0  0  0  0
 12 23  1  0  0  0  0
 12  7  1  0  0  0  0
 13  1  1  0  0  0  0
 17  9  1  0  0  0  0
 19 10  1  0  0  0  0
 20 11  1  0  0  0  0
 21 11  1  0  0  0  0
 22 12  1  0  0  0  0
 24  8  1  0  0  0  0
 24 25  2  0  0  0  0
 25 29  1  0  0  0  0
 26 30  1  0  0  0  0
 26 25  1  0  0  0  0
 27 26  1  0  0  0  0
 28 27  2  0  0  0  0
 28 24  1  0  0  0  0
 31 27  1  0  0  0  0
 32 33  1  0  0  0  0
 32 31  1  0  0  0  0
 34 32  1  0  0  0  0
 35 34  1  0  0  0  0
 36 34  1  0  0  0  0
 36 38  1  0  0  0  0
 37 36  1  0  0  0  0
 38 39  1  0  0  0  0
 39 31  1  0  0  0  0
M  END
>  <minimizedAffinity>
-5.66235209

$$$$

 OpenBabel03242520433D

 39 42  0  0  1  0  0  0  0  0999 V2000
   42.4770   27.1120   41.5260 C   0  0  0  0  0  0  0  0  0  0  0  0
   42.9980   26.8260   42.8100 C   0  0  0  0  0  0  0  0  0  0  0  0
   42.1860   26.0570   43.6800 C   0  0  0  0  0  0  0  0  0  0  0  0
   40.9530   25.6310   43.2550 N   0  0  0  0  0  0  0  0  0  0  0  0
   40.5140   25.9430   42.0070 C   0  0  0  0  0  0  0  0  0  0  0  0
   41.2800   26.6750   41.1660 N   0  0  0  0  0  0  0  0  0  0  0  0
   39.2420   25.4790   41.6600 N   0  0  0  0  0  0  0  0  0  0  0  0
   38.0910   25.8500   42.4110 C   0  0  2  0  0  0  0  0  0  0  0  0
   36.8600   25.0710   42.1060 C   0  0  0  0  0  0  0  0  0  0  0  0
   36.7390   24.5750   40.7860 N   0  0  0  0  0  0  0  0  0  0  0  0
   37.7670   24.9600   39.9040 C   0  0  0  0  0  0  0  0  0  0  0  0
   39.0870   24.5940   40.5160 C   0  0  0  0  0  0  0  0  0  0  0  0
   43.1200   27.7010   40.8970 H   0  0  0  0  0  0  0  0  0  0  0  0
   43.9430   27.1470   43.1710 H   0  0  0  0  0  0  0  0  0  0  0  0
   42.5240   25.8110   44.6660 H   0  0  0  0  0  0  0  0  0  0  0  0
   38.3350   25.5680   43.4860 H   0  0  0  0  0  0  0  0  0  0  0  0
   35.9630   25.6920   42.3260 H   0  0  0  0  0  0  0  0  0  0  0  0
   36.7520   24.1830   42.7850 H   0  0  0  0  0  0  0  0  0  0  0  0
   35.7790   24.5220   40.4000 H   0  0  0  0  0  0  0  0  0  0  0  0
   37.6860   26.0000   39.5770 H   0  0  0  0  0  0  0  0  0  0  0  0
   37.6330   24.3560   38.9560 H   0  0  0  0  0  0  0  0  0  0  0  0
   39.8580   24.8480   39.7500 H   0  0  0  0  0  0  0  0  0  0  0  0
   39.0840   23.5410   40.7840 H   0  0  0  0  0  0  0  0  0  0  0  0
   37.8720   27.3140   42.4050 C   0  0  0  0  0  0  0  0  0  0  0  0
   37.4240   28.1830   43.3780 C   0  0  0  0  0  0  0  0  0  0  0  0
   37.3770   29.4560   42.9290 N   0  0  0  0  0  0  0  0  0  0  0  0
   37.8010   29.3810   41.6590 C   0  0  0  0  0  0  0  0  0  0  0  0
   38.0960   28.1110   41.3450 N   0  0  0  0  0  0  0  0  0  0  0  0
   37.1370   27.9040   44.3800 H   0  0  0  0  0  0  0  0  0  0  0  0
   37.0910   30.3170   43.4070 H   0  0  0  0  0  0  0  0  0  0  0  0
   37.9530   30.4070   40.6720 N   0  0  0  0  0  0  0  0  0  0  0  0
   39.2220   30.8530   40.1620 C   0  0  0  0  0  3  0  0  0  0  0  0
   39.7130   31.5190   40.9040 H   0  0  0  0  0  0  0  0  0  0  0  0
   38.9940   31.5510   38.8500 C   0  0  0  0  0  3  0  0  0  0  0  0
   38.7330   30.7910   38.0820 H   0  0  0  0  0  0  0  0  0  0  0  0
   38.0520   32.6220   38.8850 N   0  0  0  0  0  0  0  0  0  0  0  0
   37.4830   32.6330   38.0100 H   0  0  0  0  0  0  0  0  0  0  0  0
   37.1610   32.5260   40.0080 C   0  0  0  0  0  2  0  0  0  0  0  0
   36.7680   31.0570   40.1180 C   0  0  0  0  0  2  0  0  0  0  0  0
  1  2  1  0  0  0  0
  2 14  1  0  0  0  0
  2  3  2  0  0  0  0
  3 15  1  0  0  0  0
  4  3  1  0  0  0  0
  5  4  2  0  0  0  0
  6  1  2  0  0  0  0
  6  5  1  0  0  0  0
  7  5  1  0  0  0  0
  7  8  1  0  0  0  0
  8 16  1  1  0  0  0
  9 17  1  0  0  0  0
  9  8  1  0  0  0  0
  9 18  1  0  0  0  0
 10  9  1  0  0  0  0
 11 12  1  0  0  0  0
 11 10  1  0  0  0  0
 12 23  1  0  0  0  0
 12  7  1  0  0  0  0
 13  1  1  0  0  0  0
 19 10  1  0  0  0  0
 20 11  1  0  0  0  0
 21 11  1  0  0  0  0
 22 12  1  0  0  0  0
 24  8  1  0  0  0  0
 24 25  2  0  0  0  0
 25 29  1  0  0  0  0
 26 25  1  0  0  0  0
 26 30  1  0  0  0  0
 27 26  1  0  0  0  0
 28 27  2  0  0  0  0
 28 24  1  0  0  0  0
 31 27  1  0  0  0  0
 32 31  1  0  0  0  0
 32 33  1  0  0  0  0
 34 36  1  0  0  0  0
 34 32  1  0  0  0  0
 35 34  1  0  0  0  0
 36 38  1  0  0  0  0
 37 36  1  0  0  0  0
 38 39  1  0  0  0  0
 39 31  1  0  0  0  0
M  END
>  <minimizedAffinity>
-5.53443527

$$$$

 OpenBabel03242520433D

 39 42  0  0  1  0  0  0  0  0999 V2000
   38.1490   27.6960   39.0810 C   0  0  0  0  0  0  0  0  0  0  0  0
   38.9930   26.9950   39.9750 C   0  0  0  0  0  0  0  0  0  0  0  0
   39.6370   27.7540   40.9840 C   0  0  0  0  0  0  0  0  0  0  0  0
   39.4250   29.1080   41.0520 N   0  0  0  0  0  0  0  0  0  0  0  0
   38.6010   29.7160   40.1580 C   0  0  0  0  0  0  0  0  0  0  0  0
   37.9790   29.0030   39.1920 N   0  0  0  0  0  0  0  0  0  0  0  0
   38.4500   31.1000   40.2930 N   0  0  0  0  0  0  0  0  0  0  0  0
   39.5700   31.9760   40.2110 C   0  0  2  0  0  0  0  0  0  0  0  0
   39.3100   33.3750   40.6460 C   0  0  0  0  0  0  0  0  0  0  0  0
   37.9940   33.8580   40.4590 N   0  0  0  0  0  0  0  0  0  0  0  0
   37.1170   32.9730   39.8030 C   0  0  0  0  0  0  0  0  0  0  0  0
   37.1290   31.6600   40.5280 C   0  0  0  0  0  0  0  0  0  0  0  0
   37.6830   27.0860   38.3280 H   0  0  0  0  0  0  0  0  0  0  0  0
   39.1840   25.9510   39.9450 H   0  0  0  0  0  0  0  0  0  0  0  0
   40.2900   27.2810   41.6880 H   0  0  0  0  0  0  0  0  0  0  0  0
   40.3100   31.5820   40.9790 H   0  0  0  0  0  0  0  0  0  0  0  0
   40.0090   34.0640   40.1190 H   0  0  0  0  0  0  0  0  0  0  0  0
   39.5470   33.5220   41.7330 H   0  0  0  0  0  0  0  0  0  0  0  0
   37.8990   34.8670   40.2410 H   0  0  0  0  0  0  0  0  0  0  0  0
   37.2990   32.9050   38.7280 H   0  0  0  0  0  0  0  0  0  0  0  0
   36.0780   33.4160   39.8840 H   0  0  0  0  0  0  0  0  0  0  0  0
   36.3660   31.0240   40.0180 H   0  0  0  0  0  0  0  0  0  0  0  0
   36.9120   31.8230   41.5800 H   0  0  0  0  0  0  0  0  0  0  0  0
   40.2490   31.8880   38.8980 C   0  0  0  0  0  0  0  0  0  0  0  0
   39.7940   32.0780   37.6100 C   0  0  0  0  0  0  0  0  0  0  0  0
   40.7730   31.8910   36.7000 N   0  0  0  0  0  0  0  0  0  0  0  0
   41.8550   31.5810   37.4280 C   0  0  0  0  0  0  0  0  0  0  0  0
   41.5480   31.5790   38.7340 N   0  0  0  0  0  0  0  0  0  0  0  0
   38.7820   32.3400   37.3380 H   0  0  0  0  0  0  0  0  0  0  0  0
   40.7490   31.9590   35.6770 H   0  0  0  0  0  0  0  0  0  0  0  0
   43.1890   31.2650   37.0170 N   0  0  0  0  0  0  0  0  0  0  0  0
   44.3300   32.1060   37.2620 C   0  0  0  0  0  3  0  0  0  0  0  0
   44.3300   32.9580   36.5490 H   0  0  0  0  0  0  0  0  0  0  0  0
   45.5760   31.2740   37.1390 C   0  0  0  0  0  3  0  0  0  0  0  0
   45.6420   30.5970   38.0190 H   0  0  0  0  0  0  0  0  0  0  0  0
   45.7180   30.5670   35.9090 N   0  0  0  0  0  0  0  0  0  0  0  0
   46.1380   29.6270   36.0770 H   0  0  0  0  0  0  0  0  0  0  0  0
   44.4620   30.3920   35.2340 C   0  0  0  0  0  2  0  0  0  0  0  0
   43.4480   30.0140   36.3080 C   0  0  0  0  0  2  0  0  0  0  0  0
  1  6  2  0  0  0  0
  1  2  1  0  0  0  0
  2  3  2  0  0  0  0
  3  4  1  0  0  0  0
  3 15  1  0  0  0  0
  5  7  1  0  0  0  0
  5  4  2  0  0  0  0
  6  5  1  0  0  0  0
  7 12  1  0  0  0  0
  8  7  1  0  0  0  0
  8  9  1  0  0  0  0
  8 16  1  1  0  0  0
  9 18  1  0  0  0  0
 10  9  1  0  0  0  0
 11 21  1  0  0  0  0
 11 10  1  0  0  0  0
 11 12  1  0  0  0  0
 12 23  1  0  0  0  0
 13  1  1  0  0  0  0
 14  2  1  0  0  0  0
 17  9  1  0  0  0  0
 19 10  1  0  0  0  0
 20 11  1  0  0  0  0
 22 12  1  0  0  0  0
 24  8  1  0  0  0  0
 25 24  2  0  0  0  0
 26 27  1  0  0  0  0
 26 25  1  0  0  0  0
 27 28  2  0  0  0  0
 28 24  1  0  0  0  0
 29 25  1  0  0  0  0
 30 26  1  0  0  0  0
 31 32  1  0  0  0  0
 31 27  1  0  0  0  0
 33 32  1  0  0  0  0
 34 32  1  0  0  0  0
 34 35  1  0  0  0  0
 36 37  1  0  0  0  0
 36 34  1  0  0  0  0
 38 36  1  0  0  0  0
 38 39  1  0  0  0  0
 39 31  1  0  0  0  0
M  END
>  <minimizedAffinity>
-5.47318649

$$$$
