
 OpenBabel03252505393D

 28 30  0  0  1  0  0  0  0  0999 V2000
   44.4000   34.9970   43.3110 C   0  0  1  0  0  0  0  0  0  0  0  0
   44.9750   36.3420   42.8110 C   0  0  0  0  0  0  0  0  0  0  0  0
   44.4640   35.2890   41.8790 C   0  0  2  0  0  0  0  0  0  0  0  0
   43.4370   35.1670   43.8700 H   0  0  0  0  0  0  0  0  0  0  0  0
   44.4030   37.2650   43.0230 H   0  0  0  0  0  0  0  0  0  0  0  0
   46.0670   36.4940   42.9280 H   0  0  0  0  0  0  0  0  0  0  0  0
   45.3000   34.7630   41.3280 H   0  0  0  0  0  0  0  0  0  0  0  0
   43.3180   35.4650   41.0550 N   0  0  1  0  0  0  0  0  0  0  0  0
   43.2320   34.5590   39.9290 C   0  0  0  0  0  0  0  0  0  0  0  0
   43.3570   33.4930   40.2110 H   0  0  0  0  0  0  0  0  0  0  0  0
   41.9260   34.6670   39.2060 C   0  0  0  0  0  0  0  0  0  0  0  0
   42.1130   34.8190   38.1240 H   0  0  0  0  0  0  0  0  0  0  0  0
   41.1060   35.7560   39.6640 N   0  0  0  0  0  0  0  0  0  0  0  0
   40.1540   35.6060   39.2350 H   0  0  0  0  0  0  0  0  0  0  0  0
   40.9620   35.8590   41.0820 C   0  0  0  0  0  0  0  0  0  0  0  0
   42.1160   35.2790   41.8460 C   0  0  0  0  0  0  0  0  0  0  0  0
   45.4180   34.1190   43.9650 C   0  0  0  0  0  0  0  0  0  0  0  0
   46.5410   33.6830   43.2140 C   0  0  0  0  0  0  0  0  0  0  0  0
   47.4730   32.8820   43.8550 C   0  0  0  0  0  0  0  0  0  0  0  0
   47.2640   32.5580   45.1570 N   0  0  0  0  0  0  0  0  0  0  0  0
   46.1800   32.9950   45.8370 C   0  0  0  0  0  0  0  0  0  0  0  0
   45.2540   33.7800   45.2300 N   0  0  0  0  0  0  0  0  0  0  0  0
   46.6580   33.9650   42.1920 H   0  0  0  0  0  0  0  0  0  0  0  0
   48.3530   32.5120   43.3490 H   0  0  0  0  0  0  0  0  0  0  0  0
   46.1430   32.5340   47.2660 C   0  0  0  0  0  0  0  0  0  0  0  0
   45.1350   33.1410   47.9740 F   0  0  0  0  0  0  0  0  0  0  0  0
   47.3590   32.8400   47.8840 F   0  0  0  0  0  0  0  0  0  0  0  0
   46.0470   31.1470   47.2890 F   0  0  0  0  0  0  0  0  0  0  0  0
  1  4  1  1  0  0  0
  1 17  1  0  0  0  0
  2  6  1  0  0  0  0
  2  5  1  0  0  0  0
  2  1  1  0  0  0  0
  3  7  1  6  0  0  0
  3  2  1  0  0  0  0
  3  1  1  0  0  0  0
  8 16  1  1  0  0  0
  8  3  1  0  0  0  0
  9 10  1  0  0  0  0
  9  8  1  0  0  0  0
 11 13  1  0  0  0  0
 11  9  1  0  0  0  0
 12 11  1  0  0  0  0
 13 15  1  0  0  0  0
 14 13  1  0  0  0  0
 15 16  1  0  0  0  0
 17 22  1  0  0  0  0
 18 19  1  0  0  0  0
 18 17  2  0  0  0  0
 19 20  2  0  0  0  0
 20 21  1  0  0  0  0
 21 25  1  0  0  0  0
 22 21  2  0  0  0  0
 23 18  1  0  0  0  0
 24 19  1  0  0  0  0
 25 28  1  0  0  0  0
 25 27  1  0  0  0  0
 25 26  1  0  0  0  0
M  END
>  <minimizedAffinity>
-4.98159981

>  <minimizedRMSD>
1.40006769

$$$$
