
 OpenBabel03242517223D

 43 46  0  0  1  0  0  0  0  0999 V2000
   44.6190   35.3680   45.4790 C   0  0  0  0  0  0  0  0  0  0  0  0
   44.3640   35.9220   44.2080 C   0  0  0  0  0  0  0  0  0  0  0  0
   44.8490   35.2580   43.0580 C   0  0  0  0  0  0  0  0  0  0  0  0
   45.5430   34.1050   43.2610 N   0  0  0  0  0  0  0  0  0  0  0  0
   45.7720   33.5950   44.4960 C   0  0  0  0  0  0  0  0  0  0  0  0
   45.3080   34.2290   45.6130 N   0  0  0  0  0  0  0  0  0  0  0  0
   46.5110   32.3780   44.6000 N   0  0  0  0  0  0  0  0  0  0  0  0
   46.4700   31.7070   45.8960 C   0  0  0  0  0  0  0  0  0  0  0  0
   47.5150   30.6960   46.1210 C   0  0  0  0  0  0  0  0  0  0  0  0
   47.8360   29.9810   44.8370 C   0  0  0  0  0  0  0  0  0  0  0  0
   48.3760   31.0050   43.8880 C   0  0  0  0  0  0  0  0  0  0  0  0
   47.2440   31.8740   43.4660 C   0  0  2  0  0  0  0  0  0  0  0  0
   44.2060   35.9520   46.2710 H   0  0  0  0  0  0  0  0  0  0  0  0
   43.8140   36.8350   44.0580 H   0  0  0  0  0  0  0  0  0  0  0  0
   44.6730   35.6530   42.0710 H   0  0  0  0  0  0  0  0  0  0  0  0
   46.4290   32.4800   46.7090 H   0  0  0  0  0  0  0  0  0  0  0  0
   45.4720   31.2220   45.9310 H   0  0  0  0  0  0  0  0  0  0  0  0
   47.1180   29.9110   46.8270 H   0  0  0  0  0  0  0  0  0  0  0  0
   48.4580   31.0860   46.5260 H   0  0  0  0  0  0  0  0  0  0  0  0
   46.9260   29.5210   44.3830 H   0  0  0  0  0  0  0  0  0  0  0  0
   48.6300   29.2360   45.0000 H   0  0  0  0  0  0  0  0  0  0  0  0
   48.8790   30.5690   43.0020 H   0  0  0  0  0  0  0  0  0  0  0  0
   49.1430   31.6040   44.4150 H   0  0  0  0  0  0  0  0  0  0  0  0
   46.5080   31.2290   42.9070 H   0  0  0  0  0  0  0  0  0  0  0  0
   46.6270   31.8280   40.6630 F   0  0  0  0  0  0  0  0  0  0  0  0
   47.3530   32.8840   41.1270 C   0  0  0  0  0  0  0  0  0  0  0  0
   47.6530   32.9130   42.4890 C   0  0  0  0  0  0  0  0  0  0  0  0
   48.3940   34.0090   42.9140 C   0  0  0  0  0  0  0  0  0  0  0  0
   48.8190   35.0190   42.0800 C   0  0  0  0  0  0  0  0  0  0  0  0
   48.5030   34.9600   40.7360 C   0  0  0  0  0  0  0  0  0  0  0  0
   47.7690   33.8850   40.2780 C   0  0  0  0  0  0  0  0  0  0  0  0
   48.6370   34.0500   43.9640 H   0  0  0  0  0  0  0  0  0  0  0  0
   49.3940   35.8540   42.4600 H   0  0  0  0  0  0  0  0  0  0  0  0
   48.8490   35.7640   40.1060 H   0  0  0  0  0  0  0  0  0  0  0  0
   47.4540   33.8410   38.8890 N   0  0  0  0  0  0  0  0  0  0  0  0
   46.1920   33.2510   38.4530 C   0  0  0  0  0  0  0  0  0  0  0  0
   46.1010   32.1740   38.7650 H   0  0  0  0  0  0  0  0  0  0  0  0
   46.2270   33.1590   36.9220 C   0  0  0  0  0  0  0  0  0  0  0  0
   45.4410   32.5130   36.5190 H   0  0  0  0  0  0  0  0  0  0  0  0
   47.5210   32.5540   36.6060 N   0  0  0  0  0  0  0  0  0  0  0  0
   47.7760   31.8500   37.3290 H   0  0  0  0  0  0  0  0  0  0  0  0
   48.4500   33.6600   36.6220 C   0  0  0  0  0  0  0  0  0  0  0  0
   48.3920   34.3860   37.9270 C   0  0  0  0  0  0  0  0  0  0  0  0
  1  6  1  0  0  0  0
  1 13  1  0  0  0  0
  2  1  2  0  0  0  0
  3  4  2  0  0  0  0
  3  2  1  0  0  0  0
  4  5  1  0  0  0  0
  5  7  1  0  0  0  0
  5  6  2  0  0  0  0
  7  8  1  0  0  0  0
  8 17  1  0  0  0  0
  8  9  1  0  0  0  0
  8 16  1  0  0  0  0
  9 19  1  0  0  0  0
  9 18  1  0  0  0  0
 10 21  1  0  0  0  0
 10  9  1  0  0  0  0
 11 23  1  0  0  0  0
 11 10  1  0  0  0  0
 12 24  1  6  0  0  0
 12 11  1  0  0  0  0
 12  7  1  0  0  0  0
 14  2  1  0  0  0  0
 15  3  1  0  0  0  0
 20 10  1  0  0  0  0
 22 11  1  0  0  0  0
 25 26  1  0  0  0  0
 26 27  1  0  0  0  0
 27 28  2  0  0  0  0
 27 12  1  0  0  0  0
 28 32  1  0  0  0  0
 29 33  1  0  0  0  0
 29 28  1  0  0  0  0
 30 29  2  0  0  0  0
 31 30  1  0  0  0  0
 31 26  2  0  0  0  0
 34 30  1  0  0  0  0
 35 31  1  0  0  0  0
 36 37  1  0  0  0  0
 36 35  1  0  0  0  0
 38 36  1  0  0  0  0
 39 38  1  0  0  0  0
 40 42  1  0  0  0  0
 40 38  1  0  0  0  0
 40 41  1  0  0  0  0
 42 43  1  0  0  0  0
 43 35  1  0  0  0  0
M  END
>  <minimizedAffinity>
-6.35452127

>  <minimizedRMSD>
1.04036677

$$$$
