REMARK  Name = 
REMARK  8 active torsions:
REMARK  status: ('A' for Active; 'I' for Inactive)
REMARK    1  A    between atoms: P_2  and  O_3
REMARK    2  A    between atoms: P_2  and  O_4
REMARK    3  A    between atoms: P_2  and  O_12
REMARK    4  A    between atoms: O_4  and  C_5
REMARK    5  A    between atoms: C_5  and  C_8
REMARK    6  A    between atoms: O_12  and  C_13
REMARK    7  A    between atoms: C_17  and  C_18
REMARK    8  A    between atoms: C_18  and  N_35
REMARK                            x       y       z     vdW  Elec       q    Type
REMARK                         _______ _______ _______ _____ _____    ______ ____
ROOT
ATOM      1  C   UNL     1      46.941  34.098  42.298  0.00  0.00    +0.000 C 
ATOM      2  C   UNL     1      46.403  34.269  40.885  0.00  0.00    +0.000 C 
ATOM      3  C   UNL     1      47.324  33.364  40.104  0.00  0.00    +0.000 C 
ATOM      4  C   UNL     1      48.631  33.346  40.868  0.00  0.00    +0.000 C 
ATOM      5  C   UNL     1      48.415  34.291  42.034  0.00  0.00    +0.000 C 
ATOM      6  H   UNL     1      46.747  33.061  42.592  0.00  0.00    +0.000 HD
ATOM      7  H   UNL     1      45.348  33.892  40.910  0.00  0.00    +0.000 HD
ATOM      8  H   UNL     1      46.401  35.303  40.552  0.00  0.00    +0.000 HD
ATOM      9  H   UNL     1      47.436  33.641  39.060  0.00  0.00    +0.000 HD
ATOM     10  H   UNL     1      46.898  32.331  40.197  0.00  0.00    +0.000 HD
ATOM     11  H   UNL     1      49.419  33.800  40.217  0.00  0.00    +0.000 HD
ATOM     12  H   UNL     1      48.952  32.345  41.188  0.00  0.00    +0.000 HD
ATOM     13  H   UNL     1      49.046  33.974  42.887  0.00  0.00    +0.000 HD
ENDROOT
BRANCH   5  14
ATOM     14  C   UNL     1      48.765  35.717  41.706  0.00  0.00    +0.000 C 
ATOM     15  H   UNL     1      48.303  36.071  40.759  0.00  0.00    +0.000 HD
ATOM     16  H   UNL     1      49.852  35.752  41.601  0.00  0.00    +0.000 HD
BRANCH  14  17
ATOM     17  N   UNL     1      48.393  36.525  42.850  0.00  0.00    +0.000 NA
ATOM     18  C   UNL     1      49.478  37.380  43.238  0.00  0.00    +0.000 C 
ATOM     19  H   UNL     1      50.185  36.910  43.953  0.00  0.00    +0.000 HD
ATOM     20  C   UNL     1      49.060  38.705  43.797  0.00  0.00    +0.000 C 
ATOM     21  H   UNL     1      48.767  38.583  44.879  0.00  0.00    +0.000 HD
ATOM     22  N   UNL     1      48.036  39.349  43.034  0.00  0.00    +0.000 NA
ATOM     23  H   UNL     1      48.359  40.183  42.512  0.00  0.00    +0.000 HD
ATOM     24  C   UNL     1      47.297  38.506  42.147  0.00  0.00    +0.000 C 
ATOM     25  C   UNL     1      47.112  37.145  42.773  0.00  0.00    +0.000 C 
ENDBRANCH  14  17
ENDBRANCH   5  14
BRANCH   1  26
ATOM     26  O   UNL     1      46.417  35.034  43.170  0.00  0.00    +0.000 OA
BRANCH  26  28
ATOM     27  O   UNL     1      44.656  35.275  45.065  0.00  0.00    +0.000 OA
ATOM     28  P   UNL     1      45.494  34.253  44.332  0.00  0.00    +0.000 P 
BRANCH  28  29
ATOM     29  O   UNL     1      44.535  33.059  43.640  0.00  0.00    +0.000 OA
ATOM     30  H   UNL     1      43.656  33.435  43.386  0.00  0.00    +0.000 HD
ENDBRANCH  28  29
BRANCH  28  31
ATOM     31  O   UNL     1      46.517  33.462  45.414  0.00  0.00    +0.000 OA
BRANCH  31  32
ATOM     32  C   UNL     1      46.206  32.136  45.418  0.00  0.00    +0.000 C 
ATOM     33  H   UNL     1      47.141  31.578  45.112  0.00  0.00    +0.000 HD
ATOM     34  H   UNL     1      45.432  31.782  44.748  0.00  0.00    +0.000 HD
BRANCH  32  37
ATOM     35  C   UNL     1      45.757  32.036  49.119  0.00  0.00    +0.000 A 
ATOM     36  C   UNL     1      46.060  32.527  47.839  0.00  0.00    +0.000 A 
ATOM     37  C   UNL     1      45.895  31.647  46.776  0.00  0.00    +0.000 A 
ATOM     38  N   UNL     1      45.458  30.384  47.030  0.00  0.00    +0.000 NA
ATOM     39  C   UNL     1      45.174  29.935  48.258  0.00  0.00    +0.000 A 
ATOM     40  N   UNL     1      45.327  30.771  49.299  0.00  0.00    +0.000 NA
ATOM     41  H   UNL     1      45.871  32.688  49.996  0.00  0.00    +0.000 HD
ATOM     42  H   UNL     1      46.403  33.544  47.721  0.00  0.00    +0.000 HD
ATOM     43  H   UNL     1      44.831  28.928  48.439  0.00  0.00    +0.000 HD
ENDBRANCH  32  37
ENDBRANCH  31  32
ENDBRANCH  28  31
ENDBRANCH  26  28
ENDBRANCH   1  26
TORSDOF 8
