
 OpenBabel03252506583D

 38 42  0  0  0  0  0  0  0  0999 V2000
   36.5560   30.5540   38.8310 C   0  0  0  0  0  0  0  0  0  0  0  0
   35.7000   29.4610   38.8580 C   0  0  0  0  0  0  0  0  0  0  0  0
   35.5810   28.6230   39.9410 C   0  0  0  0  0  0  0  0  0  0  0  0
   36.3440   28.8580   41.0810 C   0  0  0  0  0  0  0  0  0  0  0  0
   36.4890   28.2680   42.3000 N   0  0  0  0  0  0  0  0  0  0  0  0
   37.4060   28.9680   43.0120 C   0  0  0  0  0  0  0  0  0  0  0  0
   37.8240   29.9930   42.2240 N   0  0  0  0  0  0  0  0  0  0  0  0
   37.1860   29.9410   41.0450 C   0  0  0  0  0  0  0  0  0  0  0  0
   37.3260   30.7900   39.9840 C   0  0  0  0  0  0  0  0  0  0  0  0
   36.6410   31.2100   37.9660 H   0  0  0  0  0  0  0  0  0  0  0  0
   34.9090   27.7770   39.9440 H   0  0  0  0  0  0  0  0  0  0  0  0
   35.9460   27.4230   42.5560 H   0  0  0  0  0  0  0  0  0  0  0  0
   37.7160   28.7160   44.0230 H   0  0  0  0  0  0  0  0  0  0  0  0
   32.8160   28.6420   36.7290 C   0  0  0  0  0  0  0  0  0  0  0  0
   33.3650   28.6640   35.4510 C   0  0  0  0  0  0  0  0  0  0  0  0
   34.7190   28.9590   35.3170 C   0  0  0  0  0  0  0  0  0  0  0  0
   35.4510   29.2130   36.4480 N   0  0  0  0  0  0  0  0  0  0  0  0
   34.8810   29.1820   37.6750 C   0  0  0  0  0  0  0  0  0  0  0  0
   33.5780   28.9000   37.8100 N   0  0  0  0  0  0  0  0  0  0  0  0
   31.7590   28.4090   36.7870 H   0  0  0  0  0  0  0  0  0  0  0  0
   32.8230   28.4690   34.5320 H   0  0  0  0  0  0  0  0  0  0  0  0
   35.2450   29.0000   34.3550 H   0  0  0  0  0  0  0  0  0  0  0  0
   38.2560   31.9270   40.0340 C   0  0  0  0  0  0  0  0  0  0  0  0
   37.8840   33.2490   40.0920 C   0  0  0  0  0  0  0  0  0  0  0  0
   39.0840   33.9570   40.1220 C   0  0  0  0  0  0  0  0  0  0  0  0
   40.1010   33.0290   40.0810 C   0  0  0  0  0  0  0  0  0  0  0  0
   39.5680   31.8270   40.0290 O   0  0  0  0  0  0  0  0  0  0  0  0
   36.8890   33.6740   40.1100 H   0  0  0  0  0  0  0  0  0  0  0  0
   39.2320   35.0260   40.1690 H   0  0  0  0  0  0  0  0  0  0  0  0
   41.5040   33.2430   40.0910 N   0  0  0  0  0  0  0  0  0  0  0  0
   42.2490   33.6630   38.9440 C   0  0  0  0  0  3  0  0  0  0  0  0
   41.7450   34.5650   38.5150 H   0  0  0  0  0  0  0  0  0  0  0  0
   43.6780   33.9610   39.2220 C   0  0  0  0  0  3  0  0  0  0  0  0
   44.0210   34.6580   38.4020 H   0  0  0  0  0  0  0  0  0  0  0  0
   43.9600   34.6060   40.4640 N   0  0  0  0  0  0  0  0  0  0  0  0
   44.0200   35.6650   40.3780 H   0  0  0  0  0  0  0  0  0  0  0  0
   43.0320   34.3570   41.5230 C   0  0  0  0  0  2  0  0  0  0  0  0
   42.3330   33.0590   41.2660 C   0  0  0  0  0  2  0  0  0  0  0  0
  1  2  2  0  0  0  0
  1  9  1  0  0  0  0
  2  3  1  0  0  0  0
  3 11  1  0  0  0  0
  3  4  2  0  0  0  0
  4  5  1  0  0  0  0
  5 12  1  0  0  0  0
  5  6  1  0  0  0  0
  6 13  1  0  0  0  0
  7  6  2  0  0  0  0
  8  4  1  0  0  0  0
  8  7  1  0  0  0  0
  9 23  1  0  0  0  0
  9  8  2  0  0  0  0
 10  1  1  0  0  0  0
 14 20  1  0  0  0  0
 14 19  1  0  0  0  0
 15 14  2  0  0  0  0
 16 15  1  0  0  0  0
 16 17  2  0  0  0  0
 17 18  1  0  0  0  0
 18 19  2  0  0  0  0
 18  2  1  0  0  0  0
 21 15  1  0  0  0  0
 22 16  1  0  0  0  0
 23 24  2  0  0  0  0
 24 28  1  0  0  0  0
 24 25  1  0  0  0  0
 25 29  1  0  0  0  0
 26 30  1  0  0  0  0
 26 25  2  0  0  0  0
 27 23  1  0  0  0  0
 27 26  1  0  0  0  0
 30 38  1  0  0  0  0
 31 33  1  0  0  0  0
 31 30  1  0  0  0  0
 32 31  1  0  0  0  0
 33 35  1  0  0  0  0
 34 33  1  0  0  0  0
 35 37  1  0  0  0  0
 36 35  1  0  0  0  0
 38 37  1  0  0  0  0
M  END
>  <minimizedAffinity>
-6.31927109

$$$$

 OpenBabel03252506583D

 38 42  0  0  0  0  0  0  0  0999 V2000
   36.9600   25.6680   40.5580 C   0  0  0  0  0  0  0  0  0  0  0  0
   37.3880   24.3920   40.8960 C   0  0  0  0  0  0  0  0  0  0  0  0
   38.3120   24.1430   41.8840 C   0  0  0  0  0  0  0  0  0  0  0  0
   38.8610   25.2050   42.5970 C   0  0  0  0  0  0  0  0  0  0  0  0
   39.7660   25.3420   43.6050 N   0  0  0  0  0  0  0  0  0  0  0  0
   39.9000   26.6610   43.8880 C   0  0  0  0  0  0  0  0  0  0  0  0
   39.0710   27.3350   43.0480 N   0  0  0  0  0  0  0  0  0  0  0  0
   38.4310   26.4620   42.2550 C   0  0  0  0  0  0  0  0  0  0  0  0
   37.5160   26.7390   41.2790 C   0  0  0  0  0  0  0  0  0  0  0  0
   36.2280   25.8510   39.7730 H   0  0  0  0  0  0  0  0  0  0  0  0
   38.6340   23.1420   42.1330 H   0  0  0  0  0  0  0  0  0  0  0  0
   40.2290   24.5170   44.0280 H   0  0  0  0  0  0  0  0  0  0  0  0
   40.5610   27.0570   44.6550 H   0  0  0  0  0  0  0  0  0  0  0  0
   35.0700   22.2650   38.9920 C   0  0  0  0  0  0  0  0  0  0  0  0
   35.8080   21.1020   38.8040 C   0  0  0  0  0  0  0  0  0  0  0  0
   37.0980   21.0440   39.3280 C   0  0  0  0  0  0  0  0  0  0  0  0
   37.5810   22.1330   40.0040 N   0  0  0  0  0  0  0  0  0  0  0  0
   36.8320   23.2490   40.1660 C   0  0  0  0  0  0  0  0  0  0  0  0
   35.5910   23.3100   39.6650 N   0  0  0  0  0  0  0  0  0  0  0  0
   34.0720   22.2680   38.5680 H   0  0  0  0  0  0  0  0  0  0  0  0
   35.4650   20.2190   38.2770 H   0  0  0  0  0  0  0  0  0  0  0  0
   37.7580   20.1730   39.2340 H   0  0  0  0  0  0  0  0  0  0  0  0
   37.1140   28.1210   40.9810 C   0  0  0  0  0  0  0  0  0  0  0  0
   35.8580   28.6400   41.1880 C   0  0  0  0  0  0  0  0  0  0  0  0
   35.9440   29.9650   40.7650 C   0  0  0  0  0  0  0  0  0  0  0  0
   37.2360   30.1670   40.3300 C   0  0  0  0  0  0  0  0  0  0  0  0
   37.9050   29.0420   40.4750 O   0  0  0  0  0  0  0  0  0  0  0  0
   34.9790   28.1520   41.5890 H   0  0  0  0  0  0  0  0  0  0  0  0
   35.1720   30.7210   40.7610 H   0  0  0  0  0  0  0  0  0  0  0  0
   37.8260   31.3460   39.8060 N   0  0  0  0  0  0  0  0  0  0  0  0
   38.5120   32.3130   40.6070 C   0  0  0  0  0  3  0  0  0  0  0  0
   39.2680   31.7720   41.2300 H   0  0  0  0  0  0  0  0  0  0  0  0
   39.1710   33.3920   39.8270 C   0  0  0  0  0  3  0  0  0  0  0  0
   39.9900   33.8030   40.4880 H   0  0  0  0  0  0  0  0  0  0  0  0
   39.7820   33.0020   38.5980 N   0  0  0  0  0  0  0  0  0  0  0  0
   40.8190   32.7900   38.6970 H   0  0  0  0  0  0  0  0  0  0  0  0
   39.2150   31.8590   37.9520 C   0  0  0  0  0  2  0  0  0  0  0  0
   37.7960   31.6980   38.3990 C   0  0  0  0  0  2  0  0  0  0  0  0
  1  2  2  0  0  0  0
  1  9  1  0  0  0  0
  2  3  1  0  0  0  0
  3 11  1  0  0  0  0
  3  4  2  0  0  0  0
  4  5  1  0  0  0  0
  5  6  1  0  0  0  0
  5 12  1  0  0  0  0
  6 13  1  0  0  0  0
  7  6  2  0  0  0  0
  8  4  1  0  0  0  0
  8  7  1  0  0  0  0
  9  8  2  0  0  0  0
 10  1  1  0  0  0  0
 14 19  1  0  0  0  0
 15 14  2  0  0  0  0
 15 16  1  0  0  0  0
 16 17  2  0  0  0  0
 17 18  1  0  0  0  0
 18  2  1  0  0  0  0
 19 18  2  0  0  0  0
 20 14  1  0  0  0  0
 21 15  1  0  0  0  0
 22 16  1  0  0  0  0
 23 24  2  0  0  0  0
 23  9  1  0  0  0  0
 24 28  1  0  0  0  0
 25 24  1  0  0  0  0
 26 27  1  0  0  0  0
 26 25  2  0  0  0  0
 27 23  1  0  0  0  0
 29 25  1  0  0  0  0
 30 26  1  0  0  0  0
 30 31  1  0  0  0  0
 31 32  1  0  0  0  0
 33 34  1  0  0  0  0
 33 31  1  0  0  0  0
 35 36  1  0  0  0  0
 35 33  1  0  0  0  0
 37 38  1  0  0  0  0
 37 35  1  0  0  0  0
 38 30  1  0  0  0  0
M  END
>  <minimizedAffinity>
-6.21029043

$$$$

 OpenBabel03252506583D

 38 42  0  0  0  0  0  0  0  0999 V2000
   36.6370   25.3020   40.1990 C   0  0  0  0  0  0  0  0  0  0  0  0
   36.8350   23.9380   40.3730 C   0  0  0  0  0  0  0  0  0  0  0  0
   37.7320   23.4150   41.2740 C   0  0  0  0  0  0  0  0  0  0  0  0
   38.4930   24.2710   42.0640 C   0  0  0  0  0  0  0  0  0  0  0  0
   39.4450   24.1250   43.0280 N   0  0  0  0  0  0  0  0  0  0  0  0
   39.8290   25.3570   43.4440 C   0  0  0  0  0  0  0  0  0  0  0  0
   39.1080   26.2610   42.7300 N   0  0  0  0  0  0  0  0  0  0  0  0
   38.2900   25.6160   41.8850 C   0  0  0  0  0  0  0  0  0  0  0  0
   37.4060   26.1640   40.9990 C   0  0  0  0  0  0  0  0  0  0  0  0
   35.9230   25.7020   39.4820 H   0  0  0  0  0  0  0  0  0  0  0  0
   37.8740   22.3510   41.3950 H   0  0  0  0  0  0  0  0  0  0  0  0
   39.7630   23.1870   43.3320 H   0  0  0  0  0  0  0  0  0  0  0  0
   40.5790   25.5360   44.2100 H   0  0  0  0  0  0  0  0  0  0  0  0
   34.0140   22.3690   38.6110 C   0  0  0  0  0  0  0  0  0  0  0  0
   34.6020   21.2530   38.0280 C   0  0  0  0  0  0  0  0  0  0  0  0
   35.9620   21.0360   38.2350 C   0  0  0  0  0  0  0  0  0  0  0  0
   36.6590   21.9300   39.0050 N   0  0  0  0  0  0  0  0  0  0  0  0
   36.0520   23.0060   39.5570 C   0  0  0  0  0  0  0  0  0  0  0  0
   34.7430   23.2200   39.3600 N   0  0  0  0  0  0  0  0  0  0  0  0
   32.9540   22.5000   38.4240 H   0  0  0  0  0  0  0  0  0  0  0  0
   34.0880   20.5220   37.4130 H   0  0  0  0  0  0  0  0  0  0  0  0
   36.5180   20.1870   37.8190 H   0  0  0  0  0  0  0  0  0  0  0  0
   37.2550   27.6210   40.8750 C   0  0  0  0  0  0  0  0  0  0  0  0
   36.4020   28.3930   41.6270 C   0  0  0  0  0  0  0  0  0  0  0  0
   36.5970   29.6930   41.1670 C   0  0  0  0  0  0  0  0  0  0  0  0
   37.5470   29.6320   40.1730 C   0  0  0  0  0  0  0  0  0  0  0  0
   37.9180   28.3770   40.0260 O   0  0  0  0  0  0  0  0  0  0  0  0
   35.7190   28.0850   42.4090 H   0  0  0  0  0  0  0  0  0  0  0  0
   36.1150   30.6020   41.4980 H   0  0  0  0  0  0  0  0  0  0  0  0
   38.0910   30.6850   39.3920 N   0  0  0  0  0  0  0  0  0  0  0  0
   39.4950   30.9370   39.2700 C   0  0  0  0  0  3  0  0  0  0  0  0
   39.9950   29.9780   38.9880 H   0  0  0  0  0  0  0  0  0  0  0  0
   39.8380   32.0010   38.2900 C   0  0  0  0  0  3  0  0  0  0  0  0
   40.9070   31.8080   37.9780 H   0  0  0  0  0  0  0  0  0  0  0  0
   39.0550   32.0390   37.0980 N   0  0  0  0  0  0  0  0  0  0  0  0
   39.4990   31.5070   36.2910 H   0  0  0  0  0  0  0  0  0  0  0  0
   37.7230   31.5320   37.2070 C   0  0  0  0  0  2  0  0  0  0  0  0
   37.2820   31.6200   38.6350 C   0  0  0  0  0  2  0  0  0  0  0  0
  1  2  2  0  0  0  0
  1  9  1  0  0  0  0
  2  3  1  0  0  0  0
  3 11  1  0  0  0  0
  3  4  2  0  0  0  0
  4  5  1  0  0  0  0
  5 12  1  0  0  0  0
  5  6  1  0  0  0  0
  6 13  1  0  0  0  0
  7  6  2  0  0  0  0
  8  4  1  0  0  0  0
  8  7  1  0  0  0  0
  9  8  2  0  0  0  0
 10  1  1  0  0  0  0
 14 19  1  0  0  0  0
 15 16  1  0  0  0  0
 15 14  2  0  0  0  0
 16 17  2  0  0  0  0
 17 18  1  0  0  0  0
 18  2  1  0  0  0  0
 19 18  2  0  0  0  0
 20 14  1  0  0  0  0
 21 15  1  0  0  0  0
 22 16  1  0  0  0  0
 23  9  1  0  0  0  0
 23 24  2  0  0  0  0
 24 28  1  0  0  0  0
 25 29  1  0  0  0  0
 25 24  1  0  0  0  0
 26 25  2  0  0  0  0
 27 26  1  0  0  0  0
 27 23  1  0  0  0  0
 30 26  1  0  0  0  0
 31 30  1  0  0  0  0
 32 31  1  0  0  0  0
 33 31  1  0  0  0  0
 34 33  1  0  0  0  0
 35 37  1  0  0  0  0
 35 33  1  0  0  0  0
 36 35  1  0  0  0  0
 37 38  1  0  0  0  0
 38 30  1  0  0  0  0
M  END
>  <minimizedAffinity>
-6.0957303

$$$$

 OpenBabel03252506583D

 38 42  0  0  0  0  0  0  0  0999 V2000
   36.7560   25.5980   40.3050 C   0  0  0  0  0  0  0  0  0  0  0  0
   36.8760   24.2150   40.3480 C   0  0  0  0  0  0  0  0  0  0  0  0
   37.7400   23.5590   41.1930 C   0  0  0  0  0  0  0  0  0  0  0  0
   38.5460   24.2920   42.0590 C   0  0  0  0  0  0  0  0  0  0  0  0
   39.4850   24.0020   43.0020 N   0  0  0  0  0  0  0  0  0  0  0  0
   39.9370   25.1650   43.5320 C   0  0  0  0  0  0  0  0  0  0  0  0
   39.2700   26.1720   42.9090 N   0  0  0  0  0  0  0  0  0  0  0  0
   38.4190   25.6570   42.0090 C   0  0  0  0  0  0  0  0  0  0  0  0
   37.5700   26.3360   41.1820 C   0  0  0  0  0  0  0  0  0  0  0  0
   36.0670   26.1040   39.6310 H   0  0  0  0  0  0  0  0  0  0  0  0
   37.8210   22.4820   41.2120 H   0  0  0  0  0  0  0  0  0  0  0  0
   39.7490   23.0220   43.2140 H   0  0  0  0  0  0  0  0  0  0  0  0
   40.6940   25.2280   44.3100 H   0  0  0  0  0  0  0  0  0  0  0  0
   34.0080   22.3710   38.9700 C   0  0  0  0  0  0  0  0  0  0  0  0
   34.5010   21.9050   37.7570 C   0  0  0  0  0  0  0  0  0  0  0  0
   35.8120   22.2190   37.4090 C   0  0  0  0  0  0  0  0  0  0  0  0
   36.5580   22.9730   38.2770 N   0  0  0  0  0  0  0  0  0  0  0  0
   36.0430   23.4100   39.4490 C   0  0  0  0  0  0  0  0  0  0  0  0
   34.7820   23.1100   39.7890 N   0  0  0  0  0  0  0  0  0  0  0  0
   32.9830   22.1040   39.2010 H   0  0  0  0  0  0  0  0  0  0  0  0
   33.9460   21.3060   37.0430 H   0  0  0  0  0  0  0  0  0  0  0  0
   36.2930   21.8990   36.4760 H   0  0  0  0  0  0  0  0  0  0  0  0
   37.5020   27.8040   41.1970 C   0  0  0  0  0  0  0  0  0  0  0  0
   36.5070   28.5410   41.7940 C   0  0  0  0  0  0  0  0  0  0  0  0
   36.8550   29.8700   41.5560 C   0  0  0  0  0  0  0  0  0  0  0  0
   38.0280   29.8570   40.8340 C   0  0  0  0  0  0  0  0  0  0  0  0
   38.3840   28.6040   40.6390 O   0  0  0  0  0  0  0  0  0  0  0  0
   35.6360   28.1940   42.3360 H   0  0  0  0  0  0  0  0  0  0  0  0
   36.3320   30.7650   41.8590 H   0  0  0  0  0  0  0  0  0  0  0  0
   38.7870   30.9520   40.3480 N   0  0  0  0  0  0  0  0  0  0  0  0
   39.2650   31.0490   39.0020 C   0  0  0  0  0  3  0  0  0  0  0  0
   38.4010   30.8700   38.3150 H   0  0  0  0  0  0  0  0  0  0  0  0
   39.9140   32.3470   38.6790 C   0  0  0  0  0  3  0  0  0  0  0  0
   39.8470   32.4620   37.5570 H   0  0  0  0  0  0  0  0  0  0  0  0
   39.3210   33.5110   39.2550 N   0  0  0  0  0  0  0  0  0  0  0  0
   38.6260   33.9880   38.6060 H   0  0  0  0  0  0  0  0  0  0  0  0
   38.6250   33.3150   40.4880 C   0  0  0  0  0  2  0  0  0  0  0  0
   39.1610   32.0910   41.1630 C   0  0  0  0  0  2  0  0  0  0  0  0
  1  2  2  0  0  0  0
  1  9  1  0  0  0  0
  2  3  1  0  0  0  0
  3 11  1  0  0  0  0
  3  4  2  0  0  0  0
  4  5  1  0  0  0  0
  5 12  1  0  0  0  0
  5  6  1  0  0  0  0
  6 13  1  0  0  0  0
  7  6  2  0  0  0  0
  8  4  1  0  0  0  0
  8  7  1  0  0  0  0
  9 23  1  0  0  0  0
  9  8  2  0  0  0  0
 10  1  1  0  0  0  0
 14 20  1  0  0  0  0
 14 19  1  0  0  0  0
 15 14  2  0  0  0  0
 16 15  1  0  0  0  0
 16 17  2  0  0  0  0
 17 18  1  0  0  0  0
 18 19  2  0  0  0  0
 18  2  1  0  0  0  0
 21 15  1  0  0  0  0
 22 16  1  0  0  0  0
 23 24  2  0  0  0  0
 24 28  1  0  0  0  0
 25 24  1  0  0  0  0
 25 29  1  0  0  0  0
 26 25  2  0  0  0  0
 27 26  1  0  0  0  0
 27 23  1  0  0  0  0
 30 26  1  0  0  0  0
 30 38  1  0  0  0  0
 31 30  1  0  0  0  0
 32 31  1  0  0  0  0
 33 31  1  0  0  0  0
 33 35  1  0  0  0  0
 34 33  1  0  0  0  0
 35 37  1  0  0  0  0
 36 35  1  0  0  0  0
 37 38  1  0  0  0  0
M  END
>  <minimizedAffinity>
-5.99798822

$$$$

 OpenBabel03252506583D

 38 42  0  0  0  0  0  0  0  0999 V2000
   40.8340   31.1640   37.9160 C   0  0  0  0  0  0  0  0  0  0  0  0
   41.9100   32.0260   37.7500 C   0  0  0  0  0  0  0  0  0  0  0  0
   41.9530   33.2920   38.2860 C   0  0  0  0  0  0  0  0  0  0  0  0
   40.8780   33.7580   39.0370 C   0  0  0  0  0  0  0  0  0  0  0  0
   40.5740   34.9090   39.6990 N   0  0  0  0  0  0  0  0  0  0  0  0
   39.3480   34.7710   40.2610 C   0  0  0  0  0  0  0  0  0  0  0  0
   38.9000   33.5290   39.9420 N   0  0  0  0  0  0  0  0  0  0  0  0
   39.8200   32.8990   39.1960 C   0  0  0  0  0  0  0  0  0  0  0  0
   39.7500   31.6380   38.6760 C   0  0  0  0  0  0  0  0  0  0  0  0
   40.8140   30.1650   37.4860 H   0  0  0  0  0  0  0  0  0  0  0  0
   42.7990   33.9490   38.1450 H   0  0  0  0  0  0  0  0  0  0  0  0
   41.2320   35.7090   39.7170 H   0  0  0  0  0  0  0  0  0  0  0  0
   38.8560   35.5420   40.8510 H   0  0  0  0  0  0  0  0  0  0  0  0
   45.3250   31.7260   36.4180 C   0  0  0  0  0  0  0  0  0  0  0  0
   45.1990   30.7020   35.4860 C   0  0  0  0  0  0  0  0  0  0  0  0
   43.9480   30.1150   35.3120 C   0  0  0  0  0  0  0  0  0  0  0  0
   42.8990   30.5710   36.0650 N   0  0  0  0  0  0  0  0  0  0  0  0
   43.0600   31.5700   36.9640 C   0  0  0  0  0  0  0  0  0  0  0  0
   44.2610   32.1390   37.1350 N   0  0  0  0  0  0  0  0  0  0  0  0
   46.3150   32.1550   36.5210 H   0  0  0  0  0  0  0  0  0  0  0  0
   46.0020   30.3130   34.8690 H   0  0  0  0  0  0  0  0  0  0  0  0
   43.7460   29.3030   34.6030 H   0  0  0  0  0  0  0  0  0  0  0  0
   38.5740   30.7850   38.8980 C   0  0  0  0  0  0  0  0  0  0  0  0
   37.3520   30.9530   38.2920 C   0  0  0  0  0  0  0  0  0  0  0  0
   36.5560   29.9280   38.8010 C   0  0  0  0  0  0  0  0  0  0  0  0
   37.3370   29.2080   39.6770 C   0  0  0  0  0  0  0  0  0  0  0  0
   38.5370   29.7500   39.7090 O   0  0  0  0  0  0  0  0  0  0  0  0
   37.0470   31.7050   37.5760 H   0  0  0  0  0  0  0  0  0  0  0  0
   35.5220   29.7070   38.5780 H   0  0  0  0  0  0  0  0  0  0  0  0
   36.9920   28.0690   40.4500 N   0  0  0  0  0  0  0  0  0  0  0  0
   37.2610   26.7240   40.0420 C   0  0  0  0  0  3  0  0  0  0  0  0
   38.3400   26.6580   39.7570 H   0  0  0  0  0  0  0  0  0  0  0  0
   36.9410   25.7010   41.0710 C   0  0  0  0  0  3  0  0  0  0  0  0
   37.5680   24.7950   40.8200 H   0  0  0  0  0  0  0  0  0  0  0  0
   37.2340   26.0510   42.4230 N   0  0  0  0  0  0  0  0  0  0  0  0
   38.1880   25.7070   42.7450 H   0  0  0  0  0  0  0  0  0  0  0  0
   37.2040   27.4470   42.7290 C   0  0  0  0  0  2  0  0  0  0  0  0
   36.3280   28.1470   41.7370 C   0  0  0  0  0  2  0  0  0  0  0  0
  1  9  1  0  0  0  0
  2  1  2  0  0  0  0
  2  3  1  0  0  0  0
  3  4  2  0  0  0  0
  4  8  1  0  0  0  0
  4  5  1  0  0  0  0
  5 12  1  0  0  0  0
  5  6  1  0  0  0  0
  6 13  1  0  0  0  0
  7  6  2  0  0  0  0
  8  7  1  0  0  0  0
  9 23  1  0  0  0  0
  9  8  2  0  0  0  0
 10  1  1  0  0  0  0
 11  3  1  0  0  0  0
 14 20  1  0  0  0  0
 14 19  1  0  0  0  0
 15 14  2  0  0  0  0
 16 15  1  0  0  0  0
 16 17  2  0  0  0  0
 17 18  1  0  0  0  0
 18 19  2  0  0  0  0
 18  2  1  0  0  0  0
 21 15  1  0  0  0  0
 22 16  1  0  0  0  0
 23 27  1  0  0  0  0
 24 25  1  0  0  0  0
 24 23  2  0  0  0  0
 25 26  2  0  0  0  0
 26 27  1  0  0  0  0
 26 30  1  0  0  0  0
 28 24  1  0  0  0  0
 29 25  1  0  0  0  0
 30 38  1  0  0  0  0
 31 30  1  0  0  0  0
 31 33  1  0  0  0  0
 32 31  1  0  0  0  0
 33 35  1  0  0  0  0
 34 33  1  0  0  0  0
 35 37  1  0  0  0  0
 35 36  1  0  0  0  0
 38 37  1  0  0  0  0
M  END
>  <minimizedAffinity>
-5.9355216

$$$$

 OpenBabel03252506583D

 38 42  0  0  0  0  0  0  0  0999 V2000
   41.1900   31.7170   40.7900 C   0  0  0  0  0  0  0  0  0  0  0  0
   41.7080   32.7120   39.9720 C   0  0  0  0  0  0  0  0  0  0  0  0
   41.1880   33.0190   38.7370 C   0  0  0  0  0  0  0  0  0  0  0  0
   40.0880   32.3140   38.2580 C   0  0  0  0  0  0  0  0  0  0  0  0
   39.3290   32.3360   37.1270 N   0  0  0  0  0  0  0  0  0  0  0  0
   38.3670   31.3860   37.2350 C   0  0  0  0  0  0  0  0  0  0  0  0
   38.5390   30.7800   38.4380 N   0  0  0  0  0  0  0  0  0  0  0  0
   39.5830   31.3340   39.0740 C   0  0  0  0  0  0  0  0  0  0  0  0
   40.0780   31.0070   40.3040 C   0  0  0  0  0  0  0  0  0  0  0  0
   41.6120   31.4840   41.7660 H   0  0  0  0  0  0  0  0  0  0  0  0
   41.6040   33.7970   38.1130 H   0  0  0  0  0  0  0  0  0  0  0  0
   39.5260   33.0040   36.3600 H   0  0  0  0  0  0  0  0  0  0  0  0
   37.6190   31.1850   36.4710 H   0  0  0  0  0  0  0  0  0  0  0  0
   45.0740   34.1810   40.1550 C   0  0  0  0  0  0  0  0  0  0  0  0
   45.0250   34.9080   41.3390 C   0  0  0  0  0  0  0  0  0  0  0  0
   43.8420   34.8980   42.0740 C   0  0  0  0  0  0  0  0  0  0  0  0
   42.7810   34.1710   41.6000 N   0  0  0  0  0  0  0  0  0  0  0  0
   42.8670   33.4750   40.4430 C   0  0  0  0  0  0  0  0  0  0  0  0
   44.0030   33.4820   39.7310 N   0  0  0  0  0  0  0  0  0  0  0  0
   46.0130   34.2160   39.6150 H   0  0  0  0  0  0  0  0  0  0  0  0
   45.8400   35.4950   41.7500 H   0  0  0  0  0  0  0  0  0  0  0  0
   43.7030   35.4380   43.0190 H   0  0  0  0  0  0  0  0  0  0  0  0
   39.4720   29.9380   41.1110 C   0  0  0  0  0  0  0  0  0  0  0  0
   38.5490   30.1310   42.1120 C   0  0  0  0  0  0  0  0  0  0  0  0
   38.2660   28.8530   42.5880 C   0  0  0  0  0  0  0  0  0  0  0  0
   39.0260   27.9700   41.8540 C   0  0  0  0  0  0  0  0  0  0  0  0
   39.7350   28.6550   40.9810 O   0  0  0  0  0  0  0  0  0  0  0  0
   38.1220   31.0580   42.4710 H   0  0  0  0  0  0  0  0  0  0  0  0
   37.5870   28.5660   43.3780 H   0  0  0  0  0  0  0  0  0  0  0  0
   39.0960   26.5560   41.9530 N   0  0  0  0  0  0  0  0  0  0  0  0
   39.7640   25.8690   43.0160 C   0  0  0  0  0  3  0  0  0  0  0  0
   39.3900   26.2850   43.9850 H   0  0  0  0  0  0  0  0  0  0  0  0
   39.5860   24.3930   42.9920 C   0  0  0  0  0  3  0  0  0  0  0  0
   39.7670   24.0370   44.0490 H   0  0  0  0  0  0  0  0  0  0  0  0
   38.2980   23.9170   42.6050 N   0  0  0  0  0  0  0  0  0  0  0  0
   37.6590   23.7240   43.4340 H   0  0  0  0  0  0  0  0  0  0  0  0
   37.5510   24.7700   41.7340 C   0  0  0  0  0  2  0  0  0  0  0  0
   38.4980   25.6560   40.9870 C   0  0  0  0  0  2  0  0  0  0  0  0
  1 10  1  0  0  0  0
  2 18  1  0  0  0  0
  2  1  2  0  0  0  0
  3  2  1  0  0  0  0
  4  3  2  0  0  0  0
  4  8  1  0  0  0  0
  5  6  1  0  0  0  0
  5  4  1  0  0  0  0
  6  7  2  0  0  0  0
  7  8  1  0  0  0  0
  8  9  2  0  0  0  0
  9  1  1  0  0  0  0
  9 23  1  0  0  0  0
 11  3  1  0  0  0  0
 12  5  1  0  0  0  0
 13  6  1  0  0  0  0
 14 15  1  0  0  0  0
 15 21  1  0  0  0  0
 15 16  2  0  0  0  0
 16 22  1  0  0  0  0
 17 16  1  0  0  0  0
 18 17  2  0  0  0  0
 19 14  2  0  0  0  0
 19 18  1  0  0  0  0
 20 14  1  0  0  0  0
 23 24  2  0  0  0  0
 24 28  1  0  0  0  0
 24 25  1  0  0  0  0
 25 29  1  0  0  0  0
 26 30  1  0  0  0  0
 26 25  2  0  0  0  0
 27 23  1  0  0  0  0
 27 26  1  0  0  0  0
 30 31  1  0  0  0  0
 31 32  1  0  0  0  0
 33 31  1  0  0  0  0
 33 34  1  0  0  0  0
 35 33  1  0  0  0  0
 35 36  1  0  0  0  0
 37 35  1  0  0  0  0
 38 37  1  0  0  0  0
 38 30  1  0  0  0  0
M  END
>  <minimizedAffinity>
-5.9320941

$$$$

 OpenBabel03252506583D

 38 42  0  0  0  0  0  0  0  0999 V2000
   37.1660   27.0190   39.7060 C   0  0  0  0  0  0  0  0  0  0  0  0
   37.0460   25.8080   40.3750 C   0  0  0  0  0  0  0  0  0  0  0  0
   37.0470   25.7000   41.7450 C   0  0  0  0  0  0  0  0  0  0  0  0
   37.1730   26.8450   42.5260 C   0  0  0  0  0  0  0  0  0  0  0  0
   37.2140   27.1200   43.8600 N   0  0  0  0  0  0  0  0  0  0  0  0
   37.3540   28.4590   44.0200 C   0  0  0  0  0  0  0  0  0  0  0  0
   37.4000   29.0070   42.7770 N   0  0  0  0  0  0  0  0  0  0  0  0
   37.2900   28.0370   41.8560 C   0  0  0  0  0  0  0  0  0  0  0  0
   37.2920   28.1740   40.4970 C   0  0  0  0  0  0  0  0  0  0  0  0
   37.1630   27.0900   38.6190 H   0  0  0  0  0  0  0  0  0  0  0  0
   36.9530   24.7490   42.2490 H   0  0  0  0  0  0  0  0  0  0  0  0
   37.1420   26.3660   44.5660 H   0  0  0  0  0  0  0  0  0  0  0  0
   37.4140   28.9560   44.9850 H   0  0  0  0  0  0  0  0  0  0  0  0
   35.7440   22.6240   39.0740 C   0  0  0  0  0  0  0  0  0  0  0  0
   36.6760   22.2900   38.0980 C   0  0  0  0  0  0  0  0  0  0  0  0
   37.7490   23.1520   37.8840 C   0  0  0  0  0  0  0  0  0  0  0  0
   37.8390   24.2890   38.6440 N   0  0  0  0  0  0  0  0  0  0  0  0
   36.9120   24.5810   39.5850 C   0  0  0  0  0  0  0  0  0  0  0  0
   35.8770   23.7550   39.7950 N   0  0  0  0  0  0  0  0  0  0  0  0
   34.9260   21.9260   39.2080 H   0  0  0  0  0  0  0  0  0  0  0  0
   36.6430   21.4020   37.4770 H   0  0  0  0  0  0  0  0  0  0  0  0
   38.5360   22.9780   37.1400 H   0  0  0  0  0  0  0  0  0  0  0  0
   37.4230   29.4950   39.8640 C   0  0  0  0  0  0  0  0  0  0  0  0
   36.6670   29.9420   38.8070 C   0  0  0  0  0  0  0  0  0  0  0  0
   37.1380   31.2280   38.5500 C   0  0  0  0  0  0  0  0  0  0  0  0
   38.1420   31.4800   39.4580 C   0  0  0  0  0  0  0  0  0  0  0  0
   38.2850   30.4210   40.2270 O   0  0  0  0  0  0  0  0  0  0  0  0
   35.8760   29.4310   38.2740 H   0  0  0  0  0  0  0  0  0  0  0  0
   36.8070   31.9260   37.7940 H   0  0  0  0  0  0  0  0  0  0  0  0
   38.9350   32.6470   39.6100 N   0  0  0  0  0  0  0  0  0  0  0  0
   38.4460   33.8700   40.1680 C   0  0  0  0  0  3  0  0  0  0  0  0
   37.9560   33.6320   41.1460 H   0  0  0  0  0  0  0  0  0  0  0  0
   39.4890   34.9110   40.3610 C   0  0  0  0  0  3  0  0  0  0  0  0
   39.0970   35.6060   41.1600 H   0  0  0  0  0  0  0  0  0  0  0  0
   40.7690   34.4520   40.7960 N   0  0  0  0  0  0  0  0  0  0  0  0
   40.8900   34.4990   41.8520 H   0  0  0  0  0  0  0  0  0  0  0  0
   41.1130   33.1140   40.4270 C   0  0  0  0  0  2  0  0  0  0  0  0
   40.3280   32.7250   39.2130 C   0  0  0  0  0  2  0  0  0  0  0  0
  1  2  2  0  0  0  0
  1  9  1  0  0  0  0
  2  3  1  0  0  0  0
  3 11  1  0  0  0  0
  3  4  2  0  0  0  0
  4  5  1  0  0  0  0
  5  6  1  0  0  0  0
  5 12  1  0  0  0  0
  6 13  1  0  0  0  0
  7  6  2  0  0  0  0
  8  4  1  0  0  0  0
  8  7  1  0  0  0  0
  9  8  2  0  0  0  0
 10  1  1  0  0  0  0
 14 20  1  0  0  0  0
 14 19  1  0  0  0  0
 15 14  2  0  0  0  0
 16 15  1  0  0  0  0
 16 17  2  0  0  0  0
 17 18  1  0  0  0  0
 18 19  2  0  0  0  0
 18  2  1  0  0  0  0
 21 15  1  0  0  0  0
 22 16  1  0  0  0  0
 23 27  1  0  0  0  0
 23  9  1  0  0  0  0
 24 23  2  0  0  0  0
 25 24  1  0  0  0  0
 25 26  2  0  0  0  0
 26 30  1  0  0  0  0
 26 27  1  0  0  0  0
 28 24  1  0  0  0  0
 29 25  1  0  0  0  0
 30 31  1  0  0  0  0
 31 33  1  0  0  0  0
 31 32  1  0  0  0  0
 33 35  1  0  0  0  0
 33 34  1  0  0  0  0
 35 36  1  0  0  0  0
 37 35  1  0  0  0  0
 38 30  1  0  0  0  0
 38 37  1  0  0  0  0
M  END
>  <minimizedAffinity>
-5.90783596

$$$$

 OpenBabel03252506583D

 38 42  0  0  0  0  0  0  0  0999 V2000
   37.4140   28.8500   39.7290 C   0  0  0  0  0  0  0  0  0  0  0  0
   36.9950   27.6170   39.2470 C   0  0  0  0  0  0  0  0  0  0  0  0
   36.6210   27.4040   37.9420 C   0  0  0  0  0  0  0  0  0  0  0  0
   36.6530   28.4600   37.0350 C   0  0  0  0  0  0  0  0  0  0  0  0
   36.3660   28.6240   35.7140 N   0  0  0  0  0  0  0  0  0  0  0  0
   36.5980   29.9170   35.3800 C   0  0  0  0  0  0  0  0  0  0  0  0
   37.0290   30.5480   36.5030 N   0  0  0  0  0  0  0  0  0  0  0  0
   37.0680   29.6750   37.5210 C   0  0  0  0  0  0  0  0  0  0  0  0
   37.4460   29.9150   38.8110 C   0  0  0  0  0  0  0  0  0  0  0  0
   37.7080   29.0040   40.7660 H   0  0  0  0  0  0  0  0  0  0  0  0
   36.2970   26.4370   37.5850 H   0  0  0  0  0  0  0  0  0  0  0  0
   36.0300   27.8330   35.1350 H   0  0  0  0  0  0  0  0  0  0  0  0
   36.4500   30.3260   34.3830 H   0  0  0  0  0  0  0  0  0  0  0  0
   36.5070   24.2260   40.5840 C   0  0  0  0  0  0  0  0  0  0  0  0
   36.8660   24.3700   41.9190 C   0  0  0  0  0  0  0  0  0  0  0  0
   37.2760   25.6250   42.3630 C   0  0  0  0  0  0  0  0  0  0  0  0
   37.3060   26.6610   41.4660 N   0  0  0  0  0  0  0  0  0  0  0  0
   36.9480   26.4820   40.1730 C   0  0  0  0  0  0  0  0  0  0  0  0
   36.5530   25.2760   39.7410 N   0  0  0  0  0  0  0  0  0  0  0  0
   36.1950   23.2330   40.2810 H   0  0  0  0  0  0  0  0  0  0  0  0
   36.8570   23.5790   42.6610 H   0  0  0  0  0  0  0  0  0  0  0  0
   37.5780   25.8420   43.3950 H   0  0  0  0  0  0  0  0  0  0  0  0
   37.8780   31.2520   39.2430 C   0  0  0  0  0  0  0  0  0  0  0  0
   37.0340   32.2930   39.5510 C   0  0  0  0  0  0  0  0  0  0  0  0
   37.8780   33.3450   39.9010 C   0  0  0  0  0  0  0  0  0  0  0  0
   39.1700   32.8830   39.7850 C   0  0  0  0  0  0  0  0  0  0  0  0
   39.1310   31.6270   39.3900 O   0  0  0  0  0  0  0  0  0  0  0  0
   35.9530   32.3180   39.5330 H   0  0  0  0  0  0  0  0  0  0  0  0
   37.6110   34.3460   40.2090 H   0  0  0  0  0  0  0  0  0  0  0  0
   40.3880   33.5690   40.0300 N   0  0  0  0  0  0  0  0  0  0  0  0
   41.4760   33.0100   40.7730 C   0  0  0  0  0  3  0  0  0  0  0  0
   41.7050   32.0020   40.3460 H   0  0  0  0  0  0  0  0  0  0  0  0
   42.7020   33.8510   40.7810 C   0  0  0  0  0  3  0  0  0  0  0  0
   43.5620   33.1520   41.0000 H   0  0  0  0  0  0  0  0  0  0  0  0
   43.0130   34.5280   39.5640 N   0  0  0  0  0  0  0  0  0  0  0  0
   43.6950   33.9890   38.9500 H   0  0  0  0  0  0  0  0  0  0  0  0
   41.9020   34.8420   38.7210 C   0  0  0  0  0  2  0  0  0  0  0  0
   40.6600   34.9110   39.5540 C   0  0  0  0  0  2  0  0  0  0  0  0
  1 10  1  0  0  0  0
  2  1  1  0  0  0  0
  2 18  1  0  0  0  0
  3  2  2  0  0  0  0
  4  8  2  0  0  0  0
  4  3  1  0  0  0  0
  5  4  1  0  0  0  0
  6  5  1  0  0  0  0
  6  7  2  0  0  0  0
  7  8  1  0  0  0  0
  8  9  1  0  0  0  0
  9 23  1  0  0  0  0
  9  1  2  0  0  0  0
 11  3  1  0  0  0  0
 12  5  1  0  0  0  0
 13  6  1  0  0  0  0
 14 15  1  0  0  0  0
 15 16  2  0  0  0  0
 15 21  1  0  0  0  0
 16 22  1  0  0  0  0
 17 16  1  0  0  0  0
 18 17  2  0  0  0  0
 19 18  1  0  0  0  0
 19 14  2  0  0  0  0
 20 14  1  0  0  0  0
 23 27  1  0  0  0  0
 23 24  2  0  0  0  0
 24 25  1  0  0  0  0
 25 29  1  0  0  0  0
 26 25  2  0  0  0  0
 26 30  1  0  0  0  0
 27 26  1  0  0  0  0
 28 24  1  0  0  0  0
 30 31  1  0  0  0  0
 31 33  1  0  0  0  0
 32 31  1  0  0  0  0
 33 34  1  0  0  0  0
 35 33  1  0  0  0  0
 36 35  1  0  0  0  0
 37 38  1  0  0  0  0
 37 35  1  0  0  0  0
 38 30  1  0  0  0  0
M  END
>  <minimizedAffinity>
-5.90620947

$$$$

 OpenBabel03252506583D

 38 42  0  0  0  0  0  0  0  0999 V2000
   37.3590   29.6140   38.7080 C   0  0  0  0  0  0  0  0  0  0  0  0
   36.0650   29.2230   39.0250 C   0  0  0  0  0  0  0  0  0  0  0  0
   35.6620   28.9140   40.3030 C   0  0  0  0  0  0  0  0  0  0  0  0
   36.5760   28.9880   41.3500 C   0  0  0  0  0  0  0  0  0  0  0  0
   36.5440   28.7670   42.6940 N   0  0  0  0  0  0  0  0  0  0  0  0
   37.7770   29.0130   43.2010 C   0  0  0  0  0  0  0  0  0  0  0  0
   38.5680   29.3860   42.1610 N   0  0  0  0  0  0  0  0  0  0  0  0
   37.8520   29.3770   41.0260 C   0  0  0  0  0  0  0  0  0  0  0  0
   38.2800   29.6900   39.7680 C   0  0  0  0  0  0  0  0  0  0  0  0
   37.6640   29.8560   37.6910 H   0  0  0  0  0  0  0  0  0  0  0  0
   34.6510   28.6100   40.5310 H   0  0  0  0  0  0  0  0  0  0  0  0
   35.6740   28.4620   43.1680 H   0  0  0  0  0  0  0  0  0  0  0  0
   38.0360   28.9140   44.2520 H   0  0  0  0  0  0  0  0  0  0  0  0
   32.8550   28.9240   37.2560 C   0  0  0  0  0  0  0  0  0  0  0  0
   33.2390   28.9640   35.9200 C   0  0  0  0  0  0  0  0  0  0  0  0
   34.5940   29.0930   35.6240 C   0  0  0  0  0  0  0  0  0  0  0  0
   35.4870   29.1740   36.6600 N   0  0  0  0  0  0  0  0  0  0  0  0
   35.0760   29.1320   37.9480 C   0  0  0  0  0  0  0  0  0  0  0  0
   33.7730   29.0070   38.2390 N   0  0  0  0  0  0  0  0  0  0  0  0
   31.7920   28.8220   37.4420 H   0  0  0  0  0  0  0  0  0  0  0  0
   32.5660   28.9020   35.0720 H   0  0  0  0  0  0  0  0  0  0  0  0
   34.9970   29.1340   34.6050 H   0  0  0  0  0  0  0  0  0  0  0  0
   39.6690   30.0960   39.5140 C   0  0  0  0  0  0  0  0  0  0  0  0
   40.7060   29.2360   39.2410 C   0  0  0  0  0  0  0  0  0  0  0  0
   41.8190   30.0590   39.0740 C   0  0  0  0  0  0  0  0  0  0  0  0
   41.3920   31.3560   39.2560 C   0  0  0  0  0  0  0  0  0  0  0  0
   40.1020   31.3390   39.5170 O   0  0  0  0  0  0  0  0  0  0  0  0
   40.6910   28.1570   39.1660 H   0  0  0  0  0  0  0  0  0  0  0  0
   42.8360   29.7750   38.8470 H   0  0  0  0  0  0  0  0  0  0  0  0
   42.1430   32.5590   39.1900 N   0  0  0  0  0  0  0  0  0  0  0  0
   43.5270   32.6490   39.5430 C   0  0  0  0  0  3  0  0  0  0  0  0
   44.0770   31.8450   38.9940 H   0  0  0  0  0  0  0  0  0  0  0  0
   44.1420   33.9720   39.2610 C   0  0  0  0  0  3  0  0  0  0  0  0
   45.2530   33.7910   39.1690 H   0  0  0  0  0  0  0  0  0  0  0  0
   43.7230   34.6210   38.0600 N   0  0  0  0  0  0  0  0  0  0  0  0
   44.3700   34.4300   37.2380 H   0  0  0  0  0  0  0  0  0  0  0  0
   42.4090   34.2990   37.5990 C   0  0  0  0  0  2  0  0  0  0  0  0
   41.5870   33.8260   38.7580 C   0  0  0  0  0  2  0  0  0  0  0  0
  1  2  2  0  0  0  0
  1  9  1  0  0  0  0
  2  3  1  0  0  0  0
  3 11  1  0  0  0  0
  3  4  2  0  0  0  0
  4  5  1  0  0  0  0
  5 12  1  0  0  0  0
  5  6  1  0  0  0  0
  6 13  1  0  0  0  0
  7  6  2  0  0  0  0
  8  4  1  0  0  0  0
  8  7  1  0  0  0  0
  9  8  2  0  0  0  0
 10  1  1  0  0  0  0
 14 20  1  0  0  0  0
 14 19  1  0  0  0  0
 15 14  2  0  0  0  0
 16 15  1  0  0  0  0
 16 17  2  0  0  0  0
 17 18  1  0  0  0  0
 18 19  2  0  0  0  0
 18  2  1  0  0  0  0
 21 15  1  0  0  0  0
 22 16  1  0  0  0  0
 23 27  1  0  0  0  0
 23  9  1  0  0  0  0
 24 23  2  0  0  0  0
 25 24  1  0  0  0  0
 25 26  2  0  0  0  0
 26 27  1  0  0  0  0
 28 24  1  0  0  0  0
 29 25  1  0  0  0  0
 30 26  1  0  0  0  0
 30 31  1  0  0  0  0
 32 31  1  0  0  0  0
 33 31  1  0  0  0  0
 34 33  1  0  0  0  0
 35 33  1  0  0  0  0
 36 35  1  0  0  0  0
 37 35  1  0  0  0  0
 37 38  1  0  0  0  0
 38 30  1  0  0  0  0
M  END
>  <minimizedAffinity>
-5.80913258

$$$$
