
 OpenBabel03252504223D

 32 35  0  0  1  0  0  0  0  0999 V2000
   46.9240   33.4470   39.1040 C   0  0  0  0  0  0  0  0  0  0  0  0
   48.3040   33.2620   39.2730 C   0  0  0  0  0  0  0  0  0  0  0  0
   48.8780   33.5260   40.5280 C   0  0  0  0  0  0  0  0  0  0  0  0
   48.0360   33.9530   41.5160 N   0  0  0  0  0  0  0  0  0  0  0  0
   46.7050   34.1210   41.3170 C   0  0  0  0  0  0  0  0  0  0  0  0
   46.1610   33.8710   40.1270 N   0  0  0  0  0  0  0  0  0  0  0  0
   45.9260   34.5740   42.4190 N   0  0  0  0  0  0  0  0  0  0  0  0
   44.9730   35.5380   42.3760 C   0  0  0  0  0  0  0  0  0  0  0  0
   44.4620   35.6830   43.6330 N   0  0  0  0  0  0  0  0  0  0  0  0
   45.1050   34.8180   44.4060 C   0  0  0  0  0  0  0  0  0  0  0  0
   45.0380   34.4970   45.7480 C   0  0  0  0  0  0  0  0  0  0  0  0
   45.8060   33.5680   46.3080 N   0  0  0  0  0  0  0  0  0  0  0  0
   46.7110   32.8730   45.5910 C   0  0  0  0  0  0  0  0  0  0  0  0
   46.7850   33.1770   44.2840 N   0  0  0  0  0  0  0  0  0  0  0  0
   46.0340   34.1020   43.6750 C   0  0  0  0  0  0  0  0  0  0  0  0
   49.0000   32.9260   38.5160 H   0  0  0  0  0  0  0  0  0  0  0  0
   49.9360   33.3920   40.6790 H   0  0  0  0  0  0  0  0  0  0  0  0
   44.6770   36.0890   41.4920 H   0  0  0  0  0  0  0  0  0  0  0  0
   47.3230   32.1240   46.0720 H   0  0  0  0  0  0  0  0  0  0  0  0
   44.1410   35.1400   46.6330 N   0  0  0  0  0  0  0  0  0  0  0  0
   43.4650   34.7130   47.2790 H   0  0  0  0  0  0  0  0  0  0  0  0
   44.1920   36.1890   46.6070 H   0  0  0  0  0  0  0  0  0  0  0  0
   46.2750   33.0870   37.4660 S   0  0  0  0  0  0  0  0  0  0  0  0
   46.7900   32.5920   34.5600 H   0  0  0  0  0  0  0  0  0  0  0  0
   47.5890   32.9830   35.1040 N   0  0  0  0  0  0  0  0  0  0  0  0
   47.6290   32.4660   36.4390 C   0  0  2  0  0  0  0  0  0  0  0  0
   47.6890   30.9570   36.4280 C   0  0  0  0  0  0  0  0  0  0  0  0
   47.7150   30.5640   37.4660 H   0  0  0  0  0  0  0  0  0  0  0  0
   48.9630   30.5850   35.8400 N   0  0  0  0  0  0  0  0  0  0  0  0
   49.7780   31.0120   36.3390 H   0  0  0  0  0  0  0  0  0  0  0  0
   48.9800   31.0780   34.4540 C   0  0  0  0  0  0  0  0  0  0  0  0
   48.8050   32.5810   34.4270 C   0  0  0  0  0  0  0  0  0  0  0  0
  1  2  2  0  0  0  0
  1  6  1  0  0  0  0
  2  3  1  0  0  0  0
  3 17  1  0  0  0  0
  3  4  2  0  0  0  0
  5  4  1  0  0  0  0
  5  7  1  0  0  0  0
  6  5  2  0  0  0  0
  7 15  1  0  0  0  0
  8  7  1  0  0  0  0
  8  9  2  0  0  0  0
  9 10  1  0  0  0  0
 10 11  1  0  0  0  0
 11 12  2  0  0  0  0
 11 20  1  0  0  0  0
 13 19  1  0  0  0  0
 13 12  1  0  0  0  0
 14 13  2  0  0  0  0
 15 14  1  0  0  0  0
 15 10  2  0  0  0  0
 16  2  1  0  0  0  0
 18  8  1  0  0  0  0
 20 21  1  0  0  0  0
 22 20  1  0  0  0  0
 23  1  1  0  0  0  0
 24 25  1  0  0  0  0
 25 26  1  0  0  0  0
 26 23  1  1  0  0  0
 27 26  1  0  0  0  0
 27 28  1  0  0  0  0
 29 30  1  0  0  0  0
 29 27  1  0  0  0  0
 31 29  1  0  0  0  0
 32 31  1  0  0  0  0
 32 25  1  0  0  0  0
M  END
>  <minimizedAffinity>
-6.08346128

>  <minimizedRMSD>
1.35265732

$$$$
