
 OpenBabel03252508453D

 45 47  0  0  0  0  0  0  0  0999 V2000
   42.6950   31.4510   42.5650 N   0  0  0  0  0  0  0  0  0  0  0  0
   43.0640   31.6270   43.5170 H   0  0  0  0  0  0  0  0  0  0  0  0
   43.0230   32.4980   41.6310 C   0  0  0  0  0  0  0  0  0  0  0  0
   43.5010   32.1350   40.6990 H   0  0  0  0  0  0  0  0  0  0  0  0
   42.0630   32.9840   41.3130 H   0  0  0  0  0  0  0  0  0  0  0  0
   43.6680   34.9060   41.8880 C   0  0  0  0  0  0  0  0  0  0  0  0
   43.9070   33.5650   42.1920 C   0  0  0  0  0  0  0  0  0  0  0  0
   44.9590   33.2590   43.0070 C   0  0  0  0  0  0  0  0  0  0  0  0
   45.7600   34.2410   43.5160 C   0  0  0  0  0  0  0  0  0  0  0  0
   45.5490   35.5660   43.2350 C   0  0  0  0  0  0  0  0  0  0  0  0
   44.4740   35.8500   42.4040 C   0  0  0  0  0  0  0  0  0  0  0  0
   45.1920   32.2300   43.2750 H   0  0  0  0  0  0  0  0  0  0  0  0
   46.6050   34.0410   44.1680 H   0  0  0  0  0  0  0  0  0  0  0  0
   46.1620   36.3760   43.6200 H   0  0  0  0  0  0  0  0  0  0  0  0
   44.2420   36.8750   42.1350 H   0  0  0  0  0  0  0  0  0  0  0  0
   40.2520   35.7960   40.5270 C   0  0  0  0  0  0  0  0  0  0  0  0
   41.2780   35.5590   41.4690 C   0  0  0  0  0  0  0  0  0  0  0  0
   42.5330   35.1780   41.0100 C   0  0  0  0  0  0  0  0  0  0  0  0
   42.7010   35.0570   39.6740 N   0  0  0  0  0  0  0  0  0  0  0  0
   41.7100   35.2880   38.7850 C   0  0  0  0  0  0  0  0  0  0  0  0
   40.4990   35.6540   39.2250 N   0  0  0  0  0  0  0  0  0  0  0  0
   39.3130   36.0860   40.9810 H   0  0  0  0  0  0  0  0  0  0  0  0
   41.1900   35.6420   42.5430 H   0  0  0  0  0  0  0  0  0  0  0  0
   41.8310   35.1960   37.7150 H   0  0  0  0  0  0  0  0  0  0  0  0
   41.0170   31.1140   42.6020 S   0  0  0  0  0  0  0  0  0  0  0  0
   40.2070   32.3780   42.4940 O   0  0  0  0  0  0  0  0  0  0  0  0
   39.6400   32.6030   41.7210 H   0  0  0  0  0  0  0  0  0  0  0  0
   40.6530   30.3730   43.8420 O   0  0  0  0  0  0  0  0  0  0  0  0
   40.2190   30.8570   44.6080 H   0  0  0  0  0  0  0  0  0  0  0  0
   40.6840   30.1340   41.2880 O   0  0  0  0  0  0  0  0  0  0  0  0
   39.7670   29.1680   41.6650 C   0  0  0  0  0  0  0  0  0  0  0  0
   39.7430   29.1250   42.7760 H   0  0  0  0  0  0  0  0  0  0  0  0
   39.9730   28.1630   41.2960 H   0  0  0  0  0  0  0  0  0  0  0  0
   38.3680   29.6430   41.2450 C   0  0  0  0  0  0  0  0  0  0  0  0
   38.5270   30.7160   40.9650 H   0  0  0  0  0  0  0  0  0  0  0  0
   37.7030   29.6660   42.1160 H   0  0  0  0  0  0  0  0  0  0  0  0
   37.7880   28.9500   40.1930 N   0  0  0  0  0  0  0  0  0  0  0  0
   37.9480   29.3420   38.8640 C   0  0  0  0  0  3  0  0  0  0  0  0
   38.9990   29.5910   38.6330 H   0  0  0  0  0  0  0  0  0  0  0  0
   37.5700   28.1620   37.9680 C   0  0  0  0  0  3  0  0  0  0  0  0
   38.2070   27.2770   38.2010 H   0  0  0  0  0  0  0  0  0  0  0  0
   36.1830   27.7810   38.1380 N   0  0  0  0  0  0  0  0  0  0  0  0
   36.1170   26.7590   37.9310 H   0  0  0  0  0  0  0  0  0  0  0  0
   35.7320   27.9540   39.5030 C   0  0  0  0  0  2  0  0  0  0  0  0
   36.9160   27.8720   40.4760 C   0  0  0  0  0  2  0  0  0  0  0  0
  1 25  1  0  0  0  0
  1  2  1  0  0  0  0
  3  7  1  0  0  0  0
  3  1  1  0  0  0  0
  4  3  1  0  0  0  0
  5  3  1  0  0  0  0
  6  7  2  0  0  0  0
  6 11  1  0  0  0  0
  7  8  1  0  0  0  0
  8 12  1  0  0  0  0
  8  9  2  0  0  0  0
  9 13  1  0  0  0  0
 10  9  1  0  0  0  0
 10 14  1  0  0  0  0
 11 10  2  0  0  0  0
 15 11  1  0  0  0  0
 16 22  1  0  0  0  0
 16 17  1  0  0  0  0
 17 23  1  0  0  0  0
 18 17  2  0  0  0  0
 18  6  1  0  0  0  0
 19 18  1  0  0  0  0
 20 21  1  0  0  0  0
 20 19  2  0  0  0  0
 21 16  2  0  0  0  0
 24 20  1  0  0  0  0
 25 28  1  0  0  0  0
 26 25  1  0  0  0  0
 27 26  1  0  0  0  0
 28 29  1  0  0  0  0
 30 31  1  0  0  0  0
 30 25  1  0  0  0  0
 31 32  1  0  0  0  0
 33 31  1  0  0  0  0
 34 31  1  0  0  0  0
 34 36  1  0  0  0  0
 35 34  1  0  0  0  0
 37 45  1  0  0  0  0
 37 34  1  0  0  0  0
 38 37  1  0  0  0  0
 39 38  1  0  0  0  0
 40 42  1  0  0  0  0
 40 41  1  0  0  0  0
 40 38  1  0  0  0  0
 42 44  1  0  0  0  0
 43 42  1  0  0  0  0
 44 45  1  0  0  0  0
M  END
>  <minimizedAffinity>
-5.1514945

>  <minimizedRMSD>
2.44020295

$$$$
