
 OpenBabel03252500593D

 38 40  0  0  0  0  0  0  0  0999 V2000
   36.7550   28.9030   40.2510 O   0  0  0  0  0  0  0  0  0  0  0  0
   37.0700   30.3120   40.7730 P   0  0  1  0  0  0  0  0  0  0  0  0
   35.6060   31.0140   41.2850 O   0  0  0  0  0  0  0  0  0  0  0  0
   35.7050   31.9690   41.4490 H   0  0  0  0  0  0  0  0  0  0  0  0
   38.0930   30.2010   42.1140 O   0  0  0  0  0  0  0  0  0  0  0  0
   38.6570   28.2400   43.2910 C   0  0  0  0  0  0  0  0  0  0  0  0
   39.0160   29.1990   42.3680 C   0  0  0  0  0  0  0  0  0  0  0  0
   40.2800   29.0860   41.7600 C   0  0  0  0  0  0  0  0  0  0  0  0
   41.0540   28.0440   42.1260 N   0  0  0  0  0  0  0  0  0  0  0  0
   40.6890   27.1280   43.0190 C   0  0  0  0  0  0  0  0  0  0  0  0
   39.4920   27.2260   43.6010 N   0  0  0  0  0  0  0  0  0  0  0  0
   40.5310   29.8350   41.0560 H   0  0  0  0  0  0  0  0  0  0  0  0
   41.3210   26.2920   43.3050 H   0  0  0  0  0  0  0  0  0  0  0  0
   37.3560   28.2910   43.9630 C   0  0  0  0  0  0  0  0  0  0  0  0
   36.8680   29.2790   43.7160 H   0  0  0  0  0  0  0  0  0  0  0  0
   37.4330   28.1240   45.0410 H   0  0  0  0  0  0  0  0  0  0  0  0
   36.4570   27.2380   43.3790 C   0  0  0  0  0  0  0  0  0  0  0  0
   35.4360   27.2360   43.8100 H   0  0  0  0  0  0  0  0  0  0  0  0
   36.8970   26.2260   43.4130 H   0  0  0  0  0  0  0  0  0  0  0  0
   36.3330   27.4880   42.2980 H   0  0  0  0  0  0  0  0  0  0  0  0
   37.6810   31.2690   39.5350 O   0  0  0  0  0  0  0  0  0  0  0  0
   38.5160   32.3320   39.8540 C   0  0  0  0  0  0  0  0  0  0  0  0
   37.9210   33.5950   39.9560 C   0  0  0  0  0  0  0  0  0  0  0  0
   38.6660   34.7160   40.2680 C   0  0  0  0  0  0  0  0  0  0  0  0
   40.0020   34.5590   40.4760 N   0  0  0  0  0  0  0  0  0  0  0  0
   40.5560   33.3540   40.3790 C   0  0  0  0  0  0  0  0  0  0  0  0
   39.8520   32.2700   40.0790 N   0  0  0  0  0  0  0  0  0  0  0  0
   36.8420   33.7420   39.7900 H   0  0  0  0  0  0  0  0  0  0  0  0
   38.1820   35.6770   40.3410 H   0  0  0  0  0  0  0  0  0  0  0  0
   41.9590   33.2700   40.6100 N   0  0  0  0  0  0  0  0  0  0  0  0
   42.7860   34.4640   40.6170 C   0  0  0  0  0  3  0  0  0  0  0  0
   42.1910   35.3420   40.2700 H   0  0  0  0  0  0  0  0  0  0  0  0
   43.3040   34.6110   42.0260 C   0  0  0  0  0  3  0  0  0  0  0  0
   44.3230   35.0480   41.9910 H   0  0  0  0  0  0  0  0  0  0  0  0
   43.2500   33.4280   42.8120 N   0  0  0  0  0  0  0  0  0  0  0  0
   42.6950   33.4540   43.6710 H   0  0  0  0  0  0  0  0  0  0  0  0
   43.4000   32.1850   42.1520 C   0  0  0  0  0  2  0  0  0  0  0  0
   42.6680   32.0280   40.8520 C   0  0  0  0  0  2  0  0  0  0  0  0
  2  1  2  6  0  0  0
  2  3  1  0  0  0  0
  2  5  1  0  0  0  0
  3  4  1  0  0  0  0
  5  7  1  0  0  0  0
  6 11  1  0  0  0  0
  6 14  1  0  0  0  0
  7  6  2  0  0  0  0
  8  9  2  0  0  0  0
  8  7  1  0  0  0  0
  9 10  1  0  0  0  0
 10 13  1  0  0  0  0
 10 11  2  0  0  0  0
 12  8  1  0  0  0  0
 14 16  1  0  0  0  0
 15 14  1  0  0  0  0
 17 19  1  0  0  0  0
 17 18  1  0  0  0  0
 17 14  1  0  0  0  0
 20 17  1  0  0  0  0
 21 22  1  0  0  0  0
 21  2  1  0  0  0  0
 22 23  2  0  0  0  0
 22 27  1  0  0  0  0
 23 24  1  0  0  0  0
 24 29  1  0  0  0  0
 24 25  2  0  0  0  0
 26 25  1  0  0  0  0
 26 30  1  0  0  0  0
 27 26  2  0  0  0  0
 28 23  1  0  0  0  0
 30 31  1  0  0  0  0
 30 38  1  0  0  0  0
 31 33  1  0  0  0  0
 32 31  1  0  0  0  0
 33 35  1  0  0  0  0
 34 33  1  0  0  0  0
 35 36  1  0  0  0  0
 37 35  1  0  0  0  0
 38 37  1  0  0  0  0
M  END
>  <minimizedAffinity>
-6.49839258

$$$$

 OpenBabel03252500593D

 38 40  0  0  0  0  0  0  0  0999 V2000
   35.7030   29.0430   39.6820 O   0  0  0  0  0  0  0  0  0  0  0  0
   36.6100   30.1260   40.2820 P   0  0  1  0  0  0  0  0  0  0  0  0
   35.6820   31.0210   41.3940 O   0  0  0  0  0  0  0  0  0  0  0  0
   36.1400   31.8360   41.6670 H   0  0  0  0  0  0  0  0  0  0  0  0
   37.8770   29.3940   41.1300 O   0  0  0  0  0  0  0  0  0  0  0  0
   37.9870   27.4140   42.4000 C   0  0  0  0  0  0  0  0  0  0  0  0
   38.1600   28.0380   41.1830 C   0  0  0  0  0  0  0  0  0  0  0  0
   38.6050   27.2590   40.1010 C   0  0  0  0  0  0  0  0  0  0  0  0
   38.8330   25.9500   40.3310 N   0  0  0  0  0  0  0  0  0  0  0  0
   38.6610   25.3640   41.5130 C   0  0  0  0  0  0  0  0  0  0  0  0
   38.2380   26.0950   42.5470 N   0  0  0  0  0  0  0  0  0  0  0  0
   38.7300   27.7630   39.1790 H   0  0  0  0  0  0  0  0  0  0  0  0
   38.8470   24.3090   41.6860 H   0  0  0  0  0  0  0  0  0  0  0  0
   37.5250   28.1610   43.5720 C   0  0  0  0  0  0  0  0  0  0  0  0
   37.2790   29.2140   43.2470 H   0  0  0  0  0  0  0  0  0  0  0  0
   38.2430   28.1380   44.3960 H   0  0  0  0  0  0  0  0  0  0  0  0
   36.2270   27.5730   44.0520 C   0  0  0  0  0  0  0  0  0  0  0  0
   35.7890   28.1080   44.9180 H   0  0  0  0  0  0  0  0  0  0  0  0
   36.2930   26.4900   44.2540 H   0  0  0  0  0  0  0  0  0  0  0  0
   35.4960   27.6900   43.2160 H   0  0  0  0  0  0  0  0  0  0  0  0
   37.1220   31.1860   39.0850 O   0  0  0  0  0  0  0  0  0  0  0  0
   37.9580   32.2390   39.4290 C   0  0  0  0  0  0  0  0  0  0  0  0
   37.3610   33.4950   39.5880 C   0  0  0  0  0  0  0  0  0  0  0  0
   38.1070   34.6070   39.9300 C   0  0  0  0  0  0  0  0  0  0  0  0
   39.4470   34.4480   40.1100 N   0  0  0  0  0  0  0  0  0  0  0  0
   40.0030   33.2490   39.9580 C   0  0  0  0  0  0  0  0  0  0  0  0
   39.2980   32.1750   39.6290 N   0  0  0  0  0  0  0  0  0  0  0  0
   36.2790   33.6440   39.4460 H   0  0  0  0  0  0  0  0  0  0  0  0
   37.6220   35.5630   40.0460 H   0  0  0  0  0  0  0  0  0  0  0  0
   41.4100   33.1630   40.1630 N   0  0  0  0  0  0  0  0  0  0  0  0
   42.2330   34.3590   40.2010 C   0  0  0  0  0  3  0  0  0  0  0  0
   41.6290   35.2470   39.8970 H   0  0  0  0  0  0  0  0  0  0  0  0
   42.7750   34.4550   41.6050 C   0  0  0  0  0  3  0  0  0  0  0  0
   43.7910   34.8970   41.5700 H   0  0  0  0  0  0  0  0  0  0  0  0
   42.7370   33.2430   42.3480 N   0  0  0  0  0  0  0  0  0  0  0  0
   42.1970   33.2340   43.2160 H   0  0  0  0  0  0  0  0  0  0  0  0
   42.8810   32.0260   41.6390 C   0  0  0  0  0  2  0  0  0  0  0  0
   42.1280   31.9150   40.3460 C   0  0  0  0  0  2  0  0  0  0  0  0
  2  1  2  6  0  0  0
  2  5  1  0  0  0  0
  2  3  1  0  0  0  0
  3  4  1  0  0  0  0
  5  7  1  0  0  0  0
  6 11  1  0  0  0  0
  6 14  1  0  0  0  0
  7  6  2  0  0  0  0
  8  9  2  0  0  0  0
  8  7  1  0  0  0  0
  9 10  1  0  0  0  0
 10 13  1  0  0  0  0
 10 11  2  0  0  0  0
 12  8  1  0  0  0  0
 14 17  1  0  0  0  0
 14 16  1  0  0  0  0
 15 14  1  0  0  0  0
 17 19  1  0  0  0  0
 17 18  1  0  0  0  0
 20 17  1  0  0  0  0
 21 22  1  0  0  0  0
 21  2  1  0  0  0  0
 22 23  2  0  0  0  0
 22 27  1  0  0  0  0
 23 24  1  0  0  0  0
 24 29  1  0  0  0  0
 24 25  2  0  0  0  0
 26 25  1  0  0  0  0
 26 30  1  0  0  0  0
 27 26  2  0  0  0  0
 28 23  1  0  0  0  0
 30 31  1  0  0  0  0
 30 38  1  0  0  0  0
 31 33  1  0  0  0  0
 32 31  1  0  0  0  0
 33 35  1  0  0  0  0
 34 33  1  0  0  0  0
 35 36  1  0  0  0  0
 37 35  1  0  0  0  0
 38 37  1  0  0  0  0
M  END
>  <minimizedAffinity>
-6.22038841

$$$$

 OpenBabel03252500593D

 38 40  0  0  0  0  0  0  0  0999 V2000
   36.6130   29.0960   39.3030 O   0  0  0  0  0  0  0  0  0  0  0  0
   35.8030   29.3460   40.5830 P   0  0  1  0  0  0  0  0  0  0  0  0
   34.1560   29.3860   40.1540 O   0  0  0  0  0  0  0  0  0  0  0  0
   33.6050   29.7270   40.8810 H   0  0  0  0  0  0  0  0  0  0  0  0
   36.0310   28.0590   41.6550 O   0  0  0  0  0  0  0  0  0  0  0  0
   37.7280   26.4260   41.7300 C   0  0  0  0  0  0  0  0  0  0  0  0
   37.2370   27.6310   42.1870 C   0  0  0  0  0  0  0  0  0  0  0  0
   37.9920   28.3270   43.1480 C   0  0  0  0  0  0  0  0  0  0  0  0
   39.1480   27.7640   43.5570 N   0  0  0  0  0  0  0  0  0  0  0  0
   39.6050   26.5990   43.1040 C   0  0  0  0  0  0  0  0  0  0  0  0
   38.8960   25.9310   42.1920 N   0  0  0  0  0  0  0  0  0  0  0  0
   37.5940   29.2480   43.4820 H   0  0  0  0  0  0  0  0  0  0  0  0
   40.5370   26.1550   43.4410 H   0  0  0  0  0  0  0  0  0  0  0  0
   36.9970   25.6470   40.7290 C   0  0  0  0  0  0  0  0  0  0  0  0
   37.6770   25.4780   39.8440 H   0  0  0  0  0  0  0  0  0  0  0  0
   36.0490   26.1120   40.4420 H   0  0  0  0  0  0  0  0  0  0  0  0
   36.7070   24.2790   41.2820 C   0  0  0  0  0  0  0  0  0  0  0  0
   36.1870   23.6110   40.5690 H   0  0  0  0  0  0  0  0  0  0  0  0
   36.1770   24.3080   42.2500 H   0  0  0  0  0  0  0  0  0  0  0  0
   37.6970   23.8020   41.4840 H   0  0  0  0  0  0  0  0  0  0  0  0
   36.1910   30.8440   41.2340 O   0  0  0  0  0  0  0  0  0  0  0  0
   37.3680   31.4670   40.8400 C   0  0  0  0  0  0  0  0  0  0  0  0
   37.2460   32.5690   39.9860 C   0  0  0  0  0  0  0  0  0  0  0  0
   38.3570   33.2560   39.5370 C   0  0  0  0  0  0  0  0  0  0  0  0
   39.5820   32.8310   39.9500 N   0  0  0  0  0  0  0  0  0  0  0  0
   39.6860   31.7830   40.7630 C   0  0  0  0  0  0  0  0  0  0  0  0
   38.6270   31.1150   41.2000 N   0  0  0  0  0  0  0  0  0  0  0  0
   36.2630   32.9280   39.6400 H   0  0  0  0  0  0  0  0  0  0  0  0
   38.2350   34.1020   38.8800 H   0  0  0  0  0  0  0  0  0  0  0  0
   41.0020   31.3980   41.1510 N   0  0  0  0  0  0  0  0  0  0  0  0
   42.1650   31.9000   40.4410 C   0  0  0  0  0  3  0  0  0  0  0  0
   41.8450   32.4480   39.5240 H   0  0  0  0  0  0  0  0  0  0  0  0
   42.9200   32.7620   41.4220 C   0  0  0  0  0  3  0  0  0  0  0  0
   44.0070   32.6720   41.2190 H   0  0  0  0  0  0  0  0  0  0  0  0
   42.6050   32.5330   42.7890 N   0  0  0  0  0  0  0  0  0  0  0  0
   42.2330   33.3180   43.3290 H   0  0  0  0  0  0  0  0  0  0  0  0
   42.2320   31.2220   43.1730 C   0  0  0  0  0  2  0  0  0  0  0  0
   41.2920   30.5000   42.2530 C   0  0  0  0  0  2  0  0  0  0  0  0
  2  1  2  6  0  0  0
  2 21  1  0  0  0  0
  2  5  1  0  0  0  0
  3  2  1  0  0  0  0
  3  4  1  0  0  0  0
  5  7  1  0  0  0  0
  6  7  2  0  0  0  0
  6 11  1  0  0  0  0
  7  8  1  0  0  0  0
  8 12  1  0  0  0  0
  8  9  2  0  0  0  0
 10 13  1  0  0  0  0
 10  9  1  0  0  0  0
 11 10  2  0  0  0  0
 14 17  1  0  0  0  0
 14  6  1  0  0  0  0
 15 14  1  0  0  0  0
 16 14  1  0  0  0  0
 17 20  1  0  0  0  0
 17 19  1  0  0  0  0
 18 17  1  0  0  0  0
 22 27  1  0  0  0  0
 22 21  1  0  0  0  0
 23 22  2  0  0  0  0
 24 25  2  0  0  0  0
 24 23  1  0  0  0  0
 25 26  1  0  0  0  0
 26 30  1  0  0  0  0
 26 27  2  0  0  0  0
 28 23  1  0  0  0  0
 29 24  1  0  0  0  0
 30 38  1  0  0  0  0
 31 30  1  0  0  0  0
 31 33  1  0  0  0  0
 32 31  1  0  0  0  0
 33 35  1  0  0  0  0
 34 33  1  0  0  0  0
 35 37  1  0  0  0  0
 35 36  1  0  0  0  0
 38 37  1  0  0  0  0
M  END
>  <minimizedAffinity>
-5.8856554

$$$$

 OpenBabel03252500593D

 38 40  0  0  0  0  0  0  0  0999 V2000
   35.3220   29.5750   39.1590 O   0  0  0  0  0  0  0  0  0  0  0  0
   36.3940   30.4380   39.8390 P   0  0  1  0  0  0  0  0  0  0  0  0
   35.7290   31.0490   41.2820 O   0  0  0  0  0  0  0  0  0  0  0  0
   36.2860   31.7510   41.6640 H   0  0  0  0  0  0  0  0  0  0  0  0
   37.7210   29.4720   40.2450 O   0  0  0  0  0  0  0  0  0  0  0  0
   39.0450   28.8730   42.1000 C   0  0  0  0  0  0  0  0  0  0  0  0
   37.8690   28.7130   41.3960 C   0  0  0  0  0  0  0  0  0  0  0  0
   36.9210   27.8030   41.8960 C   0  0  0  0  0  0  0  0  0  0  0  0
   37.2290   27.1480   43.0340 N   0  0  0  0  0  0  0  0  0  0  0  0
   38.3700   27.3150   43.6990 C   0  0  0  0  0  0  0  0  0  0  0  0
   39.2760   28.1760   43.2330 N   0  0  0  0  0  0  0  0  0  0  0  0
   36.0290   27.7000   41.3370 H   0  0  0  0  0  0  0  0  0  0  0  0
   38.6070   26.7810   44.6140 H   0  0  0  0  0  0  0  0  0  0  0  0
   40.0780   29.8040   41.6400 C   0  0  0  0  0  0  0  0  0  0  0  0
   39.8440   30.0950   40.5740 H   0  0  0  0  0  0  0  0  0  0  0  0
   41.0880   29.3990   41.7490 H   0  0  0  0  0  0  0  0  0  0  0  0
   39.9850   31.0760   42.4360 C   0  0  0  0  0  0  0  0  0  0  0  0
   40.7120   31.8510   42.1220 H   0  0  0  0  0  0  0  0  0  0  0  0
   40.0370   30.9090   43.5250 H   0  0  0  0  0  0  0  0  0  0  0  0
   38.9730   31.5040   42.2340 H   0  0  0  0  0  0  0  0  0  0  0  0
   36.7870   31.7510   38.8700 O   0  0  0  0  0  0  0  0  0  0  0  0
   37.8750   32.5430   39.2140 C   0  0  0  0  0  0  0  0  0  0  0  0
   37.5980   33.7530   39.8600 C   0  0  0  0  0  0  0  0  0  0  0  0
   38.6110   34.6110   40.2430 C   0  0  0  0  0  0  0  0  0  0  0  0
   39.8940   34.2460   39.9760 N   0  0  0  0  0  0  0  0  0  0  0  0
   40.1460   33.0920   39.3630 C   0  0  0  0  0  0  0  0  0  0  0  0
   39.1820   32.2600   38.9900 N   0  0  0  0  0  0  0  0  0  0  0  0
   36.5660   34.0670   40.0840 H   0  0  0  0  0  0  0  0  0  0  0  0
   38.3690   35.5370   40.7390 H   0  0  0  0  0  0  0  0  0  0  0  0
   41.5140   32.7790   39.1180 N   0  0  0  0  0  0  0  0  0  0  0  0
   42.5420   33.7990   39.2210 C   0  0  0  0  0  3  0  0  0  0  0  0
   42.0710   34.8030   39.3470 H   0  0  0  0  0  0  0  0  0  0  0  0
   43.4200   33.3990   40.3800 C   0  0  0  0  0  3  0  0  0  0  0  0
   44.4640   33.7050   40.1650 H   0  0  0  0  0  0  0  0  0  0  0  0
   43.3260   32.0330   40.7620 N   0  0  0  0  0  0  0  0  0  0  0  0
   43.0240   31.8260   41.7170 H   0  0  0  0  0  0  0  0  0  0  0  0
   43.0450   31.0800   39.7530 C   0  0  0  0  0  2  0  0  0  0  0  0
   41.9910   31.4580   38.7540 C   0  0  0  0  0  2  0  0  0  0  0  0
  2  1  2  6  0  0  0
  2  5  1  0  0  0  0
  2  3  1  0  0  0  0
  3  4  1  0  0  0  0
  5  7  1  0  0  0  0
  6 11  1  0  0  0  0
  7  8  1  0  0  0  0
  7  6  2  0  0  0  0
  8  9  2  0  0  0  0
  9 10  1  0  0  0  0
 10 13  1  0  0  0  0
 11 10  2  0  0  0  0
 12  8  1  0  0  0  0
 14 16  1  0  0  0  0
 14  6  1  0  0  0  0
 14 17  1  0  0  0  0
 15 14  1  0  0  0  0
 17 19  1  0  0  0  0
 18 17  1  0  0  0  0
 20 17  1  0  0  0  0
 21 22  1  0  0  0  0
 21  2  1  0  0  0  0
 22 23  1  0  0  0  0
 23 28  1  0  0  0  0
 23 24  2  0  0  0  0
 24 29  1  0  0  0  0
 25 24  1  0  0  0  0
 26 25  2  0  0  0  0
 27 22  2  0  0  0  0
 27 26  1  0  0  0  0
 30 31  1  0  0  0  0
 30 26  1  0  0  0  0
 31 32  1  0  0  0  0
 31 33  1  0  0  0  0
 33 35  1  0  0  0  0
 34 33  1  0  0  0  0
 35 36  1  0  0  0  0
 37 35  1  0  0  0  0
 38 30  1  0  0  0  0
 38 37  1  0  0  0  0
M  END
>  <minimizedAffinity>
-5.71968985

$$$$

 OpenBabel03252500593D

 38 40  0  0  0  0  0  0  0  0999 V2000
   37.2550   29.8480   39.5390 O   0  0  0  0  0  0  0  0  0  0  0  0
   37.1090   30.0890   41.0480 P   0  0  1  0  0  0  0  0  0  0  0  0
   35.7760   31.1220   41.2810 O   0  0  0  0  0  0  0  0  0  0  0  0
   35.7440   31.4650   42.1920 H   0  0  0  0  0  0  0  0  0  0  0  0
   36.7750   28.6240   41.8240 O   0  0  0  0  0  0  0  0  0  0  0  0
   37.7830   26.5010   41.6590 C   0  0  0  0  0  0  0  0  0  0  0  0
   37.7040   27.7160   42.3080 C   0  0  0  0  0  0  0  0  0  0  0  0
   38.5640   27.9370   43.3980 C   0  0  0  0  0  0  0  0  0  0  0  0
   39.4090   26.9410   43.7340 N   0  0  0  0  0  0  0  0  0  0  0  0
   39.4710   25.7750   43.0960 C   0  0  0  0  0  0  0  0  0  0  0  0
   38.6590   25.5560   42.0590 N   0  0  0  0  0  0  0  0  0  0  0  0
   38.4830   28.8760   43.8780 H   0  0  0  0  0  0  0  0  0  0  0  0
   40.1550   24.9800   43.3760 H   0  0  0  0  0  0  0  0  0  0  0  0
   36.9200   26.2010   40.5140 C   0  0  0  0  0  0  0  0  0  0  0  0
   36.1560   27.0270   40.4200 H   0  0  0  0  0  0  0  0  0  0  0  0
   36.4580   25.2130   40.5840 H   0  0  0  0  0  0  0  0  0  0  0  0
   37.7360   26.2590   39.2520 C   0  0  0  0  0  0  0  0  0  0  0  0
   37.1460   26.0790   38.3320 H   0  0  0  0  0  0  0  0  0  0  0  0
   38.6240   25.6040   39.2820 H   0  0  0  0  0  0  0  0  0  0  0  0
   38.1220   27.3040   39.1710 H   0  0  0  0  0  0  0  0  0  0  0  0
   38.4670   30.8760   41.6460 O   0  0  0  0  0  0  0  0  0  0  0  0
   39.1000   31.8250   40.8540 C   0  0  0  0  0  0  0  0  0  0  0  0
   38.6000   33.1310   40.9090 C   0  0  0  0  0  0  0  0  0  0  0  0
   39.1600   34.1460   40.1580 C   0  0  0  0  0  0  0  0  0  0  0  0
   40.2180   33.8420   39.3580 N   0  0  0  0  0  0  0  0  0  0  0  0
   40.6860   32.5970   39.3150 C   0  0  0  0  0  0  0  0  0  0  0  0
   40.1560   31.6140   40.0300 N   0  0  0  0  0  0  0  0  0  0  0  0
   37.7440   33.3970   41.5490 H   0  0  0  0  0  0  0  0  0  0  0  0
   38.7560   35.1440   40.2200 H   0  0  0  0  0  0  0  0  0  0  0  0
   41.7960   32.3570   38.4540 N   0  0  0  0  0  0  0  0  0  0  0  0
   42.1740   33.3230   37.4390 C   0  0  0  0  0  3  0  0  0  0  0  0
   41.3990   34.1220   37.3650 H   0  0  0  0  0  0  0  0  0  0  0  0
   43.5340   33.8430   37.8350 C   0  0  0  0  0  3  0  0  0  0  0  0
   44.1180   34.0610   36.9190 H   0  0  0  0  0  0  0  0  0  0  0  0
   44.2480   33.0200   38.7480 N   0  0  0  0  0  0  0  0  0  0  0  0
   44.5110   33.4260   39.6500 H   0  0  0  0  0  0  0  0  0  0  0  0
   44.0400   31.6210   38.6830 C   0  0  0  0  0  2  0  0  0  0  0  0
   42.6210   31.1650   38.5100 C   0  0  0  0  0  2  0  0  0  0  0  0
  2  1  2  6  0  0  0
  2  3  1  0  0  0  0
  2 21  1  0  0  0  0
  2  5  1  0  0  0  0
  3  4  1  0  0  0  0
  5  7  1  0  0  0  0
  6 11  2  0  0  0  0
  6  7  1  0  0  0  0
  7  8  2  0  0  0  0
  8  9  1  0  0  0  0
  8 12  1  0  0  0  0
 10 13  1  0  0  0  0
 10  9  2  0  0  0  0
 11 10  1  0  0  0  0
 14 16  1  0  0  0  0
 14  6  1  0  0  0  0
 15 14  1  0  0  0  0
 17 19  1  0  0  0  0
 17 14  1  0  0  0  0
 18 17  1  0  0  0  0
 20 17  1  0  0  0  0
 22 23  1  0  0  0  0
 22 21  1  0  0  0  0
 23 28  1  0  0  0  0
 24 29  1  0  0  0  0
 24 23  2  0  0  0  0
 25 24  1  0  0  0  0
 26 25  2  0  0  0  0
 26 27  1  0  0  0  0
 27 22  2  0  0  0  0
 30 38  1  0  0  0  0
 30 26  1  0  0  0  0
 31 33  1  0  0  0  0
 31 30  1  0  0  0  0
 32 31  1  0  0  0  0
 33 35  1  0  0  0  0
 34 33  1  0  0  0  0
 35 36  1  0  0  0  0
 37 35  1  0  0  0  0
 38 37  1  0  0  0  0
M  END
>  <minimizedAffinity>
-5.54795265

$$$$

 OpenBabel03252500593D

 38 40  0  0  0  0  0  0  0  0999 V2000
   38.8770   30.1610   37.6230 O   0  0  0  0  0  0  0  0  0  0  0  0
   38.0080   29.8740   38.8550 P   0  0  1  0  0  0  0  0  0  0  0  0
   36.6770   28.9430   38.3450 O   0  0  0  0  0  0  0  0  0  0  0  0
   35.9940   28.8870   39.0360 H   0  0  0  0  0  0  0  0  0  0  0  0
   38.8910   28.9560   39.9670 O   0  0  0  0  0  0  0  0  0  0  0  0
   38.1960   27.3020   41.4930 C   0  0  0  0  0  0  0  0  0  0  0  0
   38.5050   28.6250   41.2560 C   0  0  0  0  0  0  0  0  0  0  0  0
   38.4070   29.5270   42.3310 C   0  0  0  0  0  0  0  0  0  0  0  0
   38.0150   29.0320   43.5230 N   0  0  0  0  0  0  0  0  0  0  0  0
   37.7200   27.7510   43.7320 C   0  0  0  0  0  0  0  0  0  0  0  0
   37.8110   26.8870   42.7190 N   0  0  0  0  0  0  0  0  0  0  0  0
   38.6490   30.5350   42.1220 H   0  0  0  0  0  0  0  0  0  0  0  0
   37.4060   27.3640   44.6970 H   0  0  0  0  0  0  0  0  0  0  0  0
   38.2770   26.3060   40.4230 C   0  0  0  0  0  0  0  0  0  0  0  0
   38.8810   25.4290   40.7980 H   0  0  0  0  0  0  0  0  0  0  0  0
   38.6780   26.7190   39.4930 H   0  0  0  0  0  0  0  0  0  0  0  0
   36.9020   25.7620   40.1490 C   0  0  0  0  0  0  0  0  0  0  0  0
   36.8830   24.9720   39.3740 H   0  0  0  0  0  0  0  0  0  0  0  0
   36.1630   26.5500   39.9240 H   0  0  0  0  0  0  0  0  0  0  0  0
   36.5590   25.2740   41.0940 H   0  0  0  0  0  0  0  0  0  0  0  0
   37.4060   31.3070   39.4900 O   0  0  0  0  0  0  0  0  0  0  0  0
   38.2890   32.3380   39.7820 C   0  0  0  0  0  0  0  0  0  0  0  0
   37.7530   33.6300   39.8530 C   0  0  0  0  0  0  0  0  0  0  0  0
   38.5490   34.7230   40.1360 C   0  0  0  0  0  0  0  0  0  0  0  0
   39.8770   34.5100   40.3480 N   0  0  0  0  0  0  0  0  0  0  0  0
   40.3750   33.2790   40.2800 C   0  0  0  0  0  0  0  0  0  0  0  0
   39.6210   32.2210   40.0070 N   0  0  0  0  0  0  0  0  0  0  0  0
   36.6810   33.8220   39.6840 H   0  0  0  0  0  0  0  0  0  0  0  0
   38.1110   35.7070   40.1850 H   0  0  0  0  0  0  0  0  0  0  0  0
   41.7730   33.1360   40.5130 N   0  0  0  0  0  0  0  0  0  0  0  0
   42.6540   34.2910   40.4900 C   0  0  0  0  0  3  0  0  0  0  0  0
   42.0990   35.1860   40.1210 H   0  0  0  0  0  0  0  0  0  0  0  0
   43.1810   34.4480   41.8940 C   0  0  0  0  0  3  0  0  0  0  0  0
   44.2190   34.8370   41.8480 H   0  0  0  0  0  0  0  0  0  0  0  0
   43.0730   33.2890   42.7100 N   0  0  0  0  0  0  0  0  0  0  0  0
   42.5220   33.3610   43.5680 H   0  0  0  0  0  0  0  0  0  0  0  0
   43.1660   32.0240   42.0810 C   0  0  0  0  0  2  0  0  0  0  0  0
   42.4250   31.8690   40.7850 C   0  0  0  0  0  2  0  0  0  0  0  0
  2  1  2  6  0  0  0
  2 21  1  0  0  0  0
  2  5  1  0  0  0  0
  3  2  1  0  0  0  0
  3  4  1  0  0  0  0
  5  7  1  0  0  0  0
  6 11  1  0  0  0  0
  7  6  2  0  0  0  0
  7  8  1  0  0  0  0
  8  9  2  0  0  0  0
  9 10  1  0  0  0  0
 10 13  1  0  0  0  0
 11 10  2  0  0  0  0
 12  8  1  0  0  0  0
 14 15  1  0  0  0  0
 14  6  1  0  0  0  0
 16 14  1  0  0  0  0
 17 14  1  0  0  0  0
 17 20  1  0  0  0  0
 18 17  1  0  0  0  0
 19 17  1  0  0  0  0
 21 22  1  0  0  0  0
 22 23  2  0  0  0  0
 22 27  1  0  0  0  0
 23 24  1  0  0  0  0
 24 29  1  0  0  0  0
 24 25  2  0  0  0  0
 26 25  1  0  0  0  0
 26 30  1  0  0  0  0
 27 26  2  0  0  0  0
 28 23  1  0  0  0  0
 30 38  1  0  0  0  0
 31 30  1  0  0  0  0
 31 33  1  0  0  0  0
 32 31  1  0  0  0  0
 33 35  1  0  0  0  0
 34 33  1  0  0  0  0
 35 36  1  0  0  0  0
 37 35  1  0  0  0  0
 38 37  1  0  0  0  0
M  END
>  <minimizedAffinity>
-5.43664742

$$$$

 OpenBabel03252500593D

 38 40  0  0  0  0  0  0  0  0999 V2000
   42.1460   34.2110   37.3910 O   0  0  0  0  0  0  0  0  0  0  0  0
   41.4560   32.9500   37.9290 P   0  0  1  0  0  0  0  0  0  0  0  0
   40.2800   32.4780   36.7930 O   0  0  0  0  0  0  0  0  0  0  0  0
   39.6810   31.8020   37.1570 H   0  0  0  0  0  0  0  0  0  0  0  0
   42.5860   31.6990   38.0590 O   0  0  0  0  0  0  0  0  0  0  0  0
   44.7660   31.5740   37.1760 C   0  0  0  0  0  0  0  0  0  0  0  0
   43.4330   31.2440   37.0600 C   0  0  0  0  0  0  0  0  0  0  0  0
   43.0380   30.4760   35.9500 C   0  0  0  0  0  0  0  0  0  0  0  0
   43.9960   30.1170   35.0720 N   0  0  0  0  0  0  0  0  0  0  0  0
   45.2790   30.4450   35.2000 C   0  0  0  0  0  0  0  0  0  0  0  0
   45.6640   31.1730   36.2510 N   0  0  0  0  0  0  0  0  0  0  0  0
   42.0090   30.2370   35.8860 H   0  0  0  0  0  0  0  0  0  0  0  0
   46.0420   30.1500   34.4860 H   0  0  0  0  0  0  0  0  0  0  0  0
   45.2500   32.3690   38.3060 C   0  0  0  0  0  0  0  0  0  0  0  0
   46.1840   31.8800   38.7100 H   0  0  0  0  0  0  0  0  0  0  0  0
   44.4880   32.5120   39.0770 H   0  0  0  0  0  0  0  0  0  0  0  0
   45.6850   33.7200   37.8090 C   0  0  0  0  0  0  0  0  0  0  0  0
   46.1020   34.3730   38.6010 H   0  0  0  0  0  0  0  0  0  0  0  0
   44.8970   34.2460   37.2430 H   0  0  0  0  0  0  0  0  0  0  0  0
   46.5200   33.5410   37.0880 H   0  0  0  0  0  0  0  0  0  0  0  0
   40.6580   33.2910   39.3670 O   0  0  0  0  0  0  0  0  0  0  0  0
   40.1580   32.2420   40.1260 C   0  0  0  0  0  0  0  0  0  0  0  0
   40.7180   32.0540   41.3950 C   0  0  0  0  0  0  0  0  0  0  0  0
   40.2900   31.0370   42.2260 C   0  0  0  0  0  0  0  0  0  0  0  0
   39.3010   30.2180   41.7770 N   0  0  0  0  0  0  0  0  0  0  0  0
   38.7730   30.4060   40.5700 C   0  0  0  0  0  0  0  0  0  0  0  0
   39.1770   31.3780   39.7630 N   0  0  0  0  0  0  0  0  0  0  0  0
   41.5210   32.7070   41.7760 H   0  0  0  0  0  0  0  0  0  0  0  0
   40.7390   30.9150   43.1990 H   0  0  0  0  0  0  0  0  0  0  0  0
   37.7420   29.5080   40.1710 N   0  0  0  0  0  0  0  0  0  0  0  0
   37.5180   28.2650   40.8890 C   0  0  0  0  0  3  0  0  0  0  0  0
   38.3380   28.0970   41.6260 H   0  0  0  0  0  0  0  0  0  0  0  0
   36.1550   28.3850   41.5250 C   0  0  0  0  0  3  0  0  0  0  0  0
   35.6760   27.3850   41.5430 H   0  0  0  0  0  0  0  0  0  0  0  0
   35.3120   29.3780   40.9560 N   0  0  0  0  0  0  0  0  0  0  0  0
   34.9840   30.1310   41.5660 H   0  0  0  0  0  0  0  0  0  0  0  0
   35.4500   29.6530   39.5740 C   0  0  0  0  0  2  0  0  0  0  0  0
   36.8530   29.7410   39.0490 C   0  0  0  0  0  2  0  0  0  0  0  0
  2  1  2  6  0  0  0
  2  5  1  0  0  0  0
  2 21  1  0  0  0  0
  3  4  1  0  0  0  0
  3  2  1  0  0  0  0
  6 14  1  0  0  0  0
  7  6  1  0  0  0  0
  7  5  1  0  0  0  0
  8  7  2  0  0  0  0
  9 10  2  0  0  0  0
  9  8  1  0  0  0  0
 10 11  1  0  0  0  0
 11  6  2  0  0  0  0
 12  8  1  0  0  0  0
 13 10  1  0  0  0  0
 14 15  1  0  0  0  0
 14 16  1  0  0  0  0
 17 14  1  0  0  0  0
 17 18  1  0  0  0  0
 19 17  1  0  0  0  0
 20 17  1  0  0  0  0
 21 22  1  0  0  0  0
 22 23  1  0  0  0  0
 23 28  1  0  0  0  0
 23 24  2  0  0  0  0
 24 29  1  0  0  0  0
 25 24  1  0  0  0  0
 26 25  2  0  0  0  0
 27 22  2  0  0  0  0
 27 26  1  0  0  0  0
 30 26  1  0  0  0  0
 30 31  1  0  0  0  0
 31 33  1  0  0  0  0
 31 32  1  0  0  0  0
 33 34  1  0  0  0  0
 35 33  1  0  0  0  0
 35 36  1  0  0  0  0
 37 35  1  0  0  0  0
 38 37  1  0  0  0  0
 38 30  1  0  0  0  0
M  END
>  <minimizedAffinity>
-5.40663671

$$$$

 OpenBabel03252500593D

 38 40  0  0  0  0  0  0  0  0999 V2000
   35.9220   28.1210   41.9790 O   0  0  0  0  0  0  0  0  0  0  0  0
   37.3360   28.2640   42.5580 P   0  0  1  0  0  0  0  0  0  0  0  0
   37.2050   29.0650   44.0550 O   0  0  0  0  0  0  0  0  0  0  0  0
   38.0750   29.3540   44.3830 H   0  0  0  0  0  0  0  0  0  0  0  0
   37.9870   26.7290   42.8430 O   0  0  0  0  0  0  0  0  0  0  0  0
   39.7500   25.1750   42.6810 C   0  0  0  0  0  0  0  0  0  0  0  0
   39.3200   26.4270   43.0700 C   0  0  0  0  0  0  0  0  0  0  0  0
   40.2600   27.2910   43.6610 C   0  0  0  0  0  0  0  0  0  0  0  0
   41.5200   26.8320   43.8060 N   0  0  0  0  0  0  0  0  0  0  0  0
   41.9160   25.6210   43.4230 C   0  0  0  0  0  0  0  0  0  0  0  0
   41.0320   24.7940   42.8610 N   0  0  0  0  0  0  0  0  0  0  0  0
   39.9040   28.2440   43.9510 H   0  0  0  0  0  0  0  0  0  0  0  0
   42.9340   25.2630   43.5450 H   0  0  0  0  0  0  0  0  0  0  0  0
   38.8280   24.2230   42.0570 C   0  0  0  0  0  0  0  0  0  0  0  0
   37.7750   24.6040   42.1980 H   0  0  0  0  0  0  0  0  0  0  0  0
   38.9560   23.2050   42.4350 H   0  0  0  0  0  0  0  0  0  0  0  0
   39.0590   24.2130   40.5720 C   0  0  0  0  0  0  0  0  0  0  0  0
   38.3720   23.5420   40.0190 H   0  0  0  0  0  0  0  0  0  0  0  0
   40.1090   24.0080   40.2990 H   0  0  0  0  0  0  0  0  0  0  0  0
   38.8380   25.2450   40.2080 H   0  0  0  0  0  0  0  0  0  0  0  0
   38.2820   29.2220   41.5550 O   0  0  0  0  0  0  0  0  0  0  0  0
   37.7280   29.7270   40.3860 C   0  0  0  0  0  0  0  0  0  0  0  0
   37.5820   31.1160   40.3030 C   0  0  0  0  0  0  0  0  0  0  0  0
   37.0410   31.7150   39.1820 C   0  0  0  0  0  0  0  0  0  0  0  0
   36.6520   30.9140   38.1530 N   0  0  0  0  0  0  0  0  0  0  0  0
   36.7970   29.5950   38.2420 C   0  0  0  0  0  0  0  0  0  0  0  0
   37.3140   29.0080   39.3130 N   0  0  0  0  0  0  0  0  0  0  0  0
   37.8900   31.7810   41.1260 H   0  0  0  0  0  0  0  0  0  0  0  0
   36.9400   32.7880   39.1440 H   0  0  0  0  0  0  0  0  0  0  0  0
   36.3660   28.8230   37.1240 N   0  0  0  0  0  0  0  0  0  0  0  0
   35.5160   29.4050   36.1010 C   0  0  0  0  0  3  0  0  0  0  0  0
   35.1670   30.4140   36.4230 H   0  0  0  0  0  0  0  0  0  0  0  0
   36.3360   29.4300   34.8350 C   0  0  0  0  0  3  0  0  0  0  0  0
   35.6650   29.2660   33.9670 H   0  0  0  0  0  0  0  0  0  0  0  0
   37.4540   28.5530   34.8260 N   0  0  0  0  0  0  0  0  0  0  0  0
   38.3820   28.9670   34.7040 H   0  0  0  0  0  0  0  0  0  0  0  0
   37.3550   27.3430   35.5550 C   0  0  0  0  0  2  0  0  0  0  0  0
   36.7240   27.4340   36.9130 C   0  0  0  0  0  2  0  0  0  0  0  0
  2  1  2  6  0  0  0
  2  5  1  0  0  0  0
  2  3  1  0  0  0  0
  3  4  1  0  0  0  0
  5  7  1  0  0  0  0
  6 11  2  0  0  0  0
  6  7  1  0  0  0  0
  7  8  2  0  0  0  0
  8  9  1  0  0  0  0
  8 12  1  0  0  0  0
 10 13  1  0  0  0  0
 10  9  2  0  0  0  0
 11 10  1  0  0  0  0
 14 15  1  0  0  0  0
 14 16  1  0  0  0  0
 14  6  1  0  0  0  0
 17 14  1  0  0  0  0
 18 17  1  0  0  0  0
 19 17  1  0  0  0  0
 20 17  1  0  0  0  0
 21  2  1  0  0  0  0
 22 21  1  0  0  0  0
 23 22  1  0  0  0  0
 23 28  1  0  0  0  0
 24 23  2  0  0  0  0
 25 26  2  0  0  0  0
 25 24  1  0  0  0  0
 26 27  1  0  0  0  0
 27 22  2  0  0  0  0
 29 24  1  0  0  0  0
 30 26  1  0  0  0  0
 31 32  1  0  0  0  0
 31 30  1  0  0  0  0
 33 31  1  0  0  0  0
 34 33  1  0  0  0  0
 35 33  1  0  0  0  0
 35 37  1  0  0  0  0
 36 35  1  0  0  0  0
 37 38  1  0  0  0  0
 38 30  1  0  0  0  0
M  END
>  <minimizedAffinity>
-5.36900139

$$$$

 OpenBabel03252500593D

 38 40  0  0  0  0  0  0  0  0999 V2000
   38.0150   30.2830   42.0890 O   0  0  0  0  0  0  0  0  0  0  0  0
   36.8180   29.7970   41.2600 P   0  0  1  0  0  0  0  0  0  0  0  0
   35.5640   30.9340   41.4450 O   0  0  0  0  0  0  0  0  0  0  0  0
   34.7190   30.5940   41.1020 H   0  0  0  0  0  0  0  0  0  0  0  0
   37.2440   29.7530   39.6250 O   0  0  0  0  0  0  0  0  0  0  0  0
   38.5050   31.3890   38.4920 C   0  0  0  0  0  0  0  0  0  0  0  0
   38.4570   30.1410   39.0770 C   0  0  0  0  0  0  0  0  0  0  0  0
   39.6310   29.3670   39.0730 C   0  0  0  0  0  0  0  0  0  0  0  0
   40.7260   29.9020   38.4950 N   0  0  0  0  0  0  0  0  0  0  0  0
   40.7530   31.1090   37.9350 C   0  0  0  0  0  0  0  0  0  0  0  0
   39.6440   31.8510   37.9340 N   0  0  0  0  0  0  0  0  0  0  0  0
   39.5670   28.4140   39.5280 H   0  0  0  0  0  0  0  0  0  0  0  0
   41.6400   31.5290   37.4720 H   0  0  0  0  0  0  0  0  0  0  0  0
   37.3220   32.2520   38.4590 C   0  0  0  0  0  0  0  0  0  0  0  0
   36.4210   31.6290   38.7370 H   0  0  0  0  0  0  0  0  0  0  0  0
   37.1970   32.7590   37.4990 H   0  0  0  0  0  0  0  0  0  0  0  0
   37.4400   33.2930   39.5370 C   0  0  0  0  0  0  0  0  0  0  0  0
   36.5630   33.9660   39.6040 H   0  0  0  0  0  0  0  0  0  0  0  0
   38.3760   33.8750   39.4740 H   0  0  0  0  0  0  0  0  0  0  0  0
   37.4800   32.7430   40.5090 H   0  0  0  0  0  0  0  0  0  0  0  0
   36.2580   28.3290   41.8520 O   0  0  0  0  0  0  0  0  0  0  0  0
   37.0620   27.2040   41.7350 C   0  0  0  0  0  0  0  0  0  0  0  0
   37.9510   26.9480   42.7860 C   0  0  0  0  0  0  0  0  0  0  0  0
   38.7940   25.8540   42.7640 C   0  0  0  0  0  0  0  0  0  0  0  0
   38.7380   25.0250   41.6860 N   0  0  0  0  0  0  0  0  0  0  0  0
   37.8890   25.2760   40.6930 C   0  0  0  0  0  0  0  0  0  0  0  0
   37.0750   26.3240   40.7030 N   0  0  0  0  0  0  0  0  0  0  0  0
   38.0110   27.6080   43.6670 H   0  0  0  0  0  0  0  0  0  0  0  0
   39.4680   25.6800   43.5870 H   0  0  0  0  0  0  0  0  0  0  0  0
   37.8880   24.3630   39.6000 N   0  0  0  0  0  0  0  0  0  0  0  0
   38.9750   23.4160   39.4200 C   0  0  0  0  0  3  0  0  0  0  0  0
   39.8010   23.6430   40.1340 H   0  0  0  0  0  0  0  0  0  0  0  0
   38.3760   22.0450   39.6120 C   0  0  0  0  0  3  0  0  0  0  0  0
   38.8950   21.3280   38.9440 H   0  0  0  0  0  0  0  0  0  0  0  0
   36.9620   21.9830   39.4770 N   0  0  0  0  0  0  0  0  0  0  0  0
   36.4220   21.6560   40.2820 H   0  0  0  0  0  0  0  0  0  0  0  0
   36.3410   22.8820   38.5770 C   0  0  0  0  0  2  0  0  0  0  0  0
   36.8410   24.2970   38.5990 C   0  0  0  0  0  2  0  0  0  0  0  0
  2  3  1  0  0  0  0
  2 21  1  0  0  0  0
  2  1  2  1  0  0  0
  4  3  1  0  0  0  0
  5  2  1  0  0  0  0
  6  7  1  0  0  0  0
  7  5  1  0  0  0  0
  8  7  2  0  0  0  0
  8 12  1  0  0  0  0
  9  8  1  0  0  0  0
 10  9  2  0  0  0  0
 11 10  1  0  0  0  0
 11  6  2  0  0  0  0
 13 10  1  0  0  0  0
 14  6  1  0  0  0  0
 14 15  1  0  0  0  0
 14 17  1  0  0  0  0
 16 14  1  0  0  0  0
 17 18  1  0  0  0  0
 17 20  1  0  0  0  0
 19 17  1  0  0  0  0
 22 21  1  0  0  0  0
 22 23  1  0  0  0  0
 23 28  1  0  0  0  0
 24 23  2  0  0  0  0
 24 29  1  0  0  0  0
 25 24  1  0  0  0  0
 26 27  1  0  0  0  0
 26 25  2  0  0  0  0
 27 22  2  0  0  0  0
 30 26  1  0  0  0  0
 31 30  1  0  0  0  0
 31 33  1  0  0  0  0
 31 32  1  0  0  0  0
 34 33  1  0  0  0  0
 35 33  1  0  0  0  0
 35 36  1  0  0  0  0
 37 38  1  0  0  0  0
 37 35  1  0  0  0  0
 38 30  1  0  0  0  0
M  END
>  <minimizedAffinity>
-5.32868576

$$$$
