
 OpenBabel03252507213D

 44 47  0  0  1  0  0  0  0  0999 V2000
   38.9880   29.1520   40.4220 C   0  0  0  0  0  0  0  0  0  0  0  0
   39.5480   28.6570   39.4090 O   0  0  0  0  0  0  0  0  0  0  0  0
   38.4990   28.3890   41.5250 N   0  0  0  0  0  0  0  0  0  0  0  0
   38.6210   28.5920   42.9600 C   0  0  0  0  0  0  0  0  0  0  0  0
   37.2240   28.5210   43.6130 C   0  0  0  0  0  0  0  0  0  0  0  0
   36.6700   27.1300   43.4370 C   0  0  0  0  0  0  0  0  0  0  0  0
   37.4850   26.3820   42.4120 C   0  0  0  0  0  0  0  0  0  0  0  0
   37.7360   27.2150   41.2090 C   0  0  2  0  0  0  0  0  0  0  0  0
   38.9400   29.6720   43.0720 H   0  0  0  0  0  0  0  0  0  0  0  0
   39.3450   27.9550   43.4540 H   0  0  0  0  0  0  0  0  0  0  0  0
   37.2760   28.8740   44.6390 H   0  0  0  0  0  0  0  0  0  0  0  0
   36.6080   29.1890   42.9510 H   0  0  0  0  0  0  0  0  0  0  0  0
   35.6050   27.1540   43.1320 H   0  0  0  0  0  0  0  0  0  0  0  0
   36.7380   26.6260   44.4440 H   0  0  0  0  0  0  0  0  0  0  0  0
   37.0300   25.4130   42.1880 H   0  0  0  0  0  0  0  0  0  0  0  0
   38.4470   26.1230   42.9460 H   0  0  0  0  0  0  0  0  0  0  0  0
   36.7250   27.6210   40.9200 H   0  0  0  0  0  0  0  0  0  0  0  0
   38.1720   26.4780   40.0540 N   0  0  2  0  0  0  0  0  0  0  0  0
   36.9680   26.1710   39.2370 C   0  0  0  0  0  3  0  0  0  0  0  0
   36.4270   25.3400   39.6870 H   0  0  0  0  0  0  0  0  0  0  0  0
   37.4170   25.8980   37.8210 C   0  0  0  0  0  3  0  0  0  0  0  0
   37.5840   26.8380   37.2690 H   0  0  0  0  0  0  0  0  0  0  0  0
   38.6530   25.1160   37.9550 N   0  0  0  0  0  0  0  0  0  0  0  0
   38.8380   24.5270   37.1400 H   0  0  0  0  0  0  0  0  0  0  0  0
   38.6360   24.3190   39.1690 C   0  0  0  0  0  2  0  0  0  0  0  0
   38.7950   25.2120   40.4080 C   0  0  0  0  0  2  0  0  0  0  0  0
   39.9150   31.3560   40.9630 C   0  0  0  0  0  0  0  0  0  0  0  0
   38.8310   30.5860   40.4690 C   0  0  0  0  0  0  0  0  0  0  0  0
   37.6780   31.2220   40.0580 C   0  0  0  0  0  0  0  0  0  0  0  0
   37.6230   32.5710   40.1400 N   0  0  0  0  0  0  0  0  0  0  0  0
   38.6530   33.3190   40.6100 C   0  0  0  0  0  0  0  0  0  0  0  0
   39.7790   32.6950   41.0120 N   0  0  0  0  0  0  0  0  0  0  0  0
   40.8070   30.8280   41.2790 H   0  0  0  0  0  0  0  0  0  0  0  0
   38.5900   34.3920   40.6680 H   0  0  0  0  0  0  0  0  0  0  0  0
   36.5810   30.4160   39.5630 C   0  0  0  0  0  0  0  0  0  0  0  0
   35.6150   29.9840   40.4210 C   0  0  0  0  0  0  0  0  0  0  0  0
   34.5750   29.2170   39.9410 C   0  0  0  0  0  0  0  0  0  0  0  0
   34.4660   28.8560   38.6040 C   0  0  0  0  0  0  0  0  0  0  0  0
   35.4830   29.3260   37.7770 C   0  0  0  0  0  0  0  0  0  0  0  0
   36.4760   30.0700   38.2810 N   0  0  0  0  0  0  0  0  0  0  0  0
   35.5400   30.1580   41.4780 H   0  0  0  0  0  0  0  0  0  0  0  0
   33.7640   28.8320   40.5580 H   0  0  0  0  0  0  0  0  0  0  0  0
   33.6660   28.2610   38.2250 H   0  0  0  0  0  0  0  0  0  0  0  0
   35.4710   29.0870   36.7120 H   0  0  0  0  0  0  0  0  0  0  0  0
  1 28  1  0  0  0  0
  1  3  1  0  0  0  0
  2  1  2  0  0  0  0
  3  4  1  0  0  0  0
  4  9  1  0  0  0  0
  4 10  1  0  0  0  0
  4  5  1  0  0  0  0
  5 11  1  0  0  0  0
  6  5  1  0  0  0  0
  6 14  1  0  0  0  0
  7 16  1  0  0  0  0
  7  6  1  0  0  0  0
  8 17  1  6  0  0  0
  8  3  1  0  0  0  0
  8  7  1  0  0  0  0
 12  5  1  0  0  0  0
 13  6  1  0  0  0  0
 15  7  1  0  0  0  0
 18 26  1  1  0  0  0
 18  8  1  0  0  0  0
 19 20  1  0  0  0  0
 19 18  1  0  0  0  0
 21 23  1  0  0  0  0
 21 19  1  0  0  0  0
 22 21  1  0  0  0  0
 23 25  1  0  0  0  0
 24 23  1  0  0  0  0
 25 26  1  0  0  0  0
 27 32  1  0  0  0  0
 27 33  1  0  0  0  0
 28 27  2  0  0  0  0
 29 30  2  0  0  0  0
 29 28  1  0  0  0  0
 30 31  1  0  0  0  0
 31 34  1  0  0  0  0
 31 32  2  0  0  0  0
 35 29  1  0  0  0  0
 35 36  1  0  0  0  0
 36 41  1  0  0  0  0
 37 36  2  0  0  0  0
 37 42  1  0  0  0  0
 38 37  1  0  0  0  0
 39 40  1  0  0  0  0
 39 38  2  0  0  0  0
 40 35  2  0  0  0  0
 43 38  1  0  0  0  0
 44 39  1  0  0  0  0
M  END
>  <minimizedAffinity>
-6.0253129

$$$$

 OpenBabel03252507213D

 44 47  0  0  1  0  0  0  0  0999 V2000
   39.1730   29.1750   39.9140 C   0  0  0  0  0  0  0  0  0  0  0  0
   40.4180   29.3190   39.7990 O   0  0  0  0  0  0  0  0  0  0  0  0
   38.5140   28.8150   41.1280 N   0  0  0  0  0  0  0  0  0  0  0  0
   37.3170   29.3450   41.7630 C   0  0  0  0  0  0  0  0  0  0  0  0
   36.3520   28.1870   42.0950 C   0  0  0  0  0  0  0  0  0  0  0  0
   36.9990   27.2870   43.1180 C   0  0  0  0  0  0  0  0  0  0  0  0
   38.4690   27.6060   43.2210 C   0  0  0  0  0  0  0  0  0  0  0  0
   39.0900   27.7350   41.8790 C   0  0  2  0  0  0  0  0  0  0  0  0
   36.7960   29.9330   40.9490 H   0  0  0  0  0  0  0  0  0  0  0  0
   37.4970   29.9950   42.6110 H   0  0  0  0  0  0  0  0  0  0  0  0
   35.3800   28.5840   42.3750 H   0  0  0  0  0  0  0  0  0  0  0  0
   36.3270   27.6030   41.1350 H   0  0  0  0  0  0  0  0  0  0  0  0
   36.8590   26.2180   42.8610 H   0  0  0  0  0  0  0  0  0  0  0  0
   36.4780   27.4860   44.0980 H   0  0  0  0  0  0  0  0  0  0  0  0
   38.9760   26.8880   43.8720 H   0  0  0  0  0  0  0  0  0  0  0  0
   38.5100   28.5810   43.7930 H   0  0  0  0  0  0  0  0  0  0  0  0
   38.7640   26.8130   41.3180 H   0  0  0  0  0  0  0  0  0  0  0  0
   40.5260   27.6690   41.8770 N   0  0  2  0  0  0  0  0  0  0  0  0
   40.9100   26.2570   41.6080 C   0  0  0  0  0  3  0  0  0  0  0  0
   40.7850   25.6690   42.5170 H   0  0  0  0  0  0  0  0  0  0  0  0
   42.3240   26.2470   41.0780 C   0  0  0  0  0  3  0  0  0  0  0  0
   42.3460   26.4860   40.0020 H   0  0  0  0  0  0  0  0  0  0  0  0
   43.0390   27.2530   41.8760 N   0  0  0  0  0  0  0  0  0  0  0  0
   44.0450   27.0750   41.9250 H   0  0  0  0  0  0  0  0  0  0  0  0
   42.4740   27.3600   43.2090 C   0  0  0  0  0  2  0  0  0  0  0  0
   41.0990   28.0420   43.1620 C   0  0  0  0  0  2  0  0  0  0  0  0
   37.8250   28.2470   38.0890 C   0  0  0  0  0  0  0  0  0  0  0  0
   38.3600   29.3870   38.7400 C   0  0  0  0  0  0  0  0  0  0  0  0
   38.0940   30.6440   38.2380 C   0  0  0  0  0  0  0  0  0  0  0  0
   37.3230   30.7440   37.1320 N   0  0  0  0  0  0  0  0  0  0  0  0
   36.8040   29.6610   36.4990 C   0  0  0  0  0  0  0  0  0  0  0  0
   37.0670   28.4340   36.9920 N   0  0  0  0  0  0  0  0  0  0  0  0
   38.0530   27.2730   38.5070 H   0  0  0  0  0  0  0  0  0  0  0  0
   36.1920   29.7610   35.6190 H   0  0  0  0  0  0  0  0  0  0  0  0
   38.6560   31.7940   38.9150 C   0  0  0  0  0  0  0  0  0  0  0  0
   37.9470   32.4160   39.8990 C   0  0  0  0  0  0  0  0  0  0  0  0
   38.4900   33.5110   40.5370 C   0  0  0  0  0  0  0  0  0  0  0  0
   39.7420   34.0190   40.2170 C   0  0  0  0  0  0  0  0  0  0  0  0
   40.4170   33.3430   39.2040 C   0  0  0  0  0  0  0  0  0  0  0  0
   39.8570   32.2820   38.6080 N   0  0  0  0  0  0  0  0  0  0  0  0
   36.9710   32.1690   40.2710 H   0  0  0  0  0  0  0  0  0  0  0  0
   37.9910   34.0640   41.3330 H   0  0  0  0  0  0  0  0  0  0  0  0
   40.1690   34.8660   40.7050 H   0  0  0  0  0  0  0  0  0  0  0  0
   41.4080   33.6780   38.8930 H   0  0  0  0  0  0  0  0  0  0  0  0
  1  3  1  0  0  0  0
  2  1  2  0  0  0  0
  3  4  1  0  0  0  0
  3  8  1  0  0  0  0
  4  5  1  0  0  0  0
  4 10  1  0  0  0  0
  5 11  1  0  0  0  0
  5  6  1  0  0  0  0
  6  7  1  0  0  0  0
  6 14  1  0  0  0  0
  7 16  1  0  0  0  0
  7 15  1  0  0  0  0
  8 17  1  6  0  0  0
  8  7  1  0  0  0  0
  9  4  1  0  0  0  0
 12  5  1  0  0  0  0
 13  6  1  0  0  0  0
 18  8  1  0  0  0  0
 18 26  1  1  0  0  0
 19 18  1  0  0  0  0
 19 20  1  0  0  0  0
 21 19  1  0  0  0  0
 21 23  1  0  0  0  0
 22 21  1  0  0  0  0
 23 24  1  0  0  0  0
 23 25  1  0  0  0  0
 26 25  1  0  0  0  0
 27 33  1  0  0  0  0
 27 28  1  0  0  0  0
 28  1  1  0  0  0  0
 29 28  2  0  0  0  0
 29 35  1  0  0  0  0
 30 29  1  0  0  0  0
 31 32  1  0  0  0  0
 31 30  2  0  0  0  0
 32 27  2  0  0  0  0
 34 31  1  0  0  0  0
 35 36  1  0  0  0  0
 36 41  1  0  0  0  0
 36 37  2  0  0  0  0
 37 42  1  0  0  0  0
 38 37  1  0  0  0  0
 38 43  1  0  0  0  0
 39 38  2  0  0  0  0
 40 35  2  0  0  0  0
 40 39  1  0  0  0  0
 44 39  1  0  0  0  0
M  END
>  <minimizedAffinity>
-5.36690521

$$$$

 OpenBabel03252507213D

 44 47  0  0  1  0  0  0  0  0999 V2000
   37.8550   28.3760   41.2900 C   0  0  0  0  0  0  0  0  0  0  0  0
   36.9740   29.2340   41.5610 O   0  0  0  0  0  0  0  0  0  0  0  0
   39.2410   28.6730   41.1170 N   0  0  0  0  0  0  0  0  0  0  0  0
   40.4330   28.0070   41.6160 C   0  0  0  0  0  0  0  0  0  0  0  0
   41.3990   27.7270   40.4440 C   0  0  0  0  0  0  0  0  0  0  0  0
   41.8670   29.0400   39.8700 C   0  0  0  0  0  0  0  0  0  0  0  0
   41.0000   30.1610   40.3850 C   0  0  0  0  0  0  0  0  0  0  0  0
   39.5590   29.8120   40.3020 C   0  0  2  0  0  0  0  0  0  0  0  0
   40.0760   26.9860   41.9480 H   0  0  0  0  0  0  0  0  0  0  0  0
   40.9200   28.5000   42.4480 H   0  0  0  0  0  0  0  0  0  0  0  0
   42.1870   27.0530   40.7660 H   0  0  0  0  0  0  0  0  0  0  0  0
   40.7220   27.2710   39.6710 H   0  0  0  0  0  0  0  0  0  0  0  0
   41.8510   29.0260   38.7620 H   0  0  0  0  0  0  0  0  0  0  0  0
   42.9350   29.1760   40.2060 H   0  0  0  0  0  0  0  0  0  0  0  0
   41.2520   31.1040   39.8910 H   0  0  0  0  0  0  0  0  0  0  0  0
   41.3310   30.3080   41.4560 H   0  0  0  0  0  0  0  0  0  0  0  0
   39.4110   29.4390   39.2490 H   0  0  0  0  0  0  0  0  0  0  0  0
   38.6670   30.9320   40.4180 N   0  0  2  0  0  0  0  0  0  0  0  0
   38.3890   31.4280   39.0430 C   0  0  0  0  0  3  0  0  0  0  0  0
   39.2370   32.0130   38.6910 H   0  0  0  0  0  0  0  0  0  0  0  0
   37.0950   32.2080   39.0770 C   0  0  0  0  0  3  0  0  0  0  0  0
   36.2240   31.5330   39.0380 H   0  0  0  0  0  0  0  0  0  0  0  0
   37.1410   32.9710   40.3310 N   0  0  0  0  0  0  0  0  0  0  0  0
   36.5700   33.8190   40.2980 H   0  0  0  0  0  0  0  0  0  0  0  0
   38.5080   33.2900   40.6990 C   0  0  0  0  0  2  0  0  0  0  0  0
   39.2520   32.0320   41.1700 C   0  0  0  0  0  2  0  0  0  0  0  0
   37.3320   26.2140   42.3180 C   0  0  0  0  0  0  0  0  0  0  0  0
   37.4340   27.0030   41.1440 C   0  0  0  0  0  0  0  0  0  0  0  0
   37.1340   26.4430   39.9200 C   0  0  0  0  0  0  0  0  0  0  0  0
   36.7490   25.1480   39.8830 N   0  0  0  0  0  0  0  0  0  0  0  0
   36.6470   24.3810   40.9970 C   0  0  0  0  0  0  0  0  0  0  0  0
   36.9410   24.9300   42.1930 N   0  0  0  0  0  0  0  0  0  0  0  0
   37.5740   26.6810   43.2640 H   0  0  0  0  0  0  0  0  0  0  0  0
   36.3380   23.3510   40.9480 H   0  0  0  0  0  0  0  0  0  0  0  0
   37.2510   27.2660   38.7340 C   0  0  0  0  0  0  0  0  0  0  0  0
   38.3860   27.2160   37.9820 C   0  0  0  0  0  0  0  0  0  0  0  0
   38.4880   28.0050   36.8550 C   0  0  0  0  0  0  0  0  0  0  0  0
   37.4750   28.8620   36.4470 C   0  0  0  0  0  0  0  0  0  0  0  0
   36.3410   28.8700   37.2550 C   0  0  0  0  0  0  0  0  0  0  0  0
   36.2790   28.0890   38.3420 N   0  0  0  0  0  0  0  0  0  0  0  0
   39.2660   26.6240   38.1470 H   0  0  0  0  0  0  0  0  0  0  0  0
   39.3590   28.0250   36.2010 H   0  0  0  0  0  0  0  0  0  0  0  0
   37.5460   29.4750   35.5780 H   0  0  0  0  0  0  0  0  0  0  0  0
   35.4980   29.5150   37.0030 H   0  0  0  0  0  0  0  0  0  0  0  0
  1  2  2  0  0  0  0
  3  1  1  0  0  0  0
  3  4  1  0  0  0  0
  4  9  1  0  0  0  0
  4 10  1  0  0  0  0
  5 11  1  0  0  0  0
  5  4  1  0  0  0  0
  6 14  1  0  0  0  0
  6  7  1  0  0  0  0
  6  5  1  0  0  0  0
  7 16  1  0  0  0  0
  8 17  1  6  0  0  0
  8  7  1  0  0  0  0
  8 18  1  0  0  0  0
  8  3  1  0  0  0  0
 12  5  1  0  0  0  0
 13  6  1  0  0  0  0
 15  7  1  0  0  0  0
 18 26  1  1  0  0  0
 19 21  1  0  0  0  0
 19 18  1  0  0  0  0
 20 19  1  0  0  0  0
 21 23  1  0  0  0  0
 22 21  1  0  0  0  0
 23 25  1  0  0  0  0
 24 23  1  0  0  0  0
 25 26  1  0  0  0  0
 27 33  1  0  0  0  0
 28  1  1  0  0  0  0
 28 27  2  0  0  0  0
 29 28  1  0  0  0  0
 30 29  2  0  0  0  0
 30 31  1  0  0  0  0
 31 32  2  0  0  0  0
 32 27  1  0  0  0  0
 34 31  1  0  0  0  0
 35 29  1  0  0  0  0
 36 41  1  0  0  0  0
 36 35  2  0  0  0  0
 37 36  1  0  0  0  0
 38 37  2  0  0  0  0
 38 39  1  0  0  0  0
 39 40  2  0  0  0  0
 40 35  1  0  0  0  0
 42 37  1  0  0  0  0
 43 38  1  0  0  0  0
 44 39  1  0  0  0  0
M  END
>  <minimizedAffinity>
-5.34946823

$$$$

 OpenBabel03252507213D

 44 47  0  0  1  0  0  0  0  0999 V2000
   39.0060   27.5940   39.0630 C   0  0  0  0  0  0  0  0  0  0  0  0
   40.0840   28.2330   39.1890 O   0  0  0  0  0  0  0  0  0  0  0  0
   37.7580   28.1860   38.7020 N   0  0  0  0  0  0  0  0  0  0  0  0
   36.7380   27.7670   37.7540 C   0  0  0  0  0  0  0  0  0  0  0  0
   35.3600   27.7480   38.4510 C   0  0  0  0  0  0  0  0  0  0  0  0
   34.9970   29.1540   38.8570 C   0  0  0  0  0  0  0  0  0  0  0  0
   36.2110   30.0420   38.7660 C   0  0  0  0  0  0  0  0  0  0  0  0
   37.4000   29.3990   39.3810 C   0  0  2  0  0  0  0  0  0  0  0  0
   36.9700   26.6810   37.5400 H   0  0  0  0  0  0  0  0  0  0  0  0
   36.7250   28.3170   36.8210 H   0  0  0  0  0  0  0  0  0  0  0  0
   34.6330   27.2450   37.8210 H   0  0  0  0  0  0  0  0  0  0  0  0
   35.5730   27.1920   39.4040 H   0  0  0  0  0  0  0  0  0  0  0  0
   34.5810   29.1830   39.8850 H   0  0  0  0  0  0  0  0  0  0  0  0
   34.1950   29.4990   38.1430 H   0  0  0  0  0  0  0  0  0  0  0  0
   35.9950   31.0370   39.1660 H   0  0  0  0  0  0  0  0  0  0  0  0
   36.3580   30.2110   37.6570 H   0  0  0  0  0  0  0  0  0  0  0  0
   37.0490   29.0480   40.3930 H   0  0  0  0  0  0  0  0  0  0  0  0
   38.4840   30.2980   39.6670 N   0  0  2  0  0  0  0  0  0  0  0  0
   38.2720   30.8330   41.0390 C   0  0  0  0  0  3  0  0  0  0  0  0
   37.5060   31.6070   41.0120 H   0  0  0  0  0  0  0  0  0  0  0  0
   39.6010   31.3240   41.5630 C   0  0  0  0  0  3  0  0  0  0  0  0
   40.2070   30.4890   41.9530 H   0  0  0  0  0  0  0  0  0  0  0  0
   40.2460   31.9780   40.4160 N   0  0  0  0  0  0  0  0  0  0  0  0
   40.9240   32.6900   40.6990 H   0  0  0  0  0  0  0  0  0  0  0  0
   39.2590   32.5430   39.5140 C   0  0  0  0  0  2  0  0  0  0  0  0
   38.5180   31.4320   38.7560 C   0  0  0  0  0  2  0  0  0  0  0  0
   39.4270   25.3290   38.2250 C   0  0  0  0  0  0  0  0  0  0  0  0
   39.0380   26.1700   39.2990 C   0  0  0  0  0  0  0  0  0  0  0  0
   38.7040   25.6100   40.5140 C   0  0  0  0  0  0  0  0  0  0  0  0
   38.7630   24.2650   40.6400 N   0  0  0  0  0  0  0  0  0  0  0  0
   39.1340   23.4490   39.6220 C   0  0  0  0  0  0  0  0  0  0  0  0
   39.4580   23.9990   38.4340 N   0  0  0  0  0  0  0  0  0  0  0  0
   39.6820   25.7980   37.2830 H   0  0  0  0  0  0  0  0  0  0  0  0
   39.1740   22.3800   39.7410 H   0  0  0  0  0  0  0  0  0  0  0  0
   38.3040   26.4870   41.5950 C   0  0  0  0  0  0  0  0  0  0  0  0
   36.9820   26.6440   41.8870 C   0  0  0  0  0  0  0  0  0  0  0  0
   36.6110   27.4820   42.9170 C   0  0  0  0  0  0  0  0  0  0  0  0
   37.5340   28.1860   43.6790 C   0  0  0  0  0  0  0  0  0  0  0  0
   38.8680   27.9860   43.3330 C   0  0  0  0  0  0  0  0  0  0  0  0
   39.1890   27.1630   42.3260 N   0  0  0  0  0  0  0  0  0  0  0  0
   36.1370   26.1900   41.4060 H   0  0  0  0  0  0  0  0  0  0  0  0
   35.5790   27.6630   43.2160 H   0  0  0  0  0  0  0  0  0  0  0  0
   37.2550   28.8380   44.4770 H   0  0  0  0  0  0  0  0  0  0  0  0
   39.6560   28.5020   43.8840 H   0  0  0  0  0  0  0  0  0  0  0  0
  1  2  2  0  0  0  0
  1 28  1  0  0  0  0
  3  1  1  0  0  0  0
  3  8  1  0  0  0  0
  4  5  1  0  0  0  0
  4  3  1  0  0  0  0
  5  6  1  0  0  0  0
  5 12  1  0  0  0  0
  6 13  1  0  0  0  0
  7  6  1  0  0  0  0
  7 15  1  0  0  0  0
  7  8  1  0  0  0  0
  8 18  1  0  0  0  0
  8 17  1  1  0  0  0
  9  4  1  0  0  0  0
 10  4  1  0  0  0  0
 11  5  1  0  0  0  0
 14  6  1  0  0  0  0
 16  7  1  0  0  0  0
 18 26  1  6  0  0  0
 18 19  1  0  0  0  0
 19 21  1  0  0  0  0
 20 19  1  0  0  0  0
 21 22  1  0  0  0  0
 23 24  1  0  0  0  0
 23 21  1  0  0  0  0
 25 23  1  0  0  0  0
 26 25  1  0  0  0  0
 27 32  2  0  0  0  0
 27 28  1  0  0  0  0
 28 29  2  0  0  0  0
 29 30  1  0  0  0  0
 29 35  1  0  0  0  0
 31 34  1  0  0  0  0
 31 30  2  0  0  0  0
 32 31  1  0  0  0  0
 33 27  1  0  0  0  0
 35 36  2  0  0  0  0
 35 40  1  0  0  0  0
 36 37  1  0  0  0  0
 37 42  1  0  0  0  0
 37 38  2  0  0  0  0
 38 43  1  0  0  0  0
 39 38  1  0  0  0  0
 39 44  1  0  0  0  0
 40 39  2  0  0  0  0
 41 36  1  0  0  0  0
M  END
>  <minimizedAffinity>
-5.32783222

$$$$

 OpenBabel03252507213D

 44 47  0  0  1  0  0  0  0  0999 V2000
   39.4580   27.8680   41.1600 C   0  0  0  0  0  0  0  0  0  0  0  0
   39.5620   28.7430   42.0590 O   0  0  0  0  0  0  0  0  0  0  0  0
   39.9130   28.0370   39.8170 N   0  0  0  0  0  0  0  0  0  0  0  0
   40.6620   27.1490   38.9410 C   0  0  0  0  0  0  0  0  0  0  0  0
   39.9260   27.0160   37.5900 C   0  0  0  0  0  0  0  0  0  0  0  0
   39.9120   28.3590   36.9050 C   0  0  0  0  0  0  0  0  0  0  0  0
   40.3010   29.4370   37.8850 C   0  0  0  0  0  0  0  0  0  0  0  0
   39.5840   29.2780   39.1760 C   0  0  2  0  0  0  0  0  0  0  0  0
   40.5740   26.1290   39.4210 H   0  0  0  0  0  0  0  0  0  0  0  0
   41.7090   27.3970   38.8230 H   0  0  0  0  0  0  0  0  0  0  0  0
   40.3590   26.2050   37.0120 H   0  0  0  0  0  0  0  0  0  0  0  0
   38.8670   26.8130   37.9040 H   0  0  0  0  0  0  0  0  0  0  0  0
   38.9160   28.5820   36.4720 H   0  0  0  0  0  0  0  0  0  0  0  0
   40.6580   28.3000   36.0610 H   0  0  0  0  0  0  0  0  0  0  0  0
   40.1840   30.4280   37.4380 H   0  0  0  0  0  0  0  0  0  0  0  0
   41.4180   29.3160   38.0130 H   0  0  0  0  0  0  0  0  0  0  0  0
   38.5000   29.1550   38.8930 H   0  0  0  0  0  0  0  0  0  0  0  0
   39.6070   30.4420   40.0180 N   0  0  2  0  0  0  0  0  0  0  0  0
   38.4570   31.3010   39.6290 C   0  0  0  0  0  3  0  0  0  0  0  0
   38.7000   31.8370   38.7120 H   0  0  0  0  0  0  0  0  0  0  0  0
   38.1370   32.2130   40.7900 C   0  0  0  0  0  3  0  0  0  0  0  0
   37.5260   31.6930   41.5460 H   0  0  0  0  0  0  0  0  0  0  0  0
   39.4410   32.6220   41.3270 N   0  0  0  0  0  0  0  0  0  0  0  0
   39.4030   33.5200   41.8160 H   0  0  0  0  0  0  0  0  0  0  0  0
   40.4490   32.6520   40.2820 C   0  0  0  0  0  2  0  0  0  0  0  0
   40.8200   31.2280   39.8430 C   0  0  0  0  0  2  0  0  0  0  0  0
   39.6270   25.6490   42.1870 C   0  0  0  0  0  0  0  0  0  0  0  0
   38.8370   26.6140   41.5120 C   0  0  0  0  0  0  0  0  0  0  0  0
   37.5210   26.3260   41.2150 C   0  0  0  0  0  0  0  0  0  0  0  0
   37.0270   25.1230   41.5840 N   0  0  0  0  0  0  0  0  0  0  0  0
   37.7710   24.1910   42.2310 C   0  0  0  0  0  0  0  0  0  0  0  0
   39.0580   24.4740   42.5190 N   0  0  0  0  0  0  0  0  0  0  0  0
   40.6570   25.9030   42.4060 H   0  0  0  0  0  0  0  0  0  0  0  0
   37.3600   23.2380   42.5170 H   0  0  0  0  0  0  0  0  0  0  0  0
   36.7340   27.3230   40.5200 C   0  0  0  0  0  0  0  0  0  0  0  0
   36.1420   28.3310   41.2200 C   0  0  0  0  0  0  0  0  0  0  0  0
   35.3940   29.2750   40.5490 C   0  0  0  0  0  0  0  0  0  0  0  0
   35.2110   29.2450   39.1730 C   0  0  0  0  0  0  0  0  0  0  0  0
   35.8390   28.1920   38.5120 C   0  0  0  0  0  0  0  0  0  0  0  0
   36.5580   27.2950   39.1990 N   0  0  0  0  0  0  0  0  0  0  0  0
   36.1680   28.5080   42.2790 H   0  0  0  0  0  0  0  0  0  0  0  0
   34.8890   30.1100   41.0320 H   0  0  0  0  0  0  0  0  0  0  0  0
   34.6330   29.9700   38.6460 H   0  0  0  0  0  0  0  0  0  0  0  0
   35.7450   28.0960   37.4290 H   0  0  0  0  0  0  0  0  0  0  0  0
  1 28  1  0  0  0  0
  1  2  2  0  0  0  0
  3  1  1  0  0  0  0
  4  9  1  0  0  0  0
  4  3  1  0  0  0  0
  5 12  1  0  0  0  0
  5  4  1  0  0  0  0
  6  5  1  0  0  0  0
  6  7  1  0  0  0  0
  7 16  1  0  0  0  0
  7  8  1  0  0  0  0
  8 17  1  6  0  0  0
  8  3  1  0  0  0  0
  8 18  1  0  0  0  0
 10  4  1  0  0  0  0
 11  5  1  0  0  0  0
 13  6  1  0  0  0  0
 14  6  1  0  0  0  0
 15  7  1  0  0  0  0
 18 26  1  6  0  0  0
 19 18  1  0  0  0  0
 19 21  1  0  0  0  0
 20 19  1  0  0  0  0
 21 23  1  0  0  0  0
 21 22  1  0  0  0  0
 23 24  1  0  0  0  0
 25 23  1  0  0  0  0
 26 25  1  0  0  0  0
 27 33  1  0  0  0  0
 27 32  1  0  0  0  0
 28 27  2  0  0  0  0
 29 28  1  0  0  0  0
 29 30  2  0  0  0  0
 30 31  1  0  0  0  0
 31 34  1  0  0  0  0
 31 32  2  0  0  0  0
 35 29  1  0  0  0  0
 35 36  1  0  0  0  0
 36 41  1  0  0  0  0
 37 42  1  0  0  0  0
 37 36  2  0  0  0  0
 38 37  1  0  0  0  0
 39 38  2  0  0  0  0
 39 40  1  0  0  0  0
 40 35  2  0  0  0  0
 43 38  1  0  0  0  0
 44 39  1  0  0  0  0
M  END
>  <minimizedAffinity>
-5.27775908

$$$$

 OpenBabel03252507213D

 44 47  0  0  1  0  0  0  0  0999 V2000
   39.5490   29.8100   40.8140 C   0  0  0  0  0  0  0  0  0  0  0  0
   40.4660   29.0150   41.1490 O   0  0  0  0  0  0  0  0  0  0  0  0
   38.1570   29.5650   41.0190 N   0  0  0  0  0  0  0  0  0  0  0  0
   37.0970   30.4240   41.5220 C   0  0  0  0  0  0  0  0  0  0  0  0
   35.9080   30.4090   40.5380 C   0  0  0  0  0  0  0  0  0  0  0  0
   35.3270   29.0180   40.4910 C   0  0  0  0  0  0  0  0  0  0  0  0
   36.2820   28.0450   41.1350 C   0  0  0  0  0  0  0  0  0  0  0  0
   37.6740   28.2610   40.6650 C   0  0  2  0  0  0  0  0  0  0  0  0
   37.5180   31.4720   41.4540 H   0  0  0  0  0  0  0  0  0  0  0  0
   36.7950   30.2290   42.5440 H   0  0  0  0  0  0  0  0  0  0  0  0
   35.2050   31.1970   40.7940 H   0  0  0  0  0  0  0  0  0  0  0  0
   36.4070   30.5740   39.5450 H   0  0  0  0  0  0  0  0  0  0  0  0
   35.1100   28.7050   39.4500 H   0  0  0  0  0  0  0  0  0  0  0  0
   34.3530   29.0560   41.0590 H   0  0  0  0  0  0  0  0  0  0  0  0
   35.9310   27.0170   41.0080 H   0  0  0  0  0  0  0  0  0  0  0  0
   36.1830   28.2400   42.2440 H   0  0  0  0  0  0  0  0  0  0  0  0
   37.5980   28.2970   39.5410 H   0  0  0  0  0  0  0  0  0  0  0  0
   38.5690   27.1680   40.9310 N   0  0  2  0  0  0  0  0  0  0  0  0
   38.4880   26.2310   39.7790 C   0  0  0  0  0  3  0  0  0  0  0  0
   37.5790   25.6360   39.8600 H   0  0  0  0  0  0  0  0  0  0  0  0
   39.7490   25.3990   39.7590 C   0  0  0  0  0  3  0  0  0  0  0  0
   40.5790   25.9490   39.2860 H   0  0  0  0  0  0  0  0  0  0  0  0
   40.0280   25.0930   41.1680 N   0  0  0  0  0  0  0  0  0  0  0  0
   40.5730   24.2360   41.2860 H   0  0  0  0  0  0  0  0  0  0  0  0
   38.8000   25.0260   41.9410 C   0  0  0  0  0  2  0  0  0  0  0  0
   38.1980   26.4270   42.1270 C   0  0  0  0  0  2  0  0  0  0  0  0
   40.3920   32.1030   41.0120 C   0  0  0  0  0  0  0  0  0  0  0  0
   39.9320   31.0500   40.1820 C   0  0  0  0  0  0  0  0  0  0  0  0
   39.8640   31.2410   38.8170 C   0  0  0  0  0  0  0  0  0  0  0  0
   40.2440   32.4380   38.3160 N   0  0  0  0  0  0  0  0  0  0  0  0
   40.6860   33.4530   39.0990 C   0  0  0  0  0  0  0  0  0  0  0  0
   40.7510   33.2650   40.4330 N   0  0  0  0  0  0  0  0  0  0  0  0
   40.4340   31.9240   42.0800 H   0  0  0  0  0  0  0  0  0  0  0  0
   40.9840   34.4000   38.6810 H   0  0  0  0  0  0  0  0  0  0  0  0
   39.3860   30.1540   37.9880 C   0  0  0  0  0  0  0  0  0  0  0  0
   38.0950   30.1490   37.5530 C   0  0  0  0  0  0  0  0  0  0  0  0
   37.6480   29.1090   36.7660 C   0  0  0  0  0  0  0  0  0  0  0  0
   38.4640   28.0500   36.3920 C   0  0  0  0  0  0  0  0  0  0  0  0
   39.7720   28.1090   36.8670 C   0  0  0  0  0  0  0  0  0  0  0  0
   40.1680   29.1370   37.6290 N   0  0  0  0  0  0  0  0  0  0  0  0
   37.3270   30.8740   37.7470 H   0  0  0  0  0  0  0  0  0  0  0  0
   36.6330   29.0300   36.3770 H   0  0  0  0  0  0  0  0  0  0  0  0
   38.1260   27.2410   35.7840 H   0  0  0  0  0  0  0  0  0  0  0  0
   40.4770   27.3150   36.6170 H   0  0  0  0  0  0  0  0  0  0  0  0
  1  3  1  0  0  0  0
  1  2  2  0  0  0  0
  3  4  1  0  0  0  0
  4 10  1  0  0  0  0
  5 11  1  0  0  0  0
  5  4  1  0  0  0  0
  6  5  1  0  0  0  0
  6 14  1  0  0  0  0
  6  7  1  0  0  0  0
  7 16  1  0  0  0  0
  8 17  1  6  0  0  0
  8 18  1  0  0  0  0
  8  3  1  0  0  0  0
  8  7  1  0  0  0  0
  9  4  1  0  0  0  0
 12  5  1  0  0  0  0
 13  6  1  0  0  0  0
 15  7  1  0  0  0  0
 18 26  1  1  0  0  0
 19 20  1  0  0  0  0
 19 18  1  0  0  0  0
 21 19  1  0  0  0  0
 21 23  1  0  0  0  0
 22 21  1  0  0  0  0
 23 24  1  0  0  0  0
 23 25  1  0  0  0  0
 25 26  1  0  0  0  0
 27 33  1  0  0  0  0
 28  1  1  0  0  0  0
 28 27  2  0  0  0  0
 29 28  1  0  0  0  0
 30 29  2  0  0  0  0
 30 31  1  0  0  0  0
 31 32  2  0  0  0  0
 32 27  1  0  0  0  0
 34 31  1  0  0  0  0
 35 29  1  0  0  0  0
 36 41  1  0  0  0  0
 36 35  2  0  0  0  0
 37 36  1  0  0  0  0
 38 37  2  0  0  0  0
 38 39  1  0  0  0  0
 39 40  2  0  0  0  0
 40 35  1  0  0  0  0
 42 37  1  0  0  0  0
 43 38  1  0  0  0  0
 44 39  1  0  0  0  0
M  END
>  <minimizedAffinity>
-5.26454258

$$$$

 OpenBabel03252507213D

 44 47  0  0  1  0  0  0  0  0999 V2000
   39.0080   31.2370   39.9310 C   0  0  0  0  0  0  0  0  0  0  0  0
   37.8940   31.5990   40.3920 O   0  0  0  0  0  0  0  0  0  0  0  0
   39.1720   30.4390   38.7580 N   0  0  0  0  0  0  0  0  0  0  0  0
   40.0820   30.5680   37.6300 C   0  0  0  0  0  0  0  0  0  0  0  0
   40.8160   29.2290   37.4020 C   0  0  0  0  0  0  0  0  0  0  0  0
   39.8100   28.1790   37.0040 C   0  0  0  0  0  0  0  0  0  0  0  0
   38.4150   28.6760   37.2880 C   0  0  0  0  0  0  0  0  0  0  0  0
   38.3220   29.2880   38.6380 C   0  0  2  0  0  0  0  0  0  0  0  0
   40.8830   31.2820   37.9870 H   0  0  0  0  0  0  0  0  0  0  0  0
   39.6350   30.9590   36.7240 H   0  0  0  0  0  0  0  0  0  0  0  0
   41.6370   29.3720   36.7060 H   0  0  0  0  0  0  0  0  0  0  0  0
   41.1610   28.9580   38.4360 H   0  0  0  0  0  0  0  0  0  0  0  0
   39.9890   27.2250   37.5390 H   0  0  0  0  0  0  0  0  0  0  0  0
   39.9510   27.9980   35.9000 H   0  0  0  0  0  0  0  0  0  0  0  0
   37.6790   27.8850   37.1140 H   0  0  0  0  0  0  0  0  0  0  0  0
   38.2100   29.4330   36.4740 H   0  0  0  0  0  0  0  0  0  0  0  0
   38.7910   28.5330   39.3320 H   0  0  0  0  0  0  0  0  0  0  0  0
   36.9810   29.4470   39.1300 N   0  0  2  0  0  0  0  0  0  0  0  0
   36.6930   28.2970   40.0280 C   0  0  0  0  0  3  0  0  0  0  0  0
   36.4740   27.4150   39.4260 H   0  0  0  0  0  0  0  0  0  0  0  0
   35.5630   28.6900   40.9490 C   0  0  0  0  0  3  0  0  0  0  0  0
   35.9320   29.2920   41.7960 H   0  0  0  0  0  0  0  0  0  0  0  0
   34.6280   29.4470   40.1060 N   0  0  0  0  0  0  0  0  0  0  0  0
   33.6680   29.4190   40.4580 H   0  0  0  0  0  0  0  0  0  0  0  0
   34.6800   28.9920   38.7290 C   0  0  0  0  0  2  0  0  0  0  0  0
   35.9930   29.4280   38.0620 C   0  0  0  0  0  2  0  0  0  0  0  0
   40.7880   32.8890   40.2580 C   0  0  0  0  0  0  0  0  0  0  0  0
   40.1960   31.6580   40.6350 C   0  0  0  0  0  0  0  0  0  0  0  0
   40.7650   30.9110   41.6450 C   0  0  0  0  0  0  0  0  0  0  0  0
   41.8790   31.3860   42.2470 N   0  0  0  0  0  0  0  0  0  0  0  0
   42.4560   32.5630   41.8960 C   0  0  0  0  0  0  0  0  0  0  0  0
   41.8980   33.2910   40.9080 N   0  0  0  0  0  0  0  0  0  0  0  0
   40.3190   33.4540   39.4610 H   0  0  0  0  0  0  0  0  0  0  0  0
   43.3430   32.9260   42.3870 H   0  0  0  0  0  0  0  0  0  0  0  0
   40.1470   29.6530   42.0100 C   0  0  0  0  0  0  0  0  0  0  0  0
   39.1440   29.6310   42.9320 C   0  0  0  0  0  0  0  0  0  0  0  0
   38.5630   28.4290   43.2730 C   0  0  0  0  0  0  0  0  0  0  0  0
   38.9580   27.2210   42.7140 C   0  0  0  0  0  0  0  0  0  0  0  0
   39.9870   27.3060   41.7790 C   0  0  0  0  0  0  0  0  0  0  0  0
   40.5260   28.4940   41.4730 N   0  0  0  0  0  0  0  0  0  0  0  0
   38.7180   30.4580   43.4680 H   0  0  0  0  0  0  0  0  0  0  0  0
   37.7580   28.3240   44.0000 H   0  0  0  0  0  0  0  0  0  0  0  0
   38.5140   26.2860   42.9730 H   0  0  0  0  0  0  0  0  0  0  0  0
   40.3560   26.4020   41.2920 H   0  0  0  0  0  0  0  0  0  0  0  0
  1  2  2  0  0  0  0
  1 28  1  0  0  0  0
  3  1  1  0  0  0  0
  4  9  1  0  0  0  0
  4  3  1  0  0  0  0
  5  4  1  0  0  0  0
  5 12  1  0  0  0  0
  6  7  1  0  0  0  0
  6  5  1  0  0  0  0
  6 13  1  0  0  0  0
  7  8  1  0  0  0  0
  8  3  1  0  0  0  0
  8 18  1  0  0  0  0
  8 17  1  1  0  0  0
 10  4  1  0  0  0  0
 11  5  1  0  0  0  0
 14  6  1  0  0  0  0
 15  7  1  0  0  0  0
 16  7  1  0  0  0  0
 18 26  1  6  0  0  0
 18 19  1  0  0  0  0
 19 21  1  0  0  0  0
 20 19  1  0  0  0  0
 21 22  1  0  0  0  0
 23 24  1  0  0  0  0
 23 21  1  0  0  0  0
 25 23  1  0  0  0  0
 26 25  1  0  0  0  0
 27 28  2  0  0  0  0
 27 32  1  0  0  0  0
 28 29  1  0  0  0  0
 29 35  1  0  0  0  0
 29 30  2  0  0  0  0
 31 30  1  0  0  0  0
 31 34  1  0  0  0  0
 32 31  2  0  0  0  0
 33 27  1  0  0  0  0
 35 36  1  0  0  0  0
 36 37  2  0  0  0  0
 36 41  1  0  0  0  0
 37 42  1  0  0  0  0
 38 43  1  0  0  0  0
 38 37  1  0  0  0  0
 39 38  2  0  0  0  0
 40 39  1  0  0  0  0
 40 35  2  0  0  0  0
 44 39  1  0  0  0  0
M  END
>  <minimizedAffinity>
-5.22719526

$$$$

 OpenBabel03252507213D

 44 47  0  0  1  0  0  0  0  0999 V2000
   39.4510   27.9830   40.1840 C   0  0  0  0  0  0  0  0  0  0  0  0
   39.7190   27.8260   38.9630 O   0  0  0  0  0  0  0  0  0  0  0  0
   40.1800   27.3770   41.2510 N   0  0  0  0  0  0  0  0  0  0  0  0
   40.6710   27.9220   42.5070 C   0  0  0  0  0  0  0  0  0  0  0  0
   40.2100   27.0240   43.6760 C   0  0  0  0  0  0  0  0  0  0  0  0
   40.8520   25.6670   43.5340 C   0  0  0  0  0  0  0  0  0  0  0  0
   41.4400   25.5220   42.1540 C   0  0  0  0  0  0  0  0  0  0  0  0
   40.4900   25.9820   41.1100 C   0  0  2  0  0  0  0  0  0  0  0  0
   40.1020   28.8900   42.6430 H   0  0  0  0  0  0  0  0  0  0  0  0
   41.7340   28.1280   42.5330 H   0  0  0  0  0  0  0  0  0  0  0  0
   40.3910   27.5270   44.6220 H   0  0  0  0  0  0  0  0  0  0  0  0
   39.1170   26.8790   43.4590 H   0  0  0  0  0  0  0  0  0  0  0  0
   40.1230   24.8540   43.7240 H   0  0  0  0  0  0  0  0  0  0  0  0
   41.6590   25.6080   44.3200 H   0  0  0  0  0  0  0  0  0  0  0  0
   41.8070   24.5040   41.9940 H   0  0  0  0  0  0  0  0  0  0  0  0
   42.3750   26.1580   42.1740 H   0  0  0  0  0  0  0  0  0  0  0  0
   39.5180   25.4650   41.3520 H   0  0  0  0  0  0  0  0  0  0  0  0
   40.8090   25.5450   39.7780 N   0  0  2  0  0  0  0  0  0  0  0  0
   40.0320   24.3040   39.5150 C   0  0  0  0  0  3  0  0  0  0  0  0
   40.5130   23.4630   40.0140 H   0  0  0  0  0  0  0  0  0  0  0  0
   39.9180   24.1280   38.0200 C   0  0  0  0  0  3  0  0  0  0  0  0
   39.1080   24.7540   37.6070 H   0  0  0  0  0  0  0  0  0  0  0  0
   41.2310   24.5130   37.4870 N   0  0  0  0  0  0  0  0  0  0  0  0
   41.4380   24.0710   36.5890 H   0  0  0  0  0  0  0  0  0  0  0  0
   42.2850   24.2360   38.4470 C   0  0  0  0  0  2  0  0  0  0  0  0
   42.2190   25.2190   39.6250 C   0  0  0  0  0  2  0  0  0  0  0  0
   38.5290   30.2360   40.4650 C   0  0  0  0  0  0  0  0  0  0  0  0
   38.3350   28.8330   40.5220 C   0  0  0  0  0  0  0  0  0  0  0  0
   37.1050   28.3310   40.8960 C   0  0  0  0  0  0  0  0  0  0  0  0
   36.1190   29.2050   41.1960 N   0  0  0  0  0  0  0  0  0  0  0  0
   36.2900   30.5500   41.1460 C   0  0  0  0  0  0  0  0  0  0  0  0
   37.4930   31.0380   40.7810 N   0  0  0  0  0  0  0  0  0  0  0  0
   39.5050   30.6000   40.1690 H   0  0  0  0  0  0  0  0  0  0  0  0
   35.4920   31.2310   41.3890 H   0  0  0  0  0  0  0  0  0  0  0  0
   36.9320   26.8940   40.9530 C   0  0  0  0  0  0  0  0  0  0  0  0
   37.0530   26.2430   42.1430 C   0  0  0  0  0  0  0  0  0  0  0  0
   36.8870   24.8750   42.1880 C   0  0  0  0  0  0  0  0  0  0  0  0
   36.6000   24.1190   41.0590 C   0  0  0  0  0  0  0  0  0  0  0  0
   36.4880   24.8400   39.8720 C   0  0  0  0  0  0  0  0  0  0  0  0
   36.6560   26.1690   39.8700 N   0  0  0  0  0  0  0  0  0  0  0  0
   37.2770   26.6580   43.1080 H   0  0  0  0  0  0  0  0  0  0  0  0
   36.9670   24.2780   43.0960 H   0  0  0  0  0  0  0  0  0  0  0  0
   36.4710   23.0600   41.0840 H   0  0  0  0  0  0  0  0  0  0  0  0
   36.2630   24.3200   38.9390 H   0  0  0  0  0  0  0  0  0  0  0  0
  1 28  1  0  0  0  0
  1  3  1  0  0  0  0
  2  1  2  0  0  0  0
  3  4  1  0  0  0  0
  4 10  1  0  0  0  0
  4  9  1  0  0  0  0
  4  5  1  0  0  0  0
  5 11  1  0  0  0  0
  6  5  1  0  0  0  0
  6 13  1  0  0  0  0
  6 14  1  0  0  0  0
  7 16  1  0  0  0  0
  7  6  1  0  0  0  0
  8  3  1  0  0  0  0
  8 17  1  1  0  0  0
  8  7  1  0  0  0  0
 12  5  1  0  0  0  0
 15  7  1  0  0  0  0
 18 26  1  1  0  0  0
 18  8  1  0  0  0  0
 19 18  1  0  0  0  0
 19 20  1  0  0  0  0
 21 19  1  0  0  0  0
 22 21  1  0  0  0  0
 23 21  1  0  0  0  0
 23 25  1  0  0  0  0
 24 23  1  0  0  0  0
 25 26  1  0  0  0  0
 27 28  2  0  0  0  0
 27 32  1  0  0  0  0
 28 29  1  0  0  0  0
 29 35  1  0  0  0  0
 29 30  2  0  0  0  0
 31 30  1  0  0  0  0
 31 34  1  0  0  0  0
 32 31  2  0  0  0  0
 33 27  1  0  0  0  0
 35 36  1  0  0  0  0
 36 37  2  0  0  0  0
 36 41  1  0  0  0  0
 37 42  1  0  0  0  0
 38 43  1  0  0  0  0
 38 37  1  0  0  0  0
 39 38  2  0  0  0  0
 40 39  1  0  0  0  0
 40 35  2  0  0  0  0
 44 39  1  0  0  0  0
M  END
>  <minimizedAffinity>
-5.2089448

$$$$

 OpenBabel03252507213D

 44 47  0  0  1  0  0  0  0  0999 V2000
   38.9280   28.2890   39.6570 C   0  0  0  0  0  0  0  0  0  0  0  0
   39.0670   28.3610   38.4080 O   0  0  0  0  0  0  0  0  0  0  0  0
   39.0950   29.3910   40.5500 N   0  0  0  0  0  0  0  0  0  0  0  0
   38.2920   29.8420   41.6760 C   0  0  0  0  0  0  0  0  0  0  0  0
   39.1960   30.0240   42.9150 C   0  0  0  0  0  0  0  0  0  0  0  0
   40.1850   31.1290   42.6420 C   0  0  0  0  0  0  0  0  0  0  0  0
   40.1970   31.4510   41.1690 C   0  0  0  0  0  0  0  0  0  0  0  0
   40.2510   30.2170   40.3450 C   0  0  2  0  0  0  0  0  0  0  0  0
   37.6290   28.9610   41.9280 H   0  0  0  0  0  0  0  0  0  0  0  0
   37.6730   30.7090   41.4810 H   0  0  0  0  0  0  0  0  0  0  0  0
   38.5850   30.1570   43.8020 H   0  0  0  0  0  0  0  0  0  0  0  0
   39.7890   29.0700   42.9300 H   0  0  0  0  0  0  0  0  0  0  0  0
   41.2040   30.8520   42.9780 H   0  0  0  0  0  0  0  0  0  0  0  0
   39.8450   32.0220   43.2420 H   0  0  0  0  0  0  0  0  0  0  0  0
   40.9890   32.1690   40.9360 H   0  0  0  0  0  0  0  0  0  0  0  0
   39.2380   32.0250   40.9940 H   0  0  0  0  0  0  0  0  0  0  0  0
   41.0950   29.6110   40.7850 H   0  0  0  0  0  0  0  0  0  0  0  0
   40.6340   30.4290   38.9760 N   0  0  2  0  0  0  0  0  0  0  0  0
   42.1160   30.3240   38.9030 C   0  0  0  0  0  3  0  0  0  0  0  0
   42.5630   31.2460   39.2760 H   0  0  0  0  0  0  0  0  0  0  0  0
   42.4960   30.0080   37.4760 C   0  0  0  0  0  3  0  0  0  0  0  0
   42.3830   28.9310   37.2650 H   0  0  0  0  0  0  0  0  0  0  0  0
   41.5960   30.8240   36.6510 N   0  0  0  0  0  0  0  0  0  0  0  0
   41.9860   31.0320   35.7290 H   0  0  0  0  0  0  0  0  0  0  0  0
   41.2250   32.0490   37.3370 C   0  0  0  0  0  2  0  0  0  0  0  0
   40.2640   31.7520   38.4970 C   0  0  0  0  0  2  0  0  0  0  0  0
   39.6140   26.2330   40.7990 C   0  0  0  0  0  0  0  0  0  0  0  0
   38.5770   27.0080   40.2210 C   0  0  0  0  0  0  0  0  0  0  0  0
   37.2870   26.5210   40.2150 C   0  0  0  0  0  0  0  0  0  0  0  0
   37.0550   25.3080   40.7670 N   0  0  0  0  0  0  0  0  0  0  0  0
   38.0370   24.5560   41.3230 C   0  0  0  0  0  0  0  0  0  0  0  0
   39.2980   25.0340   41.3270 N   0  0  0  0  0  0  0  0  0  0  0  0
   40.6170   26.6410   40.7890 H   0  0  0  0  0  0  0  0  0  0  0  0
   37.8330   23.5920   41.7580 H   0  0  0  0  0  0  0  0  0  0  0  0
   36.2450   27.3270   39.6140 C   0  0  0  0  0  0  0  0  0  0  0  0
   35.8090   27.0450   38.3540 C   0  0  0  0  0  0  0  0  0  0  0  0
   34.8170   27.8190   37.7900 C   0  0  0  0  0  0  0  0  0  0  0  0
   34.2340   28.8900   38.4550 C   0  0  0  0  0  0  0  0  0  0  0  0
   34.7210   29.1290   39.7380 C   0  0  0  0  0  0  0  0  0  0  0  0
   35.6850   28.3540   40.2510 N   0  0  0  0  0  0  0  0  0  0  0  0
   36.1450   26.2680   37.6940 H   0  0  0  0  0  0  0  0  0  0  0  0
   34.4130   27.6610   36.7910 H   0  0  0  0  0  0  0  0  0  0  0  0
   33.4670   29.4940   38.0260 H   0  0  0  0  0  0  0  0  0  0  0  0
   34.3150   29.9530   40.3280 H   0  0  0  0  0  0  0  0  0  0  0  0
  1 28  1  0  0  0  0
  1  3  1  0  0  0  0
  2  1  2  0  0  0  0
  3  4  1  0  0  0  0
  4  9  1  0  0  0  0
  4  5  1  0  0  0  0
  5 12  1  0  0  0  0
  5 11  1  0  0  0  0
  6  5  1  0  0  0  0
  6 13  1  0  0  0  0
  6 14  1  0  0  0  0
  7  6  1  0  0  0  0
  8  3  1  0  0  0  0
  8 17  1  1  0  0  0
  8  7  1  0  0  0  0
 10  4  1  0  0  0  0
 15  7  1  0  0  0  0
 16  7  1  0  0  0  0
 18 26  1  1  0  0  0
 18  8  1  0  0  0  0
 19 18  1  0  0  0  0
 19 20  1  0  0  0  0
 21 19  1  0  0  0  0
 22 21  1  0  0  0  0
 23 25  1  0  0  0  0
 23 21  1  0  0  0  0
 24 23  1  0  0  0  0
 25 26  1  0  0  0  0
 27 32  1  0  0  0  0
 28 27  2  0  0  0  0
 29 28  1  0  0  0  0
 29 30  2  0  0  0  0
 30 31  1  0  0  0  0
 31 32  2  0  0  0  0
 31 34  1  0  0  0  0
 33 27  1  0  0  0  0
 35 29  1  0  0  0  0
 35 40  1  0  0  0  0
 36 35  2  0  0  0  0
 37 36  1  0  0  0  0
 37 38  2  0  0  0  0
 38 39  1  0  0  0  0
 39 40  2  0  0  0  0
 39 44  1  0  0  0  0
 41 36  1  0  0  0  0
 42 37  1  0  0  0  0
 43 38  1  0  0  0  0
M  END
>  <minimizedAffinity>
-5.20827341

$$$$
