
 OpenBabel03252507133D

 42 44  0  0  1  0  0  0  0  0999 V2000
   44.2810   33.3560   41.7220 C   0  0  2  0  0  0  0  0  0  0  0  0
   43.6690   32.0880   42.1600 C   0  0  0  0  0  0  0  0  0  0  0  0
   42.2340   32.0560   41.6830 C   0  0  0  0  0  0  0  0  0  0  0  0
   42.1740   31.8580   40.3050 O   0  0  0  0  0  0  0  0  0  0  0  0
   43.2650   32.4420   39.6830 C   0  0  0  0  0  0  0  0  0  0  0  0
   43.6490   33.7620   40.3920 C   0  0  1  0  0  0  0  0  0  0  0  0
   43.9610   34.1710   42.4240 H   0  0  0  0  0  0  0  0  0  0  0  0
   43.6040   32.0430   43.2880 H   0  0  0  0  0  0  0  0  0  0  0  0
   44.1710   31.2000   41.7590 H   0  0  0  0  0  0  0  0  0  0  0  0
   41.8080   31.1190   42.1250 H   0  0  0  0  0  0  0  0  0  0  0  0
   41.6120   32.8660   42.0620 H   0  0  0  0  0  0  0  0  0  0  0  0
   44.1220   31.7350   39.7650 H   0  0  0  0  0  0  0  0  0  0  0  0
   43.0240   32.5820   38.6270 H   0  0  0  0  0  0  0  0  0  0  0  0
   44.4770   34.1750   39.7820 H   0  0  0  0  0  0  0  0  0  0  0  0
   42.5560   34.5710   40.4040 N   0  0  2  0  0  0  0  0  0  0  0  0
   42.2260   35.0770   39.0880 C   0  0  0  0  0  0  0  0  0  0  0  0
   42.7760   34.6580   38.2590 H   0  0  0  0  0  0  0  0  0  0  0  0
   40.7040   34.9090   38.9860 C   0  0  0  0  0  0  0  0  0  0  0  0
   40.3150   35.1160   37.9930 H   0  0  0  0  0  0  0  0  0  0  0  0
   40.1900   35.8870   39.9250 N   0  0  0  0  0  0  0  0  0  0  0  0
   40.3350   36.8420   39.5500 H   0  0  0  0  0  0  0  0  0  0  0  0
   40.6840   35.7350   41.2430 C   0  0  0  0  0  0  0  0  0  0  0  0
   42.2090   35.5380   41.3310 C   0  0  0  0  0  0  0  0  0  0  0  0
   45.6180   33.4260   41.6930 O   0  0  0  0  0  0  0  0  0  0  0  0
   46.6550   34.0940   44.0080 O   0  0  0  0  0  0  0  0  0  0  0  0
   46.3980   34.5440   42.6200 P   0  0  2  0  0  0  0  0  0  0  0  0
   45.4160   35.9320   42.7210 O   0  0  0  0  0  0  0  0  0  0  0  0
   44.6310   35.7070   43.2910 H   0  0  0  0  0  0  0  0  0  0  0  0
   47.8690   35.0280   41.8600 O   0  0  0  0  0  0  0  0  0  0  0  0
   48.8920   33.1500   40.8640 C   0  0  0  0  0  0  0  0  0  0  0  0
   48.9510   34.1760   41.7780 C   0  0  0  0  0  0  0  0  0  0  0  0
   50.1130   34.2990   42.5790 C   0  0  0  0  0  0  0  0  0  0  0  0
   51.0980   33.3930   42.3930 N   0  0  0  0  0  0  0  0  0  0  0  0
   51.0050   32.4220   41.5060 C   0  0  0  0  0  0  0  0  0  0  0  0
   49.8900   32.3110   40.7420 N   0  0  0  0  0  0  0  0  0  0  0  0
   47.7510   33.3820   38.6640 C   0  0  0  0  0  0  0  0  0  0  0  0
   48.2570   34.5420   38.4270 O   0  0  0  0  0  0  0  0  0  0  0  0
   48.0150   32.6160   39.8830 N   0  0  0  0  0  0  0  0  0  0  0  0
   50.0560   35.1290   43.2570 H   0  0  0  0  0  0  0  0  0  0  0  0
   51.8410   31.7300   41.4120 H   0  0  0  0  0  0  0  0  0  0  0  0
   47.1170   33.0720   37.8460 H   0  0  0  0  0  0  0  0  0  0  0  0
   47.5060   31.7130   39.9130 H   0  0  0  0  0  0  0  0  0  0  0  0
  1  2  1  0  0  0  0
  1  7  1  1  0  0  0
  2  8  1  0  0  0  0
  3 11  1  0  0  0  0
  3 10  1  0  0  0  0
  3  2  1  0  0  0  0
  4  3  1  0  0  0  0
  5 12  1  0  0  0  0
  5  4  1  0  0  0  0
  5  6  1  0  0  0  0
  6 14  1  6  0  0  0
  6 15  1  0  0  0  0
  6  1  1  0  0  0  0
  9  2  1  0  0  0  0
 13  5  1  0  0  0  0
 15 23  1  1  0  0  0
 16 15  1  0  0  0  0
 17 16  1  0  0  0  0
 18 16  1  0  0  0  0
 18 20  1  0  0  0  0
 19 18  1  0  0  0  0
 20 22  1  0  0  0  0
 21 20  1  0  0  0  0
 22 23  1  0  0  0  0
 24  1  1  0  0  0  0
 24 26  1  0  0  0  0
 26 27  1  0  0  0  0
 26 25  2  1  0  0  0
 27 28  1  0  0  0  0
 29 26  1  0  0  0  0
 30 31  1  0  0  0  0
 31 29  1  0  0  0  0
 31 32  2  0  0  0  0
 32 39  1  0  0  0  0
 33 32  1  0  0  0  0
 34 33  2  0  0  0  0
 35 30  2  0  0  0  0
 35 34  1  0  0  0  0
 36 38  1  0  0  0  0
 37 36  2  0  0  0  0
 38 42  1  0  0  0  0
 38 30  1  0  0  0  0
 40 34  1  0  0  0  0
 41 36  1  0  0  0  0
M  END
>  <minimizedAffinity>
-5.43778133

>  <minimizedRMSD>
3.63618398

$$$$
