
     RDKit          3D

 36 38  0  0  0  0  0  0  0  0999 V2000
   44.6747   35.3768   45.1455 C   0  0  0  0  0  0  0  0  0  0  0  0
   45.1364   35.6831   43.8373 C   0  0  0  0  0  0  0  0  0  0  0  0
   46.0812   34.8431   43.3338 C   0  0  0  0  0  0  0  0  0  0  0  0
   46.5483   33.7766   44.0577 N   0  0  0  0  0  0  0  0  0  0  0  0
   46.0835   33.5213   45.2986 C   0  0  0  0  0  0  0  0  0  0  0  0
   45.1398   34.3312   45.8393 N   0  0  0  0  0  0  0  0  0  0  0  0
   46.5794   35.0667   41.9333 C   0  0  1  0  0  0  0  0  0  0  0  0
   48.1115   35.2993   41.9159 C   0  0  0  0  0  0  0  0  0  0  0  0
   47.3742   34.0841   41.3156 C   0  0  2  0  0  0  0  0  0  0  0  0
   47.3700   33.9133   39.8112 C   0  0  0  0  0  0  0  0  0  0  0  0
   44.6591   36.8115   43.1207 N   0  0  0  0  0  0  0  0  0  0  0  0
   43.9176   36.0125   45.5994 H   0  0  0  0  0  0  0  0  0  0  0  0
   46.5624   32.6452   45.7163 H   0  0  0  0  0  0  0  0  0  0  0  0
   46.0728   35.8673   41.3848 H   0  0  0  0  0  0  0  0  0  0  0  0
   48.6787   35.1895   42.8413 H   0  0  0  0  0  0  0  0  0  0  0  0
   48.5335   35.9578   41.1481 H   0  0  0  0  0  0  0  0  0  0  0  0
   47.7211   33.1393   41.8182 H   0  0  0  0  0  0  0  0  0  0  0  0
   48.1848   33.2767   39.4516 H   0  0  0  0  0  0  0  0  0  0  0  0
   47.5964   34.9378   39.3921 H   0  0  0  0  0  0  0  0  0  0  0  0
   44.0014   36.8795   42.3189 H   0  0  0  0  0  0  0  0  0  0  0  0
   45.1613   37.5885   43.6296 H   0  0  0  0  0  0  0  0  0  0  0  0
   46.0596   33.5977   39.3497 N   0  0  0  0  0  0  0  0  0  0  0  0
   45.8989   32.2815   38.8046 C   0  0  2  0  0  0  0  0  0  0  0  0
   44.8034   32.2106   38.5312 H   0  0  0  0  0  0  0  0  0  0  0  0
   46.6471   32.0434   37.5295 C   0  0  2  0  0  0  0  0  0  0  0  0
   46.0105   31.5662   36.7370 H   0  0  0  0  0  0  0  0  0  0  0  0
   47.2817   33.1951   36.9737 N   0  0  0  0  0  0  0  0  0  0  0  0
   47.4369   33.0087   35.9466 H   0  0  0  0  0  0  0  0  0  0  0  0
   46.5650   34.4256   37.1073 C   0  0  0  0  0  0  0  0  0  0  0  0
   45.6690   34.5258   38.2955 C   0  0  0  0  0  0  0  0  0  0  0  0
   46.0224   31.4776   39.5668 H   0  0  0  0  0  0  0  0  0  0  0  0
   47.4614   31.2924   37.7287 H   0  0  0  0  0  0  0  0  0  0  0  0
   45.9660   34.6775   36.2115 H   0  0  0  0  0  0  0  0  0  0  0  0
   47.3298   35.2451   37.1973 H   0  0  0  0  0  0  0  0  0  0  0  0
   44.5967   34.3031   38.0449 H   0  0  0  0  0  0  0  0  0  0  0  0
   45.6970   35.5399   38.7667 H   0  0  0  0  0  0  0  0  0  0  0  0
  1  6  2  0
  2  1  1  0
  3  2  2  0
  3  4  1  0
  4  5  2  0
  5  6  1  0
  7  3  1  0
  8  7  1  0
  9  8  1  0
  9  7  1  0
 10  9  1  0
 11  2  1  0
  1 12  1  0
  5 13  1  0
  7 14  1  6
  8 15  1  0
  8 16  1  0
  9 17  1  1
 10 18  1  0
 10 19  1  0
 11 20  1  0
 11 21  1  0
 22 23  1  0
 23 24  1  6
 23 25  1  0
 25 26  1  6
 25 27  1  0
 27 28  1  0
 27 29  1  0
 29 30  1  0
 30 22  1  0
 23 31  1  0
 25 32  1  0
 29 33  1  0
 29 34  1  0
 30 35  1  0
 30 36  1  0
 10 22  1  0
M  ISO  8  12  14  13  14  14  13  15  13  16  13  17  13  18   8  19   8
M  ISO  3  24   8  26   8  28   5
M  END
>  <DihAtoms>  (1) 
8,9,21,22

>  <DihDeg>  (1) 
-68.06926479524627

$$$$
