
 OpenBabel03252509253D

 30 32  0  0  1  0  0  0  0  0999 V2000
   46.6020   35.0290   41.9450 C   0  0  1  0  0  0  0  0  0  0  0  0
   48.1050   35.4040   41.9650 C   0  0  0  0  0  0  0  0  0  0  0  0
   47.5090   34.0880   41.4240 C   0  0  2  0  0  0  0  0  0  0  0  0
   46.0470   35.7400   41.3260 H   0  0  0  0  0  0  0  0  0  0  0  0
   48.6430   35.4090   42.9140 H   0  0  0  0  0  0  0  0  0  0  0  0
   48.4950   36.0490   41.1690 H   0  0  0  0  0  0  0  0  0  0  0  0
   47.9210   33.2150   42.0000 H   0  0  0  0  0  0  0  0  0  0  0  0
   44.6310   35.4500   45.1030 C   0  0  0  0  0  0  0  0  0  0  0  0
   45.1250   35.7150   43.7980 C   0  0  0  0  0  0  0  0  0  0  0  0
   46.0700   34.8500   43.3390 C   0  0  0  0  0  0  0  0  0  0  0  0
   46.5070   33.7980   44.1020 N   0  0  0  0  0  0  0  0  0  0  0  0
   46.0120   33.5820   45.3390 C   0  0  0  0  0  0  0  0  0  0  0  0
   45.0670   34.4180   45.8350 N   0  0  0  0  0  0  0  0  0  0  0  0
   43.8720   36.1080   45.5230 H   0  0  0  0  0  0  0  0  0  0  0  0
   46.4690   32.7120   45.7900 H   0  0  0  0  0  0  0  0  0  0  0  0
   44.6790   36.8300   43.0410 N   0  0  0  0  0  0  0  0  0  0  0  0
   44.0400   36.8840   42.2230 H   0  0  0  0  0  0  0  0  0  0  0  0
   45.1790   37.6140   43.5400 H   0  0  0  0  0  0  0  0  0  0  0  0
   47.5820   33.8210   39.9350 C   0  0  0  0  0  0  0  0  0  0  0  0
   48.4310   34.3160   39.4540 H   0  0  0  0  0  0  0  0  0  0  0  0
   46.6680   34.3200   39.4950 H   0  0  0  0  0  0  0  0  0  0  0  0
   47.4160   32.4320   39.6700 N   0  0  0  0  0  0  0  0  0  0  0  0
   48.3790   31.5670   40.2850 C   0  0  0  0  0  3  0  0  0  0  0  0
   48.0640   30.5210   39.9910 H   0  0  0  0  0  0  0  0  0  0  0  0
   49.7750   31.7260   39.7670 C   0  0  0  0  0  3  0  0  0  0  0  0
   50.2590   30.7440   39.5180 H   0  0  0  0  0  0  0  0  0  0  0  0
   49.9100   32.5990   38.6450 N   0  0  0  0  0  0  0  0  0  0  0  0
   50.8090   32.3490   38.1530 H   0  0  0  0  0  0  0  0  0  0  0  0
   48.8450   32.5570   37.6920 C   0  0  0  0  0  2  0  0  0  0  0  0
   47.5050   32.1860   38.2360 C   0  0  0  0  0  2  0  0  0  0  0  0
  1  4  1  6  0  0  0
  1  2  1  0  0  0  0
  1 10  1  0  0  0  0
  2  5  1  0  0  0  0
  3  1  1  0  0  0  0
  3  2  1  0  0  0  0
  3  7  1  1  0  0  0
  6  2  1  0  0  0  0
  8 14  1  0  0  0  0
  8 13  1  0  0  0  0
  9  8  2  0  0  0  0
 10  9  1  0  0  0  0
 10 11  2  0  0  0  0
 11 12  1  0  0  0  0
 12 15  1  0  0  0  0
 12 13  2  0  0  0  0
 16 18  1  0  0  0  0
 16  9  1  0  0  0  0
 17 16  1  0  0  0  0
 19  3  1  0  0  0  0
 20 19  1  0  0  0  0
 21 19  1  0  0  0  0
 22 19  1  0  0  0  0
 22 23  1  0  0  0  0
 24 23  1  0  0  0  0
 25 23  1  0  0  0  0
 26 25  1  0  0  0  0
 27 25  1  0  0  0  0
 28 27  1  0  0  0  0
 29 30  1  0  0  0  0
 29 27  1  0  0  0  0
 30 22  1  0  0  0  0
M  END
>  <minimizedAffinity>
-4.80312872

>  <minimizedRMSD>
2.51121092

$$$$
