
 OpenBabel03252501163D

 35 38  0  0  1  0  0  0  0  0999 V2000
   48.3860   31.0860   48.4990 C   0  0  1  0  0  0  0  0  0  0  0  0
   47.0030   31.0190   49.0170 C   0  0  0  0  0  0  0  0  0  0  0  0
   47.5990   32.3000   48.3080 C   0  0  2  0  0  0  0  0  0  0  0  0
   48.6950   30.5240   47.5940 H   0  0  0  0  0  0  0  0  0  0  0  0
   46.2990   30.4220   48.4320 H   0  0  0  0  0  0  0  0  0  0  0  0
   46.7880   31.1810   50.0960 H   0  0  0  0  0  0  0  0  0  0  0  0
   47.7280   33.1520   48.9770 H   0  0  0  0  0  0  0  0  0  0  0  0
   50.7420   29.9930   51.2200 C   0  0  0  0  0  0  0  0  0  0  0  0
   49.7290   29.8910   50.2640 C   0  0  0  0  0  0  0  0  0  0  0  0
   49.4610   31.0560   49.5460 C   0  0  0  0  0  0  0  0  0  0  0  0
   50.1530   32.1920   49.7870 N   0  0  0  0  0  0  0  0  0  0  0  0
   51.1330   32.2280   50.7350 C   0  0  0  0  0  0  0  0  0  0  0  0
   51.4180   31.1160   51.4480 N   0  0  0  0  0  0  0  0  0  0  0  0
   49.1670   28.9930   50.0600 H   0  0  0  0  0  0  0  0  0  0  0  0
   51.7100   33.1120   50.9630 H   0  0  0  0  0  0  0  0  0  0  0  0
   51.0730   28.7650   52.0090 C   0  0  0  0  0  0  0  0  0  0  0  0
   50.2240   28.7130   53.0880 F   0  0  0  0  0  0  0  0  0  0  0  0
   52.3700   28.8900   52.4590 F   0  0  0  0  0  0  0  0  0  0  0  0
   50.8690   27.6230   51.2610 F   0  0  0  0  0  0  0  0  0  0  0  0
   47.0250   32.4960   46.9450 C   0  0  0  0  0  0  0  0  0  0  0  0
   47.1800   31.6640   45.8380 C   0  0  0  0  0  0  0  0  0  0  0  0
   46.4400   32.3170   44.8690 C   0  0  0  0  0  0  0  0  0  0  0  0
   45.8800   33.4750   45.3890 C   0  0  0  0  0  0  0  0  0  0  0  0
   46.2780   33.5090   46.6300 O   0  0  0  0  0  0  0  0  0  0  0  0
   47.7490   30.7370   45.7790 H   0  0  0  0  0  0  0  0  0  0  0  0
   46.3210   31.9660   43.8530 H   0  0  0  0  0  0  0  0  0  0  0  0
   45.0590   34.3750   44.6570 N   0  0  0  0  0  0  0  0  0  0  0  0
   44.3720   35.5990   44.9950 C   0  0  0  0  0  0  0  0  0  0  0  0
   43.2840   35.5080   44.7520 H   0  0  0  0  0  0  0  0  0  0  0  0
   44.9090   36.7170   44.1320 C   0  0  0  0  0  0  0  0  0  0  0  0
   45.9400   36.9400   44.4970 H   0  0  0  0  0  0  0  0  0  0  0  0
   45.0070   36.3940   42.7320 N   0  0  0  0  0  0  0  0  0  0  0  0
   44.1280   36.4290   42.2070 H   0  0  0  0  0  0  0  0  0  0  0  0
   45.6240   35.1160   42.4800 C   0  0  0  0  0  0  0  0  0  0  0  0
   44.7710   34.0970   43.2430 C   0  0  0  0  0  0  0  0  0  0  0  0
  1  4  1  6  0  0  0
  1  2  1  0  0  0  0
  1 10  1  0  0  0  0
  2  6  1  0  0  0  0
  3  1  1  0  0  0  0
  3  7  1  1  0  0  0
  3  2  1  0  0  0  0
  5  2  1  0  0  0  0
  8 13  1  0  0  0  0
  8 16  1  0  0  0  0
  9  8  2  0  0  0  0
 10 11  2  0  0  0  0
 10  9  1  0  0  0  0
 11 12  1  0  0  0  0
 12 15  1  0  0  0  0
 12 13  2  0  0  0  0
 14  9  1  0  0  0  0
 16 18  1  0  0  0  0
 16 17  1  0  0  0  0
 19 16  1  0  0  0  0
 20  3  1  0  0  0  0
 21 20  2  0  0  0  0
 22 23  2  0  0  0  0
 22 21  1  0  0  0  0
 23 24  1  0  0  0  0
 24 20  1  0  0  0  0
 25 21  1  0  0  0  0
 26 22  1  0  0  0  0
 27 28  1  0  0  0  0
 27 23  1  0  0  0  0
 29 28  1  0  0  0  0
 30 31  1  0  0  0  0
 30 28  1  0  0  0  0
 32 30  1  0  0  0  0
 33 32  1  0  0  0  0
 34 32  1  0  0  0  0
 34 35  1  0  0  0  0
 35 27  1  0  0  0  0
M  END
>  <minimizedAffinity>
-6.17785788

>  <minimizedRMSD>
6.22856522

$$$$
