
 OpenBabel03252504233D

 32 35  0  0  1  0  0  0  0  0999 V2000
   38.8870   33.2890   40.3850 C   0  0  0  0  0  0  0  0  0  0  0  0
   37.6090   33.1620   39.8210 C   0  0  0  0  0  0  0  0  0  0  0  0
   36.9540   31.9200   39.8900 C   0  0  0  0  0  0  0  0  0  0  0  0
   37.6210   30.9030   40.5110 N   0  0  0  0  0  0  0  0  0  0  0  0
   38.8580   31.0600   41.0460 C   0  0  0  0  0  0  0  0  0  0  0  0
   39.4780   32.2380   40.9810 N   0  0  0  0  0  0  0  0  0  0  0  0
   39.4570   29.9280   41.6670 N   0  0  0  0  0  0  0  0  0  0  0  0
   40.7420   29.5220   41.5080 C   0  0  0  0  0  0  0  0  0  0  0  0
   40.9260   28.4020   42.2640 N   0  0  0  0  0  0  0  0  0  0  0  0
   39.7670   28.1500   42.8580 C   0  0  0  0  0  0  0  0  0  0  0  0
   39.3290   27.1720   43.7300 C   0  0  0  0  0  0  0  0  0  0  0  0
   38.0870   27.1280   44.2030 N   0  0  0  0  0  0  0  0  0  0  0  0
   37.1660   28.0490   43.8550 C   0  0  0  0  0  0  0  0  0  0  0  0
   37.5820   29.0050   43.0070 N   0  0  0  0  0  0  0  0  0  0  0  0
   38.8190   29.0920   42.5060 C   0  0  0  0  0  0  0  0  0  0  0  0
   37.0510   33.9430   39.3220 H   0  0  0  0  0  0  0  0  0  0  0  0
   35.9730   31.8010   39.4620 H   0  0  0  0  0  0  0  0  0  0  0  0
   41.4820   30.0100   40.8880 H   0  0  0  0  0  0  0  0  0  0  0  0
   36.1640   27.9900   44.2540 H   0  0  0  0  0  0  0  0  0  0  0  0
   40.1750   26.1340   44.1860 N   0  0  0  0  0  0  0  0  0  0  0  0
   40.3600   25.8390   45.1530 H   0  0  0  0  0  0  0  0  0  0  0  0
   40.6660   25.6130   43.4170 H   0  0  0  0  0  0  0  0  0  0  0  0
   39.6510   34.9110   40.2500 S   0  0  0  0  0  0  0  0  0  0  0  0
   41.0190   32.8190   38.6060 H   0  0  0  0  0  0  0  0  0  0  0  0
   41.1080   33.7990   38.2620 N   0  0  0  0  0  0  0  0  0  0  0  0
   41.2050   34.7370   39.3400 C   0  0  2  0  0  3  0  0  0  0  0  0
   42.3600   34.3900   40.2490 C   0  0  0  0  0  3  0  0  0  0  0  0
   42.4250   35.1180   41.0850 H   0  0  0  0  0  0  0  0  0  0  0  0
   43.5780   34.5730   39.4800 N   0  0  0  0  0  0  0  0  0  0  0  0
   43.6610   35.5370   39.0790 H   0  0  0  0  0  0  0  0  0  0  0  0
   43.5470   33.6240   38.3570 C   0  0  0  0  0  2  0  0  0  0  0  0
   42.3320   33.8710   37.4890 C   0  0  0  0  0  2  0  0  0  0  0  0
  1  6  1  0  0  0  0
  2  3  1  0  0  0  0
  2  1  2  0  0  0  0
  3  4  2  0  0  0  0
  4  5  1  0  0  0  0
  5  7  1  0  0  0  0
  6  5  2  0  0  0  0
  7 15  1  0  0  0  0
  8  7  1  0  0  0  0
  8  9  2  0  0  0  0
  9 10  1  0  0  0  0
 10 11  1  0  0  0  0
 11 20  1  0  0  0  0
 11 12  2  0  0  0  0
 13 12  1  0  0  0  0
 13 19  1  0  0  0  0
 14 13  2  0  0  0  0
 15 10  2  0  0  0  0
 15 14  1  0  0  0  0
 16  2  1  0  0  0  0
 17  3  1  0  0  0  0
 18  8  1  0  0  0  0
 20 21  1  0  0  0  0
 22 20  1  0  0  0  0
 23  1  1  0  0  0  0
 25 24  1  0  0  0  0
 25 26  1  0  0  0  0
 26 27  1  0  0  0  0
 26 23  1  1  0  0  0
 27 28  1  0  0  0  0
 29 27  1  0  0  0  0
 30 29  1  0  0  0  0
 31 29  1  0  0  0  0
 32 25  1  0  0  0  0
 32 31  1  0  0  0  0
M  END
>  <minimizedAffinity>
-6.44793463

$$$$

 OpenBabel03252504233D

 32 35  0  0  1  0  0  0  0  0999 V2000
   37.4640   31.1580   39.7240 C   0  0  0  0  0  0  0  0  0  0  0  0
   37.0980   30.6390   38.4740 C   0  0  0  0  0  0  0  0  0  0  0  0
   37.8810   30.9520   37.3500 C   0  0  0  0  0  0  0  0  0  0  0  0
   38.9660   31.7570   37.5570 N   0  0  0  0  0  0  0  0  0  0  0  0
   39.2910   32.2420   38.7820 C   0  0  0  0  0  0  0  0  0  0  0  0
   38.5480   31.9450   39.8470 N   0  0  0  0  0  0  0  0  0  0  0  0
   40.4420   33.0730   38.8770 N   0  0  0  0  0  0  0  0  0  0  0  0
   40.5270   34.2370   39.5700 C   0  0  0  0  0  0  0  0  0  0  0  0
   41.7880   34.7320   39.4110 N   0  0  0  0  0  0  0  0  0  0  0  0
   42.4370   33.8740   38.6340 C   0  0  0  0  0  0  0  0  0  0  0  0
   43.7210   33.8220   38.1260 C   0  0  0  0  0  0  0  0  0  0  0  0
   44.1520   32.8330   37.3500 N   0  0  0  0  0  0  0  0  0  0  0  0
   43.3500   31.8040   37.0070 C   0  0  0  0  0  0  0  0  0  0  0  0
   42.1000   31.8440   37.4960 N   0  0  0  0  0  0  0  0  0  0  0  0
   41.6200   32.8170   38.2800 C   0  0  0  0  0  0  0  0  0  0  0  0
   36.2480   30.0000   38.2720 H   0  0  0  0  0  0  0  0  0  0  0  0
   37.6170   30.5650   36.3810 H   0  0  0  0  0  0  0  0  0  0  0  0
   39.7270   34.6840   40.1450 H   0  0  0  0  0  0  0  0  0  0  0  0
   43.7260   31.0130   36.3740 H   0  0  0  0  0  0  0  0  0  0  0  0
   44.6790   34.8280   38.3940 N   0  0  0  0  0  0  0  0  0  0  0  0
   45.6350   34.7190   38.7530 H   0  0  0  0  0  0  0  0  0  0  0  0
   44.3440   35.8020   38.1890 H   0  0  0  0  0  0  0  0  0  0  0  0
   36.4040   30.7070   41.1060 S   0  0  0  0  0  0  0  0  0  0  0  0
   37.6360   29.9680   43.7310 H   0  0  0  0  0  0  0  0  0  0  0  0
   36.9890   29.2620   43.3160 N   0  0  0  0  0  0  0  0  0  0  0  0
   37.0860   29.2250   41.8880 C   0  0  2  0  0  3  0  0  0  0  0  0
   38.5070   28.9560   41.4540 C   0  0  0  0  0  3  0  0  0  0  0  0
   38.5750   28.9330   40.3460 H   0  0  0  0  0  0  0  0  0  0  0  0
   38.8400   27.6110   41.8900 N   0  0  0  0  0  0  0  0  0  0  0  0
   38.1690   26.8930   41.5290 H   0  0  0  0  0  0  0  0  0  0  0  0
   38.7710   27.5860   43.3590 C   0  0  0  0  0  2  0  0  0  0  0  0
   37.3840   27.9670   43.8300 C   0  0  0  0  0  2  0  0  0  0  0  0
  1  6  1  0  0  0  0
  1 23  1  0  0  0  0
  2  1  2  0  0  0  0
  3  4  2  0  0  0  0
  3  2  1  0  0  0  0
  4  5  1  0  0  0  0
  5  7  1  0  0  0  0
  5  6  2  0  0  0  0
  7  8  1  0  0  0  0
  8 18  1  0  0  0  0
  9  8  2  0  0  0  0
 10  9  1  0  0  0  0
 11 20  1  0  0  0  0
 11 10  2  0  0  0  0
 12 11  1  0  0  0  0
 13 12  2  0  0  0  0
 13 14  1  0  0  0  0
 14 15  2  0  0  0  0
 15 10  1  0  0  0  0
 15  7  1  0  0  0  0
 16  2  1  0  0  0  0
 17  3  1  0  0  0  0
 19 13  1  0  0  0  0
 20 21  1  0  0  0  0
 22 20  1  0  0  0  0
 25 24  1  0  0  0  0
 25 32  1  0  0  0  0
 26 23  1  6  0  0  0
 26 25  1  0  0  0  0
 27 26  1  0  0  0  0
 27 29  1  0  0  0  0
 28 27  1  0  0  0  0
 29 31  1  0  0  0  0
 30 29  1  0  0  0  0
 31 32  1  0  0  0  0
M  END
>  <minimizedAffinity>
-6.44432163

$$$$

 OpenBabel03252504233D

 32 35  0  0  1  0  0  0  0  0999 V2000
   38.2340   28.8690   41.1870 C   0  0  0  0  0  0  0  0  0  0  0  0
   38.4440   29.2520   42.5190 C   0  0  0  0  0  0  0  0  0  0  0  0
   39.3760   30.2670   42.7970 C   0  0  0  0  0  0  0  0  0  0  0  0
   40.0260   30.8200   41.7300 N   0  0  0  0  0  0  0  0  0  0  0  0
   39.7980   30.4250   40.4530 C   0  0  0  0  0  0  0  0  0  0  0  0
   38.9140   29.4630   40.1890 N   0  0  0  0  0  0  0  0  0  0  0  0
   40.5350   31.0700   39.4210 N   0  0  0  0  0  0  0  0  0  0  0  0
   41.1440   30.4560   38.3750 C   0  0  0  0  0  0  0  0  0  0  0  0
   41.7450   31.4150   37.6140 N   0  0  0  0  0  0  0  0  0  0  0  0
   41.4970   32.5770   38.2030 C   0  0  0  0  0  0  0  0  0  0  0  0
   41.8310   33.8870   37.9180 C   0  0  0  0  0  0  0  0  0  0  0  0
   41.4550   34.9110   38.6780 N   0  0  0  0  0  0  0  0  0  0  0  0
   40.7140   34.7300   39.7900 C   0  0  0  0  0  0  0  0  0  0  0  0
   40.3840   33.4600   40.0770 N   0  0  0  0  0  0  0  0  0  0  0  0
   40.7370   32.3980   39.3430 C   0  0  0  0  0  0  0  0  0  0  0  0
   37.9500   28.8390   43.3880 H   0  0  0  0  0  0  0  0  0  0  0  0
   39.5540   30.5760   43.8140 H   0  0  0  0  0  0  0  0  0  0  0  0
   41.1430   29.3900   38.1870 H   0  0  0  0  0  0  0  0  0  0  0  0
   40.4230   35.5800   40.3900 H   0  0  0  0  0  0  0  0  0  0  0  0
   42.6060   34.2390   36.7890 N   0  0  0  0  0  0  0  0  0  0  0  0
   42.3980   34.9360   36.0630 H   0  0  0  0  0  0  0  0  0  0  0  0
   43.5070   33.7050   36.7040 H   0  0  0  0  0  0  0  0  0  0  0  0
   37.0260   27.5640   40.9230 S   0  0  0  0  0  0  0  0  0  0  0  0
   37.5190   25.1850   39.1770 H   0  0  0  0  0  0  0  0  0  0  0  0
   38.3170   25.4800   39.7800 N   0  0  0  0  0  0  0  0  0  0  0  0
   37.8710   25.9690   41.0500 C   0  0  2  0  0  3  0  0  0  0  0  0
   37.0300   24.9350   41.7590 C   0  0  0  0  0  3  0  0  0  0  0  0
   36.6850   25.3230   42.7400 H   0  0  0  0  0  0  0  0  0  0  0  0
   37.9010   23.8150   42.0700 N   0  0  0  0  0  0  0  0  0  0  0  0
   38.7390   24.1000   42.6300 H   0  0  0  0  0  0  0  0  0  0  0  0
   38.3850   23.2560   40.7980 C   0  0  0  0  0  2  0  0  0  0  0  0
   39.1360   24.3070   40.0090 C   0  0  0  0  0  2  0  0  0  0  0  0
  1  2  1  0  0  0  0
  2  3  2  0  0  0  0
  2 16  1  0  0  0  0
  3 17  1  0  0  0  0
  4  3  1  0  0  0  0
  5  4  2  0  0  0  0
  6  5  1  0  0  0  0
  6  1  2  0  0  0  0
  7  5  1  0  0  0  0
  8  7  1  0  0  0  0
  9 10  1  0  0  0  0
  9  8  2  0  0  0  0
 10 15  1  0  0  0  0
 11 10  2  0  0  0  0
 11 12  1  0  0  0  0
 12 13  2  0  0  0  0
 13 14  1  0  0  0  0
 13 19  1  0  0  0  0
 15  7  1  0  0  0  0
 15 14  2  0  0  0  0
 18  8  1  0  0  0  0
 20 11  1  0  0  0  0
 21 20  1  0  0  0  0
 22 20  1  0  0  0  0
 23  1  1  0  0  0  0
 24 25  1  0  0  0  0
 25 32  1  0  0  0  0
 25 26  1  0  0  0  0
 26 23  1  6  0  0  0
 26 27  1  0  0  0  0
 27 29  1  0  0  0  0
 27 28  1  0  0  0  0
 29 30  1  0  0  0  0
 31 29  1  0  0  0  0
 32 31  1  0  0  0  0
M  END
>  <minimizedAffinity>
-5.8985424

$$$$

 OpenBabel03252504233D

 32 35  0  0  1  0  0  0  0  0999 V2000
   36.9790   25.4100   40.5460 C   0  0  0  0  0  0  0  0  0  0  0  0
   36.4780   24.9380   39.3250 C   0  0  0  0  0  0  0  0  0  0  0  0
   35.9880   25.8620   38.3860 C   0  0  0  0  0  0  0  0  0  0  0  0
   36.0340   27.1830   38.7350 N   0  0  0  0  0  0  0  0  0  0  0  0
   36.5260   27.6040   39.9270 C   0  0  0  0  0  0  0  0  0  0  0  0
   36.9900   26.7280   40.8170 N   0  0  0  0  0  0  0  0  0  0  0  0
   36.5220   29.0050   40.1830 N   0  0  0  0  0  0  0  0  0  0  0  0
   36.1370   29.6000   41.3400 C   0  0  0  0  0  0  0  0  0  0  0  0
   36.2750   30.9480   41.1870 N   0  0  0  0  0  0  0  0  0  0  0  0
   36.7330   31.1450   39.9580 C   0  0  0  0  0  0  0  0  0  0  0  0
   37.0670   32.2700   39.2290 C   0  0  0  0  0  0  0  0  0  0  0  0
   37.5180   32.2140   37.9800 N   0  0  0  0  0  0  0  0  0  0  0  0
   37.6800   31.0380   37.3400 C   0  0  0  0  0  0  0  0  0  0  0  0
   37.3580   29.9390   38.0400 N   0  0  0  0  0  0  0  0  0  0  0  0
   36.9010   29.9440   39.2970 C   0  0  0  0  0  0  0  0  0  0  0  0
   36.4250   23.9030   39.0140 H   0  0  0  0  0  0  0  0  0  0  0  0
   35.5980   25.5210   37.4420 H   0  0  0  0  0  0  0  0  0  0  0  0
   35.7840   29.0840   42.2240 H   0  0  0  0  0  0  0  0  0  0  0  0
   38.0480   31.0220   36.3240 H   0  0  0  0  0  0  0  0  0  0  0  0
   36.9500   33.5760   39.7600 N   0  0  0  0  0  0  0  0  0  0  0  0
   37.6590   34.3190   39.7910 H   0  0  0  0  0  0  0  0  0  0  0  0
   36.0060   33.7880   40.1700 H   0  0  0  0  0  0  0  0  0  0  0  0
   37.5830   24.1590   41.6880 S   0  0  0  0  0  0  0  0  0  0  0  0
   38.6950   26.8560   42.3500 H   0  0  0  0  0  0  0  0  0  0  0  0
   38.7690   26.1360   43.1010 N   0  0  0  0  0  0  0  0  0  0  0  0
   39.0150   24.8310   42.5660 C   0  0  2  0  0  3  0  0  0  0  0  0
   40.2590   24.8280   41.7100 C   0  0  0  0  0  3  0  0  0  0  0  0
   40.4400   23.8150   41.2960 H   0  0  0  0  0  0  0  0  0  0  0  0
   41.3830   25.0940   42.5900 N   0  0  0  0  0  0  0  0  0  0  0  0
   41.4430   24.4130   43.3840 H   0  0  0  0  0  0  0  0  0  0  0  0
   41.1970   26.4340   43.1660 C   0  0  0  0  0  2  0  0  0  0  0  0
   39.8950   26.5020   43.9350 C   0  0  0  0  0  2  0  0  0  0  0  0
  1  6  1  0  0  0  0
  1 23  1  0  0  0  0
  2  1  2  0  0  0  0
  3  4  2  0  0  0  0
  3  2  1  0  0  0  0
  4  5  1  0  0  0  0
  5  7  1  0  0  0  0
  5  6  2  0  0  0  0
  7  8  1  0  0  0  0
  8 18  1  0  0  0  0
  9  8  2  0  0  0  0
 10  9  1  0  0  0  0
 11 20  1  0  0  0  0
 11 10  2  0  0  0  0
 12 11  1  0  0  0  0
 13 12  2  0  0  0  0
 13 14  1  0  0  0  0
 14 15  2  0  0  0  0
 15 10  1  0  0  0  0
 15  7  1  0  0  0  0
 16  2  1  0  0  0  0
 17  3  1  0  0  0  0
 19 13  1  0  0  0  0
 20 21  1  0  0  0  0
 20 22  1  0  0  0  0
 24 25  1  0  0  0  0
 25 32  1  0  0  0  0
 26 23  1  6  0  0  0
 26 25  1  0  0  0  0
 27 26  1  0  0  0  0
 27 29  1  0  0  0  0
 28 27  1  0  0  0  0
 29 31  1  0  0  0  0
 29 30  1  0  0  0  0
 31 32  1  0  0  0  0
M  END
>  <minimizedAffinity>
-5.84531212

$$$$

 OpenBabel03252504233D

 32 35  0  0  1  0  0  0  0  0999 V2000
   39.1720   26.9850   42.8640 C   0  0  0  0  0  0  0  0  0  0  0  0
   38.2020   27.5390   43.7130 C   0  0  0  0  0  0  0  0  0  0  0  0
   37.7210   28.8320   43.4460 C   0  0  0  0  0  0  0  0  0  0  0  0
   38.2420   29.4740   42.3580 N   0  0  0  0  0  0  0  0  0  0  0  0
   39.1800   28.9080   41.5580 C   0  0  0  0  0  0  0  0  0  0  0  0
   39.6360   27.6820   41.8110 N   0  0  0  0  0  0  0  0  0  0  0  0
   39.6520   29.6720   40.4540 N   0  0  0  0  0  0  0  0  0  0  0  0
   40.9490   29.8090   40.0780 C   0  0  0  0  0  0  0  0  0  0  0  0
   40.9870   30.6190   38.9820 N   0  0  0  0  0  0  0  0  0  0  0  0
   39.7330   30.9570   38.7160 C   0  0  0  0  0  0  0  0  0  0  0  0
   39.1360   31.7430   37.7490 C   0  0  0  0  0  0  0  0  0  0  0  0
   37.8220   31.9370   37.6840 N   0  0  0  0  0  0  0  0  0  0  0  0
   36.9800   31.3700   38.5720 C   0  0  0  0  0  0  0  0  0  0  0  0
   37.5500   30.6040   39.5170 N   0  0  0  0  0  0  0  0  0  0  0  0
   38.8650   30.3790   39.6220 C   0  0  0  0  0  0  0  0  0  0  0  0
   37.7670   27.0620   44.5820 H   0  0  0  0  0  0  0  0  0  0  0  0
   36.9770   29.2760   44.0860 H   0  0  0  0  0  0  0  0  0  0  0  0
   41.7960   29.3480   40.5700 H   0  0  0  0  0  0  0  0  0  0  0  0
   35.9170   31.5450   38.4970 H   0  0  0  0  0  0  0  0  0  0  0  0
   39.8840   32.4070   36.7490 N   0  0  0  0  0  0  0  0  0  0  0  0
   39.7490   32.3870   35.7310 H   0  0  0  0  0  0  0  0  0  0  0  0
   40.6750   32.9890   37.1220 H   0  0  0  0  0  0  0  0  0  0  0  0
   39.7310   25.3280   43.2810 S   0  0  0  0  0  0  0  0  0  0  0  0
   39.1510   25.6040   40.3580 H   0  0  0  0  0  0  0  0  0  0  0  0
   39.7570   24.8000   40.6280 N   0  0  0  0  0  0  0  0  0  0  0  0
   39.3670   24.2350   41.8850 C   0  0  2  0  0  3  0  0  0  0  0  0
   37.9160   23.8150   41.8560 C   0  0  0  0  0  3  0  0  0  0  0  0
   37.6200   23.3830   42.8350 H   0  0  0  0  0  0  0  0  0  0  0  0
   37.8070   22.7250   40.9030 N   0  0  0  0  0  0  0  0  0  0  0  0
   38.4480   21.9290   41.1250 H   0  0  0  0  0  0  0  0  0  0  0  0
   38.1840   23.2460   39.5800 C   0  0  0  0  0  2  0  0  0  0  0  0
   39.5990   23.7840   39.6080 C   0  0  0  0  0  2  0  0  0  0  0  0
  1 23  1  0  0  0  0
  1  2  1  0  0  0  0
  2 16  1  0  0  0  0
  3  2  2  0  0  0  0
  3 17  1  0  0  0  0
  4  3  1  0  0  0  0
  5  6  1  0  0  0  0
  5  4  2  0  0  0  0
  6  1  2  0  0  0  0
  7  5  1  0  0  0  0
  8  7  1  0  0  0  0
  8 18  1  0  0  0  0
  9  8  2  0  0  0  0
 10  9  1  0  0  0  0
 10 15  1  0  0  0  0
 11 10  2  0  0  0  0
 12 11  1  0  0  0  0
 12 13  2  0  0  0  0
 13 14  1  0  0  0  0
 14 15  2  0  0  0  0
 15  7  1  0  0  0  0
 19 13  1  0  0  0  0
 20 22  1  0  0  0  0
 20 11  1  0  0  0  0
 21 20  1  0  0  0  0
 24 25  1  0  0  0  0
 25 26  1  0  0  0  0
 26 23  1  1  0  0  0
 27 26  1  0  0  0  0
 27 28  1  0  0  0  0
 29 30  1  0  0  0  0
 29 27  1  0  0  0  0
 31 32  1  0  0  0  0
 31 29  1  0  0  0  0
 32 25  1  0  0  0  0
M  END
>  <minimizedAffinity>
-5.79181957

$$$$

 OpenBabel03252504233D

 32 35  0  0  1  0  0  0  0  0999 V2000
   37.1610   29.8020   40.7940 C   0  0  0  0  0  0  0  0  0  0  0  0
   37.6770   29.6950   42.0940 C   0  0  0  0  0  0  0  0  0  0  0  0
   38.9570   30.2110   42.3630 C   0  0  0  0  0  0  0  0  0  0  0  0
   39.6220   30.7910   41.3200 N   0  0  0  0  0  0  0  0  0  0  0  0
   39.0920   30.8770   40.0750 C   0  0  0  0  0  0  0  0  0  0  0  0
   37.8790   30.3880   39.8200 N   0  0  0  0  0  0  0  0  0  0  0  0
   39.8790   31.5000   39.0650 N   0  0  0  0  0  0  0  0  0  0  0  0
   40.0590   31.0410   37.8010 C   0  0  0  0  0  0  0  0  0  0  0  0
   40.8780   31.9150   37.1480 N   0  0  0  0  0  0  0  0  0  0  0  0
   41.1780   32.8730   38.0140 C   0  0  0  0  0  0  0  0  0  0  0  0
   41.9520   34.0160   37.9490 C   0  0  0  0  0  0  0  0  0  0  0  0
   42.1040   34.8450   38.9770 N   0  0  0  0  0  0  0  0  0  0  0  0
   41.5050   34.6170   40.1630 C   0  0  0  0  0  0  0  0  0  0  0  0
   40.7500   33.5090   40.2370 N   0  0  0  0  0  0  0  0  0  0  0  0
   40.5660   32.6450   39.2310 C   0  0  0  0  0  0  0  0  0  0  0  0
   37.1810   29.2440   42.9430 H   0  0  0  0  0  0  0  0  0  0  0  0
   39.3720   30.1380   43.3540 H   0  0  0  0  0  0  0  0  0  0  0  0
   39.6220   30.1380   37.3940 H   0  0  0  0  0  0  0  0  0  0  0  0
   41.6460   35.3080   40.9820 H   0  0  0  0  0  0  0  0  0  0  0  0
   42.6460   34.3910   36.7750 N   0  0  0  0  0  0  0  0  0  0  0  0
   42.6290   35.2930   36.2830 H   0  0  0  0  0  0  0  0  0  0  0  0
   43.2500   33.6310   36.3740 H   0  0  0  0  0  0  0  0  0  0  0  0
   35.5190   29.1150   40.5390 S   0  0  0  0  0  0  0  0  0  0  0  0
   37.4820   28.3880   38.4010 H   0  0  0  0  0  0  0  0  0  0  0  0
   36.7510   27.6740   38.6090 N   0  0  0  0  0  0  0  0  0  0  0  0
   35.4930   28.2780   38.9350 C   0  0  2  0  0  3  0  0  0  0  0  0
   35.0350   29.1930   37.8240 C   0  0  0  0  0  3  0  0  0  0  0  0
   34.0630   29.6600   38.0860 H   0  0  0  0  0  0  0  0  0  0  0  0
   34.7640   28.3580   36.6680 N   0  0  0  0  0  0  0  0  0  0  0  0
   34.0720   27.5990   36.8710 H   0  0  0  0  0  0  0  0  0  0  0  0
   36.0270   27.7150   36.2720 C   0  0  0  0  0  2  0  0  0  0  0  0
   36.5740   26.8810   37.4110 C   0  0  0  0  0  2  0  0  0  0  0  0
  1  2  1  0  0  0  0
  2  3  2  0  0  0  0
  2 16  1  0  0  0  0
  3 17  1  0  0  0  0
  4  3  1  0  0  0  0
  5  4  2  0  0  0  0
  6  5  1  0  0  0  0
  6  1  2  0  0  0  0
  7 15  1  0  0  0  0
  7  5  1  0  0  0  0
  8  7  1  0  0  0  0
  9  8  2  0  0  0  0
  9 10  1  0  0  0  0
 10 15  1  0  0  0  0
 11 10  2  0  0  0  0
 11 12  1  0  0  0  0
 12 13  2  0  0  0  0
 13 14  1  0  0  0  0
 13 19  1  0  0  0  0
 15 14  2  0  0  0  0
 18  8  1  0  0  0  0
 20 11  1  0  0  0  0
 21 20  1  0  0  0  0
 22 20  1  0  0  0  0
 23  1  1  0  0  0  0
 24 25  1  0  0  0  0
 25 26  1  0  0  0  0
 26 23  1  1  0  0  0
 27 28  1  0  0  0  0
 27 26  1  0  0  0  0
 29 30  1  0  0  0  0
 29 27  1  0  0  0  0
 31 29  1  0  0  0  0
 31 32  1  0  0  0  0
 32 25  1  0  0  0  0
M  END
>  <minimizedAffinity>
-5.70586538

$$$$

 OpenBabel03252504233D

 32 35  0  0  1  0  0  0  0  0999 V2000
   37.4420   30.6640   39.0940 C   0  0  0  0  0  0  0  0  0  0  0  0
   36.8700   30.1810   37.9080 C   0  0  0  0  0  0  0  0  0  0  0  0
   36.9290   28.8030   37.6350 C   0  0  0  0  0  0  0  0  0  0  0  0
   37.5530   28.0150   38.5620 N   0  0  0  0  0  0  0  0  0  0  0  0
   38.0960   28.5170   39.6990 C   0  0  0  0  0  0  0  0  0  0  0  0
   38.0390   29.8230   39.9570 N   0  0  0  0  0  0  0  0  0  0  0  0
   38.7230   27.6010   40.5900 N   0  0  0  0  0  0  0  0  0  0  0  0
   39.9190   27.7830   41.2050 C   0  0  0  0  0  0  0  0  0  0  0  0
   40.1710   26.6830   41.9700 N   0  0  0  0  0  0  0  0  0  0  0  0
   39.1410   25.8630   41.8070 C   0  0  0  0  0  0  0  0  0  0  0  0
   38.8190   24.6170   42.3090 C   0  0  0  0  0  0  0  0  0  0  0  0
   37.6960   23.9780   41.9920 N   0  0  0  0  0  0  0  0  0  0  0  0
   36.7910   24.5160   41.1500 C   0  0  0  0  0  0  0  0  0  0  0  0
   37.0940   25.7280   40.6570 N   0  0  0  0  0  0  0  0  0  0  0  0
   38.2090   26.4100   40.9460 C   0  0  0  0  0  0  0  0  0  0  0  0
   36.3690   30.7730   37.1530 H   0  0  0  0  0  0  0  0  0  0  0  0
   36.4970   28.4110   36.7300 H   0  0  0  0  0  0  0  0  0  0  0  0
   40.5520   28.6540   41.0990 H   0  0  0  0  0  0  0  0  0  0  0  0
   35.8870   23.9750   40.9090 H   0  0  0  0  0  0  0  0  0  0  0  0
   39.6660   23.9210   43.2020 N   0  0  0  0  0  0  0  0  0  0  0  0
   39.4330   23.5050   44.1120 H   0  0  0  0  0  0  0  0  0  0  0  0
   40.6580   23.8310   42.8670 H   0  0  0  0  0  0  0  0  0  0  0  0
   37.3220   32.4390   39.3610 S   0  0  0  0  0  0  0  0  0  0  0  0
   38.8890   34.9240   38.7940 H   0  0  0  0  0  0  0  0  0  0  0  0
   39.0210   34.5080   39.7420 N   0  0  0  0  0  0  0  0  0  0  0  0
   38.9790   33.0770   39.7070 C   0  0  2  0  0  3  0  0  0  0  0  0
   40.0090   32.5340   38.7450 C   0  0  0  0  0  3  0  0  0  0  0  0
   39.9680   31.4250   38.7210 H   0  0  0  0  0  0  0  0  0  0  0  0
   41.3150   32.8610   39.2900 N   0  0  0  0  0  0  0  0  0  0  0  0
   41.4480   32.4990   40.2630 H   0  0  0  0  0  0  0  0  0  0  0  0
   41.4280   34.3270   39.3400 C   0  0  0  0  0  2  0  0  0  0  0  0
   40.3330   34.9110   40.2060 C   0  0  0  0  0  2  0  0  0  0  0  0
  1 23  1  0  0  0  0
  1  6  1  0  0  0  0
  2  1  2  0  0  0  0
  3  2  1  0  0  0  0
  3  4  2  0  0  0  0
  4  5  1  0  0  0  0
  5  6  2  0  0  0  0
  5  7  1  0  0  0  0
  7 15  1  0  0  0  0
  7  8  1  0  0  0  0
  8  9  2  0  0  0  0
 10  9  1  0  0  0  0
 10 11  1  0  0  0  0
 11 20  1  0  0  0  0
 12 11  2  0  0  0  0
 13 12  1  0  0  0  0
 14 15  1  0  0  0  0
 14 13  2  0  0  0  0
 15 10  2  0  0  0  0
 16  2  1  0  0  0  0
 17  3  1  0  0  0  0
 18  8  1  0  0  0  0
 19 13  1  0  0  0  0
 20 21  1  0  0  0  0
 22 20  1  0  0  0  0
 24 25  1  0  0  0  0
 25 32  1  0  0  0  0
 26 23  1  6  0  0  0
 26 25  1  0  0  0  0
 27 29  1  0  0  0  0
 27 26  1  0  0  0  0
 28 27  1  0  0  0  0
 29 31  1  0  0  0  0
 29 30  1  0  0  0  0
 31 32  1  0  0  0  0
M  END
>  <minimizedAffinity>
-5.69148159

$$$$

 OpenBabel03252504233D

 32 35  0  0  1  0  0  0  0  0999 V2000
   39.1490   27.0680   43.0290 C   0  0  0  0  0  0  0  0  0  0  0  0
   37.8240   27.1220   43.4850 C   0  0  0  0  0  0  0  0  0  0  0  0
   36.9520   28.0770   42.9350 C   0  0  0  0  0  0  0  0  0  0  0  0
   37.4660   28.9040   41.9760 N   0  0  0  0  0  0  0  0  0  0  0  0
   38.7540   28.8240   41.5580 C   0  0  0  0  0  0  0  0  0  0  0  0
   39.5800   27.9180   42.0800 N   0  0  0  0  0  0  0  0  0  0  0  0
   39.1800   29.7400   40.5550 N   0  0  0  0  0  0  0  0  0  0  0  0
   40.3420   30.4390   40.5590 C   0  0  0  0  0  0  0  0  0  0  0  0
   40.3770   31.2060   39.4310 N   0  0  0  0  0  0  0  0  0  0  0  0
   39.2520   30.9630   38.7730 C   0  0  0  0  0  0  0  0  0  0  0  0
   38.7170   31.4260   37.5860 C   0  0  0  0  0  0  0  0  0  0  0  0
   37.5390   31.0240   37.1190 N   0  0  0  0  0  0  0  0  0  0  0  0
   36.7830   30.1270   37.7850 C   0  0  0  0  0  0  0  0  0  0  0  0
   37.2940   29.6710   38.9410 N   0  0  0  0  0  0  0  0  0  0  0  0
   38.4740   30.0440   39.4510 C   0  0  0  0  0  0  0  0  0  0  0  0
   37.3830   26.4850   44.2410 H   0  0  0  0  0  0  0  0  0  0  0  0
   35.9310   28.1360   43.2720 H   0  0  0  0  0  0  0  0  0  0  0  0
   41.1020   30.3890   41.3280 H   0  0  0  0  0  0  0  0  0  0  0  0
   35.8290   29.8180   37.3830 H   0  0  0  0  0  0  0  0  0  0  0  0
   39.3860   32.3710   36.7740 N   0  0  0  0  0  0  0  0  0  0  0  0
   39.6000   32.3130   35.7710 H   0  0  0  0  0  0  0  0  0  0  0  0
   39.6950   33.2340   37.2880 H   0  0  0  0  0  0  0  0  0  0  0  0
   40.1940   25.8170   43.7880 S   0  0  0  0  0  0  0  0  0  0  0  0
   42.9000   24.7290   44.4570 H   0  0  0  0  0  0  0  0  0  0  0  0
   42.7680   25.0470   43.4720 N   0  0  0  0  0  0  0  0  0  0  0  0
   41.9180   26.1970   43.3930 C   0  0  2  0  0  3  0  0  0  0  0  0
   42.4610   27.3230   44.2420 C   0  0  0  0  0  3  0  0  0  0  0  0
   41.7950   28.2090   44.1790 H   0  0  0  0  0  0  0  0  0  0  0  0
   43.7180   27.7390   43.6450 N   0  0  0  0  0  0  0  0  0  0  0  0
   43.6160   28.0110   42.6390 H   0  0  0  0  0  0  0  0  0  0  0  0
   44.6440   26.5990   43.7080 C   0  0  0  0  0  2  0  0  0  0  0  0
   44.0730   25.4120   42.9620 C   0  0  0  0  0  2  0  0  0  0  0  0
  1  2  1  0  0  0  0
  1 23  1  0  0  0  0
  2 16  1  0  0  0  0
  3 17  1  0  0  0  0
  3  2  2  0  0  0  0
  4  3  1  0  0  0  0
  5  4  2  0  0  0  0
  5  6  1  0  0  0  0
  6  1  2  0  0  0  0
  7  8  1  0  0  0  0
  7  5  1  0  0  0  0
  8 18  1  0  0  0  0
  9  8  2  0  0  0  0
 10  9  1  0  0  0  0
 10 15  1  0  0  0  0
 11 10  2  0  0  0  0
 12 11  1  0  0  0  0
 12 13  2  0  0  0  0
 13 14  1  0  0  0  0
 14 15  2  0  0  0  0
 15  7  1  0  0  0  0
 19 13  1  0  0  0  0
 20 22  1  0  0  0  0
 20 11  1  0  0  0  0
 21 20  1  0  0  0  0
 25 24  1  0  0  0  0
 26 25  1  0  0  0  0
 26 23  1  1  0  0  0
 26 27  1  0  0  0  0
 28 27  1  0  0  0  0
 29 31  1  0  0  0  0
 29 27  1  0  0  0  0
 30 29  1  0  0  0  0
 32 25  1  0  0  0  0
 32 31  1  0  0  0  0
M  END
>  <minimizedAffinity>
-5.68507099

$$$$

 OpenBabel03252504233D

 32 35  0  0  1  0  0  0  0  0999 V2000
   37.8020   29.4860   38.4890 C   0  0  0  0  0  0  0  0  0  0  0  0
   37.1600   30.0840   37.3950 C   0  0  0  0  0  0  0  0  0  0  0  0
   37.5490   31.3760   36.9990 C   0  0  0  0  0  0  0  0  0  0  0  0
   38.5440   31.9710   37.7230 N   0  0  0  0  0  0  0  0  0  0  0  0
   39.1430   31.3630   38.7760 C   0  0  0  0  0  0  0  0  0  0  0  0
   38.7740   30.1380   39.1510 N   0  0  0  0  0  0  0  0  0  0  0  0
   40.1660   32.0810   39.4570 N   0  0  0  0  0  0  0  0  0  0  0  0
   40.3050   32.1830   40.8030 C   0  0  0  0  0  0  0  0  0  0  0  0
   41.4010   32.9540   41.0570 N   0  0  0  0  0  0  0  0  0  0  0  0
   41.9000   33.3040   39.8790 C   0  0  0  0  0  0  0  0  0  0  0  0
   42.9820   34.0660   39.4850 C   0  0  0  0  0  0  0  0  0  0  0  0
   43.2900   34.2800   38.2090 N   0  0  0  0  0  0  0  0  0  0  0  0
   42.5520   33.7570   37.2080 C   0  0  0  0  0  0  0  0  0  0  0  0
   41.4970   33.0150   37.5800 N   0  0  0  0  0  0  0  0  0  0  0  0
   41.1480   32.7710   38.8490 C   0  0  0  0  0  0  0  0  0  0  0  0
   36.3710   29.6450   36.8000 H   0  0  0  0  0  0  0  0  0  0  0  0
   37.0680   31.8530   36.1620 H   0  0  0  0  0  0  0  0  0  0  0  0
   39.6540   31.7250   41.5370 H   0  0  0  0  0  0  0  0  0  0  0  0
   42.8250   33.9470   36.1790 H   0  0  0  0  0  0  0  0  0  0  0  0
   43.8500   34.6830   40.4150 N   0  0  0  0  0  0  0  0  0  0  0  0
   44.8750   34.6310   40.4660 H   0  0  0  0  0  0  0  0  0  0  0  0
   43.3580   35.2650   41.1390 H   0  0  0  0  0  0  0  0  0  0  0  0
   37.2410   27.8350   38.9270 S   0  0  0  0  0  0  0  0  0  0  0  0
   36.0680   26.0380   41.0120 H   0  0  0  0  0  0  0  0  0  0  0  0
   37.0570   26.3300   41.1670 N   0  0  0  0  0  0  0  0  0  0  0  0
   37.2920   27.6730   40.7280 C   0  0  2  0  0  3  0  0  0  0  0  0
   36.3460   28.6330   41.4110 C   0  0  0  0  0  3  0  0  0  0  0  0
   36.5310   29.6700   41.0630 H   0  0  0  0  0  0  0  0  0  0  0  0
   36.6850   28.6320   42.8240 N   0  0  0  0  0  0  0  0  0  0  0  0
   37.6900   28.8700   42.9980 H   0  0  0  0  0  0  0  0  0  0  0  0
   36.4520   27.2750   43.3410 C   0  0  0  0  0  2  0  0  0  0  0  0
   37.3020   26.2710   42.5930 C   0  0  0  0  0  2  0  0  0  0  0  0
  1 23  1  0  0  0  0
  1  6  1  0  0  0  0
  2  1  2  0  0  0  0
  3  2  1  0  0  0  0
  3  4  2  0  0  0  0
  4  5  1  0  0  0  0
  5  6  2  0  0  0  0
  5  7  1  0  0  0  0
  7  8  1  0  0  0  0
  8  9  2  0  0  0  0
  8 18  1  0  0  0  0
 10  9  1  0  0  0  0
 11 10  1  0  0  0  0
 11 20  1  0  0  0  0
 12 11  2  0  0  0  0
 13 14  2  0  0  0  0
 13 12  1  0  0  0  0
 14 15  1  0  0  0  0
 15  7  1  0  0  0  0
 15 10  2  0  0  0  0
 16  2  1  0  0  0  0
 17  3  1  0  0  0  0
 19 13  1  0  0  0  0
 20 21  1  0  0  0  0
 20 22  1  0  0  0  0
 24 25  1  0  0  0  0
 25 32  1  0  0  0  0
 26 23  1  6  0  0  0
 26 25  1  0  0  0  0
 26 27  1  0  0  0  0
 27 29  1  0  0  0  0
 28 27  1  0  0  0  0
 29 30  1  0  0  0  0
 29 31  1  0  0  0  0
 32 31  1  0  0  0  0
M  END
>  <minimizedAffinity>
-5.60746765

$$$$
