
 OpenBabel03252509253D

 30 32  0  0  1  0  0  0  0  0999 V2000
   46.5660   35.0710   41.9040 C   0  0  1  0  0  0  0  0  0  0  0  0
   48.0880   35.3600   41.8910 C   0  0  0  0  0  0  0  0  0  0  0  0
   47.4000   34.1120   41.3020 C   0  0  2  0  0  0  0  0  0  0  0  0
   46.0330   35.8460   41.3450 H   0  0  0  0  0  0  0  0  0  0  0  0
   48.6550   35.2830   42.8190 H   0  0  0  0  0  0  0  0  0  0  0  0
   48.4880   36.0260   41.1170 H   0  0  0  0  0  0  0  0  0  0  0  0
   47.7790   33.1860   41.8160 H   0  0  0  0  0  0  0  0  0  0  0  0
   44.6790   35.3860   45.1260 C   0  0  0  0  0  0  0  0  0  0  0  0
   45.1390   35.6940   43.8180 C   0  0  0  0  0  0  0  0  0  0  0  0
   46.0700   34.8450   43.3050 C   0  0  0  0  0  0  0  0  0  0  0  0
   46.5250   33.7670   44.0200 N   0  0  0  0  0  0  0  0  0  0  0  0
   46.0620   33.5090   45.2610 C   0  0  0  0  0  0  0  0  0  0  0  0
   45.1320   34.3290   45.8110 N   0  0  0  0  0  0  0  0  0  0  0  0
   43.9330   36.0300   45.5870 H   0  0  0  0  0  0  0  0  0  0  0  0
   46.5290   32.6240   45.6700 H   0  0  0  0  0  0  0  0  0  0  0  0
   44.6750   36.8350   43.1120 N   0  0  0  0  0  0  0  0  0  0  0  0
   44.0150   36.9180   42.3130 H   0  0  0  0  0  0  0  0  0  0  0  0
   45.1900   37.6010   43.6240 H   0  0  0  0  0  0  0  0  0  0  0  0
   47.4090   33.9240   39.7990 C   0  0  0  0  0  0  0  0  0  0  0  0
   48.3920   33.6400   39.4110 H   0  0  0  0  0  0  0  0  0  0  0  0
   47.2120   34.9490   39.3670 H   0  0  0  0  0  0  0  0  0  0  0  0
   46.3030   33.1240   39.3910 N   0  0  0  0  0  0  0  0  0  0  0  0
   46.3410   31.7560   39.8190 C   0  0  0  0  0  3  0  0  0  0  0  0
   45.3790   31.3030   39.4340 H   0  0  0  0  0  0  0  0  0  0  0  0
   47.4400   30.9450   39.2070 C   0  0  0  0  0  3  0  0  0  0  0  0
   47.0800   29.9600   38.8060 H   0  0  0  0  0  0  0  0  0  0  0  0
   48.1870   31.6070   38.1860 N   0  0  0  0  0  0  0  0  0  0  0  0
   48.6450   30.8640   37.5930 H   0  0  0  0  0  0  0  0  0  0  0  0
   47.4360   32.4710   37.3270 C   0  0  0  0  0  2  0  0  0  0  0  0
   46.2250   33.0930   37.9350 C   0  0  0  0  0  2  0  0  0  0  0  0
  1  4  1  6  0  0  0
  1 10  1  0  0  0  0
  2  1  1  0  0  0  0
  2  5  1  0  0  0  0
  3  7  1  1  0  0  0
  3  2  1  0  0  0  0
  3  1  1  0  0  0  0
  6  2  1  0  0  0  0
  8 14  1  0  0  0  0
  8 13  1  0  0  0  0
  9  8  2  0  0  0  0
 10  9  1  0  0  0  0
 10 11  2  0  0  0  0
 11 12  1  0  0  0  0
 12 15  1  0  0  0  0
 12 13  2  0  0  0  0
 16 18  1  0  0  0  0
 16  9  1  0  0  0  0
 17 16  1  0  0  0  0
 19  3  1  0  0  0  0
 20 19  1  0  0  0  0
 21 19  1  0  0  0  0
 22 19  1  0  0  0  0
 22 23  1  0  0  0  0
 24 23  1  0  0  0  0
 25 23  1  0  0  0  0
 26 25  1  0  0  0  0
 27 25  1  0  0  0  0
 28 27  1  0  0  0  0
 29 30  1  0  0  0  0
 29 27  1  0  0  0  0
 30 22  1  0  0  0  0
M  END
>  <minimizedAffinity>
-4.48696518

>  <minimizedRMSD>
0.818076134

$$$$
