
 OpenBabel03252501563D

 21 22  0  0  0  0  0  0  0  0999 V2000
   38.0680   25.2360   42.4800 C   0  0  0  0  0  0  0  0  0  0  0  0
   37.4940   26.4980   42.4690 C   0  0  0  0  0  0  0  0  0  0  0  0
   37.7350   27.3270   41.3810 C   0  0  0  0  0  0  0  0  0  0  0  0
   38.5260   26.8590   40.3740 N   0  0  0  0  0  0  0  0  0  0  0  0
   39.0640   25.6220   40.4280 C   0  0  0  0  0  0  0  0  0  0  0  0
   38.8520   24.7880   41.4700 N   0  0  0  0  0  0  0  0  0  0  0  0
   37.9320   24.5310   43.2880 H   0  0  0  0  0  0  0  0  0  0  0  0
   39.6700   25.3800   39.5640 H   0  0  0  0  0  0  0  0  0  0  0  0
   37.1410   28.6300   41.3700 N   0  0  0  0  0  0  0  0  0  0  0  0
   37.7440   29.8670   41.8480 C   0  0  0  0  0  3  0  0  0  0  0  0
   38.8280   29.7990   41.9270 H   0  0  0  0  0  0  0  0  0  0  0  0
   37.2520   31.0280   41.0450 C   0  0  0  0  0  3  0  0  0  0  0  0
   37.5790   31.9730   41.5270 H   0  0  0  0  0  0  0  0  0  0  0  0
   35.7930   31.0340   41.1100 N   0  0  0  0  0  0  0  0  0  0  0  0
   35.5010   30.8530   42.0920 H   0  0  0  0  0  0  0  0  0  0  0  0
   35.3590   29.9390   40.2660 C   0  0  0  0  0  2  0  0  0  0  0  0
   35.8070   28.6170   40.8070 C   0  0  0  0  0  2  0  0  0  0  0  0
   36.6590   26.8790   43.6240 C   0  0  0  0  0  0  0  0  0  0  0  0
   36.5120   27.9590   43.7430 H   0  0  0  0  0  0  0  0  0  0  0  0
   35.6860   26.3230   43.4890 H   0  0  0  0  0  0  0  0  0  0  0  0
   37.0990   26.4610   44.5760 H   0  0  0  0  0  0  0  0  0  0  0  0
  1  7  1  0  0  0  0
  2  1  1  0  0  0  0
  2 18  1  0  0  0  0
  3  2  2  0  0  0  0
  4  5  2  0  0  0  0
  4  3  1  0  0  0  0
  5  6  1  0  0  0  0
  6  1  2  0  0  0  0
  8  5  1  0  0  0  0
  9  3  1  0  0  0  0
  9 10  1  0  0  0  0
 10 11  1  0  0  0  0
 12 14  1  0  0  0  0
 12 13  1  0  0  0  0
 12 10  1  0  0  0  0
 14 15  1  0  0  0  0
 16 17  1  0  0  0  0
 16 14  1  0  0  0  0
 17  9  1  0  0  0  0
 18 19  1  0  0  0  0
 18 21  1  0  0  0  0
 20 18  1  0  0  0  0
M  END
>  <minimizedAffinity>
-4.01897001

$$$$

 OpenBabel03252501563D

 21 22  0  0  0  0  0  0  0  0999 V2000
   35.5950   29.2290   38.1430 C   0  0  0  0  0  0  0  0  0  0  0  0
   36.1740   30.0620   39.0880 C   0  0  0  0  0  0  0  0  0  0  0  0
   37.1860   30.9220   38.6840 C   0  0  0  0  0  0  0  0  0  0  0  0
   37.5630   30.9060   37.3740 N   0  0  0  0  0  0  0  0  0  0  0  0
   36.9710   30.0770   36.4880 C   0  0  0  0  0  0  0  0  0  0  0  0
   35.9830   29.2270   36.8450 N   0  0  0  0  0  0  0  0  0  0  0  0
   34.8030   28.5300   38.3750 H   0  0  0  0  0  0  0  0  0  0  0  0
   37.3670   30.1680   35.4850 H   0  0  0  0  0  0  0  0  0  0  0  0
   37.7830   31.7820   39.6610 N   0  0  0  0  0  0  0  0  0  0  0  0
   38.7210   31.3960   40.7070 C   0  0  0  0  0  3  0  0  0  0  0  0
   39.2040   30.4430   40.5010 H   0  0  0  0  0  0  0  0  0  0  0  0
   39.6630   32.5190   40.9980 C   0  0  0  0  0  3  0  0  0  0  0  0
   40.2520   32.2770   41.9080 H   0  0  0  0  0  0  0  0  0  0  0  0
   38.8700   33.6960   41.3410 N   0  0  0  0  0  0  0  0  0  0  0  0
   38.1060   33.4080   41.9870 H   0  0  0  0  0  0  0  0  0  0  0  0
   38.2990   34.1610   40.0920 C   0  0  0  0  0  2  0  0  0  0  0  0
   37.3510   33.1570   39.5130 C   0  0  0  0  0  2  0  0  0  0  0  0
   35.6710   29.9770   40.4730 C   0  0  0  0  0  0  0  0  0  0  0  0
   36.3530   30.3790   41.2310 H   0  0  0  0  0  0  0  0  0  0  0  0
   34.6740   30.5090   40.4640 H   0  0  0  0  0  0  0  0  0  0  0  0
   35.4230   28.9070   40.7310 H   0  0  0  0  0  0  0  0  0  0  0  0
  1  7  1  0  0  0  0
  1  2  1  0  0  0  0
  2 18  1  0  0  0  0
  3  2  2  0  0  0  0
  3  9  1  0  0  0  0
  4  3  1  0  0  0  0
  5  6  1  0  0  0  0
  5  4  2  0  0  0  0
  6  1  2  0  0  0  0
  8  5  1  0  0  0  0
  9 10  1  0  0  0  0
 10 12  1  0  0  0  0
 11 10  1  0  0  0  0
 12 14  1  0  0  0  0
 12 13  1  0  0  0  0
 14 15  1  0  0  0  0
 16 14  1  0  0  0  0
 17  9  1  0  0  0  0
 17 16  1  0  0  0  0
 18 21  1  0  0  0  0
 18 19  1  0  0  0  0
 20 18  1  0  0  0  0
M  END
>  <minimizedAffinity>
-3.96540833

$$$$

 OpenBabel03252501563D

 21 22  0  0  0  0  0  0  0  0999 V2000
   36.5740   27.9250   42.4140 C   0  0  0  0  0  0  0  0  0  0  0  0
   36.5330   28.8930   41.4220 C   0  0  0  0  0  0  0  0  0  0  0  0
   37.6070   29.7650   41.3010 C   0  0  0  0  0  0  0  0  0  0  0  0
   38.6520   29.6270   42.1660 N   0  0  0  0  0  0  0  0  0  0  0  0
   38.6480   28.6690   43.1170 C   0  0  0  0  0  0  0  0  0  0  0  0
   37.6220   27.8030   43.2650 N   0  0  0  0  0  0  0  0  0  0  0  0
   35.7800   27.2090   42.5760 H   0  0  0  0  0  0  0  0  0  0  0  0
   39.5390   28.6730   43.7320 H   0  0  0  0  0  0  0  0  0  0  0  0
   37.5640   30.7640   40.2770 N   0  0  0  0  0  0  0  0  0  0  0  0
   36.9540   32.0840   40.3700 C   0  0  0  0  0  3  0  0  0  0  0  0
   36.8040   32.4010   41.4000 H   0  0  0  0  0  0  0  0  0  0  0  0
   37.7030   33.0620   39.5230 C   0  0  0  0  0  3  0  0  0  0  0  0
   37.1300   34.0110   39.4660 H   0  0  0  0  0  0  0  0  0  0  0  0
   37.7420   32.5400   38.1600 N   0  0  0  0  0  0  0  0  0  0  0  0
   36.7980   32.1740   37.9140 H   0  0  0  0  0  0  0  0  0  0  0  0
   38.6930   31.4470   38.1860 C   0  0  0  0  0  2  0  0  0  0  0  0
   38.2200   30.3270   39.0610 C   0  0  0  0  0  2  0  0  0  0  0  0
   35.3400   28.9320   40.5550 C   0  0  0  0  0  0  0  0  0  0  0  0
   35.1880   29.8840   40.0310 H   0  0  0  0  0  0  0  0  0  0  0  0
   35.4560   28.0630   39.8440 H   0  0  0  0  0  0  0  0  0  0  0  0
   34.4150   28.6920   41.1550 H   0  0  0  0  0  0  0  0  0  0  0  0
  1  7  1  0  0  0  0
  1  6  1  0  0  0  0
  2  1  2  0  0  0  0
  3  2  1  0  0  0  0
  3  4  2  0  0  0  0
  4  5  1  0  0  0  0
  5  6  2  0  0  0  0
  5  8  1  0  0  0  0
  9 10  1  0  0  0  0
  9  3  1  0  0  0  0
 10 11  1  0  0  0  0
 12 10  1  0  0  0  0
 13 12  1  0  0  0  0
 14 16  1  0  0  0  0
 14 12  1  0  0  0  0
 15 14  1  0  0  0  0
 16 17  1  0  0  0  0
 17  9  1  0  0  0  0
 18 21  1  0  0  0  0
 18  2  1  0  0  0  0
 19 18  1  0  0  0  0
 20 18  1  0  0  0  0
M  END
>  <minimizedAffinity>
-3.95412087

$$$$

 OpenBabel03252501563D

 21 22  0  0  0  0  0  0  0  0999 V2000
   36.6150   27.9410   42.4520 C   0  0  0  0  0  0  0  0  0  0  0  0
   36.6610   28.8490   41.4050 C   0  0  0  0  0  0  0  0  0  0  0  0
   37.8410   29.5440   41.1800 C   0  0  0  0  0  0  0  0  0  0  0  0
   38.9020   29.3000   42.0020 N   0  0  0  0  0  0  0  0  0  0  0  0
   38.8110   28.4060   43.0100 C   0  0  0  0  0  0  0  0  0  0  0  0
   37.6790   27.7120   43.2590 N   0  0  0  0  0  0  0  0  0  0  0  0
   35.7350   27.3610   42.6950 H   0  0  0  0  0  0  0  0  0  0  0  0
   39.7250   28.3110   43.5820 H   0  0  0  0  0  0  0  0  0  0  0  0
   37.8880   30.4810   40.0990 N   0  0  0  0  0  0  0  0  0  0  0  0
   38.1460   30.1830   38.6970 C   0  0  0  0  0  3  0  0  0  0  0  0
   37.9830   29.1330   38.4580 H   0  0  0  0  0  0  0  0  0  0  0  0
   37.4070   31.1400   37.8180 C   0  0  0  0  0  3  0  0  0  0  0  0
   37.7470   31.0130   36.7690 H   0  0  0  0  0  0  0  0  0  0  0  0
   37.7960   32.4940   38.2010 N   0  0  0  0  0  0  0  0  0  0  0  0
   38.8280   32.5210   38.3350 H   0  0  0  0  0  0  0  0  0  0  0  0
   37.1360   32.7490   39.4650 C   0  0  0  0  0  2  0  0  0  0  0  0
   37.6390   31.8380   40.5420 C   0  0  0  0  0  2  0  0  0  0  0  0
   35.4400   29.0180   40.5940 C   0  0  0  0  0  0  0  0  0  0  0  0
   35.4000   29.9510   40.0200 H   0  0  0  0  0  0  0  0  0  0  0  0
   35.3890   28.1030   39.9330 H   0  0  0  0  0  0  0  0  0  0  0  0
   34.5250   28.9500   41.2500 H   0  0  0  0  0  0  0  0  0  0  0  0
  1  7  1  0  0  0  0
  1  6  1  0  0  0  0
  2  1  2  0  0  0  0
  3  2  1  0  0  0  0
  3  4  2  0  0  0  0
  4  5  1  0  0  0  0
  5  6  2  0  0  0  0
  5  8  1  0  0  0  0
  9 17  1  0  0  0  0
  9  3  1  0  0  0  0
 10  9  1  0  0  0  0
 11 10  1  0  0  0  0
 12 14  1  0  0  0  0
 12 10  1  0  0  0  0
 13 12  1  0  0  0  0
 14 15  1  0  0  0  0
 14 16  1  0  0  0  0
 16 17  1  0  0  0  0
 18 21  1  0  0  0  0
 18  2  1  0  0  0  0
 19 18  1  0  0  0  0
 20 18  1  0  0  0  0
M  END
>  <minimizedAffinity>
-3.91890717

$$$$

 OpenBabel03252501563D

 21 22  0  0  0  0  0  0  0  0999 V2000
   37.2510   32.2730   40.2420 C   0  0  0  0  0  0  0  0  0  0  0  0
   37.1280   30.9890   40.7500 C   0  0  0  0  0  0  0  0  0  0  0  0
   38.1950   30.4490   41.4550 C   0  0  0  0  0  0  0  0  0  0  0  0
   39.3150   31.2090   41.6150 N   0  0  0  0  0  0  0  0  0  0  0  0
   39.3910   32.4550   41.1030 C   0  0  0  0  0  0  0  0  0  0  0  0
   38.3730   33.0140   40.4110 N   0  0  0  0  0  0  0  0  0  0  0  0
   36.4690   32.7670   39.6810 H   0  0  0  0  0  0  0  0  0  0  0  0
   40.3350   32.9450   41.3030 H   0  0  0  0  0  0  0  0  0  0  0  0
   38.0660   29.1230   41.9800 N   0  0  0  0  0  0  0  0  0  0  0  0
   37.5080   28.7460   43.2720 C   0  0  0  0  0  3  0  0  0  0  0  0
   36.8840   29.5290   43.7000 H   0  0  0  0  0  0  0  0  0  0  0  0
   36.8490   27.4070   43.1820 C   0  0  0  0  0  3  0  0  0  0  0  0
   36.5860   27.0590   44.2020 H   0  0  0  0  0  0  0  0  0  0  0  0
   37.8340   26.4540   42.6780 N   0  0  0  0  0  0  0  0  0  0  0  0
   38.7370   26.6150   43.1700 H   0  0  0  0  0  0  0  0  0  0  0  0
   37.9870   26.7560   41.2690 C   0  0  0  0  0  2  0  0  0  0  0  0
   38.5660   28.1210   41.0600 C   0  0  0  0  0  2  0  0  0  0  0  0
   35.8590   30.2770   40.5040 C   0  0  0  0  0  0  0  0  0  0  0  0
   35.9210   29.1870   40.6120 H   0  0  0  0  0  0  0  0  0  0  0  0
   35.1110   30.7390   41.2120 H   0  0  0  0  0  0  0  0  0  0  0  0
   35.4700   30.5220   39.4740 H   0  0  0  0  0  0  0  0  0  0  0  0
  1  6  2  0  0  0  0
  1  2  1  0  0  0  0
  2  3  2  0  0  0  0
  3  4  1  0  0  0  0
  3  9  1  0  0  0  0
  5  8  1  0  0  0  0
  5  4  2  0  0  0  0
  6  5  1  0  0  0  0
  7  1  1  0  0  0  0
  9 10  1  0  0  0  0
 10 11  1  0  0  0  0
 12 10  1  0  0  0  0
 12 13  1  0  0  0  0
 14 15  1  0  0  0  0
 14 12  1  0  0  0  0
 16 14  1  0  0  0  0
 17 16  1  0  0  0  0
 17  9  1  0  0  0  0
 18 19  1  0  0  0  0
 18  2  1  0  0  0  0
 18 20  1  0  0  0  0
 21 18  1  0  0  0  0
M  END
>  <minimizedAffinity>
-3.83609843

$$$$

 OpenBabel03252501563D

 21 22  0  0  0  0  0  0  0  0999 V2000
   38.4610   28.7820   43.2990 C   0  0  0  0  0  0  0  0  0  0  0  0
   38.4710   29.7450   42.3020 C   0  0  0  0  0  0  0  0  0  0  0  0
   37.4810   29.7030   41.3290 C   0  0  0  0  0  0  0  0  0  0  0  0
   36.5450   28.7150   41.4020 N   0  0  0  0  0  0  0  0  0  0  0  0
   36.5740   27.7980   42.3920 C   0  0  0  0  0  0  0  0  0  0  0  0
   37.5220   27.8070   43.3560 N   0  0  0  0  0  0  0  0  0  0  0  0
   39.1950   28.7430   44.0930 H   0  0  0  0  0  0  0  0  0  0  0  0
   35.7730   27.0730   42.3290 H   0  0  0  0  0  0  0  0  0  0  0  0
   37.4930   30.6980   40.3000 N   0  0  0  0  0  0  0  0  0  0  0  0
   36.9430   32.0450   40.3820 C   0  0  0  0  0  3  0  0  0  0  0  0
   36.7990   32.3730   41.4100 H   0  0  0  0  0  0  0  0  0  0  0  0
   37.7430   32.9840   39.5370 C   0  0  0  0  0  3  0  0  0  0  0  0
   37.2150   33.9580   39.4710 H   0  0  0  0  0  0  0  0  0  0  0  0
   37.7700   32.4540   38.1770 N   0  0  0  0  0  0  0  0  0  0  0  0
   36.8120   32.1310   37.9250 H   0  0  0  0  0  0  0  0  0  0  0  0
   38.6700   31.3190   38.2160 C   0  0  0  0  0  2  0  0  0  0  0  0
   38.1390   30.2260   39.0920 C   0  0  0  0  0  2  0  0  0  0  0  0
   39.5440   30.7570   42.3410 C   0  0  0  0  0  0  0  0  0  0  0  0
   39.7210   31.2710   41.3890 H   0  0  0  0  0  0  0  0  0  0  0  0
   39.2540   31.4700   43.1680 H   0  0  0  0  0  0  0  0  0  0  0  0
   40.5080   30.2880   42.6900 H   0  0  0  0  0  0  0  0  0  0  0  0
  1  6  1  0  0  0  0
  1  7  1  0  0  0  0
  2 18  1  0  0  0  0
  2  1  2  0  0  0  0
  3  4  2  0  0  0  0
  3  2  1  0  0  0  0
  4  5  1  0  0  0  0
  5  6  2  0  0  0  0
  8  5  1  0  0  0  0
  9 10  1  0  0  0  0
  9  3  1  0  0  0  0
 10 11  1  0  0  0  0
 12 10  1  0  0  0  0
 13 12  1  0  0  0  0
 14 16  1  0  0  0  0
 14 12  1  0  0  0  0
 15 14  1  0  0  0  0
 16 17  1  0  0  0  0
 17  9  1  0  0  0  0
 18 21  1  0  0  0  0
 18 20  1  0  0  0  0
 19 18  1  0  0  0  0
M  END
>  <minimizedAffinity>
-3.83522749

$$$$

 OpenBabel03252501563D

 21 22  0  0  0  0  0  0  0  0999 V2000
   38.4740   25.2140   40.1600 C   0  0  0  0  0  0  0  0  0  0  0  0
   38.0760   26.5400   40.2340 C   0  0  0  0  0  0  0  0  0  0  0  0
   37.2840   26.9370   41.3040 C   0  0  0  0  0  0  0  0  0  0  0  0
   36.9350   26.0000   42.2320 N   0  0  0  0  0  0  0  0  0  0  0  0
   37.3470   24.7190   42.1180 C   0  0  0  0  0  0  0  0  0  0  0  0
   38.1170   24.2970   41.0920 N   0  0  0  0  0  0  0  0  0  0  0  0
   39.0900   24.8240   39.3610 H   0  0  0  0  0  0  0  0  0  0  0  0
   36.9970   24.0840   42.9220 H   0  0  0  0  0  0  0  0  0  0  0  0
   36.8740   28.3060   41.3800 N   0  0  0  0  0  0  0  0  0  0  0  0
   37.5710   29.3880   42.0620 C   0  0  0  0  0  3  0  0  0  0  0  0
   38.6180   29.1570   42.2500 H   0  0  0  0  0  0  0  0  0  0  0  0
   37.3410   30.6830   41.3500 C   0  0  0  0  0  3  0  0  0  0  0  0
   37.7270   31.5170   41.9720 H   0  0  0  0  0  0  0  0  0  0  0  0
   35.8990   30.8940   41.2550 N   0  0  0  0  0  0  0  0  0  0  0  0
   35.4650   30.6600   42.1730 H   0  0  0  0  0  0  0  0  0  0  0  0
   35.4320   29.9640   40.2470 C   0  0  0  0  0  2  0  0  0  0  0  0
   35.6300   28.5430   40.6770 C   0  0  0  0  0  2  0  0  0  0  0  0
   38.5250   27.4490   39.1620 C   0  0  0  0  0  0  0  0  0  0  0  0
   37.9340   28.3680   39.0670 H   0  0  0  0  0  0  0  0  0  0  0  0
   39.6130   27.6570   39.3790 H   0  0  0  0  0  0  0  0  0  0  0  0
   38.5260   26.9090   38.1710 H   0  0  0  0  0  0  0  0  0  0  0  0
  1  2  2  0  0  0  0
  1  6  1  0  0  0  0
  2  3  1  0  0  0  0
  3  9  1  0  0  0  0
  3  4  2  0  0  0  0
  5  4  1  0  0  0  0
  5  8  1  0  0  0  0
  6  5  2  0  0  0  0
  7  1  1  0  0  0  0
  9 10  1  0  0  0  0
 10 11  1  0  0  0  0
 12 13  1  0  0  0  0
 12 10  1  0  0  0  0
 14 12  1  0  0  0  0
 14 15  1  0  0  0  0
 16 17  1  0  0  0  0
 16 14  1  0  0  0  0
 17  9  1  0  0  0  0
 18 20  1  0  0  0  0
 18  2  1  0  0  0  0
 19 18  1  0  0  0  0
 21 18  1  0  0  0  0
M  END
>  <minimizedAffinity>
-3.82677794

$$$$

 OpenBabel03252501563D

 21 22  0  0  0  0  0  0  0  0999 V2000
   37.3250   29.7190   42.1680 C   0  0  0  0  0  0  0  0  0  0  0  0
   37.6210   28.3800   42.3750 C   0  0  0  0  0  0  0  0  0  0  0  0
   38.2370   27.6710   41.3530 C   0  0  0  0  0  0  0  0  0  0  0  0
   38.5220   28.3260   40.1920 N   0  0  0  0  0  0  0  0  0  0  0  0
   38.2150   29.6310   40.0350 C   0  0  0  0  0  0  0  0  0  0  0  0
   37.6160   30.3540   41.0060 N   0  0  0  0  0  0  0  0  0  0  0  0
   36.8460   30.3420   42.9100 H   0  0  0  0  0  0  0  0  0  0  0  0
   38.4970   30.0240   39.0660 H   0  0  0  0  0  0  0  0  0  0  0  0
   38.5420   26.2890   41.5680 N   0  0  0  0  0  0  0  0  0  0  0  0
   39.7620   25.7450   42.1500 C   0  0  0  0  0  3  0  0  0  0  0  0
   40.3170   26.4870   42.7230 H   0  0  0  0  0  0  0  0  0  0  0  0
   39.4640   24.4840   42.8950 C   0  0  0  0  0  3  0  0  0  0  0  0
   40.4180   23.9930   43.1810 H   0  0  0  0  0  0  0  0  0  0  0  0
   38.8040   23.5630   41.9750 N   0  0  0  0  0  0  0  0  0  0  0  0
   39.3060   23.5840   41.0630 H   0  0  0  0  0  0  0  0  0  0  0  0
   37.4610   24.0780   41.8010 C   0  0  0  0  0  2  0  0  0  0  0  0
   37.4680   25.4190   41.1340 C   0  0  0  0  0  2  0  0  0  0  0  0
   37.2570   27.7950   43.6800 C   0  0  0  0  0  0  0  0  0  0  0  0
   37.1900   26.7010   43.6850 H   0  0  0  0  0  0  0  0  0  0  0  0
   38.0260   28.1840   44.4100 H   0  0  0  0  0  0  0  0  0  0  0  0
   36.2770   28.2250   44.0380 H   0  0  0  0  0  0  0  0  0  0  0  0
  1  2  1  0  0  0  0
  1  7  1  0  0  0  0
  2 18  1  0  0  0  0
  3  9  1  0  0  0  0
  3  2  2  0  0  0  0
  4  3  1  0  0  0  0
  5  4  2  0  0  0  0
  5  6  1  0  0  0  0
  6  1  2  0  0  0  0
  8  5  1  0  0  0  0
  9 10  1  0  0  0  0
 10 11  1  0  0  0  0
 10 12  1  0  0  0  0
 12 13  1  0  0  0  0
 14 12  1  0  0  0  0
 15 14  1  0  0  0  0
 16 14  1  0  0  0  0
 17  9  1  0  0  0  0
 17 16  1  0  0  0  0
 18 19  1  0  0  0  0
 18 21  1  0  0  0  0
 18 20  1  0  0  0  0
M  END
>  <minimizedAffinity>
-3.7934792

$$$$

 OpenBabel03252501563D

 21 22  0  0  0  0  0  0  0  0999 V2000
   38.5050   23.7470   40.4700 C   0  0  0  0  0  0  0  0  0  0  0  0
   37.9900   24.8120   41.1940 C   0  0  0  0  0  0  0  0  0  0  0  0
   38.5530   26.0690   41.0170 C   0  0  0  0  0  0  0  0  0  0  0  0
   39.5880   26.1960   40.1380 N   0  0  0  0  0  0  0  0  0  0  0  0
   40.0560   25.1300   39.4550 C   0  0  0  0  0  0  0  0  0  0  0  0
   39.5340   23.8920   39.6010 N   0  0  0  0  0  0  0  0  0  0  0  0
   38.1250   22.7380   40.5500 H   0  0  0  0  0  0  0  0  0  0  0  0
   40.8780   25.3730   38.7930 H   0  0  0  0  0  0  0  0  0  0  0  0
   38.0200   27.1670   41.7650 N   0  0  0  0  0  0  0  0  0  0  0  0
   38.4230   27.5920   43.0990 C   0  0  0  0  0  3  0  0  0  0  0  0
   39.4030   27.2100   43.3790 H   0  0  0  0  0  0  0  0  0  0  0  0
   38.2710   29.0720   43.2400 C   0  0  0  0  0  3  0  0  0  0  0  0
   38.4130   29.3560   44.3040 H   0  0  0  0  0  0  0  0  0  0  0  0
   36.8890   29.4160   42.9180 N   0  0  0  0  0  0  0  0  0  0  0  0
   36.2580   28.7290   43.3800 H   0  0  0  0  0  0  0  0  0  0  0  0
   36.7780   29.2860   41.4790 C   0  0  0  0  0  2  0  0  0  0  0  0
   36.9820   27.8690   41.0380 C   0  0  0  0  0  2  0  0  0  0  0  0
   36.8690   24.5340   42.1120 C   0  0  0  0  0  0  0  0  0  0  0  0
   36.7200   25.2920   42.8920 H   0  0  0  0  0  0  0  0  0  0  0  0
   35.9610   24.4120   41.4520 H   0  0  0  0  0  0  0  0  0  0  0  0
   37.0070   23.5270   42.6010 H   0  0  0  0  0  0  0  0  0  0  0  0
  1  7  1  0  0  0  0
  1  2  1  0  0  0  0
  2 18  1  0  0  0  0
  3  2  2  0  0  0  0
  3  9  1  0  0  0  0
  4  3  1  0  0  0  0
  5  6  1  0  0  0  0
  5  4  2  0  0  0  0
  6  1  2  0  0  0  0
  8  5  1  0  0  0  0
  9 10  1  0  0  0  0
 10 12  1  0  0  0  0
 10 11  1  0  0  0  0
 12 13  1  0  0  0  0
 14 12  1  0  0  0  0
 14 15  1  0  0  0  0
 16 14  1  0  0  0  0
 17 16  1  0  0  0  0
 17  9  1  0  0  0  0
 18 21  1  0  0  0  0
 18 19  1  0  0  0  0
 20 18  1  0  0  0  0
M  END
>  <minimizedAffinity>
-3.73490524

$$$$
