
 OpenBabel03252508063D

 44 47  0  0  1  0  0  0  0  0999 V2000
   45.3270   36.3460   42.7960 C   0  0  0  0  0  0  0  0  0  0  0  0
   45.4670   34.9700   42.7020 C   0  0  0  0  0  0  0  0  0  0  0  0
   45.1650   34.1710   43.7780 C   0  0  0  0  0  0  0  0  0  0  0  0
   44.7250   34.8060   44.9220 N   0  0  0  0  0  0  0  0  0  0  0  0
   44.5940   36.1300   45.0050 C   0  0  0  0  0  0  0  0  0  0  0  0
   44.8990   36.8860   43.9330 N   0  0  0  0  0  0  0  0  0  0  0  0
   45.5680   36.9930   41.9380 H   0  0  0  0  0  0  0  0  0  0  0  0
   44.2530   36.6300   45.8910 H   0  0  0  0  0  0  0  0  0  0  0  0
   45.2550   32.7610   43.8430 C   0  0  0  0  0  0  0  0  0  0  0  0
   44.6620   31.8950   42.9210 C   0  0  0  0  0  0  0  0  0  0  0  0
   44.6920   30.5280   43.0180 C   0  0  0  0  0  0  0  0  0  0  0  0
   45.3370   29.9360   44.0750 C   0  0  0  0  0  0  0  0  0  0  0  0
   45.9540   30.8020   45.0290 C   0  0  0  0  0  0  0  0  0  0  0  0
   46.5980   30.2170   46.0870 C   0  0  0  0  0  0  0  0  0  0  0  0
   47.2160   30.9950   47.0430 C   0  0  0  0  0  0  0  0  0  0  0  0
   47.1780   32.3920   46.9210 C   0  0  0  0  0  0  0  0  0  0  0  0
   46.5030   32.9440   45.8180 C   0  0  0  0  0  0  0  0  0  0  0  0
   45.8970   32.1460   44.8870 C   0  0  0  0  0  0  0  0  0  0  0  0
   44.1380   32.3240   42.0660 H   0  0  0  0  0  0  0  0  0  0  0  0
   44.2090   29.9050   42.2630 H   0  0  0  0  0  0  0  0  0  0  0  0
   45.3900   28.8650   44.1980 H   0  0  0  0  0  0  0  0  0  0  0  0
   46.6240   29.1260   46.1740 H   0  0  0  0  0  0  0  0  0  0  0  0
   47.7070   30.4770   47.8550 H   0  0  0  0  0  0  0  0  0  0  0  0
   47.6880   32.9210   47.7120 H   0  0  0  0  0  0  0  0  0  0  0  0
   46.6050   34.0040   45.8890 H   0  0  0  0  0  0  0  0  0  0  0  0
   45.9070   34.4670   41.5080 O   0  0  0  0  0  0  0  0  0  0  0  0
   47.5820   32.5070   41.0480 O   0  0  0  0  0  0  0  0  0  0  0  0
   47.4990   33.9830   41.1940 P   0  0  1  0  0  0  0  0  0  0  0  0
   48.0600   34.6590   39.7470 O   0  0  0  0  0  0  0  0  0  0  0  0
   48.0840   35.2140   37.2270 H   0  0  0  0  0  0  0  0  0  0  0  0
   48.6330   34.3650   37.4790 N   0  0  0  0  0  0  0  0  0  0  0  0
   48.1680   33.7470   38.7290 C   0  0  1  0  0  3  0  0  0  0  0  0
   49.2120   32.7160   39.1050 C   0  0  0  0  0  3  0  0  0  0  0  0
   49.8450   33.0280   39.9620 H   0  0  0  0  0  0  0  0  0  0  0  0
   50.1690   32.4860   38.0110 N   0  0  0  0  0  0  0  0  0  0  0  0
   50.5830   33.4500   37.8290 H   0  0  0  0  0  0  0  0  0  0  0  0
   49.3700   32.1620   36.8440 C   0  0  0  0  0  2  0  0  0  0  0  0
   48.4470   33.3080   36.4740 C   0  0  0  0  0  2  0  0  0  0  0  0
   48.4690   34.5270   42.4530 O   0  0  0  0  0  0  0  0  0  0  0  0
   49.6540   35.2370   42.3410 C   0  0  0  0  0  0  0  0  0  0  0  0
   49.3110   36.3590   41.9270 O   0  0  0  0  0  0  0  0  0  0  0  0
   50.7780   34.4250   42.7330 N   0  0  0  0  0  0  0  0  0  0  0  0
   51.5450   34.0900   42.1170 H   0  0  0  0  0  0  0  0  0  0  0  0
   50.8350   34.1400   43.7330 H   0  0  0  0  0  0  0  0  0  0  0  0
  1  6  1  0  0  0  0
  2  1  2  0  0  0  0
  2  3  1  0  0  0  0
  3  9  1  0  0  0  0
  3  4  2  0  0  0  0
  4  5  1  0  0  0  0
  5  8  1  0  0  0  0
  6  5  2  0  0  0  0
  7  1  1  0  0  0  0
  9 18  1  0  0  0  0
 10 11  1  0  0  0  0
 10  9  2  0  0  0  0
 11 12  2  0  0  0  0
 12 21  1  0  0  0  0
 12 13  1  0  0  0  0
 13 14  1  0  0  0  0
 14 22  1  0  0  0  0
 14 15  2  0  0  0  0
 15 23  1  0  0  0  0
 16 15  1  0  0  0  0
 16 24  1  0  0  0  0
 17 25  1  0  0  0  0
 17 16  2  0  0  0  0
 18 13  2  0  0  0  0
 18 17  1  0  0  0  0
 19 10  1  0  0  0  0
 20 11  1  0  0  0  0
 26  2  1  0  0  0  0
 28 27  2  6  0  0  0
 28 26  1  0  0  0  0
 28 39  1  0  0  0  0
 29 28  1  0  0  0  0
 30 31  1  0  0  0  0
 31 32  1  0  0  0  0
 32 33  1  0  0  0  0
 32 29  1  1  0  0  0
 33 34  1  0  0  0  0
 35 33  1  0  0  0  0
 36 35  1  0  0  0  0
 37 35  1  0  0  0  0
 38 37  1  0  0  0  0
 38 31  1  0  0  0  0
 40 39  1  0  0  0  0
 40 42  1  0  0  0  0
 41 40  2  0  0  0  0
 42 44  1  0  0  0  0
 43 42  1  0  0  0  0
M  END
>  <minimizedAffinity>
-6.29963207

>  <minimizedRMSD>
0.752630293

$$$$
