
 OpenBabel03252505173D

 34 37  0  0  0  0  0  0  0  0999 V2000
   46.1350   32.7280   47.0760 C   0  0  0  0  0  0  0  0  0  0  0  0
   45.0370   32.4340   47.8750 C   0  0  0  0  0  0  0  0  0  0  0  0
   45.1960   31.6000   48.9750 C   0  0  0  0  0  0  0  0  0  0  0  0
   46.4680   31.0920   49.2270 C   0  0  0  0  0  0  0  0  0  0  0  0
   47.5240   31.4270   48.3850 C   0  0  0  0  0  0  0  0  0  0  0  0
   47.3580   32.2450   47.3090 N   0  0  0  0  0  0  0  0  0  0  0  0
   44.0370   32.8250   47.6910 H   0  0  0  0  0  0  0  0  0  0  0  0
   44.3540   31.3550   49.6160 H   0  0  0  0  0  0  0  0  0  0  0  0
   46.5730   30.4460   50.0840 H   0  0  0  0  0  0  0  0  0  0  0  0
   48.8180   30.9000   48.6550 N   0  0  0  0  0  0  0  0  0  0  0  0
   49.6320   31.3990   49.7210 C   0  0  0  0  0  0  0  0  0  0  0  0
   49.0830   31.6630   50.6430 H   0  0  0  0  0  0  0  0  0  0  0  0
   50.6150   30.2820   50.0670 C   0  0  0  0  0  0  0  0  0  0  0  0
   50.9800   30.4840   51.0880 H   0  0  0  0  0  0  0  0  0  0  0  0
   49.8360   29.0410   50.1070 N   0  0  0  0  0  0  0  0  0  0  0  0
   50.3780   28.2700   50.5550 H   0  0  0  0  0  0  0  0  0  0  0  0
   49.5220   28.6250   48.7360 C   0  0  0  0  0  0  0  0  0  0  0  0
   49.3630   29.8310   47.8510 C   0  0  0  0  0  0  0  0  0  0  0  0
   44.7400   35.2840   44.7930 C   0  0  0  0  0  0  0  0  0  0  0  0
   45.5410   35.1720   43.6560 C   0  0  0  0  0  0  0  0  0  0  0  0
   46.5420   34.2260   43.7090 C   0  0  0  0  0  0  0  0  0  0  0  0
   46.7250   33.4440   44.8340 N   0  0  0  0  0  0  0  0  0  0  0  0
   45.9030   33.6030   45.9210 C   0  0  0  0  0  0  0  0  0  0  0  0
   44.9260   34.5140   45.8920 N   0  0  0  0  0  0  0  0  0  0  0  0
   43.9550   36.0230   44.7590 H   0  0  0  0  0  0  0  0  0  0  0  0
   45.4260   35.7580   42.7740 H   0  0  0  0  0  0  0  0  0  0  0  0
   47.4460   33.9940   42.5300 C   0  0  0  0  0  0  0  0  0  0  0  0
   47.9220   35.2930   41.8810 C   0  0  0  0  0  0  0  0  0  0  0  0
   48.8480   34.2890   42.6430 C   0  0  0  0  0  0  0  0  0  0  0  0
   47.0010   33.2600   41.8310 H   0  0  0  0  0  0  0  0  0  0  0  0
   48.0080   35.2510   40.7880 H   0  0  0  0  0  0  0  0  0  0  0  0
   47.7040   36.2450   42.3930 H   0  0  0  0  0  0  0  0  0  0  0  0
   49.2370   34.6360   43.6300 H   0  0  0  0  0  0  0  0  0  0  0  0
   49.5660   33.7440   42.0060 H   0  0  0  0  0  0  0  0  0  0  0  0
  1  6  2  0  0  0  0
  1  2  1  0  0  0  0
  2  3  2  0  0  0  0
  3  4  1  0  0  0  0
  3  8  1  0  0  0  0
  4  9  1  0  0  0  0
  5 10  1  0  0  0  0
  5  4  2  0  0  0  0
  6  5  1  0  0  0  0
  7  2  1  0  0  0  0
 10 11  1  0  0  0  0
 11 13  1  0  0  0  0
 11 12  1  0  0  0  0
 13 15  1  0  0  0  0
 13 14  1  0  0  0  0
 15 16  1  0  0  0  0
 17 15  1  0  0  0  0
 18 10  1  0  0  0  0
 18 17  1  0  0  0  0
 19 24  1  0  0  0  0
 20 21  1  0  0  0  0
 20 19  2  0  0  0  0
 21 22  2  0  0  0  0
 22 23  1  0  0  0  0
 23  1  1  0  0  0  0
 24 23  2  0  0  0  0
 25 19  1  0  0  0  0
 26 20  1  0  0  0  0
 27 29  1  0  0  0  0
 27 21  1  0  0  0  0
 28 32  1  0  0  0  0
 28 27  1  0  0  0  0
 28 29  1  0  0  0  0
 29 33  1  0  0  0  0
 30 27  1  0  0  0  0
 31 28  1  0  0  0  0
 34 29  1  0  0  0  0
M  END
>  <minimizedAffinity>
-6.58828592

>  <minimizedRMSD>
1.30651987

$$$$
