REMARK  Name = 
REMARK  2 active torsions:
REMARK  status: ('A' for Active; 'I' for Inactive)
REMARK    1  A    between atoms: C_1  and  N_19
REMARK    2  A    between atoms: C_5  and  C_7
REMARK                            x       y       z     vdW  Elec       q    Type
REMARK                         _______ _______ _______ _____ _____    ______ ____
ROOT
ATOM      1  C   UNL     1      45.618  33.954  45.443  0.00  0.00    +0.000 A 
ATOM      2  C   UNL     1      44.713  34.989  45.696  0.00  0.00    +0.000 A 
ATOM      3  C   UNL     1      44.524  35.959  44.684  0.00  0.00    +0.000 A 
ATOM      4  N   UNL     1      45.238  35.825  43.517  0.00  0.00    +0.000 NA
ATOM      5  C   UNL     1      46.100  34.795  43.338  0.00  0.00    +0.000 A 
ATOM      6  N   UNL     1      46.296  33.872  44.272  0.00  0.00    +0.000 NA
ATOM      7  H   UNL     1      44.184  35.035  46.636  0.00  0.00    +0.000 HD
ATOM      8  H   UNL     1      43.841  36.762  44.842  0.00  0.00    +0.000 HD
ENDROOT
BRANCH   5   9
ATOM      9  C   UNL     1      46.831  34.714  42.066  0.00  0.00    +0.000 A 
ATOM     10  C   UNL     1      48.010  35.411  41.905  0.00  0.00    +0.000 A 
ATOM     11  C   UNL     1      48.774  35.407  40.758  0.00  0.00    +0.000 A 
ATOM     12  C   UNL     1      48.257  34.623  39.734  0.00  0.00    +0.000 A 
ATOM     13  C   UNL     1      47.055  33.906  39.882  0.00  0.00    +0.000 A 
ATOM     14  N   UNL     1      46.364  33.968  41.053  0.00  0.00    +0.000 NA
ATOM     15  H   UNL     1      48.340  35.992  42.745  0.00  0.00    +0.000 HD
ATOM     16  H   UNL     1      49.694  35.958  40.648  0.00  0.00    +0.000 HD
ATOM     17  H   UNL     1      48.810  34.577  38.804  0.00  0.00    +0.000 HD
ATOM     18  H   UNL     1      46.714  33.324  39.057  0.00  0.00    +0.000 HD
ENDBRANCH   5   9
BRANCH   1  19
ATOM     19  N   UNL     1      45.869  32.938  46.404  0.00  0.00    +0.000 N 
ATOM     20  C   UNL     1      46.085  33.211  47.811  0.00  0.00    +0.000 C 
ATOM     21  H   UNL     1      47.153  33.355  48.018  0.00  0.00    +0.000 HD
ATOM     22  C   UNL     1      45.506  32.152  48.711  0.00  0.00    +0.000 C 
ATOM     23  H   UNL     1      45.851  32.353  49.733  0.00  0.00    +0.000 HD
ATOM     24  N   UNL     1      45.905  30.817  48.318  0.00  0.00    +0.000 NA
ATOM     25  H   UNL     1      46.351  30.328  49.123  0.00  0.00    +0.000 HD
ATOM     26  C   UNL     1      46.761  30.841  47.145  0.00  0.00    +0.000 C 
ATOM     27  C   UNL     1      45.932  31.535  46.058  0.00  0.00    +0.000 C 
ENDBRANCH   1  19
TORSDOF 2
