
 OpenBabel03242511053D

 25 27  0  0  1  0  0  0  0  0999 V2000
   38.1070   28.9070   43.1890 C   0  0  1  0  0  0  0  0  0  0  0  0
   36.9470   28.1280   43.6800 C   0  0  0  0  0  0  0  0  0  0  0  0
   37.9850   27.4930   42.7540 C   0  0  2  0  0  0  0  0  0  0  0  0
   38.8490   29.1760   43.9580 H   0  0  0  0  0  0  0  0  0  0  0  0
   36.9060   27.8760   44.7330 H   0  0  0  0  0  0  0  0  0  0  0  0
   35.9470   28.3980   43.2640 H   0  0  0  0  0  0  0  0  0  0  0  0
   37.5840   27.3960   41.7010 H   0  0  0  0  0  0  0  0  0  0  0  0
   36.5710   31.1530   40.6700 C   0  0  0  0  0  0  0  0  0  0  0  0
   37.6600   32.0020   40.3320 C   0  0  0  0  0  0  0  0  0  0  0  0
   38.8970   31.7840   40.9900 C   0  0  0  0  0  0  0  0  0  0  0  0
   38.9920   30.7940   41.8950 N   0  0  0  0  0  0  0  0  0  0  0  0
   37.9200   29.9970   42.1920 C   0  0  0  0  0  0  0  0  0  0  0  0
   36.7280   30.1830   41.5810 N   0  0  0  0  0  0  0  0  0  0  0  0
   35.6390   31.3360   40.1590 H   0  0  0  0  0  0  0  0  0  0  0  0
   37.5960   32.7860   39.6200 H   0  0  0  0  0  0  0  0  0  0  0  0
   39.7540   32.4060   40.7640 H   0  0  0  0  0  0  0  0  0  0  0  0
   38.8890   26.5010   43.2200 N   0  0  2  0  0  0  0  0  0  0  0  0
   40.1870   27.1010   43.3850 C   0  0  0  0  0  3  0  0  0  0  0  0
   40.1160   27.8370   44.2120 H   0  0  0  0  0  0  0  0  0  0  0  0
   41.2720   26.1080   43.6800 C   0  0  0  0  0  3  0  0  0  0  0  0
   42.2430   26.6280   43.5400 H   0  0  0  0  0  0  0  0  0  0  0  0
   41.2190   25.0150   42.7300 N   0  0  0  0  0  0  0  0  0  0  0  0
   41.2010   25.4370   41.7770 H   0  0  0  0  0  0  0  0  0  0  0  0
   39.9470   24.3230   42.9880 C   0  0  0  0  0  2  0  0  0  0  0  0
   38.8800   25.2810   42.5020 C   0  0  0  0  0  2  0  0  0  0  0  0
  1  2  1  0  0  0  0
  1  4  1  1  0  0  0
  2  5  1  0  0  0  0
  3  7  1  6  0  0  0
  3  1  1  0  0  0  0
  3 17  1  0  0  0  0
  3  2  1  0  0  0  0
  6  2  1  0  0  0  0
  8 13  1  0  0  0  0
  9  8  2  0  0  0  0
  9 10  1  0  0  0  0
 10 11  2  0  0  0  0
 11 12  1  0  0  0  0
 12  1  1  0  0  0  0
 13 12  2  0  0  0  0
 14  8  1  0  0  0  0
 15  9  1  0  0  0  0
 16 10  1  0  0  0  0
 17 25  1  6  0  0  0
 17 18  1  0  0  0  0
 18 20  1  0  0  0  0
 18 19  1  0  0  0  0
 21 20  1  0  0  0  0
 22 24  1  0  0  0  0
 22 20  1  0  0  0  0
 23 22  1  0  0  0  0
 25 24  1  0  0  0  0
M  END
>  <minimizedAffinity>
-4.46965885

$$$$

 OpenBabel03242511053D

 25 27  0  0  1  0  0  0  0  0999 V2000
   39.5240   30.3640   42.6790 C   0  0  1  0  0  0  0  0  0  0  0  0
   40.9910   30.1960   42.5580 C   0  0  0  0  0  0  0  0  0  0  0  0
   40.1690   30.7790   41.4090 C   0  0  2  0  0  0  0  0  0  0  0  0
   39.1990   31.1320   43.4000 H   0  0  0  0  0  0  0  0  0  0  0  0
   41.6320   30.8250   43.1640 H   0  0  0  0  0  0  0  0  0  0  0  0
   41.3720   29.1510   42.4710 H   0  0  0  0  0  0  0  0  0  0  0  0
   40.0290   30.0200   40.5820 H   0  0  0  0  0  0  0  0  0  0  0  0
   36.5750   28.1730   42.1780 C   0  0  0  0  0  0  0  0  0  0  0  0
   37.0060   26.9590   42.7790 C   0  0  0  0  0  0  0  0  0  0  0  0
   38.3080   26.9250   43.3370 C   0  0  0  0  0  0  0  0  0  0  0  0
   39.0760   28.0270   43.2770 N   0  0  0  0  0  0  0  0  0  0  0  0
   38.6250   29.1770   42.6890 C   0  0  0  0  0  0  0  0  0  0  0  0
   37.3870   29.2380   42.1480 N   0  0  0  0  0  0  0  0  0  0  0  0
   35.5800   28.1790   41.7580 H   0  0  0  0  0  0  0  0  0  0  0  0
   36.4080   26.0850   42.8320 H   0  0  0  0  0  0  0  0  0  0  0  0
   38.6780   26.0210   43.8060 H   0  0  0  0  0  0  0  0  0  0  0  0
   40.2630   32.1500   41.0480 N   0  0  2  0  0  0  0  0  0  0  0  0
   38.9410   32.7200   41.0500 C   0  0  0  0  0  3  0  0  0  0  0  0
   38.5760   32.7220   42.0970 H   0  0  0  0  0  0  0  0  0  0  0  0
   38.8880   34.1110   40.4890 C   0  0  0  0  0  3  0  0  0  0  0  0
   37.8190   34.3530   40.3060 H   0  0  0  0  0  0  0  0  0  0  0  0
   39.5740   34.1610   39.2150 N   0  0  0  0  0  0  0  0  0  0  0  0
   39.1870   33.3920   38.6270 H   0  0  0  0  0  0  0  0  0  0  0  0
   40.9890   33.8910   39.5110 C   0  0  0  0  0  2  0  0  0  0  0  0
   41.0320   32.4260   39.8930 C   0  0  0  0  0  2  0  0  0  0  0  0
  1 12  1  0  0  0  0
  1  4  1  1  0  0  0
  2  1  1  0  0  0  0
  2  5  1  0  0  0  0
  3  7  1  6  0  0  0
  3  2  1  0  0  0  0
  3  1  1  0  0  0  0
  6  2  1  0  0  0  0
  8  9  1  0  0  0  0
  9 15  1  0  0  0  0
  9 10  2  0  0  0  0
 10 16  1  0  0  0  0
 11 10  1  0  0  0  0
 12 11  2  0  0  0  0
 13  8  2  0  0  0  0
 13 12  1  0  0  0  0
 14  8  1  0  0  0  0
 17 25  1  6  0  0  0
 17 18  1  0  0  0  0
 17  3  1  0  0  0  0
 18 19  1  0  0  0  0
 20 18  1  0  0  0  0
 21 20  1  0  0  0  0
 22 24  1  0  0  0  0
 22 20  1  0  0  0  0
 23 22  1  0  0  0  0
 24 25  1  0  0  0  0
M  END
>  <minimizedAffinity>
-4.32680368

$$$$

 OpenBabel03242511053D

 25 27  0  0  1  0  0  0  0  0999 V2000
   37.8940   28.2590   42.7030 C   0  0  1  0  0  0  0  0  0  0  0  0
   36.8540   27.8140   43.6590 C   0  0  0  0  0  0  0  0  0  0  0  0
   37.0650   27.0850   42.3320 C   0  0  2  0  0  0  0  0  0  0  0  0
   38.9330   28.1060   43.0370 H   0  0  0  0  0  0  0  0  0  0  0  0
   37.1730   27.3740   44.5970 H   0  0  0  0  0  0  0  0  0  0  0  0
   35.9620   28.4740   43.7750 H   0  0  0  0  0  0  0  0  0  0  0  0
   36.2500   27.3450   41.5910 H   0  0  0  0  0  0  0  0  0  0  0  0
   38.6350   31.5110   41.0830 C   0  0  0  0  0  0  0  0  0  0  0  0
   37.3570   31.8890   40.5880 C   0  0  0  0  0  0  0  0  0  0  0  0
   36.2710   31.0070   40.8190 C   0  0  0  0  0  0  0  0  0  0  0  0
   36.4890   29.8620   41.4890 N   0  0  0  0  0  0  0  0  0  0  0  0
   37.7350   29.5340   41.9500 C   0  0  0  0  0  0  0  0  0  0  0  0
   38.7890   30.3550   41.7430 N   0  0  0  0  0  0  0  0  0  0  0  0
   39.4480   32.1950   40.8960 H   0  0  0  0  0  0  0  0  0  0  0  0
   37.1740   32.7900   40.0580 H   0  0  0  0  0  0  0  0  0  0  0  0
   35.2800   31.2550   40.4600 H   0  0  0  0  0  0  0  0  0  0  0  0
   37.6230   25.7790   42.2810 N   0  0  2  0  0  0  0  0  0  0  0  0
   39.0450   25.8920   42.0820 C   0  0  0  0  0  3  0  0  0  0  0  0
   39.4770   26.3540   42.9930 H   0  0  0  0  0  0  0  0  0  0  0  0
   39.7160   24.5780   41.8100 C   0  0  0  0  0  3  0  0  0  0  0  0
   40.7360   24.8010   41.4310 H   0  0  0  0  0  0  0  0  0  0  0  0
   39.0070   23.8610   40.7700 N   0  0  0  0  0  0  0  0  0  0  0  0
   38.8940   24.5170   39.9680 H   0  0  0  0  0  0  0  0  0  0  0  0
   37.6880   23.5390   41.3340 C   0  0  0  0  0  2  0  0  0  0  0  0
   36.9680   24.8690   41.4180 C   0  0  0  0  0  2  0  0  0  0  0  0
  1  4  1  1  0  0  0
  1  2  1  0  0  0  0
  2  6  1  0  0  0  0
  2  5  1  0  0  0  0
  3  7  1  6  0  0  0
  3  1  1  0  0  0  0
  3  2  1  0  0  0  0
  8 13  1  0  0  0  0
  9 10  1  0  0  0  0
  9  8  2  0  0  0  0
 10 11  2  0  0  0  0
 11 12  1  0  0  0  0
 12  1  1  0  0  0  0
 13 12  2  0  0  0  0
 14  8  1  0  0  0  0
 15  9  1  0  0  0  0
 16 10  1  0  0  0  0
 17 25  1  6  0  0  0
 17  3  1  0  0  0  0
 18 17  1  0  0  0  0
 18 19  1  0  0  0  0
 20 18  1  0  0  0  0
 21 20  1  0  0  0  0
 22 24  1  0  0  0  0
 22 20  1  0  0  0  0
 23 22  1  0  0  0  0
 24 25  1  0  0  0  0
M  END
>  <minimizedAffinity>
-4.31993723

$$$$

 OpenBabel03242511053D

 25 27  0  0  1  0  0  0  0  0999 V2000
   37.3290   29.1240   42.1360 C   0  0  1  0  0  0  0  0  0  0  0  0
   38.4560   29.5090   43.0170 C   0  0  0  0  0  0  0  0  0  0  0  0
   38.4170   29.9460   41.5530 C   0  0  2  0  0  0  0  0  0  0  0  0
   36.3620   29.5950   42.3790 H   0  0  0  0  0  0  0  0  0  0  0  0
   38.2640   30.2140   43.8170 H   0  0  0  0  0  0  0  0  0  0  0  0
   39.1590   28.6970   43.3180 H   0  0  0  0  0  0  0  0  0  0  0  0
   39.1360   29.3350   40.9270 H   0  0  0  0  0  0  0  0  0  0  0  0
   37.1910   25.4180   42.1540 C   0  0  0  0  0  0  0  0  0  0  0  0
   36.8800   25.1300   40.7970 C   0  0  0  0  0  0  0  0  0  0  0  0
   36.7170   26.2240   39.9100 C   0  0  0  0  0  0  0  0  0  0  0  0
   36.8620   27.4760   40.3800 N   0  0  0  0  0  0  0  0  0  0  0  0
   37.1620   27.7110   41.6940 C   0  0  0  0  0  0  0  0  0  0  0  0
   37.3220   26.6880   42.5630 N   0  0  0  0  0  0  0  0  0  0  0  0
   37.3110   24.5720   42.8130 H   0  0  0  0  0  0  0  0  0  0  0  0
   36.7630   24.1470   40.4160 H   0  0  0  0  0  0  0  0  0  0  0  0
   36.4800   26.0520   38.8680 H   0  0  0  0  0  0  0  0  0  0  0  0
   38.1980   31.3010   41.1870 N   0  0  2  0  0  0  0  0  0  0  0  0
   37.3160   31.3350   40.0490 C   0  0  0  0  0  3  0  0  0  0  0  0
   36.3260   30.9610   40.3790 H   0  0  0  0  0  0  0  0  0  0  0  0
   37.1710   32.7010   39.4450 C   0  0  0  0  0  3  0  0  0  0  0  0
   36.6880   32.5730   38.4530 H   0  0  0  0  0  0  0  0  0  0  0  0
   38.4760   33.2910   39.2260 N   0  0  0  0  0  0  0  0  0  0  0  0
   39.0440   32.5930   38.7010 H   0  0  0  0  0  0  0  0  0  0  0  0
   39.0530   33.4920   40.5640 C   0  0  0  0  0  2  0  0  0  0  0  0
   39.3620   32.0970   41.0660 C   0  0  0  0  0  2  0  0  0  0  0  0
  1  4  1  1  0  0  0
  1  2  1  0  0  0  0
  2  6  1  0  0  0  0
  2  5  1  0  0  0  0
  3  7  1  6  0  0  0
  3  1  1  0  0  0  0
  3  2  1  0  0  0  0
  8 13  1  0  0  0  0
  8 14  1  0  0  0  0
  9  8  2  0  0  0  0
 10 11  2  0  0  0  0
 10  9  1  0  0  0  0
 11 12  1  0  0  0  0
 12  1  1  0  0  0  0
 12 13  2  0  0  0  0
 15  9  1  0  0  0  0
 16 10  1  0  0  0  0
 17 25  1  6  0  0  0
 17  3  1  0  0  0  0
 18 19  1  0  0  0  0
 18 17  1  0  0  0  0
 20 18  1  0  0  0  0
 21 20  1  0  0  0  0
 22 20  1  0  0  0  0
 22 24  1  0  0  0  0
 23 22  1  0  0  0  0
 24 25  1  0  0  0  0
M  END
>  <minimizedAffinity>
-4.27832699

$$$$

 OpenBabel03242511053D

 25 27  0  0  1  0  0  0  0  0999 V2000
   36.1830   30.1880   40.2700 C   0  0  1  0  0  0  0  0  0  0  0  0
   36.8250   31.4520   39.8420 C   0  0  0  0  0  0  0  0  0  0  0  0
   36.9170   30.1930   38.9800 C   0  0  2  0  0  0  0  0  0  0  0  0
   35.0810   30.1980   40.2680 H   0  0  0  0  0  0  0  0  0  0  0  0
   36.1880   32.2810   39.5580 H   0  0  0  0  0  0  0  0  0  0  0  0
   37.7240   31.7780   40.4170 H   0  0  0  0  0  0  0  0  0  0  0  0
   37.9410   29.7190   39.0610 H   0  0  0  0  0  0  0  0  0  0  0  0
   36.6620   27.5480   42.8290 C   0  0  0  0  0  0  0  0  0  0  0  0
   37.7620   28.0560   43.5720 C   0  0  0  0  0  0  0  0  0  0  0  0
   38.3170   29.2960   43.1660 C   0  0  0  0  0  0  0  0  0  0  0  0
   37.7890   29.9350   42.1070 N   0  0  0  0  0  0  0  0  0  0  0  0
   36.7290   29.4120   41.4180 C   0  0  0  0  0  0  0  0  0  0  0  0
   36.1800   28.2310   41.7820 N   0  0  0  0  0  0  0  0  0  0  0  0
   36.2540   26.6030   43.1540 H   0  0  0  0  0  0  0  0  0  0  0  0
   38.1870   27.5610   44.4080 H   0  0  0  0  0  0  0  0  0  0  0  0
   39.1560   29.7210   43.7020 H   0  0  0  0  0  0  0  0  0  0  0  0
   36.2270   30.0880   37.7430 N   0  0  2  0  0  0  0  0  0  0  0  0
   35.1510   29.1420   37.8930 C   0  0  0  0  0  3  0  0  0  0  0  0
   34.4140   29.5790   38.5970 H   0  0  0  0  0  0  0  0  0  0  0  0
   34.4750   28.7940   36.5990 C   0  0  0  0  0  3  0  0  0  0  0  0
   33.8500   27.8950   36.7850 H   0  0  0  0  0  0  0  0  0  0  0  0
   35.4630   28.4440   35.5990 N   0  0  0  0  0  0  0  0  0  0  0  0
   36.0870   27.7250   36.0220 H   0  0  0  0  0  0  0  0  0  0  0  0
   36.2280   29.6740   35.3450 C   0  0  0  0  0  2  0  0  0  0  0  0
   37.0430   29.8900   36.6030 C   0  0  0  0  0  2  0  0  0  0  0  0
  1  4  1  6  0  0  0
  1 12  1  0  0  0  0
  2  1  1  0  0  0  0
  2  6  1  0  0  0  0
  3  7  1  1  0  0  0
  3  2  1  0  0  0  0
  3  1  1  0  0  0  0
  5  2  1  0  0  0  0
  8 14  1  0  0  0  0
  8  9  1  0  0  0  0
  9 15  1  0  0  0  0
 10  9  2  0  0  0  0
 10 16  1  0  0  0  0
 11 10  1  0  0  0  0
 12 13  1  0  0  0  0
 12 11  2  0  0  0  0
 13  8  2  0  0  0  0
 17 25  1  6  0  0  0
 17 18  1  0  0  0  0
 17  3  1  0  0  0  0
 18 19  1  0  0  0  0
 20 21  1  0  0  0  0
 20 18  1  0  0  0  0
 22 23  1  0  0  0  0
 22 20  1  0  0  0  0
 24 22  1  0  0  0  0
 24 25  1  0  0  0  0
M  END
>  <minimizedAffinity>
-4.09414768

$$$$

 OpenBabel03242511053D

 25 27  0  0  1  0  0  0  0  0999 V2000
   36.0850   28.0430   40.1650 C   0  0  1  0  0  0  0  0  0  0  0  0
   35.2310   29.2380   39.9840 C   0  0  0  0  0  0  0  0  0  0  0  0
   36.4840   29.0320   39.1340 C   0  0  2  0  0  0  0  0  0  0  0  0
   35.6280   27.0890   39.8540 H   0  0  0  0  0  0  0  0  0  0  0  0
   34.2400   29.1030   39.5640 H   0  0  0  0  0  0  0  0  0  0  0  0
   35.2520   30.0000   40.7990 H   0  0  0  0  0  0  0  0  0  0  0  0
   37.3250   29.7060   39.4800 H   0  0  0  0  0  0  0  0  0  0  0  0
   37.8550   28.7720   43.3400 C   0  0  0  0  0  0  0  0  0  0  0  0
   38.5040   27.5360   43.6050 C   0  0  0  0  0  0  0  0  0  0  0  0
   38.3080   26.4770   42.6830 C   0  0  0  0  0  0  0  0  0  0  0  0
   37.5270   26.6800   41.6080 N   0  0  0  0  0  0  0  0  0  0  0  0
   36.9190   27.8860   41.3890 C   0  0  0  0  0  0  0  0  0  0  0  0
   37.0870   28.9130   42.2520 N   0  0  0  0  0  0  0  0  0  0  0  0
   38.0160   29.5660   44.0540 H   0  0  0  0  0  0  0  0  0  0  0  0
   39.1230   27.3650   44.4490 H   0  0  0  0  0  0  0  0  0  0  0  0
   38.7830   25.5170   42.8440 H   0  0  0  0  0  0  0  0  0  0  0  0
   36.4010   28.7240   37.7490 N   0  0  2  0  0  0  0  0  0  0  0  0
   37.2210   27.5710   37.4830 C   0  0  0  0  0  3  0  0  0  0  0  0
   36.7610   26.7040   38.0000 H   0  0  0  0  0  0  0  0  0  0  0  0
   37.3760   27.2700   36.0220 C   0  0  0  0  0  3  0  0  0  0  0  0
   38.2060   26.5400   35.9210 H   0  0  0  0  0  0  0  0  0  0  0  0
   37.7550   28.4700   35.3030 N   0  0  0  0  0  0  0  0  0  0  0  0
   38.5770   28.8770   35.7980 H   0  0  0  0  0  0  0  0  0  0  0  0
   36.6080   29.3830   35.4160 C   0  0  0  0  0  2  0  0  0  0  0  0
   36.5980   29.8140   36.8680 C   0  0  0  0  0  2  0  0  0  0  0  0
  1  4  1  6  0  0  0
  1 12  1  0  0  0  0
  2  1  1  0  0  0  0
  2  6  1  0  0  0  0
  3  7  1  1  0  0  0
  3  2  1  0  0  0  0
  3  1  1  0  0  0  0
  5  2  1  0  0  0  0
  8  9  1  0  0  0  0
  8 14  1  0  0  0  0
  9 15  1  0  0  0  0
 10 16  1  0  0  0  0
 10  9  2  0  0  0  0
 11 10  1  0  0  0  0
 12 11  2  0  0  0  0
 12 13  1  0  0  0  0
 13  8  2  0  0  0  0
 17 25  1  6  0  0  0
 17  3  1  0  0  0  0
 18 17  1  0  0  0  0
 18 19  1  0  0  0  0
 20 18  1  0  0  0  0
 21 20  1  0  0  0  0
 22 24  1  0  0  0  0
 22 23  1  0  0  0  0
 22 20  1  0  0  0  0
 24 25  1  0  0  0  0
M  END
>  <minimizedAffinity>
-4.09134436

$$$$

 OpenBabel03242511053D

 25 27  0  0  1  0  0  0  0  0999 V2000
   38.8670   30.6640   41.7870 C   0  0  1  0  0  0  0  0  0  0  0  0
   40.1870   31.1820   42.2150 C   0  0  0  0  0  0  0  0  0  0  0  0
   39.9510   30.7220   40.7770 C   0  0  2  0  0  0  0  0  0  0  0  0
   38.0570   31.4110   41.7590 H   0  0  0  0  0  0  0  0  0  0  0  0
   40.2700   32.2340   42.4610 H   0  0  0  0  0  0  0  0  0  0  0  0
   40.7850   30.5320   42.8970 H   0  0  0  0  0  0  0  0  0  0  0  0
   40.4270   29.7120   40.5900 H   0  0  0  0  0  0  0  0  0  0  0  0
   38.7770   27.2850   43.3120 C   0  0  0  0  0  0  0  0  0  0  0  0
   37.4300   26.8950   43.0790 C   0  0  0  0  0  0  0  0  0  0  0  0
   36.5830   27.8110   42.4070 C   0  0  0  0  0  0  0  0  0  0  0  0
   37.0790   29.0000   42.0210 N   0  0  0  0  0  0  0  0  0  0  0  0
   38.3830   29.3390   42.2640 C   0  0  0  0  0  0  0  0  0  0  0  0
   39.2130   28.4850   42.9040 N   0  0  0  0  0  0  0  0  0  0  0  0
   39.4050   26.5740   43.8260 H   0  0  0  0  0  0  0  0  0  0  0  0
   37.0280   25.9600   43.3790 H   0  0  0  0  0  0  0  0  0  0  0  0
   35.5500   27.5560   42.2080 H   0  0  0  0  0  0  0  0  0  0  0  0
   39.9020   31.6470   39.6990 N   0  0  2  0  0  0  0  0  0  0  0  0
   38.7640   31.3340   38.8740 C   0  0  0  0  0  3  0  0  0  0  0  0
   37.8500   31.5370   39.4700 H   0  0  0  0  0  0  0  0  0  0  0  0
   38.7200   32.1150   37.5940 C   0  0  0  0  0  3  0  0  0  0  0  0
   37.9670   31.6300   36.9370 H   0  0  0  0  0  0  0  0  0  0  0  0
   40.0010   32.0430   36.9220 N   0  0  0  0  0  0  0  0  0  0  0  0
   40.2590   31.0350   36.8600 H   0  0  0  0  0  0  0  0  0  0  0  0
   40.9530   32.7430   37.7980 C   0  0  0  0  0  2  0  0  0  0  0  0
   41.1170   31.8330   38.9970 C   0  0  0  0  0  2  0  0  0  0  0  0
  1  4  1  6  0  0  0
  1  2  1  0  0  0  0
  1 12  1  0  0  0  0
  2  5  1  0  0  0  0
  2  6  1  0  0  0  0
  3  7  1  6  0  0  0
  3  1  1  0  0  0  0
  3  2  1  0  0  0  0
  8 14  1  0  0  0  0
  9  8  1  0  0  0  0
  9 15  1  0  0  0  0
 10  9  2  0  0  0  0
 11 12  2  0  0  0  0
 11 10  1  0  0  0  0
 12 13  1  0  0  0  0
 13  8  2  0  0  0  0
 16 10  1  0  0  0  0
 17 25  1  6  0  0  0
 17  3  1  0  0  0  0
 18 19  1  0  0  0  0
 18 17  1  0  0  0  0
 20 18  1  0  0  0  0
 21 20  1  0  0  0  0
 22 20  1  0  0  0  0
 22 24  1  0  0  0  0
 23 22  1  0  0  0  0
 24 25  1  0  0  0  0
M  END
>  <minimizedAffinity>
-4.07996988

$$$$

 OpenBabel03242511053D

 25 27  0  0  1  0  0  0  0  0999 V2000
   38.3360   27.7670   42.6470 C   0  0  1  0  0  0  0  0  0  0  0  0
   39.6430   28.3900   42.9570 C   0  0  0  0  0  0  0  0  0  0  0  0
   38.8520   28.7990   41.7150 C   0  0  2  0  0  0  0  0  0  0  0  0
   37.5190   28.0220   43.3420 H   0  0  0  0  0  0  0  0  0  0  0  0
   39.7090   29.0430   43.8200 H   0  0  0  0  0  0  0  0  0  0  0  0
   40.5480   27.7490   42.8330 H   0  0  0  0  0  0  0  0  0  0  0  0
   39.3060   28.3530   40.7790 H   0  0  0  0  0  0  0  0  0  0  0  0
   37.0340   24.3900   41.8410 C   0  0  0  0  0  0  0  0  0  0  0  0
   38.2070   23.7230   41.3950 C   0  0  0  0  0  0  0  0  0  0  0  0
   39.4180   24.4580   41.3760 C   0  0  0  0  0  0  0  0  0  0  0  0
   39.4120   25.7420   41.7760 N   0  0  0  0  0  0  0  0  0  0  0  0
   38.2610   26.3480   42.1990 C   0  0  0  0  0  0  0  0  0  0  0  0
   37.0910   25.6720   42.2260 N   0  0  0  0  0  0  0  0  0  0  0  0
   36.1220   23.8130   41.8470 H   0  0  0  0  0  0  0  0  0  0  0  0
   38.2230   22.7110   41.0770 H   0  0  0  0  0  0  0  0  0  0  0  0
   40.3370   23.9900   41.0440 H   0  0  0  0  0  0  0  0  0  0  0  0
   38.2320   30.0740   41.6150 N   0  0  2  0  0  0  0  0  0  0  0  0
   36.8260   29.8850   41.3690 C   0  0  0  0  0  3  0  0  0  0  0  0
   36.3850   29.4200   42.2740 H   0  0  0  0  0  0  0  0  0  0  0  0
   36.1000   31.1560   41.0430 C   0  0  0  0  0  3  0  0  0  0  0  0
   35.1070   30.8730   40.6330 H   0  0  0  0  0  0  0  0  0  0  0  0
   36.8090   31.8860   40.0120 N   0  0  0  0  0  0  0  0  0  0  0  0
   36.9840   31.2200   39.2300 H   0  0  0  0  0  0  0  0  0  0  0  0
   38.0890   32.2870   40.6150 C   0  0  0  0  0  2  0  0  0  0  0  0
   38.8720   30.9980   40.7550 C   0  0  0  0  0  2  0  0  0  0  0  0
  1  2  1  0  0  0  0
  1  4  1  1  0  0  0
  2  5  1  0  0  0  0
  3  7  1  6  0  0  0
  3  1  1  0  0  0  0
  3  2  1  0  0  0  0
  6  2  1  0  0  0  0
  8 14  1  0  0  0  0
  8 13  1  0  0  0  0
  9  8  2  0  0  0  0
 10  9  1  0  0  0  0
 10 11  2  0  0  0  0
 11 12  1  0  0  0  0
 12 13  2  0  0  0  0
 12  1  1  0  0  0  0
 15  9  1  0  0  0  0
 16 10  1  0  0  0  0
 17 25  1  6  0  0  0
 17  3  1  0  0  0  0
 18 17  1  0  0  0  0
 18 19  1  0  0  0  0
 20 18  1  0  0  0  0
 21 20  1  0  0  0  0
 22 24  1  0  0  0  0
 22 20  1  0  0  0  0
 23 22  1  0  0  0  0
 24 25  1  0  0  0  0
M  END
>  <minimizedAffinity>
-4.06699276

$$$$

 OpenBabel03242511053D

 25 27  0  0  1  0  0  0  0  0999 V2000
   37.9430   29.1960   39.8360 C   0  0  1  0  0  0  0  0  0  0  0  0
   36.9580   29.6360   38.8220 C   0  0  0  0  0  0  0  0  0  0  0  0
   37.2780   30.5060   40.0370 C   0  0  2  0  0  0  0  0  0  0  0  0
   38.9890   29.1650   39.4900 H   0  0  0  0  0  0  0  0  0  0  0  0
   37.3190   29.8970   37.8340 H   0  0  0  0  0  0  0  0  0  0  0  0
   35.9870   29.0870   38.7930 H   0  0  0  0  0  0  0  0  0  0  0  0
   36.4450   30.4580   40.8020 H   0  0  0  0  0  0  0  0  0  0  0  0
   37.5750   25.7770   41.2230 C   0  0  0  0  0  0  0  0  0  0  0  0
   36.9880   26.0370   42.4910 C   0  0  0  0  0  0  0  0  0  0  0  0
   36.7410   27.3880   42.8400 C   0  0  0  0  0  0  0  0  0  0  0  0
   37.0660   28.3600   41.9690 N   0  0  0  0  0  0  0  0  0  0  0  0
   37.6300   28.0680   40.7570 C   0  0  0  0  0  0  0  0  0  0  0  0
   37.8780   26.7880   40.3980 N   0  0  0  0  0  0  0  0  0  0  0  0
   37.7550   24.7410   40.9770 H   0  0  0  0  0  0  0  0  0  0  0  0
   36.7270   25.2780   43.1850 H   0  0  0  0  0  0  0  0  0  0  0  0
   36.2950   27.6330   43.7960 H   0  0  0  0  0  0  0  0  0  0  0  0
   37.9990   31.7240   39.9100 N   0  0  2  0  0  0  0  0  0  0  0  0
   39.1180   31.6930   40.8170 C   0  0  0  0  0  3  0  0  0  0  0  0
   39.8160   30.9060   40.4650 H   0  0  0  0  0  0  0  0  0  0  0  0
   39.8390   33.0050   40.9210 C   0  0  0  0  0  3  0  0  0  0  0  0
   40.5050   32.9460   41.8080 H   0  0  0  0  0  0  0  0  0  0  0  0
   38.8930   34.0780   41.1510 N   0  0  0  0  0  0  0  0  0  0  0  0
   38.2970   33.7930   41.9570 H   0  0  0  0  0  0  0  0  0  0  0  0
   38.0730   34.1560   39.9330 C   0  0  0  0  0  2  0  0  0  0  0  0
   37.2200   32.9040   39.9600 C   0  0  0  0  0  2  0  0  0  0  0  0
  1  4  1  6  0  0  0
  1  3  1  0  0  0  0
  1 12  1  0  0  0  0
  2  1  1  0  0  0  0
  2  3  1  0  0  0  0
  3  7  1  1  0  0  0
  5  2  1  0  0  0  0
  6  2  1  0  0  0  0
  8  9  1  0  0  0  0
  9 10  2  0  0  0  0
  9 15  1  0  0  0  0
 10 16  1  0  0  0  0
 11 10  1  0  0  0  0
 12 11  2  0  0  0  0
 13 12  1  0  0  0  0
 13  8  2  0  0  0  0
 14  8  1  0  0  0  0
 17 25  1  1  0  0  0
 17  3  1  0  0  0  0
 17 18  1  0  0  0  0
 18 20  1  0  0  0  0
 19 18  1  0  0  0  0
 20 22  1  0  0  0  0
 20 21  1  0  0  0  0
 22 23  1  0  0  0  0
 24 25  1  0  0  0  0
 24 22  1  0  0  0  0
M  END
>  <minimizedAffinity>
-4.04638052

$$$$
