
     RDKit          3D

 38 40  0  0  0  0  0  0  0  0999 V2000
   44.5440   35.0766   44.2324 C   0  0  0  0  0  0  0  0  0  0  0  0
   44.7697   34.1040   43.2628 C   0  0  0  0  0  0  0  0  0  0  0  0
   45.4277   32.9588   43.6690 C   0  0  0  0  0  0  0  0  0  0  0  0
   45.8275   32.8075   44.9565 N   0  0  0  0  0  0  0  0  0  0  0  0
   45.5874   33.7837   45.8752 C   0  0  0  0  0  0  0  0  0  0  0  0
   44.9518   34.9036   45.5094 N   0  0  0  0  0  0  0  0  0  0  0  0
   44.3144   34.3688   41.9597 N   0  0  0  0  0  0  0  0  0  0  0  0
   44.3734   33.3485   40.9752 C   0  0  1  0  0  0  0  0  0  0  0  0
   43.7414   33.6940   39.6673 C   0  0  0  0  0  0  0  0  0  0  0  0
   42.5280   34.3961   39.7575 N   0  0  0  0  0  0  0  0  0  0  0  0
   42.4454   35.3932   40.7593 C   0  0  0  0  0  0  0  0  0  0  0  0
   43.7684   35.6053   41.4737 C   0  0  0  0  0  0  0  0  0  0  0  0
   44.0513   36.0309   44.1196 H   0  0  0  0  0  0  0  0  0  0  0  0
   45.6158   32.1869   42.9402 H   0  0  0  0  0  0  0  0  0  0  0  0
   45.9399   33.5803   46.8757 H   0  0  0  0  0  0  0  0  0  0  0  0
   43.7777   32.4823   41.3743 H   0  0  0  0  0  0  0  0  0  0  0  0
   44.4625   34.3646   39.1148 H   0  0  0  0  0  0  0  0  0  0  0  0
   43.6361   32.7930   39.0459 H   0  0  0  0  0  0  0  0  0  0  0  0
   41.7376   33.7062   39.8998 H   0  0  0  0  0  0  0  0  0  0  0  0
   41.6346   35.2510   41.5131 H   0  0  0  0  0  0  0  0  0  0  0  0
   42.2113   36.3525   40.2424 H   0  0  0  0  0  0  0  0  0  0  0  0
   44.4538   36.0492   40.6902 H   0  0  0  0  0  0  0  0  0  0  0  0
   43.6467   36.4042   42.2031 H   0  0  0  0  0  0  0  0  0  0  0  0
   45.6575   32.8231   40.6555 N   0  0  0  0  0  0  0  0  0  0  0  0
   46.1942   31.8393   41.5434 C   0  0  1  0  0  0  0  0  0  0  0  0
   45.5106   31.3958   42.2538 H   0  0  0  0  0  0  0  0  0  0  0  0
   47.4783   32.3630   42.1530 C   0  0  2  0  0  0  0  0  0  0  0  0
   47.8364   31.6257   42.9181 H   0  0  0  0  0  0  0  0  0  0  0  0
   48.4884   32.5131   41.1223 N   0  0  0  0  0  0  0  0  0  0  0  0
   49.1780   33.2331   41.4541 H   0  0  0  0  0  0  0  0  0  0  0  0
   47.9101   33.0493   39.9125 C   0  0  0  0  0  0  0  0  0  0  0  0
   46.6180   33.8103   40.2411 C   0  0  0  0  0  0  0  0  0  0  0  0
   46.5245   30.9871   40.8781 H   0  0  0  0  0  0  0  0  0  0  0  0
   47.3717   33.3318   42.6560 H   0  0  0  0  0  0  0  0  0  0  0  0
   47.6825   32.2684   39.1863 H   0  0  0  0  0  0  0  0  0  0  0  0
   48.5733   33.7918   39.4305 H   0  0  0  0  0  0  0  0  0  0  0  0
   46.2773   34.2241   39.2661 H   0  0  0  0  0  0  0  0  0  0  0  0
   46.8124   34.6036   40.9625 H   0  0  0  0  0  0  0  0  0  0  0  0
  1  6  2  0
  2  3  2  0
  2  1  1  0
  3  4  1  0
  4  5  2  0
  6  5  1  0
  7  2  1  0
  8  7  1  0
  9 10  1  0
  9  8  1  0
 10 11  1  0
 11 12  1  0
 12  7  1  0
  1 13  1  0
  3 14  1  0
  5 15  1  0
  8 16  1  1
  9 17  1  0
  9 18  1  0
 10 19  1  0
 11 20  1  0
 11 21  1  0
 12 22  1  0
 12 23  1  0
 24 25  1  0
 25 26  1  1
 25 27  1  0
 27 28  1  1
 27 29  1  0
 29 30  1  0
 29 31  1  0
 31 32  1  0
 32 24  1  0
 25 33  1  0
 27 34  1  0
 31 35  1  0
 31 36  1  0
 32 37  1  0
 32 38  1  0
  8 24  1  0
M  ISO  8  13  14  14  14  15  14  16  13  17  13  18  13  19   5  20  13
M  ISO  6  21  13  22  13  23  13  26   8  28   8  30   5
M  END
>  <DihAtoms>  (1) 
6,7,23,24

>  <DihDeg>  (1) 
-69.3167549333435

$$$$
