
 OpenBabel03252508313D

 32 34  0  0  1  0  0  0  0  0999 V2000
   45.4180   34.0860   41.7640 N   0  0  0  0  0  0  0  0  0  0  0  0
   46.4710   33.5950   40.9490 C   0  0  1  0  0  0  0  0  0  0  0  0
   46.2390   33.7080   39.4790 C   0  0  0  0  0  0  0  0  0  0  0  0
   44.9350   33.4010   39.0560 N   0  0  0  0  0  0  0  0  0  0  0  0
   43.8770   33.8560   39.8780 C   0  0  0  0  0  0  0  0  0  0  0  0
   44.3680   34.7260   41.0220 C   0  0  0  0  0  0  0  0  0  0  0  0
   46.5490   32.4920   41.1550 H   0  0  0  0  0  0  0  0  0  0  0  0
   46.4260   34.7840   39.1930 H   0  0  0  0  0  0  0  0  0  0  0  0
   46.9870   33.1180   38.9300 H   0  0  0  0  0  0  0  0  0  0  0  0
   44.8470   32.3530   38.9380 H   0  0  0  0  0  0  0  0  0  0  0  0
   43.2040   33.0620   40.2790 H   0  0  0  0  0  0  0  0  0  0  0  0
   43.2320   34.5070   39.2440 H   0  0  0  0  0  0  0  0  0  0  0  0
   44.7630   35.6640   40.5250 H   0  0  0  0  0  0  0  0  0  0  0  0
   43.5080   35.0700   41.5930 H   0  0  0  0  0  0  0  0  0  0  0  0
   45.0580   34.9770   43.9530 C   0  0  0  0  0  0  0  0  0  0  0  0
   45.4810   33.9160   43.1580 C   0  0  0  0  0  0  0  0  0  0  0  0
   45.9310   32.7860   43.8130 C   0  0  0  0  0  0  0  0  0  0  0  0
   45.9520   32.7300   45.1680 N   0  0  0  0  0  0  0  0  0  0  0  0
   45.5280   33.7910   45.9110 C   0  0  0  0  0  0  0  0  0  0  0  0
   45.0880   34.8990   45.3020 N   0  0  0  0  0  0  0  0  0  0  0  0
   44.6740   35.9360   43.6400 H   0  0  0  0  0  0  0  0  0  0  0  0
   46.2640   31.9470   43.2230 H   0  0  0  0  0  0  0  0  0  0  0  0
   45.5790   33.6600   46.9820 H   0  0  0  0  0  0  0  0  0  0  0  0
   47.7730   34.1240   41.1760 N   0  0  2  0  0  0  0  0  0  0  0  0
   48.7700   33.2140   41.6480 C   0  0  0  0  0  0  0  0  0  0  0  0
   48.5400   32.1600   41.5830 H   0  0  0  0  0  0  0  0  0  0  0  0
   49.2550   33.6660   43.0100 C   0  0  0  0  0  0  0  0  0  0  0  0
   49.9620   32.8930   43.4110 H   0  0  0  0  0  0  0  0  0  0  0  0
   49.9480   34.9350   42.8910 N   0  0  0  0  0  0  0  0  0  0  0  0
   49.8990   35.4140   43.8250 H   0  0  0  0  0  0  0  0  0  0  0  0
   49.2650   35.8070   41.9650 C   0  0  0  0  0  0  0  0  0  0  0  0
   47.7900   35.3960   41.8470 C   0  0  0  0  0  0  0  0  0  0  0  0
  1 16  1  0  0  0  0
  2  7  1  1  0  0  0
  2 24  1  0  0  0  0
  2  1  1  0  0  0  0
  3  2  1  0  0  0  0
  4  3  1  0  0  0  0
  4  5  1  0  0  0  0
  5 11  1  0  0  0  0
  5  6  1  0  0  0  0
  6 14  1  0  0  0  0
  6  1  1  0  0  0  0
  8  3  1  0  0  0  0
  9  3  1  0  0  0  0
 10  4  1  0  0  0  0
 12  5  1  0  0  0  0
 13  6  1  0  0  0  0
 15 20  1  0  0  0  0
 16 17  1  0  0  0  0
 16 15  2  0  0  0  0
 17 18  2  0  0  0  0
 18 19  1  0  0  0  0
 19 23  1  0  0  0  0
 20 19  2  0  0  0  0
 21 15  1  0  0  0  0
 22 17  1  0  0  0  0
 24 25  1  0  0  0  0
 24 32  1  1  0  0  0
 25 27  1  0  0  0  0
 26 25  1  0  0  0  0
 27 28  1  0  0  0  0
 29 27  1  0  0  0  0
 29 30  1  0  0  0  0
 31 29  1  0  0  0  0
 32 31  1  0  0  0  0
M  END
>  <minimizedAffinity>
-4.8107338

>  <minimizedRMSD>
2.38520408

$$$$
