
 OpenBabel03252504243D

 21 22  0  0  0  0  0  0  0  0999 V2000
   43.7720   35.5190   41.5750 C   0  0  0  0  0  0  0  0  0  0  0  0
   43.6110   36.6000   41.6730 H   0  0  0  0  0  0  0  0  0  0  0  0
   44.5190   35.4080   40.7410 H   0  0  0  0  0  0  0  0  0  0  0  0
   44.2810   35.8180   43.9220 C   0  0  0  0  0  0  0  0  0  0  0  0
   44.3350   34.9620   42.8060 C   0  0  0  0  0  0  0  0  0  0  0  0
   44.9030   33.7080   42.9900 C   0  0  0  0  0  0  0  0  0  0  0  0
   45.3670   33.3870   44.2160 N   0  0  0  0  0  0  0  0  0  0  0  0
   45.3020   34.2320   45.2710 C   0  0  0  0  0  0  0  0  0  0  0  0
   44.7580   35.4650   45.1500 N   0  0  0  0  0  0  0  0  0  0  0  0
   43.8670   36.8340   43.9450 H   0  0  0  0  0  0  0  0  0  0  0  0
   44.9270   33.0900   42.1290 H   0  0  0  0  0  0  0  0  0  0  0  0
   45.7150   33.8370   46.1950 H   0  0  0  0  0  0  0  0  0  0  0  0
   42.5640   34.9230   41.1120 N   0  0  0  0  0  0  0  0  0  0  0  0
   41.3920   35.7200   41.3060 C   0  0  0  0  0  0  0  0  0  0  0  0
   41.6650   36.7780   41.0280 H   0  0  0  0  0  0  0  0  0  0  0  0
   40.2680   35.2650   40.3960 C   0  0  0  0  0  0  0  0  0  0  0  0
   39.3810   35.8820   40.6440 H   0  0  0  0  0  0  0  0  0  0  0  0
   40.6330   35.3890   39.0220 N   0  0  0  0  0  0  0  0  0  0  0  0
   40.2020   34.6050   38.4750 H   0  0  0  0  0  0  0  0  0  0  0  0
   42.0680   35.2990   38.8240 C   0  0  0  0  0  0  0  0  0  0  0  0
   42.6090   34.2860   39.8380 C   0  0  0  0  0  0  0  0  0  0  0  0
  1  2  1  0  0  0  0
  1  5  1  0  0  0  0
  3  1  1  0  0  0  0
  4 10  1  0  0  0  0
  4  9  1  0  0  0  0
  5  6  1  0  0  0  0
  5  4  2  0  0  0  0
  6  7  2  0  0  0  0
  7  8  1  0  0  0  0
  8 12  1  0  0  0  0
  9  8  2  0  0  0  0
 11  6  1  0  0  0  0
 13 14  1  0  0  0  0
 13  1  1  0  0  0  0
 15 14  1  0  0  0  0
 16 17  1  0  0  0  0
 16 14  1  0  0  0  0
 18 16  1  0  0  0  0
 19 18  1  0  0  0  0
 20 18  1  0  0  0  0
 20 21  1  0  0  0  0
 21 13  1  0  0  0  0
M  END
>  <minimizedAffinity>
-3.96721196

>  <minimizedRMSD>
1.3706944

$$$$
