
 OpenBabel03252505133D

 44 47  0  0  1  0  0  0  0  0999 V2000
   41.8660   29.4260   42.7570 C   0  0  0  0  0  0  0  0  0  0  0  0
   41.3030   30.5170   42.0590 C   0  0  0  0  0  0  0  0  0  0  0  0
   39.8970   30.5080   41.8330 C   0  0  0  0  0  0  0  0  0  0  0  0
   39.1750   29.4620   42.2960 N   0  0  0  0  0  0  0  0  0  0  0  0
   39.7410   28.4420   42.9560 C   0  0  0  0  0  0  0  0  0  0  0  0
   41.0920   28.4160   43.1930 N   0  0  0  0  0  0  0  0  0  0  0  0
   42.9190   29.3830   42.9550 H   0  0  0  0  0  0  0  0  0  0  0  0
   41.9250   31.3270   41.7090 H   0  0  0  0  0  0  0  0  0  0  0  0
   38.8990   27.3170   43.4420 C   0  0  2  0  0  0  0  0  0  0  0  0
   39.2020   26.1680   42.5040 C   0  0  0  0  0  0  0  0  0  0  0  0
   38.1650   25.8560   41.5110 C   0  0  0  0  0  0  0  0  0  0  0  0
   36.8910   25.6050   42.3260 C   0  0  0  0  0  0  0  0  0  0  0  0
   36.4360   26.8250   42.9830 C   0  0  0  0  0  0  0  0  0  0  0  0
   37.5120   27.6720   43.5420 C   0  0  0  0  0  0  0  0  0  0  0  0
   39.3030   27.0780   44.4570 H   0  0  0  0  0  0  0  0  0  0  0  0
   39.3600   25.2660   43.1310 H   0  0  0  0  0  0  0  0  0  0  0  0
   40.1690   26.2950   41.9580 H   0  0  0  0  0  0  0  0  0  0  0  0
   38.4360   24.9390   40.9910 H   0  0  0  0  0  0  0  0  0  0  0  0
   37.9760   26.7260   40.8470 H   0  0  0  0  0  0  0  0  0  0  0  0
   36.1260   25.3600   41.5710 H   0  0  0  0  0  0  0  0  0  0  0  0
   37.0950   24.8010   43.0600 H   0  0  0  0  0  0  0  0  0  0  0  0
   35.5050   27.2760   43.1700 H   0  0  0  0  0  0  0  0  0  0  0  0
   37.1870   28.8910   44.2050 N   0  0  0  0  0  0  0  0  0  0  0  0
   37.4340   28.7990   45.2200 H   0  0  0  0  0  0  0  0  0  0  0  0
   36.7760   29.7000   43.7210 H   0  0  0  0  0  0  0  0  0  0  0  0
   39.2970   31.6190   41.1210 C   0  0  0  0  0  0  0  0  0  0  0  0
   37.9610   31.5420   40.8310 C   0  0  0  0  0  0  0  0  0  0  0  0
   37.4420   32.6590   40.1370 C   0  0  0  0  0  0  0  0  0  0  0  0
   38.3110   33.6820   39.8320 C   0  0  0  0  0  0  0  0  0  0  0  0
   39.6320   33.7550   40.1210 C   0  0  0  0  0  0  0  0  0  0  0  0
   40.1050   32.6600   40.7930 N   0  0  0  0  0  0  0  0  0  0  0  0
   37.3940   30.6900   41.1230 H   0  0  0  0  0  0  0  0  0  0  0  0
   36.3890   32.6010   39.9070 H   0  0  0  0  0  0  0  0  0  0  0  0
   37.7610   34.4490   39.3080 H   0  0  0  0  0  0  0  0  0  0  0  0
   40.4450   34.8030   39.7910 O   0  0  0  0  0  0  0  0  0  0  0  0
   40.3500   33.8050   37.3720 H   0  0  0  0  0  0  0  0  0  0  0  0
   41.1380   33.5470   38.0110 N   0  0  0  0  0  0  0  0  0  0  0  0
   41.4230   34.7250   38.8070 C   0  0  2  0  0  3  0  0  0  0  0  0
   42.7860   34.6230   39.4720 C   0  0  0  0  0  3  0  0  0  0  0  0
   42.9310   35.5710   40.0310 H   0  0  0  0  0  0  0  0  0  0  0  0
   43.7570   34.5920   38.3870 N   0  0  0  0  0  0  0  0  0  0  0  0
   43.4080   35.2950   37.6710 H   0  0  0  0  0  0  0  0  0  0  0  0
   43.5940   33.2930   37.7690 C   0  0  0  0  0  2  0  0  0  0  0  0
   42.2230   33.0740   37.2190 C   0  0  0  0  0  2  0  0  0  0  0  0
  1  7  1  0  0  0  0
  1  6  1  0  0  0  0
  2  1  2  0  0  0  0
  3  2  1  0  0  0  0
  3  4  2  0  0  0  0
  4  5  1  0  0  0  0
  5  6  2  0  0  0  0
  5  9  1  0  0  0  0
  8  2  1  0  0  0  0
  9 14  1  0  0  0  0
  9 15  1  1  0  0  0
 10 16  1  0  0  0  0
 10  9  1  0  0  0  0
 11 12  1  0  0  0  0
 11 10  1  0  0  0  0
 12 13  1  0  0  0  0
 12 21  1  0  0  0  0
 13 22  1  0  0  0  0
 13 14  2  0  0  0  0
 14 23  1  0  0  0  0
 17 10  1  0  0  0  0
 18 11  1  0  0  0  0
 19 11  1  0  0  0  0
 20 12  1  0  0  0  0
 23 24  1  0  0  0  0
 25 23  1  0  0  0  0
 26  3  1  0  0  0  0
 27 26  1  0  0  0  0
 27 32  1  0  0  0  0
 28 27  2  0  0  0  0
 29 30  2  0  0  0  0
 29 28  1  0  0  0  0
 30 31  1  0  0  0  0
 31 26  2  0  0  0  0
 33 28  1  0  0  0  0
 34 29  1  0  0  0  0
 35 30  1  0  0  0  0
 36 37  1  0  0  0  0
 37 38  1  0  0  0  0
 38 39  1  0  0  0  0
 38 35  1  1  0  0  0
 39 40  1  0  0  0  0
 41 39  1  0  0  0  0
 42 41  1  0  0  0  0
 43 41  1  0  0  0  0
 44 43  1  0  0  0  0
 44 37  1  0  0  0  0
M  END
>  <minimizedAffinity>
-6.83335352

$$$$

 OpenBabel03252505133D

 44 47  0  0  1  0  0  0  0  0999 V2000
   37.9390   28.9110   37.8640 C   0  0  0  0  0  0  0  0  0  0  0  0
   37.8950   28.3000   39.1360 C   0  0  0  0  0  0  0  0  0  0  0  0
   38.1350   29.1190   40.2760 C   0  0  0  0  0  0  0  0  0  0  0  0
   38.3920   30.4350   40.0840 N   0  0  0  0  0  0  0  0  0  0  0  0
   38.4260   30.9820   38.8620 C   0  0  0  0  0  0  0  0  0  0  0  0
   38.1990   30.2250   37.7400 N   0  0  0  0  0  0  0  0  0  0  0  0
   37.7650   28.3410   36.9730 H   0  0  0  0  0  0  0  0  0  0  0  0
   37.6860   27.2460   39.2340 H   0  0  0  0  0  0  0  0  0  0  0  0
   38.7140   32.4330   38.7090 C   0  0  2  0  0  0  0  0  0  0  0  0
   40.2150   32.5160   38.5260 C   0  0  0  0  0  0  0  0  0  0  0  0
   40.9800   32.9980   39.6840 C   0  0  0  0  0  0  0  0  0  0  0  0
   40.3730   34.3610   40.0290 C   0  0  0  0  0  0  0  0  0  0  0  0
   39.0020   34.2220   40.5090 C   0  0  0  0  0  0  0  0  0  0  0  0
   38.1900   33.2140   39.7930 C   0  0  0  0  0  0  0  0  0  0  0  0
   38.2120   32.7240   37.7540 H   0  0  0  0  0  0  0  0  0  0  0  0
   40.4030   33.2080   37.6780 H   0  0  0  0  0  0  0  0  0  0  0  0
   40.6670   31.5490   38.1960 H   0  0  0  0  0  0  0  0  0  0  0  0
   42.0190   33.1390   39.3880 H   0  0  0  0  0  0  0  0  0  0  0  0
   40.8360   32.3310   40.5610 H   0  0  0  0  0  0  0  0  0  0  0  0
   40.9630   34.7150   40.8900 H   0  0  0  0  0  0  0  0  0  0  0  0
   40.4240   35.0070   39.1310 H   0  0  0  0  0  0  0  0  0  0  0  0
   38.4190   34.6700   41.2600 H   0  0  0  0  0  0  0  0  0  0  0  0
   36.8350   32.9900   40.1760 N   0  0  0  0  0  0  0  0  0  0  0  0
   36.2080   33.3000   39.3950 H   0  0  0  0  0  0  0  0  0  0  0  0
   36.5690   32.5870   41.0840 H   0  0  0  0  0  0  0  0  0  0  0  0
   38.0920   28.5150   41.5930 C   0  0  0  0  0  0  0  0  0  0  0  0
   37.3150   29.1190   42.5450 C   0  0  0  0  0  0  0  0  0  0  0  0
   37.3180   28.4770   43.8050 C   0  0  0  0  0  0  0  0  0  0  0  0
   38.0810   27.3390   43.9400 C   0  0  0  0  0  0  0  0  0  0  0  0
   38.8480   26.7440   42.9960 C   0  0  0  0  0  0  0  0  0  0  0  0
   38.8240   27.3890   41.7870 N   0  0  0  0  0  0  0  0  0  0  0  0
   36.7680   30.0020   42.3150 H   0  0  0  0  0  0  0  0  0  0  0  0
   36.7070   28.9510   44.5570 H   0  0  0  0  0  0  0  0  0  0  0  0
   37.9740   26.9770   44.9510 H   0  0  0  0  0  0  0  0  0  0  0  0
   39.5860   25.6100   43.1910 O   0  0  0  0  0  0  0  0  0  0  0  0
   40.6730   27.2900   44.8790 H   0  0  0  0  0  0  0  0  0  0  0  0
   41.1990   27.0000   44.0220 N   0  0  0  0  0  0  0  0  0  0  0  0
   40.8470   25.6160   43.7730 C   0  0  2  0  0  3  0  0  0  0  0  0
   41.8350   24.9590   42.8220 C   0  0  0  0  0  3  0  0  0  0  0  0
   41.5070   23.9050   42.7130 H   0  0  0  0  0  0  0  0  0  0  0  0
   43.1150   24.9610   43.5150 N   0  0  0  0  0  0  0  0  0  0  0  0
   42.8940   24.7210   44.5260 H   0  0  0  0  0  0  0  0  0  0  0  0
   43.5400   26.3450   43.5270 C   0  0  0  0  0  2  0  0  0  0  0  0
   42.5850   27.2440   44.2400 C   0  0  0  0  0  2  0  0  0  0  0  0
  1  2  1  0  0  0  0
  2  8  1  0  0  0  0
  2  3  2  0  0  0  0
  3 26  1  0  0  0  0
  4  3  1  0  0  0  0
  5  4  2  0  0  0  0
  6  1  2  0  0  0  0
  6  5  1  0  0  0  0
  7  1  1  0  0  0  0
  9 15  1  6  0  0  0
  9  5  1  0  0  0  0
  9 14  1  0  0  0  0
 10  9  1  0  0  0  0
 10 11  1  0  0  0  0
 11 12  1  0  0  0  0
 11 19  1  0  0  0  0
 12 13  1  0  0  0  0
 12 20  1  0  0  0  0
 13 22  1  0  0  0  0
 14 23  1  0  0  0  0
 14 13  2  0  0  0  0
 16 10  1  0  0  0  0
 17 10  1  0  0  0  0
 18 11  1  0  0  0  0
 21 12  1  0  0  0  0
 23 25  1  0  0  0  0
 24 23  1  0  0  0  0
 26 31  2  0  0  0  0
 26 27  1  0  0  0  0
 27 28  2  0  0  0  0
 28 29  1  0  0  0  0
 28 33  1  0  0  0  0
 29 34  1  0  0  0  0
 30 35  1  0  0  0  0
 30 29  2  0  0  0  0
 31 30  1  0  0  0  0
 32 27  1  0  0  0  0
 37 44  1  0  0  0  0
 37 36  1  0  0  0  0
 38 35  1  6  0  0  0
 38 37  1  0  0  0  0
 39 41  1  0  0  0  0
 39 38  1  0  0  0  0
 40 39  1  0  0  0  0
 41 43  1  0  0  0  0
 41 42  1  0  0  0  0
 43 44  1  0  0  0  0
M  END
>  <minimizedAffinity>
-6.5854907

$$$$

 OpenBabel03252505133D

 44 47  0  0  1  0  0  0  0  0999 V2000
   36.3110   29.7790   38.4560 C   0  0  0  0  0  0  0  0  0  0  0  0
   36.9420   31.0330   38.6080 C   0  0  0  0  0  0  0  0  0  0  0  0
   37.9150   31.1680   39.6400 C   0  0  0  0  0  0  0  0  0  0  0  0
   38.1860   30.0930   40.4170 N   0  0  0  0  0  0  0  0  0  0  0  0
   37.5690   28.9160   40.2440 C   0  0  0  0  0  0  0  0  0  0  0  0
   36.6260   28.7490   39.2610 N   0  0  0  0  0  0  0  0  0  0  0  0
   35.5720   29.6230   37.6950 H   0  0  0  0  0  0  0  0  0  0  0  0
   36.6890   31.8590   37.9610 H   0  0  0  0  0  0  0  0  0  0  0  0
   37.9050   27.7680   41.1280 C   0  0  2  0  0  0  0  0  0  0  0  0
   36.8540   27.7950   42.2190 C   0  0  0  0  0  0  0  0  0  0  0  0
   37.2990   28.2870   43.5300 C   0  0  0  0  0  0  0  0  0  0  0  0
   38.4910   27.4030   43.9090 C   0  0  0  0  0  0  0  0  0  0  0  0
   39.6210   27.6280   43.0140 C   0  0  0  0  0  0  0  0  0  0  0  0
   39.2630   27.8100   41.5900 C   0  0  0  0  0  0  0  0  0  0  0  0
   37.7480   26.8640   40.4910 H   0  0  0  0  0  0  0  0  0  0  0  0
   36.4910   26.7540   42.3480 H   0  0  0  0  0  0  0  0  0  0  0  0
   35.9420   28.3700   41.9300 H   0  0  0  0  0  0  0  0  0  0  0  0
   36.5020   28.1340   44.2550 H   0  0  0  0  0  0  0  0  0  0  0  0
   37.6640   29.3350   43.4580 H   0  0  0  0  0  0  0  0  0  0  0  0
   38.8060   27.7750   44.8970 H   0  0  0  0  0  0  0  0  0  0  0  0
   38.1650   26.3450   43.8910 H   0  0  0  0  0  0  0  0  0  0  0  0
   40.6650   27.6960   43.1210 H   0  0  0  0  0  0  0  0  0  0  0  0
   40.2840   28.0380   40.6220 N   0  0  0  0  0  0  0  0  0  0  0  0
   40.3270   27.2140   39.9750 H   0  0  0  0  0  0  0  0  0  0  0  0
   40.8590   28.8900   40.6050 H   0  0  0  0  0  0  0  0  0  0  0  0
   38.5780   32.4450   39.8120 C   0  0  0  0  0  0  0  0  0  0  0  0
   37.7910   33.5530   39.9800 C   0  0  0  0  0  0  0  0  0  0  0  0
   38.5020   34.7640   40.1430 C   0  0  0  0  0  0  0  0  0  0  0  0
   39.8770   34.7050   40.1180 C   0  0  0  0  0  0  0  0  0  0  0  0
   40.6520   33.6080   39.9530 C   0  0  0  0  0  0  0  0  0  0  0  0
   39.9350   32.4510   39.7980 N   0  0  0  0  0  0  0  0  0  0  0  0
   36.7300   33.4660   39.9800 H   0  0  0  0  0  0  0  0  0  0  0  0
   37.8840   35.6380   40.2750 H   0  0  0  0  0  0  0  0  0  0  0  0
   40.2610   35.7050   40.2560 H   0  0  0  0  0  0  0  0  0  0  0  0
   42.0190   33.6140   39.9380 O   0  0  0  0  0  0  0  0  0  0  0  0
   43.9100   35.4190   39.7920 H   0  0  0  0  0  0  0  0  0  0  0  0
   44.0660   34.5460   40.3480 N   0  0  0  0  0  0  0  0  0  0  0  0
   42.7870   34.2000   40.9370 C   0  0  2  0  0  3  0  0  0  0  0  0
   42.9550   33.2090   42.0770 C   0  0  0  0  0  3  0  0  0  0  0  0
   41.9390   33.0260   42.4830 H   0  0  0  0  0  0  0  0  0  0  0  0
   43.7260   33.9060   43.0980 N   0  0  0  0  0  0  0  0  0  0  0  0
   43.3430   34.8970   43.1180 H   0  0  0  0  0  0  0  0  0  0  0  0
   45.0640   34.0160   42.5560 C   0  0  0  0  0  2  0  0  0  0  0  0
   45.1170   34.7860   41.2790 C   0  0  0  0  0  2  0  0  0  0  0  0
  1  2  2  0  0  0  0
  1  6  1  0  0  0  0
  2  3  1  0  0  0  0
  3 26  1  0  0  0  0
  3  4  2  0  0  0  0
  5  4  1  0  0  0  0
  5  9  1  0  0  0  0
  6  5  2  0  0  0  0
  7  1  1  0  0  0  0
  8  2  1  0  0  0  0
  9 15  1  6  0  0  0
  9 14  1  0  0  0  0
  9 10  1  0  0  0  0
 10 16  1  0  0  0  0
 10 11  1  0  0  0  0
 11 12  1  0  0  0  0
 11 18  1  0  0  0  0
 12 20  1  0  0  0  0
 13 22  1  0  0  0  0
 13 12  1  0  0  0  0
 14 13  2  0  0  0  0
 17 10  1  0  0  0  0
 19 11  1  0  0  0  0
 21 12  1  0  0  0  0
 23 14  1  0  0  0  0
 24 23  1  0  0  0  0
 25 23  1  0  0  0  0
 26 27  1  0  0  0  0
 27 28  2  0  0  0  0
 28 33  1  0  0  0  0
 29 28  1  0  0  0  0
 29 34  1  0  0  0  0
 30 29  2  0  0  0  0
 31 26  2  0  0  0  0
 31 30  1  0  0  0  0
 32 27  1  0  0  0  0
 35 30  1  0  0  0  0
 36 37  1  0  0  0  0
 37 38  1  0  0  0  0
 37 44  1  0  0  0  0
 38 35  1  6  0  0  0
 38 39  1  0  0  0  0
 39 40  1  0  0  0  0
 39 41  1  0  0  0  0
 41 42  1  0  0  0  0
 43 41  1  0  0  0  0
 44 43  1  0  0  0  0
M  END
>  <minimizedAffinity>
-6.549716

$$$$

 OpenBabel03252505133D

 44 47  0  0  1  0  0  0  0  0999 V2000
   36.0570   24.6890   39.0670 C   0  0  0  0  0  0  0  0  0  0  0  0
   36.2320   25.8970   38.3580 C   0  0  0  0  0  0  0  0  0  0  0  0
   36.8500   26.9850   39.0400 C   0  0  0  0  0  0  0  0  0  0  0  0
   37.2360   26.8060   40.3250 N   0  0  0  0  0  0  0  0  0  0  0  0
   37.0550   25.6450   40.9680 C   0  0  0  0  0  0  0  0  0  0  0  0
   36.4640   24.5750   40.3440 N   0  0  0  0  0  0  0  0  0  0  0  0
   35.5980   23.8390   38.6020 H   0  0  0  0  0  0  0  0  0  0  0  0
   35.9050   25.9870   37.3330 H   0  0  0  0  0  0  0  0  0  0  0  0
   37.4980   25.5050   42.3800 C   0  0  2  0  0  0  0  0  0  0  0  0
   37.5760   26.9230   42.9080 C   0  0  0  0  0  0  0  0  0  0  0  0
   38.9270   27.4780   43.0640 C   0  0  0  0  0  0  0  0  0  0  0  0
   39.6650   26.4910   43.9750 C   0  0  0  0  0  0  0  0  0  0  0  0
   39.8570   25.2050   43.3130 C   0  0  0  0  0  0  0  0  0  0  0  0
   38.7080   24.7430   42.5040 C   0  0  0  0  0  0  0  0  0  0  0  0
   36.6590   24.9710   42.8900 H   0  0  0  0  0  0  0  0  0  0  0  0
   37.0850   26.9290   43.9030 H   0  0  0  0  0  0  0  0  0  0  0  0
   36.9790   27.6460   42.3010 H   0  0  0  0  0  0  0  0  0  0  0  0
   38.8590   28.4400   43.5700 H   0  0  0  0  0  0  0  0  0  0  0  0
   39.4620   27.5050   42.0900 H   0  0  0  0  0  0  0  0  0  0  0  0
   40.6710   26.9260   44.0930 H   0  0  0  0  0  0  0  0  0  0  0  0
   39.0910   26.3820   44.9150 H   0  0  0  0  0  0  0  0  0  0  0  0
   40.6280   24.4930   43.2610 H   0  0  0  0  0  0  0  0  0  0  0  0
   38.7800   23.5000   41.8100 N   0  0  0  0  0  0  0  0  0  0  0  0
   38.0910   22.8340   42.2350 H   0  0  0  0  0  0  0  0  0  0  0  0
   39.4240   23.3330   41.0250 H   0  0  0  0  0  0  0  0  0  0  0  0
   37.0430   28.2340   38.3310 C   0  0  0  0  0  0  0  0  0  0  0  0
   36.2860   28.4540   37.2110 C   0  0  0  0  0  0  0  0  0  0  0  0
   36.5250   29.6910   36.5690 C   0  0  0  0  0  0  0  0  0  0  0  0
   37.4700   30.5260   37.1240 C   0  0  0  0  0  0  0  0  0  0  0  0
   38.2160   30.3050   38.2320 C   0  0  0  0  0  0  0  0  0  0  0  0
   37.9620   29.0990   38.8300 N   0  0  0  0  0  0  0  0  0  0  0  0
   35.5850   27.7250   36.8820 H   0  0  0  0  0  0  0  0  0  0  0  0
   35.9310   29.8670   35.6870 H   0  0  0  0  0  0  0  0  0  0  0  0
   37.5290   31.4180   36.5200 H   0  0  0  0  0  0  0  0  0  0  0  0
   39.1410   31.1770   38.7350 O   0  0  0  0  0  0  0  0  0  0  0  0
   40.3710   33.3580   37.9690 H   0  0  0  0  0  0  0  0  0  0  0  0
   40.1220   33.2280   38.9780 N   0  0  0  0  0  0  0  0  0  0  0  0
   38.8620   32.5110   39.0010 C   0  0  2  0  0  3  0  0  0  0  0  0
   38.1930   32.6150   40.3620 C   0  0  0  0  0  3  0  0  0  0  0  0
   37.2310   32.0690   40.2790 H   0  0  0  0  0  0  0  0  0  0  0  0
   37.8900   34.0280   40.5490 N   0  0  0  0  0  0  0  0  0  0  0  0
   37.5510   34.3750   39.6050 H   0  0  0  0  0  0  0  0  0  0  0  0
   39.1720   34.6660   40.7610 C   0  0  0  0  0  2  0  0  0  0  0  0
   40.1050   34.5050   39.6070 C   0  0  0  0  0  2  0  0  0  0  0  0
  1  6  1  0  0  0  0
  2  3  1  0  0  0  0
  2  1  2  0  0  0  0
  3  4  2  0  0  0  0
  4  5  1  0  0  0  0
  5  9  1  0  0  0  0
  6  5  2  0  0  0  0
  7  1  1  0  0  0  0
  8  2  1  0  0  0  0
  9 14  1  0  0  0  0
  9 15  1  1  0  0  0
  9 10  1  0  0  0  0
 10 11  1  0  0  0  0
 10 16  1  0  0  0  0
 11 18  1  0  0  0  0
 11 12  1  0  0  0  0
 12 20  1  0  0  0  0
 12 21  1  0  0  0  0
 13 12  1  0  0  0  0
 14 13  2  0  0  0  0
 17 10  1  0  0  0  0
 19 11  1  0  0  0  0
 22 13  1  0  0  0  0
 23 24  1  0  0  0  0
 23 14  1  0  0  0  0
 25 23  1  0  0  0  0
 26 31  1  0  0  0  0
 26  3  1  0  0  0  0
 27 26  2  0  0  0  0
 28 29  2  0  0  0  0
 28 27  1  0  0  0  0
 29 30  1  0  0  0  0
 30 35  1  0  0  0  0
 30 31  2  0  0  0  0
 32 27  1  0  0  0  0
 33 28  1  0  0  0  0
 34 29  1  0  0  0  0
 36 37  1  0  0  0  0
 37 38  1  0  0  0  0
 37 44  1  0  0  0  0
 38 35  1  1  0  0  0
 38 39  1  0  0  0  0
 39 41  1  0  0  0  0
 40 39  1  0  0  0  0
 41 43  1  0  0  0  0
 42 41  1  0  0  0  0
 44 43  1  0  0  0  0
M  END
>  <minimizedAffinity>
-6.53294754

$$$$

 OpenBabel03252505133D

 44 47  0  0  1  0  0  0  0  0999 V2000
   39.7090   34.3030   39.9520 C   0  0  0  0  0  0  0  0  0  0  0  0
   38.6510   33.4010   39.7040 C   0  0  0  0  0  0  0  0  0  0  0  0
   38.9580   32.1860   39.0270 C   0  0  0  0  0  0  0  0  0  0  0  0
   40.2400   31.9580   38.6570 N   0  0  0  0  0  0  0  0  0  0  0  0
   41.2210   32.8360   38.9090 C   0  0  0  0  0  0  0  0  0  0  0  0
   40.9630   34.0170   39.5590 N   0  0  0  0  0  0  0  0  0  0  0  0
   39.5340   35.2320   40.4580 H   0  0  0  0  0  0  0  0  0  0  0  0
   37.6450   33.6320   40.0190 H   0  0  0  0  0  0  0  0  0  0  0  0
   42.6120   32.5340   38.4800 C   0  0  2  0  0  0  0  0  0  0  0  0
   43.2830   31.9540   39.7070 C   0  0  0  0  0  0  0  0  0  0  0  0
   44.2240   32.8400   40.4060 C   0  0  0  0  0  0  0  0  0  0  0  0
   45.2460   33.2600   39.3440 C   0  0  0  0  0  0  0  0  0  0  0  0
   44.6280   34.0930   38.3180 C   0  0  0  0  0  0  0  0  0  0  0  0
   43.2690   33.6740   37.9080 C   0  0  0  0  0  0  0  0  0  0  0  0
   42.5030   31.7320   37.7090 H   0  0  0  0  0  0  0  0  0  0  0  0
   43.8390   31.0510   39.3810 H   0  0  0  0  0  0  0  0  0  0  0  0
   42.5530   31.5700   40.4610 H   0  0  0  0  0  0  0  0  0  0  0  0
   44.7360   32.2730   41.1810 H   0  0  0  0  0  0  0  0  0  0  0  0
   43.7130   33.7590   40.7660 H   0  0  0  0  0  0  0  0  0  0  0  0
   45.9510   33.9120   39.8830 H   0  0  0  0  0  0  0  0  0  0  0  0
   45.6960   32.3470   38.9080 H   0  0  0  0  0  0  0  0  0  0  0  0
   44.9090   34.9460   37.7720 H   0  0  0  0  0  0  0  0  0  0  0  0
   42.5670   34.4140   36.9130 N   0  0  0  0  0  0  0  0  0  0  0  0
   42.4520   33.8120   36.0620 H   0  0  0  0  0  0  0  0  0  0  0  0
   42.2450   35.3800   37.0560 H   0  0  0  0  0  0  0  0  0  0  0  0
   37.8890   31.2440   38.7640 C   0  0  0  0  0  0  0  0  0  0  0  0
   37.6010   30.9550   37.4570 C   0  0  0  0  0  0  0  0  0  0  0  0
   36.5480   30.0290   37.2740 C   0  0  0  0  0  0  0  0  0  0  0  0
   35.9380   29.5250   38.4000 C   0  0  0  0  0  0  0  0  0  0  0  0
   36.2260   29.8120   39.6920 C   0  0  0  0  0  0  0  0  0  0  0  0
   37.2490   30.7110   39.8370 N   0  0  0  0  0  0  0  0  0  0  0  0
   38.1500   31.4150   36.6700 H   0  0  0  0  0  0  0  0  0  0  0  0
   36.3200   29.8000   36.2450 H   0  0  0  0  0  0  0  0  0  0  0  0
   35.1650   28.8390   38.0890 H   0  0  0  0  0  0  0  0  0  0  0  0
   35.5810   29.2760   40.7720 O   0  0  0  0  0  0  0  0  0  0  0  0
   36.3310   30.0350   43.1630 H   0  0  0  0  0  0  0  0  0  0  0  0
   37.0090   29.5380   42.5380 N   0  0  0  0  0  0  0  0  0  0  0  0
   36.2360   28.5760   41.7770 C   0  0  2  0  0  3  0  0  0  0  0  0
   37.1350   27.5260   41.1440 C   0  0  0  0  0  3  0  0  0  0  0  0
   36.4630   26.8220   40.6110 H   0  0  0  0  0  0  0  0  0  0  0  0
   37.7490   26.8070   42.2520 N   0  0  0  0  0  0  0  0  0  0  0  0
   36.9800   26.6880   42.9750 H   0  0  0  0  0  0  0  0  0  0  0  0
   38.6910   27.7400   42.8340 C   0  0  0  0  0  2  0  0  0  0  0  0
   38.0430   28.9850   43.3450 C   0  0  0  0  0  2  0  0  0  0  0  0
  1  7  1  0  0  0  0
  2  1  1  0  0  0  0
  2  8  1  0  0  0  0
  3  2  2  0  0  0  0
  4  5  2  0  0  0  0
  4  3  1  0  0  0  0
  5  6  1  0  0  0  0
  6  1  2  0  0  0  0
  9 15  1  6  0  0  0
  9  5  1  0  0  0  0
  9 10  1  0  0  0  0
 10 11  1  0  0  0  0
 10 17  1  0  0  0  0
 11 19  1  0  0  0  0
 11 18  1  0  0  0  0
 12 20  1  0  0  0  0
 12 11  1  0  0  0  0
 13 12  1  0  0  0  0
 14 13  2  0  0  0  0
 14  9  1  0  0  0  0
 16 10  1  0  0  0  0
 21 12  1  0  0  0  0
 22 13  1  0  0  0  0
 23 25  1  0  0  0  0
 23 14  1  0  0  0  0
 24 23  1  0  0  0  0
 26  3  1  0  0  0  0
 26 31  1  0  0  0  0
 27 26  2  0  0  0  0
 28 27  1  0  0  0  0
 28 29  2  0  0  0  0
 29 30  1  0  0  0  0
 30 31  2  0  0  0  0
 30 35  1  0  0  0  0
 32 27  1  0  0  0  0
 33 28  1  0  0  0  0
 34 29  1  0  0  0  0
 37 36  1  0  0  0  0
 37 44  1  0  0  0  0
 38 35  1  6  0  0  0
 38 37  1  0  0  0  0
 39 38  1  0  0  0  0
 39 41  1  0  0  0  0
 40 39  1  0  0  0  0
 41 43  1  0  0  0  0
 41 42  1  0  0  0  0
 43 44  1  0  0  0  0
M  END
>  <minimizedAffinity>
-6.50886965

$$$$

 OpenBabel03252505133D

 44 47  0  0  1  0  0  0  0  0999 V2000
   37.6950   32.9890   40.0030 C   0  0  0  0  0  0  0  0  0  0  0  0
   37.2490   31.8310   40.6780 C   0  0  0  0  0  0  0  0  0  0  0  0
   38.1550   30.7390   40.7950 C   0  0  0  0  0  0  0  0  0  0  0  0
   39.3920   30.8650   40.2590 N   0  0  0  0  0  0  0  0  0  0  0  0
   39.7830   31.9790   39.6260 C   0  0  0  0  0  0  0  0  0  0  0  0
   38.9370   33.0520   39.4930 N   0  0  0  0  0  0  0  0  0  0  0  0
   37.0530   33.8400   39.8870 H   0  0  0  0  0  0  0  0  0  0  0  0
   36.2510   31.7820   41.0870 H   0  0  0  0  0  0  0  0  0  0  0  0
   41.1530   32.0620   39.0540 C   0  0  2  0  0  0  0  0  0  0  0  0
   41.9990   32.6690   40.1550 C   0  0  0  0  0  0  0  0  0  0  0  0
   42.3800   34.0760   39.9740 C   0  0  0  0  0  0  0  0  0  0  0  0
   43.0880   34.1300   38.6160 C   0  0  0  0  0  0  0  0  0  0  0  0
   42.1630   33.8420   37.5260 C   0  0  0  0  0  0  0  0  0  0  0  0
   41.1850   32.7670   37.8050 C   0  0  0  0  0  0  0  0  0  0  0  0
   41.4620   30.9990   38.8990 H   0  0  0  0  0  0  0  0  0  0  0  0
   42.9300   32.0670   40.2210 H   0  0  0  0  0  0  0  0  0  0  0  0
   41.5350   32.5680   41.1660 H   0  0  0  0  0  0  0  0  0  0  0  0
   43.0890   34.3540   40.7520 H   0  0  0  0  0  0  0  0  0  0  0  0
   41.4810   34.7260   39.9130 H   0  0  0  0  0  0  0  0  0  0  0  0
   43.3790   35.1870   38.4990 H   0  0  0  0  0  0  0  0  0  0  0  0
   43.9320   33.4140   38.6310 H   0  0  0  0  0  0  0  0  0  0  0  0
   42.0030   34.2140   36.5560 H   0  0  0  0  0  0  0  0  0  0  0  0
   40.2300   32.3990   36.8130 N   0  0  0  0  0  0  0  0  0  0  0  0
   40.4370   31.4240   36.4890 H   0  0  0  0  0  0  0  0  0  0  0  0
   39.4770   33.0270   36.5000 H   0  0  0  0  0  0  0  0  0  0  0  0
   37.7200   29.5420   41.4860 C   0  0  0  0  0  0  0  0  0  0  0  0
   36.5150   29.0010   41.1250 C   0  0  0  0  0  0  0  0  0  0  0  0
   36.1530   27.8350   41.8380 C   0  0  0  0  0  0  0  0  0  0  0  0
   37.0280   27.3750   42.7960 C   0  0  0  0  0  0  0  0  0  0  0  0
   38.2200   27.9120   43.1500 C   0  0  0  0  0  0  0  0  0  0  0  0
   38.5420   29.0390   42.4420 N   0  0  0  0  0  0  0  0  0  0  0  0
   35.9260   29.4550   40.3640 H   0  0  0  0  0  0  0  0  0  0  0  0
   35.2040   27.4070   41.5560 H   0  0  0  0  0  0  0  0  0  0  0  0
   36.6060   26.4870   43.2420 H   0  0  0  0  0  0  0  0  0  0  0  0
   39.0480   27.4060   44.1130 O   0  0  0  0  0  0  0  0  0  0  0  0
   41.4090   28.2910   43.4110 H   0  0  0  0  0  0  0  0  0  0  0  0
   40.9610   27.5170   42.8670 N   0  0  0  0  0  0  0  0  0  0  0  0
   40.2190   26.7190   43.8230 C   0  0  2  0  0  3  0  0  0  0  0  0
   39.8650   25.3570   43.2460 C   0  0  0  0  0  3  0  0  0  0  0  0
   39.3300   24.8090   44.0490 H   0  0  0  0  0  0  0  0  0  0  0  0
   41.1340   24.6820   43.0120 N   0  0  0  0  0  0  0  0  0  0  0  0
   41.7430   24.9210   43.8490 H   0  0  0  0  0  0  0  0  0  0  0  0
   41.7290   25.3720   41.8870 C   0  0  0  0  0  2  0  0  0  0  0  0
   41.9760   26.8210   42.1520 C   0  0  0  0  0  2  0  0  0  0  0  0
  1  2  1  0  0  0  0
  2  3  2  0  0  0  0
  2  8  1  0  0  0  0
  3 26  1  0  0  0  0
  4  3  1  0  0  0  0
  5  4  2  0  0  0  0
  6  5  1  0  0  0  0
  6  1  2  0  0  0  0
  7  1  1  0  0  0  0
  9 15  1  6  0  0  0
  9  5  1  0  0  0  0
  9 10  1  0  0  0  0
 10 16  1  0  0  0  0
 10 17  1  0  0  0  0
 11 10  1  0  0  0  0
 11 18  1  0  0  0  0
 12 21  1  0  0  0  0
 12 11  1  0  0  0  0
 13 14  2  0  0  0  0
 13 12  1  0  0  0  0
 14  9  1  0  0  0  0
 19 11  1  0  0  0  0
 20 12  1  0  0  0  0
 22 13  1  0  0  0  0
 23 14  1  0  0  0  0
 24 23  1  0  0  0  0
 25 23  1  0  0  0  0
 26 31  1  0  0  0  0
 27 26  2  0  0  0  0
 27 28  1  0  0  0  0
 28 29  2  0  0  0  0
 29 30  1  0  0  0  0
 29 34  1  0  0  0  0
 30 35  1  0  0  0  0
 31 30  2  0  0  0  0
 32 27  1  0  0  0  0
 33 28  1  0  0  0  0
 37 36  1  0  0  0  0
 37 38  1  0  0  0  0
 38 35  1  6  0  0  0
 39 38  1  0  0  0  0
 39 40  1  0  0  0  0
 41 39  1  0  0  0  0
 41 42  1  0  0  0  0
 43 44  1  0  0  0  0
 43 41  1  0  0  0  0
 44 37  1  0  0  0  0
M  END
>  <minimizedAffinity>
-6.49649048

$$$$

 OpenBabel03252505133D

 44 47  0  0  1  0  0  0  0  0999 V2000
   33.0170   26.8500   36.0110 C   0  0  0  0  0  0  0  0  0  0  0  0
   34.2160   27.3960   36.5200 C   0  0  0  0  0  0  0  0  0  0  0  0
   34.1720   28.7160   37.0530 C   0  0  0  0  0  0  0  0  0  0  0  0
   32.9900   29.3770   37.0460 N   0  0  0  0  0  0  0  0  0  0  0  0
   31.8700   28.8280   36.5560 C   0  0  0  0  0  0  0  0  0  0  0  0
   31.8740   27.5590   36.0340 N   0  0  0  0  0  0  0  0  0  0  0  0
   32.9940   25.8600   35.5990 H   0  0  0  0  0  0  0  0  0  0  0  0
   35.1320   26.8260   36.5010 H   0  0  0  0  0  0  0  0  0  0  0  0
   30.6000   29.6000   36.5720 C   0  0  2  0  0  0  0  0  0  0  0  0
   30.5810   30.3510   35.2570 C   0  0  0  0  0  0  0  0  0  0  0  0
   30.8720   31.7890   35.3320 C   0  0  0  0  0  0  0  0  0  0  0  0
   29.8520   32.3550   36.3250 C   0  0  0  0  0  0  0  0  0  0  0  0
   30.0880   31.8480   37.6720 C   0  0  0  0  0  0  0  0  0  0  0  0
   30.4710   30.4200   37.7430 C   0  0  0  0  0  0  0  0  0  0  0  0
   29.7960   28.8240   36.5620 H   0  0  0  0  0  0  0  0  0  0  0  0
   29.5670   30.2280   34.8240 H   0  0  0  0  0  0  0  0  0  0  0  0
   31.2620   29.9050   34.4920 H   0  0  0  0  0  0  0  0  0  0  0  0
   30.6990   32.2370   34.3550 H   0  0  0  0  0  0  0  0  0  0  0  0
   31.8860   31.9680   35.7500 H   0  0  0  0  0  0  0  0  0  0  0  0
   30.0730   33.4340   36.3610 H   0  0  0  0  0  0  0  0  0  0  0  0
   28.8350   32.1000   35.9680 H   0  0  0  0  0  0  0  0  0  0  0  0
   30.0550   32.2480   38.6430 H   0  0  0  0  0  0  0  0  0  0  0  0
   30.7290   29.8150   39.0070 N   0  0  0  0  0  0  0  0  0  0  0  0
   29.9890   29.0960   39.1950 H   0  0  0  0  0  0  0  0  0  0  0  0
   31.5260   30.0770   39.6020 H   0  0  0  0  0  0  0  0  0  0  0  0
   35.3890   29.2960   37.5830 C   0  0  0  0  0  0  0  0  0  0  0  0
   36.3210   29.7500   36.6880 C   0  0  0  0  0  0  0  0  0  0  0  0
   37.4830   30.3030   37.2740 C   0  0  0  0  0  0  0  0  0  0  0  0
   37.5560   30.3280   38.6480 C   0  0  0  0  0  0  0  0  0  0  0  0
   36.6320   29.8770   39.5310 C   0  0  0  0  0  0  0  0  0  0  0  0
   35.5190   29.3480   38.9340 N   0  0  0  0  0  0  0  0  0  0  0  0
   36.1450   29.6740   35.6420 H   0  0  0  0  0  0  0  0  0  0  0  0
   38.2180   30.6630   36.5710 H   0  0  0  0  0  0  0  0  0  0  0  0
   38.4960   30.7770   38.9300 H   0  0  0  0  0  0  0  0  0  0  0  0
   36.7630   29.9300   40.8910 O   0  0  0  0  0  0  0  0  0  0  0  0
   35.8990   29.5130   43.3260 H   0  0  0  0  0  0  0  0  0  0  0  0
   36.8780   29.2450   43.0690 N   0  0  0  0  0  0  0  0  0  0  0  0
   36.8320   28.7970   41.6910 C   0  0  2  0  0  3  0  0  0  0  0  0
   38.0790   28.0080   41.3260 C   0  0  0  0  0  3  0  0  0  0  0  0
   37.9450   27.6830   40.2740 H   0  0  0  0  0  0  0  0  0  0  0  0
   38.0580   26.8200   42.1680 N   0  0  0  0  0  0  0  0  0  0  0  0
   37.0450   26.5030   42.1910 H   0  0  0  0  0  0  0  0  0  0  0  0
   38.3480   27.2960   43.5050 C   0  0  0  0  0  2  0  0  0  0  0  0
   37.3430   28.2800   44.0060 C   0  0  0  0  0  2  0  0  0  0  0  0
  1  6  2  0  0  0  0
  1  2  1  0  0  0  0
  2  3  2  0  0  0  0
  3 26  1  0  0  0  0
  4  3  1  0  0  0  0
  5  9  1  0  0  0  0
  5  4  2  0  0  0  0
  6  5  1  0  0  0  0
  7  1  1  0  0  0  0
  8  2  1  0  0  0  0
  9 15  1  6  0  0  0
  9 14  1  0  0  0  0
 10 11  1  0  0  0  0
 10  9  1  0  0  0  0
 11 19  1  0  0  0  0
 11 12  1  0  0  0  0
 12 20  1  0  0  0  0
 12 13  1  0  0  0  0
 13 14  2  0  0  0  0
 13 22  1  0  0  0  0
 14 23  1  0  0  0  0
 16 10  1  0  0  0  0
 17 10  1  0  0  0  0
 18 11  1  0  0  0  0
 21 12  1  0  0  0  0
 23 24  1  0  0  0  0
 23 25  1  0  0  0  0
 26 31  1  0  0  0  0
 27 28  1  0  0  0  0
 27 26  2  0  0  0  0
 28 29  2  0  0  0  0
 29 34  1  0  0  0  0
 29 30  1  0  0  0  0
 30 35  1  0  0  0  0
 31 30  2  0  0  0  0
 32 27  1  0  0  0  0
 33 28  1  0  0  0  0
 37 36  1  0  0  0  0
 37 44  1  0  0  0  0
 38 35  1  6  0  0  0
 38 37  1  0  0  0  0
 39 38  1  0  0  0  0
 39 41  1  0  0  0  0
 40 39  1  0  0  0  0
 41 42  1  0  0  0  0
 41 43  1  0  0  0  0
 43 44  1  0  0  0  0
M  END
>  <minimizedAffinity>
-6.37662888

$$$$

 OpenBabel03252505133D

 44 47  0  0  1  0  0  0  0  0999 V2000
   36.2480   30.0390   38.5430 C   0  0  0  0  0  0  0  0  0  0  0  0
   36.9470   31.2580   38.6790 C   0  0  0  0  0  0  0  0  0  0  0  0
   37.9900   31.3230   39.6470 C   0  0  0  0  0  0  0  0  0  0  0  0
   38.2570   30.2200   40.3840 N   0  0  0  0  0  0  0  0  0  0  0  0
   37.5740   29.0780   40.2300 C   0  0  0  0  0  0  0  0  0  0  0  0
   36.5630   28.9770   39.3070 N   0  0  0  0  0  0  0  0  0  0  0  0
   35.4550   29.9350   37.8290 H   0  0  0  0  0  0  0  0  0  0  0  0
   36.6940   32.1100   38.0650 H   0  0  0  0  0  0  0  0  0  0  0  0
   37.9090   27.8960   41.0680 C   0  0  2  0  0  0  0  0  0  0  0  0
   36.8860   27.9060   42.1850 C   0  0  0  0  0  0  0  0  0  0  0  0
   37.3710   28.3480   43.4990 C   0  0  0  0  0  0  0  0  0  0  0  0
   38.5560   27.4310   43.8200 C   0  0  0  0  0  0  0  0  0  0  0  0
   39.6670   27.6640   42.9050 C   0  0  0  0  0  0  0  0  0  0  0  0
   39.2780   27.8980   41.4970 C   0  0  0  0  0  0  0  0  0  0  0  0
   37.7200   27.0160   40.4060 H   0  0  0  0  0  0  0  0  0  0  0  0
   36.5060   26.8690   42.2900 H   0  0  0  0  0  0  0  0  0  0  0  0
   35.9770   28.5070   41.9370 H   0  0  0  0  0  0  0  0  0  0  0  0
   36.5890   28.1860   44.2390 H   0  0  0  0  0  0  0  0  0  0  0  0
   37.7540   29.3910   43.4510 H   0  0  0  0  0  0  0  0  0  0  0  0
   38.9010   27.7650   44.8120 H   0  0  0  0  0  0  0  0  0  0  0  0
   38.2090   26.3800   43.7770 H   0  0  0  0  0  0  0  0  0  0  0  0
   40.7140   27.7100   42.9890 H   0  0  0  0  0  0  0  0  0  0  0  0
   40.2800   28.1390   40.5120 N   0  0  0  0  0  0  0  0  0  0  0  0
   40.2920   27.3360   39.8390 H   0  0  0  0  0  0  0  0  0  0  0  0
   40.8710   28.9810   40.5080 H   0  0  0  0  0  0  0  0  0  0  0  0
   38.7230   32.5640   39.8010 C   0  0  0  0  0  0  0  0  0  0  0  0
   38.0080   33.6930   40.1000 C   0  0  0  0  0  0  0  0  0  0  0  0
   38.7860   34.8660   40.2360 C   0  0  0  0  0  0  0  0  0  0  0  0
   40.1470   34.7540   40.0600 C   0  0  0  0  0  0  0  0  0  0  0  0
   40.8510   33.6360   39.7650 C   0  0  0  0  0  0  0  0  0  0  0  0
   40.0700   32.5170   39.6390 N   0  0  0  0  0  0  0  0  0  0  0  0
   36.9510   33.6490   40.2120 H   0  0  0  0  0  0  0  0  0  0  0  0
   38.2250   35.7570   40.4720 H   0  0  0  0  0  0  0  0  0  0  0  0
   40.5880   35.7300   40.1970 H   0  0  0  0  0  0  0  0  0  0  0  0
   42.2070   33.5880   39.6010 O   0  0  0  0  0  0  0  0  0  0  0  0
   41.8530   31.7280   37.7930 H   0  0  0  0  0  0  0  0  0  0  0  0
   42.8220   31.9750   38.1020 N   0  0  0  0  0  0  0  0  0  0  0  0
   42.8170   33.4010   38.3680 C   0  0  2  0  0  3  0  0  0  0  0  0
   44.2310   33.9550   38.4250 C   0  0  0  0  0  3  0  0  0  0  0  0
   44.1310   35.0460   38.6010 H   0  0  0  0  0  0  0  0  0  0  0  0
   44.7870   33.7660   37.0920 N   0  0  0  0  0  0  0  0  0  0  0  0
   44.0000   34.0000   36.4190 H   0  0  0  0  0  0  0  0  0  0  0  0
   44.9970   32.3390   36.9670 C   0  0  0  0  0  2  0  0  0  0  0  0
   43.7380   31.5480   37.0990 C   0  0  0  0  0  2  0  0  0  0  0  0
  1  2  2  0  0  0  0
  1  6  1  0  0  0  0
  2  3  1  0  0  0  0
  3 26  1  0  0  0  0
  3  4  2  0  0  0  0
  5  4  1  0  0  0  0
  5  9  1  0  0  0  0
  6  5  2  0  0  0  0
  7  1  1  0  0  0  0
  8  2  1  0  0  0  0
  9 15  1  6  0  0  0
  9 14  1  0  0  0  0
  9 10  1  0  0  0  0
 10 16  1  0  0  0  0
 10 11  1  0  0  0  0
 11 12  1  0  0  0  0
 11 18  1  0  0  0  0
 12 20  1  0  0  0  0
 13 22  1  0  0  0  0
 13 12  1  0  0  0  0
 14 13  2  0  0  0  0
 17 10  1  0  0  0  0
 19 11  1  0  0  0  0
 21 12  1  0  0  0  0
 23 14  1  0  0  0  0
 24 23  1  0  0  0  0
 25 23  1  0  0  0  0
 26 27  1  0  0  0  0
 27 32  1  0  0  0  0
 27 28  2  0  0  0  0
 28 33  1  0  0  0  0
 29 34  1  0  0  0  0
 29 28  1  0  0  0  0
 30 29  2  0  0  0  0
 31 30  1  0  0  0  0
 31 26  2  0  0  0  0
 35 30  1  0  0  0  0
 36 37  1  0  0  0  0
 37 38  1  0  0  0  0
 38 39  1  0  0  0  0
 38 35  1  1  0  0  0
 39 40  1  0  0  0  0
 41 39  1  0  0  0  0
 42 41  1  0  0  0  0
 43 41  1  0  0  0  0
 43 44  1  0  0  0  0
 44 37  1  0  0  0  0
M  END
>  <minimizedAffinity>
-6.36126661

$$$$

 OpenBabel03252505133D

 44 47  0  0  1  0  0  0  0  0999 V2000
   37.7110   29.1850   37.8440 C   0  0  0  0  0  0  0  0  0  0  0  0
   37.7200   28.5150   39.0880 C   0  0  0  0  0  0  0  0  0  0  0  0
   38.1160   29.2550   40.2390 C   0  0  0  0  0  0  0  0  0  0  0  0
   38.4620   30.5550   40.0840 N   0  0  0  0  0  0  0  0  0  0  0  0
   38.4420   31.1600   38.8890 C   0  0  0  0  0  0  0  0  0  0  0  0
   38.0660   30.4800   37.7580 N   0  0  0  0  0  0  0  0  0  0  0  0
   37.4200   28.6760   36.9470 H   0  0  0  0  0  0  0  0  0  0  0  0
   37.4350   27.4770   39.1560 H   0  0  0  0  0  0  0  0  0  0  0  0
   38.8330   32.5900   38.7770 C   0  0  2  0  0  0  0  0  0  0  0  0
   40.3470   32.5790   38.7420 C   0  0  0  0  0  0  0  0  0  0  0  0
   41.0240   33.0090   39.9730 C   0  0  0  0  0  0  0  0  0  0  0  0
   40.4710   34.4070   40.2680 C   0  0  0  0  0  0  0  0  0  0  0  0
   39.0540   34.3530   40.6110 C   0  0  0  0  0  0  0  0  0  0  0  0
   38.2550   33.3990   39.8110 C   0  0  0  0  0  0  0  0  0  0  0  0
   38.4460   32.9130   37.7800 H   0  0  0  0  0  0  0  0  0  0  0  0
   40.6600   33.2590   37.9220 H   0  0  0  0  0  0  0  0  0  0  0  0
   40.7690   31.5860   38.4500 H   0  0  0  0  0  0  0  0  0  0  0  0
   42.0930   33.0860   39.7820 H   0  0  0  0  0  0  0  0  0  0  0  0
   40.7530   32.3510   40.8260 H   0  0  0  0  0  0  0  0  0  0  0  0
   40.9950   34.7220   41.1860 H   0  0  0  0  0  0  0  0  0  0  0  0
   40.6500   35.0510   39.3850 H   0  0  0  0  0  0  0  0  0  0  0  0
   38.4290   34.8350   41.3050 H   0  0  0  0  0  0  0  0  0  0  0  0
   36.8580   33.2600   40.0570 N   0  0  0  0  0  0  0  0  0  0  0  0
   36.3300   33.6100   39.2220 H   0  0  0  0  0  0  0  0  0  0  0  0
   36.4790   32.8720   40.9310 H   0  0  0  0  0  0  0  0  0  0  0  0
   38.1290   28.5890   41.5260 C   0  0  0  0  0  0  0  0  0  0  0  0
   37.3910   29.1440   42.5370 C   0  0  0  0  0  0  0  0  0  0  0  0
   37.4480   28.4440   43.7640 C   0  0  0  0  0  0  0  0  0  0  0  0
   38.2210   27.3050   43.8140 C   0  0  0  0  0  0  0  0  0  0  0  0
   38.9500   26.7590   42.8120 C   0  0  0  0  0  0  0  0  0  0  0  0
   38.8730   27.4590   41.6370 N   0  0  0  0  0  0  0  0  0  0  0  0
   36.8310   30.0340   42.3710 H   0  0  0  0  0  0  0  0  0  0  0  0
   36.8670   28.8790   44.5620 H   0  0  0  0  0  0  0  0  0  0  0  0
   38.1570   26.8960   44.8100 H   0  0  0  0  0  0  0  0  0  0  0  0
   39.6990   25.6210   42.9240 O   0  0  0  0  0  0  0  0  0  0  0  0
   41.0260   24.9020   40.7840 H   0  0  0  0  0  0  0  0  0  0  0  0
   39.9800   24.9190   40.7660 N   0  0  0  0  0  0  0  0  0  0  0  0
   39.5400   24.5220   42.0900 C   0  0  2  0  0  3  0  0  0  0  0  0
   38.0750   24.1140   42.0840 C   0  0  0  0  0  3  0  0  0  0  0  0
   37.8360   23.8010   43.1210 H   0  0  0  0  0  0  0  0  0  0  0  0
   37.9950   22.9350   41.2310 N   0  0  0  0  0  0  0  0  0  0  0  0
   38.8540   22.3560   41.4630 H   0  0  0  0  0  0  0  0  0  0  0  0
   38.2060   23.4260   39.8850 C   0  0  0  0  0  2  0  0  0  0  0  0
   39.5340   24.0840   39.7030 C   0  0  0  0  0  2  0  0  0  0  0  0
  1  2  1  0  0  0  0
  2  8  1  0  0  0  0
  2  3  2  0  0  0  0
  3 26  1  0  0  0  0
  4  3  1  0  0  0  0
  5  4  2  0  0  0  0
  6  1  2  0  0  0  0
  6  5  1  0  0  0  0
  7  1  1  0  0  0  0
  9 15  1  6  0  0  0
  9  5  1  0  0  0  0
  9 14  1  0  0  0  0
 10  9  1  0  0  0  0
 10 11  1  0  0  0  0
 11 12  1  0  0  0  0
 11 19  1  0  0  0  0
 12 13  1  0  0  0  0
 12 20  1  0  0  0  0
 13 22  1  0  0  0  0
 14 23  1  0  0  0  0
 14 13  2  0  0  0  0
 16 10  1  0  0  0  0
 17 10  1  0  0  0  0
 18 11  1  0  0  0  0
 21 12  1  0  0  0  0
 23 25  1  0  0  0  0
 24 23  1  0  0  0  0
 26 31  2  0  0  0  0
 26 27  1  0  0  0  0
 27 28  2  0  0  0  0
 28 29  1  0  0  0  0
 28 33  1  0  0  0  0
 29 34  1  0  0  0  0
 30 35  1  0  0  0  0
 30 29  2  0  0  0  0
 31 30  1  0  0  0  0
 32 27  1  0  0  0  0
 37 36  1  0  0  0  0
 37 38  1  0  0  0  0
 38 35  1  1  0  0  0
 39 38  1  0  0  0  0
 39 40  1  0  0  0  0
 41 42  1  0  0  0  0
 41 39  1  0  0  0  0
 43 41  1  0  0  0  0
 44 43  1  0  0  0  0
 44 37  1  0  0  0  0
M  END
>  <minimizedAffinity>
-6.31883287

$$$$
