
 OpenBabel03252509203D

 25 27  0  0  0  0  0  0  0  0999 V2000
   45.2940   33.9720   45.1330 C   0  0  0  0  0  0  0  0  0  0  0  0
   45.8690   33.3890   43.9880 C   0  0  0  0  0  0  0  0  0  0  0  0
   46.8490   32.4400   44.2530 C   0  0  0  0  0  0  0  0  0  0  0  0
   47.2040   32.1190   45.5550 N   0  0  0  0  0  0  0  0  0  0  0  0
   46.6190   32.7090   46.6030 C   0  0  0  0  0  0  0  0  0  0  0  0
   45.6640   33.6360   46.3870 N   0  0  0  0  0  0  0  0  0  0  0  0
   44.5230   34.7220   45.0020 H   0  0  0  0  0  0  0  0  0  0  0  0
   47.0180   32.3360   47.5330 H   0  0  0  0  0  0  0  0  0  0  0  0
   45.4340   33.7800   42.7170 N   0  0  0  0  0  0  0  0  0  0  0  0
   44.6250   33.0760   41.7200 C   0  0  0  0  0  0  0  0  0  0  0  0
   45.1760   32.8850   40.7850 H   0  0  0  0  0  0  0  0  0  0  0  0
   43.4430   33.9780   41.3760 C   0  0  0  0  0  0  0  0  0  0  0  0
   42.8400   34.1280   42.3100 H   0  0  0  0  0  0  0  0  0  0  0  0
   43.8820   35.2530   40.8990 N   0  0  0  0  0  0  0  0  0  0  0  0
   44.4460   35.1820   40.0440 H   0  0  0  0  0  0  0  0  0  0  0  0
   44.5950   35.8940   41.9970 C   0  0  0  0  0  0  0  0  0  0  0  0
   45.8360   35.1000   42.2800 C   0  0  0  0  0  0  0  0  0  0  0  0
   47.4450   31.7030   43.0720 C   0  0  0  0  0  0  0  0  0  0  0  0
   48.7820   32.3490   42.6660 C   0  0  0  0  0  0  0  0  0  0  0  0
   48.6340   30.9310   43.3010 C   0  0  0  0  0  0  0  0  0  0  0  0
   46.7890   31.6340   42.1900 H   0  0  0  0  0  0  0  0  0  0  0  0
   49.1730   33.1420   43.2930 H   0  0  0  0  0  0  0  0  0  0  0  0
   48.9460   32.3650   41.5760 H   0  0  0  0  0  0  0  0  0  0  0  0
   49.0050   30.1200   42.6450 H   0  0  0  0  0  0  0  0  0  0  0  0
   49.0890   30.8850   44.3260 H   0  0  0  0  0  0  0  0  0  0  0  0
  1  6  1  0  0  0  0
  2  3  1  0  0  0  0
  2  1  2  0  0  0  0
  3  4  2  0  0  0  0
  4  5  1  0  0  0  0
  5  8  1  0  0  0  0
  6  5  2  0  0  0  0
  7  1  1  0  0  0  0
  9  2  1  0  0  0  0
 10  9  1  0  0  0  0
 11 10  1  0  0  0  0
 12 10  1  0  0  0  0
 12 13  1  0  0  0  0
 14 12  1  0  0  0  0
 14 16  1  0  0  0  0
 15 14  1  0  0  0  0
 16 17  1  0  0  0  0
 17  9  1  0  0  0  0
 18 20  1  0  0  0  0
 18  3  1  0  0  0  0
 19 18  1  0  0  0  0
 19 22  1  0  0  0  0
 19 20  1  0  0  0  0
 20 25  1  0  0  0  0
 21 18  1  0  0  0  0
 23 19  1  0  0  0  0
 24 20  1  0  0  0  0
M  END
>  <minimizedAffinity>
-3.29503584

>  <minimizedRMSD>
3.06317449

$$$$
