
 OpenBabel03252509283D

 21 22  0  0  0  0  0  0  0  0999 V2000
   47.0090   34.3330   42.3580 C   0  0  0  0  0  0  0  0  0  0  0  0
   47.0660   35.2670   41.7640 H   0  0  0  0  0  0  0  0  0  0  0  0
   46.4280   33.6260   41.7060 H   0  0  0  0  0  0  0  0  0  0  0  0
   44.5270   35.8980   44.6400 C   0  0  0  0  0  0  0  0  0  0  0  0
   45.3230   35.6620   43.4920 C   0  0  0  0  0  0  0  0  0  0  0  0
   46.1910   34.5680   43.5510 C   0  0  0  0  0  0  0  0  0  0  0  0
   46.2440   33.7950   44.6650 N   0  0  0  0  0  0  0  0  0  0  0  0
   45.4490   34.0760   45.7410 C   0  0  0  0  0  0  0  0  0  0  0  0
   44.6070   35.1120   45.7220 N   0  0  0  0  0  0  0  0  0  0  0  0
   43.8280   36.7210   44.6840 H   0  0  0  0  0  0  0  0  0  0  0  0
   45.2260   36.3210   42.6400 H   0  0  0  0  0  0  0  0  0  0  0  0
   45.4900   33.4570   46.6350 H   0  0  0  0  0  0  0  0  0  0  0  0
   48.2740   33.7190   42.5980 N   0  0  0  0  0  0  0  0  0  0  0  0
   48.3400   32.5060   41.8020 C   0  0  0  0  0  3  0  0  0  0  0  0
   48.5950   31.6260   42.4350 H   0  0  0  0  0  0  0  0  0  0  0  0
   49.4100   32.5890   40.7380 C   0  0  0  0  0  3  0  0  0  0  0  0
   49.2350   33.4080   40.0170 H   0  0  0  0  0  0  0  0  0  0  0  0
   50.6880   32.6900   41.3790 N   0  0  0  0  0  0  0  0  0  0  0  0
   50.9430   31.7910   41.8330 H   0  0  0  0  0  0  0  0  0  0  0  0
   50.6680   33.7150   42.4140 C   0  0  0  0  0  2  0  0  0  0  0  0
   49.3980   34.5610   42.3050 C   0  0  0  0  0  2  0  0  0  0  0  0
  1 13  1  0  0  0  0
  1  6  1  0  0  0  0
  2  1  1  0  0  0  0
  3  1  1  0  0  0  0
  4 10  1  0  0  0  0
  4  9  1  0  0  0  0
  5  6  1  0  0  0  0
  5  4  2  0  0  0  0
  6  7  2  0  0  0  0
  7  8  1  0  0  0  0
  8 12  1  0  0  0  0
  9  8  2  0  0  0  0
 11  5  1  0  0  0  0
 14 15  1  0  0  0  0
 14 13  1  0  0  0  0
 16 18  1  0  0  0  0
 16 14  1  0  0  0  0
 17 16  1  0  0  0  0
 18 19  1  0  0  0  0
 18 20  1  0  0  0  0
 21 20  1  0  0  0  0
 21 13  1  0  0  0  0
M  END
>  <minimizedAffinity>
-4.20179749

>  <minimizedRMSD>
1.66760087

$$$$
