
 OpenBabel03252509283D

 21 22  0  0  0  0  0  0  0  0999 V2000
   46.2710   33.8630   41.7850 C   0  0  0  0  0  0  0  0  0  0  0  0
   45.7960   34.3730   40.9240 H   0  0  0  0  0  0  0  0  0  0  0  0
   45.9040   32.8040   41.7160 H   0  0  0  0  0  0  0  0  0  0  0  0
   44.7180   36.2610   44.1640 C   0  0  0  0  0  0  0  0  0  0  0  0
   45.2450   35.7210   42.9650 C   0  0  0  0  0  0  0  0  0  0  0  0
   45.7290   34.4110   43.0320 C   0  0  0  0  0  0  0  0  0  0  0  0
   45.6810   33.7230   44.2010 N   0  0  0  0  0  0  0  0  0  0  0  0
   45.1600   34.3010   45.3240 C   0  0  0  0  0  0  0  0  0  0  0  0
   44.6880   35.5500   45.2990 N   0  0  0  0  0  0  0  0  0  0  0  0
   44.3220   37.2660   44.2050 H   0  0  0  0  0  0  0  0  0  0  0  0
   45.2490   36.3300   42.0710 H   0  0  0  0  0  0  0  0  0  0  0  0
   45.1220   33.7510   46.2620 H   0  0  0  0  0  0  0  0  0  0  0  0
   47.6950   33.8050   41.7150 N   0  0  0  0  0  0  0  0  0  0  0  0
   48.1450   34.8930   40.8660 C   0  0  0  0  0  3  0  0  0  0  0  0
   48.8030   34.5170   40.0490 H   0  0  0  0  0  0  0  0  0  0  0  0
   48.9600   35.9080   41.6340 C   0  0  0  0  0  3  0  0  0  0  0  0
   48.3890   36.3870   42.4500 H   0  0  0  0  0  0  0  0  0  0  0  0
   50.1560   35.2750   42.1030 N   0  0  0  0  0  0  0  0  0  0  0  0
   50.8010   35.0750   41.3130 H   0  0  0  0  0  0  0  0  0  0  0  0
   49.8510   34.0070   42.7520 C   0  0  0  0  0  2  0  0  0  0  0  0
   48.3460   33.8770   42.9920 C   0  0  0  0  0  2  0  0  0  0  0  0
  1  6  1  0  0  0  0
  2  1  1  0  0  0  0
  3  1  1  0  0  0  0
  4 10  1  0  0  0  0
  4  9  1  0  0  0  0
  5  6  1  0  0  0  0
  5  4  2  0  0  0  0
  6  7  2  0  0  0  0
  7  8  1  0  0  0  0
  8 12  1  0  0  0  0
  9  8  2  0  0  0  0
 11  5  1  0  0  0  0
 13  1  1  0  0  0  0
 13 21  1  0  0  0  0
 14 16  1  0  0  0  0
 14 13  1  0  0  0  0
 15 14  1  0  0  0  0
 16 18  1  0  0  0  0
 16 17  1  0  0  0  0
 18 20  1  0  0  0  0
 19 18  1  0  0  0  0
 20 21  1  0  0  0  0
M  END
>  <minimizedAffinity>
-4.20295191

>  <minimizedRMSD>
1.63276517

$$$$
