
 OpenBabel03252509283D

 21 22  0  0  0  0  0  0  0  0999 V2000
   47.0080   34.3330   42.3580 C   0  0  0  0  0  0  0  0  0  0  0  0
   47.0630   35.2670   41.7630 H   0  0  0  0  0  0  0  0  0  0  0  0
   46.4270   33.6250   41.7070 H   0  0  0  0  0  0  0  0  0  0  0  0
   44.5270   35.8990   44.6410 C   0  0  0  0  0  0  0  0  0  0  0  0
   45.3230   35.6620   43.4930 C   0  0  0  0  0  0  0  0  0  0  0  0
   46.1900   34.5680   43.5510 C   0  0  0  0  0  0  0  0  0  0  0  0
   46.2420   33.7940   44.6650 N   0  0  0  0  0  0  0  0  0  0  0  0
   45.4480   34.0760   45.7410 C   0  0  0  0  0  0  0  0  0  0  0  0
   44.6070   35.1130   45.7230 N   0  0  0  0  0  0  0  0  0  0  0  0
   43.8280   36.7220   44.6850 H   0  0  0  0  0  0  0  0  0  0  0  0
   45.2260   36.3220   42.6410 H   0  0  0  0  0  0  0  0  0  0  0  0
   45.4890   33.4570   46.6360 H   0  0  0  0  0  0  0  0  0  0  0  0
   48.2740   33.7190   42.5990 N   0  0  0  0  0  0  0  0  0  0  0  0
   48.3400   32.5070   41.8030 C   0  0  0  0  0  3  0  0  0  0  0  0
   48.5950   31.6260   42.4350 H   0  0  0  0  0  0  0  0  0  0  0  0
   49.4100   32.5900   40.7380 C   0  0  0  0  0  3  0  0  0  0  0  0
   49.2360   33.4080   40.0170 H   0  0  0  0  0  0  0  0  0  0  0  0
   50.6880   32.6920   41.3810 N   0  0  0  0  0  0  0  0  0  0  0  0
   50.9430   31.7940   41.8340 H   0  0  0  0  0  0  0  0  0  0  0  0
   50.6670   33.7180   42.4150 C   0  0  0  0  0  2  0  0  0  0  0  0
   49.3970   34.5630   42.3050 C   0  0  0  0  0  2  0  0  0  0  0  0
  1 13  1  0  0  0  0
  1  6  1  0  0  0  0
  2  1  1  0  0  0  0
  3  1  1  0  0  0  0
  4 10  1  0  0  0  0
  4  9  1  0  0  0  0
  5  6  1  0  0  0  0
  5  4  2  0  0  0  0
  6  7  2  0  0  0  0
  7  8  1  0  0  0  0
  8 12  1  0  0  0  0
  9  8  2  0  0  0  0
 11  5  1  0  0  0  0
 14 15  1  0  0  0  0
 14 13  1  0  0  0  0
 16 18  1  0  0  0  0
 16 14  1  0  0  0  0
 17 16  1  0  0  0  0
 18 19  1  0  0  0  0
 18 20  1  0  0  0  0
 21 20  1  0  0  0  0
 21 13  1  0  0  0  0
M  END
>  <minimizedAffinity>
-4.20411205

>  <minimizedRMSD>
2.32470655

$$$$
