
 OpenBabel03252509303D

 21 22  0  0  0  0  0  0  0  0999 V2000
   38.6230   27.9290   41.2360 C   0  0  0  0  0  0  0  0  0  0  0  0
   38.9540   27.8620   40.1800 H   0  0  0  0  0  0  0  0  0  0  0  0
   39.2950   28.7060   41.6880 H   0  0  0  0  0  0  0  0  0  0  0  0
   40.1270   25.5370   43.6510 C   0  0  0  0  0  0  0  0  0  0  0  0
   39.8260   26.7500   42.9850 C   0  0  0  0  0  0  0  0  0  0  0  0
   38.9260   26.6680   41.9180 C   0  0  0  0  0  0  0  0  0  0  0  0
   38.3900   25.4710   41.5660 N   0  0  0  0  0  0  0  0  0  0  0  0
   38.7220   24.3360   42.2500 C   0  0  0  0  0  0  0  0  0  0  0  0
   39.5770   24.3750   43.2750 N   0  0  0  0  0  0  0  0  0  0  0  0
   40.8120   25.5060   44.4870 H   0  0  0  0  0  0  0  0  0  0  0  0
   40.2930   27.6660   43.3220 H   0  0  0  0  0  0  0  0  0  0  0  0
   38.2930   23.3760   41.9690 H   0  0  0  0  0  0  0  0  0  0  0  0
   37.2860   28.4020   41.3990 N   0  0  0  0  0  0  0  0  0  0  0  0
   37.3380   29.6330   42.1660 C   0  0  0  0  0  3  0  0  0  0  0  0
   36.6670   29.5790   43.0550 H   0  0  0  0  0  0  0  0  0  0  0  0
   36.8770   30.8220   41.3560 C   0  0  0  0  0  3  0  0  0  0  0  0
   37.5040   31.0020   40.4650 H   0  0  0  0  0  0  0  0  0  0  0  0
   35.4950   30.6410   41.0240 N   0  0  0  0  0  0  0  0  0  0  0  0
   34.8970   30.7470   41.8670 H   0  0  0  0  0  0  0  0  0  0  0  0
   35.2620   29.3100   40.4810 C   0  0  0  0  0  2  0  0  0  0  0  0
   36.5900   28.6210   40.1630 C   0  0  0  0  0  2  0  0  0  0  0  0
  1 13  1  0  0  0  0
  1  3  1  0  0  0  0
  1  6  1  0  0  0  0
  2  1  1  0  0  0  0
  4 10  1  0  0  0  0
  5 11  1  0  0  0  0
  5  4  2  0  0  0  0
  6  5  1  0  0  0  0
  7  6  2  0  0  0  0
  7  8  1  0  0  0  0
  8  9  2  0  0  0  0
  9  4  1  0  0  0  0
 12  8  1  0  0  0  0
 13 14  1  0  0  0  0
 14 15  1  0  0  0  0
 16 14  1  0  0  0  0
 17 16  1  0  0  0  0
 18 16  1  0  0  0  0
 18 19  1  0  0  0  0
 20 18  1  0  0  0  0
 21 20  1  0  0  0  0
 21 13  1  0  0  0  0
M  END
>  <minimizedAffinity>
-3.9711144

$$$$

 OpenBabel03252509303D

 21 22  0  0  0  0  0  0  0  0999 V2000
   36.7080   30.5590   41.3070 C   0  0  0  0  0  0  0  0  0  0  0  0
   36.4390   31.2560   42.1260 H   0  0  0  0  0  0  0  0  0  0  0  0
   35.7540   30.4360   40.7260 H   0  0  0  0  0  0  0  0  0  0  0  0
   37.0600   26.8690   41.5920 C   0  0  0  0  0  0  0  0  0  0  0  0
   36.7590   28.1450   41.0530 C   0  0  0  0  0  0  0  0  0  0  0  0
   37.0230   29.2450   41.8740 C   0  0  0  0  0  0  0  0  0  0  0  0
   37.5410   29.0640   43.1160 N   0  0  0  0  0  0  0  0  0  0  0  0
   37.8090   27.8060   43.5770 C   0  0  0  0  0  0  0  0  0  0  0  0
   37.5700   26.7300   42.8230 N   0  0  0  0  0  0  0  0  0  0  0  0
   36.8880   25.9630   41.0280 H   0  0  0  0  0  0  0  0  0  0  0  0
   36.3480   28.2110   40.0550 H   0  0  0  0  0  0  0  0  0  0  0  0
   38.2230   27.6590   44.5730 H   0  0  0  0  0  0  0  0  0  0  0  0
   37.6760   31.0770   40.3960 N   0  0  0  0  0  0  0  0  0  0  0  0
   36.9900   31.9570   39.4670 C   0  0  0  0  0  3  0  0  0  0  0  0
   37.2010   31.6670   38.4110 H   0  0  0  0  0  0  0  0  0  0  0  0
   37.4410   33.3910   39.6120 C   0  0  0  0  0  3  0  0  0  0  0  0
   37.2370   33.8040   40.6160 H   0  0  0  0  0  0  0  0  0  0  0  0
   38.8270   33.4740   39.2580 N   0  0  0  0  0  0  0  0  0  0  0  0
   38.9540   33.3410   38.2350 H   0  0  0  0  0  0  0  0  0  0  0  0
   39.5980   32.4410   39.9370 C   0  0  0  0  0  2  0  0  0  0  0  0
   38.7570   31.7760   41.0290 C   0  0  0  0  0  2  0  0  0  0  0  0
  1  6  1  0  0  0  0
  1  2  1  0  0  0  0
  3  1  1  0  0  0  0
  4  9  1  0  0  0  0
  5  4  2  0  0  0  0
  5  6  1  0  0  0  0
  6  7  2  0  0  0  0
  7  8  1  0  0  0  0
  8 12  1  0  0  0  0
  9  8  2  0  0  0  0
 10  4  1  0  0  0  0
 11  5  1  0  0  0  0
 13 21  1  0  0  0  0
 13  1  1  0  0  0  0
 14 16  1  0  0  0  0
 14 13  1  0  0  0  0
 15 14  1  0  0  0  0
 16 17  1  0  0  0  0
 18 16  1  0  0  0  0
 18 20  1  0  0  0  0
 19 18  1  0  0  0  0
 20 21  1  0  0  0  0
M  END
>  <minimizedAffinity>
-3.90687871

$$$$

 OpenBabel03252509303D

 21 22  0  0  0  0  0  0  0  0999 V2000
   37.2950   31.0420   40.2950 C   0  0  0  0  0  0  0  0  0  0  0  0
   37.1240   32.0180   40.7900 H   0  0  0  0  0  0  0  0  0  0  0  0
   36.3460   30.8540   39.7230 H   0  0  0  0  0  0  0  0  0  0  0  0
   36.5070   27.9490   42.2010 C   0  0  0  0  0  0  0  0  0  0  0  0
   36.4320   28.9690   41.2210 C   0  0  0  0  0  0  0  0  0  0  0  0
   37.3810   29.9920   41.3140 C   0  0  0  0  0  0  0  0  0  0  0  0
   38.3090   29.9760   42.3040 N   0  0  0  0  0  0  0  0  0  0  0  0
   38.3270   28.9620   43.2200 C   0  0  0  0  0  0  0  0  0  0  0  0
   37.4380   27.9680   43.1640 N   0  0  0  0  0  0  0  0  0  0  0  0
   35.8140   27.1190   42.2060 H   0  0  0  0  0  0  0  0  0  0  0  0
   35.6650   28.9140   40.4610 H   0  0  0  0  0  0  0  0  0  0  0  0
   39.0700   28.9490   44.0160 H   0  0  0  0  0  0  0  0  0  0  0  0
   38.3530   31.0500   39.3380 N   0  0  0  0  0  0  0  0  0  0  0  0
   37.7950   30.6770   38.0510 C   0  0  0  0  0  3  0  0  0  0  0  0
   38.3570   29.8240   37.6030 H   0  0  0  0  0  0  0  0  0  0  0  0
   37.8740   31.8090   37.0540 C   0  0  0  0  0  3  0  0  0  0  0  0
   37.3090   32.7020   37.3740 H   0  0  0  0  0  0  0  0  0  0  0  0
   39.2540   32.0990   36.7980 N   0  0  0  0  0  0  0  0  0  0  0  0
   39.6950   31.3350   36.2490 H   0  0  0  0  0  0  0  0  0  0  0  0
   39.9960   32.2310   38.0450 C   0  0  0  0  0  2  0  0  0  0  0  0
   39.0350   32.3080   39.2330 C   0  0  0  0  0  2  0  0  0  0  0  0
  1  2  1  0  0  0  0
  1  6  1  0  0  0  0
  3  1  1  0  0  0  0
  4 10  1  0  0  0  0
  4  9  1  0  0  0  0
  5  6  1  0  0  0  0
  5  4  2  0  0  0  0
  6  7  2  0  0  0  0
  7  8  1  0  0  0  0
  8 12  1  0  0  0  0
  9  8  2  0  0  0  0
 11  5  1  0  0  0  0
 13  1  1  0  0  0  0
 14 13  1  0  0  0  0
 15 14  1  0  0  0  0
 16 17  1  0  0  0  0
 16 14  1  0  0  0  0
 18 16  1  0  0  0  0
 18 20  1  0  0  0  0
 19 18  1  0  0  0  0
 20 21  1  0  0  0  0
 21 13  1  0  0  0  0
M  END
>  <minimizedAffinity>
-3.86146474

$$$$

 OpenBabel03252509303D

 21 22  0  0  0  0  0  0  0  0999 V2000
   38.3060   27.5680   40.9570 C   0  0  0  0  0  0  0  0  0  0  0  0
   38.8250   27.9300   40.0480 H   0  0  0  0  0  0  0  0  0  0  0  0
   38.9750   27.8840   41.8020 H   0  0  0  0  0  0  0  0  0  0  0  0
   37.3560   24.0790   41.8190 C   0  0  0  0  0  0  0  0  0  0  0  0
   37.3710   25.4960   41.8110 C   0  0  0  0  0  0  0  0  0  0  0  0
   38.2980   26.1020   40.9580 C   0  0  0  0  0  0  0  0  0  0  0  0
   39.1240   25.3430   40.1940 N   0  0  0  0  0  0  0  0  0  0  0  0
   39.0590   23.9790   40.2490 C   0  0  0  0  0  0  0  0  0  0  0  0
   38.1870   23.3630   41.0500 N   0  0  0  0  0  0  0  0  0  0  0  0
   36.6720   23.5250   42.4480 H   0  0  0  0  0  0  0  0  0  0  0  0
   36.6820   26.0330   42.4480 H   0  0  0  0  0  0  0  0  0  0  0  0
   39.7210   23.3690   39.6370 H   0  0  0  0  0  0  0  0  0  0  0  0
   37.0390   28.1830   41.1890 N   0  0  0  0  0  0  0  0  0  0  0  0
   37.2510   29.3310   42.0520 C   0  0  0  0  0  3  0  0  0  0  0  0
   36.5900   29.2850   42.9480 H   0  0  0  0  0  0  0  0  0  0  0  0
   36.9270   30.6300   41.3500 C   0  0  0  0  0  3  0  0  0  0  0  0
   37.5590   30.8060   40.4620 H   0  0  0  0  0  0  0  0  0  0  0  0
   35.5280   30.6440   41.0370 N   0  0  0  0  0  0  0  0  0  0  0  0
   34.9590   30.7510   41.9000 H   0  0  0  0  0  0  0  0  0  0  0  0
   35.1280   29.4000   40.3950 C   0  0  0  0  0  2  0  0  0  0  0  0
   36.3580   28.5860   39.9920 C   0  0  0  0  0  2  0  0  0  0  0  0
  1  6  1  0  0  0  0
  1 13  1  0  0  0  0
  1  3  1  0  0  0  0
  2  1  1  0  0  0  0
  4 10  1  0  0  0  0
  5  4  1  0  0  0  0
  5 11  1  0  0  0  0
  6  5  2  0  0  0  0
  7  8  2  0  0  0  0
  7  6  1  0  0  0  0
  8  9  1  0  0  0  0
  9  4  2  0  0  0  0
 12  8  1  0  0  0  0
 13 14  1  0  0  0  0
 14 15  1  0  0  0  0
 16 14  1  0  0  0  0
 17 16  1  0  0  0  0
 18 16  1  0  0  0  0
 18 19  1  0  0  0  0
 20 18  1  0  0  0  0
 21 20  1  0  0  0  0
 21 13  1  0  0  0  0
M  END
>  <minimizedAffinity>
-3.79086661

$$$$

 OpenBabel03252509303D

 21 22  0  0  0  0  0  0  0  0999 V2000
   38.0430   29.9680   40.4100 C   0  0  0  0  0  0  0  0  0  0  0  0
   39.0570   29.5350   40.2970 H   0  0  0  0  0  0  0  0  0  0  0  0
   37.4920   29.6200   39.4950 H   0  0  0  0  0  0  0  0  0  0  0  0
   37.1930   33.4640   39.4770 C   0  0  0  0  0  0  0  0  0  0  0  0
   37.1200   32.0520   39.5750 C   0  0  0  0  0  0  0  0  0  0  0  0
   38.1280   31.4280   40.3150 C   0  0  0  0  0  0  0  0  0  0  0  0
   39.1100   32.1650   40.8940 N   0  0  0  0  0  0  0  0  0  0  0  0
   39.1230   33.5250   40.7610 C   0  0  0  0  0  0  0  0  0  0  0  0
   38.1770   34.1580   40.0630 N   0  0  0  0  0  0  0  0  0  0  0  0
   36.4560   34.0310   38.9240 H   0  0  0  0  0  0  0  0  0  0  0  0
   36.3080   31.5320   39.0860 H   0  0  0  0  0  0  0  0  0  0  0  0
   39.9100   34.1180   41.2250 H   0  0  0  0  0  0  0  0  0  0  0  0
   37.3200   29.4720   41.5350 N   0  0  0  0  0  0  0  0  0  0  0  0
   36.5100   28.3530   41.0890 C   0  0  0  0  0  3  0  0  0  0  0  0
   35.4400   28.4970   41.3670 H   0  0  0  0  0  0  0  0  0  0  0  0
   36.9450   27.0540   41.7270 C   0  0  0  0  0  3  0  0  0  0  0  0
   37.9860   26.7830   41.4800 H   0  0  0  0  0  0  0  0  0  0  0  0
   36.7230   27.1410   43.1400 N   0  0  0  0  0  0  0  0  0  0  0  0
   35.7070   27.1240   43.3550 H   0  0  0  0  0  0  0  0  0  0  0  0
   37.2660   28.3830   43.6740 C   0  0  0  0  0  2  0  0  0  0  0  0
   38.1510   29.0710   42.6330 C   0  0  0  0  0  2  0  0  0  0  0  0
  1 13  1  0  0  0  0
  2  1  1  0  0  0  0
  3  1  1  0  0  0  0
  4  5  2  0  0  0  0
  4  9  1  0  0  0  0
  5  6  1  0  0  0  0
  6  1  1  0  0  0  0
  6  7  2  0  0  0  0
  8  7  1  0  0  0  0
  8 12  1  0  0  0  0
  9  8  2  0  0  0  0
 10  4  1  0  0  0  0
 11  5  1  0  0  0  0
 13 21  1  0  0  0  0
 14 15  1  0  0  0  0
 14 13  1  0  0  0  0
 14 16  1  0  0  0  0
 16 18  1  0  0  0  0
 17 16  1  0  0  0  0
 18 19  1  0  0  0  0
 18 20  1  0  0  0  0
 21 20  1  0  0  0  0
M  END
>  <minimizedAffinity>
-3.7801218

$$$$

 OpenBabel03252509303D

 21 22  0  0  0  0  0  0  0  0999 V2000
   37.2020   27.8860   42.6230 C   0  0  0  0  0  0  0  0  0  0  0  0
   36.9520   28.3220   43.6110 H   0  0  0  0  0  0  0  0  0  0  0  0
   36.2210   27.5010   42.2350 H   0  0  0  0  0  0  0  0  0  0  0  0
   38.4670   24.3990   42.3720 C   0  0  0  0  0  0  0  0  0  0  0  0
   37.6410   25.5370   42.1930 C   0  0  0  0  0  0  0  0  0  0  0  0
   38.0630   26.7160   42.8150 C   0  0  0  0  0  0  0  0  0  0  0  0
   39.2080   26.7330   43.5440 N   0  0  0  0  0  0  0  0  0  0  0  0
   39.9600   25.6000   43.6790 C   0  0  0  0  0  0  0  0  0  0  0  0
   39.5900   24.4550   43.1000 N   0  0  0  0  0  0  0  0  0  0  0  0
   38.2180   23.4460   41.9270 H   0  0  0  0  0  0  0  0  0  0  0  0
   36.7430   25.4470   41.5970 H   0  0  0  0  0  0  0  0  0  0  0  0
   40.8780   25.6120   44.2640 H   0  0  0  0  0  0  0  0  0  0  0  0
   37.6720   28.8370   41.6690 N   0  0  0  0  0  0  0  0  0  0  0  0
   36.5350   29.2800   40.8820 C   0  0  0  0  0  3  0  0  0  0  0  0
   36.7310   29.1580   39.7910 H   0  0  0  0  0  0  0  0  0  0  0  0
   36.2360   30.7450   41.0990 C   0  0  0  0  0  3  0  0  0  0  0  0
   35.9800   30.9800   42.1470 H   0  0  0  0  0  0  0  0  0  0  0  0
   37.3480   31.5140   40.6230 N   0  0  0  0  0  0  0  0  0  0  0  0
   37.3990   31.4850   39.5860 H   0  0  0  0  0  0  0  0  0  0  0  0
   38.6030   30.9860   41.1410 C   0  0  0  0  0  2  0  0  0  0  0  0
   38.3370   29.9670   42.2500 C   0  0  0  0  0  2  0  0  0  0  0  0
  1  6  1  0  0  0  0
  1  2  1  0  0  0  0
  3  1  1  0  0  0  0
  4  9  1  0  0  0  0
  5  4  2  0  0  0  0
  5  6  1  0  0  0  0
  6  7  2  0  0  0  0
  7  8  1  0  0  0  0
  8 12  1  0  0  0  0
  9  8  2  0  0  0  0
 10  4  1  0  0  0  0
 11  5  1  0  0  0  0
 13 21  1  0  0  0  0
 13  1  1  0  0  0  0
 14 16  1  0  0  0  0
 14 13  1  0  0  0  0
 15 14  1  0  0  0  0
 16 17  1  0  0  0  0
 18 16  1  0  0  0  0
 18 20  1  0  0  0  0
 19 18  1  0  0  0  0
 20 21  1  0  0  0  0
M  END
>  <minimizedAffinity>
-3.7755909

$$$$

 OpenBabel03252509303D

 21 22  0  0  0  0  0  0  0  0999 V2000
   39.0670   30.2800   40.8970 C   0  0  0  0  0  0  0  0  0  0  0  0
   39.4140   29.8760   39.9260 H   0  0  0  0  0  0  0  0  0  0  0  0
   40.0110   30.4230   41.4890 H   0  0  0  0  0  0  0  0  0  0  0  0
   37.5210   28.3580   43.6780 C   0  0  0  0  0  0  0  0  0  0  0  0
   38.2720   29.3440   42.9920 C   0  0  0  0  0  0  0  0  0  0  0  0
   38.2880   29.2560   41.5970 C   0  0  0  0  0  0  0  0  0  0  0  0
   37.6080   28.2640   40.9660 N   0  0  0  0  0  0  0  0  0  0  0  0
   36.9020   27.3420   41.6870 C   0  0  0  0  0  0  0  0  0  0  0  0
   36.8630   27.3940   43.0210 N   0  0  0  0  0  0  0  0  0  0  0  0
   37.4530   28.3490   44.7570 H   0  0  0  0  0  0  0  0  0  0  0  0
   38.7880   30.1040   43.5630 H   0  0  0  0  0  0  0  0  0  0  0  0
   36.3570   26.5460   41.1830 H   0  0  0  0  0  0  0  0  0  0  0  0
   38.4460   31.5620   40.8070 N   0  0  0  0  0  0  0  0  0  0  0  0
   39.4620   32.5700   41.0530 C   0  0  0  0  0  3  0  0  0  0  0  0
   39.1470   33.2670   41.8630 H   0  0  0  0  0  0  0  0  0  0  0  0
   39.7150   33.4230   39.8320 C   0  0  0  0  0  3  0  0  0  0  0  0
   40.0800   32.8390   38.9690 H   0  0  0  0  0  0  0  0  0  0  0  0
   38.5200   34.1560   39.5300 N   0  0  0  0  0  0  0  0  0  0  0  0
   38.3510   34.8930   40.2420 H   0  0  0  0  0  0  0  0  0  0  0  0
   37.3600   33.2750   39.5230 C   0  0  0  0  0  2  0  0  0  0  0  0
   37.8000   31.8100   39.5510 C   0  0  0  0  0  2  0  0  0  0  0  0
  1  3  1  0  0  0  0
  1  6  1  0  0  0  0
  2  1  1  0  0  0  0
  4 10  1  0  0  0  0
  5 11  1  0  0  0  0
  5  4  2  0  0  0  0
  6  5  1  0  0  0  0
  7  6  2  0  0  0  0
  7  8  1  0  0  0  0
  8  9  2  0  0  0  0
  9  4  1  0  0  0  0
 12  8  1  0  0  0  0
 13  1  1  0  0  0  0
 13 14  1  0  0  0  0
 14 15  1  0  0  0  0
 16 14  1  0  0  0  0
 17 16  1  0  0  0  0
 18 16  1  0  0  0  0
 18 19  1  0  0  0  0
 20 18  1  0  0  0  0
 20 21  1  0  0  0  0
 21 13  1  0  0  0  0
M  END
>  <minimizedAffinity>
-3.77087641

$$$$

 OpenBabel03252509303D

 21 22  0  0  0  0  0  0  0  0999 V2000
   37.7020   29.1450   39.8990 C   0  0  0  0  0  0  0  0  0  0  0  0
   36.7190   28.8910   39.4550 H   0  0  0  0  0  0  0  0  0  0  0  0
   38.4460   28.6300   39.2330 H   0  0  0  0  0  0  0  0  0  0  0  0
   36.7230   27.4100   43.0390 C   0  0  0  0  0  0  0  0  0  0  0  0
   36.6250   28.0240   41.7650 C   0  0  0  0  0  0  0  0  0  0  0  0
   37.8150   28.5120   41.2170 C   0  0  0  0  0  0  0  0  0  0  0  0
   38.9830   28.3890   41.8970 N   0  0  0  0  0  0  0  0  0  0  0  0
   39.0100   27.7870   43.1230 C   0  0  0  0  0  0  0  0  0  0  0  0
   37.8950   27.3080   43.6790 N   0  0  0  0  0  0  0  0  0  0  0  0
   35.8550   27.0040   43.5380 H   0  0  0  0  0  0  0  0  0  0  0  0
   35.6590   28.0850   41.2830 H   0  0  0  0  0  0  0  0  0  0  0  0
   39.9460   27.6880   43.6700 H   0  0  0  0  0  0  0  0  0  0  0  0
   38.0170   30.5360   39.8630 N   0  0  0  0  0  0  0  0  0  0  0  0
   38.5790   30.8330   38.5580 C   0  0  0  0  0  3  0  0  0  0  0  0
   39.5660   31.3430   38.6540 H   0  0  0  0  0  0  0  0  0  0  0  0
   37.6950   31.7650   37.7630 C   0  0  0  0  0  3  0  0  0  0  0  0
   36.6950   31.3410   37.5640 H   0  0  0  0  0  0  0  0  0  0  0  0
   37.6290   33.0250   38.4430 N   0  0  0  0  0  0  0  0  0  0  0  0
   38.5370   33.5270   38.3760 H   0  0  0  0  0  0  0  0  0  0  0  0
   37.3310   32.8370   39.8560 C   0  0  0  0  0  2  0  0  0  0  0  0
   36.8970   31.3940   40.1240 C   0  0  0  0  0  2  0  0  0  0  0  0
  1  6  1  0  0  0  0
  2  1  1  0  0  0  0
  3  1  1  0  0  0  0
  4 10  1  0  0  0  0
  4  9  1  0  0  0  0
  5  4  2  0  0  0  0
  6  5  1  0  0  0  0
  6  7  2  0  0  0  0
  7  8  1  0  0  0  0
  8 12  1  0  0  0  0
  8  9  2  0  0  0  0
 11  5  1  0  0  0  0
 13  1  1  0  0  0  0
 13 21  1  0  0  0  0
 14 15  1  0  0  0  0
 14 13  1  0  0  0  0
 16 18  1  0  0  0  0
 16 14  1  0  0  0  0
 17 16  1  0  0  0  0
 18 20  1  0  0  0  0
 19 18  1  0  0  0  0
 20 21  1  0  0  0  0
M  END
>  <minimizedAffinity>
-3.6475687

$$$$

 OpenBabel03252509303D

 21 22  0  0  0  0  0  0  0  0999 V2000
   38.0780   32.0490   40.5940 C   0  0  0  0  0  0  0  0  0  0  0  0
   37.3240   32.8610   40.5850 H   0  0  0  0  0  0  0  0  0  0  0  0
   38.5580   32.1300   41.6060 H   0  0  0  0  0  0  0  0  0  0  0  0
   41.0540   33.6410   39.0340 C   0  0  0  0  0  0  0  0  0  0  0  0
   40.0380   33.3430   39.9760 C   0  0  0  0  0  0  0  0  0  0  0  0
   39.1240   32.3500   39.6120 C   0  0  0  0  0  0  0  0  0  0  0  0
   39.2330   31.7260   38.4110 N   0  0  0  0  0  0  0  0  0  0  0  0
   40.2360   32.0610   37.5460 C   0  0  0  0  0  0  0  0  0  0  0  0
   41.1290   33.0040   37.8580 N   0  0  0  0  0  0  0  0  0  0  0  0
   41.8040   34.3950   39.2310 H   0  0  0  0  0  0  0  0  0  0  0  0
   40.0150   33.8820   40.9140 H   0  0  0  0  0  0  0  0  0  0  0  0
   40.3240   31.5620   36.5820 H   0  0  0  0  0  0  0  0  0  0  0  0
   37.5230   30.7370   40.5090 N   0  0  0  0  0  0  0  0  0  0  0  0
   38.2630   29.8790   41.4170 C   0  0  0  0  0  3  0  0  0  0  0  0
   38.6480   28.9760   40.8890 H   0  0  0  0  0  0  0  0  0  0  0  0
   37.3970   29.3750   42.5470 C   0  0  0  0  0  3  0  0  0  0  0  0
   36.9930   30.1900   43.1740 H   0  0  0  0  0  0  0  0  0  0  0  0
   36.3650   28.5450   41.9990 N   0  0  0  0  0  0  0  0  0  0  0  0
   36.7600   27.6490   41.6520 H   0  0  0  0  0  0  0  0  0  0  0  0
   35.7120   29.2040   40.8760 C   0  0  0  0  0  2  0  0  0  0  0  0
   36.1210   30.6770   40.8080 C   0  0  0  0  0  2  0  0  0  0  0  0
  1  3  1  0  0  0  0
  2  1  1  0  0  0  0
  4 10  1  0  0  0  0
  4  5  1  0  0  0  0
  5 11  1  0  0  0  0
  6  5  2  0  0  0  0
  6  1  1  0  0  0  0
  7  6  1  0  0  0  0
  8  9  1  0  0  0  0
  8  7  2  0  0  0  0
  9  4  2  0  0  0  0
 12  8  1  0  0  0  0
 13  1  1  0  0  0  0
 13 21  1  0  0  0  0
 13 14  1  0  0  0  0
 14 16  1  0  0  0  0
 15 14  1  0  0  0  0
 16 17  1  0  0  0  0
 18 16  1  0  0  0  0
 19 18  1  0  0  0  0
 20 18  1  0  0  0  0
 21 20  1  0  0  0  0
M  END
>  <minimizedAffinity>
-3.60723352

$$$$
