
 OpenBabel03252509283D

 21 22  0  0  0  0  0  0  0  0999 V2000
   47.5100   33.2110   43.6770 C   0  0  0  0  0  0  0  0  0  0  0  0
   47.1550   32.1770   43.8610 H   0  0  0  0  0  0  0  0  0  0  0  0
   48.3100   33.3690   44.4500 H   0  0  0  0  0  0  0  0  0  0  0  0
   45.0780   35.9960   43.2890 C   0  0  0  0  0  0  0  0  0  0  0  0
   46.1180   35.0790   42.9940 C   0  0  0  0  0  0  0  0  0  0  0  0
   46.4330   34.1540   43.9930 C   0  0  0  0  0  0  0  0  0  0  0  0
   45.7590   34.1620   45.1710 N   0  0  0  0  0  0  0  0  0  0  0  0
   44.7660   35.0740   45.3940 C   0  0  0  0  0  0  0  0  0  0  0  0
   44.4350   35.9730   44.4640 N   0  0  0  0  0  0  0  0  0  0  0  0
   44.7670   36.7460   42.5750 H   0  0  0  0  0  0  0  0  0  0  0  0
   46.6090   35.1330   42.0320 H   0  0  0  0  0  0  0  0  0  0  0  0
   44.2250   35.0820   46.3390 H   0  0  0  0  0  0  0  0  0  0  0  0
   48.1290   33.3980   42.4050 N   0  0  0  0  0  0  0  0  0  0  0  0
   49.4880   33.8550   42.6330 C   0  0  0  0  0  3  0  0  0  0  0  0
   49.6920   34.7960   42.0710 H   0  0  0  0  0  0  0  0  0  0  0  0
   50.5080   32.8460   42.1590 C   0  0  0  0  0  3  0  0  0  0  0  0
   50.4300   31.8790   42.6850 H   0  0  0  0  0  0  0  0  0  0  0  0
   50.3890   32.7070   40.7380 N   0  0  0  0  0  0  0  0  0  0  0  0
   50.7310   33.5610   40.2540 H   0  0  0  0  0  0  0  0  0  0  0  0
   48.9980   32.5090   40.3520 C   0  0  0  0  0  2  0  0  0  0  0  0
   48.1370   32.2220   41.5830 C   0  0  0  0  0  2  0  0  0  0  0  0
  1  2  1  0  0  0  0
  1  6  1  0  0  0  0
  1  3  1  0  0  0  0
  4  9  1  0  0  0  0
  5  4  2  0  0  0  0
  5  6  1  0  0  0  0
  6  7  2  0  0  0  0
  7  8  1  0  0  0  0
  8 12  1  0  0  0  0
  9  8  2  0  0  0  0
 10  4  1  0  0  0  0
 11  5  1  0  0  0  0
 13 14  1  0  0  0  0
 13  1  1  0  0  0  0
 15 14  1  0  0  0  0
 16 14  1  0  0  0  0
 16 17  1  0  0  0  0
 18 16  1  0  0  0  0
 19 18  1  0  0  0  0
 20 18  1  0  0  0  0
 20 21  1  0  0  0  0
 21 13  1  0  0  0  0
M  END
>  <minimizedAffinity>
-3.9887886

>  <minimizedRMSD>
2.15377522

$$$$
