
 OpenBabel03252509283D

 21 22  0  0  0  0  0  0  0  0999 V2000
   44.6780   34.7250   41.0840 C   0  0  0  0  0  0  0  0  0  0  0  0
   45.6230   34.3440   40.6480 H   0  0  0  0  0  0  0  0  0  0  0  0
   44.6360   35.7990   40.7570 H   0  0  0  0  0  0  0  0  0  0  0  0
   45.4260   33.5840   44.5420 C   0  0  0  0  0  0  0  0  0  0  0  0
   45.3130   33.5810   43.1300 C   0  0  0  0  0  0  0  0  0  0  0  0
   44.7900   34.7390   42.5450 C   0  0  0  0  0  0  0  0  0  0  0  0
   44.4200   35.7900   43.3210 N   0  0  0  0  0  0  0  0  0  0  0  0
   44.5550   35.7290   44.6790 C   0  0  0  0  0  0  0  0  0  0  0  0
   45.0500   34.6410   45.2740 N   0  0  0  0  0  0  0  0  0  0  0  0
   45.8200   32.7320   45.0790 H   0  0  0  0  0  0  0  0  0  0  0  0
   45.6300   32.7060   42.5780 H   0  0  0  0  0  0  0  0  0  0  0  0
   44.2570   36.5700   45.3020 H   0  0  0  0  0  0  0  0  0  0  0  0
   43.5040   34.0970   40.5700 N   0  0  0  0  0  0  0  0  0  0  0  0
   42.5680   35.1400   40.1940 C   0  0  0  0  0  3  0  0  0  0  0  0
   41.5750   34.9800   40.6770 H   0  0  0  0  0  0  0  0  0  0  0  0
   42.3170   35.1630   38.7040 C   0  0  0  0  0  3  0  0  0  0  0  0
   43.2320   35.3620   38.1190 H   0  0  0  0  0  0  0  0  0  0  0  0
   41.6850   33.9330   38.3280 N   0  0  0  0  0  0  0  0  0  0  0  0
   40.7090   33.8980   38.6810 H   0  0  0  0  0  0  0  0  0  0  0  0
   42.3980   32.7920   38.8860 C   0  0  0  0  0  2  0  0  0  0  0  0
   43.7490   33.2300   39.4530 C   0  0  0  0  0  2  0  0  0  0  0  0
  1  6  1  0  0  0  0
  2  1  1  0  0  0  0
  3  1  1  0  0  0  0
  4 10  1  0  0  0  0
  4  9  1  0  0  0  0
  5  4  2  0  0  0  0
  6  5  1  0  0  0  0
  6  7  2  0  0  0  0
  7  8  1  0  0  0  0
  8  9  2  0  0  0  0
  8 12  1  0  0  0  0
 11  5  1  0  0  0  0
 13  1  1  0  0  0  0
 14 13  1  0  0  0  0
 14 15  1  0  0  0  0
 16 14  1  0  0  0  0
 17 16  1  0  0  0  0
 18 19  1  0  0  0  0
 18 16  1  0  0  0  0
 18 20  1  0  0  0  0
 20 21  1  0  0  0  0
 21 13  1  0  0  0  0
M  END
>  <minimizedAffinity>
-3.57677698

>  <minimizedRMSD>
5.64357805

$$$$
