
 OpenBabel03252509283D

 21 22  0  0  0  0  0  0  0  0999 V2000
   46.5390   33.7510   44.1410 C   0  0  0  0  0  0  0  0  0  0  0  0
   47.0920   34.6290   44.5290 H   0  0  0  0  0  0  0  0  0  0  0  0
   47.3400   33.0820   43.7260 H   0  0  0  0  0  0  0  0  0  0  0  0
   43.9300   35.5350   42.1850 C   0  0  0  0  0  0  0  0  0  0  0  0
   44.7350   35.1280   43.2770 C   0  0  0  0  0  0  0  0  0  0  0  0
   45.7120   34.1650   43.0050 C   0  0  0  0  0  0  0  0  0  0  0  0
   45.8510   33.6670   41.7490 N   0  0  0  0  0  0  0  0  0  0  0  0
   45.0410   34.1020   40.7390 C   0  0  0  0  0  0  0  0  0  0  0  0
   44.0980   35.0210   40.9590 N   0  0  0  0  0  0  0  0  0  0  0  0
   43.1500   36.2750   42.3030 H   0  0  0  0  0  0  0  0  0  0  0  0
   44.5660   35.5690   44.2490 H   0  0  0  0  0  0  0  0  0  0  0  0
   45.1510   33.7040   39.7310 H   0  0  0  0  0  0  0  0  0  0  0  0
   45.8610   32.9990   45.1460 N   0  0  0  0  0  0  0  0  0  0  0  0
   45.9310   31.5960   44.7760 C   0  0  0  0  0  3  0  0  0  0  0  0
   44.9140   31.1380   44.7580 H   0  0  0  0  0  0  0  0  0  0  0  0
   46.7430   30.7930   45.7660 C   0  0  0  0  0  3  0  0  0  0  0  0
   47.7910   31.1330   45.8350 H   0  0  0  0  0  0  0  0  0  0  0  0
   46.0750   30.8180   47.0340 N   0  0  0  0  0  0  0  0  0  0  0  0
   45.2050   30.2520   47.0020 H   0  0  0  0  0  0  0  0  0  0  0  0
   45.7030   32.1780   47.3970 C   0  0  0  0  0  2  0  0  0  0  0  0
   46.3850   33.1850   46.4690 C   0  0  0  0  0  2  0  0  0  0  0  0
  1  2  1  0  0  0  0
  1 13  1  0  0  0  0
  3  1  1  0  0  0  0
  4 10  1  0  0  0  0
  4  5  1  0  0  0  0
  5 11  1  0  0  0  0
  6  5  2  0  0  0  0
  6  1  1  0  0  0  0
  7  6  1  0  0  0  0
  8  9  1  0  0  0  0
  8  7  2  0  0  0  0
  9  4  2  0  0  0  0
 12  8  1  0  0  0  0
 13 21  1  0  0  0  0
 14 13  1  0  0  0  0
 14 16  1  0  0  0  0
 15 14  1  0  0  0  0
 16 17  1  0  0  0  0
 16 18  1  0  0  0  0
 18 20  1  0  0  0  0
 19 18  1  0  0  0  0
 21 20  1  0  0  0  0
M  END
>  <minimizedAffinity>
-3.16751361

>  <minimizedRMSD>
5.44496822

$$$$
