
     RDKit          3D

 27 28  0  0  0  0  0  0  0  0999 V2000
   44.5623   36.0082   44.4947 C   0  0  0  0  0  0  0  0  0  0  0  0
   45.3050   35.9267   43.2908 C   0  0  0  0  0  0  0  0  0  0  0  0
   46.1934   34.8530   43.1792 C   0  0  0  0  0  0  0  0  0  0  0  0
   46.3123   33.9552   44.1903 N   0  0  0  0  0  0  0  0  0  0  0  0
   45.5663   34.0902   45.3271 C   0  0  0  0  0  0  0  0  0  0  0  0
   44.7071   35.1022   45.4709 N   0  0  0  0  0  0  0  0  0  0  0  0
   46.9555   34.7795   41.9301 C   0  0  0  0  0  0  0  0  0  0  0  0
   43.8520   36.8051   44.6676 H   0  0  0  0  0  0  0  0  0  0  0  0
   45.1563   36.6800   42.5291 H   0  0  0  0  0  0  0  0  0  0  0  0
   45.6606   33.3707   46.1392 H   0  0  0  0  0  0  0  0  0  0  0  0
   46.2961   35.0504   41.0823 H   0  0  0  0  0  0  0  0  0  0  0  0
   47.1888   33.6930   41.7620 H   0  0  0  0  0  0  0  0  0  0  0  0
   48.2055   35.4667   41.9391 N   0  0  0  0  0  0  0  0  0  0  0  0
   49.2520   34.4943   41.6784 C   0  0  1  0  0  0  0  0  0  0  0  0
   50.0383   34.5321   42.4675 H   0  0  0  0  0  0  0  0  0  0  0  0
   49.9528   34.7591   40.3662 C   0  0  2  0  0  0  0  0  0  0  0  0
   49.2729   34.7016   39.4981 H   0  0  0  0  0  0  0  0  0  0  0  0
   50.6238   36.0230   40.4518 N   0  0  0  0  0  0  0  0  0  0  0  0
   51.4402   35.9630   41.0918 H   0  0  0  0  0  0  0  0  0  0  0  0
   49.7306   37.0491   40.9716 C   0  0  0  0  0  0  0  0  0  0  0  0
   48.2876   36.5425   40.9924 C   0  0  0  0  0  0  0  0  0  0  0  0
   48.8422   33.4474   41.6256 H   0  0  0  0  0  0  0  0  0  0  0  0
   50.7101   33.9405   40.2577 H   0  0  0  0  0  0  0  0  0  0  0  0
   49.8132   37.9982   40.4221 H   0  0  0  0  0  0  0  0  0  0  0  0
   49.9675   37.2650   42.0549 H   0  0  0  0  0  0  0  0  0  0  0  0
   47.6725   37.3898   41.3446 H   0  0  0  0  0  0  0  0  0  0  0  0
   47.9756   36.2464   39.9681 H   0  0  0  0  0  0  0  0  0  0  0  0
  1  6  2  0
  2  1  1  0
  3  2  2  0
  3  4  1  0
  4  5  2  0
  5  6  1  0
  7  3  1  0
  1  8  1  0
  2  9  1  0
  5 10  1  0
  7 11  1  0
  7 12  1  0
 13 14  1  0
 14 15  1  1
 14 16  1  0
 16 17  1  6
 16 18  1  0
 18 19  1  0
 18 20  1  0
 20 21  1  0
 21 13  1  0
 14 22  1  0
 16 23  1  0
 20 24  1  0
 20 25  1  0
 21 26  1  0
 21 27  1  0
  7 13  1  0
M  ISO  8   8  14   9  14  10  14  11   8  12   8  15   8  17   8  19   5
M  END
>  <DihAtoms>  (1) 
2,6,12,13

>  <DihDeg>  (1) 
-179.9992368758695

$$$$
