
     RDKit          3D

 33 35  0  0  0  0  0  0  0  0999 V2000
   45.6177   33.9540   45.4433 C   0  0  0  0  0  0  0  0  0  0  0  0
   44.7129   34.9891   45.6961 C   0  0  0  0  0  0  0  0  0  0  0  0
   44.5237   35.9586   44.6835 C   0  0  0  0  0  0  0  0  0  0  0  0
   45.2382   35.8248   43.5167 N   0  0  0  0  0  0  0  0  0  0  0  0
   46.1001   34.7946   43.3382 C   0  0  0  0  0  0  0  0  0  0  0  0
   46.2962   33.8718   44.2716 N   0  0  0  0  0  0  0  0  0  0  0  0
   46.8306   34.7137   42.0661 C   0  0  0  0  0  0  0  0  0  0  0  0
   48.0099   35.4106   41.9050 C   0  0  0  0  0  0  0  0  0  0  0  0
   48.7742   35.4070   40.7580 C   0  0  0  0  0  0  0  0  0  0  0  0
   48.2567   34.6233   39.7344 C   0  0  0  0  0  0  0  0  0  0  0  0
   47.0554   33.9059   39.8816 C   0  0  0  0  0  0  0  0  0  0  0  0
   46.3636   33.9676   41.0535 N   0  0  0  0  0  0  0  0  0  0  0  0
   44.1835   35.0347   46.6365 H   0  0  0  0  0  0  0  0  0  0  0  0
   43.8413   36.7620   44.8420 H   0  0  0  0  0  0  0  0  0  0  0  0
   48.3403   35.9925   42.7454 H   0  0  0  0  0  0  0  0  0  0  0  0
   49.6942   35.9575   40.6477 H   0  0  0  0  0  0  0  0  0  0  0  0
   48.8103   34.5774   38.8042 H   0  0  0  0  0  0  0  0  0  0  0  0
   46.7143   33.3236   39.0568 H   0  0  0  0  0  0  0  0  0  0  0  0
   45.8693   32.9376   46.4038 N   0  0  0  0  0  0  0  0  0  0  0  0
   46.0853   33.2113   47.8109 C   0  0  1  0  0  0  0  0  0  0  0  0
   47.1533   33.3550   48.0184 H   0  0  0  0  0  0  0  0  0  0  0  0
   45.5056   32.1521   48.7108 C   0  0  1  0  0  0  0  0  0  0  0  0
   45.8508   32.3533   49.7327 H   0  0  0  0  0  0  0  0  0  0  0  0
   45.9054   30.8170   48.3175 N   0  0  0  0  0  0  0  0  0  0  0  0
   46.3510   30.3278   49.1232 H   0  0  0  0  0  0  0  0  0  0  0  0
   46.7606   30.8410   47.1445 C   0  0  0  0  0  0  0  0  0  0  0  0
   45.9318   31.5353   46.0576 C   0  0  0  0  0  0  0  0  0  0  0  0
   45.5443   34.1598   48.0792 H   0  0  0  0  0  0  0  0  0  0  0  0
   44.4076   32.2054   48.6711 H   0  0  0  0  0  0  0  0  0  0  0  0
   47.7020   31.3955   47.3513 H   0  0  0  0  0  0  0  0  0  0  0  0
   46.9521   29.7942   46.8618 H   0  0  0  0  0  0  0  0  0  0  0  0
   46.3797   31.3543   45.0685 H   0  0  0  0  0  0  0  0  0  0  0  0
   44.9144   31.0611   46.1296 H   0  0  0  0  0  0  0  0  0  0  0  0
  1  2  2  0
  3  2  1  0
  4  3  2  0
  5  4  1  0
  5  6  2  0
  6  1  1  0
  7  5  1  0
  8  7  2  0
  9  8  1  0
 10 11  1  0
 10  9  2  0
 11 12  2  0
 12  7  1  0
  2 13  1  0
  3 14  1  0
  8 15  1  0
  9 16  1  0
 10 17  1  0
 11 18  1  0
 19 20  1  0
 20 21  1  6
 20 22  1  0
 22 23  1  1
 22 24  1  0
 24 25  1  0
 24 26  1  0
 26 27  1  0
 27 19  1  0
 20 28  1  0
 22 29  1  0
 26 30  1  0
 26 31  1  0
 27 32  1  0
 27 33  1  0
  1 19  1  0
M  ISO  8  13  14  14  14  15  14  16  14  17  14  18  14  21   8  23   8
M  ISO  1  25   5
M  END
>  <DihAtoms>  (1) 
1,0,18,19

>  <DihDeg>  (1) 
-179.99940129486748

$$$$
