REMARK  Name = 
REMARK  4 active torsions:
REMARK  status: ('A' for Active; 'I' for Inactive)
REMARK    1  A    between atoms: C_1  and  C_4
REMARK    2  A    between atoms: C_1  and  C_8
REMARK    3  A    between atoms: C_8  and  N_9
REMARK    4  A    between atoms: C_14  and  N_31
REMARK                            x       y       z     vdW  Elec       q    Type
REMARK                         _______ _______ _______ _____ _____    ______ ____
ROOT
ATOM      1  N   UNL     1      48.356  34.184  40.747  0.00  0.00    +0.000 NA
ATOM      2  C   UNL     1      49.251  33.139  41.102  0.00  0.00    +0.000 C 
ATOM      3  C   UNL     1      49.166  31.867  40.330  0.00  0.00    +0.000 C 
ATOM      4  C   UNL     1      48.677  31.997  38.920  0.00  0.00    +0.000 C 
ATOM      5  C   UNL     1      48.471  33.434  38.515  0.00  0.00    +0.000 C 
ATOM      6  C   UNL     1      47.559  34.010  39.610  0.00  0.00    +0.000 C 
ATOM      7  H   UNL     1      50.297  33.553  41.026  0.00  0.00    +0.000 HD
ATOM      8  H   UNL     1      49.107  32.906  42.181  0.00  0.00    +0.000 HD
ATOM      9  H   UNL     1      48.580  31.105  40.896  0.00  0.00    +0.000 HD
ATOM     10  H   UNL     1      50.206  31.430  40.269  0.00  0.00    +0.000 HD
ATOM     11  H   UNL     1      47.653  31.525  38.877  0.00  0.00    +0.000 HD
ATOM     12  H   UNL     1      49.283  31.444  38.181  0.00  0.00    +0.000 HD
ATOM     13  H   UNL     1      49.416  34.001  38.450  0.00  0.00    +0.000 HD
ATOM     14  H   UNL     1      47.889  33.391  37.575  0.00  0.00    +0.000 HD
ATOM     15  H   UNL     1      46.728  33.289  39.650  0.00  0.00    +0.000 HD
ENDROOT
BRANCH   6  16
ATOM     16  N   UNL     1      47.102  35.275  39.111  0.00  0.00    +0.000 NA
ATOM     17  C   UNL     1      47.560  35.622  37.815  0.00  0.00    +0.000 C 
ATOM     18  H   UNL     1      47.819  34.677  37.252  0.00  0.00    +0.000 HD
ATOM     19  C   UNL     1      48.654  36.631  37.731  0.00  0.00    +0.000 C 
ATOM     20  H   UNL     1      48.341  37.539  37.136  0.00  0.00    +0.000 HD
ATOM     21  N   UNL     1      49.118  37.148  38.986  0.00  0.00    +0.000 NA
ATOM     22  H   UNL     1      49.672  37.995  38.804  0.00  0.00    +0.000 HD
ATOM     23  C   UNL     1      47.913  37.523  39.726  0.00  0.00    +0.000 C 
ATOM     24  C   UNL     1      47.086  36.317  40.075  0.00  0.00    +0.000 C 
ENDBRANCH   6  16
BRANCH   1  25
ATOM     25  C   UNL     1      47.817  34.902  41.856  0.00  0.00    +0.000 C 
ATOM     26  H   UNL     1      48.193  34.406  42.776  0.00  0.00    +0.000 HD
ATOM     27  H   UNL     1      48.168  35.951  41.907  0.00  0.00    +0.000 HD
BRANCH  25  28
ATOM     28  C   UNL     1      46.324  34.901  41.811  0.00  0.00    +0.000 C 
ATOM     29  H   UNL     1      45.940  33.918  41.403  0.00  0.00    +0.000 HD
ATOM     30  H   UNL     1      45.904  35.724  41.215  0.00  0.00    +0.000 HD
BRANCH  28  33
ATOM     31  C   UNL     1      44.469  35.987  44.891  0.00  0.00    +0.000 A 
ATOM     32  C   UNL     1      44.983  35.978  43.578  0.00  0.00    +0.000 A 
ATOM     33  C   UNL     1      45.786  34.929  43.177  0.00  0.00    +0.000 A 
ATOM     34  N   UNL     1      46.036  33.957  44.078  0.00  0.00    +0.000 NA
ATOM     35  C   UNL     1      45.541  33.967  45.337  0.00  0.00    +0.000 A 
ATOM     36  N   UNL     1      44.762  34.975  45.745  0.00  0.00    +0.000 NA
ATOM     37  H   UNL     1      43.836  36.832  45.179  0.00  0.00    +0.000 HD
ATOM     38  H   UNL     1      44.765  36.777  42.871  0.00  0.00    +0.000 HD
ATOM     39  H   UNL     1      45.801  33.128  46.000  0.00  0.00    +0.000 HD
ENDBRANCH  28  33
ENDBRANCH  25  28
ENDBRANCH   1  25
TORSDOF 4
