
 OpenBabel03252503453D

 44 47  0  0  1  0  0  0  0  0999 V2000
   45.1310   34.8290   44.8080 C   0  0  0  0  0  0  0  0  0  0  0  0
   46.0720   34.5840   43.8100 C   0  0  0  0  0  0  0  0  0  0  0  0
   46.9230   33.4980   44.0070 C   0  0  0  0  0  0  0  0  0  0  0  0
   46.8400   32.7240   45.1060 N   0  0  0  0  0  0  0  0  0  0  0  0
   45.9100   32.9940   46.0580 C   0  0  0  0  0  0  0  0  0  0  0  0
   45.0590   34.0400   45.9140 N   0  0  0  0  0  0  0  0  0  0  0  0
   44.4550   35.6620   44.6890 H   0  0  0  0  0  0  0  0  0  0  0  0
   47.7010   33.2080   43.3250 H   0  0  0  0  0  0  0  0  0  0  0  0
   47.2840   31.7410   47.7090 C   0  0  2  0  0  0  0  0  0  0  0  0
   45.8530   32.1220   47.2240 C   0  0  1  0  0  0  0  0  0  0  0  0
   45.3850   32.6820   48.3640 O   0  0  0  0  0  0  0  0  0  0  0  0
   45.7070   31.8620   49.4030 C   0  0  0  0  0  0  0  0  0  0  0  0
   46.8590   30.9730   48.9660 C   0  0  2  0  0  0  0  0  0  0  0  0
   47.7740   31.1060   46.9640 H   0  0  0  0  0  0  0  0  0  0  0  0
   45.3550   31.1630   46.9310 H   0  0  0  0  0  0  0  0  0  0  0  0
   45.9780   32.4010   50.3190 H   0  0  0  0  0  0  0  0  0  0  0  0
   44.8130   31.2320   49.6170 H   0  0  0  0  0  0  0  0  0  0  0  0
   46.4400   30.0170   48.6270 H   0  0  0  0  0  0  0  0  0  0  0  0
   47.9490   32.8400   48.1070 O   0  0  0  0  0  0  0  0  0  0  0  0
   47.7750   33.5870   47.5060 H   0  0  0  0  0  0  0  0  0  0  0  0
   47.8670   30.8650   49.8910 O   0  0  0  0  0  0  0  0  0  0  0  0
   48.5260   31.5850   49.7350 H   0  0  0  0  0  0  0  0  0  0  0  0
   46.1470   35.4170   42.6280 C   0  0  0  0  0  0  0  0  0  0  0  0
   45.4310   36.2820   42.7480 H   0  0  0  0  0  0  0  0  0  0  0  0
   47.1320   35.9090   42.5310 H   0  0  0  0  0  0  0  0  0  0  0  0
   45.6980   34.6750   41.4430 C   0  0  0  0  0  0  0  0  0  0  0  0
   44.3760   34.4950   41.0760 C   0  0  0  0  0  0  0  0  0  0  0  0
   44.0170   33.7810   39.9560 C   0  0  0  0  0  0  0  0  0  0  0  0
   45.0130   33.2200   39.1680 C   0  0  0  0  0  0  0  0  0  0  0  0
   46.3500   33.3980   39.5330 C   0  0  0  0  0  0  0  0  0  0  0  0
   46.7050   34.1330   40.6820 C   0  0  0  0  0  0  0  0  0  0  0  0
   43.6580   34.9580   41.7340 H   0  0  0  0  0  0  0  0  0  0  0  0
   42.9440   33.6820   39.7300 H   0  0  0  0  0  0  0  0  0  0  0  0
   44.6490   32.6810   38.3190 H   0  0  0  0  0  0  0  0  0  0  0  0
   46.9830   32.8980   38.8120 H   0  0  0  0  0  0  0  0  0  0  0  0
   48.0980   34.1620   40.7570 N   0  0  0  0  0  0  0  0  0  0  0  0
   48.7380   35.4850   40.8670 C   0  0  0  0  0  0  0  0  0  0  0  0
   48.0110   36.3020   40.8300 H   0  0  0  0  0  0  0  0  0  0  0  0
   49.5650   35.5800   42.1200 C   0  0  0  0  0  0  0  0  0  0  0  0
   50.2850   36.4320   41.9360 H   0  0  0  0  0  0  0  0  0  0  0  0
   50.3720   34.4320   42.3660 N   0  0  0  0  0  0  0  0  0  0  0  0
   51.3310   34.4610   42.0030 H   0  0  0  0  0  0  0  0  0  0  0  0
   49.7250   33.1770   42.1710 C   0  0  0  0  0  0  0  0  0  0  0  0
   49.1190   33.1020   40.7690 C   0  0  0  0  0  0  0  0  0  0  0  0
  1  6  1  0  0  0  0
  2  3  1  0  0  0  0
  2  1  2  0  0  0  0
  3  4  2  0  0  0  0
  4  5  1  0  0  0  0
  5 10  1  0  0  0  0
  6  5  2  0  0  0  0
  7  1  1  0  0  0  0
  8  3  1  0  0  0  0
  9 14  1  6  0  0  0
  9 19  1  0  0  0  0
  9 13  1  0  0  0  0
 10 15  1  6  0  0  0
 10  9  1  0  0  0  0
 10 11  1  0  0  0  0
 11 12  1  0  0  0  0
 12 17  1  0  0  0  0
 12 16  1  0  0  0  0
 13 18  1  6  0  0  0
 13 12  1  0  0  0  0
 13 21  1  0  0  0  0
 20 19  1  0  0  0  0
 22 21  1  0  0  0  0
 23 24  1  0  0  0  0
 23  2  1  0  0  0  0
 25 23  1  0  0  0  0
 26 23  1  0  0  0  0
 27 26  1  0  0  0  0
 27 32  1  0  0  0  0
 28 27  2  0  0  0  0
 29 30  2  0  0  0  0
 29 28  1  0  0  0  0
 30 31  1  0  0  0  0
 31 36  1  0  0  0  0
 31 26  2  0  0  0  0
 33 28  1  0  0  0  0
 34 29  1  0  0  0  0
 35 30  1  0  0  0  0
 36 44  1  0  0  0  0
 36 37  1  0  0  0  0
 37 39  1  0  0  0  0
 38 37  1  0  0  0  0
 39 41  1  0  0  0  0
 40 39  1  0  0  0  0
 42 41  1  0  0  0  0
 43 41  1  0  0  0  0
 44 43  1  0  0  0  0
M  END
>  <minimizedAffinity>
-7.40312958

>  <minimizedRMSD>
1.24416256

$$$$
