
 OpenBabel03252508433D

 31 33  0  0  0  0  0  0  0  0999 V2000
   45.3240   33.9910   41.0260 C   0  0  0  0  0  0  0  0  0  0  0  0
   44.3130   34.8890   41.2630 C   0  0  0  0  0  0  0  0  0  0  0  0
   44.3910   35.7770   42.3180 C   0  0  0  0  0  0  0  0  0  0  0  0
   45.5060   35.7280   43.1130 C   0  0  0  0  0  0  0  0  0  0  0  0
   46.5440   34.8470   42.9140 C   0  0  0  0  0  0  0  0  0  0  0  0
   46.4030   33.9780   41.8330 C   0  0  0  0  0  0  0  0  0  0  0  0
   43.5840   36.4790   42.4910 H   0  0  0  0  0  0  0  0  0  0  0  0
   45.6280   36.4010   43.9610 H   0  0  0  0  0  0  0  0  0  0  0  0
   47.4400   34.7360   43.4720 H   0  0  0  0  0  0  0  0  0  0  0  0
   47.1630   33.2450   41.5900 H   0  0  0  0  0  0  0  0  0  0  0  0
   45.4930   32.3770   37.6000 C   0  0  0  0  0  0  0  0  0  0  0  0
   45.7190   33.2930   38.6450 C   0  0  0  0  0  0  0  0  0  0  0  0
   45.1460   33.0970   39.8880 C   0  0  0  0  0  0  0  0  0  0  0  0
   44.3780   32.0000   40.0250 N   0  0  0  0  0  0  0  0  0  0  0  0
   44.1500   31.1100   39.0340 C   0  0  0  0  0  0  0  0  0  0  0  0
   44.7100   31.3010   37.8220 N   0  0  0  0  0  0  0  0  0  0  0  0
   45.9500   32.5500   36.6380 H   0  0  0  0  0  0  0  0  0  0  0  0
   46.3290   34.1520   38.5130 H   0  0  0  0  0  0  0  0  0  0  0  0
   43.5240   30.2310   39.1780 H   0  0  0  0  0  0  0  0  0  0  0  0
   43.0930   34.9290   40.3790 C   0  0  0  0  0  0  0  0  0  0  0  0
   43.0990   34.0810   39.6580 H   0  0  0  0  0  0  0  0  0  0  0  0
   43.0660   35.9120   39.8480 H   0  0  0  0  0  0  0  0  0  0  0  0
   41.9510   34.7690   41.2150 N   0  0  0  0  0  0  0  0  0  0  0  0
   41.3600   33.4690   41.2380 C   0  0  0  0  0  3  0  0  0  0  0  0
   41.9890   32.6610   41.6240 H   0  0  0  0  0  0  0  0  0  0  0  0
   40.8400   33.1600   39.8510 C   0  0  0  0  0  3  0  0  0  0  0  0
   41.6660   32.6530   39.3080 H   0  0  0  0  0  0  0  0  0  0  0  0
   40.5020   34.3440   39.1060 N   0  0  0  0  0  0  0  0  0  0  0  0
   39.6650   34.0940   38.5030 H   0  0  0  0  0  0  0  0  0  0  0  0
   40.0650   35.4410   39.9200 C   0  0  0  0  0  2  0  0  0  0  0  0
   40.9290   35.7540   41.0970 C   0  0  0  0  0  2  0  0  0  0  0  0
  1  2  2  0  0  0  0
  1  6  1  0  0  0  0
  2  3  1  0  0  0  0
  3  7  1  0  0  0  0
  3  4  2  0  0  0  0
  4  8  1  0  0  0  0
  5  4  1  0  0  0  0
  5  9  1  0  0  0  0
  6  5  2  0  0  0  0
 10  6  1  0  0  0  0
 11 16  2  0  0  0  0
 11 12  1  0  0  0  0
 12 13  2  0  0  0  0
 13 14  1  0  0  0  0
 13  1  1  0  0  0  0
 15 19  1  0  0  0  0
 15 14  2  0  0  0  0
 16 15  1  0  0  0  0
 17 11  1  0  0  0  0
 18 12  1  0  0  0  0
 20 23  1  0  0  0  0
 20  2  1  0  0  0  0
 21 20  1  0  0  0  0
 22 20  1  0  0  0  0
 23 24  1  0  0  0  0
 24 25  1  0  0  0  0
 26 24  1  0  0  0  0
 27 26  1  0  0  0  0
 28 26  1  0  0  0  0
 28 30  1  0  0  0  0
 29 28  1  0  0  0  0
 30 31  1  0  0  0  0
 31 23  1  0  0  0  0
M  END
>  <minimizedAffinity>
-4.35673428

>  <minimizedRMSD>
7.12513018

$$$$
