
 OpenBabel03252504203D

 19 20  0  0  0  0  0  0  0  0999 V2000
   45.4960   34.2770   44.7420 C   0  0  0  0  0  0  0  0  0  0  0  0
   46.0470   33.5670   43.6770 C   0  0  0  0  0  0  0  0  0  0  0  0
   46.7870   32.4050   43.9880 C   0  0  0  0  0  0  0  0  0  0  0  0
   46.9100   32.0600   45.2860 N   0  0  0  0  0  0  0  0  0  0  0  0
   46.3640   32.7720   46.2810 C   0  0  0  0  0  0  0  0  0  0  0  0
   45.6430   33.8970   46.0200 N   0  0  0  0  0  0  0  0  0  0  0  0
   45.9300   33.8700   42.6440 H   0  0  0  0  0  0  0  0  0  0  0  0
   47.2310   31.8240   43.2150 H   0  0  0  0  0  0  0  0  0  0  0  0
   46.4850   32.4220   47.6560 N   0  0  0  0  0  0  0  0  0  0  0  0
   45.3550   32.1330   48.5180 C   0  0  0  0  0  0  0  0  0  0  0  0
   44.3820   32.2760   47.9740 H   0  0  0  0  0  0  0  0  0  0  0  0
   45.4500   30.7570   49.1280 C   0  0  0  0  0  0  0  0  0  0  0  0
   44.6100   30.0970   48.8730 H   0  0  0  0  0  0  0  0  0  0  0  0
   46.6740   30.0760   48.7530 N   0  0  0  0  0  0  0  0  0  0  0  0
   46.6340   29.6770   47.8040 H   0  0  0  0  0  0  0  0  0  0  0  0
   47.8290   30.9090   48.9740 C   0  0  0  0  0  0  0  0  0  0  0  0
   47.6950   32.3000   48.3980 C   0  0  0  0  0  0  0  0  0  0  0  0
   44.5670   35.7490   44.2530 S   0  0  0  0  0  0  0  0  0  0  0  0
   44.3120   36.5130   45.4210 H   0  0  0  0  0  0  0  0  0  0  0  0
  1  6  1  0  0  0  0
  2  3  1  0  0  0  0
  2  1  2  0  0  0  0
  3  4  2  0  0  0  0
  4  5  1  0  0  0  0
  5  9  1  0  0  0  0
  6  5  2  0  0  0  0
  7  2  1  0  0  0  0
  8  3  1  0  0  0  0
  9 17  1  0  0  0  0
  9 10  1  0  0  0  0
 10 12  1  0  0  0  0
 11 10  1  0  0  0  0
 13 12  1  0  0  0  0
 14 16  1  0  0  0  0
 14 12  1  0  0  0  0
 15 14  1  0  0  0  0
 17 16  1  0  0  0  0
 18  1  1  0  0  0  0
 18 19  1  0  0  0  0
M  END
>  <minimizedAffinity>
-4.50974178

>  <minimizedRMSD>
1.73514509

$$$$
