
 OpenBabel03252507293D

 45 48  0  0  1  0  0  0  0  0999 V2000
   47.7670   31.3300   44.2630 C   0  0  2  0  0  0  0  0  0  0  0  0
   47.6130   30.0220   43.5110 C   0  0  0  0  0  0  0  0  0  0  0  0
   48.3750   28.9660   44.2880 C   0  0  0  0  0  0  0  0  0  0  0  0
   47.9970   28.8980   45.7430 C   0  0  0  0  0  0  0  0  0  0  0  0
   47.9940   30.2430   46.3960 C   0  0  0  0  0  0  0  0  0  0  0  0
   47.1760   31.2110   45.6160 C   0  0  2  0  0  0  0  0  0  0  0  0
   48.8820   31.4490   44.3610 H   0  0  0  0  0  0  0  0  0  0  0  0
   46.5950   29.7600   43.2460 H   0  0  0  0  0  0  0  0  0  0  0  0
   48.1660   30.1250   42.5370 H   0  0  0  0  0  0  0  0  0  0  0  0
   48.3450   27.9810   43.8300 H   0  0  0  0  0  0  0  0  0  0  0  0
   49.4470   29.3070   44.2570 H   0  0  0  0  0  0  0  0  0  0  0  0
   47.0710   28.3310   45.8640 H   0  0  0  0  0  0  0  0  0  0  0  0
   48.8110   28.3040   46.2340 H   0  0  0  0  0  0  0  0  0  0  0  0
   49.0570   30.6200   46.3580 H   0  0  0  0  0  0  0  0  0  0  0  0
   47.7530   30.1480   47.4560 H   0  0  0  0  0  0  0  0  0  0  0  0
   47.3080   32.1960   46.1110 H   0  0  0  0  0  0  0  0  0  0  0  0
   47.2920   32.4840   43.5200 C   0  0  0  0  0  0  0  0  0  0  0  0
   46.6760   33.5340   44.2510 C   0  0  0  0  0  0  0  0  0  0  0  0
   46.1990   34.6440   43.5210 C   0  0  0  0  0  0  0  0  0  0  0  0
   46.3630   34.6350   42.1470 N   0  0  0  0  0  0  0  0  0  0  0  0
   46.9660   33.5830   41.5300 C   0  0  0  0  0  0  0  0  0  0  0  0
   47.4280   32.5180   42.1960 N   0  0  0  0  0  0  0  0  0  0  0  0
   46.5320   33.5850   45.2940 H   0  0  0  0  0  0  0  0  0  0  0  0
   45.7250   35.4730   43.9950 H   0  0  0  0  0  0  0  0  0  0  0  0
   47.0900   33.6450   40.0690 C   0  0  0  0  0  0  0  0  0  0  0  0
   48.0960   34.2970   39.4590 C   0  0  0  0  0  0  0  0  0  0  0  0
   48.2060   34.3530   38.0750 C   0  0  0  0  0  0  0  0  0  0  0  0
   47.2460   33.7150   37.3370 C   0  0  0  0  0  0  0  0  0  0  0  0
   46.2190   33.0500   37.9440 C   0  0  0  0  0  0  0  0  0  0  0  0
   46.1350   33.0110   39.3070 N   0  0  0  0  0  0  0  0  0  0  0  0
   48.8110   34.7730   40.1160 H   0  0  0  0  0  0  0  0  0  0  0  0
   49.0530   34.9030   37.6820 H   0  0  0  0  0  0  0  0  0  0  0  0
   47.3440   33.7670   36.2650 H   0  0  0  0  0  0  0  0  0  0  0  0
   45.4580   32.5440   37.3740 H   0  0  0  0  0  0  0  0  0  0  0  0
   45.8160   30.7830   45.5170 N   0  0  0  0  0  0  0  0  0  0  0  0
   45.8510   29.7390   45.4280 H   0  0  0  0  0  0  0  0  0  0  0  0
   45.0440   33.0880   46.8290 H   0  0  0  0  0  0  0  0  0  0  0  0
   45.5570   32.2640   47.2110 N   0  0  0  0  0  0  0  0  0  0  0  0
   45.0280   31.0270   46.7100 C   0  0  2  0  0  3  0  0  0  0  0  0
   44.9460   29.9180   47.6730 C   0  0  0  0  0  3  0  0  0  0  0  0
   43.8980   29.7930   48.0800 H   0  0  0  0  0  0  0  0  0  0  0  0
   45.7540   30.0940   48.8700 N   0  0  0  0  0  0  0  0  0  0  0  0
   46.7380   30.1400   48.5950 H   0  0  0  0  0  0  0  0  0  0  0  0
   45.2570   31.3240   49.4810 C   0  0  0  0  0  2  0  0  0  0  0  0
   45.7650   32.4110   48.5880 C   0  0  0  0  0  2  0  0  0  0  0  0
  1  7  1  1  0  0  0
  1  6  1  0  0  0  0
  2  1  1  0  0  0  0
  2  3  1  0  0  0  0
  3  4  1  0  0  0  0
  4 12  1  0  0  0  0
  4 13  1  0  0  0  0
  4  5  1  0  0  0  0
  5 15  1  0  0  0  0
  6 16  1  1  0  0  0
  6  5  1  0  0  0  0
  8  2  1  0  0  0  0
  9  2  1  0  0  0  0
 10  3  1  0  0  0  0
 11  3  1  0  0  0  0
 14  5  1  0  0  0  0
 17 18  1  0  0  0  0
 17  1  1  0  0  0  0
 18 23  1  0  0  0  0
 19 24  1  0  0  0  0
 19 18  2  0  0  0  0
 20 19  1  0  0  0  0
 21 20  2  0  0  0  0
 21 22  1  0  0  0  0
 22 17  2  0  0  0  0
 25 21  1  0  0  0  0
 26 25  1  0  0  0  0
 26 31  1  0  0  0  0
 27 26  2  0  0  0  0
 28 29  2  0  0  0  0
 28 27  1  0  0  0  0
 29 30  1  0  0  0  0
 30 25  2  0  0  0  0
 32 27  1  0  0  0  0
 33 28  1  0  0  0  0
 34 29  1  0  0  0  0
 35  6  1  0  0  0  0
 36 35  1  0  0  0  0
 37 38  1  0  0  0  0
 38 45  1  0  0  0  0
 39 35  1  6  0  0  0
 39 38  1  0  0  0  0
 39 40  1  0  0  0  0
 40 41  1  0  0  0  0
 40 42  1  0  0  0  0
 42 44  1  0  0  0  0
 43 42  1  0  0  0  0
 45 44  1  0  0  0  0
M  END
>  <minimizedAffinity>
-5.19027567

>  <minimizedRMSD>
2.88660908

$$$$
