
 OpenBabel03252507423D

 31 33  0  0  0  0  0  0  0  0999 V2000
   45.5960   33.2920   41.2960 C   0  0  0  0  0  0  0  0  0  0  0  0
   45.5860   32.2230   40.9930 H   0  0  0  0  0  0  0  0  0  0  0  0
   45.9610   33.3180   42.3450 H   0  0  0  0  0  0  0  0  0  0  0  0
   44.2420   33.9150   41.2500 C   0  0  0  0  0  0  0  0  0  0  0  0
   44.0510   35.2480   41.7530 C   0  0  0  0  0  0  0  0  0  0  0  0
   42.2570   35.5290   41.4660 S   0  0  0  0  0  0  0  0  0  0  0  0
   42.0740   33.7910   40.7150 C   0  0  0  0  0  0  0  0  0  0  0  0
   43.1390   33.3810   40.7850 N   0  0  0  0  0  0  0  0  0  0  0  0
   44.8020   35.8790   42.1780 H   0  0  0  0  0  0  0  0  0  0  0  0
   40.8320   33.2800   40.2290 N   0  0  0  0  0  0  0  0  0  0  0  0
   40.2480   32.0960   40.7860 C   0  0  0  0  0  3  0  0  0  0  0  0
   40.2210   31.2660   40.0520 H   0  0  0  0  0  0  0  0  0  0  0  0
   38.8230   32.4110   41.1790 C   0  0  0  0  0  3  0  0  0  0  0  0
   38.2900   31.4800   41.4740 H   0  0  0  0  0  0  0  0  0  0  0  0
   38.1080   33.1950   40.2220 N   0  0  0  0  0  0  0  0  0  0  0  0
   37.2150   32.7030   39.9670 H   0  0  0  0  0  0  0  0  0  0  0  0
   38.7980   33.4640   38.9980 C   0  0  0  0  0  2  0  0  0  0  0  0
   40.1870   33.9880   39.1670 C   0  0  0  0  0  2  0  0  0  0  0  0
   46.6250   34.0240   40.4810 C   0  0  0  0  0  0  0  0  0  0  0  0
   46.8640   34.9530   41.0790 H   0  0  0  0  0  0  0  0  0  0  0  0
   46.1850   34.3660   39.5550 H   0  0  0  0  0  0  0  0  0  0  0  0
   47.8720   33.2600   40.2820 C   0  0  0  0  0  0  0  0  0  0  0  0
   48.1530   32.8370   38.9850 C   0  0  0  0  0  0  0  0  0  0  0  0
   49.3140   32.1150   38.7450 C   0  0  0  0  0  0  0  0  0  0  0  0
   50.1350   31.8480   39.7940 N   0  0  0  0  0  0  0  0  0  0  0  0
   49.8380   32.2700   41.0290 C   0  0  0  0  0  0  0  0  0  0  0  0
   48.7250   32.9600   41.2530 N   0  0  0  0  0  0  0  0  0  0  0  0
   49.5730   31.7640   37.7400 H   0  0  0  0  0  0  0  0  0  0  0  0
   50.5780   31.9890   41.7690 H   0  0  0  0  0  0  0  0  0  0  0  0
   47.0250   33.2220   37.6310 S   0  0  0  0  0  0  0  0  0  0  0  0
   47.7950   33.1900   36.4540 H   0  0  0  0  0  0  0  0  0  0  0  0
  1  3  1  0  0  0  0
  2  1  1  0  0  0  0
  4  1  1  0  0  0  0
  4  5  2  0  0  0  0
  5  9  1  0  0  0  0
  6  5  1  0  0  0  0
  7  8  2  0  0  0  0
  7  6  1  0  0  0  0
  8  4  1  0  0  0  0
 10  7  1  0  0  0  0
 10 11  1  0  0  0  0
 11 13  1  0  0  0  0
 12 11  1  0  0  0  0
 13 14  1  0  0  0  0
 15 13  1  0  0  0  0
 16 15  1  0  0  0  0
 17 18  1  0  0  0  0
 17 15  1  0  0  0  0
 18 10  1  0  0  0  0
 19 20  1  0  0  0  0
 19  1  1  0  0  0  0
 21 19  1  0  0  0  0
 22 19  1  0  0  0  0
 22 27  1  0  0  0  0
 23 22  2  0  0  0  0
 24 23  1  0  0  0  0
 24 25  2  0  0  0  0
 25 26  1  0  0  0  0
 26 27  2  0  0  0  0
 26 29  1  0  0  0  0
 28 24  1  0  0  0  0
 30 23  1  0  0  0  0
 31 30  1  0  0  0  0
M  END
>  <minimizedAffinity>
-4.37767839

>  <minimizedRMSD>
2.57609701

$$$$
