
 OpenBabel03252502543D

 31 33  0  0  0  0  0  0  0  0999 V2000
   39.3780   30.2170   42.5470 Br  0  0  0  0  0  0  0  0  0  0  0  0
   37.7880   29.9650   41.4870 C   0  0  0  0  0  0  0  0  0  0  0  0
   36.9630   28.9330   41.8560 C   0  0  0  0  0  0  0  0  0  0  0  0
   35.8150   28.7820   41.0610 C   0  0  0  0  0  0  0  0  0  0  0  0
   35.5260   29.5970   39.9900 C   0  0  0  0  0  0  0  0  0  0  0  0
   36.3930   30.6030   39.6800 C   0  0  0  0  0  0  0  0  0  0  0  0
   37.5370   30.8070   40.4190 C   0  0  0  0  0  0  0  0  0  0  0  0
   35.1070   27.9930   41.2810 H   0  0  0  0  0  0  0  0  0  0  0  0
   34.6440   29.4620   39.3980 H   0  0  0  0  0  0  0  0  0  0  0  0
   36.1980   31.2700   38.8380 H   0  0  0  0  0  0  0  0  0  0  0  0
   38.4200   31.8660   40.0690 N   0  0  0  0  0  0  0  0  0  0  0  0
   38.5500   33.1350   40.7440 C   0  0  0  0  0  3  0  0  0  0  0  0
   37.6860   33.7590   40.3670 H   0  0  0  0  0  0  0  0  0  0  0  0
   39.7940   33.8180   40.2870 C   0  0  0  0  0  3  0  0  0  0  0  0
   40.0640   34.5940   41.0600 H   0  0  0  0  0  0  0  0  0  0  0  0
   40.9440   32.9750   40.1500 N   0  0  0  0  0  0  0  0  0  0  0  0
   41.6440   33.5150   39.5600 H   0  0  0  0  0  0  0  0  0  0  0  0
   40.7050   31.7340   39.4640 C   0  0  0  0  0  2  0  0  0  0  0  0
   39.2930   31.6700   38.9130 C   0  0  0  0  0  2  0  0  0  0  0  0
   37.1750   28.0080   42.9760 C   0  0  0  0  0  0  0  0  0  0  0  0
   36.2380   27.8500   43.5440 H   0  0  0  0  0  0  0  0  0  0  0  0
   37.9040   28.4930   43.6850 H   0  0  0  0  0  0  0  0  0  0  0  0
   39.5030   25.2860   41.9260 C   0  0  0  0  0  0  0  0  0  0  0  0
   38.6350   24.2120   41.7910 C   0  0  0  0  0  0  0  0  0  0  0  0
   37.2950   24.4140   42.0520 C   0  0  0  0  0  0  0  0  0  0  0  0
   36.8790   25.6490   42.4280 N   0  0  0  0  0  0  0  0  0  0  0  0
   37.7500   26.6990   42.5570 C   0  0  0  0  0  0  0  0  0  0  0  0
   39.0520   26.4780   42.2970 N   0  0  0  0  0  0  0  0  0  0  0  0
   40.5720   25.1250   41.7180 H   0  0  0  0  0  0  0  0  0  0  0  0
   39.0230   23.2300   41.4830 H   0  0  0  0  0  0  0  0  0  0  0  0
   36.5950   23.5970   41.9550 H   0  0  0  0  0  0  0  0  0  0  0  0
  2  3  1  0  0  0  0
  2  1  1  0  0  0  0
  3 20  1  0  0  0  0
  4  8  1  0  0  0  0
  4  3  2  0  0  0  0
  5  4  1  0  0  0  0
  6  5  2  0  0  0  0
  6  7  1  0  0  0  0
  7  2  2  0  0  0  0
  9  5  1  0  0  0  0
 10  6  1  0  0  0  0
 11  7  1  0  0  0  0
 11 12  1  0  0  0  0
 13 12  1  0  0  0  0
 14 12  1  0  0  0  0
 14 15  1  0  0  0  0
 16 14  1  0  0  0  0
 17 16  1  0  0  0  0
 18 16  1  0  0  0  0
 19 18  1  0  0  0  0
 19 11  1  0  0  0  0
 20 21  1  0  0  0  0
 20 22  1  0  0  0  0
 23 28  1  0  0  0  0
 24 23  2  0  0  0  0
 24 25  1  0  0  0  0
 25 26  2  0  0  0  0
 26 27  1  0  0  0  0
 27 20  1  0  0  0  0
 28 27  2  0  0  0  0
 29 23  1  0  0  0  0
 30 24  1  0  0  0  0
 31 25  1  0  0  0  0
M  END
>  <minimizedAffinity>
-5.27138567

$$$$

 OpenBabel03252502543D

 31 33  0  0  0  0  0  0  0  0999 V2000
   38.5180   30.2130   41.8430 Br  0  0  0  0  0  0  0  0  0  0  0  0
   37.5960   29.1540   40.5230 C   0  0  0  0  0  0  0  0  0  0  0  0
   36.9500   28.0330   40.9790 C   0  0  0  0  0  0  0  0  0  0  0  0
   36.2890   27.2880   39.9890 C   0  0  0  0  0  0  0  0  0  0  0  0
   36.2810   27.6420   38.6570 C   0  0  0  0  0  0  0  0  0  0  0  0
   36.9450   28.7700   38.2760 C   0  0  0  0  0  0  0  0  0  0  0  0
   37.6130   29.5460   39.1970 C   0  0  0  0  0  0  0  0  0  0  0  0
   35.7520   26.3870   40.2580 H   0  0  0  0  0  0  0  0  0  0  0  0
   35.7700   27.0570   37.9200 H   0  0  0  0  0  0  0  0  0  0  0  0
   36.9620   29.0830   37.2300 H   0  0  0  0  0  0  0  0  0  0  0  0
   38.2970   30.7170   38.7650 N   0  0  0  0  0  0  0  0  0  0  0  0
   39.7260   30.9230   38.7580 C   0  0  0  0  0  3  0  0  0  0  0  0
   39.9900   31.1870   39.8240 H   0  0  0  0  0  0  0  0  0  0  0  0
   40.0530   32.1220   37.9340 C   0  0  0  0  0  3  0  0  0  0  0  0
   41.1410   32.0520   37.6430 H   0  0  0  0  0  0  0  0  0  0  0  0
   39.3200   32.2440   36.7090 N   0  0  0  0  0  0  0  0  0  0  0  0
   39.4380   33.2500   36.3880 H   0  0  0  0  0  0  0  0  0  0  0  0
   37.9050   32.0170   36.8260 C   0  0  0  0  0  2  0  0  0  0  0  0
   37.4920   31.8340   38.2740 C   0  0  0  0  0  2  0  0  0  0  0  0
   36.8940   27.5660   42.3690 C   0  0  0  0  0  0  0  0  0  0  0  0
   35.9030   27.1350   42.6050 H   0  0  0  0  0  0  0  0  0  0  0  0
   37.0210   28.4660   43.0360 H   0  0  0  0  0  0  0  0  0  0  0  0
   40.0100   25.9780   43.6750 C   0  0  0  0  0  0  0  0  0  0  0  0
   39.8620   24.6700   43.2360 C   0  0  0  0  0  0  0  0  0  0  0  0
   38.7320   24.3430   42.5170 C   0  0  0  0  0  0  0  0  0  0  0  0
   37.8110   25.3070   42.2660 N   0  0  0  0  0  0  0  0  0  0  0  0
   37.9730   26.5950   42.7070 C   0  0  0  0  0  0  0  0  0  0  0  0
   39.0840   26.8900   43.4070 N   0  0  0  0  0  0  0  0  0  0  0  0
   40.9120   26.2400   44.2490 H   0  0  0  0  0  0  0  0  0  0  0  0
   40.6380   23.9250   43.4660 H   0  0  0  0  0  0  0  0  0  0  0  0
   38.5890   23.3330   42.1620 H   0  0  0  0  0  0  0  0  0  0  0  0
  2  3  1  0  0  0  0
  2  1  1  0  0  0  0
  3 20  1  0  0  0  0
  4  8  1  0  0  0  0
  4  3  2  0  0  0  0
  5  4  1  0  0  0  0
  6  5  2  0  0  0  0
  6  7  1  0  0  0  0
  7  2  2  0  0  0  0
  9  5  1  0  0  0  0
 10  6  1  0  0  0  0
 11  7  1  0  0  0  0
 12 11  1  0  0  0  0
 12 13  1  0  0  0  0
 14 12  1  0  0  0  0
 15 14  1  0  0  0  0
 16 18  1  0  0  0  0
 16 14  1  0  0  0  0
 17 16  1  0  0  0  0
 18 19  1  0  0  0  0
 19 11  1  0  0  0  0
 20 21  1  0  0  0  0
 20 27  1  0  0  0  0
 20 22  1  0  0  0  0
 23 29  1  0  0  0  0
 24 30  1  0  0  0  0
 24 23  2  0  0  0  0
 25 24  1  0  0  0  0
 26 25  2  0  0  0  0
 26 27  1  0  0  0  0
 27 28  2  0  0  0  0
 28 23  1  0  0  0  0
 31 25  1  0  0  0  0
M  END
>  <minimizedAffinity>
-5.24270391

$$$$

 OpenBabel03252502543D

 31 33  0  0  0  0  0  0  0  0999 V2000
   39.9650   27.9100   40.0150 Br  0  0  0  0  0  0  0  0  0  0  0  0
   38.7710   27.9090   41.5280 C   0  0  0  0  0  0  0  0  0  0  0  0
   38.7130   29.0660   42.2630 C   0  0  0  0  0  0  0  0  0  0  0  0
   37.8330   29.0270   43.3560 C   0  0  0  0  0  0  0  0  0  0  0  0
   37.0780   27.9210   43.6790 C   0  0  0  0  0  0  0  0  0  0  0  0
   37.1870   26.8050   42.9030 C   0  0  0  0  0  0  0  0  0  0  0  0
   38.0320   26.7760   41.8160 C   0  0  0  0  0  0  0  0  0  0  0  0
   37.7220   29.8960   43.9920 H   0  0  0  0  0  0  0  0  0  0  0  0
   36.4130   27.9150   44.5180 H   0  0  0  0  0  0  0  0  0  0  0  0
   36.6060   25.9080   43.1270 H   0  0  0  0  0  0  0  0  0  0  0  0
   38.1220   25.5950   41.0270 N   0  0  0  0  0  0  0  0  0  0  0  0
   39.1100   24.5510   41.1570 C   0  0  0  0  0  3  0  0  0  0  0  0
   40.0280   24.9470   40.6310 H   0  0  0  0  0  0  0  0  0  0  0  0
   38.6700   23.3510   40.3880 C   0  0  0  0  0  3  0  0  0  0  0  0
   39.2370   22.4600   40.7870 H   0  0  0  0  0  0  0  0  0  0  0  0
   37.2800   23.0220   40.5040 N   0  0  0  0  0  0  0  0  0  0  0  0
   37.0620   22.3550   39.7060 H   0  0  0  0  0  0  0  0  0  0  0  0
   36.3820   24.1360   40.3620 C   0  0  0  0  0  2  0  0  0  0  0  0
   37.1250   25.4000   39.9760 C   0  0  0  0  0  2  0  0  0  0  0  0
   39.4700   30.2970   42.0080 C   0  0  0  0  0  0  0  0  0  0  0  0
   40.4510   30.0730   41.5490 H   0  0  0  0  0  0  0  0  0  0  0  0
   39.6820   30.7790   43.0050 H   0  0  0  0  0  0  0  0  0  0  0  0
   37.0360   31.9190   39.6880 C   0  0  0  0  0  0  0  0  0  0  0  0
   37.4720   33.2370   39.7030 C   0  0  0  0  0  0  0  0  0  0  0  0
   38.5630   33.5590   40.4820 C   0  0  0  0  0  0  0  0  0  0  0  0
   39.1680   32.5800   41.2010 N   0  0  0  0  0  0  0  0  0  0  0  0
   38.7250   31.2830   41.1760 C   0  0  0  0  0  0  0  0  0  0  0  0
   37.6580   30.9930   40.4080 N   0  0  0  0  0  0  0  0  0  0  0  0
   36.1650   31.6620   39.0670 H   0  0  0  0  0  0  0  0  0  0  0  0
   36.9470   33.9930   39.1010 H   0  0  0  0  0  0  0  0  0  0  0  0
   38.9260   34.5760   40.5130 H   0  0  0  0  0  0  0  0  0  0  0  0
  1  2  1  0  0  0  0
  2  7  2  0  0  0  0
  2  3  1  0  0  0  0
  3  4  2  0  0  0  0
  4  5  1  0  0  0  0
  4  8  1  0  0  0  0
  5  9  1  0  0  0  0
  6 10  1  0  0  0  0
  6  5  2  0  0  0  0
  7  6  1  0  0  0  0
 11 12  1  0  0  0  0
 11  7  1  0  0  0  0
 13 12  1  0  0  0  0
 14 16  1  0  0  0  0
 14 15  1  0  0  0  0
 14 12  1  0  0  0  0
 17 16  1  0  0  0  0
 18 16  1  0  0  0  0
 19 18  1  0  0  0  0
 19 11  1  0  0  0  0
 20  3  1  0  0  0  0
 20 22  1  0  0  0  0
 21 20  1  0  0  0  0
 23 24  2  0  0  0  0
 23 28  1  0  0  0  0
 24 25  1  0  0  0  0
 25 31  1  0  0  0  0
 25 26  2  0  0  0  0
 27 26  1  0  0  0  0
 27 20  1  0  0  0  0
 28 27  2  0  0  0  0
 29 23  1  0  0  0  0
 30 24  1  0  0  0  0
M  END
>  <minimizedAffinity>
-5.22635746

$$$$

 OpenBabel03252502543D

 31 33  0  0  0  0  0  0  0  0999 V2000
   36.4990   26.3520   39.2350 Br  0  0  0  0  0  0  0  0  0  0  0  0
   37.0390   26.9340   40.9910 C   0  0  0  0  0  0  0  0  0  0  0  0
   36.5320   28.1340   41.4220 C   0  0  0  0  0  0  0  0  0  0  0  0
   36.9470   28.5240   42.7050 C   0  0  0  0  0  0  0  0  0  0  0  0
   37.7980   27.7710   43.4850 C   0  0  0  0  0  0  0  0  0  0  0  0
   38.2640   26.5880   42.9910 C   0  0  0  0  0  0  0  0  0  0  0  0
   37.8950   26.1470   41.7400 C   0  0  0  0  0  0  0  0  0  0  0  0
   36.5950   29.4570   43.1260 H   0  0  0  0  0  0  0  0  0  0  0  0
   38.1010   28.0900   44.4610 H   0  0  0  0  0  0  0  0  0  0  0  0
   38.9400   25.9640   43.5790 H   0  0  0  0  0  0  0  0  0  0  0  0
   38.4000   24.9080   41.2550 N   0  0  0  0  0  0  0  0  0  0  0  0
   37.6770   23.6620   41.1680 C   0  0  0  0  0  3  0  0  0  0  0  0
   37.6970   23.2360   42.2150 H   0  0  0  0  0  0  0  0  0  0  0  0
   38.4340   22.7050   40.3100 C   0  0  0  0  0  3  0  0  0  0  0  0
   37.7130   21.9110   39.9620 H   0  0  0  0  0  0  0  0  0  0  0  0
   39.0120   23.2660   39.1260 N   0  0  0  0  0  0  0  0  0  0  0  0
   39.7360   22.5670   38.7850 H   0  0  0  0  0  0  0  0  0  0  0  0
   39.7080   24.5090   39.3230 C   0  0  0  0  0  2  0  0  0  0  0  0
   39.7870   24.8710   40.7940 C   0  0  0  0  0  2  0  0  0  0  0  0
   35.6220   29.0110   40.6760 C   0  0  0  0  0  0  0  0  0  0  0  0
   34.7920   29.3620   41.3180 H   0  0  0  0  0  0  0  0  0  0  0  0
   35.1550   28.3980   39.8530 H   0  0  0  0  0  0  0  0  0  0  0  0
   37.2320   32.3210   40.0530 C   0  0  0  0  0  0  0  0  0  0  0  0
   37.5850   32.2120   38.7140 C   0  0  0  0  0  0  0  0  0  0  0  0
   37.2810   31.0430   38.0480 C   0  0  0  0  0  0  0  0  0  0  0  0
   36.6520   30.0480   38.7220 N   0  0  0  0  0  0  0  0  0  0  0  0
   36.3100   30.1710   40.0440 C   0  0  0  0  0  0  0  0  0  0  0  0
   36.6170   31.3210   40.6730 N   0  0  0  0  0  0  0  0  0  0  0  0
   37.4740   33.2530   40.5840 H   0  0  0  0  0  0  0  0  0  0  0  0
   38.0940   33.0480   38.2140 H   0  0  0  0  0  0  0  0  0  0  0  0
   37.5430   30.9300   37.0060 H   0  0  0  0  0  0  0  0  0  0  0  0
  1  2  1  0  0  0  0
  2  3  2  0  0  0  0
  2  7  1  0  0  0  0
  3  4  1  0  0  0  0
  4  8  1  0  0  0  0
  4  5  2  0  0  0  0
  5  9  1  0  0  0  0
  6  5  1  0  0  0  0
  6 10  1  0  0  0  0
  7  6  2  0  0  0  0
 11  7  1  0  0  0  0
 12 11  1  0  0  0  0
 12 13  1  0  0  0  0
 14 12  1  0  0  0  0
 15 14  1  0  0  0  0
 16 18  1  0  0  0  0
 16 14  1  0  0  0  0
 17 16  1  0  0  0  0
 18 19  1  0  0  0  0
 19 11  1  0  0  0  0
 20 21  1  0  0  0  0
 20  3  1  0  0  0  0
 22 20  1  0  0  0  0
 23 29  1  0  0  0  0
 23 28  1  0  0  0  0
 24 23  2  0  0  0  0
 25 24  1  0  0  0  0
 25 26  2  0  0  0  0
 26 27  1  0  0  0  0
 27 28  2  0  0  0  0
 27 20  1  0  0  0  0
 30 24  1  0  0  0  0
 31 25  1  0  0  0  0
M  END
>  <minimizedAffinity>
-5.21942854

$$$$

 OpenBabel03252502543D

 31 33  0  0  0  0  0  0  0  0999 V2000
   41.0250   29.1760   41.5740 Br  0  0  0  0  0  0  0  0  0  0  0  0
   39.2230   29.7960   41.2850 C   0  0  0  0  0  0  0  0  0  0  0  0
   38.2650   29.3150   42.1420 C   0  0  0  0  0  0  0  0  0  0  0  0
   36.9660   29.7900   41.9010 C   0  0  0  0  0  0  0  0  0  0  0  0
   36.6600   30.6710   40.8870 C   0  0  0  0  0  0  0  0  0  0  0  0
   37.6640   31.1060   40.0730 C   0  0  0  0  0  0  0  0  0  0  0  0
   38.9610   30.6800   40.2550 C   0  0  0  0  0  0  0  0  0  0  0  0
   36.1470   29.4640   42.5290 H   0  0  0  0  0  0  0  0  0  0  0  0
   35.6610   31.0180   40.7230 H   0  0  0  0  0  0  0  0  0  0  0  0
   37.4610   31.8040   39.2580 H   0  0  0  0  0  0  0  0  0  0  0  0
   39.9840   31.1540   39.3880 N   0  0  0  0  0  0  0  0  0  0  0  0
   40.3300   30.6160   38.0940 C   0  0  0  0  0  3  0  0  0  0  0  0
   40.9660   29.7080   38.3130 H   0  0  0  0  0  0  0  0  0  0  0  0
   41.2090   31.5800   37.3720 C   0  0  0  0  0  3  0  0  0  0  0  0
   41.1640   31.3290   36.2720 H   0  0  0  0  0  0  0  0  0  0  0  0
   40.8300   32.9570   37.4800 N   0  0  0  0  0  0  0  0  0  0  0  0
   41.6760   33.5260   37.1780 H   0  0  0  0  0  0  0  0  0  0  0  0
   40.5040   33.3910   38.8120 C   0  0  0  0  0  2  0  0  0  0  0  0
   40.7760   32.3000   39.8310 C   0  0  0  0  0  2  0  0  0  0  0  0
   38.4820   28.3790   43.2510 C   0  0  0  0  0  0  0  0  0  0  0  0
   37.7770   28.5770   44.0810 H   0  0  0  0  0  0  0  0  0  0  0  0
   39.5180   28.5640   43.6560 H   0  0  0  0  0  0  0  0  0  0  0  0
   39.3220   24.8520   42.3620 C   0  0  0  0  0  0  0  0  0  0  0  0
   38.0710   24.3350   42.0560 C   0  0  0  0  0  0  0  0  0  0  0  0
   36.9760   25.1680   42.1520 C   0  0  0  0  0  0  0  0  0  0  0  0
   37.1610   26.4550   42.5390 N   0  0  0  0  0  0  0  0  0  0  0  0
   38.4040   26.9500   42.8380 C   0  0  0  0  0  0  0  0  0  0  0  0
   39.4580   26.1180   42.7370 N   0  0  0  0  0  0  0  0  0  0  0  0
   40.1960   24.1890   42.2860 H   0  0  0  0  0  0  0  0  0  0  0  0
   37.9740   23.2850   41.7470 H   0  0  0  0  0  0  0  0  0  0  0  0
   35.9890   24.7950   41.9190 H   0  0  0  0  0  0  0  0  0  0  0  0
  2  1  1  0  0  0  0
  2  3  1  0  0  0  0
  3 20  1  0  0  0  0
  4  3  2  0  0  0  0
  4  8  1  0  0  0  0
  5  4  1  0  0  0  0
  6  7  1  0  0  0  0
  6  5  2  0  0  0  0
  7  2  2  0  0  0  0
  9  5  1  0  0  0  0
 10  6  1  0  0  0  0
 11 19  1  0  0  0  0
 11  7  1  0  0  0  0
 12 13  1  0  0  0  0
 12 11  1  0  0  0  0
 14 16  1  0  0  0  0
 14 12  1  0  0  0  0
 15 14  1  0  0  0  0
 16 18  1  0  0  0  0
 17 16  1  0  0  0  0
 18 19  1  0  0  0  0
 20 22  1  0  0  0  0
 20 21  1  0  0  0  0
 23 28  1  0  0  0  0
 24 25  1  0  0  0  0
 24 23  2  0  0  0  0
 25 26  2  0  0  0  0
 26 27  1  0  0  0  0
 27 20  1  0  0  0  0
 28 27  2  0  0  0  0
 29 23  1  0  0  0  0
 30 24  1  0  0  0  0
 31 25  1  0  0  0  0
M  END
>  <minimizedAffinity>
-4.97958422

$$$$

 OpenBabel03252502543D

 31 33  0  0  0  0  0  0  0  0999 V2000
   37.1420   29.6160   41.8350 Br  0  0  0  0  0  0  0  0  0  0  0  0
   39.0450   29.4340   42.0800 C   0  0  0  0  0  0  0  0  0  0  0  0
   39.4630   28.4050   42.8860 C   0  0  0  0  0  0  0  0  0  0  0  0
   40.8550   28.3040   43.0390 C   0  0  0  0  0  0  0  0  0  0  0  0
   41.7460   29.1640   42.4360 C   0  0  0  0  0  0  0  0  0  0  0  0
   41.2580   30.1650   41.6490 C   0  0  0  0  0  0  0  0  0  0  0  0
   39.9030   30.3200   41.4550 C   0  0  0  0  0  0  0  0  0  0  0  0
   41.2740   27.5200   43.6580 H   0  0  0  0  0  0  0  0  0  0  0  0
   42.8040   29.0670   42.5690 H   0  0  0  0  0  0  0  0  0  0  0  0
   41.9320   30.8670   41.1540 H   0  0  0  0  0  0  0  0  0  0  0  0
   39.4280   31.3750   40.6280 N   0  0  0  0  0  0  0  0  0  0  0  0
   39.0280   32.6930   41.0630 C   0  0  0  0  0  3  0  0  0  0  0  0
   37.9800   32.5640   41.4650 H   0  0  0  0  0  0  0  0  0  0  0  0
   38.9180   33.5950   39.8810 C   0  0  0  0  0  3  0  0  0  0  0  0
   38.9700   34.6590   40.2550 H   0  0  0  0  0  0  0  0  0  0  0  0
   39.9600   33.4640   38.9070 N   0  0  0  0  0  0  0  0  0  0  0  0
   39.6050   33.9350   38.0230 H   0  0  0  0  0  0  0  0  0  0  0  0
   40.2820   32.1090   38.5460 C   0  0  0  0  0  2  0  0  0  0  0  0
   39.3280   31.1230   39.1920 C   0  0  0  0  0  2  0  0  0  0  0  0
   38.6030   27.4350   43.5730 C   0  0  0  0  0  0  0  0  0  0  0  0
   37.6170   27.8750   43.8110 H   0  0  0  0  0  0  0  0  0  0  0  0
   39.0910   27.1860   44.5590 H   0  0  0  0  0  0  0  0  0  0  0  0
   39.1950   24.1580   41.8840 C   0  0  0  0  0  0  0  0  0  0  0  0
   37.9280   23.8600   41.4010 C   0  0  0  0  0  0  0  0  0  0  0  0
   36.9050   24.7520   41.6470 C   0  0  0  0  0  0  0  0  0  0  0  0
   37.1740   25.8830   42.3470 N   0  0  0  0  0  0  0  0  0  0  0  0
   38.4310   26.1620   42.8180 C   0  0  0  0  0  0  0  0  0  0  0  0
   39.4130   25.2770   42.5660 N   0  0  0  0  0  0  0  0  0  0  0  0
   40.0110   23.4470   41.6890 H   0  0  0  0  0  0  0  0  0  0  0  0
   37.7630   22.9300   40.8390 H   0  0  0  0  0  0  0  0  0  0  0  0
   35.9090   24.5480   41.2830 H   0  0  0  0  0  0  0  0  0  0  0  0
  1  2  1  0  0  0  0
  2  3  1  0  0  0  0
  3  4  2  0  0  0  0
  3 20  1  0  0  0  0
  4  8  1  0  0  0  0
  5  9  1  0  0  0  0
  5  4  1  0  0  0  0
  6  5  2  0  0  0  0
  7  6  1  0  0  0  0
  7  2  2  0  0  0  0
 10  6  1  0  0  0  0
 11 12  1  0  0  0  0
 11  7  1  0  0  0  0
 12 13  1  0  0  0  0
 14 15  1  0  0  0  0
 14 12  1  0  0  0  0
 16 14  1  0  0  0  0
 17 16  1  0  0  0  0
 18 16  1  0  0  0  0
 18 19  1  0  0  0  0
 19 11  1  0  0  0  0
 20 21  1  0  0  0  0
 20 22  1  0  0  0  0
 23 28  1  0  0  0  0
 24 25  1  0  0  0  0
 24 23  2  0  0  0  0
 25 26  2  0  0  0  0
 26 27  1  0  0  0  0
 27 20  1  0  0  0  0
 28 27  2  0  0  0  0
 29 23  1  0  0  0  0
 30 24  1  0  0  0  0
 31 25  1  0  0  0  0
M  END
>  <minimizedAffinity>
-4.89160347

$$$$

 OpenBabel03252502543D

 31 33  0  0  0  0  0  0  0  0999 V2000
   37.5630   29.6050   38.7500 Br  0  0  0  0  0  0  0  0  0  0  0  0
   37.8900   29.2890   40.6230 C   0  0  0  0  0  0  0  0  0  0  0  0
   37.3910   28.1220   41.1440 C   0  0  0  0  0  0  0  0  0  0  0  0
   37.6500   27.9270   42.5100 C   0  0  0  0  0  0  0  0  0  0  0  0
   38.3500   28.8280   43.2820 C   0  0  0  0  0  0  0  0  0  0  0  0
   38.8160   29.9680   42.6970 C   0  0  0  0  0  0  0  0  0  0  0  0
   38.5980   30.2200   41.3610 C   0  0  0  0  0  0  0  0  0  0  0  0
   37.2940   27.0330   43.0050 H   0  0  0  0  0  0  0  0  0  0  0  0
   38.5350   28.6570   44.3230 H   0  0  0  0  0  0  0  0  0  0  0  0
   39.3750   30.7060   43.2760 H   0  0  0  0  0  0  0  0  0  0  0  0
   39.0980   31.4200   40.7810 N   0  0  0  0  0  0  0  0  0  0  0  0
   38.4050   32.6830   40.6890 C   0  0  0  0  0  3  0  0  0  0  0  0
   37.7080   32.5720   39.8070 H   0  0  0  0  0  0  0  0  0  0  0  0
   39.3730   33.7580   40.3280 C   0  0  0  0  0  3  0  0  0  0  0  0
   38.9120   34.7460   40.6160 H   0  0  0  0  0  0  0  0  0  0  0  0
   40.6370   33.6980   41.0000 N   0  0  0  0  0  0  0  0  0  0  0  0
   41.3000   34.3200   40.4500 H   0  0  0  0  0  0  0  0  0  0  0  0
   41.2410   32.3930   41.0370 C   0  0  0  0  0  2  0  0  0  0  0  0
   40.4470   31.3930   40.2180 C   0  0  0  0  0  2  0  0  0  0  0  0
   36.6360   27.0970   40.4140 C   0  0  0  0  0  0  0  0  0  0  0  0
   36.4430   27.4120   39.3710 H   0  0  0  0  0  0  0  0  0  0  0  0
   35.6290   26.9970   40.9120 H   0  0  0  0  0  0  0  0  0  0  0  0
   37.4550   23.5170   41.0860 C   0  0  0  0  0  0  0  0  0  0  0  0
   38.6310   23.3600   40.3650 C   0  0  0  0  0  0  0  0  0  0  0  0
   39.1260   24.4450   39.6720 C   0  0  0  0  0  0  0  0  0  0  0  0
   38.4490   25.6190   39.7210 N   0  0  0  0  0  0  0  0  0  0  0  0
   37.2890   25.7580   40.4370 C   0  0  0  0  0  0  0  0  0  0  0  0
   36.8250   24.6850   41.1050 N   0  0  0  0  0  0  0  0  0  0  0  0
   37.0590   22.6520   41.6390 H   0  0  0  0  0  0  0  0  0  0  0  0
   39.1410   22.3860   40.3590 H   0  0  0  0  0  0  0  0  0  0  0  0
   40.0390   24.3530   39.1030 H   0  0  0  0  0  0  0  0  0  0  0  0
  1  2  1  0  0  0  0
  2  3  2  0  0  0  0
  2  7  1  0  0  0  0
  3  4  1  0  0  0  0
  4  8  1  0  0  0  0
  4  5  2  0  0  0  0
  5  9  1  0  0  0  0
  6 10  1  0  0  0  0
  6  5  1  0  0  0  0
  7  6  2  0  0  0  0
 11  7  1  0  0  0  0
 12 11  1  0  0  0  0
 13 12  1  0  0  0  0
 14 15  1  0  0  0  0
 14 12  1  0  0  0  0
 14 16  1  0  0  0  0
 16 18  1  0  0  0  0
 17 16  1  0  0  0  0
 19 11  1  0  0  0  0
 19 18  1  0  0  0  0
 20 27  1  0  0  0  0
 20 22  1  0  0  0  0
 20  3  1  0  0  0  0
 21 20  1  0  0  0  0
 23 28  1  0  0  0  0
 23 29  1  0  0  0  0
 24 23  2  0  0  0  0
 25 26  2  0  0  0  0
 25 24  1  0  0  0  0
 26 27  1  0  0  0  0
 27 28  2  0  0  0  0
 30 24  1  0  0  0  0
 31 25  1  0  0  0  0
M  END
>  <minimizedAffinity>
-4.84285975

$$$$

 OpenBabel03252502543D

 31 33  0  0  0  0  0  0  0  0999 V2000
   37.3340   27.8080   42.3100 Br  0  0  0  0  0  0  0  0  0  0  0  0
   36.7460   27.9190   40.4770 C   0  0  0  0  0  0  0  0  0  0  0  0
   36.2070   29.1160   40.0780 C   0  0  0  0  0  0  0  0  0  0  0  0
   35.7920   29.1590   38.7380 C   0  0  0  0  0  0  0  0  0  0  0  0
   35.9090   28.0900   37.8770 C   0  0  0  0  0  0  0  0  0  0  0  0
   36.4540   26.9310   38.3430 C   0  0  0  0  0  0  0  0  0  0  0  0
   36.8830   26.8220   39.6470 C   0  0  0  0  0  0  0  0  0  0  0  0
   35.3550   30.0650   38.3360 H   0  0  0  0  0  0  0  0  0  0  0  0
   35.5840   28.1470   36.8580 H   0  0  0  0  0  0  0  0  0  0  0  0
   36.5640   26.0620   37.6900 H   0  0  0  0  0  0  0  0  0  0  0  0
   37.4470   25.5970   40.1010 N   0  0  0  0  0  0  0  0  0  0  0  0
   38.8520   25.3040   40.2530 C   0  0  0  0  0  3  0  0  0  0  0  0
   39.2170   25.0610   39.2110 H   0  0  0  0  0  0  0  0  0  0  0  0
   39.0170   24.0580   41.0570 C   0  0  0  0  0  3  0  0  0  0  0  0
   40.0680   24.0510   41.4670 H   0  0  0  0  0  0  0  0  0  0  0  0
   38.1480   23.9390   42.1900 N   0  0  0  0  0  0  0  0  0  0  0  0
   38.1720   22.9160   42.4790 H   0  0  0  0  0  0  0  0  0  0  0  0
   36.7690   24.2560   41.9300 C   0  0  0  0  0  2  0  0  0  0  0  0
   36.5300   24.5150   40.4550 C   0  0  0  0  0  2  0  0  0  0  0  0
   36.0370   30.3130   40.9100 C   0  0  0  0  0  0  0  0  0  0  0  0
   35.9310   30.0440   41.9780 H   0  0  0  0  0  0  0  0  0  0  0  0
   35.0700   30.8060   40.6040 H   0  0  0  0  0  0  0  0  0  0  0  0
   39.3010   32.1190   41.0580 C   0  0  0  0  0  0  0  0  0  0  0  0
   39.0250   33.2560   40.3110 C   0  0  0  0  0  0  0  0  0  0  0  0
   37.7630   33.3990   39.7750 C   0  0  0  0  0  0  0  0  0  0  0  0
   36.8420   32.4280   39.9970 N   0  0  0  0  0  0  0  0  0  0  0  0
   37.1300   31.3100   40.7360 C   0  0  0  0  0  0  0  0  0  0  0  0
   38.3690   31.1930   41.2490 N   0  0  0  0  0  0  0  0  0  0  0  0
   40.3080   32.0040   41.4850 H   0  0  0  0  0  0  0  0  0  0  0  0
   39.8070   34.0140   40.1620 H   0  0  0  0  0  0  0  0  0  0  0  0
   37.5180   34.2740   39.1910 H   0  0  0  0  0  0  0  0  0  0  0  0
  2  1  1  0  0  0  0
  3  2  1  0  0  0  0
  3 20  1  0  0  0  0
  4  3  2  0  0  0  0
  5  6  2  0  0  0  0
  5  4  1  0  0  0  0
  6  7  1  0  0  0  0
  7 11  1  0  0  0  0
  7  2  2  0  0  0  0
  8  4  1  0  0  0  0
  9  5  1  0  0  0  0
 10  6  1  0  0  0  0
 11 12  1  0  0  0  0
 11 19  1  0  0  0  0
 12 14  1  0  0  0  0
 13 12  1  0  0  0  0
 14 15  1  0  0  0  0
 14 16  1  0  0  0  0
 16 17  1  0  0  0  0
 18 16  1  0  0  0  0
 19 18  1  0  0  0  0
 20 21  1  0  0  0  0
 22 20  1  0  0  0  0
 23 28  1  0  0  0  0
 23 29  1  0  0  0  0
 24 23  2  0  0  0  0
 25 26  2  0  0  0  0
 25 24  1  0  0  0  0
 26 27  1  0  0  0  0
 27 20  1  0  0  0  0
 27 28  2  0  0  0  0
 30 24  1  0  0  0  0
 31 25  1  0  0  0  0
M  END
>  <minimizedAffinity>
-4.82060814

$$$$

 OpenBabel03252502543D

 31 33  0  0  0  0  0  0  0  0999 V2000
   40.4210   29.8240   38.9830 Br  0  0  0  0  0  0  0  0  0  0  0  0
   39.3830   31.3850   39.4310 C   0  0  0  0  0  0  0  0  0  0  0  0
   38.0740   31.1690   39.7840 C   0  0  0  0  0  0  0  0  0  0  0  0
   37.3510   32.3300   40.1040 C   0  0  0  0  0  0  0  0  0  0  0  0
   37.8970   33.5940   40.0710 C   0  0  0  0  0  0  0  0  0  0  0  0
   39.2050   33.7320   39.7100 C   0  0  0  0  0  0  0  0  0  0  0  0
   39.9710   32.6350   39.3850 C   0  0  0  0  0  0  0  0  0  0  0  0
   36.3100   32.2540   40.3950 H   0  0  0  0  0  0  0  0  0  0  0  0
   37.3250   34.4640   40.3190 H   0  0  0  0  0  0  0  0  0  0  0  0
   39.6740   34.7180   39.6720 H   0  0  0  0  0  0  0  0  0  0  0  0
   41.3330   32.8150   39.0120 N   0  0  0  0  0  0  0  0  0  0  0  0
   42.4840   32.6680   39.8700 C   0  0  0  0  0  3  0  0  0  0  0  0
   42.5390   33.6330   40.4570 H   0  0  0  0  0  0  0  0  0  0  0  0
   43.7210   32.6100   39.0390 C   0  0  0  0  0  3  0  0  0  0  0  0
   44.5340   32.1400   39.6650 H   0  0  0  0  0  0  0  0  0  0  0  0
   43.6260   31.8170   37.8500 N   0  0  0  0  0  0  0  0  0  0  0  0
   44.4470   32.0970   37.2360 H   0  0  0  0  0  0  0  0  0  0  0  0
   42.4390   32.0390   37.0680 C   0  0  0  0  0  2  0  0  0  0  0  0
   41.6160   33.1850   37.6270 C   0  0  0  0  0  2  0  0  0  0  0  0
   37.3950   29.8710   39.8530 C   0  0  0  0  0  0  0  0  0  0  0  0
   37.8180   29.1610   39.1180 H   0  0  0  0  0  0  0  0  0  0  0  0
   36.3180   30.0340   39.5610 H   0  0  0  0  0  0  0  0  0  0  0  0
   38.1410   29.1230   43.4340 C   0  0  0  0  0  0  0  0  0  0  0  0
   37.3090   28.0370   43.6720 C   0  0  0  0  0  0  0  0  0  0  0  0
   36.5180   27.5780   42.6390 C   0  0  0  0  0  0  0  0  0  0  0  0
   36.5830   28.2000   41.4350 N   0  0  0  0  0  0  0  0  0  0  0  0
   37.4100   29.2710   41.2170 C   0  0  0  0  0  0  0  0  0  0  0  0
   38.1720   29.7010   42.2400 N   0  0  0  0  0  0  0  0  0  0  0  0
   38.7720   29.4900   44.2570 H   0  0  0  0  0  0  0  0  0  0  0  0
   37.2930   27.5680   44.6660 H   0  0  0  0  0  0  0  0  0  0  0  0
   35.8610   26.7340   42.7940 H   0  0  0  0  0  0  0  0  0  0  0  0
  1  2  1  0  0  0  0
  2  3  1  0  0  0  0
  3 20  1  0  0  0  0
  3  4  2  0  0  0  0
  4  8  1  0  0  0  0
  5  4  1  0  0  0  0
  5  9  1  0  0  0  0
  6  5  2  0  0  0  0
  7  2  2  0  0  0  0
  7  6  1  0  0  0  0
 10  6  1  0  0  0  0
 11  7  1  0  0  0  0
 11 12  1  0  0  0  0
 12 13  1  0  0  0  0
 14 15  1  0  0  0  0
 14 12  1  0  0  0  0
 16 14  1  0  0  0  0
 17 16  1  0  0  0  0
 18 19  1  0  0  0  0
 18 16  1  0  0  0  0
 19 11  1  0  0  0  0
 20 27  1  0  0  0  0
 21 20  1  0  0  0  0
 22 20  1  0  0  0  0
 23 24  1  0  0  0  0
 23 29  1  0  0  0  0
 24 30  1  0  0  0  0
 25 31  1  0  0  0  0
 25 24  2  0  0  0  0
 26 25  1  0  0  0  0
 27 26  2  0  0  0  0
 27 28  1  0  0  0  0
 28 23  2  0  0  0  0
M  END
>  <minimizedAffinity>
-4.81100941

$$$$
