
 OpenBabel03242512493D

 30 32  0  0  1  0  0  0  0  0999 V2000
   36.3190   29.1000   40.2880 N   0  0  0  0  0  0  0  0  0  0  0  0
   34.9310   29.2830   39.9510 C   0  0  0  0  0  0  0  0  0  0  0  0
   34.9890   28.9170   38.4900 C   0  0  0  0  0  0  0  0  0  0  0  0
   36.0910   29.8670   38.0730 C   0  0  0  0  0  0  0  0  0  0  0  0
   37.0590   29.7340   39.2340 C   0  0  1  0  0  0  0  0  0  0  0  0
   34.5740   30.3220   40.0650 H   0  0  0  0  0  0  0  0  0  0  0  0
   34.2770   28.5530   40.4860 H   0  0  0  0  0  0  0  0  0  0  0  0
   35.2510   27.8610   38.3560 H   0  0  0  0  0  0  0  0  0  0  0  0
   34.0270   29.1870   37.9620 H   0  0  0  0  0  0  0  0  0  0  0  0
   36.5440   29.6030   37.1090 H   0  0  0  0  0  0  0  0  0  0  0  0
   35.6380   30.8830   38.1080 H   0  0  0  0  0  0  0  0  0  0  0  0
   37.8720   29.0660   38.9020 H   0  0  0  0  0  0  0  0  0  0  0  0
   37.8570   26.5830   42.5470 C   0  0  0  0  0  0  0  0  0  0  0  0
   37.2540   27.1030   41.4050 C   0  0  0  0  0  0  0  0  0  0  0  0
   36.9260   28.4600   41.3820 C   0  0  0  0  0  0  0  0  0  0  0  0
   37.2210   29.1790   42.4930 N   0  0  0  0  0  0  0  0  0  0  0  0
   37.8040   28.6770   43.5980 C   0  0  0  0  0  0  0  0  0  0  0  0
   38.1240   27.3600   43.6220 N   0  0  0  0  0  0  0  0  0  0  0  0
   38.1090   25.5320   42.5580 H   0  0  0  0  0  0  0  0  0  0  0  0
   37.0320   26.5190   40.5460 H   0  0  0  0  0  0  0  0  0  0  0  0
   37.9720   29.3890   44.3990 H   0  0  0  0  0  0  0  0  0  0  0  0
   37.6180   31.0070   39.6180 N   0  0  1  0  0  0  0  0  0  0  0  0
   39.0340   31.0330   39.6170 C   0  0  0  0  0  3  0  0  0  0  0  0
   39.5110   30.2080   39.0500 H   0  0  0  0  0  0  0  0  0  0  0  0
   39.6490   32.2960   39.0860 C   0  0  0  0  0  3  0  0  0  0  0  0
   40.6680   32.3720   39.5210 H   0  0  0  0  0  0  0  0  0  0  0  0
   38.9500   33.4970   39.3600 N   0  0  0  0  0  0  0  0  0  0  0  0
   39.4430   34.2020   39.9210 H   0  0  0  0  0  0  0  0  0  0  0  0
   37.5520   33.3630   39.6590 C   0  0  0  0  0  2  0  0  0  0  0  0
   37.0690   32.1110   38.9140 C   0  0  0  0  0  2  0  0  0  0  0  0
  1 15  1  0  0  0  0
  2  6  1  0  0  0  0
  2  1  1  0  0  0  0
  2  7  1  0  0  0  0
  3  2  1  0  0  0  0
  4 11  1  0  0  0  0
  4  3  1  0  0  0  0
  4  5  1  0  0  0  0
  5 12  1  6  0  0  0
  5 22  1  0  0  0  0
  5  1  1  0  0  0  0
  8  3  1  0  0  0  0
  9  3  1  0  0  0  0
 10  4  1  0  0  0  0
 13 19  1  0  0  0  0
 13 18  1  0  0  0  0
 14 13  2  0  0  0  0
 15 14  1  0  0  0  0
 15 16  2  0  0  0  0
 16 17  1  0  0  0  0
 17 18  2  0  0  0  0
 17 21  1  0  0  0  0
 20 14  1  0  0  0  0
 22 30  1  6  0  0  0
 23 22  1  0  0  0  0
 24 23  1  0  0  0  0
 25 27  1  0  0  0  0
 25 26  1  0  0  0  0
 25 23  1  0  0  0  0
 27 29  1  0  0  0  0
 27 28  1  0  0  0  0
 30 29  1  0  0  0  0
M  END
>  <minimizedAffinity>
-4.83503437

$$$$

 OpenBabel03242512493D

 30 32  0  0  1  0  0  0  0  0999 V2000
   37.1260   30.4290   39.4850 N   0  0  0  0  0  0  0  0  0  0  0  0
   36.8870   29.7460   38.2390 C   0  0  0  0  0  0  0  0  0  0  0  0
   35.4080   29.4950   38.3850 C   0  0  0  0  0  0  0  0  0  0  0  0
   35.4360   28.8060   39.7320 C   0  0  0  0  0  0  0  0  0  0  0  0
   36.4410   29.6590   40.4850 C   0  0  1  0  0  0  0  0  0  0  0  0
   37.4240   28.7860   38.1430 H   0  0  0  0  0  0  0  0  0  0  0  0
   37.0610   30.4150   37.3630 H   0  0  0  0  0  0  0  0  0  0  0  0
   34.8440   30.4350   38.3880 H   0  0  0  0  0  0  0  0  0  0  0  0
   35.0360   28.7790   37.5930 H   0  0  0  0  0  0  0  0  0  0  0  0
   34.4550   28.7750   40.2190 H   0  0  0  0  0  0  0  0  0  0  0  0
   35.8920   27.8080   39.5470 H   0  0  0  0  0  0  0  0  0  0  0  0
   35.8660   30.3340   41.1390 H   0  0  0  0  0  0  0  0  0  0  0  0
   38.1390   33.9630   40.0150 C   0  0  0  0  0  0  0  0  0  0  0  0
   37.3190   32.8830   39.7020 C   0  0  0  0  0  0  0  0  0  0  0  0
   37.8550   31.5950   39.7730 C   0  0  0  0  0  0  0  0  0  0  0  0
   39.1550   31.4940   40.1430 N   0  0  0  0  0  0  0  0  0  0  0  0
   39.9490   32.5370   40.4440 C   0  0  0  0  0  0  0  0  0  0  0  0
   39.4320   33.7880   40.3780 N   0  0  0  0  0  0  0  0  0  0  0  0
   37.7190   34.9580   39.9590 H   0  0  0  0  0  0  0  0  0  0  0  0
   36.3020   32.9880   39.4140 H   0  0  0  0  0  0  0  0  0  0  0  0
   40.9670   32.2820   40.7230 H   0  0  0  0  0  0  0  0  0  0  0  0
   37.3300   28.8580   41.2930 N   0  0  1  0  0  0  0  0  0  0  0  0
   37.4820   29.3350   42.6170 C   0  0  0  0  0  3  0  0  0  0  0  0
   36.6990   30.0490   42.9450 H   0  0  0  0  0  0  0  0  0  0  0  0
   37.5280   28.2720   43.6770 C   0  0  0  0  0  3  0  0  0  0  0  0
   38.0610   28.7040   44.5510 H   0  0  0  0  0  0  0  0  0  0  0  0
   38.1590   27.0560   43.3180 N   0  0  0  0  0  0  0  0  0  0  0  0
   38.9900   26.7890   43.8590 H   0  0  0  0  0  0  0  0  0  0  0  0
   38.2420   26.7750   41.9120 C   0  0  0  0  0  2  0  0  0  0  0  0
   37.0380   27.4690   41.2620 C   0  0  0  0  0  2  0  0  0  0  0  0
  1 15  1  0  0  0  0
  1  5  1  0  0  0  0
  2  3  1  0  0  0  0
  2  1  1  0  0  0  0
  3  8  1  0  0  0  0
  3  4  1  0  0  0  0
  4 10  1  0  0  0  0
  4  5  1  0  0  0  0
  5 12  1  1  0  0  0
  5 22  1  0  0  0  0
  6  2  1  0  0  0  0
  7  2  1  0  0  0  0
  9  3  1  0  0  0  0
 11  4  1  0  0  0  0
 13 18  1  0  0  0  0
 14 15  1  0  0  0  0
 14 13  2  0  0  0  0
 15 16  2  0  0  0  0
 16 17  1  0  0  0  0
 17 21  1  0  0  0  0
 18 17  2  0  0  0  0
 19 13  1  0  0  0  0
 20 14  1  0  0  0  0
 22 30  1  1  0  0  0
 22 23  1  0  0  0  0
 23 24  1  0  0  0  0
 23 25  1  0  0  0  0
 25 26  1  0  0  0  0
 27 25  1  0  0  0  0
 27 28  1  0  0  0  0
 29 27  1  0  0  0  0
 30 29  1  0  0  0  0
M  END
>  <minimizedAffinity>
-4.53688002

$$$$

 OpenBabel03242512493D

 30 32  0  0  1  0  0  0  0  0999 V2000
   36.8990   28.2130   41.5190 N   0  0  0  0  0  0  0  0  0  0  0  0
   37.4410   27.1050   42.2630 C   0  0  0  0  0  0  0  0  0  0  0  0
   37.0140   27.5150   43.6490 C   0  0  0  0  0  0  0  0  0  0  0  0
   37.6090   28.9070   43.6560 C   0  0  0  0  0  0  0  0  0  0  0  0
   37.2640   29.3890   42.2590 C   0  0  1  0  0  0  0  0  0  0  0  0
   38.5420   27.0280   42.2150 H   0  0  0  0  0  0  0  0  0  0  0  0
   36.9400   26.1450   41.9940 H   0  0  0  0  0  0  0  0  0  0  0  0
   35.9230   27.5080   43.7460 H   0  0  0  0  0  0  0  0  0  0  0  0
   37.5160   26.8780   44.4360 H   0  0  0  0  0  0  0  0  0  0  0  0
   37.1930   29.5480   44.4420 H   0  0  0  0  0  0  0  0  0  0  0  0
   38.7110   28.7600   43.7140 H   0  0  0  0  0  0  0  0  0  0  0  0
   36.3870   30.0510   42.3530 H   0  0  0  0  0  0  0  0  0  0  0  0
   34.4090   29.0270   38.8850 C   0  0  0  0  0  0  0  0  0  0  0  0
   35.0570   29.0760   40.1170 C   0  0  0  0  0  0  0  0  0  0  0  0
   36.1630   28.2500   40.3230 C   0  0  0  0  0  0  0  0  0  0  0  0
   36.5270   27.4470   39.2920 N   0  0  0  0  0  0  0  0  0  0  0  0
   35.9020   27.3990   38.1020 C   0  0  0  0  0  0  0  0  0  0  0  0
   34.8280   28.2000   37.8980 N   0  0  0  0  0  0  0  0  0  0  0  0
   33.5530   29.6690   38.7310 H   0  0  0  0  0  0  0  0  0  0  0  0
   34.7520   29.7140   40.9100 H   0  0  0  0  0  0  0  0  0  0  0  0
   36.3220   26.7010   37.3840 H   0  0  0  0  0  0  0  0  0  0  0  0
   38.3510   30.1240   41.6570 N   0  0  1  0  0  0  0  0  0  0  0  0
   37.9370   31.2840   40.9590 C   0  0  0  0  0  3  0  0  0  0  0  0
   36.9160   31.6370   41.2100 H   0  0  0  0  0  0  0  0  0  0  0  0
   38.8290   32.4820   41.1270 C   0  0  0  0  0  3  0  0  0  0  0  0
   38.6650   33.1380   40.2450 H   0  0  0  0  0  0  0  0  0  0  0  0
   40.2150   32.2180   41.2430 N   0  0  0  0  0  0  0  0  0  0  0  0
   40.8240   32.6160   40.5170 H   0  0  0  0  0  0  0  0  0  0  0  0
   40.5770   30.8980   41.6730 C   0  0  0  0  0  2  0  0  0  0  0  0
   39.4210   30.3980   42.5500 C   0  0  0  0  0  2  0  0  0  0  0  0
  1  5  1  0  0  0  0
  1  2  1  0  0  0  0
  2  3  1  0  0  0  0
  3  4  1  0  0  0  0
  3  8  1  0  0  0  0
  3  9  1  0  0  0  0
  4 11  1  0  0  0  0
  4 10  1  0  0  0  0
  5 12  1  1  0  0  0
  5  4  1  0  0  0  0
  6  2  1  0  0  0  0
  7  2  1  0  0  0  0
 13 14  1  0  0  0  0
 14 15  2  0  0  0  0
 14 20  1  0  0  0  0
 15  1  1  0  0  0  0
 16 15  1  0  0  0  0
 17 16  2  0  0  0  0
 18 17  1  0  0  0  0
 18 13  2  0  0  0  0
 19 13  1  0  0  0  0
 21 17  1  0  0  0  0
 22  5  1  0  0  0  0
 22 30  1  1  0  0  0
 23 25  1  0  0  0  0
 23 24  1  0  0  0  0
 23 22  1  0  0  0  0
 25 27  1  0  0  0  0
 26 25  1  0  0  0  0
 27 29  1  0  0  0  0
 28 27  1  0  0  0  0
 29 30  1  0  0  0  0
M  END
>  <minimizedAffinity>
-4.51136398

$$$$

 OpenBabel03242512493D

 30 32  0  0  1  0  0  0  0  0999 V2000
   37.3980   28.9500   39.8620 N   0  0  0  0  0  0  0  0  0  0  0  0
   36.4650   28.6290   38.8130 C   0  0  0  0  0  0  0  0  0  0  0  0
   37.4230   28.5700   37.6510 C   0  0  0  0  0  0  0  0  0  0  0  0
   38.0600   29.9320   37.8250 C   0  0  0  0  0  0  0  0  0  0  0  0
   38.2320   29.9930   39.3320 C   0  0  1  0  0  0  0  0  0  0  0  0
   35.7050   29.4100   38.6350 H   0  0  0  0  0  0  0  0  0  0  0  0
   36.0070   27.6230   38.9630 H   0  0  0  0  0  0  0  0  0  0  0  0
   38.1300   27.7410   37.7620 H   0  0  0  0  0  0  0  0  0  0  0  0
   36.8690   28.5270   36.6670 H   0  0  0  0  0  0  0  0  0  0  0  0
   39.0090   30.0340   37.2850 H   0  0  0  0  0  0  0  0  0  0  0  0
   37.2780   30.6670   37.5310 H   0  0  0  0  0  0  0  0  0  0  0  0
   39.2880   29.7640   39.5470 H   0  0  0  0  0  0  0  0  0  0  0  0
   36.7520   27.5810   43.2550 C   0  0  0  0  0  0  0  0  0  0  0  0
   36.4780   28.1000   41.9920 C   0  0  0  0  0  0  0  0  0  0  0  0
   37.5480   28.4240   41.1560 C   0  0  0  0  0  0  0  0  0  0  0  0
   38.7940   28.2060   41.6460 N   0  0  0  0  0  0  0  0  0  0  0  0
   39.0600   27.7050   42.8660 C   0  0  0  0  0  0  0  0  0  0  0  0
   38.0230   27.3890   43.6800 N   0  0  0  0  0  0  0  0  0  0  0  0
   35.9190   27.3320   43.8970 H   0  0  0  0  0  0  0  0  0  0  0  0
   35.4920   28.2620   41.6310 H   0  0  0  0  0  0  0  0  0  0  0  0
   40.1130   27.5920   43.1030 H   0  0  0  0  0  0  0  0  0  0  0  0
   37.9120   31.2980   39.8590 N   0  0  1  0  0  0  0  0  0  0  0  0
   38.8150   31.7490   40.8510 C   0  0  0  0  0  3  0  0  0  0  0  0
   39.7820   31.2080   40.8780 H   0  0  0  0  0  0  0  0  0  0  0  0
   39.1710   33.2070   40.7750 C   0  0  0  0  0  3  0  0  0  0  0  0
   39.5000   33.5170   41.7900 H   0  0  0  0  0  0  0  0  0  0  0  0
   38.1420   34.0810   40.3460 N   0  0  0  0  0  0  0  0  0  0  0  0
   37.8430   34.8040   41.0110 H   0  0  0  0  0  0  0  0  0  0  0  0
   37.0790   33.4860   39.5860 C   0  0  0  0  0  2  0  0  0  0  0  0
   37.6910   32.2820   38.8580 C   0  0  0  0  0  2  0  0  0  0  0  0
  1 15  1  0  0  0  0
  2  7  1  0  0  0  0
  2  1  1  0  0  0  0
  3  8  1  0  0  0  0
  3  4  1  0  0  0  0
  3  2  1  0  0  0  0
  4  5  1  0  0  0  0
  5 12  1  1  0  0  0
  5 22  1  0  0  0  0
  5  1  1  0  0  0  0
  6  2  1  0  0  0  0
  9  3  1  0  0  0  0
 10  4  1  0  0  0  0
 11  4  1  0  0  0  0
 13 18  1  0  0  0  0
 13 19  1  0  0  0  0
 14 13  2  0  0  0  0
 15 16  2  0  0  0  0
 15 14  1  0  0  0  0
 16 17  1  0  0  0  0
 17 21  1  0  0  0  0
 17 18  2  0  0  0  0
 20 14  1  0  0  0  0
 22 30  1  6  0  0  0
 22 23  1  0  0  0  0
 23 24  1  0  0  0  0
 25 23  1  0  0  0  0
 25 26  1  0  0  0  0
 27 25  1  0  0  0  0
 27 28  1  0  0  0  0
 29 27  1  0  0  0  0
 30 29  1  0  0  0  0
M  END
>  <minimizedAffinity>
-4.38584948

$$$$

 OpenBabel03242512493D

 30 32  0  0  1  0  0  0  0  0999 V2000
   37.7860   30.3160   40.6150 N   0  0  0  0  0  0  0  0  0  0  0  0
   38.5690   31.5240   40.5510 C   0  0  0  0  0  0  0  0  0  0  0  0
   37.4870   32.4900   40.1450 C   0  0  0  0  0  0  0  0  0  0  0  0
   36.9800   31.7490   38.9260 C   0  0  0  0  0  0  0  0  0  0  0  0
   36.9820   30.3150   39.4240 C   0  0  1  0  0  0  0  0  0  0  0  0
   39.3640   31.5030   39.7840 H   0  0  0  0  0  0  0  0  0  0  0  0
   38.9610   31.8130   41.5550 H   0  0  0  0  0  0  0  0  0  0  0  0
   36.7330   32.5960   40.9340 H   0  0  0  0  0  0  0  0  0  0  0  0
   37.9230   33.4860   39.8360 H   0  0  0  0  0  0  0  0  0  0  0  0
   35.9880   32.0840   38.6010 H   0  0  0  0  0  0  0  0  0  0  0  0
   37.7790   31.8550   38.1590 H   0  0  0  0  0  0  0  0  0  0  0  0
   35.9420   30.0610   39.6840 H   0  0  0  0  0  0  0  0  0  0  0  0
   36.6770   27.5490   42.8320 C   0  0  0  0  0  0  0  0  0  0  0  0
   36.6000   28.5370   41.8540 C   0  0  0  0  0  0  0  0  0  0  0  0
   37.7400   29.2960   41.5790 C   0  0  0  0  0  0  0  0  0  0  0  0
   38.8520   29.0090   42.2990 N   0  0  0  0  0  0  0  0  0  0  0  0
   38.9280   28.0550   43.2440 C   0  0  0  0  0  0  0  0  0  0  0  0
   37.8240   27.3160   43.5130 N   0  0  0  0  0  0  0  0  0  0  0  0
   35.7920   26.9650   43.0390 H   0  0  0  0  0  0  0  0  0  0  0  0
   35.7150   28.7430   41.3030 H   0  0  0  0  0  0  0  0  0  0  0  0
   39.8960   27.9540   43.7270 H   0  0  0  0  0  0  0  0  0  0  0  0
   37.4590   29.3960   38.4190 N   0  0  1  0  0  0  0  0  0  0  0  0
   36.4820   29.0490   37.4540 C   0  0  0  0  0  3  0  0  0  0  0  0
   35.6090   29.7320   37.4130 H   0  0  0  0  0  0  0  0  0  0  0  0
   36.9850   28.9530   36.0420 C   0  0  0  0  0  3  0  0  0  0  0  0
   36.2880   28.2870   35.4910 H   0  0  0  0  0  0  0  0  0  0  0  0
   38.3030   28.4600   35.8790 N   0  0  0  0  0  0  0  0  0  0  0  0
   38.4100   27.5910   35.3410 H   0  0  0  0  0  0  0  0  0  0  0  0
   39.1670   28.5690   37.0210 C   0  0  0  0  0  2  0  0  0  0  0  0
   38.6820   29.7900   37.8140 C   0  0  0  0  0  2  0  0  0  0  0  0
  1 15  1  0  0  0  0
  2  1  1  0  0  0  0
  2  7  1  0  0  0  0
  3  2  1  0  0  0  0
  3  8  1  0  0  0  0
  4  5  1  0  0  0  0
  4  3  1  0  0  0  0
  5 12  1  1  0  0  0
  5  1  1  0  0  0  0
  6  2  1  0  0  0  0
  9  3  1  0  0  0  0
 10  4  1  0  0  0  0
 11  4  1  0  0  0  0
 13 19  1  0  0  0  0
 13 18  1  0  0  0  0
 14 13  2  0  0  0  0
 15 14  1  0  0  0  0
 15 16  2  0  0  0  0
 16 17  1  0  0  0  0
 17 18  2  0  0  0  0
 17 21  1  0  0  0  0
 20 14  1  0  0  0  0
 22 30  1  6  0  0  0
 22  5  1  0  0  0  0
 23 22  1  0  0  0  0
 24 23  1  0  0  0  0
 25 23  1  0  0  0  0
 26 25  1  0  0  0  0
 27 25  1  0  0  0  0
 27 29  1  0  0  0  0
 28 27  1  0  0  0  0
 29 30  1  0  0  0  0
M  END
>  <minimizedAffinity>
-4.3811655

$$$$

 OpenBabel03242512493D

 30 32  0  0  1  0  0  0  0  0999 V2000
   37.5610   28.7850   41.2370 N   0  0  0  0  0  0  0  0  0  0  0  0
   37.4040   29.2980   42.5740 C   0  0  0  0  0  0  0  0  0  0  0  0
   38.8460   29.6060   42.8830 C   0  0  0  0  0  0  0  0  0  0  0  0
   39.4320   28.2470   42.5650 C   0  0  0  0  0  0  0  0  0  0  0  0
   38.6780   27.8840   41.2980 C   0  0  1  0  0  0  0  0  0  0  0  0
   37.0140   28.5580   43.2960 H   0  0  0  0  0  0  0  0  0  0  0  0
   36.8160   30.2460   42.5850 H   0  0  0  0  0  0  0  0  0  0  0  0
   39.2280   30.4060   42.2380 H   0  0  0  0  0  0  0  0  0  0  0  0
   38.9880   29.8400   43.9790 H   0  0  0  0  0  0  0  0  0  0  0  0
   40.5180   28.2710   42.4200 H   0  0  0  0  0  0  0  0  0  0  0  0
   39.0880   27.5760   43.3830 H   0  0  0  0  0  0  0  0  0  0  0  0
   39.3550   28.0800   40.4510 H   0  0  0  0  0  0  0  0  0  0  0  0
   36.5380   29.9310   37.8550 C   0  0  0  0  0  0  0  0  0  0  0  0
   37.3510   29.7450   38.9700 C   0  0  0  0  0  0  0  0  0  0  0  0
   36.8370   29.0400   40.0610 C   0  0  0  0  0  0  0  0  0  0  0  0
   35.5640   28.5860   39.9500 N   0  0  0  0  0  0  0  0  0  0  0  0
   34.7780   28.7660   38.8730 C   0  0  0  0  0  0  0  0  0  0  0  0
   35.2740   29.4490   37.8130 N   0  0  0  0  0  0  0  0  0  0  0  0
   36.9410   30.4770   37.0140 H   0  0  0  0  0  0  0  0  0  0  0  0
   38.3460   30.1110   39.0330 H   0  0  0  0  0  0  0  0  0  0  0  0
   33.7830   28.3370   38.9470 H   0  0  0  0  0  0  0  0  0  0  0  0
   38.2880   26.4940   41.2830 N   0  0  1  0  0  0  0  0  0  0  0  0
   39.3660   25.6030   41.0660 C   0  0  0  0  0  3  0  0  0  0  0  0
   40.3710   26.0400   41.2370 H   0  0  0  0  0  0  0  0  0  0  0  0
   39.3300   24.3450   41.8880 C   0  0  0  0  0  3  0  0  0  0  0  0
   39.9300   23.5830   41.3470 H   0  0  0  0  0  0  0  0  0  0  0  0
   38.0460   23.8070   42.1510 N   0  0  0  0  0  0  0  0  0  0  0  0
   37.8570   22.8630   41.7910 H   0  0  0  0  0  0  0  0  0  0  0  0
   36.9420   24.7190   42.0530 C   0  0  0  0  0  2  0  0  0  0  0  0
   37.4980   26.1070   42.3970 C   0  0  0  0  0  2  0  0  0  0  0  0
  1  5  1  0  0  0  0
  1  2  1  0  0  0  0
  2  7  1  0  0  0  0
  2  3  1  0  0  0  0
  2  6  1  0  0  0  0
  3  9  1  0  0  0  0
  4  3  1  0  0  0  0
  4 11  1  0  0  0  0
  5 12  1  6  0  0  0
  5  4  1  0  0  0  0
  8  3  1  0  0  0  0
 10  4  1  0  0  0  0
 13 14  1  0  0  0  0
 14 20  1  0  0  0  0
 14 15  2  0  0  0  0
 15  1  1  0  0  0  0
 16 15  1  0  0  0  0
 17 21  1  0  0  0  0
 17 16  2  0  0  0  0
 18 13  2  0  0  0  0
 18 17  1  0  0  0  0
 19 13  1  0  0  0  0
 22  5  1  0  0  0  0
 22 30  1  1  0  0  0
 23 24  1  0  0  0  0
 23 22  1  0  0  0  0
 23 25  1  0  0  0  0
 25 27  1  0  0  0  0
 26 25  1  0  0  0  0
 28 27  1  0  0  0  0
 29 27  1  0  0  0  0
 29 30  1  0  0  0  0
M  END
>  <minimizedAffinity>
-4.36975336

$$$$

 OpenBabel03242512493D

 30 32  0  0  1  0  0  0  0  0999 V2000
   39.5820   29.4520   41.9350 N   0  0  0  0  0  0  0  0  0  0  0  0
   40.9920   29.2750   41.6990 C   0  0  0  0  0  0  0  0  0  0  0  0
   41.5140   30.4610   42.4670 C   0  0  0  0  0  0  0  0  0  0  0  0
   40.6770   31.5340   41.8050 C   0  0  0  0  0  0  0  0  0  0  0  0
   39.3260   30.8470   41.7130 C   0  0  1  0  0  0  0  0  0  0  0  0
   41.2830   29.3560   40.6370 H   0  0  0  0  0  0  0  0  0  0  0  0
   41.3730   28.3370   42.1690 H   0  0  0  0  0  0  0  0  0  0  0  0
   41.3180   30.3560   43.5410 H   0  0  0  0  0  0  0  0  0  0  0  0
   42.6090   30.6380   42.2510 H   0  0  0  0  0  0  0  0  0  0  0  0
   40.6410   32.4670   42.3800 H   0  0  0  0  0  0  0  0  0  0  0  0
   41.0880   31.6400   40.7770 H   0  0  0  0  0  0  0  0  0  0  0  0
   38.7060   31.2420   42.5350 H   0  0  0  0  0  0  0  0  0  0  0  0
   36.8040   27.7090   43.6800 C   0  0  0  0  0  0  0  0  0  0  0  0
   37.7600   28.6870   43.4180 C   0  0  0  0  0  0  0  0  0  0  0  0
   38.5860   28.5320   42.3030 C   0  0  0  0  0  0  0  0  0  0  0  0
   38.3930   27.4220   41.5490 N   0  0  0  0  0  0  0  0  0  0  0  0
   37.4700   26.4760   41.8010 C   0  0  0  0  0  0  0  0  0  0  0  0
   36.6660   26.6240   42.8820 N   0  0  0  0  0  0  0  0  0  0  0  0
   36.1670   27.8350   44.5440 H   0  0  0  0  0  0  0  0  0  0  0  0
   37.8920   29.5490   44.0250 H   0  0  0  0  0  0  0  0  0  0  0  0
   37.4460   25.6500   41.0970 H   0  0  0  0  0  0  0  0  0  0  0  0
   38.6720   31.1120   40.4540 N   0  0  1  0  0  0  0  0  0  0  0  0
   37.4580   31.8290   40.5820 C   0  0  0  0  0  3  0  0  0  0  0  0
   37.3250   32.3440   41.5560 H   0  0  0  0  0  0  0  0  0  0  0  0
   37.2250   32.8810   39.5360 C   0  0  0  0  0  3  0  0  0  0  0  0
   36.1280   33.0490   39.4790 H   0  0  0  0  0  0  0  0  0  0  0  0
   37.7060   32.5880   38.2360 N   0  0  0  0  0  0  0  0  0  0  0  0
   37.0070   32.5380   37.4840 H   0  0  0  0  0  0  0  0  0  0  0  0
   38.7500   31.6070   38.1510 C   0  0  0  0  0  2  0  0  0  0  0  0
   39.5240   31.6850   39.4740 C   0  0  0  0  0  2  0  0  0  0  0  0
  1 15  1  0  0  0  0
  2  1  1  0  0  0  0
  2  7  1  0  0  0  0
  2  3  1  0  0  0  0
  3  8  1  0  0  0  0
  4 10  1  0  0  0  0
  4  3  1  0  0  0  0
  5  4  1  0  0  0  0
  5  1  1  0  0  0  0
  5 12  1  1  0  0  0
  6  2  1  0  0  0  0
  9  3  1  0  0  0  0
 11  4  1  0  0  0  0
 13 19  1  0  0  0  0
 14 13  1  0  0  0  0
 14 20  1  0  0  0  0
 15 14  2  0  0  0  0
 16 17  2  0  0  0  0
 16 15  1  0  0  0  0
 17 18  1  0  0  0  0
 18 13  2  0  0  0  0
 21 17  1  0  0  0  0
 22 30  1  6  0  0  0
 22 23  1  0  0  0  0
 22  5  1  0  0  0  0
 23 24  1  0  0  0  0
 25 23  1  0  0  0  0
 26 25  1  0  0  0  0
 27 25  1  0  0  0  0
 28 27  1  0  0  0  0
 29 27  1  0  0  0  0
 29 30  1  0  0  0  0
M  END
>  <minimizedAffinity>
-4.34375668

$$$$

 OpenBabel03242512493D

 30 32  0  0  1  0  0  0  0  0999 V2000
   39.2970   25.0800   41.6950 N   0  0  0  0  0  0  0  0  0  0  0  0
   38.4490   24.0320   42.2020 C   0  0  0  0  0  0  0  0  0  0  0  0
   37.5510   23.8520   41.0060 C   0  0  0  0  0  0  0  0  0  0  0  0
   37.1090   25.2910   40.8480 C   0  0  0  0  0  0  0  0  0  0  0  0
   38.4120   26.0330   41.0870 C   0  0  1  0  0  0  0  0  0  0  0  0
   37.8500   24.3260   43.0830 H   0  0  0  0  0  0  0  0  0  0  0  0
   39.0200   23.0890   42.3780 H   0  0  0  0  0  0  0  0  0  0  0  0
   38.1100   23.4700   40.1440 H   0  0  0  0  0  0  0  0  0  0  0  0
   36.6610   23.2020   41.2580 H   0  0  0  0  0  0  0  0  0  0  0  0
   36.6760   25.5010   39.8630 H   0  0  0  0  0  0  0  0  0  0  0  0
   36.4290   25.4900   41.7050 H   0  0  0  0  0  0  0  0  0  0  0  0
   38.8050   26.3220   40.0990 H   0  0  0  0  0  0  0  0  0  0  0  0
   42.8600   25.5740   40.7640 C   0  0  0  0  0  0  0  0  0  0  0  0
   41.4850   25.4270   40.5990 C   0  0  0  0  0  0  0  0  0  0  0  0
   40.6930   25.2370   41.7340 C   0  0  0  0  0  0  0  0  0  0  0  0
   41.3340   25.2080   42.9280 N   0  0  0  0  0  0  0  0  0  0  0  0
   42.6620   25.3500   43.0880 C   0  0  0  0  0  0  0  0  0  0  0  0
   43.4340   25.5350   41.9890 N   0  0  0  0  0  0  0  0  0  0  0  0
   43.4670   25.7220   39.8820 H   0  0  0  0  0  0  0  0  0  0  0  0
   41.0060   25.4530   39.6520 H   0  0  0  0  0  0  0  0  0  0  0  0
   43.0150   25.3020   44.1140 H   0  0  0  0  0  0  0  0  0  0  0  0
   38.2170   27.2190   41.8860 N   0  0  1  0  0  0  0  0  0  0  0  0
   38.2920   28.4230   41.1470 C   0  0  0  0  0  3  0  0  0  0  0  0
   38.1850   28.3010   40.0500 H   0  0  0  0  0  0  0  0  0  0  0  0
   37.2880   29.4730   41.5340 C   0  0  0  0  0  3  0  0  0  0  0  0
   37.7050   30.4540   41.2220 H   0  0  0  0  0  0  0  0  0  0  0  0
   36.9520   29.5400   42.9080 N   0  0  0  0  0  0  0  0  0  0  0  0
   37.1650   30.4200   43.3940 H   0  0  0  0  0  0  0  0  0  0  0  0
   37.1920   28.3540   43.6800 C   0  0  0  0  0  2  0  0  0  0  0  0
   37.0600   27.1730   42.7080 C   0  0  0  0  0  2  0  0  0  0  0  0
  1 15  1  0  0  0  0
  1  2  1  0  0  0  0
  2  7  1  0  0  0  0
  2  6  1  0  0  0  0
  3  9  1  0  0  0  0
  3  2  1  0  0  0  0
  4  3  1  0  0  0  0
  4  5  1  0  0  0  0
  4 11  1  0  0  0  0
  5 12  1  6  0  0  0
  5  1  1  0  0  0  0
  5 22  1  0  0  0  0
  8  3  1  0  0  0  0
 10  4  1  0  0  0  0
 13 18  1  0  0  0  0
 14 13  2  0  0  0  0
 14 15  1  0  0  0  0
 15 16  2  0  0  0  0
 16 17  1  0  0  0  0
 17 21  1  0  0  0  0
 18 17  2  0  0  0  0
 19 13  1  0  0  0  0
 20 14  1  0  0  0  0
 22 30  1  6  0  0  0
 23 25  1  0  0  0  0
 23 22  1  0  0  0  0
 24 23  1  0  0  0  0
 25 27  1  0  0  0  0
 26 25  1  0  0  0  0
 27 28  1  0  0  0  0
 27 29  1  0  0  0  0
 30 29  1  0  0  0  0
M  END
>  <minimizedAffinity>
-4.27779579

$$$$

 OpenBabel03242512493D

 30 32  0  0  1  0  0  0  0  0999 V2000
   37.0900   29.6440   39.1310 N   0  0  0  0  0  0  0  0  0  0  0  0
   37.5090   28.9860   40.3420 C   0  0  0  0  0  0  0  0  0  0  0  0
   36.3760   29.4040   41.2440 C   0  0  0  0  0  0  0  0  0  0  0  0
   36.4630   30.8990   41.0230 C   0  0  0  0  0  0  0  0  0  0  0  0
   36.7000   30.9680   39.5260 C   0  0  1  0  0  0  0  0  0  0  0  0
   38.4680   29.3560   40.7450 H   0  0  0  0  0  0  0  0  0  0  0  0
   37.4990   27.8750   40.2310 H   0  0  0  0  0  0  0  0  0  0  0  0
   35.4260   28.9700   40.9150 H   0  0  0  0  0  0  0  0  0  0  0  0
   36.6040   29.1600   42.3240 H   0  0  0  0  0  0  0  0  0  0  0  0
   35.5580   31.4320   41.3360 H   0  0  0  0  0  0  0  0  0  0  0  0
   37.3930   31.2230   41.5410 H   0  0  0  0  0  0  0  0  0  0  0  0
   35.7350   31.2220   39.0570 H   0  0  0  0  0  0  0  0  0  0  0  0
   36.0280   28.9260   35.6440 C   0  0  0  0  0  0  0  0  0  0  0  0
   35.9660   29.4280   36.9410 C   0  0  0  0  0  0  0  0  0  0  0  0
   37.0370   29.1860   37.8030 C   0  0  0  0  0  0  0  0  0  0  0  0
   38.0720   28.4660   37.3050 N   0  0  0  0  0  0  0  0  0  0  0  0
   38.1330   27.9800   36.0520 C   0  0  0  0  0  0  0  0  0  0  0  0
   37.0960   28.2140   35.2120 N   0  0  0  0  0  0  0  0  0  0  0  0
   35.1960   29.1170   34.9810 H   0  0  0  0  0  0  0  0  0  0  0  0
   35.1420   29.9900   37.3080 H   0  0  0  0  0  0  0  0  0  0  0  0
   39.0350   27.4240   35.8130 H   0  0  0  0  0  0  0  0  0  0  0  0
   37.6750   31.9750   39.1800 N   0  0  1  0  0  0  0  0  0  0  0  0
   37.2830   33.2910   39.5230 C   0  0  0  0  0  3  0  0  0  0  0  0
   36.4550   33.3500   40.2590 H   0  0  0  0  0  0  0  0  0  0  0  0
   38.3760   34.1590   40.0780 C   0  0  0  0  0  3  0  0  0  0  0  0
   38.0790   35.2140   39.8990 H   0  0  0  0  0  0  0  0  0  0  0  0
   39.6700   33.9560   39.5390 N   0  0  0  0  0  0  0  0  0  0  0  0
   40.1010   34.7550   39.0570 H   0  0  0  0  0  0  0  0  0  0  0  0
   39.9090   32.6820   38.9220 C   0  0  0  0  0  2  0  0  0  0  0  0
   38.9890   31.6800   39.6320 C   0  0  0  0  0  2  0  0  0  0  0  0
  1  5  1  0  0  0  0
  1  2  1  0  0  0  0
  2  6  1  0  0  0  0
  2  3  1  0  0  0  0
  3  9  1  0  0  0  0
  4  3  1  0  0  0  0
  4 10  1  0  0  0  0
  4 11  1  0  0  0  0
  5 12  1  6  0  0  0
  5  4  1  0  0  0  0
  7  2  1  0  0  0  0
  8  3  1  0  0  0  0
 13 14  1  0  0  0  0
 14 20  1  0  0  0  0
 14 15  2  0  0  0  0
 15  1  1  0  0  0  0
 16 15  1  0  0  0  0
 17 16  2  0  0  0  0
 18 13  2  0  0  0  0
 18 17  1  0  0  0  0
 19 13  1  0  0  0  0
 21 17  1  0  0  0  0
 22 23  1  0  0  0  0
 22  5  1  0  0  0  0
 22 30  1  1  0  0  0
 23 25  1  0  0  0  0
 23 24  1  0  0  0  0
 26 25  1  0  0  0  0
 27 25  1  0  0  0  0
 28 27  1  0  0  0  0
 29 27  1  0  0  0  0
 29 30  1  0  0  0  0
M  END
>  <minimizedAffinity>
-4.27473354

$$$$
