
     RDKit          3D

 37 40  0  0  0  0  0  0  0  0999 V2000
   47.2345   31.3621   45.0893 C   0  0  0  0  0  0  0  0  0  0  0  0
   46.8827   32.6973   45.0982 C   0  0  0  0  0  0  0  0  0  0  0  0
   46.2753   33.3045   46.1807 C   0  0  0  0  0  0  0  0  0  0  0  0
   45.9921   32.5666   47.3267 C   0  0  0  0  0  0  0  0  0  0  0  0
   45.4252   32.8145   48.5370 N   0  0  0  0  0  0  0  0  0  0  0  0
   45.4310   31.6538   49.2524 C   0  0  0  0  0  0  0  0  0  0  0  0
   46.0022   30.7049   48.4720 N   0  0  0  0  0  0  0  0  0  0  0  0
   46.3525   31.2419   47.2905 C   0  0  0  0  0  0  0  0  0  0  0  0
   46.9567   30.6085   46.2321 C   0  0  0  0  0  0  0  0  0  0  0  0
   46.5310   35.2138   42.4325 C   0  0  0  0  0  0  0  0  0  0  0  0
   47.7115   35.0626   41.7077 C   0  0  0  0  0  0  0  0  0  0  0  0
   48.6301   34.0930   42.1371 C   0  0  0  0  0  0  0  0  0  0  0  0
   48.2981   33.3574   43.2482 N   0  0  0  0  0  0  0  0  0  0  0  0
   47.1525   33.5234   43.9290 C   0  0  0  0  0  0  0  0  0  0  0  0
   46.2897   34.4478   43.5098 N   0  0  0  0  0  0  0  0  0  0  0  0
   47.7110   30.8717   44.2488 H   0  0  0  0  0  0  0  0  0  0  0  0
   46.0081   34.3455   46.1705 H   0  0  0  0  0  0  0  0  0  0  0  0
   45.0605   33.7522   48.8268 H   0  0  0  0  0  0  0  0  0  0  0  0
   45.0342   31.5499   50.2739 H   0  0  0  0  0  0  0  0  0  0  0  0
   45.8760   35.9616   42.0605 H   0  0  0  0  0  0  0  0  0  0  0  0
   48.0304   35.6052   40.8317 H   0  0  0  0  0  0  0  0  0  0  0  0
   49.5866   33.8634   41.6747 H   0  0  0  0  0  0  0  0  0  0  0  0
   47.3076   29.2291   46.2531 N   0  0  0  0  0  0  0  0  0  0  0  0
   47.6153   28.6596   44.9549 C   0  0  1  0  0  0  0  0  0  0  0  0
   46.7697   28.8189   44.2573 H   0  0  0  0  0  0  0  0  0  0  0  0
   48.0068   27.2040   45.0804 C   0  0  2  0  0  0  0  0  0  0  0  0
   49.0710   27.1378   45.3155 H   0  0  0  0  0  0  0  0  0  0  0  0
   47.2749   26.5331   46.1279 N   0  0  0  0  0  0  0  0  0  0  0  0
   46.3204   26.2454   45.8844 H   0  0  0  0  0  0  0  0  0  0  0  0
   47.4716   27.0781   47.4320 C   0  0  0  0  0  0  0  0  0  0  0  0
   47.3182   28.5619   47.5408 C   0  0  0  0  0  0  0  0  0  0  0  0
   48.5028   29.2417   44.5696 H   0  0  0  0  0  0  0  0  0  0  0  0
   47.7125   26.7071   44.1328 H   0  0  0  0  0  0  0  0  0  0  0  0
   48.4190   26.6795   47.8727 H   0  0  0  0  0  0  0  0  0  0  0  0
   46.6694   26.6336   48.0814 H   0  0  0  0  0  0  0  0  0  0  0  0
   46.4938   28.8787   48.1916 H   0  0  0  0  0  0  0  0  0  0  0  0
   48.2606   28.9284   48.0393 H   0  0  0  0  0  0  0  0  0  0  0  0
  1  2  2  0
  1  9  1  0
  2  3  1  0
  3  4  2  0
  4  5  1  0
  5  6  1  0
  7  6  2  0
  8  4  1  0
  8  7  1  0
  9  8  2  0
 10 15  2  0
 11 12  2  0
 11 10  1  0
 12 13  1  0
 13 14  2  0
 14  2  1  0
 15 14  1  0
  1 16  1  0
  3 17  1  0
  5 18  1  0
  6 19  1  0
 10 20  1  0
 11 21  1  0
 12 22  1  0
 23 24  1  0
 24 25  1  6
 24 26  1  0
 26 27  1  1
 26 28  1  0
 28 29  1  0
 28 30  1  0
 30 31  1  0
 31 23  1  0
 24 32  1  0
 26 33  1  0
 30 34  1  0
 30 35  1  0
 31 36  1  0
 31 37  1  0
  9 23  1  0
M  ISO  8  16  14  17  14  18   9  19  14  20  14  21  14  22  14  25   8
M  ISO  2  27   8  29   5
M  END
>  <DihAtoms>  (1) 
0,8,22,23

>  <DihDeg>  (1) 
-119.9986782102179

$$$$
