
 OpenBabel03252508223D

 34 36  0  0  0  0  0  0  0  0999 V2000
   36.4290   30.4040   38.9940 C   0  0  0  0  0  0  0  0  0  0  0  0
   35.7700   29.4560   38.2170 C   0  0  0  0  0  0  0  0  0  0  0  0
   35.9610   29.3000   36.8720 C   0  0  0  0  0  0  0  0  0  0  0  0
   36.8770   30.1600   36.2800 C   0  0  0  0  0  0  0  0  0  0  0  0
   37.5560   31.1130   37.0020 C   0  0  0  0  0  0  0  0  0  0  0  0
   37.3430   31.2450   38.3440 C   0  0  0  0  0  0  0  0  0  0  0  0
   35.0900   28.8590   38.8070 H   0  0  0  0  0  0  0  0  0  0  0  0
   35.4040   28.5310   36.3280 H   0  0  0  0  0  0  0  0  0  0  0  0
   37.0380   30.0440   35.2080 H   0  0  0  0  0  0  0  0  0  0  0  0
   38.2430   31.7250   36.4360 H   0  0  0  0  0  0  0  0  0  0  0  0
   38.0880   32.2510   38.9880 N   0  0  0  0  0  0  0  0  0  0  0  0
   37.5090   33.5080   39.4300 C   0  0  0  0  0  3  0  0  0  0  0  0
   36.5270   33.3510   39.9230 H   0  0  0  0  0  0  0  0  0  0  0  0
   38.4070   34.1610   40.4750 C   0  0  0  0  0  3  0  0  0  0  0  0
   37.8000   34.9010   41.0070 H   0  0  0  0  0  0  0  0  0  0  0  0
   38.9860   33.2490   41.4010 N   0  0  0  0  0  0  0  0  0  0  0  0
   38.3380   32.9900   42.1620 H   0  0  0  0  0  0  0  0  0  0  0  0
   39.7110   32.1720   40.8040 C   0  0  0  0  0  2  0  0  0  0  0  0
   39.5120   32.1840   39.3020 C   0  0  0  0  0  2  0  0  0  0  0  0
   36.2330   30.5980   40.4480 C   0  0  0  0  0  0  0  0  0  0  0  0
   37.1890   30.8030   40.9340 H   0  0  0  0  0  0  0  0  0  0  0  0
   35.4270   31.3150   40.6010 H   0  0  0  0  0  0  0  0  0  0  0  0
   35.7500   29.2860   41.0760 C   0  0  0  0  0  0  0  0  0  0  0  0
   34.8920   29.5320   41.7350 H   0  0  0  0  0  0  0  0  0  0  0  0
   35.4680   28.5930   40.2720 H   0  0  0  0  0  0  0  0  0  0  0  0
   37.8920   26.8670   43.0060 C   0  0  0  0  0  0  0  0  0  0  0  0
   36.8280   27.3910   42.2300 C   0  0  0  0  0  0  0  0  0  0  0  0
   36.8570   28.7350   41.8840 C   0  0  0  0  0  0  0  0  0  0  0  0
   37.9320   29.4870   42.3220 N   0  0  0  0  0  0  0  0  0  0  0  0
   38.9160   28.9510   43.0550 C   0  0  0  0  0  0  0  0  0  0  0  0
   38.9010   27.6570   43.3940 N   0  0  0  0  0  0  0  0  0  0  0  0
   37.9090   25.8270   43.2980 H   0  0  0  0  0  0  0  0  0  0  0  0
   36.0510   26.7020   41.9530 H   0  0  0  0  0  0  0  0  0  0  0  0
   39.6810   29.6850   43.3120 H   0  0  0  0  0  0  0  0  0  0  0  0
  1 20  1  0  0  0  0
  2  7  1  0  0  0  0
  2  1  2  0  0  0  0
  3  2  1  0  0  0  0
  4  3  2  0  0  0  0
  4  5  1  0  0  0  0
  5  6  2  0  0  0  0
  6 11  1  0  0  0  0
  6  1  1  0  0  0  0
  8  3  1  0  0  0  0
  9  4  1  0  0  0  0
 10  5  1  0  0  0  0
 11 19  1  0  0  0  0
 11 12  1  0  0  0  0
 12 13  1  0  0  0  0
 12 14  1  0  0  0  0
 14 15  1  0  0  0  0
 14 16  1  0  0  0  0
 16 17  1  0  0  0  0
 18 16  1  0  0  0  0
 19 18  1  0  0  0  0
 20 22  1  0  0  0  0
 20 21  1  0  0  0  0
 20 23  1  0  0  0  0
 23 24  1  0  0  0  0
 23 28  1  0  0  0  0
 25 23  1  0  0  0  0
 26 32  1  0  0  0  0
 26 31  1  0  0  0  0
 27 26  2  0  0  0  0
 28 27  1  0  0  0  0
 28 29  2  0  0  0  0
 29 30  1  0  0  0  0
 30 34  1  0  0  0  0
 30 31  2  0  0  0  0
 33 27  1  0  0  0  0
M  END
>  <minimizedAffinity>
-5.46099997

$$$$

 OpenBabel03252508223D

 34 36  0  0  0  0  0  0  0  0999 V2000
   37.3220   29.5020   41.3860 C   0  0  0  0  0  0  0  0  0  0  0  0
   36.1510   28.7540   41.3030 C   0  0  0  0  0  0  0  0  0  0  0  0
   35.2170   28.8990   40.3160 C   0  0  0  0  0  0  0  0  0  0  0  0
   35.4870   29.8630   39.3530 C   0  0  0  0  0  0  0  0  0  0  0  0
   36.6290   30.6280   39.3880 C   0  0  0  0  0  0  0  0  0  0  0  0
   37.5430   30.4600   40.3860 C   0  0  0  0  0  0  0  0  0  0  0  0
   36.0730   28.0450   42.1150 H   0  0  0  0  0  0  0  0  0  0  0  0
   34.3190   28.2720   40.3190 H   0  0  0  0  0  0  0  0  0  0  0  0
   34.7490   29.9860   38.5610 H   0  0  0  0  0  0  0  0  0  0  0  0
   36.7330   31.3460   38.5870 H   0  0  0  0  0  0  0  0  0  0  0  0
   38.6760   31.2940   40.3300 N   0  0  0  0  0  0  0  0  0  0  0  0
   39.8740   30.9570   39.5800 C   0  0  0  0  0  3  0  0  0  0  0  0
   39.6240   30.5460   38.5800 H   0  0  0  0  0  0  0  0  0  0  0  0
   40.7020   32.2120   39.3240 C   0  0  0  0  0  3  0  0  0  0  0  0
   41.3910   31.9840   38.5040 H   0  0  0  0  0  0  0  0  0  0  0  0
   39.9340   33.3670   39.0090 N   0  0  0  0  0  0  0  0  0  0  0  0
   39.6430   33.3920   38.0180 H   0  0  0  0  0  0  0  0  0  0  0  0
   38.9240   33.6910   39.9650 C   0  0  0  0  0  2  0  0  0  0  0  0
   38.8130   32.5860   40.9960 C   0  0  0  0  0  2  0  0  0  0  0  0
   38.3440   29.3710   42.4480 C   0  0  0  0  0  0  0  0  0  0  0  0
   39.2630   28.9500   42.0370 H   0  0  0  0  0  0  0  0  0  0  0  0
   38.4170   30.3170   42.9840 H   0  0  0  0  0  0  0  0  0  0  0  0
   37.8730   28.3410   43.4820 C   0  0  0  0  0  0  0  0  0  0  0  0
   38.1210   28.7440   44.4860 H   0  0  0  0  0  0  0  0  0  0  0  0
   36.7930   28.1830   43.3560 H   0  0  0  0  0  0  0  0  0  0  0  0
   40.6540   25.8060   43.4520 C   0  0  0  0  0  0  0  0  0  0  0  0
   39.9390   27.0090   43.6780 C   0  0  0  0  0  0  0  0  0  0  0  0
   38.6210   27.0890   43.2490 C   0  0  0  0  0  0  0  0  0  0  0  0
   38.0820   25.9810   42.6230 N   0  0  0  0  0  0  0  0  0  0  0  0
   38.7950   24.8640   42.4290 C   0  0  0  0  0  0  0  0  0  0  0  0
   40.0650   24.7730   42.8380 N   0  0  0  0  0  0  0  0  0  0  0  0
   41.6820   25.7010   43.7690 H   0  0  0  0  0  0  0  0  0  0  0  0
   40.4730   27.7980   44.1760 H   0  0  0  0  0  0  0  0  0  0  0  0
   38.2140   24.0920   41.9210 H   0  0  0  0  0  0  0  0  0  0  0  0
  1 20  1  0  0  0  0
  2  1  1  0  0  0  0
  2  7  1  0  0  0  0
  3  8  1  0  0  0  0
  3  2  2  0  0  0  0
  4  5  2  0  0  0  0
  4  3  1  0  0  0  0
  5  6  1  0  0  0  0
  6  1  2  0  0  0  0
  9  4  1  0  0  0  0
 10  5  1  0  0  0  0
 11  6  1  0  0  0  0
 11 19  1  0  0  0  0
 12 11  1  0  0  0  0
 13 12  1  0  0  0  0
 14 12  1  0  0  0  0
 15 14  1  0  0  0  0
 16 14  1  0  0  0  0
 16 18  1  0  0  0  0
 17 16  1  0  0  0  0
 18 19  1  0  0  0  0
 20 22  1  0  0  0  0
 20 23  1  0  0  0  0
 21 20  1  0  0  0  0
 23 24  1  0  0  0  0
 25 23  1  0  0  0  0
 26 27  1  0  0  0  0
 26 32  1  0  0  0  0
 27 33  1  0  0  0  0
 28 23  1  0  0  0  0
 28 27  2  0  0  0  0
 29 28  1  0  0  0  0
 30 29  2  0  0  0  0
 30 31  1  0  0  0  0
 31 26  2  0  0  0  0
 34 30  1  0  0  0  0
M  END
>  <minimizedAffinity>
-5.25321484

$$$$

 OpenBabel03252508223D

 34 36  0  0  0  0  0  0  0  0999 V2000
   36.9370   28.3830   40.9900 C   0  0  0  0  0  0  0  0  0  0  0  0
   36.5740   27.3060   41.7940 C   0  0  0  0  0  0  0  0  0  0  0  0
   36.8620   27.2130   43.1270 C   0  0  0  0  0  0  0  0  0  0  0  0
   37.5610   28.2800   43.6780 C   0  0  0  0  0  0  0  0  0  0  0  0
   37.9420   29.3670   42.9290 C   0  0  0  0  0  0  0  0  0  0  0  0
   37.6400   29.4310   41.6000 C   0  0  0  0  0  0  0  0  0  0  0  0
   36.0370   26.5530   41.2350 H   0  0  0  0  0  0  0  0  0  0  0  0
   36.5430   26.3330   43.6940 H   0  0  0  0  0  0  0  0  0  0  0  0
   37.7960   28.2160   44.7410 H   0  0  0  0  0  0  0  0  0  0  0  0
   38.4810   30.1360   43.4640 H   0  0  0  0  0  0  0  0  0  0  0  0
   38.0760   30.5870   40.9240 N   0  0  0  0  0  0  0  0  0  0  0  0
   37.2200   31.7350   40.6790 C   0  0  0  0  0  3  0  0  0  0  0  0
   36.6220   31.9920   41.5780 H   0  0  0  0  0  0  0  0  0  0  0  0
   38.0680   32.9640   40.3710 C   0  0  0  0  0  3  0  0  0  0  0  0
   37.4320   33.8420   40.5200 H   0  0  0  0  0  0  0  0  0  0  0  0
   39.2460   33.0770   41.1600 N   0  0  0  0  0  0  0  0  0  0  0  0
   39.0620   33.4740   42.0950 H   0  0  0  0  0  0  0  0  0  0  0  0
   40.0990   31.9310   41.1260 C   0  0  0  0  0  2  0  0  0  0  0  0
   39.4160   30.8000   40.3850 C   0  0  0  0  0  2  0  0  0  0  0  0
   36.6450   28.5020   39.5440 C   0  0  0  0  0  0  0  0  0  0  0  0
   37.2260   29.3170   39.1080 H   0  0  0  0  0  0  0  0  0  0  0  0
   36.7340   27.5180   39.0860 H   0  0  0  0  0  0  0  0  0  0  0  0
   35.1820   28.9210   39.3530 C   0  0  0  0  0  0  0  0  0  0  0  0
   34.5500   28.1260   39.8000 H   0  0  0  0  0  0  0  0  0  0  0  0
   35.0280   29.8940   39.8400 H   0  0  0  0  0  0  0  0  0  0  0  0
   33.3670   28.9840   36.0570 C   0  0  0  0  0  0  0  0  0  0  0  0
   33.6130   28.9000   37.4500 C   0  0  0  0  0  0  0  0  0  0  0  0
   34.9210   29.0090   37.9020 C   0  0  0  0  0  0  0  0  0  0  0  0
   35.9130   29.1940   36.9560 N   0  0  0  0  0  0  0  0  0  0  0  0
   35.6350   29.2660   35.6480 C   0  0  0  0  0  0  0  0  0  0  0  0
   34.3790   29.1640   35.1990 N   0  0  0  0  0  0  0  0  0  0  0  0
   32.3640   28.9040   35.6630 H   0  0  0  0  0  0  0  0  0  0  0  0
   32.7550   28.7550   38.0810 H   0  0  0  0  0  0  0  0  0  0  0  0
   36.5340   29.4140   35.0470 H   0  0  0  0  0  0  0  0  0  0  0  0
  1  6  2  0  0  0  0
  1  2  1  0  0  0  0
  2  3  2  0  0  0  0
  3  4  1  0  0  0  0
  3  8  1  0  0  0  0
  4  9  1  0  0  0  0
  5 10  1  0  0  0  0
  5  4  2  0  0  0  0
  6  5  1  0  0  0  0
  7  2  1  0  0  0  0
 11  6  1  0  0  0  0
 12 11  1  0  0  0  0
 12 13  1  0  0  0  0
 14 15  1  0  0  0  0
 14 12  1  0  0  0  0
 14 16  1  0  0  0  0
 16 17  1  0  0  0  0
 18 16  1  0  0  0  0
 19 11  1  0  0  0  0
 19 18  1  0  0  0  0
 20  1  1  0  0  0  0
 21 20  1  0  0  0  0
 22 20  1  0  0  0  0
 23 20  1  0  0  0  0
 23 24  1  0  0  0  0
 23 25  1  0  0  0  0
 26 27  1  0  0  0  0
 27 28  2  0  0  0  0
 27 33  1  0  0  0  0
 28 23  1  0  0  0  0
 29 28  1  0  0  0  0
 30 29  2  0  0  0  0
 31 30  1  0  0  0  0
 31 26  2  0  0  0  0
 32 26  1  0  0  0  0
 34 30  1  0  0  0  0
M  END
>  <minimizedAffinity>
-5.16132069

$$$$

 OpenBabel03252508223D

 34 36  0  0  0  0  0  0  0  0999 V2000
   38.3280   26.5240   42.6870 C   0  0  0  0  0  0  0  0  0  0  0  0
   37.0320   26.0380   42.5440 C   0  0  0  0  0  0  0  0  0  0  0  0
   36.7290   24.7770   42.1110 C   0  0  0  0  0  0  0  0  0  0  0  0
   37.8100   23.9590   41.8050 C   0  0  0  0  0  0  0  0  0  0  0  0
   39.1090   24.3900   41.9300 C   0  0  0  0  0  0  0  0  0  0  0  0
   39.3790   25.6550   42.3640 C   0  0  0  0  0  0  0  0  0  0  0  0
   36.2950   26.7800   42.8170 H   0  0  0  0  0  0  0  0  0  0  0  0
   35.6830   24.4670   42.0240 H   0  0  0  0  0  0  0  0  0  0  0  0
   37.5800   22.9510   41.4590 H   0  0  0  0  0  0  0  0  0  0  0  0
   39.8670   23.6680   41.6630 H   0  0  0  0  0  0  0  0  0  0  0  0
   40.7420   25.9960   42.4560 N   0  0  0  0  0  0  0  0  0  0  0  0
   41.5140   25.8640   43.6800 C   0  0  0  0  0  3  0  0  0  0  0  0
   41.3020   24.9020   44.1900 H   0  0  0  0  0  0  0  0  0  0  0  0
   43.0050   25.8520   43.3610 C   0  0  0  0  0  3  0  0  0  0  0  0
   43.5190   25.4300   44.2300 H   0  0  0  0  0  0  0  0  0  0  0  0
   43.3480   25.1220   42.1890 N   0  0  0  0  0  0  0  0  0  0  0  0
   43.4050   24.1050   42.3580 H   0  0  0  0  0  0  0  0  0  0  0  0
   42.6450   25.5200   41.0110 C   0  0  0  0  0  2  0  0  0  0  0  0
   41.5620   26.5170   41.3660 C   0  0  0  0  0  2  0  0  0  0  0  0
   38.6810   27.8870   43.1450 C   0  0  0  0  0  0  0  0  0  0  0  0
   38.9730   27.8680   44.1960 H   0  0  0  0  0  0  0  0  0  0  0  0
   39.3810   28.3250   42.4350 H   0  0  0  0  0  0  0  0  0  0  0  0
   37.4330   28.7770   43.1040 C   0  0  0  0  0  0  0  0  0  0  0  0
   36.6030   28.1620   42.6970 H   0  0  0  0  0  0  0  0  0  0  0  0
   37.2220   29.1340   44.1210 H   0  0  0  0  0  0  0  0  0  0  0  0
   39.2590   31.5080   41.2690 C   0  0  0  0  0  0  0  0  0  0  0  0
   38.9970   30.4240   42.1440 C   0  0  0  0  0  0  0  0  0  0  0  0
   37.7100   29.9060   42.1930 C   0  0  0  0  0  0  0  0  0  0  0  0
   36.7550   30.4830   41.3770 N   0  0  0  0  0  0  0  0  0  0  0  0
   37.0460   31.5070   40.5650 C   0  0  0  0  0  0  0  0  0  0  0  0
   38.2820   32.0160   40.5080 N   0  0  0  0  0  0  0  0  0  0  0  0
   40.2460   31.9420   41.2000 H   0  0  0  0  0  0  0  0  0  0  0  0
   39.8270   30.0660   42.7260 H   0  0  0  0  0  0  0  0  0  0  0  0
   36.1760   31.8370   39.9950 H   0  0  0  0  0  0  0  0  0  0  0  0
  1 20  1  0  0  0  0
  2  1  1  0  0  0  0
  2  7  1  0  0  0  0
  3  2  2  0  0  0  0
  4  5  2  0  0  0  0
  4  3  1  0  0  0  0
  5  6  1  0  0  0  0
  6 11  1  0  0  0  0
  6  1  2  0  0  0  0
  8  3  1  0  0  0  0
  9  4  1  0  0  0  0
 10  5  1  0  0  0  0
 11 12  1  0  0  0  0
 12 13  1  0  0  0  0
 14 12  1  0  0  0  0
 14 15  1  0  0  0  0
 16 17  1  0  0  0  0
 16 14  1  0  0  0  0
 18 19  1  0  0  0  0
 18 16  1  0  0  0  0
 19 11  1  0  0  0  0
 20 21  1  0  0  0  0
 22 20  1  0  0  0  0
 23 20  1  0  0  0  0
 23 25  1  0  0  0  0
 24 23  1  0  0  0  0
 26 27  1  0  0  0  0
 27 28  2  0  0  0  0
 27 33  1  0  0  0  0
 28 23  1  0  0  0  0
 29 28  1  0  0  0  0
 30 29  2  0  0  0  0
 31 30  1  0  0  0  0
 31 26  2  0  0  0  0
 32 26  1  0  0  0  0
 34 30  1  0  0  0  0
M  END
>  <minimizedAffinity>
-5.12220669

$$$$

 OpenBabel03252508223D

 34 36  0  0  0  0  0  0  0  0999 V2000
   36.7110   29.1580   40.2010 C   0  0  0  0  0  0  0  0  0  0  0  0
   35.7990   28.2390   39.6880 C   0  0  0  0  0  0  0  0  0  0  0  0
   35.3210   28.2670   38.4080 C   0  0  0  0  0  0  0  0  0  0  0  0
   35.7980   29.2900   37.5970 C   0  0  0  0  0  0  0  0  0  0  0  0
   36.7000   30.2210   38.0540 C   0  0  0  0  0  0  0  0  0  0  0  0
   37.1590   30.1680   39.3380 C   0  0  0  0  0  0  0  0  0  0  0  0
   35.5160   27.5030   40.4260 H   0  0  0  0  0  0  0  0  0  0  0  0
   34.6040   27.5090   38.0770 H   0  0  0  0  0  0  0  0  0  0  0  0
   35.4240   29.3210   36.5740 H   0  0  0  0  0  0  0  0  0  0  0  0
   37.0000   30.9700   37.3360 H   0  0  0  0  0  0  0  0  0  0  0  0
   38.0780   31.1690   39.7050 N   0  0  0  0  0  0  0  0  0  0  0  0
   37.6800   32.4390   40.2880 C   0  0  0  0  0  3  0  0  0  0  0  0
   36.9010   32.3000   41.0660 H   0  0  0  0  0  0  0  0  0  0  0  0
   38.8670   33.0870   40.9920 C   0  0  0  0  0  3  0  0  0  0  0  0
   38.4660   33.8410   41.6770 H   0  0  0  0  0  0  0  0  0  0  0  0
   39.6970   32.1760   41.7020 N   0  0  0  0  0  0  0  0  0  0  0  0
   39.3160   31.9330   42.6310 H   0  0  0  0  0  0  0  0  0  0  0  0
   40.1870   31.0830   40.9230 C   0  0  0  0  0  2  0  0  0  0  0  0
   39.5290   31.0840   39.5590 C   0  0  0  0  0  2  0  0  0  0  0  0
   37.2360   29.1540   41.5840 C   0  0  0  0  0  0  0  0  0  0  0  0
   38.3070   28.9440   41.5810 H   0  0  0  0  0  0  0  0  0  0  0  0
   36.9020   30.0600   42.0890 H   0  0  0  0  0  0  0  0  0  0  0  0
   36.6130   27.9890   42.3620 C   0  0  0  0  0  0  0  0  0  0  0  0
   36.2000   28.4050   43.3040 H   0  0  0  0  0  0  0  0  0  0  0  0
   35.8370   27.5250   41.7400 H   0  0  0  0  0  0  0  0  0  0  0  0
   38.6120   24.8040   42.4990 C   0  0  0  0  0  0  0  0  0  0  0  0
   37.5780   25.7260   42.1980 C   0  0  0  0  0  0  0  0  0  0  0  0
   37.6880   27.0250   42.6730 C   0  0  0  0  0  0  0  0  0  0  0  0
   38.8100   27.3440   43.4170 N   0  0  0  0  0  0  0  0  0  0  0  0
   39.7630   26.4400   43.6790 C   0  0  0  0  0  0  0  0  0  0  0  0
   39.6700   25.1840   43.2260 N   0  0  0  0  0  0  0  0  0  0  0  0
   38.5670   23.7820   42.1490 H   0  0  0  0  0  0  0  0  0  0  0  0
   36.7590   25.3530   41.6100 H   0  0  0  0  0  0  0  0  0  0  0  0
   40.5720   26.8610   44.2770 H   0  0  0  0  0  0  0  0  0  0  0  0
  1 20  1  0  0  0  0
  2  1  1  0  0  0  0
  2  7  1  0  0  0  0
  3  2  2  0  0  0  0
  4  5  2  0  0  0  0
  4  3  1  0  0  0  0
  5  6  1  0  0  0  0
  6 11  1  0  0  0  0
  6  1  2  0  0  0  0
  8  3  1  0  0  0  0
  9  4  1  0  0  0  0
 10  5  1  0  0  0  0
 11 12  1  0  0  0  0
 12 14  1  0  0  0  0
 12 13  1  0  0  0  0
 14 15  1  0  0  0  0
 14 16  1  0  0  0  0
 16 17  1  0  0  0  0
 18 16  1  0  0  0  0
 19 11  1  0  0  0  0
 19 18  1  0  0  0  0
 20 22  1  0  0  0  0
 20 23  1  0  0  0  0
 21 20  1  0  0  0  0
 23 28  1  0  0  0  0
 23 24  1  0  0  0  0
 25 23  1  0  0  0  0
 26 31  1  0  0  0  0
 27 26  2  0  0  0  0
 27 28  1  0  0  0  0
 28 29  2  0  0  0  0
 29 30  1  0  0  0  0
 30 34  1  0  0  0  0
 31 30  2  0  0  0  0
 32 26  1  0  0  0  0
 33 27  1  0  0  0  0
M  END
>  <minimizedAffinity>
-5.09020948

$$$$

 OpenBabel03252508223D

 34 36  0  0  0  0  0  0  0  0999 V2000
   37.1940   29.5350   41.7510 C   0  0  0  0  0  0  0  0  0  0  0  0
   36.9160   28.4930   42.6310 C   0  0  0  0  0  0  0  0  0  0  0  0
   37.8650   27.8200   43.3470 C   0  0  0  0  0  0  0  0  0  0  0  0
   39.1790   28.2300   43.1600 C   0  0  0  0  0  0  0  0  0  0  0  0
   39.5080   29.2540   42.3040 C   0  0  0  0  0  0  0  0  0  0  0  0
   38.5380   29.9080   41.6020 C   0  0  0  0  0  0  0  0  0  0  0  0
   35.8570   28.2820   42.6770 H   0  0  0  0  0  0  0  0  0  0  0  0
   37.5670   27.0090   44.0200 H   0  0  0  0  0  0  0  0  0  0  0  0
   39.9450   27.7000   43.7270 H   0  0  0  0  0  0  0  0  0  0  0  0
   40.5620   29.4870   42.2390 H   0  0  0  0  0  0  0  0  0  0  0  0
   38.9810   30.9400   40.7530 N   0  0  0  0  0  0  0  0  0  0  0  0
   39.5380   30.6990   39.4330 C   0  0  0  0  0  3  0  0  0  0  0  0
   38.9470   29.9430   38.8760 H   0  0  0  0  0  0  0  0  0  0  0  0
   39.4820   31.9750   38.6000 C   0  0  0  0  0  3  0  0  0  0  0  0
   39.5910   31.6830   37.5510 H   0  0  0  0  0  0  0  0  0  0  0  0
   38.2920   32.7360   38.7730 N   0  0  0  0  0  0  0  0  0  0  0  0
   37.5030   32.3720   38.2150 H   0  0  0  0  0  0  0  0  0  0  0  0
   37.9930   33.0770   40.1280 C   0  0  0  0  0  2  0  0  0  0  0  0
   38.9480   32.3660   41.0630 C   0  0  0  0  0  2  0  0  0  0  0  0
   36.1860   30.2730   40.9580 C   0  0  0  0  0  0  0  0  0  0  0  0
   35.5690   30.8910   41.6130 H   0  0  0  0  0  0  0  0  0  0  0  0
   36.6860   30.7650   40.1250 H   0  0  0  0  0  0  0  0  0  0  0  0
   35.2060   29.2770   40.3270 C   0  0  0  0  0  0  0  0  0  0  0  0
   35.4160   28.2820   40.7710 H   0  0  0  0  0  0  0  0  0  0  0  0
   34.1810   29.6120   40.5330 H   0  0  0  0  0  0  0  0  0  0  0  0
   35.0240   28.3010   36.6970 C   0  0  0  0  0  0  0  0  0  0  0  0
   34.7680   28.3330   38.0910 C   0  0  0  0  0  0  0  0  0  0  0  0
   35.4690   29.2400   38.8740 C   0  0  0  0  0  0  0  0  0  0  0  0
   36.3820   30.0630   38.2410 N   0  0  0  0  0  0  0  0  0  0  0  0
   36.5930   29.9980   36.9200 C   0  0  0  0  0  0  0  0  0  0  0  0
   35.9240   29.1300   36.1530 N   0  0  0  0  0  0  0  0  0  0  0  0
   34.5010   27.6100   36.0510 H   0  0  0  0  0  0  0  0  0  0  0  0
   34.0340   27.6400   38.4600 H   0  0  0  0  0  0  0  0  0  0  0  0
   37.3440   30.7180   36.5900 H   0  0  0  0  0  0  0  0  0  0  0  0
  1  2  1  0  0  0  0
  2  7  1  0  0  0  0
  2  3  2  0  0  0  0
  3  8  1  0  0  0  0
  4  3  1  0  0  0  0
  4  9  1  0  0  0  0
  5  4  2  0  0  0  0
  6  1  2  0  0  0  0
  6  5  1  0  0  0  0
 10  5  1  0  0  0  0
 11 19  1  0  0  0  0
 11  6  1  0  0  0  0
 12 11  1  0  0  0  0
 13 12  1  0  0  0  0
 14 16  1  0  0  0  0
 14 12  1  0  0  0  0
 15 14  1  0  0  0  0
 16 18  1  0  0  0  0
 17 16  1  0  0  0  0
 18 19  1  0  0  0  0
 20 21  1  0  0  0  0
 20  1  1  0  0  0  0
 22 20  1  0  0  0  0
 23 25  1  0  0  0  0
 23 24  1  0  0  0  0
 23 20  1  0  0  0  0
 26 27  1  0  0  0  0
 27 33  1  0  0  0  0
 27 28  2  0  0  0  0
 28 23  1  0  0  0  0
 29 28  1  0  0  0  0
 30 29  2  0  0  0  0
 31 26  2  0  0  0  0
 31 30  1  0  0  0  0
 32 26  1  0  0  0  0
 34 30  1  0  0  0  0
M  END
>  <minimizedAffinity>
-4.97244549

$$$$

 OpenBabel03252508223D

 34 36  0  0  0  0  0  0  0  0999 V2000
   37.0250   27.6790   41.5120 C   0  0  0  0  0  0  0  0  0  0  0  0
   37.1500   28.5720   42.5730 C   0  0  0  0  0  0  0  0  0  0  0  0
   37.9450   28.3600   43.6650 C   0  0  0  0  0  0  0  0  0  0  0  0
   38.6600   27.1680   43.6800 C   0  0  0  0  0  0  0  0  0  0  0  0
   38.5740   26.2540   42.6570 C   0  0  0  0  0  0  0  0  0  0  0  0
   37.7700   26.4930   41.5800 C   0  0  0  0  0  0  0  0  0  0  0  0
   36.5400   29.4520   42.4280 H   0  0  0  0  0  0  0  0  0  0  0  0
   37.9910   29.1100   44.4610 H   0  0  0  0  0  0  0  0  0  0  0  0
   39.2980   26.9890   44.5450 H   0  0  0  0  0  0  0  0  0  0  0  0
   39.1740   25.3630   42.7760 H   0  0  0  0  0  0  0  0  0  0  0  0
   37.7530   25.4930   40.5900 N   0  0  0  0  0  0  0  0  0  0  0  0
   38.6420   25.4980   39.4400 C   0  0  0  0  0  3  0  0  0  0  0  0
   39.6800   25.7620   39.7330 H   0  0  0  0  0  0  0  0  0  0  0  0
   38.7180   24.1030   38.8310 C   0  0  0  0  0  3  0  0  0  0  0  0
   39.6160   24.0700   38.2050 H   0  0  0  0  0  0  0  0  0  0  0  0
   38.7490   23.0470   39.7840 N   0  0  0  0  0  0  0  0  0  0  0  0
   39.6910   22.8950   40.1770 H   0  0  0  0  0  0  0  0  0  0  0  0
   37.6740   23.0620   40.7250 C   0  0  0  0  0  2  0  0  0  0  0  0
   36.8670   24.3330   40.5700 C   0  0  0  0  0  2  0  0  0  0  0  0
   36.1650   27.8820   40.3260 C   0  0  0  0  0  0  0  0  0  0  0  0
   36.7750   27.9390   39.4220 H   0  0  0  0  0  0  0  0  0  0  0  0
   35.3610   27.1470   40.3460 H   0  0  0  0  0  0  0  0  0  0  0  0
   35.4810   29.2510   40.4210 C   0  0  0  0  0  0  0  0  0  0  0  0
   34.4450   29.1300   40.0420 H   0  0  0  0  0  0  0  0  0  0  0  0
   35.5010   29.5830   41.4670 H   0  0  0  0  0  0  0  0  0  0  0  0
   37.3610   32.2950   39.2530 C   0  0  0  0  0  0  0  0  0  0  0  0
   36.6500   31.3970   40.0880 C   0  0  0  0  0  0  0  0  0  0  0  0
   36.2220   30.1900   39.5540 C   0  0  0  0  0  0  0  0  0  0  0  0
   36.5170   29.9340   38.2270 N   0  0  0  0  0  0  0  0  0  0  0  0
   37.1910   30.8120   37.4730 C   0  0  0  0  0  0  0  0  0  0  0  0
   37.6100   31.9790   37.9750 N   0  0  0  0  0  0  0  0  0  0  0  0
   37.7120   33.2450   39.6270 H   0  0  0  0  0  0  0  0  0  0  0  0
   36.4850   31.7140   41.1020 H   0  0  0  0  0  0  0  0  0  0  0  0
   37.3350   30.4500   36.4540 H   0  0  0  0  0  0  0  0  0  0  0  0
  1  6  2  0  0  0  0
  1  2  1  0  0  0  0
  2  3  2  0  0  0  0
  3  4  1  0  0  0  0
  3  8  1  0  0  0  0
  4  9  1  0  0  0  0
  5 10  1  0  0  0  0
  5  4  2  0  0  0  0
  6  5  1  0  0  0  0
  7  2  1  0  0  0  0
 11  6  1  0  0  0  0
 12 13  1  0  0  0  0
 12 11  1  0  0  0  0
 14 12  1  0  0  0  0
 14 16  1  0  0  0  0
 15 14  1  0  0  0  0
 16 17  1  0  0  0  0
 16 18  1  0  0  0  0
 19 11  1  0  0  0  0
 19 18  1  0  0  0  0
 20 22  1  0  0  0  0
 20 23  1  0  0  0  0
 20  1  1  0  0  0  0
 21 20  1  0  0  0  0
 23 25  1  0  0  0  0
 24 23  1  0  0  0  0
 26 32  1  0  0  0  0
 26 27  1  0  0  0  0
 27 33  1  0  0  0  0
 28 27  2  0  0  0  0
 28 23  1  0  0  0  0
 29 28  1  0  0  0  0
 30 31  1  0  0  0  0
 30 29  2  0  0  0  0
 31 26  2  0  0  0  0
 34 30  1  0  0  0  0
M  END
>  <minimizedAffinity>
-4.93046474

$$$$

 OpenBabel03252508223D

 34 36  0  0  0  0  0  0  0  0999 V2000
   36.4090   27.9580   41.3180 C   0  0  0  0  0  0  0  0  0  0  0  0
   35.8250   29.1940   41.0540 C   0  0  0  0  0  0  0  0  0  0  0  0
   35.6250   29.6950   39.7980 C   0  0  0  0  0  0  0  0  0  0  0  0
   36.0440   28.8910   38.7440 C   0  0  0  0  0  0  0  0  0  0  0  0
   36.6240   27.6630   38.9500 C   0  0  0  0  0  0  0  0  0  0  0  0
   36.8110   27.1890   40.2160 C   0  0  0  0  0  0  0  0  0  0  0  0
   35.5510   29.7070   41.9630 H   0  0  0  0  0  0  0  0  0  0  0  0
   35.1590   30.6770   39.6700 H   0  0  0  0  0  0  0  0  0  0  0  0
   35.8880   29.2810   37.7380 H   0  0  0  0  0  0  0  0  0  0  0  0
   36.9090   27.1260   38.0560 H   0  0  0  0  0  0  0  0  0  0  0  0
   37.4140   25.9210   40.3170 N   0  0  0  0  0  0  0  0  0  0  0  0
   38.8530   25.7210   40.2840 C   0  0  0  0  0  3  0  0  0  0  0  0
   39.3800   26.4710   40.9090 H   0  0  0  0  0  0  0  0  0  0  0  0
   39.2060   24.3600   40.8720 C   0  0  0  0  0  3  0  0  0  0  0  0
   40.2700   24.3840   41.1310 H   0  0  0  0  0  0  0  0  0  0  0  0
   38.4360   23.9950   42.0110 N   0  0  0  0  0  0  0  0  0  0  0  0
   38.7830   24.4290   42.8810 H   0  0  0  0  0  0  0  0  0  0  0  0
   37.0210   24.0390   41.8130 C   0  0  0  0  0  2  0  0  0  0  0  0
   36.7060   24.6530   40.4650 C   0  0  0  0  0  2  0  0  0  0  0  0
   36.6440   27.3980   42.6670 C   0  0  0  0  0  0  0  0  0  0  0  0
   35.7080   27.3550   43.2260 H   0  0  0  0  0  0  0  0  0  0  0  0
   37.2160   26.4760   42.5700 H   0  0  0  0  0  0  0  0  0  0  0  0
   37.5320   28.3570   43.4690 C   0  0  0  0  0  0  0  0  0  0  0  0
   37.3810   29.3740   43.0510 H   0  0  0  0  0  0  0  0  0  0  0  0
   37.2470   28.3000   44.5280 H   0  0  0  0  0  0  0  0  0  0  0  0
   41.1610   28.4220   42.4720 C   0  0  0  0  0  0  0  0  0  0  0  0
   39.8140   28.8230   42.6560 C   0  0  0  0  0  0  0  0  0  0  0  0
   38.9370   27.9430   43.2750 C   0  0  0  0  0  0  0  0  0  0  0  0
   39.4350   26.7180   43.6780 N   0  0  0  0  0  0  0  0  0  0  0  0
   40.7160   26.3790   43.4830 C   0  0  0  0  0  0  0  0  0  0  0  0
   41.5730   27.2180   42.8890 N   0  0  0  0  0  0  0  0  0  0  0  0
   41.8770   29.0750   41.9950 H   0  0  0  0  0  0  0  0  0  0  0  0
   39.5520   29.8020   42.2980 H   0  0  0  0  0  0  0  0  0  0  0  0
   40.9370   25.3790   43.8620 H   0  0  0  0  0  0  0  0  0  0  0  0
  1 20  1  0  0  0  0
  2  1  1  0  0  0  0
  2  7  1  0  0  0  0
  3  2  2  0  0  0  0
  4  5  2  0  0  0  0
  4  3  1  0  0  0  0
  5  6  1  0  0  0  0
  6 11  1  0  0  0  0
  6  1  2  0  0  0  0
  8  3  1  0  0  0  0
  9  4  1  0  0  0  0
 10  5  1  0  0  0  0
 11 19  1  0  0  0  0
 12 11  1  0  0  0  0
 12 14  1  0  0  0  0
 12 13  1  0  0  0  0
 14 15  1  0  0  0  0
 14 16  1  0  0  0  0
 16 17  1  0  0  0  0
 18 16  1  0  0  0  0
 19 18  1  0  0  0  0
 20 21  1  0  0  0  0
 20 23  1  0  0  0  0
 22 20  1  0  0  0  0
 23 25  1  0  0  0  0
 24 23  1  0  0  0  0
 26 27  2  0  0  0  0
 26 31  1  0  0  0  0
 27 28  1  0  0  0  0
 28 23  1  0  0  0  0
 28 29  2  0  0  0  0
 30 29  1  0  0  0  0
 30 34  1  0  0  0  0
 31 30  2  0  0  0  0
 32 26  1  0  0  0  0
 33 27  1  0  0  0  0
M  END
>  <minimizedAffinity>
-4.90954781

$$$$

 OpenBabel03252508223D

 34 36  0  0  0  0  0  0  0  0999 V2000
   35.9410   28.3460   39.5990 C   0  0  0  0  0  0  0  0  0  0  0  0
   35.1620   28.0790   38.4770 C   0  0  0  0  0  0  0  0  0  0  0  0
   35.1410   26.8770   37.8260 C   0  0  0  0  0  0  0  0  0  0  0  0
   35.9620   25.8840   38.3480 C   0  0  0  0  0  0  0  0  0  0  0  0
   36.7490   26.0950   39.4540 C   0  0  0  0  0  0  0  0  0  0  0  0
   36.7490   27.3070   40.0820 C   0  0  0  0  0  0  0  0  0  0  0  0
   34.5770   28.9390   38.1840 H   0  0  0  0  0  0  0  0  0  0  0  0
   34.5010   26.7430   36.9480 H   0  0  0  0  0  0  0  0  0  0  0  0
   35.9520   24.9210   37.8370 H   0  0  0  0  0  0  0  0  0  0  0  0
   37.3460   25.2510   39.7700 H   0  0  0  0  0  0  0  0  0  0  0  0
   37.5910   27.4180   41.2040 N   0  0  0  0  0  0  0  0  0  0  0  0
   38.9850   27.8200   41.1160 C   0  0  0  0  0  3  0  0  0  0  0  0
   39.1150   28.6790   40.4250 H   0  0  0  0  0  0  0  0  0  0  0  0
   39.4810   28.2960   42.4770 C   0  0  0  0  0  3  0  0  0  0  0  0
   40.3890   28.8820   42.3040 H   0  0  0  0  0  0  0  0  0  0  0  0
   38.5350   29.0660   43.2090 N   0  0  0  0  0  0  0  0  0  0  0  0
   38.5070   30.0530   42.9070 H   0  0  0  0  0  0  0  0  0  0  0  0
   37.2670   28.4340   43.3950 C   0  0  0  0  0  2  0  0  0  0  0  0
   37.2030   27.1550   42.5870 C   0  0  0  0  0  2  0  0  0  0  0  0
   35.9880   29.6410   40.3150 C   0  0  0  0  0  0  0  0  0  0  0  0
   35.0120   29.8690   40.7460 H   0  0  0  0  0  0  0  0  0  0  0  0
   36.8470   29.6400   40.9840 H   0  0  0  0  0  0  0  0  0  0  0  0
   36.2430   30.7690   39.3090 C   0  0  0  0  0  0  0  0  0  0  0  0
   36.6400   30.3030   38.3840 H   0  0  0  0  0  0  0  0  0  0  0  0
   35.2990   31.3020   39.1300 H   0  0  0  0  0  0  0  0  0  0  0  0
   38.2690   33.8580   40.0270 C   0  0  0  0  0  0  0  0  0  0  0  0
   37.2930   32.9950   39.4690 C   0  0  0  0  0  0  0  0  0  0  0  0
   37.2580   31.6720   39.8880 C   0  0  0  0  0  0  0  0  0  0  0  0
   38.1870   31.2740   40.8320 N   0  0  0  0  0  0  0  0  0  0  0  0
   39.0930   32.1230   41.3320 C   0  0  0  0  0  0  0  0  0  0  0  0
   39.1370   33.4010   40.9380 N   0  0  0  0  0  0  0  0  0  0  0  0
   38.3310   34.8950   39.7290 H   0  0  0  0  0  0  0  0  0  0  0  0
   36.6280   33.4280   38.7440 H   0  0  0  0  0  0  0  0  0  0  0  0
   39.7450   31.6420   42.0630 H   0  0  0  0  0  0  0  0  0  0  0  0
  1  6  1  0  0  0  0
  1 20  1  0  0  0  0
  2  1  2  0  0  0  0
  3  4  2  0  0  0  0
  3  2  1  0  0  0  0
  4  5  1  0  0  0  0
  5 10  1  0  0  0  0
  5  6  2  0  0  0  0
  6 11  1  0  0  0  0
  7  2  1  0  0  0  0
  8  3  1  0  0  0  0
  9  4  1  0  0  0  0
 11 19  1  0  0  0  0
 12 11  1  0  0  0  0
 12 14  1  0  0  0  0
 13 12  1  0  0  0  0
 14 16  1  0  0  0  0
 15 14  1  0  0  0  0
 16 18  1  0  0  0  0
 17 16  1  0  0  0  0
 19 18  1  0  0  0  0
 20 21  1  0  0  0  0
 20 22  1  0  0  0  0
 23 28  1  0  0  0  0
 23 20  1  0  0  0  0
 24 23  1  0  0  0  0
 25 23  1  0  0  0  0
 26 31  1  0  0  0  0
 27 28  1  0  0  0  0
 27 26  2  0  0  0  0
 28 29  2  0  0  0  0
 29 30  1  0  0  0  0
 30 34  1  0  0  0  0
 31 30  2  0  0  0  0
 32 26  1  0  0  0  0
 33 27  1  0  0  0  0
M  END
>  <minimizedAffinity>
-4.83400726

$$$$
