
 OpenBabel03252500303D

 43 46  0  0  1  0  0  0  0  0999 V2000
   46.0910   32.3280   45.3870 N   0  0  0  0  0  0  0  0  0  0  0  0
   45.9490   32.8340   46.7210 C   0  0  0  0  0  0  0  0  0  0  0  0
   47.1460   32.4900   47.5980 C   0  0  0  0  0  0  0  0  0  0  0  0
   47.1470   30.9810   47.7230 C   0  0  0  0  0  0  0  0  0  0  0  0
   47.4530   30.4730   46.3070 C   0  0  0  0  0  0  0  0  0  0  0  0
   46.3760   30.9680   45.3710 C   0  0  2  0  0  0  0  0  0  0  0  0
   45.1270   32.1690   47.1410 H   0  0  0  0  0  0  0  0  0  0  0  0
   45.5360   33.8160   46.8540 H   0  0  0  0  0  0  0  0  0  0  0  0
   48.1040   32.7890   47.1190 H   0  0  0  0  0  0  0  0  0  0  0  0
   47.0010   32.9330   48.5880 H   0  0  0  0  0  0  0  0  0  0  0  0
   47.9890   30.6920   48.3750 H   0  0  0  0  0  0  0  0  0  0  0  0
   46.1650   30.6270   48.0630 H   0  0  0  0  0  0  0  0  0  0  0  0
   48.4630   30.8350   46.0770 H   0  0  0  0  0  0  0  0  0  0  0  0
   47.4150   29.3800   46.3680 H   0  0  0  0  0  0  0  0  0  0  0  0
   45.4600   30.5650   45.9960 H   0  0  0  0  0  0  0  0  0  0  0  0
   46.1810   30.2720   44.1760 N   0  0  2  0  0  0  0  0  0  0  0  0
   44.8090   29.8890   43.9320 C   0  0  0  0  0  0  0  0  0  0  0  0
   44.2090   30.3900   44.7490 H   0  0  0  0  0  0  0  0  0  0  0  0
   44.6700   28.4040   44.0050 C   0  0  0  0  0  0  0  0  0  0  0  0
   43.6160   28.1090   43.7810 H   0  0  0  0  0  0  0  0  0  0  0  0
   45.4530   27.8800   42.8900 N   0  0  0  0  0  0  0  0  0  0  0  0
   45.0090   28.2960   42.0380 H   0  0  0  0  0  0  0  0  0  0  0  0
   46.8420   28.1560   43.0410 C   0  0  0  0  0  0  0  0  0  0  0  0
   47.1740   29.5430   43.5420 C   0  0  0  0  0  0  0  0  0  0  0  0
   46.6370   33.2360   44.4580 C   0  0  0  0  0  0  0  0  0  0  0  0
   46.6130   32.8530   43.4100 H   0  0  0  0  0  0  0  0  0  0  0  0
   47.6780   33.4960   44.7320 H   0  0  0  0  0  0  0  0  0  0  0  0
   45.7040   35.3430   43.2370 C   0  0  1  0  0  0  0  0  0  0  0  0
   44.6070   34.5880   43.7170 C   0  0  0  0  0  0  0  0  0  0  0  0
   45.8510   34.5140   44.5290 C   0  0  1  0  0  0  0  0  0  0  0  0
   45.6970   36.4640   43.3700 H   0  0  0  0  0  0  0  0  0  0  0  0
   44.3120   33.6610   43.1840 H   0  0  0  0  0  0  0  0  0  0  0  0
   43.6970   35.0930   44.1380 H   0  0  0  0  0  0  0  0  0  0  0  0
   46.1020   35.1680   45.3570 H   0  0  0  0  0  0  0  0  0  0  0  0
   45.9880   34.2220   41.0380 C   0  0  0  0  0  0  0  0  0  0  0  0
   46.5690   34.9800   42.0930 C   0  0  0  0  0  0  0  0  0  0  0  0
   47.8920   35.3230   41.9870 C   0  0  0  0  0  0  0  0  0  0  0  0
   48.5810   34.9190   40.8740 N   0  0  0  0  0  0  0  0  0  0  0  0
   48.0070   34.2020   39.8890 C   0  0  0  0  0  0  0  0  0  0  0  0
   46.6910   33.8350   39.9490 N   0  0  0  0  0  0  0  0  0  0  0  0
   44.9470   33.9000   41.0280 H   0  0  0  0  0  0  0  0  0  0  0  0
   48.3240   35.8900   42.7800 H   0  0  0  0  0  0  0  0  0  0  0  0
   48.6870   33.9610   39.0770 H   0  0  0  0  0  0  0  0  0  0  0  0
  1  2  1  0  0  0  0
  2  8  1  0  0  0  0
  2  7  1  0  0  0  0
  2  3  1  0  0  0  0
  3  4  1  0  0  0  0
  3 10  1  0  0  0  0
  4 12  1  0  0  0  0
  4 11  1  0  0  0  0
  5 14  1  0  0  0  0
  5  4  1  0  0  0  0
  6  1  1  0  0  0  0
  6 15  1  1  0  0  0
  6  5  1  0  0  0  0
  9  3  1  0  0  0  0
 13  5  1  0  0  0  0
 16 24  1  1  0  0  0
 16  6  1  0  0  0  0
 17 19  1  0  0  0  0
 17 16  1  0  0  0  0
 17 18  1  0  0  0  0
 20 19  1  0  0  0  0
 21 23  1  0  0  0  0
 21 19  1  0  0  0  0
 22 21  1  0  0  0  0
 23 24  1  0  0  0  0
 25 30  1  0  0  0  0
 25 27  1  0  0  0  0
 25  1  1  0  0  0  0
 26 25  1  0  0  0  0
 28 31  1  1  0  0  0
 28 29  1  0  0  0  0
 28 30  1  0  0  0  0
 29 33  1  0  0  0  0
 29 30  1  0  0  0  0
 30 34  1  1  0  0  0
 32 29  1  0  0  0  0
 35 36  1  0  0  0  0
 36 28  1  0  0  0  0
 37 36  2  0  0  0  0
 37 42  1  0  0  0  0
 38 37  1  0  0  0  0
 39 40  1  0  0  0  0
 39 38  2  0  0  0  0
 40 35  2  0  0  0  0
 41 35  1  0  0  0  0
 43 39  1  0  0  0  0
M  END
>  <minimizedAffinity>
-4.28107834

>  <minimizedRMSD>
2.6812911

$$$$
