
     RDKit          3D

 40 42  0  0  0  0  0  0  0  0999 V2000
   43.8585   33.6223   40.6325 C   0  0  0  0  0  0  0  0  0  0  0  0
   40.3872   34.8087   41.4724 C   0  0  0  0  0  0  0  0  0  0  0  0
   41.7548   34.8225   41.1021 C   0  0  0  0  0  0  0  0  0  0  0  0
   42.4316   33.6128   41.0181 C   0  0  0  0  0  0  0  0  0  0  0  0
   41.7237   32.4604   41.3033 N   0  0  0  0  0  0  0  0  0  0  0  0
   40.4305   32.4944   41.6496 C   0  0  0  0  0  0  0  0  0  0  0  0
   39.7661   33.6520   41.7345 N   0  0  0  0  0  0  0  0  0  0  0  0
   44.6763   34.0244   41.8660 C   0  0  0  0  0  0  0  0  0  0  0  0
   46.0528   34.3720   41.4504 C   0  0  0  0  0  0  0  0  0  0  0  0
   46.6359   34.0202   40.2359 C   0  0  0  0  0  0  0  0  0  0  0  0
   47.9079   34.3597   39.8688 C   0  0  0  0  0  0  0  0  0  0  0  0
   48.6343   35.1028   40.7922 C   0  0  0  0  0  0  0  0  0  0  0  0
   48.1058   35.4755   42.0052 C   0  0  0  0  0  0  0  0  0  0  0  0
   46.8316   35.1211   42.3432 C   0  0  0  0  0  0  0  0  0  0  0  0
   44.0313   34.3951   39.8565 H   0  0  0  0  0  0  0  0  0  0  0  0
   44.1828   32.6264   40.3041 H   0  0  0  0  0  0  0  0  0  0  0  0
   39.8218   35.7270   41.5500 H   0  0  0  0  0  0  0  0  0  0  0  0
   42.1902   35.7853   40.9060 H   0  0  0  0  0  0  0  0  0  0  0  0
   40.0325   31.4960   41.8385 H   0  0  0  0  0  0  0  0  0  0  0  0
   44.6858   33.1316   42.4951 H   0  0  0  0  0  0  0  0  0  0  0  0
   44.1939   34.9156   42.2644 H   0  0  0  0  0  0  0  0  0  0  0  0
   45.9585   33.4457   39.6196 H   0  0  0  0  0  0  0  0  0  0  0  0
   48.2969   34.0456   38.8945 H   0  0  0  0  0  0  0  0  0  0  0  0
   49.6500   35.3792   40.5098 H   0  0  0  0  0  0  0  0  0  0  0  0
   48.7622   36.0510   42.6423 H   0  0  0  0  0  0  0  0  0  0  0  0
   46.3875   35.5527   43.6069 N   0  0  0  0  0  0  0  0  0  0  0  0
   45.4549   36.6509   43.7899 C   0  0  2  0  0  0  0  0  0  0  0  0
   44.6171   36.5942   43.0630 H   0  0  0  0  0  0  0  0  0  0  0  0
   44.8183   36.5747   45.1731 C   0  0  2  0  0  0  0  0  0  0  0  0
   43.9136   37.1896   45.1484 H   0  0  0  0  0  0  0  0  0  0  0  0
   44.4996   35.2552   45.5995 N   0  0  0  0  0  0  0  0  0  0  0  0
   43.6082   34.9143   45.2036 H   0  0  0  0  0  0  0  0  0  0  0  0
   45.5917   34.3348   45.5625 C   0  0  0  0  0  0  0  0  0  0  0  0
   46.7865   34.9772   44.8890 C   0  0  0  0  0  0  0  0  0  0  0  0
   45.9458   37.6483   43.7990 H   0  0  0  0  0  0  0  0  0  0  0  0
   45.4823   37.0585   45.9447 H   0  0  0  0  0  0  0  0  0  0  0  0
   45.2337   33.4393   45.0132 H   0  0  0  0  0  0  0  0  0  0  0  0
   45.9109   33.9994   46.5610 H   0  0  0  0  0  0  0  0  0  0  0  0
   47.6176   34.2589   44.7868 H   0  0  0  0  0  0  0  0  0  0  0  0
   47.1281   35.7929   45.5446 H   0  0  0  0  0  0  0  0  0  0  0  0
  1  4  1  0
  1  8  1  0
  2  7  2  0
  3  2  1  0
  4  3  2  0
  4  5  1  0
  5  6  2  0
  6  7  1  0
  9  8  1  0
  9 14  1  0
 10  9  2  0
 11 10  1  0
 11 12  2  0
 12 13  1  0
 13 14  2  0
  1 15  1  0
  1 16  1  0
  2 17  1  0
  3 18  1  0
  6 19  1  0
  8 20  1  0
  8 21  1  0
 10 22  1  0
 11 23  1  0
 12 24  1  0
 13 25  1  0
 26 27  1  0
 27 28  1  6
 27 29  1  0
 29 30  1  6
 29 31  1  0
 31 32  1  0
 31 33  1  0
 33 34  1  0
 34 26  1  0
 27 35  1  0
 29 36  1  0
 33 37  1  0
 33 38  1  0
 34 39  1  0
 34 40  1  0
 14 26  1  0
M  ISO  8  15   8  16   8  17  14  18  14  19  14  20   8  21   8  22  14
M  ISO  6  23  14  24  14  25  14  28   8  30   8  32   5
M  END
>  <DihAtoms>  (1) 
8,13,25,26

>  <DihDeg>  (1) 
60.00761578202637

$$$$
