
     RDKit          3D

 37 39  0  0  0  0  0  0  0  0999 V2000
   46.6943   34.2450   40.6972 C   0  0  0  0  0  0  0  0  0  0  0  0
   48.0395   34.1860   41.3020 C   0  0  0  0  0  0  0  0  0  0  0  0
   48.7384   32.9893   41.1689 C   0  0  0  0  0  0  0  0  0  0  0  0
   50.0082   32.8823   41.7201 C   0  0  0  0  0  0  0  0  0  0  0  0
   50.5203   33.9582   42.3716 N   0  0  0  0  0  0  0  0  0  0  0  0
   49.8228   35.0946   42.4821 C   0  0  0  0  0  0  0  0  0  0  0  0
   48.6084   35.1919   41.9531 N   0  0  0  0  0  0  0  0  0  0  0  0
   48.0079   31.5928   40.2913 S   0  0  0  0  0  0  0  0  0  0  0  0
   45.6047   34.5587   41.6838 C   0  0  0  0  0  0  0  0  0  0  0  0
   44.2486   34.6510   41.0698 C   0  0  0  0  0  0  0  0  0  0  0  0
   43.2335   35.4514   41.6971 C   0  0  0  0  0  0  0  0  0  0  0  0
   41.7990   35.2295   40.5690 S   0  0  0  0  0  0  0  0  0  0  0  0
   42.8215   34.0896   39.4407 C   0  0  0  0  0  0  0  0  0  0  0  0
   43.8349   34.0676   39.9713 N   0  0  0  0  0  0  0  0  0  0  0  0
   46.6709   35.0977   39.9562 H   0  0  0  0  0  0  0  0  0  0  0  0
   46.4402   33.3547   40.1402 H   0  0  0  0  0  0  0  0  0  0  0  0
   50.5915   31.9587   41.6379 H   0  0  0  0  0  0  0  0  0  0  0  0
   50.3491   35.8706   43.0252 H   0  0  0  0  0  0  0  0  0  0  0  0
   49.0823   30.8033   39.8406 H   0  0  0  0  0  0  0  0  0  0  0  0
   45.6483   33.8257   42.5183 H   0  0  0  0  0  0  0  0  0  0  0  0
   45.8616   35.5465   42.1200 H   0  0  0  0  0  0  0  0  0  0  0  0
   43.3379   36.0175   42.5980 H   0  0  0  0  0  0  0  0  0  0  0  0
   42.2958   33.4908   38.2571 N   0  0  0  0  0  0  0  0  0  0  0  0
   42.7766   32.2245   37.7901 C   0  0  1  0  0  0  0  0  0  0  0  0
   43.3058   32.3167   36.8206 H   0  0  0  0  0  0  0  0  0  0  0  0
   41.5872   31.3152   37.5809 C   0  0  1  0  0  0  0  0  0  0  0  0
   41.9051   30.3756   37.0765 H   0  0  0  0  0  0  0  0  0  0  0  0
   40.4671   31.9440   36.9568 N   0  0  0  0  0  0  0  0  0  0  0  0
   40.1842   31.3892   36.1100 H   0  0  0  0  0  0  0  0  0  0  0  0
   40.6733   33.2912   36.5214 C   0  0  0  0  0  0  0  0  0  0  0  0
   41.2715   34.1948   37.5490 C   0  0  0  0  0  0  0  0  0  0  0  0
   43.4591   31.7329   38.5128 H   0  0  0  0  0  0  0  0  0  0  0  0
   41.2556   30.9710   38.6038 H   0  0  0  0  0  0  0  0  0  0  0  0
   41.2350   33.3872   35.5623 H   0  0  0  0  0  0  0  0  0  0  0  0
   39.6448   33.7015   36.2990 H   0  0  0  0  0  0  0  0  0  0  0  0
   41.7577   35.0457   37.0015 H   0  0  0  0  0  0  0  0  0  0  0  0
   40.5383   34.6023   38.2656 H   0  0  0  0  0  0  0  0  0  0  0  0
  1  2  1  0
  1  9  1  0
  2  7  1  0
  3  2  2  0
  3  4  1  0
  4  5  2  0
  5  6  1  0
  7  6  2  0
  8  3  1  0
 10  9  1  0
 10 11  2  0
 12 11  1  0
 13 14  2  0
 13 12  1  0
 14 10  1  0
  1 15  1  0
  1 16  1  0
  4 17  1  0
  6 18  1  0
  8 19  1  0
  9 20  1  0
  9 21  1  0
 11 22  1  0
 23 24  1  0
 24 25  1  6
 24 26  1  0
 26 27  1  6
 26 28  1  0
 28 29  1  0
 28 30  1  0
 30 31  1  0
 31 23  1  0
 24 32  1  0
 26 33  1  0
 30 34  1  0
 30 35  1  0
 31 36  1  0
 31 37  1  0
 13 23  1  0
M  ISO  8  15   8  16   8  17  14  18  14  19  11  20   8  21   8  22  14
M  ISO  3  25   8  27   8  29   5
M  END
>  <DihAtoms>  (1) 
13,12,22,23

>  <DihDeg>  (1) 
0.00026215420149559675

$$$$
