REMARK  Name = 
REMARK  4 active torsions:
REMARK  status: ('A' for Active; 'I' for Inactive)
REMARK    1  A    between atoms: C_1  and  C_4
REMARK    2  A    between atoms: C_1  and  C_8
REMARK    3  A    between atoms: C_8  and  C_9
REMARK    4  A    between atoms: C_14  and  N_26
REMARK                            x       y       z     vdW  Elec       q    Type
REMARK                         _______ _______ _______ _____ _____    ______ ____
ROOT
ATOM      1  C   UNL     1      46.053  34.372  41.450  0.00  0.00    +0.000 A 
ATOM      2  C   UNL     1      46.636  34.020  40.236  0.00  0.00    +0.000 A 
ATOM      3  C   UNL     1      47.908  34.360  39.869  0.00  0.00    +0.000 A 
ATOM      4  C   UNL     1      48.634  35.103  40.792  0.00  0.00    +0.000 A 
ATOM      5  C   UNL     1      48.106  35.475  42.005  0.00  0.00    +0.000 A 
ATOM      6  C   UNL     1      46.832  35.121  42.343  0.00  0.00    +0.000 A 
ATOM      7  H   UNL     1      45.959  33.446  39.620  0.00  0.00    +0.000 HD
ATOM      8  H   UNL     1      48.297  34.046  38.895  0.00  0.00    +0.000 HD
ATOM      9  H   UNL     1      49.650  35.379  40.510  0.00  0.00    +0.000 HD
ATOM     10  H   UNL     1      48.762  36.051  42.642  0.00  0.00    +0.000 HD
ENDROOT
BRANCH   6  11
ATOM     11  N   UNL     1      46.388  35.553  43.607  0.00  0.00    +0.000 N 
ATOM     12  C   UNL     1      46.011  36.926  43.891  0.00  0.00    +0.000 C 
ATOM     13  H   UNL     1      45.389  37.351  43.076  0.00  0.00    +0.000 HD
ATOM     14  C   UNL     1      45.154  36.986  45.150  0.00  0.00    +0.000 C 
ATOM     15  H   UNL     1      44.631  37.947  45.142  0.00  0.00    +0.000 HD
ATOM     16  N   UNL     1      44.217  35.922  45.272  0.00  0.00    +0.000 NA
ATOM     17  H   UNL     1      43.360  36.083  44.717  0.00  0.00    +0.000 HD
ATOM     18  C   UNL     1      44.782  34.614  45.183  0.00  0.00    +0.000 C 
ATOM     19  C   UNL     1      46.242  34.708  44.790  0.00  0.00    +0.000 C 
ENDBRANCH   6  11
BRANCH   1  20
ATOM     20  C   UNL     1      44.676  34.024  41.866  0.00  0.00    +0.000 C 
ATOM     21  H   UNL     1      44.686  33.132  42.495  0.00  0.00    +0.000 HD
ATOM     22  H   UNL     1      44.194  34.916  42.264  0.00  0.00    +0.000 HD
BRANCH  20  23
ATOM     23  C   UNL     1      43.858  33.622  40.633  0.00  0.00    +0.000 C 
ATOM     24  H   UNL     1      44.031  34.395  39.856  0.00  0.00    +0.000 HD
ATOM     25  H   UNL     1      44.183  32.626  40.304  0.00  0.00    +0.000 HD
BRANCH  23  28
ATOM     26  C   UNL     1      40.387  34.809  41.472  0.00  0.00    +0.000 A 
ATOM     27  C   UNL     1      41.755  34.822  41.102  0.00  0.00    +0.000 A 
ATOM     28  C   UNL     1      42.432  33.613  41.018  0.00  0.00    +0.000 A 
ATOM     29  N   UNL     1      41.724  32.460  41.303  0.00  0.00    +0.000 NA
ATOM     30  C   UNL     1      40.431  32.494  41.650  0.00  0.00    +0.000 A 
ATOM     31  N   UNL     1      39.766  33.652  41.734  0.00  0.00    +0.000 NA
ATOM     32  H   UNL     1      39.822  35.727  41.550  0.00  0.00    +0.000 HD
ATOM     33  H   UNL     1      42.190  35.785  40.906  0.00  0.00    +0.000 HD
ATOM     34  H   UNL     1      40.032  31.496  41.839  0.00  0.00    +0.000 HD
ENDBRANCH  23  28
ENDBRANCH  20  23
ENDBRANCH   1  20
TORSDOF 4
