
 OpenBabel03252508433D

 31 33  0  0  0  0  0  0  0  0999 V2000
   44.7730   34.0350   41.0560 C   0  0  0  0  0  0  0  0  0  0  0  0
   45.9790   33.8290   40.4330 C   0  0  0  0  0  0  0  0  0  0  0  0
   46.0330   33.3000   39.1580 C   0  0  0  0  0  0  0  0  0  0  0  0
   44.8470   32.9920   38.5440 C   0  0  0  0  0  0  0  0  0  0  0  0
   43.6160   33.1820   39.1270 C   0  0  0  0  0  0  0  0  0  0  0  0
   43.6310   33.7170   40.4140 C   0  0  0  0  0  0  0  0  0  0  0  0
   46.9920   33.1430   38.6820 H   0  0  0  0  0  0  0  0  0  0  0  0
   44.8220   32.5720   37.5380 H   0  0  0  0  0  0  0  0  0  0  0  0
   42.6530   32.9750   38.7330 H   0  0  0  0  0  0  0  0  0  0  0  0
   42.7160   33.9060   40.9630 H   0  0  0  0  0  0  0  0  0  0  0  0
   44.7770   36.4020   44.0170 C   0  0  0  0  0  0  0  0  0  0  0  0
   44.7180   35.9460   42.6860 C   0  0  0  0  0  0  0  0  0  0  0  0
   44.8230   34.5970   42.4000 C   0  0  0  0  0  0  0  0  0  0  0  0
   44.9810   33.7740   43.4540 N   0  0  0  0  0  0  0  0  0  0  0  0
   45.0400   34.1940   44.7370 C   0  0  0  0  0  0  0  0  0  0  0  0
   44.9380   35.5090   45.0160 N   0  0  0  0  0  0  0  0  0  0  0  0
   44.6930   37.4590   44.2170 H   0  0  0  0  0  0  0  0  0  0  0  0
   44.5920   36.6150   41.8710 H   0  0  0  0  0  0  0  0  0  0  0  0
   45.1690   33.5020   45.5670 H   0  0  0  0  0  0  0  0  0  0  0  0
   47.2720   34.1730   41.1240 C   0  0  0  0  0  0  0  0  0  0  0  0
   47.1250   35.0010   41.8530 H   0  0  0  0  0  0  0  0  0  0  0  0
   48.0320   34.4440   40.3510 H   0  0  0  0  0  0  0  0  0  0  0  0
   47.6840   33.0260   41.8620 N   0  0  0  0  0  0  0  0  0  0  0  0
   48.4070   33.2750   43.0690 C   0  0  0  0  0  3  0  0  0  0  0  0
   47.8650   33.8180   43.8500 H   0  0  0  0  0  0  0  0  0  0  0  0
   49.7070   33.9610   42.7100 C   0  0  0  0  0  3  0  0  0  0  0  0
   49.5060   35.0530   42.7340 H   0  0  0  0  0  0  0  0  0  0  0  0
   50.1580   33.6390   41.3820 N   0  0  0  0  0  0  0  0  0  0  0  0
   51.2180   33.6150   41.4190 H   0  0  0  0  0  0  0  0  0  0  0  0
   49.7670   32.3340   40.9330 C   0  0  0  0  0  2  0  0  0  0  0  0
   48.3280   31.9900   41.1270 C   0  0  0  0  0  2  0  0  0  0  0  0
  1 13  1  0  0  0  0
  2  1  1  0  0  0  0
  2 20  1  0  0  0  0
  3  2  2  0  0  0  0
  4  5  2  0  0  0  0
  4  3  1  0  0  0  0
  5  6  1  0  0  0  0
  6 10  1  0  0  0  0
  6  1  2  0  0  0  0
  7  3  1  0  0  0  0
  8  4  1  0  0  0  0
  9  5  1  0  0  0  0
 11 17  1  0  0  0  0
 11 16  1  0  0  0  0
 12 11  2  0  0  0  0
 13 12  1  0  0  0  0
 13 14  2  0  0  0  0
 14 15  1  0  0  0  0
 15 16  2  0  0  0  0
 15 19  1  0  0  0  0
 18 12  1  0  0  0  0
 20 21  1  0  0  0  0
 20 23  1  0  0  0  0
 22 20  1  0  0  0  0
 23 24  1  0  0  0  0
 24 25  1  0  0  0  0
 26 27  1  0  0  0  0
 26 24  1  0  0  0  0
 28 29  1  0  0  0  0
 28 26  1  0  0  0  0
 30 31  1  0  0  0  0
 30 28  1  0  0  0  0
 31 23  1  0  0  0  0
M  END
>  <minimizedAffinity>
-4.36845255

>  <minimizedRMSD>
2.03732729

$$$$
