
 OpenBabel03252508433D

 31 33  0  0  0  0  0  0  0  0999 V2000
   44.4370   33.5260   39.2580 C   0  0  0  0  0  0  0  0  0  0  0  0
   45.6370   33.6020   39.9230 C   0  0  0  0  0  0  0  0  0  0  0  0
   46.8190   33.2870   39.2810 C   0  0  0  0  0  0  0  0  0  0  0  0
   46.7500   32.9000   37.9680 C   0  0  0  0  0  0  0  0  0  0  0  0
   45.5730   32.8110   37.2620 C   0  0  0  0  0  0  0  0  0  0  0  0
   44.4160   33.1410   37.9670 C   0  0  0  0  0  0  0  0  0  0  0  0
   47.7560   33.3520   39.8200 H   0  0  0  0  0  0  0  0  0  0  0  0
   47.6470   32.6390   37.4060 H   0  0  0  0  0  0  0  0  0  0  0  0
   45.4220   32.5230   36.2520 H   0  0  0  0  0  0  0  0  0  0  0  0
   43.4380   33.1030   37.5040 H   0  0  0  0  0  0  0  0  0  0  0  0
   41.6500   35.4230   40.9920 C   0  0  0  0  0  0  0  0  0  0  0  0
   42.8140   35.1740   40.2390 C   0  0  0  0  0  0  0  0  0  0  0  0
   43.2480   33.8780   40.0230 C   0  0  0  0  0  0  0  0  0  0  0  0
   42.5010   32.9010   40.5690 N   0  0  0  0  0  0  0  0  0  0  0  0
   41.3820   33.1210   41.2950 C   0  0  0  0  0  0  0  0  0  0  0  0
   40.9590   34.3830   41.5040 N   0  0  0  0  0  0  0  0  0  0  0  0
   41.3300   36.4420   41.1480 H   0  0  0  0  0  0  0  0  0  0  0  0
   43.3870   35.9620   39.8180 H   0  0  0  0  0  0  0  0  0  0  0  0
   40.7990   32.3060   41.7220 H   0  0  0  0  0  0  0  0  0  0  0  0
   45.6940   34.0280   41.3660 C   0  0  0  0  0  0  0  0  0  0  0  0
   44.7850   34.6070   41.6450 H   0  0  0  0  0  0  0  0  0  0  0  0
   46.6220   34.6290   41.5270 H   0  0  0  0  0  0  0  0  0  0  0  0
   45.7070   32.8480   42.1630 N   0  0  0  0  0  0  0  0  0  0  0  0
   44.9420   32.8880   43.3690 C   0  0  0  0  0  3  0  0  0  0  0  0
   43.8610   33.0230   43.2490 H   0  0  0  0  0  0  0  0  0  0  0  0
   45.5380   33.9440   44.2750 C   0  0  0  0  0  3  0  0  0  0  0  0
   45.0160   34.8950   44.0400 H   0  0  0  0  0  0  0  0  0  0  0  0
   46.9410   34.1560   44.0320 N   0  0  0  0  0  0  0  0  0  0  0  0
   47.3810   34.3780   44.9730 H   0  0  0  0  0  0  0  0  0  0  0  0
   47.6350   32.9940   43.5580 C   0  0  0  0  0  2  0  0  0  0  0  0
   46.9810   32.2690   42.4280 C   0  0  0  0  0  2  0  0  0  0  0  0
  1  2  1  0  0  0  0
  1 13  1  0  0  0  0
  2 20  1  0  0  0  0
  3  7  1  0  0  0  0
  3  2  2  0  0  0  0
  4  3  1  0  0  0  0
  5  6  1  0  0  0  0
  5  4  2  0  0  0  0
  6  1  2  0  0  0  0
  8  4  1  0  0  0  0
  9  5  1  0  0  0  0
 10  6  1  0  0  0  0
 11 17  1  0  0  0  0
 11 16  1  0  0  0  0
 12 11  2  0  0  0  0
 13 12  1  0  0  0  0
 13 14  2  0  0  0  0
 14 15  1  0  0  0  0
 15 16  2  0  0  0  0
 15 19  1  0  0  0  0
 18 12  1  0  0  0  0
 20 22  1  0  0  0  0
 20 21  1  0  0  0  0
 20 23  1  0  0  0  0
 23 31  1  0  0  0  0
 23 24  1  0  0  0  0
 24 26  1  0  0  0  0
 25 24  1  0  0  0  0
 27 26  1  0  0  0  0
 28 26  1  0  0  0  0
 28 29  1  0  0  0  0
 30 28  1  0  0  0  0
 31 30  1  0  0  0  0
M  END
>  <minimizedAffinity>
-3.88152909

>  <minimizedRMSD>
4.0927639

$$$$
