
 OpenBabel03252501443D

 23 24  0  0  0  0  0  0  0  0999 V2000
   44.7640   34.9890   45.1440 C   0  0  0  0  0  0  0  0  0  0  0  0
   45.0050   34.4110   43.9000 C   0  0  0  0  0  0  0  0  0  0  0  0
   45.6150   33.1600   43.8820 C   0  0  0  0  0  0  0  0  0  0  0  0
   45.9450   32.5700   45.0820 N   0  0  0  0  0  0  0  0  0  0  0  0
   45.6880   33.1740   46.2530 C   0  0  0  0  0  0  0  0  0  0  0  0
   45.1030   34.3740   46.2780 N   0  0  0  0  0  0  0  0  0  0  0  0
   44.2870   35.9670   45.1880 H   0  0  0  0  0  0  0  0  0  0  0  0
   45.8130   32.6900   42.9240 H   0  0  0  0  0  0  0  0  0  0  0  0
   46.0550   32.5090   47.4610 N   0  0  0  0  0  0  0  0  0  0  0  0
   45.0080   31.8970   48.2620 C   0  0  0  0  0  0  0  0  0  0  0  0
   44.0720   31.8190   47.6650 H   0  0  0  0  0  0  0  0  0  0  0  0
   45.5050   30.5670   48.7360 C   0  0  0  0  0  0  0  0  0  0  0  0
   44.7500   30.1300   49.4240 H   0  0  0  0  0  0  0  0  0  0  0  0
   46.6870   30.8300   49.5600 N   0  0  0  0  0  0  0  0  0  0  0  0
   46.9670   29.8990   49.9740 H   0  0  0  0  0  0  0  0  0  0  0  0
   47.7570   31.2020   48.6570 C   0  0  0  0  0  0  0  0  0  0  0  0
   47.4350   32.4470   47.8740 C   0  0  0  0  0  0  0  0  0  0  0  0
   44.6520   35.0460   42.6460 C   0  0  0  0  0  0  0  0  0  0  0  0
   43.5940   34.7540   41.8960 C   0  0  0  0  0  0  0  0  0  0  0  0
   43.3310   35.4800   40.6160 C   0  0  0  0  0  0  0  0  0  0  0  0
   42.7960   34.7970   39.9230 H   0  0  0  0  0  0  0  0  0  0  0  0
   42.7810   36.4250   40.7910 H   0  0  0  0  0  0  0  0  0  0  0  0
   44.3230   35.7580   40.2060 H   0  0  0  0  0  0  0  0  0  0  0  0
  1  7  1  0  0  0  0
  1  6  1  0  0  0  0
  2  1  2  0  0  0  0
  3  2  1  0  0  0  0
  3  4  2  0  0  0  0
  4  5  1  0  0  0  0
  5  6  2  0  0  0  0
  5  9  1  0  0  0  0
  8  3  1  0  0  0  0
  9 17  1  0  0  0  0
  9 10  1  0  0  0  0
 10 12  1  0  0  0  0
 11 10  1  0  0  0  0
 12 13  1  0  0  0  0
 12 14  1  0  0  0  0
 14 15  1  0  0  0  0
 16 14  1  0  0  0  0
 17 16  1  0  0  0  0
 18  2  1  0  0  0  0
 19 18  2  0  0  0  0
 20 22  1  0  0  0  0
 20 19  1  0  0  0  0
 21 20  1  0  0  0  0
 23 20  1  0  0  0  0
M  END
>  <minimizedAffinity>
-5.05877304

>  <minimizedRMSD>
1.38162434

$$$$
