
 OpenBabel03242521323D

 31 34  0  0  0  0  0  0  0  0999 V2000
   44.4700   35.9180   44.9190 C   0  0  0  0  0  0  0  0  0  0  0  0
   45.0660   35.9040   43.6210 C   0  0  0  0  0  0  0  0  0  0  0  0
   45.9210   34.8550   43.3310 C   0  0  0  0  0  0  0  0  0  0  0  0
   46.1500   33.9120   44.2630 N   0  0  0  0  0  0  0  0  0  0  0  0
   45.5700   33.9520   45.4880 C   0  0  0  0  0  0  0  0  0  0  0  0
   44.7410   34.9440   45.8080 N   0  0  0  0  0  0  0  0  0  0  0  0
   43.8290   36.7590   45.0550 H   0  0  0  0  0  0  0  0  0  0  0  0
   44.8880   36.6510   42.8750 H   0  0  0  0  0  0  0  0  0  0  0  0
   45.8600   32.9200   46.4210 N   0  0  0  0  0  0  0  0  0  0  0  0
   46.7600   31.8310   46.0920 C   0  0  0  0  0  0  0  0  0  0  0  0
   47.1360   31.8600   45.0710 H   0  0  0  0  0  0  0  0  0  0  0  0
   45.9620   30.5560   46.2930 C   0  0  0  0  0  0  0  0  0  0  0  0
   45.1610   30.5450   45.4970 H   0  0  0  0  0  0  0  0  0  0  0  0
   45.3360   30.4690   47.5700 N   0  0  0  0  0  0  0  0  0  0  0  0
   44.3630   30.1080   47.5830 H   0  0  0  0  0  0  0  0  0  0  0  0
   45.5380   31.6030   48.4290 C   0  0  0  0  0  0  0  0  0  0  0  0
   45.2640   32.9190   47.7440 C   0  0  0  0  0  0  0  0  0  0  0  0
   47.8830   35.2120   41.9390 C   0  0  0  0  0  0  0  0  0  0  0  0
   46.6070   34.7000   42.0480 C   0  0  0  0  0  0  0  0  0  0  0  0
   46.0520   34.0780   40.9550 C   0  0  0  0  0  0  0  0  0  0  0  0
   46.7100   33.9400   39.7570 C   0  0  0  0  0  0  0  0  0  0  0  0
   46.3720   33.3770   38.5660 N   0  0  0  0  0  0  0  0  0  0  0  0
   47.4290   33.5320   37.7140 C   0  0  0  0  0  0  0  0  0  0  0  0
   48.4220   34.1980   38.3920 N   0  0  0  0  0  0  0  0  0  0  0  0
   47.9970   34.4560   39.6450 C   0  0  0  0  0  0  0  0  0  0  0  0
   48.5650   35.0810   40.7300 C   0  0  0  0  0  0  0  0  0  0  0  0
   48.3910   35.7200   42.7590 H   0  0  0  0  0  0  0  0  0  0  0  0
   45.0370   33.6850   41.0810 H   0  0  0  0  0  0  0  0  0  0  0  0
   45.4530   32.9020   38.3450 H   0  0  0  0  0  0  0  0  0  0  0  0
   47.4690   33.1860   36.6810 H   0  0  0  0  0  0  0  0  0  0  0  0
   49.5790   35.4790   40.6200 H   0  0  0  0  0  0  0  0  0  0  0  0
  1  7  1  0  0  0  0
  1  6  1  0  0  0  0
  2  1  2  0  0  0  0
  3  2  1  0  0  0  0
  3  4  2  0  0  0  0
  4  5  1  0  0  0  0
  5  6  2  0  0  0  0
  5  9  1  0  0  0  0
  8  2  1  0  0  0  0
  9 17  1  0  0  0  0
 10 12  1  0  0  0  0
 10  9  1  0  0  0  0
 11 10  1  0  0  0  0
 12 14  1  0  0  0  0
 13 12  1  0  0  0  0
 14 15  1  0  0  0  0
 14 16  1  0  0  0  0
 17 16  1  0  0  0  0
 18 19  1  0  0  0  0
 18 27  1  0  0  0  0
 19  3  1  0  0  0  0
 20 28  1  0  0  0  0
 20 19  2  0  0  0  0
 21 20  1  0  0  0  0
 22 21  1  0  0  0  0
 23 24  2  0  0  0  0
 23 22  1  0  0  0  0
 24 25  1  0  0  0  0
 25 21  2  0  0  0  0
 25 26  1  0  0  0  0
 26 18  2  0  0  0  0
 29 22  1  0  0  0  0
 30 23  1  0  0  0  0
 31 26  1  0  0  0  0
M  END
>  <minimizedAffinity>
-7.1055994

>  <minimizedRMSD>
0.0315706059

$$$$
