
     RDKit          3D

 40 42  0  0  0  0  0  0  0  0999 V2000
   43.8585   33.6223   40.6325 C   0  0  0  0  0  0  0  0  0  0  0  0
   40.3872   34.8087   41.4724 C   0  0  0  0  0  0  0  0  0  0  0  0
   41.7548   34.8225   41.1021 C   0  0  0  0  0  0  0  0  0  0  0  0
   42.4316   33.6128   41.0181 C   0  0  0  0  0  0  0  0  0  0  0  0
   41.7237   32.4604   41.3033 N   0  0  0  0  0  0  0  0  0  0  0  0
   40.4305   32.4944   41.6496 C   0  0  0  0  0  0  0  0  0  0  0  0
   39.7661   33.6520   41.7345 N   0  0  0  0  0  0  0  0  0  0  0  0
   44.6763   34.0244   41.8660 C   0  0  0  0  0  0  0  0  0  0  0  0
   46.0528   34.3720   41.4504 C   0  0  0  0  0  0  0  0  0  0  0  0
   46.6359   34.0202   40.2359 C   0  0  0  0  0  0  0  0  0  0  0  0
   47.9079   34.3597   39.8688 C   0  0  0  0  0  0  0  0  0  0  0  0
   48.6343   35.1028   40.7922 C   0  0  0  0  0  0  0  0  0  0  0  0
   48.1058   35.4755   42.0052 C   0  0  0  0  0  0  0  0  0  0  0  0
   46.8316   35.1211   42.3432 C   0  0  0  0  0  0  0  0  0  0  0  0
   44.0313   34.3951   39.8565 H   0  0  0  0  0  0  0  0  0  0  0  0
   44.1828   32.6264   40.3041 H   0  0  0  0  0  0  0  0  0  0  0  0
   39.8218   35.7270   41.5500 H   0  0  0  0  0  0  0  0  0  0  0  0
   42.1902   35.7853   40.9060 H   0  0  0  0  0  0  0  0  0  0  0  0
   40.0325   31.4960   41.8385 H   0  0  0  0  0  0  0  0  0  0  0  0
   44.6858   33.1316   42.4951 H   0  0  0  0  0  0  0  0  0  0  0  0
   44.1939   34.9156   42.2644 H   0  0  0  0  0  0  0  0  0  0  0  0
   45.9585   33.4457   39.6196 H   0  0  0  0  0  0  0  0  0  0  0  0
   48.2969   34.0456   38.8945 H   0  0  0  0  0  0  0  0  0  0  0  0
   49.6500   35.3792   40.5098 H   0  0  0  0  0  0  0  0  0  0  0  0
   48.7622   36.0510   42.6423 H   0  0  0  0  0  0  0  0  0  0  0  0
   46.3875   35.5527   43.6069 N   0  0  0  0  0  0  0  0  0  0  0  0
   46.0112   36.9263   43.8914 C   0  0  2  0  0  0  0  0  0  0  0  0
   45.3889   37.3514   43.0756 H   0  0  0  0  0  0  0  0  0  0  0  0
   45.1536   36.9863   45.1504 C   0  0  2  0  0  0  0  0  0  0  0  0
   44.6308   37.9474   45.1417 H   0  0  0  0  0  0  0  0  0  0  0  0
   44.2165   35.9225   45.2721 N   0  0  0  0  0  0  0  0  0  0  0  0
   43.3597   36.0827   44.7172 H   0  0  0  0  0  0  0  0  0  0  0  0
   44.7825   34.6138   45.1828 C   0  0  0  0  0  0  0  0  0  0  0  0
   46.2422   34.7078   44.7897 C   0  0  0  0  0  0  0  0  0  0  0  0
   46.8761   37.5747   44.1510 H   0  0  0  0  0  0  0  0  0  0  0  0
   45.8008   37.0113   46.0728 H   0  0  0  0  0  0  0  0  0  0  0  0
   44.1824   34.0588   44.4321 H   0  0  0  0  0  0  0  0  0  0  0  0
   44.7260   34.0509   46.1270 H   0  0  0  0  0  0  0  0  0  0  0  0
   46.6793   33.7051   44.6462 H   0  0  0  0  0  0  0  0  0  0  0  0
   46.7728   35.1874   45.6265 H   0  0  0  0  0  0  0  0  0  0  0  0
  1  4  1  0
  1  8  1  0
  2  7  2  0
  3  2  1  0
  4  3  2  0
  4  5  1  0
  5  6  2  0
  6  7  1  0
  9  8  1  0
  9 14  1  0
 10  9  2  0
 11 10  1  0
 11 12  2  0
 12 13  1  0
 13 14  2  0
  1 15  1  0
  1 16  1  0
  2 17  1  0
  3 18  1  0
  6 19  1  0
  8 20  1  0
  8 21  1  0
 10 22  1  0
 11 23  1  0
 12 24  1  0
 13 25  1  0
 26 27  1  0
 27 28  1  6
 27 29  1  0
 29 30  1  6
 29 31  1  0
 31 32  1  0
 31 33  1  0
 33 34  1  0
 34 26  1  0
 27 35  1  0
 29 36  1  0
 33 37  1  0
 33 38  1  0
 34 39  1  0
 34 40  1  0
 14 26  1  0
M  ISO  8  15   8  16   8  17  14  18  14  19  14  20   8  21   8  22  14
M  ISO  6  23  14  24  14  25  14  28   8  30   8  32   5
M  END
>  <DihAtoms>  (1) 
8,13,25,26

>  <DihDeg>  (1) 
60.00761578202637

$$$$
