REMARK  Name = 
REMARK  4 active torsions:
REMARK  status: ('A' for Active; 'I' for Inactive)
REMARK    1  A    between atoms: C_1  and  C_10
REMARK    2  A    between atoms: C_8  and  C_21
REMARK    3  A    between atoms: C_11  and  C_15
REMARK    4  A    between atoms: C_21  and  N_39
REMARK                            x       y       z     vdW  Elec       q    Type
REMARK                         _______ _______ _______ _____ _____    ______ ____
ROOT
ATOM      1  C   UNL     1      47.328  33.625  42.841  0.00  0.00    +0.000 C 
ATOM      2  O   UNL     1      48.412  33.411  43.443  0.00  0.00    +0.000 OA
ATOM      3  N   UNL     1      47.033  33.125  41.549  0.00  0.00    +0.000 N 
ATOM      4  C   UNL     1      45.812  32.496  41.023  0.00  0.00    +0.000 C 
ATOM      5  C   UNL     1      45.386  33.186  39.741  0.00  0.00    +0.000 C 
ATOM      6  C   UNL     1      46.424  33.008  38.680  0.00  0.00    +0.000 C 
ATOM      7  C   UNL     1      47.690  32.489  39.304  0.00  0.00    +0.000 C 
ATOM      8  C   UNL     1      48.069  33.217  40.555  0.00  0.00    +0.000 C 
ATOM      9  H   UNL     1      46.035  31.435  40.820  0.00  0.00    +0.000 HD
ATOM     10  H   UNL     1      44.953  32.621  41.721  0.00  0.00    +0.000 HD
ATOM     11  H   UNL     1      45.126  34.242  39.953  0.00  0.00    +0.000 HD
ATOM     12  H   UNL     1      44.446  32.652  39.431  0.00  0.00    +0.000 HD
ATOM     13  H   UNL     1      46.075  32.276  37.918  0.00  0.00    +0.000 HD
ATOM     14  H   UNL     1      46.601  33.962  38.143  0.00  0.00    +0.000 HD
ATOM     15  H   UNL     1      47.626  31.401  39.438  0.00  0.00    +0.000 HD
ATOM     16  H   UNL     1      48.502  32.687  38.547  0.00  0.00    +0.000 HD
ATOM     17  H   UNL     1      48.052  34.304  40.245  0.00  0.00    +0.000 HD
ENDROOT
BRANCH   1  19
ATOM     18  C   UNL     1      45.964  35.660  42.921  0.00  0.00    +0.000 A 
ATOM     19  C   UNL     1      46.340  34.422  43.512  0.00  0.00    +0.000 A 
ATOM     20  C   UNL     1      45.745  34.035  44.698  0.00  0.00    +0.000 A 
ATOM     21  N   UNL     1      44.827  34.854  45.251  0.00  0.00    +0.000 NA
ATOM     22  C   UNL     1      44.460  36.035  44.700  0.00  0.00    +0.000 A 
ATOM     23  N   UNL     1      45.038  36.415  43.542  0.00  0.00    +0.000 NA
ATOM     24  H   UNL     1      46.438  35.953  41.987  0.00  0.00    +0.000 HD
ATOM     25  H   UNL     1      43.727  36.658  45.169  0.00  0.00    +0.000 HD
BRANCH  20  26
ATOM     26  C   UNL     1      46.147  32.765  45.286  0.00  0.00    +0.000 A 
ATOM     27  C   UNL     1      45.766  31.598  44.714  0.00  0.00    +0.000 A 
ATOM     28  C   UNL     1      46.164  30.408  45.292  0.00  0.00    +0.000 A 
ATOM     29  C   UNL     1      46.950  30.361  46.451  0.00  0.00    +0.000 A 
ATOM     30  C   UNL     1      47.311  31.593  46.993  0.00  0.00    +0.000 A 
ATOM     31  N   UNL     1      46.905  32.726  46.403  0.00  0.00    +0.000 NA
ATOM     32  H   UNL     1      45.171  31.510  43.835  0.00  0.00    +0.000 HD
ATOM     33  H   UNL     1      45.898  29.442  44.891  0.00  0.00    +0.000 HD
ATOM     34  H   UNL     1      47.276  29.464  46.925  0.00  0.00    +0.000 HD
ATOM     35  H   UNL     1      47.916  31.634  47.887  0.00  0.00    +0.000 HD
ENDBRANCH  20  26
ENDBRANCH   1  19
BRANCH   8  36
ATOM     36  C   UNL     1      49.411  32.771  41.007  0.00  0.00    +0.000 C 
ATOM     37  H   UNL     1      49.789  33.203  41.952  0.00  0.00    +0.000 HD
ATOM     38  H   UNL     1      49.379  31.686  41.222  0.00  0.00    +0.000 HD
BRANCH  36  39
ATOM     39  N   UNL     1      50.433  32.839  39.992  0.00  0.00    +0.000 NA
ATOM     40  C   UNL     1      51.763  32.894  40.324  0.00  0.00    +0.000 C 
ATOM     41  H   UNL     1      51.967  32.296  41.255  0.00  0.00    +0.000 HD
ATOM     42  C   UNL     1      52.565  32.160  39.259  0.00  0.00    +0.000 C 
ATOM     43  H   UNL     1      53.621  32.044  39.606  0.00  0.00    +0.000 HD
ATOM     44  N   UNL     1      52.083  30.842  38.983  0.00  0.00    +0.000 NA
ATOM     45  H   UNL     1      52.271  30.129  39.704  0.00  0.00    +0.000 HD
ATOM     46  C   UNL     1      50.681  30.840  38.609  0.00  0.00    +0.000 C 
ATOM     47  C   UNL     1      50.066  32.213  38.762  0.00  0.00    +0.000 C 
ENDBRANCH  36  39
ENDBRANCH   8  36
TORSDOF 4
