
 OpenBabel03252507233D

 47 50  0  0  1  0  0  0  0  0999 V2000
   37.5960   28.0360   41.8660 C   0  0  0  0  0  0  0  0  0  0  0  0
   36.7040   28.9220   41.9280 O   0  0  0  0  0  0  0  0  0  0  0  0
   38.9530   28.2610   42.2040 N   0  0  0  0  0  0  0  0  0  0  0  0
   39.8880   27.4460   42.9950 C   0  0  0  0  0  0  0  0  0  0  0  0
   41.1750   27.2380   42.2200 C   0  0  0  0  0  0  0  0  0  0  0  0
   41.8670   28.5430   41.9910 C   0  0  0  0  0  0  0  0  0  0  0  0
   40.9230   29.6690   42.3100 C   0  0  0  0  0  0  0  0  0  0  0  0
   39.5590   29.4750   41.7270 C   0  0  2  0  0  0  0  0  0  0  0  0
   40.1000   27.9860   43.9340 H   0  0  0  0  0  0  0  0  0  0  0  0
   39.4880   26.4230   43.1780 H   0  0  0  0  0  0  0  0  0  0  0  0
   40.9660   26.6630   41.2960 H   0  0  0  0  0  0  0  0  0  0  0  0
   41.8100   26.5970   42.8920 H   0  0  0  0  0  0  0  0  0  0  0  0
   42.7590   28.6270   42.6500 H   0  0  0  0  0  0  0  0  0  0  0  0
   42.2370   28.6110   40.9480 H   0  0  0  0  0  0  0  0  0  0  0  0
   40.9090   29.8550   43.3920 H   0  0  0  0  0  0  0  0  0  0  0  0
   41.3660   30.5820   41.8180 H   0  0  0  0  0  0  0  0  0  0  0  0
   39.7640   29.2650   40.6350 H   0  0  0  0  0  0  0  0  0  0  0  0
   37.1880   25.6750   42.3840 C   0  0  0  0  0  0  0  0  0  0  0  0
   37.2050   26.7270   41.4260 C   0  0  0  0  0  0  0  0  0  0  0  0
   36.8450   26.4520   40.1200 C   0  0  0  0  0  0  0  0  0  0  0  0
   36.4930   25.1890   39.8050 N   0  0  0  0  0  0  0  0  0  0  0  0
   36.4730   24.1780   40.7060 C   0  0  0  0  0  0  0  0  0  0  0  0
   36.8220   24.4440   41.9810 N   0  0  0  0  0  0  0  0  0  0  0  0
   37.4710   25.9040   43.4080 H   0  0  0  0  0  0  0  0  0  0  0  0
   36.1870   23.1880   40.4180 H   0  0  0  0  0  0  0  0  0  0  0  0
   36.8720   27.5430   39.1560 C   0  0  0  0  0  0  0  0  0  0  0  0
   35.7150   28.1000   38.7250 C   0  0  0  0  0  0  0  0  0  0  0  0
   35.7700   29.1360   37.8120 C   0  0  0  0  0  0  0  0  0  0  0  0
   36.9810   29.6340   37.3120 C   0  0  0  0  0  0  0  0  0  0  0  0
   38.1370   29.0210   37.7930 C   0  0  0  0  0  0  0  0  0  0  0  0
   38.0420   28.0190   38.6780 N   0  0  0  0  0  0  0  0  0  0  0  0
   34.7390   27.8060   39.0330 H   0  0  0  0  0  0  0  0  0  0  0  0
   34.8900   29.6260   37.4260 H   0  0  0  0  0  0  0  0  0  0  0  0
   37.0630   30.4300   36.6090 H   0  0  0  0  0  0  0  0  0  0  0  0
   39.1060   29.3530   37.4510 H   0  0  0  0  0  0  0  0  0  0  0  0
   38.7470   30.7010   41.9310 C   0  0  0  0  0  0  0  0  0  0  0  0
   37.8170   30.5930   42.5200 H   0  0  0  0  0  0  0  0  0  0  0  0
   39.3340   31.4300   42.5210 H   0  0  0  0  0  0  0  0  0  0  0  0
   38.4820   31.4460   40.7250 N   0  0  0  0  0  0  0  0  0  0  0  0
   37.2050   31.8130   40.3830 C   0  0  0  0  0  3  0  0  0  0  0  0
   36.5940   32.0370   41.3010 H   0  0  0  0  0  0  0  0  0  0  0  0
   37.2550   33.1540   39.6650 C   0  0  0  0  0  3  0  0  0  0  0  0
   36.2170   33.5460   39.5400 H   0  0  0  0  0  0  0  0  0  0  0  0
   37.9850   34.1590   40.3750 N   0  0  0  0  0  0  0  0  0  0  0  0
   37.5220   34.5520   41.2090 H   0  0  0  0  0  0  0  0  0  0  0  0
   39.3360   33.7340   40.6890 C   0  0  0  0  0  2  0  0  0  0  0  0
   39.5620   32.2850   40.3160 C   0  0  0  0  0  2  0  0  0  0  0  0
  1  2  2  0  0  0  0
  1  3  1  0  0  0  0
  3  4  1  0  0  0  0
  4 10  1  0  0  0  0
  4  9  1  0  0  0  0
  5 12  1  0  0  0  0
  5  4  1  0  0  0  0
  6  5  1  0  0  0  0
  6  7  1  0  0  0  0
  6 13  1  0  0  0  0
  7 15  1  0  0  0  0
  8 17  1  6  0  0  0
  8 36  1  0  0  0  0
  8  3  1  0  0  0  0
  8  7  1  0  0  0  0
 11  5  1  0  0  0  0
 14  6  1  0  0  0  0
 16  7  1  0  0  0  0
 18 24  1  0  0  0  0
 19  1  1  0  0  0  0
 19 18  2  0  0  0  0
 20 19  1  0  0  0  0
 21 20  2  0  0  0  0
 21 22  1  0  0  0  0
 22 23  2  0  0  0  0
 23 18  1  0  0  0  0
 25 22  1  0  0  0  0
 26 20  1  0  0  0  0
 27 32  1  0  0  0  0
 27 26  1  0  0  0  0
 28 27  2  0  0  0  0
 29 30  2  0  0  0  0
 29 28  1  0  0  0  0
 30 31  1  0  0  0  0
 31 26  2  0  0  0  0
 33 28  1  0  0  0  0
 34 29  1  0  0  0  0
 35 30  1  0  0  0  0
 36 37  1  0  0  0  0
 36 38  1  0  0  0  0
 39 36  1  0  0  0  0
 40 39  1  0  0  0  0
 40 41  1  0  0  0  0
 42 44  1  0  0  0  0
 42 40  1  0  0  0  0
 43 42  1  0  0  0  0
 44 46  1  0  0  0  0
 44 45  1  0  0  0  0
 47 46  1  0  0  0  0
 47 39  1  0  0  0  0
M  END
>  <minimizedAffinity>
-5.88725805

$$$$

 OpenBabel03252507233D

 47 50  0  0  1  0  0  0  0  0999 V2000
   39.0210   29.1400   40.4700 C   0  0  0  0  0  0  0  0  0  0  0  0
   39.5960   28.6410   39.4680 O   0  0  0  0  0  0  0  0  0  0  0  0
   38.5120   28.3750   41.5480 N   0  0  0  0  0  0  0  0  0  0  0  0
   38.6080   28.5870   43.0000 C   0  0  0  0  0  0  0  0  0  0  0  0
   37.2280   28.5090   43.6260 C   0  0  0  0  0  0  0  0  0  0  0  0
   36.6510   27.1410   43.4530 C   0  0  0  0  0  0  0  0  0  0  0  0
   37.4670   26.3800   42.4440 C   0  0  0  0  0  0  0  0  0  0  0  0
   37.7810   27.1800   41.2200 C   0  0  2  0  0  0  0  0  0  0  0  0
   39.2530   27.7970   43.4180 H   0  0  0  0  0  0  0  0  0  0  0  0
   38.9800   29.6090   43.2410 H   0  0  0  0  0  0  0  0  0  0  0  0
   36.5920   29.3270   43.2330 H   0  0  0  0  0  0  0  0  0  0  0  0
   37.4030   28.7000   44.7200 H   0  0  0  0  0  0  0  0  0  0  0  0
   36.6710   26.5890   44.4190 H   0  0  0  0  0  0  0  0  0  0  0  0
   35.5870   27.2030   43.1460 H   0  0  0  0  0  0  0  0  0  0  0  0
   38.3580   25.9540   42.9250 H   0  0  0  0  0  0  0  0  0  0  0  0
   36.8160   25.5190   42.1190 H   0  0  0  0  0  0  0  0  0  0  0  0
   36.7710   27.5630   40.8860 H   0  0  0  0  0  0  0  0  0  0  0  0
   39.9760   31.3360   40.9940 C   0  0  0  0  0  0  0  0  0  0  0  0
   38.8790   30.5680   40.5130 C   0  0  0  0  0  0  0  0  0  0  0  0
   37.7300   31.2190   40.1060 C   0  0  0  0  0  0  0  0  0  0  0  0
   37.6940   32.5650   40.1850 N   0  0  0  0  0  0  0  0  0  0  0  0
   38.7300   33.3080   40.6420 C   0  0  0  0  0  0  0  0  0  0  0  0
   39.8530   32.6760   41.0380 N   0  0  0  0  0  0  0  0  0  0  0  0
   40.8750   30.8120   41.3100 H   0  0  0  0  0  0  0  0  0  0  0  0
   38.6640   34.3760   40.6900 H   0  0  0  0  0  0  0  0  0  0  0  0
   36.6190   30.4130   39.6190 C   0  0  0  0  0  0  0  0  0  0  0  0
   35.6580   29.9890   40.4740 C   0  0  0  0  0  0  0  0  0  0  0  0
   34.6150   29.2280   39.9840 C   0  0  0  0  0  0  0  0  0  0  0  0
   34.5110   28.8770   38.6310 C   0  0  0  0  0  0  0  0  0  0  0  0
   35.5290   29.3420   37.8010 C   0  0  0  0  0  0  0  0  0  0  0  0
   36.5250   30.0780   38.3140 N   0  0  0  0  0  0  0  0  0  0  0  0
   35.6320   30.1940   41.5190 H   0  0  0  0  0  0  0  0  0  0  0  0
   33.8160   28.8560   40.6060 H   0  0  0  0  0  0  0  0  0  0  0  0
   33.7230   28.2920   38.2170 H   0  0  0  0  0  0  0  0  0  0  0  0
   35.5150   29.1100   36.7460 H   0  0  0  0  0  0  0  0  0  0  0  0
   38.4280   26.3100   40.2050 C   0  0  0  0  0  0  0  0  0  0  0  0
   38.9990   26.8150   39.4050 H   0  0  0  0  0  0  0  0  0  0  0  0
   39.1920   25.6820   40.7010 H   0  0  0  0  0  0  0  0  0  0  0  0
   37.5550   25.3140   39.6330 N   0  0  0  0  0  0  0  0  0  0  0  0
   36.4830   25.6720   38.8560 C   0  0  0  0  0  3  0  0  0  0  0  0
   36.7140   26.5940   38.2560 H   0  0  0  0  0  0  0  0  0  0  0  0
   36.2750   24.6070   37.7880 C   0  0  0  0  0  3  0  0  0  0  0  0
   35.5250   24.9710   37.0440 H   0  0  0  0  0  0  0  0  0  0  0  0
   37.4600   24.2980   37.0470 N   0  0  0  0  0  0  0  0  0  0  0  0
   37.7700   25.0090   36.3680 H   0  0  0  0  0  0  0  0  0  0  0  0
   38.5550   23.9000   37.9110 C   0  0  0  0  0  2  0  0  0  0  0  0
   38.1980   24.0660   39.3720 C   0  0  0  0  0  2  0  0  0  0  0  0
  1 19  1  0  0  0  0
  1  3  1  0  0  0  0
  2  1  2  0  0  0  0
  3  4  1  0  0  0  0
  4 10  1  0  0  0  0
  4  9  1  0  0  0  0
  4  5  1  0  0  0  0
  5 12  1  0  0  0  0
  6  5  1  0  0  0  0
  6 13  1  0  0  0  0
  7 15  1  0  0  0  0
  7  6  1  0  0  0  0
  8 17  1  6  0  0  0
  8  3  1  0  0  0  0
  8  7  1  0  0  0  0
 11  5  1  0  0  0  0
 14  6  1  0  0  0  0
 16  7  1  0  0  0  0
 18 23  1  0  0  0  0
 18 24  1  0  0  0  0
 19 18  2  0  0  0  0
 20 21  2  0  0  0  0
 20 19  1  0  0  0  0
 21 22  1  0  0  0  0
 22 25  1  0  0  0  0
 22 23  2  0  0  0  0
 26 20  1  0  0  0  0
 26 27  1  0  0  0  0
 27 32  1  0  0  0  0
 28 27  2  0  0  0  0
 28 33  1  0  0  0  0
 29 28  1  0  0  0  0
 30 31  1  0  0  0  0
 30 29  2  0  0  0  0
 31 26  2  0  0  0  0
 34 29  1  0  0  0  0
 35 30  1  0  0  0  0
 36 38  1  0  0  0  0
 36  8  1  0  0  0  0
 37 36  1  0  0  0  0
 39 36  1  0  0  0  0
 40 39  1  0  0  0  0
 41 40  1  0  0  0  0
 42 40  1  0  0  0  0
 43 42  1  0  0  0  0
 44 42  1  0  0  0  0
 44 46  1  0  0  0  0
 45 44  1  0  0  0  0
 46 47  1  0  0  0  0
 47 39  1  0  0  0  0
M  END
>  <minimizedAffinity>
-5.83973503

$$$$

 OpenBabel03252507233D

 47 50  0  0  1  0  0  0  0  0999 V2000
   37.7990   26.9280   39.7230 C   0  0  0  0  0  0  0  0  0  0  0  0
   38.4340   27.3430   38.7190 O   0  0  0  0  0  0  0  0  0  0  0  0
   37.5840   27.6980   40.8920 N   0  0  0  0  0  0  0  0  0  0  0  0
   36.3710   27.8880   41.7020 C   0  0  0  0  0  0  0  0  0  0  0  0
   36.6790   27.6210   43.1640 C   0  0  0  0  0  0  0  0  0  0  0  0
   37.6710   28.6130   43.6800 C   0  0  0  0  0  0  0  0  0  0  0  0
   38.2890   29.3480   42.5220 C   0  0  0  0  0  0  0  0  0  0  0  0
   38.7030   28.4420   41.4050 C   0  0  2  0  0  0  0  0  0  0  0  0
   36.0350   28.9310   41.5760 H   0  0  0  0  0  0  0  0  0  0  0  0
   35.5780   27.1530   41.4320 H   0  0  0  0  0  0  0  0  0  0  0  0
   36.9800   26.5630   43.2960 H   0  0  0  0  0  0  0  0  0  0  0  0
   35.6970   27.7720   43.6920 H   0  0  0  0  0  0  0  0  0  0  0  0
   37.1690   29.3500   44.3450 H   0  0  0  0  0  0  0  0  0  0  0  0
   38.4440   28.1080   44.2950 H   0  0  0  0  0  0  0  0  0  0  0  0
   37.6280   30.1630   42.1970 H   0  0  0  0  0  0  0  0  0  0  0  0
   39.2280   29.8190   42.9310 H   0  0  0  0  0  0  0  0  0  0  0  0
   39.3360   27.6600   41.9190 H   0  0  0  0  0  0  0  0  0  0  0  0
   36.1150   25.3690   38.8610 C   0  0  0  0  0  0  0  0  0  0  0  0
   37.2640   25.5970   39.6680 C   0  0  0  0  0  0  0  0  0  0  0  0
   37.8190   24.5380   40.3620 C   0  0  0  0  0  0  0  0  0  0  0  0
   37.2420   23.3240   40.2460 N   0  0  0  0  0  0  0  0  0  0  0  0
   36.1480   23.0930   39.4820 C   0  0  0  0  0  0  0  0  0  0  0  0
   35.6050   24.1240   38.8030 N   0  0  0  0  0  0  0  0  0  0  0  0
   35.6880   26.2100   38.3190 H   0  0  0  0  0  0  0  0  0  0  0  0
   35.7200   22.1150   39.4150 H   0  0  0  0  0  0  0  0  0  0  0  0
   38.9930   24.7950   41.1830 C   0  0  0  0  0  0  0  0  0  0  0  0
   38.8950   24.7910   42.5340 C   0  0  0  0  0  0  0  0  0  0  0  0
   40.0260   25.0350   43.2890 C   0  0  0  0  0  0  0  0  0  0  0  0
   41.2760   25.2870   42.7090 C   0  0  0  0  0  0  0  0  0  0  0  0
   41.3150   25.2770   41.3160 C   0  0  0  0  0  0  0  0  0  0  0  0
   40.1960   25.0360   40.6190 N   0  0  0  0  0  0  0  0  0  0  0  0
   38.0000   24.6120   43.0840 H   0  0  0  0  0  0  0  0  0  0  0  0
   40.0210   25.0470   44.3680 H   0  0  0  0  0  0  0  0  0  0  0  0
   42.1700   25.4790   43.2570 H   0  0  0  0  0  0  0  0  0  0  0  0
   42.2460   25.4640   40.8000 H   0  0  0  0  0  0  0  0  0  0  0  0
   39.4600   29.2150   40.3880 C   0  0  0  0  0  0  0  0  0  0  0  0
   40.5630   29.1810   40.4540 H   0  0  0  0  0  0  0  0  0  0  0  0
   39.2550   28.7930   39.3860 H   0  0  0  0  0  0  0  0  0  0  0  0
   39.0190   30.5780   40.2280 N   0  0  0  0  0  0  0  0  0  0  0  0
   39.8670   31.6310   40.4570 C   0  0  0  0  0  3  0  0  0  0  0  0
   40.9200   31.3670   40.1620 H   0  0  0  0  0  0  0  0  0  0  0  0
   39.5140   32.7630   39.5030 C   0  0  0  0  0  3  0  0  0  0  0  0
   40.3040   33.5510   39.5540 H   0  0  0  0  0  0  0  0  0  0  0  0
   39.4390   32.3560   38.1330 N   0  0  0  0  0  0  0  0  0  0  0  0
   40.3380   32.1600   37.6670 H   0  0  0  0  0  0  0  0  0  0  0  0
   38.5090   31.2600   37.9380 C   0  0  0  0  0  2  0  0  0  0  0  0
   37.9830   30.7390   39.2580 C   0  0  0  0  0  2  0  0  0  0  0  0
  1  3  1  0  0  0  0
  2  1  2  0  0  0  0
  3  8  1  0  0  0  0
  3  4  1  0  0  0  0
  4  5  1  0  0  0  0
  5 11  1  0  0  0  0
  5  6  1  0  0  0  0
  5 12  1  0  0  0  0
  6 14  1  0  0  0  0
  6 13  1  0  0  0  0
  7 16  1  0  0  0  0
  7  6  1  0  0  0  0
  8 17  1  1  0  0  0
  8  7  1  0  0  0  0
  9  4  1  0  0  0  0
 10  4  1  0  0  0  0
 15  7  1  0  0  0  0
 18 19  1  0  0  0  0
 19  1  1  0  0  0  0
 19 20  2  0  0  0  0
 20 26  1  0  0  0  0
 21 20  1  0  0  0  0
 22 21  2  0  0  0  0
 23 18  2  0  0  0  0
 23 22  1  0  0  0  0
 24 18  1  0  0  0  0
 25 22  1  0  0  0  0
 26 27  1  0  0  0  0
 27 32  1  0  0  0  0
 27 28  2  0  0  0  0
 28 33  1  0  0  0  0
 29 34  1  0  0  0  0
 29 28  1  0  0  0  0
 30 29  2  0  0  0  0
 31 26  2  0  0  0  0
 31 30  1  0  0  0  0
 35 30  1  0  0  0  0
 36 37  1  0  0  0  0
 36  8  1  0  0  0  0
 38 36  1  0  0  0  0
 39 36  1  0  0  0  0
 39 40  1  0  0  0  0
 41 40  1  0  0  0  0
 42 43  1  0  0  0  0
 42 40  1  0  0  0  0
 44 42  1  0  0  0  0
 45 44  1  0  0  0  0
 46 44  1  0  0  0  0
 46 47  1  0  0  0  0
 47 39  1  0  0  0  0
M  END
>  <minimizedAffinity>
-5.68048716

$$$$

 OpenBabel03252507233D

 47 50  0  0  1  0  0  0  0  0999 V2000
   38.4860   28.4590   39.2530 C   0  0  0  0  0  0  0  0  0  0  0  0
   39.2850   28.0750   38.3610 O   0  0  0  0  0  0  0  0  0  0  0  0
   37.8590   29.7290   39.2550 N   0  0  0  0  0  0  0  0  0  0  0  0
   36.4650   30.1070   39.5300 C   0  0  0  0  0  0  0  0  0  0  0  0
   36.4240   31.2170   40.5630 C   0  0  0  0  0  0  0  0  0  0  0  0
   37.0820   32.4510   40.0350 C   0  0  0  0  0  0  0  0  0  0  0  0
   37.8540   32.1080   38.7900 C   0  0  0  0  0  0  0  0  0  0  0  0
   38.6780   30.8680   38.9330 C   0  0  2  0  0  0  0  0  0  0  0  0
   36.0140   30.4590   38.5860 H   0  0  0  0  0  0  0  0  0  0  0  0
   35.8930   29.2650   39.9830 H   0  0  0  0  0  0  0  0  0  0  0  0
   36.8420   30.8510   41.5220 H   0  0  0  0  0  0  0  0  0  0  0  0
   35.3290   31.4200   40.7170 H   0  0  0  0  0  0  0  0  0  0  0  0
   36.3170   33.2180   39.7810 H   0  0  0  0  0  0  0  0  0  0  0  0
   37.7400   32.9030   40.8050 H   0  0  0  0  0  0  0  0  0  0  0  0
   37.1810   32.0840   37.9230 H   0  0  0  0  0  0  0  0  0  0  0  0
   38.5710   32.9650   38.6350 H   0  0  0  0  0  0  0  0  0  0  0  0
   39.2720   31.0510   39.8770 H   0  0  0  0  0  0  0  0  0  0  0  0
   37.3340   26.4510   40.0590 C   0  0  0  0  0  0  0  0  0  0  0  0
   38.1980   27.5490   40.3260 C   0  0  0  0  0  0  0  0  0  0  0  0
   38.7240   27.6970   41.5950 C   0  0  0  0  0  0  0  0  0  0  0  0
   38.3940   26.7890   42.5360 N   0  0  0  0  0  0  0  0  0  0  0  0
   37.5730   25.7390   42.2960 C   0  0  0  0  0  0  0  0  0  0  0  0
   37.0580   25.5910   41.0580 N   0  0  0  0  0  0  0  0  0  0  0  0
   36.9280   26.3440   39.0560 H   0  0  0  0  0  0  0  0  0  0  0  0
   37.3340   25.0380   43.0690 H   0  0  0  0  0  0  0  0  0  0  0  0
   39.6040   28.8300   41.8460 C   0  0  0  0  0  0  0  0  0  0  0  0
   39.1540   29.9020   42.5410 C   0  0  0  0  0  0  0  0  0  0  0  0
   40.0110   30.9620   42.7660 C   0  0  0  0  0  0  0  0  0  0  0  0
   41.3330   30.9710   42.3040 C   0  0  0  0  0  0  0  0  0  0  0  0
   41.7390   29.8410   41.5960 C   0  0  0  0  0  0  0  0  0  0  0  0
   40.8780   28.8330   41.3980 N   0  0  0  0  0  0  0  0  0  0  0  0
   38.1720   30.0070   42.9410 H   0  0  0  0  0  0  0  0  0  0  0  0
   39.7200   31.8470   43.3110 H   0  0  0  0  0  0  0  0  0  0  0  0
   42.0230   31.7680   42.4580 H   0  0  0  0  0  0  0  0  0  0  0  0
   42.7450   29.7780   41.2090 H   0  0  0  0  0  0  0  0  0  0  0  0
   39.5410   30.6990   37.7360 C   0  0  0  0  0  0  0  0  0  0  0  0
   39.4750   29.7310   37.2060 H   0  0  0  0  0  0  0  0  0  0  0  0
   39.2360   31.4300   36.9640 H   0  0  0  0  0  0  0  0  0  0  0  0
   40.9230   31.0520   37.9460 N   0  0  0  0  0  0  0  0  0  0  0  0
   41.8800   30.7630   37.0070 C   0  0  0  0  0  3  0  0  0  0  0  0
   41.4570   30.8380   35.9680 H   0  0  0  0  0  0  0  0  0  0  0  0
   42.9360   31.8590   37.0290 C   0  0  0  0  0  3  0  0  0  0  0  0
   43.6210   31.7320   36.1560 H   0  0  0  0  0  0  0  0  0  0  0  0
   42.3950   33.1800   36.9290 N   0  0  0  0  0  0  0  0  0  0  0  0
   42.0390   33.4560   36.0010 H   0  0  0  0  0  0  0  0  0  0  0  0
   41.4090   33.4460   37.9590 C   0  0  0  0  0  2  0  0  0  0  0  0
   41.1050   32.2050   38.7690 C   0  0  0  0  0  2  0  0  0  0  0  0
  1  3  1  0  0  0  0
  1 19  1  0  0  0  0
  2  1  2  0  0  0  0
  3  4  1  0  0  0  0
  4 10  1  0  0  0  0
  4  5  1  0  0  0  0
  5 12  1  0  0  0  0
  5 11  1  0  0  0  0
  6  5  1  0  0  0  0
  6 14  1  0  0  0  0
  7  8  1  0  0  0  0
  7  6  1  0  0  0  0
  8  3  1  0  0  0  0
  8 17  1  1  0  0  0
  9  4  1  0  0  0  0
 13  6  1  0  0  0  0
 15  7  1  0  0  0  0
 16  7  1  0  0  0  0
 18 19  2  0  0  0  0
 18 23  1  0  0  0  0
 19 20  1  0  0  0  0
 20 26  1  0  0  0  0
 20 21  2  0  0  0  0
 22 21  1  0  0  0  0
 22 25  1  0  0  0  0
 23 22  2  0  0  0  0
 24 18  1  0  0  0  0
 26 27  1  0  0  0  0
 27 28  2  0  0  0  0
 27 32  1  0  0  0  0
 28 33  1  0  0  0  0
 29 34  1  0  0  0  0
 29 28  1  0  0  0  0
 30 29  2  0  0  0  0
 31 30  1  0  0  0  0
 31 26  2  0  0  0  0
 35 30  1  0  0  0  0
 36 39  1  0  0  0  0
 36  8  1  0  0  0  0
 37 36  1  0  0  0  0
 38 36  1  0  0  0  0
 39 47  1  0  0  0  0
 40 42  1  0  0  0  0
 40 39  1  0  0  0  0
 41 40  1  0  0  0  0
 43 42  1  0  0  0  0
 44 42  1  0  0  0  0
 44 46  1  0  0  0  0
 45 44  1  0  0  0  0
 46 47  1  0  0  0  0
M  END
>  <minimizedAffinity>
-5.60677958

$$$$

 OpenBabel03252507233D

 47 50  0  0  1  0  0  0  0  0999 V2000
   39.4300   27.8330   41.0730 C   0  0  0  0  0  0  0  0  0  0  0  0
   39.6190   28.6990   41.9670 O   0  0  0  0  0  0  0  0  0  0  0  0
   39.7860   28.0140   39.7140 N   0  0  0  0  0  0  0  0  0  0  0  0
   40.4510   27.1030   38.7710 C   0  0  0  0  0  0  0  0  0  0  0  0
   39.6450   27.0060   37.4900 C   0  0  0  0  0  0  0  0  0  0  0  0
   39.5910   28.3320   36.8030 C   0  0  0  0  0  0  0  0  0  0  0  0
   40.0680   29.4020   37.7470 C   0  0  0  0  0  0  0  0  0  0  0  0
   39.4740   29.2840   39.1150 C   0  0  2  0  0  0  0  0  0  0  0  0
   41.4530   27.5100   38.5530 H   0  0  0  0  0  0  0  0  0  0  0  0
   40.4950   26.0630   39.1680 H   0  0  0  0  0  0  0  0  0  0  0  0
   38.6530   26.5620   37.7040 H   0  0  0  0  0  0  0  0  0  0  0  0
   40.2190   26.2810   36.8490 H   0  0  0  0  0  0  0  0  0  0  0  0
   40.2490   28.3290   35.9050 H   0  0  0  0  0  0  0  0  0  0  0  0
   38.5640   28.5430   36.4410 H   0  0  0  0  0  0  0  0  0  0  0  0
   41.1650   29.4380   37.7530 H   0  0  0  0  0  0  0  0  0  0  0  0
   39.7010   30.3740   37.3100 H   0  0  0  0  0  0  0  0  0  0  0  0
   38.3620   29.2250   38.9180 H   0  0  0  0  0  0  0  0  0  0  0  0
   39.6250   25.6300   42.1300 C   0  0  0  0  0  0  0  0  0  0  0  0
   38.8180   26.5950   41.4650 C   0  0  0  0  0  0  0  0  0  0  0  0
   37.4880   26.3070   41.2250 C   0  0  0  0  0  0  0  0  0  0  0  0
   37.0070   25.1150   41.6320 N   0  0  0  0  0  0  0  0  0  0  0  0
   37.7630   24.1880   42.2650 C   0  0  0  0  0  0  0  0  0  0  0  0
   39.0620   24.4650   42.5020 N   0  0  0  0  0  0  0  0  0  0  0  0
   40.6700   25.8680   42.3150 H   0  0  0  0  0  0  0  0  0  0  0  0
   37.3450   23.2520   42.5740 H   0  0  0  0  0  0  0  0  0  0  0  0
   36.6810   27.3090   40.5420 C   0  0  0  0  0  0  0  0  0  0  0  0
   36.1230   28.3260   41.2390 C   0  0  0  0  0  0  0  0  0  0  0  0
   35.3640   29.2630   40.5640 C   0  0  0  0  0  0  0  0  0  0  0  0
   35.1500   29.2020   39.1810 C   0  0  0  0  0  0  0  0  0  0  0  0
   35.7500   28.1330   38.5180 C   0  0  0  0  0  0  0  0  0  0  0  0
   36.4790   27.2440   39.2080 N   0  0  0  0  0  0  0  0  0  0  0  0
   36.2160   28.4760   42.2890 H   0  0  0  0  0  0  0  0  0  0  0  0
   34.8900   30.1000   41.0550 H   0  0  0  0  0  0  0  0  0  0  0  0
   34.5720   29.9050   38.6260 H   0  0  0  0  0  0  0  0  0  0  0  0
   35.6280   28.0210   37.4500 H   0  0  0  0  0  0  0  0  0  0  0  0
   39.8490   30.4680   39.9280 C   0  0  0  0  0  0  0  0  0  0  0  0
   39.8250   30.3480   41.0270 H   0  0  0  0  0  0  0  0  0  0  0  0
   40.9060   30.7260   39.7260 H   0  0  0  0  0  0  0  0  0  0  0  0
   39.1740   31.6860   39.5520 N   0  0  0  0  0  0  0  0  0  0  0  0
   37.8830   31.9320   39.9440 C   0  0  0  0  0  3  0  0  0  0  0  0
   37.6850   31.4990   40.9630 H   0  0  0  0  0  0  0  0  0  0  0  0
   37.7140   33.4290   40.1660 C   0  0  0  0  0  3  0  0  0  0  0  0
   36.7280   33.6220   40.6530 H   0  0  0  0  0  0  0  0  0  0  0  0
   38.7070   33.9970   41.0250 N   0  0  0  0  0  0  0  0  0  0  0  0
   38.6210   33.7750   42.0280 H   0  0  0  0  0  0  0  0  0  0  0  0
   40.0540   33.7330   40.5530 C   0  0  0  0  0  2  0  0  0  0  0  0
   40.0510   32.7970   39.3640 C   0  0  0  0  0  2  0  0  0  0  0  0
  1 19  1  0  0  0  0
  1  2  2  0  0  0  0
  3  1  1  0  0  0  0
  4 10  1  0  0  0  0
  4  3  1  0  0  0  0
  5 11  1  0  0  0  0
  5  4  1  0  0  0  0
  6  5  1  0  0  0  0
  6  7  1  0  0  0  0
  7 15  1  0  0  0  0
  7  8  1  0  0  0  0
  8 17  1  6  0  0  0
  8  3  1  0  0  0  0
  8 36  1  0  0  0  0
  9  4  1  0  0  0  0
 12  5  1  0  0  0  0
 13  6  1  0  0  0  0
 14  6  1  0  0  0  0
 16  7  1  0  0  0  0
 18 24  1  0  0  0  0
 18 23  1  0  0  0  0
 19 18  2  0  0  0  0
 20 19  1  0  0  0  0
 20 21  2  0  0  0  0
 21 22  1  0  0  0  0
 22 23  2  0  0  0  0
 22 25  1  0  0  0  0
 26 20  1  0  0  0  0
 26 27  1  0  0  0  0
 27 32  1  0  0  0  0
 28 33  1  0  0  0  0
 28 27  2  0  0  0  0
 29 28  1  0  0  0  0
 30 29  2  0  0  0  0
 30 31  1  0  0  0  0
 31 26  2  0  0  0  0
 34 29  1  0  0  0  0
 35 30  1  0  0  0  0
 36 37  1  0  0  0  0
 38 36  1  0  0  0  0
 39 36  1  0  0  0  0
 39 40  1  0  0  0  0
 40 42  1  0  0  0  0
 40 41  1  0  0  0  0
 42 43  1  0  0  0  0
 42 44  1  0  0  0  0
 44 45  1  0  0  0  0
 46 44  1  0  0  0  0
 47 39  1  0  0  0  0
 47 46  1  0  0  0  0
M  END
>  <minimizedAffinity>
-5.54222012

$$$$

 OpenBabel03252507233D

 47 50  0  0  1  0  0  0  0  0999 V2000
   39.5370   29.5630   40.2980 C   0  0  0  0  0  0  0  0  0  0  0  0
   40.3710   28.6490   40.5280 O   0  0  0  0  0  0  0  0  0  0  0  0
   38.1680   29.4890   40.6550 N   0  0  0  0  0  0  0  0  0  0  0  0
   37.2870   30.4880   41.2770 C   0  0  0  0  0  0  0  0  0  0  0  0
   36.0160   30.6350   40.4620 C   0  0  0  0  0  0  0  0  0  0  0  0
   35.2430   29.3550   40.4620 C   0  0  0  0  0  0  0  0  0  0  0  0
   36.1130   28.2480   40.9880 C   0  0  0  0  0  0  0  0  0  0  0  0
   37.4870   28.2490   40.3960 C   0  0  2  0  0  0  0  0  0  0  0  0
   37.0400   30.1410   42.2940 H   0  0  0  0  0  0  0  0  0  0  0  0
   37.7510   31.5010   41.2770 H   0  0  0  0  0  0  0  0  0  0  0  0
   36.2610   31.0200   39.4520 H   0  0  0  0  0  0  0  0  0  0  0  0
   35.4230   31.4240   41.0010 H   0  0  0  0  0  0  0  0  0  0  0  0
   34.3460   29.4470   41.1150 H   0  0  0  0  0  0  0  0  0  0  0  0
   34.8690   29.1250   39.4430 H   0  0  0  0  0  0  0  0  0  0  0  0
   36.1140   28.2590   42.0860 H   0  0  0  0  0  0  0  0  0  0  0  0
   35.6130   27.2910   40.6630 H   0  0  0  0  0  0  0  0  0  0  0  0
   37.2950   28.2720   39.2820 H   0  0  0  0  0  0  0  0  0  0  0  0
   40.7830   31.6720   40.3900 C   0  0  0  0  0  0  0  0  0  0  0  0
   40.0110   30.7450   39.6350 C   0  0  0  0  0  0  0  0  0  0  0  0
   39.7500   31.0140   38.3050 C   0  0  0  0  0  0  0  0  0  0  0  0
   40.2400   32.1530   37.7730 N   0  0  0  0  0  0  0  0  0  0  0  0
   40.9750   33.0440   38.4790 C   0  0  0  0  0  0  0  0  0  0  0  0
   41.2320   32.7840   39.7780 N   0  0  0  0  0  0  0  0  0  0  0  0
   40.9820   31.4500   41.4350 H   0  0  0  0  0  0  0  0  0  0  0  0
   41.3470   33.9370   38.0220 H   0  0  0  0  0  0  0  0  0  0  0  0
   38.9570   30.0520   37.5520 C   0  0  0  0  0  0  0  0  0  0  0  0
   37.6710   30.3320   37.2310 C   0  0  0  0  0  0  0  0  0  0  0  0
   36.9430   29.4020   36.5140 C   0  0  0  0  0  0  0  0  0  0  0  0
   37.4840   28.1760   36.1050 C   0  0  0  0  0  0  0  0  0  0  0  0
   38.8100   27.9450   36.4650 C   0  0  0  0  0  0  0  0  0  0  0  0
   39.4840   28.8720   37.1610 N   0  0  0  0  0  0  0  0  0  0  0  0
   37.1550   31.2280   37.4860 H   0  0  0  0  0  0  0  0  0  0  0  0
   35.9150   29.5580   36.2240 H   0  0  0  0  0  0  0  0  0  0  0  0
   36.9540   27.4350   35.5530 H   0  0  0  0  0  0  0  0  0  0  0  0
   39.2940   27.0210   36.1840 H   0  0  0  0  0  0  0  0  0  0  0  0
   38.2190   27.0310   40.8260 C   0  0  0  0  0  0  0  0  0  0  0  0
   39.1600   26.7990   40.2930 H   0  0  0  0  0  0  0  0  0  0  0  0
   38.5480   27.1570   41.8740 H   0  0  0  0  0  0  0  0  0  0  0  0
   37.4000   25.8460   40.9160 N   0  0  0  0  0  0  0  0  0  0  0  0
   37.2310   25.0160   39.8370 C   0  0  0  0  0  3  0  0  0  0  0  0
   38.1640   24.9800   39.2100 H   0  0  0  0  0  0  0  0  0  0  0  0
   37.0940   23.5850   40.3360 C   0  0  0  0  0  3  0  0  0  0  0  0
   37.1350   22.8840   39.4670 H   0  0  0  0  0  0  0  0  0  0  0  0
   38.1410   23.1840   41.2260 N   0  0  0  0  0  0  0  0  0  0  0  0
   39.0620   23.0130   40.7960 H   0  0  0  0  0  0  0  0  0  0  0  0
   38.2610   24.0770   42.3630 C   0  0  0  0  0  2  0  0  0  0  0  0
   37.3510   25.2780   42.2250 C   0  0  0  0  0  2  0  0  0  0  0  0
  1  2  2  0  0  0  0
  1  3  1  0  0  0  0
  3  4  1  0  0  0  0
  4  9  1  0  0  0  0
  5  6  1  0  0  0  0
  5 12  1  0  0  0  0
  5  4  1  0  0  0  0
  6  7  1  0  0  0  0
  6 13  1  0  0  0  0
  7 15  1  0  0  0  0
  8 17  1  6  0  0  0
  8  3  1  0  0  0  0
  8 36  1  0  0  0  0
  8  7  1  0  0  0  0
 10  4  1  0  0  0  0
 11  5  1  0  0  0  0
 14  6  1  0  0  0  0
 16  7  1  0  0  0  0
 18 24  1  0  0  0  0
 19  1  1  0  0  0  0
 19 18  2  0  0  0  0
 20 19  1  0  0  0  0
 21 20  2  0  0  0  0
 21 22  1  0  0  0  0
 22 23  2  0  0  0  0
 23 18  1  0  0  0  0
 25 22  1  0  0  0  0
 26 20  1  0  0  0  0
 27 32  1  0  0  0  0
 27 26  1  0  0  0  0
 28 27  2  0  0  0  0
 29 30  2  0  0  0  0
 29 28  1  0  0  0  0
 30 31  1  0  0  0  0
 31 26  2  0  0  0  0
 33 28  1  0  0  0  0
 34 29  1  0  0  0  0
 35 30  1  0  0  0  0
 36 39  1  0  0  0  0
 36 38  1  0  0  0  0
 37 36  1  0  0  0  0
 39 47  1  0  0  0  0
 40 42  1  0  0  0  0
 40 39  1  0  0  0  0
 41 40  1  0  0  0  0
 42 44  1  0  0  0  0
 43 42  1  0  0  0  0
 44 46  1  0  0  0  0
 45 44  1  0  0  0  0
 47 46  1  0  0  0  0
M  END
>  <minimizedAffinity>
-5.50115538

$$$$

 OpenBabel03252507233D

 47 50  0  0  1  0  0  0  0  0999 V2000
   37.7640   27.7590   39.4360 C   0  0  0  0  0  0  0  0  0  0  0  0
   38.2500   28.4980   38.5420 O   0  0  0  0  0  0  0  0  0  0  0  0
   37.4920   28.1940   40.7560 N   0  0  0  0  0  0  0  0  0  0  0  0
   36.3200   27.9690   41.6160 C   0  0  0  0  0  0  0  0  0  0  0  0
   36.7640   27.4450   42.9680 C   0  0  0  0  0  0  0  0  0  0  0  0
   37.5970   28.4630   43.6770 C   0  0  0  0  0  0  0  0  0  0  0  0
   37.9990   29.5400   42.7080 C   0  0  0  0  0  0  0  0  0  0  0  0
   38.4940   29.0000   41.4030 C   0  0  2  0  0  0  0  0  0  0  0  0
   35.7980   28.9320   41.7410 H   0  0  0  0  0  0  0  0  0  0  0  0
   35.6540   27.1780   41.2010 H   0  0  0  0  0  0  0  0  0  0  0  0
   37.2550   26.4590   42.8450 H   0  0  0  0  0  0  0  0  0  0  0  0
   35.8080   27.2880   43.5390 H   0  0  0  0  0  0  0  0  0  0  0  0
   37.0170   28.9270   44.5060 H   0  0  0  0  0  0  0  0  0  0  0  0
   38.4850   27.9870   44.1420 H   0  0  0  0  0  0  0  0  0  0  0  0
   37.1860   30.2690   42.5950 H   0  0  0  0  0  0  0  0  0  0  0  0
   38.8650   30.0750   43.1930 H   0  0  0  0  0  0  0  0  0  0  0  0
   39.2870   28.2550   41.7070 H   0  0  0  0  0  0  0  0  0  0  0  0
   38.2790   25.3720   39.6500 C   0  0  0  0  0  0  0  0  0  0  0  0
   37.4700   26.3970   39.0870 C   0  0  0  0  0  0  0  0  0  0  0  0
   36.4390   26.0490   38.2350 C   0  0  0  0  0  0  0  0  0  0  0  0
   36.2430   24.7410   37.9680 N   0  0  0  0  0  0  0  0  0  0  0  0
   37.0060   23.7550   38.4960 C   0  0  0  0  0  0  0  0  0  0  0  0
   38.0120   24.0920   39.3290 N   0  0  0  0  0  0  0  0  0  0  0  0
   39.0860   25.6590   40.3200 H   0  0  0  0  0  0  0  0  0  0  0  0
   36.8190   22.7280   38.2610 H   0  0  0  0  0  0  0  0  0  0  0  0
   35.6250   27.1150   37.6690 C   0  0  0  0  0  0  0  0  0  0  0  0
   35.7850   27.4810   36.3750 C   0  0  0  0  0  0  0  0  0  0  0  0
   34.9980   28.4950   35.8640 C   0  0  0  0  0  0  0  0  0  0  0  0
   34.0350   29.1600   36.6340 C   0  0  0  0  0  0  0  0  0  0  0  0
   33.9160   28.7390   37.9570 C   0  0  0  0  0  0  0  0  0  0  0  0
   34.6990   27.7530   38.4160 N   0  0  0  0  0  0  0  0  0  0  0  0
   36.4820   27.0490   35.6960 H   0  0  0  0  0  0  0  0  0  0  0  0
   35.0710   28.8380   34.8430 H   0  0  0  0  0  0  0  0  0  0  0  0
   33.4100   29.9450   36.2760 H   0  0  0  0  0  0  0  0  0  0  0  0
   33.1950   29.2070   38.6110 H   0  0  0  0  0  0  0  0  0  0  0  0
   39.0350   30.1080   40.5750 C   0  0  0  0  0  0  0  0  0  0  0  0
   40.1350   30.2130   40.5400 H   0  0  0  0  0  0  0  0  0  0  0  0
   38.7660   29.9340   39.5160 H   0  0  0  0  0  0  0  0  0  0  0  0
   38.4260   31.3900   40.8270 N   0  0  0  0  0  0  0  0  0  0  0  0
   39.1890   32.4980   41.1000 C   0  0  0  0  0  3  0  0  0  0  0  0
   40.1600   32.4640   40.5330 H   0  0  0  0  0  0  0  0  0  0  0  0
   38.4950   33.7250   40.5250 C   0  0  0  0  0  3  0  0  0  0  0  0
   39.1860   34.6010   40.5830 H   0  0  0  0  0  0  0  0  0  0  0  0
   38.1320   33.5870   39.1480 N   0  0  0  0  0  0  0  0  0  0  0  0
   38.9060   33.6280   38.4680 H   0  0  0  0  0  0  0  0  0  0  0  0
   37.3040   32.4190   38.9160 C   0  0  0  0  0  2  0  0  0  0  0  0
   37.1750   31.5740   40.1650 C   0  0  0  0  0  2  0  0  0  0  0  0
  1  3  1  0  0  0  0
  2  1  2  0  0  0  0
  3  8  1  0  0  0  0
  3  4  1  0  0  0  0
  4  9  1  0  0  0  0
  4  5  1  0  0  0  0
  5 12  1  0  0  0  0
  5  6  1  0  0  0  0
  6 14  1  0  0  0  0
  6 13  1  0  0  0  0
  7 16  1  0  0  0  0
  7  6  1  0  0  0  0
  8 17  1  1  0  0  0
  8  7  1  0  0  0  0
 10  4  1  0  0  0  0
 11  5  1  0  0  0  0
 15  7  1  0  0  0  0
 18 24  1  0  0  0  0
 19  1  1  0  0  0  0
 19 18  2  0  0  0  0
 20 19  1  0  0  0  0
 21 20  2  0  0  0  0
 21 22  1  0  0  0  0
 22 23  2  0  0  0  0
 23 18  1  0  0  0  0
 25 22  1  0  0  0  0
 26 20  1  0  0  0  0
 26 31  1  0  0  0  0
 27 26  2  0  0  0  0
 28 27  1  0  0  0  0
 28 29  2  0  0  0  0
 29 30  1  0  0  0  0
 30 31  2  0  0  0  0
 30 35  1  0  0  0  0
 32 27  1  0  0  0  0
 33 28  1  0  0  0  0
 34 29  1  0  0  0  0
 36 39  1  0  0  0  0
 36  8  1  0  0  0  0
 37 36  1  0  0  0  0
 38 36  1  0  0  0  0
 39 40  1  0  0  0  0
 41 40  1  0  0  0  0
 42 43  1  0  0  0  0
 42 40  1  0  0  0  0
 44 42  1  0  0  0  0
 45 44  1  0  0  0  0
 46 44  1  0  0  0  0
 46 47  1  0  0  0  0
 47 39  1  0  0  0  0
M  END
>  <minimizedAffinity>
-5.47855234

$$$$

 OpenBabel03252507233D

 47 50  0  0  1  0  0  0  0  0999 V2000
   39.1820   29.2580   39.8380 C   0  0  0  0  0  0  0  0  0  0  0  0
   39.4350   28.5190   38.8520 O   0  0  0  0  0  0  0  0  0  0  0  0
   39.1700   30.6740   39.7790 N   0  0  0  0  0  0  0  0  0  0  0  0
   38.2140   31.6460   40.3310 C   0  0  0  0  0  0  0  0  0  0  0  0
   38.9550   32.7010   41.1310 C   0  0  0  0  0  0  0  0  0  0  0  0
   39.8660   33.4870   40.2440 C   0  0  0  0  0  0  0  0  0  0  0  0
   40.0040   32.7820   38.9220 C   0  0  0  0  0  0  0  0  0  0  0  0
   40.2430   31.3120   39.0640 C   0  0  2  0  0  0  0  0  0  0  0  0
   37.6830   32.1190   39.4890 H   0  0  0  0  0  0  0  0  0  0  0  0
   37.5160   31.1680   41.0560 H   0  0  0  0  0  0  0  0  0  0  0  0
   39.4570   32.2300   41.9990 H   0  0  0  0  0  0  0  0  0  0  0  0
   38.1460   33.3780   41.5220 H   0  0  0  0  0  0  0  0  0  0  0  0
   39.4490   34.5030   40.0650 H   0  0  0  0  0  0  0  0  0  0  0  0
   40.8530   33.6320   40.7280 H   0  0  0  0  0  0  0  0  0  0  0  0
   39.1510   33.0230   38.2750 H   0  0  0  0  0  0  0  0  0  0  0  0
   40.9250   33.2220   38.4420 H   0  0  0  0  0  0  0  0  0  0  0  0
   41.1180   31.2520   39.7770 H   0  0  0  0  0  0  0  0  0  0  0  0
   39.9320   28.5220   42.0530 C   0  0  0  0  0  0  0  0  0  0  0  0
   38.8890   28.6200   41.0910 C   0  0  0  0  0  0  0  0  0  0  0  0
   37.6430   28.1050   41.3950 C   0  0  0  0  0  0  0  0  0  0  0  0
   37.4680   27.5230   42.6000 N   0  0  0  0  0  0  0  0  0  0  0  0
   38.4520   27.4220   43.5240 C   0  0  0  0  0  0  0  0  0  0  0  0
   39.6680   27.9260   43.2310 N   0  0  0  0  0  0  0  0  0  0  0  0
   40.9080   28.9330   41.8020 H   0  0  0  0  0  0  0  0  0  0  0  0
   38.2730   26.9540   44.4700 H   0  0  0  0  0  0  0  0  0  0  0  0
   36.5910   28.2140   40.3950 C   0  0  0  0  0  0  0  0  0  0  0  0
   35.6380   29.1690   40.5100 C   0  0  0  0  0  0  0  0  0  0  0  0
   34.6530   29.2520   39.5450 C   0  0  0  0  0  0  0  0  0  0  0  0
   34.6020   28.3830   38.4460 C   0  0  0  0  0  0  0  0  0  0  0  0
   35.6100   27.4230   38.3810 C   0  0  0  0  0  0  0  0  0  0  0  0
   36.5480   27.3750   39.3380 N   0  0  0  0  0  0  0  0  0  0  0  0
   35.5740   29.8820   41.2990 H   0  0  0  0  0  0  0  0  0  0  0  0
   33.8630   29.9860   39.5730 H   0  0  0  0  0  0  0  0  0  0  0  0
   33.8590   28.4160   37.6830 H   0  0  0  0  0  0  0  0  0  0  0  0
   35.6340   26.7190   37.5620 H   0  0  0  0  0  0  0  0  0  0  0  0
   40.5460   30.7240   37.7350 C   0  0  0  0  0  0  0  0  0  0  0  0
   39.8540   29.9450   37.3630 H   0  0  0  0  0  0  0  0  0  0  0  0
   40.4720   31.5140   36.9630 H   0  0  0  0  0  0  0  0  0  0  0  0
   41.9100   30.2850   37.5760 N   0  0  0  0  0  0  0  0  0  0  0  0
   42.3410   29.7120   36.4060 C   0  0  0  0  0  3  0  0  0  0  0  0
   41.8140   30.1650   35.5220 H   0  0  0  0  0  0  0  0  0  0  0  0
   43.7950   30.0980   36.1770 C   0  0  0  0  0  3  0  0  0  0  0  0
   44.1030   29.7890   35.1490 H   0  0  0  0  0  0  0  0  0  0  0  0
   44.0370   31.5060   36.2650 N   0  0  0  0  0  0  0  0  0  0  0  0
   43.6960   32.0750   35.4760 H   0  0  0  0  0  0  0  0  0  0  0  0
   43.5900   32.0580   37.5300 C   0  0  0  0  0  2  0  0  0  0  0  0
   42.8490   31.0280   38.3540 C   0  0  0  0  0  2  0  0  0  0  0  0
  1 19  1  0  0  0  0
  2  1  2  0  0  0  0
  3  1  1  0  0  0  0
  3  4  1  0  0  0  0
  4 10  1  0  0  0  0
  4  5  1  0  0  0  0
  5 12  1  0  0  0  0
  5 11  1  0  0  0  0
  6 14  1  0  0  0  0
  6  5  1  0  0  0  0
  7  8  1  0  0  0  0
  7  6  1  0  0  0  0
  8 17  1  1  0  0  0
  8  3  1  0  0  0  0
  9  4  1  0  0  0  0
 13  6  1  0  0  0  0
 15  7  1  0  0  0  0
 16  7  1  0  0  0  0
 18 23  1  0  0  0  0
 19 20  1  0  0  0  0
 19 18  2  0  0  0  0
 20 21  2  0  0  0  0
 21 22  1  0  0  0  0
 22 25  1  0  0  0  0
 23 22  2  0  0  0  0
 24 18  1  0  0  0  0
 26 27  1  0  0  0  0
 26 20  1  0  0  0  0
 27 32  1  0  0  0  0
 28 33  1  0  0  0  0
 28 27  2  0  0  0  0
 29 28  1  0  0  0  0
 30 29  2  0  0  0  0
 30 31  1  0  0  0  0
 31 26  2  0  0  0  0
 34 29  1  0  0  0  0
 35 30  1  0  0  0  0
 36  8  1  0  0  0  0
 37 36  1  0  0  0  0
 38 36  1  0  0  0  0
 39 36  1  0  0  0  0
 39 47  1  0  0  0  0
 40 39  1  0  0  0  0
 41 40  1  0  0  0  0
 42 44  1  0  0  0  0
 42 40  1  0  0  0  0
 43 42  1  0  0  0  0
 44 46  1  0  0  0  0
 45 44  1  0  0  0  0
 46 47  1  0  0  0  0
M  END
>  <minimizedAffinity>
-5.45285082

$$$$

 OpenBabel03252507233D

 47 50  0  0  1  0  0  0  0  0999 V2000
   39.2460   28.6590   39.8730 C   0  0  0  0  0  0  0  0  0  0  0  0
   40.0840   28.2410   39.0330 O   0  0  0  0  0  0  0  0  0  0  0  0
   38.3690   29.7460   39.6360 N   0  0  0  0  0  0  0  0  0  0  0  0
   36.9340   29.8960   39.9220 C   0  0  0  0  0  0  0  0  0  0  0  0
   36.6910   31.1880   40.6800 C   0  0  0  0  0  0  0  0  0  0  0  0
   37.0630   32.3670   39.8400 C   0  0  0  0  0  0  0  0  0  0  0  0
   37.8560   31.9000   38.6500 C   0  0  0  0  0  0  0  0  0  0  0  0
   38.9240   30.9150   39.0070 C   0  0  2  0  0  0  0  0  0  0  0  0
   36.3950   29.9210   38.9600 H   0  0  0  0  0  0  0  0  0  0  0  0
   36.5630   29.0890   40.5940 H   0  0  0  0  0  0  0  0  0  0  0  0
   37.2010   31.1470   41.6620 H   0  0  0  0  0  0  0  0  0  0  0  0
   35.5810   31.2020   40.8650 H   0  0  0  0  0  0  0  0  0  0  0  0
   36.1490   32.8870   39.4780 H   0  0  0  0  0  0  0  0  0  0  0  0
   37.6320   33.1080   40.4380 H   0  0  0  0  0  0  0  0  0  0  0  0
   37.1790   31.5410   37.8640 H   0  0  0  0  0  0  0  0  0  0  0  0
   38.3740   32.8200   38.2540 H   0  0  0  0  0  0  0  0  0  0  0  0
   39.4920   31.4280   39.8390 H   0  0  0  0  0  0  0  0  0  0  0  0
   39.7790   28.6240   42.2660 C   0  0  0  0  0  0  0  0  0  0  0  0
   39.1830   27.9890   41.1410 C   0  0  0  0  0  0  0  0  0  0  0  0
   38.5690   26.7620   41.3100 C   0  0  0  0  0  0  0  0  0  0  0  0
   38.5630   26.2130   42.5420 N   0  0  0  0  0  0  0  0  0  0  0  0
   39.1270   26.8060   43.6200 C   0  0  0  0  0  0  0  0  0  0  0  0
   39.7260   28.0040   43.4590 N   0  0  0  0  0  0  0  0  0  0  0  0
   40.2580   29.5900   42.1210 H   0  0  0  0  0  0  0  0  0  0  0  0
   39.1010   26.3390   44.5830 H   0  0  0  0  0  0  0  0  0  0  0  0
   37.9670   26.1290   40.1450 C   0  0  0  0  0  0  0  0  0  0  0  0
   36.6900   26.4150   39.7970 C   0  0  0  0  0  0  0  0  0  0  0  0
   36.1450   25.8010   38.6860 C   0  0  0  0  0  0  0  0  0  0  0  0
   36.8660   24.8920   37.9000 C   0  0  0  0  0  0  0  0  0  0  0  0
   38.1750   24.6390   38.3060 C   0  0  0  0  0  0  0  0  0  0  0  0
   38.6670   25.2540   39.3910 N   0  0  0  0  0  0  0  0  0  0  0  0
   36.0480   27.0870   40.3170 H   0  0  0  0  0  0  0  0  0  0  0  0
   35.1350   25.9810   38.3510 H   0  0  0  0  0  0  0  0  0  0  0  0
   36.4810   24.4000   37.0370 H   0  0  0  0  0  0  0  0  0  0  0  0
   38.7900   23.9480   37.7490 H   0  0  0  0  0  0  0  0  0  0  0  0
   39.7710   30.6420   37.8180 C   0  0  0  0  0  0  0  0  0  0  0  0
   39.7470   29.6140   37.4130 H   0  0  0  0  0  0  0  0  0  0  0  0
   39.4120   31.2550   36.9690 H   0  0  0  0  0  0  0  0  0  0  0  0
   41.1360   31.0890   37.9460 N   0  0  0  0  0  0  0  0  0  0  0  0
   42.0390   30.9130   36.9290 C   0  0  0  0  0  3  0  0  0  0  0  0
   41.5350   31.0000   35.9270 H   0  0  0  0  0  0  0  0  0  0  0  0
   43.0130   32.0830   36.9290 C   0  0  0  0  0  3  0  0  0  0  0  0
   43.6380   32.0450   36.0050 H   0  0  0  0  0  0  0  0  0  0  0  0
   42.3730   33.3630   36.9310 N   0  0  0  0  0  0  0  0  0  0  0  0
   41.9300   33.6500   36.0450 H   0  0  0  0  0  0  0  0  0  0  0  0
   41.4490   33.5100   38.0400 C   0  0  0  0  0  2  0  0  0  0  0  0
   41.2950   32.2160   38.8090 C   0  0  0  0  0  2  0  0  0  0  0  0
  1 19  1  0  0  0  0
  2  1  2  0  0  0  0
  3  1  1  0  0  0  0
  3  4  1  0  0  0  0
  4 10  1  0  0  0  0
  4  5  1  0  0  0  0
  5 12  1  0  0  0  0
  5 11  1  0  0  0  0
  6 14  1  0  0  0  0
  6  5  1  0  0  0  0
  7  8  1  0  0  0  0
  7  6  1  0  0  0  0
  8  3  1  0  0  0  0
  8 17  1  1  0  0  0
  9  4  1  0  0  0  0
 13  6  1  0  0  0  0
 15  7  1  0  0  0  0
 16  7  1  0  0  0  0
 18 23  1  0  0  0  0
 19 20  1  0  0  0  0
 19 18  2  0  0  0  0
 20 21  2  0  0  0  0
 21 22  1  0  0  0  0
 22 25  1  0  0  0  0
 23 22  2  0  0  0  0
 24 18  1  0  0  0  0
 26 20  1  0  0  0  0
 27 26  1  0  0  0  0
 27 32  1  0  0  0  0
 28 27  2  0  0  0  0
 29 30  2  0  0  0  0
 29 28  1  0  0  0  0
 30 31  1  0  0  0  0
 31 26  2  0  0  0  0
 33 28  1  0  0  0  0
 34 29  1  0  0  0  0
 35 30  1  0  0  0  0
 36 39  1  0  0  0  0
 36  8  1  0  0  0  0
 37 36  1  0  0  0  0
 38 36  1  0  0  0  0
 39 47  1  0  0  0  0
 40 42  1  0  0  0  0
 40 39  1  0  0  0  0
 41 40  1  0  0  0  0
 42 44  1  0  0  0  0
 43 42  1  0  0  0  0
 44 46  1  0  0  0  0
 45 44  1  0  0  0  0
 46 47  1  0  0  0  0
M  END
>  <minimizedAffinity>
-5.42477369

$$$$
