REMARK  Name = 
REMARK  2 active torsions:
REMARK  status: ('A' for Active; 'I' for Inactive)
REMARK    1  A    between atoms: C_2  and  C_14
REMARK    2  A    between atoms: C_9  and  N_23
REMARK                            x       y       z     vdW  Elec       q    Type
REMARK                         _______ _______ _______ _____ _____    ______ ____
ROOT
ATOM      1  C   UNL     1      47.234  31.362  45.089  0.00  0.00    +0.000 A 
ATOM      2  C   UNL     1      46.883  32.697  45.098  0.00  0.00    +0.000 A 
ATOM      3  C   UNL     1      46.275  33.304  46.181  0.00  0.00    +0.000 A 
ATOM      4  C   UNL     1      45.992  32.567  47.327  0.00  0.00    +0.000 A 
ATOM      5  N   UNL     1      45.425  32.815  48.537  0.00  0.00    +0.000 N 
ATOM      6  C   UNL     1      45.431  31.654  49.252  0.00  0.00    +0.000 A 
ATOM      7  N   UNL     1      46.002  30.705  48.472  0.00  0.00    +0.000 NA
ATOM      8  C   UNL     1      46.352  31.242  47.291  0.00  0.00    +0.000 A 
ATOM      9  C   UNL     1      46.957  30.608  46.232  0.00  0.00    +0.000 A 
ATOM     10  H   UNL     1      47.711  30.872  44.249  0.00  0.00    +0.000 HD
ATOM     11  H   UNL     1      46.008  34.346  46.170  0.00  0.00    +0.000 HD
ATOM     12  H   UNL     1      45.060  33.752  48.827  0.00  0.00    +0.000 HD
ATOM     13  H   UNL     1      45.034  31.550  50.274  0.00  0.00    +0.000 HD
ENDROOT
BRANCH   2  18
ATOM     14  C   UNL     1      46.531  35.214  42.432  0.00  0.00    +0.000 A 
ATOM     15  C   UNL     1      47.712  35.063  41.708  0.00  0.00    +0.000 A 
ATOM     16  C   UNL     1      48.630  34.093  42.137  0.00  0.00    +0.000 A 
ATOM     17  N   UNL     1      48.298  33.357  43.248  0.00  0.00    +0.000 NA
ATOM     18  C   UNL     1      47.153  33.523  43.929  0.00  0.00    +0.000 A 
ATOM     19  N   UNL     1      46.290  34.448  43.510  0.00  0.00    +0.000 NA
ATOM     20  H   UNL     1      45.876  35.962  42.060  0.00  0.00    +0.000 HD
ATOM     21  H   UNL     1      48.030  35.605  40.832  0.00  0.00    +0.000 HD
ATOM     22  H   UNL     1      49.587  33.863  41.675  0.00  0.00    +0.000 HD
ENDBRANCH   2  18
BRANCH   9  23
ATOM     23  N   UNL     1      47.308  29.229  46.253  0.00  0.00    +0.000 N 
ATOM     24  C   UNL     1      47.938  28.743  45.040  0.00  0.00    +0.000 C 
ATOM     25  H   UNL     1      47.292  28.950  44.164  0.00  0.00    +0.000 HD
ATOM     26  C   UNL     1      48.303  27.280  45.168  0.00  0.00    +0.000 C 
ATOM     27  H   UNL     1      49.275  27.195  45.657  0.00  0.00    +0.000 HD
ATOM     28  N   UNL     1      47.340  26.547  45.953  0.00  0.00    +0.000 NA
ATOM     29  H   UNL     1      46.480  26.279  45.460  0.00  0.00    +0.000 HD
ATOM     30  C   UNL     1      47.197  27.006  47.297  0.00  0.00    +0.000 C 
ATOM     31  C   UNL     1      47.003  28.480  47.457  0.00  0.00    +0.000 C 
ENDBRANCH   9  23
TORSDOF 2
