REMARK  Name = 
REMARK  3 active torsions:
REMARK  status: ('A' for Active; 'I' for Inactive)
REMARK    1  A    between atoms: C_1  and  C_9
REMARK    2  A    between atoms: C_2  and  C_13
REMARK    3  A    between atoms: C_13  and  N_23
REMARK                            x       y       z     vdW  Elec       q    Type
REMARK                         _______ _______ _______ _____ _____    ______ ____
ROOT
ATOM      1  C   UNL     1      46.607  34.414  41.448  0.00  0.00    +0.000 A 
ATOM      2  C   UNL     1      47.873  34.902  41.237  0.00  0.00    +0.000 A 
ATOM      3  C   UNL     1      48.532  34.662  40.047  0.00  0.00    +0.000 A 
ATOM      4  C   UNL     1      47.880  33.925  39.093  0.00  0.00    +0.000 A 
ATOM      5  C   UNL     1      46.612  33.417  39.259  0.00  0.00    +0.000 A 
ATOM      6  C   UNL     1      46.003  33.694  40.482  0.00  0.00    +0.000 A 
ATOM      7  H   UNL     1      49.530  35.054  39.897  0.00  0.00    +0.000 HD
ATOM      8  H   UNL     1      48.345  33.701  38.133  0.00  0.00    +0.000 HD
ATOM      9  H   UNL     1      46.032  32.840  38.583  0.00  0.00    +0.000 HD
ATOM     10  H   UNL     1      45.006  33.340  40.714  0.00  0.00    +0.000 HD
ENDROOT
BRANCH   1  13
ATOM     11  C   UNL     1      44.685  36.066  44.267  0.00  0.00    +0.000 A 
ATOM     12  C   UNL     1      45.236  35.848  42.990  0.00  0.00    +0.000 A 
ATOM     13  C   UNL     1      45.998  34.722  42.736  0.00  0.00    +0.000 A 
ATOM     14  N   UNL     1      46.171  33.874  43.767  0.00  0.00    +0.000 NA
ATOM     15  C   UNL     1      45.650  34.067  44.999  0.00  0.00    +0.000 A 
ATOM     16  N   UNL     1      44.907  35.164  45.246  0.00  0.00    +0.000 NA
ATOM     17  H   UNL     1      44.094  36.952  44.443  0.00  0.00    +0.000 HD
ATOM     18  H   UNL     1      45.086  36.532  42.192  0.00  0.00    +0.000 HD
ATOM     19  H   UNL     1      45.808  33.360  45.812  0.00  0.00    +0.000 HD
ENDBRANCH   1  13
BRANCH   2  20
ATOM     20  C   UNL     1      48.575  35.710  42.297  0.00  0.00    +0.000 C 
ATOM     21  H   UNL     1      47.872  36.424  42.782  0.00  0.00    +0.000 HD
ATOM     22  H   UNL     1      49.437  36.245  41.829  0.00  0.00    +0.000 HD
BRANCH  20  23
ATOM     23  N   UNL     1      49.022  34.805  43.302  0.00  0.00    +0.000 NA
ATOM     24  C   UNL     1      50.359  34.987  43.770  0.00  0.00    +0.000 C 
ATOM     25  H   UNL     1      50.568  35.940  44.268  0.00  0.00    +0.000 HD
ATOM     26  C   UNL     1      51.304  34.741  42.614  0.00  0.00    +0.000 C 
ATOM     27  H   UNL     1      51.461  35.722  42.119  0.00  0.00    +0.000 HD
ATOM     28  N   UNL     1      50.757  33.847  41.629  0.00  0.00    +0.000 NA
ATOM     29  H   UNL     1      51.570  33.281  41.248  0.00  0.00    +0.000 HD
ATOM     30  C   UNL     1      49.843  32.879  42.162  0.00  0.00    +0.000 C 
ATOM     31  C   UNL     1      48.785  33.420  43.067  0.00  0.00    +0.000 C 
ENDBRANCH  20  23
ENDBRANCH   2  20
TORSDOF 3
