
 OpenBabel03252502143D

 37 40  0  0  0  0  0  0  0  0999 V2000
   36.9800   25.5840   40.8510 Cl  0  0  0  0  0  0  0  0  0  0  0  0
   37.5670   27.0880   41.5180 C   0  0  0  0  0  0  0  0  0  0  0  0
   37.5510   28.2440   40.8100 C   0  0  0  0  0  0  0  0  0  0  0  0
   38.0360   29.3560   41.4390 C   0  0  0  0  0  0  0  0  0  0  0  0
   38.5210   29.3540   42.7070 C   0  0  0  0  0  0  0  0  0  0  0  0
   38.5360   28.1850   43.4200 C   0  0  0  0  0  0  0  0  0  0  0  0
   38.0550   27.0510   42.8140 C   0  0  0  0  0  0  0  0  0  0  0  0
   38.8870   30.2820   43.1310 H   0  0  0  0  0  0  0  0  0  0  0  0
   38.9250   28.2120   44.4190 H   0  0  0  0  0  0  0  0  0  0  0  0
   38.0830   26.1410   43.4080 H   0  0  0  0  0  0  0  0  0  0  0  0
   38.0280   30.6330   40.6850 C   0  0  0  0  0  0  0  0  0  0  0  0
   36.8730   31.4040   40.7370 C   0  0  0  0  0  0  0  0  0  0  0  0
   36.9920   32.5590   39.9990 C   0  0  0  0  0  0  0  0  0  0  0  0
   38.0600   32.9850   39.2770 C   0  0  0  0  0  0  0  0  0  0  0  0
   39.1600   32.1440   39.2910 C   0  0  0  0  0  0  0  0  0  0  0  0
   39.1050   31.0030   39.9910 N   0  0  0  0  0  0  0  0  0  0  0  0
   35.9930   31.1310   41.2870 H   0  0  0  0  0  0  0  0  0  0  0  0
   36.1040   33.2400   39.9870 H   0  0  0  0  0  0  0  0  0  0  0  0
   38.0590   33.9100   38.7280 H   0  0  0  0  0  0  0  0  0  0  0  0
   40.3290   32.5000   38.5640 N   0  0  0  0  0  0  0  0  0  0  0  0
   41.3840   33.2690   39.1530 C   0  0  0  0  0  3  0  0  0  0  0  0
   42.0310   32.6250   39.7770 H   0  0  0  0  0  0  0  0  0  0  0  0
   42.2500   33.8140   38.0410 C   0  0  0  0  0  3  0  0  0  0  0  0
   41.6830   34.5980   37.4960 H   0  0  0  0  0  0  0  0  0  0  0  0
   42.7530   32.8270   37.1390 N   0  0  0  0  0  0  0  0  0  0  0  0
   42.9290   33.2560   36.2010 H   0  0  0  0  0  0  0  0  0  0  0  0
   41.9180   31.6780   36.9530 C   0  0  0  0  0  2  0  0  0  0  0  0
   40.4800   32.0830   37.1840 C   0  0  0  0  0  2  0  0  0  0  0  0
   35.2130   28.3640   37.8380 C   0  0  0  0  0  0  0  0  0  0  0  0
   35.6930   28.3900   39.1460 C   0  0  0  0  0  0  0  0  0  0  0  0
   37.0260   28.2210   39.4560 C   0  0  0  0  0  0  0  0  0  0  0  0
   37.8550   28.0240   38.3880 N   0  0  0  0  0  0  0  0  0  0  0  0
   37.3990   27.9990   37.1270 C   0  0  0  0  0  0  0  0  0  0  0  0
   36.0950   28.1650   36.8360 N   0  0  0  0  0  0  0  0  0  0  0  0
   34.1520   28.5090   37.7270 H   0  0  0  0  0  0  0  0  0  0  0  0
   35.0280   28.5470   39.9920 H   0  0  0  0  0  0  0  0  0  0  0  0
   38.1270   27.8370   36.3540 H   0  0  0  0  0  0  0  0  0  0  0  0
  1  2  1  0  0  0  0
  2  7  1  0  0  0  0
  3  4  1  0  0  0  0
  3  2  2  0  0  0  0
  4  5  2  0  0  0  0
  5  8  1  0  0  0  0
  5  6  1  0  0  0  0
  6  9  1  0  0  0  0
  7 10  1  0  0  0  0
  7  6  2  0  0  0  0
 11 12  1  0  0  0  0
 11  4  1  0  0  0  0
 12 17  1  0  0  0  0
 13 12  2  0  0  0  0
 14 15  2  0  0  0  0
 14 13  1  0  0  0  0
 15 16  1  0  0  0  0
 16 11  2  0  0  0  0
 18 13  1  0  0  0  0
 19 14  1  0  0  0  0
 20 21  1  0  0  0  0
 20 15  1  0  0  0  0
 21 22  1  0  0  0  0
 23 21  1  0  0  0  0
 24 23  1  0  0  0  0
 25 23  1  0  0  0  0
 26 25  1  0  0  0  0
 27 25  1  0  0  0  0
 27 28  1  0  0  0  0
 28 20  1  0  0  0  0
 29 30  1  0  0  0  0
 30 31  2  0  0  0  0
 30 36  1  0  0  0  0
 31  3  1  0  0  0  0
 32 31  1  0  0  0  0
 33 32  2  0  0  0  0
 34 33  1  0  0  0  0
 34 29  2  0  0  0  0
 35 29  1  0  0  0  0
 37 33  1  0  0  0  0
M  END
>  <minimizedAffinity>
-6.05883121

$$$$

 OpenBabel03252502143D

 37 40  0  0  0  0  0  0  0  0999 V2000
   38.7260   24.1890   40.6870 Cl  0  0  0  0  0  0  0  0  0  0  0  0
   38.7610   25.6740   41.6060 C   0  0  0  0  0  0  0  0  0  0  0  0
   38.2950   26.8430   41.1030 C   0  0  0  0  0  0  0  0  0  0  0  0
   38.3750   27.9380   41.9170 C   0  0  0  0  0  0  0  0  0  0  0  0
   38.8880   27.9070   43.1740 C   0  0  0  0  0  0  0  0  0  0  0  0
   39.3590   26.7240   43.6800 C   0  0  0  0  0  0  0  0  0  0  0  0
   39.2910   25.6070   42.8840 C   0  0  0  0  0  0  0  0  0  0  0  0
   38.9140   28.8220   43.7530 H   0  0  0  0  0  0  0  0  0  0  0  0
   39.7580   26.7280   44.6750 H   0  0  0  0  0  0  0  0  0  0  0  0
   39.6730   24.6870   43.3170 H   0  0  0  0  0  0  0  0  0  0  0  0
   37.8710   29.2280   41.3890 C   0  0  0  0  0  0  0  0  0  0  0  0
   36.5330   29.5350   41.6090 C   0  0  0  0  0  0  0  0  0  0  0  0
   36.1900   30.7550   41.0720 C   0  0  0  0  0  0  0  0  0  0  0  0
   36.9840   31.6250   40.3960 C   0  0  0  0  0  0  0  0  0  0  0  0
   38.2990   31.2240   40.2310 C   0  0  0  0  0  0  0  0  0  0  0  0
   38.6940   30.0450   40.7310 N   0  0  0  0  0  0  0  0  0  0  0  0
   35.8490   28.8970   42.1340 H   0  0  0  0  0  0  0  0  0  0  0  0
   35.1280   31.0790   41.2050 H   0  0  0  0  0  0  0  0  0  0  0  0
   36.6230   32.5620   40.0110 H   0  0  0  0  0  0  0  0  0  0  0  0
   39.2110   32.0660   39.5350 N   0  0  0  0  0  0  0  0  0  0  0  0
   39.9940   33.0580   40.2090 C   0  0  0  0  0  3  0  0  0  0  0  0
   40.8720   32.5930   40.6940 H   0  0  0  0  0  0  0  0  0  0  0  0
   40.5220   34.0240   39.1760 C   0  0  0  0  0  3  0  0  0  0  0  0
   39.6790   34.6340   38.7890 H   0  0  0  0  0  0  0  0  0  0  0  0
   41.2460   33.4150   38.1040 N   0  0  0  0  0  0  0  0  0  0  0  0
   41.1820   34.0110   37.2460 H   0  0  0  0  0  0  0  0  0  0  0  0
   40.8330   32.0890   37.7560 C   0  0  0  0  0  2  0  0  0  0  0  0
   39.3690   31.9330   38.1010 C   0  0  0  0  0  2  0  0  0  0  0  0
   35.9330   26.5850   38.1590 C   0  0  0  0  0  0  0  0  0  0  0  0
   36.4330   26.5710   39.4600 C   0  0  0  0  0  0  0  0  0  0  0  0
   37.7500   26.8510   39.7570 C   0  0  0  0  0  0  0  0  0  0  0  0
   38.5420   27.1460   38.6830 N   0  0  0  0  0  0  0  0  0  0  0  0
   38.0660   27.1610   37.4290 C   0  0  0  0  0  0  0  0  0  0  0  0
   36.7790   26.8860   37.1510 N   0  0  0  0  0  0  0  0  0  0  0  0
   34.8870   26.3490   38.0580 H   0  0  0  0  0  0  0  0  0  0  0  0
   35.7970   26.3350   40.3090 H   0  0  0  0  0  0  0  0  0  0  0  0
   38.7660   27.4040   36.6510 H   0  0  0  0  0  0  0  0  0  0  0  0
  1  2  1  0  0  0  0
  2  7  1  0  0  0  0
  3  2  2  0  0  0  0
  3  4  1  0  0  0  0
  4  5  2  0  0  0  0
  5  6  1  0  0  0  0
  5  8  1  0  0  0  0
  6  9  1  0  0  0  0
  7 10  1  0  0  0  0
  7  6  2  0  0  0  0
 11 12  1  0  0  0  0
 11  4  1  0  0  0  0
 12 17  1  0  0  0  0
 13 18  1  0  0  0  0
 13 12  2  0  0  0  0
 14 13  1  0  0  0  0
 15 14  2  0  0  0  0
 15 16  1  0  0  0  0
 16 11  2  0  0  0  0
 19 14  1  0  0  0  0
 20 21  1  0  0  0  0
 20 15  1  0  0  0  0
 21 22  1  0  0  0  0
 23 21  1  0  0  0  0
 24 23  1  0  0  0  0
 25 23  1  0  0  0  0
 26 25  1  0  0  0  0
 27 28  1  0  0  0  0
 27 25  1  0  0  0  0
 28 20  1  0  0  0  0
 29 30  1  0  0  0  0
 30 31  2  0  0  0  0
 30 36  1  0  0  0  0
 31  3  1  0  0  0  0
 32 31  1  0  0  0  0
 33 32  2  0  0  0  0
 34 33  1  0  0  0  0
 34 29  2  0  0  0  0
 35 29  1  0  0  0  0
 37 33  1  0  0  0  0
M  END
>  <minimizedAffinity>
-5.89435959

$$$$

 OpenBabel03252502143D

 37 40  0  0  0  0  0  0  0  0999 V2000
   37.0480   24.1350   40.5940 Cl  0  0  0  0  0  0  0  0  0  0  0  0
   36.5880   25.5340   39.6560 C   0  0  0  0  0  0  0  0  0  0  0  0
   36.8970   26.7950   40.0460 C   0  0  0  0  0  0  0  0  0  0  0  0
   36.4840   27.8100   39.2280 C   0  0  0  0  0  0  0  0  0  0  0  0
   35.7960   27.6150   38.0750 C   0  0  0  0  0  0  0  0  0  0  0  0
   35.4850   26.3400   37.6830 C   0  0  0  0  0  0  0  0  0  0  0  0
   35.8870   25.3010   38.4840 C   0  0  0  0  0  0  0  0  0  0  0  0
   35.5070   28.4760   37.4840 H   0  0  0  0  0  0  0  0  0  0  0  0
   34.9410   26.2150   36.7670 H   0  0  0  0  0  0  0  0  0  0  0  0
   35.6240   24.3030   38.1440 H   0  0  0  0  0  0  0  0  0  0  0  0
   36.8100   29.1980   39.6340 C   0  0  0  0  0  0  0  0  0  0  0  0
   35.8540   29.8960   40.3610 C   0  0  0  0  0  0  0  0  0  0  0  0
   36.2750   31.1680   40.6760 C   0  0  0  0  0  0  0  0  0  0  0  0
   37.4560   31.7610   40.3630 C   0  0  0  0  0  0  0  0  0  0  0  0
   38.3380   30.9790   39.6370 C   0  0  0  0  0  0  0  0  0  0  0  0
   37.9860   29.7310   39.2990 N   0  0  0  0  0  0  0  0  0  0  0  0
   34.9010   29.4930   40.6440 H   0  0  0  0  0  0  0  0  0  0  0  0
   35.5630   31.8010   41.2630 H   0  0  0  0  0  0  0  0  0  0  0  0
   37.6970   32.7670   40.6550 H   0  0  0  0  0  0  0  0  0  0  0  0
   39.6040   31.5080   39.2590 N   0  0  0  0  0  0  0  0  0  0  0  0
   40.7620   31.3750   40.0910 C   0  0  0  0  0  3  0  0  0  0  0  0
   41.2060   30.3690   39.9770 H   0  0  0  0  0  0  0  0  0  0  0  0
   41.7980   32.3690   39.6220 C   0  0  0  0  0  3  0  0  0  0  0  0
   41.4560   33.3940   39.8810 H   0  0  0  0  0  0  0  0  0  0  0  0
   42.1280   32.2760   38.2350 N   0  0  0  0  0  0  0  0  0  0  0  0
   42.4560   33.2050   37.8820 H   0  0  0  0  0  0  0  0  0  0  0  0
   41.0730   31.8230   37.3780 C   0  0  0  0  0  2  0  0  0  0  0  0
   39.7490   32.2080   37.9980 C   0  0  0  0  0  2  0  0  0  0  0  0
   37.7670   27.3900   43.6790 C   0  0  0  0  0  0  0  0  0  0  0  0
   37.0380   27.2190   42.5040 C   0  0  0  0  0  0  0  0  0  0  0  0
   37.6340   26.9780   41.2840 C   0  0  0  0  0  0  0  0  0  0  0  0
   38.9990   26.9180   41.3020 N   0  0  0  0  0  0  0  0  0  0  0  0
   39.7060   27.0830   42.4300 C   0  0  0  0  0  0  0  0  0  0  0  0
   39.1130   27.3170   43.6150 N   0  0  0  0  0  0  0  0  0  0  0  0
   37.1850   27.5720   44.5670 H   0  0  0  0  0  0  0  0  0  0  0  0
   35.9520   27.2670   42.4980 H   0  0  0  0  0  0  0  0  0  0  0  0
   40.7740   27.0190   42.3430 H   0  0  0  0  0  0  0  0  0  0  0  0
  2  3  1  0  0  0  0
  2  1  1  0  0  0  0
  3 31  1  0  0  0  0
  4 11  1  0  0  0  0
  4  3  2  0  0  0  0
  5  4  1  0  0  0  0
  6  5  2  0  0  0  0
  6  7  1  0  0  0  0
  7  2  2  0  0  0  0
  8  5  1  0  0  0  0
  9  6  1  0  0  0  0
 10  7  1  0  0  0  0
 11 12  1  0  0  0  0
 12 17  1  0  0  0  0
 12 13  2  0  0  0  0
 13 18  1  0  0  0  0
 14 19  1  0  0  0  0
 14 13  1  0  0  0  0
 15 14  2  0  0  0  0
 16 11  2  0  0  0  0
 16 15  1  0  0  0  0
 20 15  1  0  0  0  0
 20 21  1  0  0  0  0
 22 21  1  0  0  0  0
 23 24  1  0  0  0  0
 23 21  1  0  0  0  0
 25 23  1  0  0  0  0
 26 25  1  0  0  0  0
 27 28  1  0  0  0  0
 27 25  1  0  0  0  0
 28 20  1  0  0  0  0
 29 35  1  0  0  0  0
 30 29  2  0  0  0  0
 31 32  2  0  0  0  0
 31 30  1  0  0  0  0
 32 33  1  0  0  0  0
 33 34  2  0  0  0  0
 34 29  1  0  0  0  0
 36 30  1  0  0  0  0
 37 33  1  0  0  0  0
M  END
>  <minimizedAffinity>
-5.89288568

$$$$

 OpenBabel03252502143D

 37 40  0  0  0  0  0  0  0  0999 V2000
   36.8680   26.8320   39.1070 Cl  0  0  0  0  0  0  0  0  0  0  0  0
   37.0110   28.3800   38.3130 C   0  0  0  0  0  0  0  0  0  0  0  0
   37.5490   29.4590   38.9310 C   0  0  0  0  0  0  0  0  0  0  0  0
   37.6080   30.6170   38.2070 C   0  0  0  0  0  0  0  0  0  0  0  0
   37.1620   30.7300   36.9290 C   0  0  0  0  0  0  0  0  0  0  0  0
   36.6190   29.6380   36.3070 C   0  0  0  0  0  0  0  0  0  0  0  0
   36.5470   28.4610   37.0100 C   0  0  0  0  0  0  0  0  0  0  0  0
   37.2470   31.6850   36.4260 H   0  0  0  0  0  0  0  0  0  0  0  0
   36.2750   29.7550   35.2980 H   0  0  0  0  0  0  0  0  0  0  0  0
   36.1090   27.6150   36.4860 H   0  0  0  0  0  0  0  0  0  0  0  0
   38.1930   31.8110   38.8620 C   0  0  0  0  0  0  0  0  0  0  0  0
   37.3340   32.6370   39.5780 C   0  0  0  0  0  0  0  0  0  0  0  0
   37.9950   33.7060   40.1360 C   0  0  0  0  0  0  0  0  0  0  0  0
   39.3170   34.0070   40.0580 C   0  0  0  0  0  0  0  0  0  0  0  0
   40.0850   33.1210   39.3210 C   0  0  0  0  0  0  0  0  0  0  0  0
   39.4980   32.0590   38.7510 N   0  0  0  0  0  0  0  0  0  0  0  0
   36.2800   32.4610   39.6830 H   0  0  0  0  0  0  0  0  0  0  0  0
   37.3760   34.4230   40.7320 H   0  0  0  0  0  0  0  0  0  0  0  0
   39.7450   34.8730   40.5310 H   0  0  0  0  0  0  0  0  0  0  0  0
   41.4820   33.3480   39.1780 N   0  0  0  0  0  0  0  0  0  0  0  0
   42.4360   32.8170   40.1040 C   0  0  0  0  0  3  0  0  0  0  0  0
   42.6390   31.7530   39.8830 H   0  0  0  0  0  0  0  0  0  0  0  0
   43.7380   33.5590   39.9190 C   0  0  0  0  0  3  0  0  0  0  0  0
   43.6180   34.5970   40.2970 H   0  0  0  0  0  0  0  0  0  0  0  0
   44.2410   33.5590   38.5820 N   0  0  0  0  0  0  0  0  0  0  0  0
   44.8310   34.4080   38.4200 H   0  0  0  0  0  0  0  0  0  0  0  0
   43.2480   33.5050   37.5500 C   0  0  0  0  0  2  0  0  0  0  0  0
   41.9770   34.1380   38.0690 C   0  0  0  0  0  2  0  0  0  0  0  0
   37.6940   29.3430   42.7100 C   0  0  0  0  0  0  0  0  0  0  0  0
   37.2200   29.4890   41.4070 C   0  0  0  0  0  0  0  0  0  0  0  0
   38.0190   29.3130   40.2970 C   0  0  0  0  0  0  0  0  0  0  0  0
   39.3190   28.9840   40.5590 N   0  0  0  0  0  0  0  0  0  0  0  0
   39.7810   28.8420   41.8100 C   0  0  0  0  0  0  0  0  0  0  0  0
   38.9910   29.0160   42.8860 N   0  0  0  0  0  0  0  0  0  0  0  0
   36.9710   29.5060   43.4910 H   0  0  0  0  0  0  0  0  0  0  0  0
   36.1840   29.7510   41.2060 H   0  0  0  0  0  0  0  0  0  0  0  0
   40.8180   28.5820   41.9150 H   0  0  0  0  0  0  0  0  0  0  0  0
  2  3  1  0  0  0  0
  2  1  1  0  0  0  0
  3 31  1  0  0  0  0
  4 11  1  0  0  0  0
  4  3  2  0  0  0  0
  5  4  1  0  0  0  0
  6  5  2  0  0  0  0
  6  7  1  0  0  0  0
  7  2  2  0  0  0  0
  8  5  1  0  0  0  0
  9  6  1  0  0  0  0
 10  7  1  0  0  0  0
 11 12  1  0  0  0  0
 12 17  1  0  0  0  0
 12 13  2  0  0  0  0
 13 18  1  0  0  0  0
 14 13  1  0  0  0  0
 14 19  1  0  0  0  0
 15 14  2  0  0  0  0
 16 11  2  0  0  0  0
 16 15  1  0  0  0  0
 20 15  1  0  0  0  0
 20 21  1  0  0  0  0
 22 21  1  0  0  0  0
 23 21  1  0  0  0  0
 23 24  1  0  0  0  0
 25 23  1  0  0  0  0
 26 25  1  0  0  0  0
 27 28  1  0  0  0  0
 27 25  1  0  0  0  0
 28 20  1  0  0  0  0
 29 34  1  0  0  0  0
 29 35  1  0  0  0  0
 30 29  2  0  0  0  0
 31 32  2  0  0  0  0
 31 30  1  0  0  0  0
 32 33  1  0  0  0  0
 33 37  1  0  0  0  0
 33 34  2  0  0  0  0
 36 30  1  0  0  0  0
M  END
>  <minimizedAffinity>
-5.84996319

$$$$

 OpenBabel03252502143D

 37 40  0  0  0  0  0  0  0  0999 V2000
   41.1880   32.0250   39.6510 Cl  0  0  0  0  0  0  0  0  0  0  0  0
   41.1330   30.8210   40.9150 C   0  0  0  0  0  0  0  0  0  0  0  0
   40.0120   30.1070   41.1800 C   0  0  0  0  0  0  0  0  0  0  0  0
   40.0910   29.1920   42.1930 C   0  0  0  0  0  0  0  0  0  0  0  0
   41.2130   28.9750   42.9260 C   0  0  0  0  0  0  0  0  0  0  0  0
   42.3450   29.6980   42.6560 C   0  0  0  0  0  0  0  0  0  0  0  0
   42.2950   30.6240   41.6440 C   0  0  0  0  0  0  0  0  0  0  0  0
   41.1910   28.2300   43.7120 H   0  0  0  0  0  0  0  0  0  0  0  0
   43.2160   29.5060   43.2500 H   0  0  0  0  0  0  0  0  0  0  0  0
   43.2090   31.1800   41.4570 H   0  0  0  0  0  0  0  0  0  0  0  0
   38.8780   28.3990   42.5020 C   0  0  0  0  0  0  0  0  0  0  0  0
   38.0260   28.8840   43.4870 C   0  0  0  0  0  0  0  0  0  0  0  0
   36.9400   28.0600   43.6790 C   0  0  0  0  0  0  0  0  0  0  0  0
   36.6460   26.9000   43.0390 C   0  0  0  0  0  0  0  0  0  0  0  0
   37.5580   26.5050   42.0750 C   0  0  0  0  0  0  0  0  0  0  0  0
   38.6370   27.2650   41.8420 N   0  0  0  0  0  0  0  0  0  0  0  0
   38.1950   29.7920   44.0330 H   0  0  0  0  0  0  0  0  0  0  0  0
   36.2020   28.3780   44.4580 H   0  0  0  0  0  0  0  0  0  0  0  0
   35.7670   26.3210   43.2600 H   0  0  0  0  0  0  0  0  0  0  0  0
   37.3410   25.3020   41.3480 N   0  0  0  0  0  0  0  0  0  0  0  0
   36.6050   25.2800   40.1190 C   0  0  0  0  0  3  0  0  0  0  0  0
   37.2450   25.6120   39.2800 H   0  0  0  0  0  0  0  0  0  0  0  0
   36.2080   23.8530   39.8310 C   0  0  0  0  0  3  0  0  0  0  0  0
   35.4290   23.5420   40.5600 H   0  0  0  0  0  0  0  0  0  0  0  0
   37.2930   22.9230   39.8160 N   0  0  0  0  0  0  0  0  0  0  0  0
   36.9490   21.9670   40.0690 H   0  0  0  0  0  0  0  0  0  0  0  0
   38.3910   23.2420   40.6780 C   0  0  0  0  0  2  0  0  0  0  0  0
   37.8700   24.0490   41.8460 C   0  0  0  0  0  2  0  0  0  0  0  0
   36.7350   31.5170   39.9230 C   0  0  0  0  0  0  0  0  0  0  0  0
   37.8670   31.2940   40.7050 C   0  0  0  0  0  0  0  0  0  0  0  0
   38.8250   30.3570   40.3820 C   0  0  0  0  0  0  0  0  0  0  0  0
   38.5910   29.6530   39.2350 N   0  0  0  0  0  0  0  0  0  0  0  0
   37.5040   29.8630   38.4780 C   0  0  0  0  0  0  0  0  0  0  0  0
   36.5760   30.7810   38.8030 N   0  0  0  0  0  0  0  0  0  0  0  0
   36.0610   32.2770   40.2820 H   0  0  0  0  0  0  0  0  0  0  0  0
   38.0460   31.8590   41.6170 H   0  0  0  0  0  0  0  0  0  0  0  0
   37.4080   29.2600   37.5940 H   0  0  0  0  0  0  0  0  0  0  0  0
  1  2  1  0  0  0  0
  2  3  2  0  0  0  0
  2  7  1  0  0  0  0
  3  4  1  0  0  0  0
  4 11  1  0  0  0  0
  4  5  2  0  0  0  0
  5  8  1  0  0  0  0
  6  5  1  0  0  0  0
  6  9  1  0  0  0  0
  7  6  2  0  0  0  0
 10  7  1  0  0  0  0
 11 12  1  0  0  0  0
 12 13  2  0  0  0  0
 12 17  1  0  0  0  0
 13 18  1  0  0  0  0
 14 19  1  0  0  0  0
 14 13  1  0  0  0  0
 15 14  2  0  0  0  0
 16 15  1  0  0  0  0
 16 11  2  0  0  0  0
 20 28  1  0  0  0  0
 20 15  1  0  0  0  0
 21 20  1  0  0  0  0
 22 21  1  0  0  0  0
 23 21  1  0  0  0  0
 23 24  1  0  0  0  0
 25 23  1  0  0  0  0
 25 26  1  0  0  0  0
 25 27  1  0  0  0  0
 27 28  1  0  0  0  0
 29 35  1  0  0  0  0
 29 30  1  0  0  0  0
 30 36  1  0  0  0  0
 31 30  2  0  0  0  0
 31  3  1  0  0  0  0
 32 31  1  0  0  0  0
 33 34  1  0  0  0  0
 33 32  2  0  0  0  0
 34 29  2  0  0  0  0
 37 33  1  0  0  0  0
M  END
>  <minimizedAffinity>
-5.838974

$$$$

 OpenBabel03252502143D

 37 40  0  0  0  0  0  0  0  0999 V2000
   41.1880   25.4300   43.0260 Cl  0  0  0  0  0  0  0  0  0  0  0  0
   40.5750   27.0160   42.6290 C   0  0  0  0  0  0  0  0  0  0  0  0
   39.4180   27.1900   41.9440 C   0  0  0  0  0  0  0  0  0  0  0  0
   39.0400   28.4790   41.6920 C   0  0  0  0  0  0  0  0  0  0  0  0
   39.7540   29.5650   42.0870 C   0  0  0  0  0  0  0  0  0  0  0  0
   40.9220   29.3860   42.7790 C   0  0  0  0  0  0  0  0  0  0  0  0
   41.3270   28.1020   43.0470 C   0  0  0  0  0  0  0  0  0  0  0  0
   39.3830   30.5530   41.8470 H   0  0  0  0  0  0  0  0  0  0  0  0
   41.4660   30.2610   43.0790 H   0  0  0  0  0  0  0  0  0  0  0  0
   42.2580   27.9970   43.5970 H   0  0  0  0  0  0  0  0  0  0  0  0
   37.7790   28.6940   40.9440 C   0  0  0  0  0  0  0  0  0  0  0  0
   36.6130   28.8620   41.6840 C   0  0  0  0  0  0  0  0  0  0  0  0
   35.5150   29.0530   40.8760 C   0  0  0  0  0  0  0  0  0  0  0  0
   35.4700   29.0910   39.5200 C   0  0  0  0  0  0  0  0  0  0  0  0
   36.6850   28.9130   38.8800 C   0  0  0  0  0  0  0  0  0  0  0  0
   37.7910   28.7220   39.6110 N   0  0  0  0  0  0  0  0  0  0  0  0
   36.5740   28.8440   42.7560 H   0  0  0  0  0  0  0  0  0  0  0  0
   34.5330   29.1970   41.3920 H   0  0  0  0  0  0  0  0  0  0  0  0
   34.5570   29.2460   38.9730 H   0  0  0  0  0  0  0  0  0  0  0  0
   36.7430   28.9350   37.4580 N   0  0  0  0  0  0  0  0  0  0  0  0
   36.9640   30.1460   36.7260 C   0  0  0  0  0  3  0  0  0  0  0  0
   38.0390   30.4060   36.7230 H   0  0  0  0  0  0  0  0  0  0  0  0
   36.5660   29.9090   35.2890 C   0  0  0  0  0  3  0  0  0  0  0  0
   35.4610   29.8160   35.2330 H   0  0  0  0  0  0  0  0  0  0  0  0
   37.2050   28.7910   34.6700 N   0  0  0  0  0  0  0  0  0  0  0  0
   36.5980   28.4100   33.9070 H   0  0  0  0  0  0  0  0  0  0  0  0
   37.5470   27.7120   35.5470 C   0  0  0  0  0  2  0  0  0  0  0  0
   36.5780   27.7070   36.7070 C   0  0  0  0  0  2  0  0  0  0  0  0
   36.9590   24.3170   41.8620 C   0  0  0  0  0  0  0  0  0  0  0  0
   37.6610   25.4460   42.2780 C   0  0  0  0  0  0  0  0  0  0  0  0
   38.6720   26.0140   41.5320 C   0  0  0  0  0  0  0  0  0  0  0  0
   38.9450   25.3910   40.3480 N   0  0  0  0  0  0  0  0  0  0  0  0
   38.2720   24.3030   39.9420 C   0  0  0  0  0  0  0  0  0  0  0  0
   37.2870   23.7590   40.6780 N   0  0  0  0  0  0  0  0  0  0  0  0
   36.1910   23.9700   42.5340 H   0  0  0  0  0  0  0  0  0  0  0  0
   37.4380   25.9370   43.2230 H   0  0  0  0  0  0  0  0  0  0  0  0
   38.5600   23.8840   38.9960 H   0  0  0  0  0  0  0  0  0  0  0  0
  2  1  1  0  0  0  0
  2  7  1  0  0  0  0
  3  2  2  0  0  0  0
  4  3  1  0  0  0  0
  4  5  2  0  0  0  0
  5  6  1  0  0  0  0
  6  7  2  0  0  0  0
  6  9  1  0  0  0  0
  7 10  1  0  0  0  0
  8  5  1  0  0  0  0
 11 12  1  0  0  0  0
 11  4  1  0  0  0  0
 12 17  1  0  0  0  0
 13 18  1  0  0  0  0
 13 12  2  0  0  0  0
 14 13  1  0  0  0  0
 15 14  2  0  0  0  0
 15 16  1  0  0  0  0
 16 11  2  0  0  0  0
 19 14  1  0  0  0  0
 20 15  1  0  0  0  0
 21 20  1  0  0  0  0
 22 21  1  0  0  0  0
 23 21  1  0  0  0  0
 24 23  1  0  0  0  0
 25 23  1  0  0  0  0
 25 27  1  0  0  0  0
 26 25  1  0  0  0  0
 27 28  1  0  0  0  0
 28 20  1  0  0  0  0
 29 30  1  0  0  0  0
 29 35  1  0  0  0  0
 30 36  1  0  0  0  0
 31  3  1  0  0  0  0
 31 30  2  0  0  0  0
 32 31  1  0  0  0  0
 33 32  2  0  0  0  0
 33 34  1  0  0  0  0
 34 29  2  0  0  0  0
 37 33  1  0  0  0  0
M  END
>  <minimizedAffinity>
-5.82327271

$$$$

 OpenBabel03252502143D

 37 40  0  0  0  0  0  0  0  0999 V2000
   36.3320   29.6600   36.6010 Cl  0  0  0  0  0  0  0  0  0  0  0  0
   36.3480   28.3150   37.7140 C   0  0  0  0  0  0  0  0  0  0  0  0
   36.8330   28.4290   38.9750 C   0  0  0  0  0  0  0  0  0  0  0  0
   36.7920   27.3060   39.7530 C   0  0  0  0  0  0  0  0  0  0  0  0
   36.3010   26.1130   39.3300 C   0  0  0  0  0  0  0  0  0  0  0  0
   35.8110   26.0000   38.0560 C   0  0  0  0  0  0  0  0  0  0  0  0
   35.8400   27.1120   37.2510 C   0  0  0  0  0  0  0  0  0  0  0  0
   36.3050   25.2720   40.0120 H   0  0  0  0  0  0  0  0  0  0  0  0
   35.4290   25.0470   37.7470 H   0  0  0  0  0  0  0  0  0  0  0  0
   35.4440   26.9870   36.2460 H   0  0  0  0  0  0  0  0  0  0  0  0
   37.3170   27.4060   41.1360 C   0  0  0  0  0  0  0  0  0  0  0  0
   36.4210   27.7540   42.1400 C   0  0  0  0  0  0  0  0  0  0  0  0
   37.0280   27.8130   43.3730 C   0  0  0  0  0  0  0  0  0  0  0  0
   38.3310   27.5780   43.6770 C   0  0  0  0  0  0  0  0  0  0  0  0
   39.1390   27.2390   42.6060 C   0  0  0  0  0  0  0  0  0  0  0  0
   38.6060   27.1650   41.3780 N   0  0  0  0  0  0  0  0  0  0  0  0
   35.3800   27.9530   41.9740 H   0  0  0  0  0  0  0  0  0  0  0  0
   36.3760   28.0870   44.2400 H   0  0  0  0  0  0  0  0  0  0  0  0
   38.7160   27.6500   44.6790 H   0  0  0  0  0  0  0  0  0  0  0  0
   40.5200   26.9730   42.8190 N   0  0  0  0  0  0  0  0  0  0  0  0
   41.0040   25.6580   43.1140 C   0  0  0  0  0  3  0  0  0  0  0  0
   41.0850   25.0590   42.1880 H   0  0  0  0  0  0  0  0  0  0  0  0
   42.3980   25.7830   43.6800 C   0  0  0  0  0  3  0  0  0  0  0  0
   42.3360   26.2280   44.6950 H   0  0  0  0  0  0  0  0  0  0  0  0
   43.3120   26.5120   42.8580 N   0  0  0  0  0  0  0  0  0  0  0  0
   44.0570   26.9480   43.4500 H   0  0  0  0  0  0  0  0  0  0  0  0
   42.7290   27.5420   42.0500 C   0  0  0  0  0  2  0  0  0  0  0  0
   41.4850   28.0520   42.7410 C   0  0  0  0  0  2  0  0  0  0  0  0
   37.0990   31.9370   40.3660 C   0  0  0  0  0  0  0  0  0  0  0  0
   36.5770   30.7090   39.9600 C   0  0  0  0  0  0  0  0  0  0  0  0
   37.3530   29.7150   39.4040 C   0  0  0  0  0  0  0  0  0  0  0  0
   38.6800   30.0130   39.2740 N   0  0  0  0  0  0  0  0  0  0  0  0
   39.1880   31.1920   39.6620 C   0  0  0  0  0  0  0  0  0  0  0  0
   38.4200   32.1550   40.2040 N   0  0  0  0  0  0  0  0  0  0  0  0
   36.3890   32.6300   40.7860 H   0  0  0  0  0  0  0  0  0  0  0  0
   35.5190   30.4790   40.0670 H   0  0  0  0  0  0  0  0  0  0  0  0
   40.2430   31.3330   39.5190 H   0  0  0  0  0  0  0  0  0  0  0  0
  1  2  1  0  0  0  0
  2  3  1  0  0  0  0
  3 31  1  0  0  0  0
  3  4  2  0  0  0  0
  4 11  1  0  0  0  0
  5  4  1  0  0  0  0
  5  8  1  0  0  0  0
  6  5  2  0  0  0  0
  7  2  2  0  0  0  0
  7  6  1  0  0  0  0
  9  6  1  0  0  0  0
 10  7  1  0  0  0  0
 11 16  2  0  0  0  0
 11 12  1  0  0  0  0
 12 13  2  0  0  0  0
 13 14  1  0  0  0  0
 13 18  1  0  0  0  0
 14 19  1  0  0  0  0
 15 20  1  0  0  0  0
 15 14  2  0  0  0  0
 16 15  1  0  0  0  0
 17 12  1  0  0  0  0
 20 21  1  0  0  0  0
 21 23  1  0  0  0  0
 22 21  1  0  0  0  0
 23 24  1  0  0  0  0
 25 26  1  0  0  0  0
 25 23  1  0  0  0  0
 27 28  1  0  0  0  0
 27 25  1  0  0  0  0
 28 20  1  0  0  0  0
 29 35  1  0  0  0  0
 30 36  1  0  0  0  0
 30 29  2  0  0  0  0
 31 30  1  0  0  0  0
 32 31  2  0  0  0  0
 32 33  1  0  0  0  0
 33 34  2  0  0  0  0
 34 29  1  0  0  0  0
 37 33  1  0  0  0  0
M  END
>  <minimizedAffinity>
-5.7861104

$$$$

 OpenBabel03252502143D

 37 40  0  0  0  0  0  0  0  0999 V2000
   35.7640   25.3030   37.1340 Cl  0  0  0  0  0  0  0  0  0  0  0  0
   35.6200   26.7090   38.1590 C   0  0  0  0  0  0  0  0  0  0  0  0
   36.2960   26.8180   39.3290 C   0  0  0  0  0  0  0  0  0  0  0  0
   36.1030   27.9660   40.0450 C   0  0  0  0  0  0  0  0  0  0  0  0
   35.2860   28.9750   39.6470 C   0  0  0  0  0  0  0  0  0  0  0  0
   34.6050   28.8620   38.4640 C   0  0  0  0  0  0  0  0  0  0  0  0
   34.7790   27.7190   37.7230 C   0  0  0  0  0  0  0  0  0  0  0  0
   35.1910   29.8520   40.2740 H   0  0  0  0  0  0  0  0  0  0  0  0
   33.9670   29.6740   38.1730 H   0  0  0  0  0  0  0  0  0  0  0  0
   34.2240   27.6630   36.7910 H   0  0  0  0  0  0  0  0  0  0  0  0
   36.8310   28.1090   41.3290 C   0  0  0  0  0  0  0  0  0  0  0  0
   36.2310   27.5870   42.4690 C   0  0  0  0  0  0  0  0  0  0  0  0
   37.0030   27.7830   43.5910 C   0  0  0  0  0  0  0  0  0  0  0  0
   38.2130   28.3940   43.6800 C   0  0  0  0  0  0  0  0  0  0  0  0
   38.7220   28.8780   42.4870 C   0  0  0  0  0  0  0  0  0  0  0  0
   38.0160   28.7190   41.3580 N   0  0  0  0  0  0  0  0  0  0  0  0
   35.2790   27.0920   42.4740 H   0  0  0  0  0  0  0  0  0  0  0  0
   36.5930   27.3920   44.5560 H   0  0  0  0  0  0  0  0  0  0  0  0
   38.7440   28.4990   44.6090 H   0  0  0  0  0  0  0  0  0  0  0  0
   39.9830   29.5350   42.4730 N   0  0  0  0  0  0  0  0  0  0  0  0
   41.2090   28.8230   42.2700 C   0  0  0  0  0  3  0  0  0  0  0  0
   41.3630   28.6160   41.1950 H   0  0  0  0  0  0  0  0  0  0  0  0
   42.3490   29.7070   42.7150 C   0  0  0  0  0  3  0  0  0  0  0  0
   42.3260   29.7950   43.8220 H   0  0  0  0  0  0  0  0  0  0  0  0
   42.3780   30.9970   42.1010 N   0  0  0  0  0  0  0  0  0  0  0  0
   42.8510   31.6840   42.7330 H   0  0  0  0  0  0  0  0  0  0  0  0
   41.1020   31.5360   41.7360 C   0  0  0  0  0  2  0  0  0  0  0  0
   40.0540   30.9700   42.6680 C   0  0  0  0  0  2  0  0  0  0  0  0
   37.5870   23.5950   40.8310 C   0  0  0  0  0  0  0  0  0  0  0  0
   36.7350   24.6310   40.4540 C   0  0  0  0  0  0  0  0  0  0  0  0
   37.1640   25.7260   39.7340 C   0  0  0  0  0  0  0  0  0  0  0  0
   38.4910   25.7300   39.4110 N   0  0  0  0  0  0  0  0  0  0  0  0
   39.3160   24.7360   39.7710 C   0  0  0  0  0  0  0  0  0  0  0  0
   38.8860   23.6720   40.4740 N   0  0  0  0  0  0  0  0  0  0  0  0
   37.1310   22.7950   41.3910 H   0  0  0  0  0  0  0  0  0  0  0  0
   35.6790   24.6210   40.7150 H   0  0  0  0  0  0  0  0  0  0  0  0
   40.3430   24.8290   39.4710 H   0  0  0  0  0  0  0  0  0  0  0  0
  1  2  1  0  0  0  0
  2  3  1  0  0  0  0
  3 31  1  0  0  0  0
  3  4  2  0  0  0  0
  4 11  1  0  0  0  0
  5  4  1  0  0  0  0
  5  8  1  0  0  0  0
  6  5  2  0  0  0  0
  7  2  2  0  0  0  0
  7  6  1  0  0  0  0
  9  6  1  0  0  0  0
 10  7  1  0  0  0  0
 11 16  2  0  0  0  0
 11 12  1  0  0  0  0
 12 17  1  0  0  0  0
 12 13  2  0  0  0  0
 13 14  1  0  0  0  0
 13 18  1  0  0  0  0
 14 19  1  0  0  0  0
 15 14  2  0  0  0  0
 16 15  1  0  0  0  0
 20 15  1  0  0  0  0
 20 28  1  0  0  0  0
 21 20  1  0  0  0  0
 21 23  1  0  0  0  0
 22 21  1  0  0  0  0
 23 24  1  0  0  0  0
 25 23  1  0  0  0  0
 25 26  1  0  0  0  0
 27 25  1  0  0  0  0
 27 28  1  0  0  0  0
 29 35  1  0  0  0  0
 30 36  1  0  0  0  0
 30 29  2  0  0  0  0
 31 30  1  0  0  0  0
 32 31  2  0  0  0  0
 32 33  1  0  0  0  0
 33 34  2  0  0  0  0
 34 29  1  0  0  0  0
 37 33  1  0  0  0  0
M  END
>  <minimizedAffinity>
-5.76457644

$$$$

 OpenBabel03252502143D

 37 40  0  0  0  0  0  0  0  0999 V2000
   39.2250   24.1690   42.0650 Cl  0  0  0  0  0  0  0  0  0  0  0  0
   38.6110   24.7090   40.5230 C   0  0  0  0  0  0  0  0  0  0  0  0
   38.0670   25.9400   40.3550 C   0  0  0  0  0  0  0  0  0  0  0  0
   37.6210   26.2490   39.1010 C   0  0  0  0  0  0  0  0  0  0  0  0
   37.6960   25.4010   38.0430 C   0  0  0  0  0  0  0  0  0  0  0  0
   38.2470   24.1590   38.2150 C   0  0  0  0  0  0  0  0  0  0  0  0
   38.7030   23.8200   39.4650 C   0  0  0  0  0  0  0  0  0  0  0  0
   37.3200   25.7260   37.0810 H   0  0  0  0  0  0  0  0  0  0  0  0
   38.2940   23.5090   37.3630 H   0  0  0  0  0  0  0  0  0  0  0  0
   39.1330   22.8270   39.5650 H   0  0  0  0  0  0  0  0  0  0  0  0
   37.0220   27.5890   38.8930 C   0  0  0  0  0  0  0  0  0  0  0  0
   35.6490   27.6540   38.6870 C   0  0  0  0  0  0  0  0  0  0  0  0
   35.2170   28.9490   38.5080 C   0  0  0  0  0  0  0  0  0  0  0  0
   35.9560   30.0870   38.5150 C   0  0  0  0  0  0  0  0  0  0  0  0
   37.3130   29.9120   38.7290 C   0  0  0  0  0  0  0  0  0  0  0  0
   37.7960   28.6750   38.9090 N   0  0  0  0  0  0  0  0  0  0  0  0
   35.0030   26.7980   38.6690 H   0  0  0  0  0  0  0  0  0  0  0  0
   34.1200   29.0910   38.3360 H   0  0  0  0  0  0  0  0  0  0  0  0
   35.5260   31.0610   38.3650 H   0  0  0  0  0  0  0  0  0  0  0  0
   38.1750   31.0430   38.7530 N   0  0  0  0  0  0  0  0  0  0  0  0
   38.4610   31.7540   39.9630 C   0  0  0  0  0  3  0  0  0  0  0  0
   39.2290   31.2210   40.5530 H   0  0  0  0  0  0  0  0  0  0  0  0
   39.0440   33.0980   39.5960 C   0  0  0  0  0  3  0  0  0  0  0  0
   38.2450   33.7280   39.1530 H   0  0  0  0  0  0  0  0  0  0  0  0
   40.1830   33.0380   38.7350 N   0  0  0  0  0  0  0  0  0  0  0  0
   40.2520   33.9170   38.1710 H   0  0  0  0  0  0  0  0  0  0  0  0
   40.2160   31.9280   37.8310 C   0  0  0  0  0  2  0  0  0  0  0  0
   38.7950   31.5090   37.5290 C   0  0  0  0  0  2  0  0  0  0  0  0
   36.8650   27.7750   43.4370 C   0  0  0  0  0  0  0  0  0  0  0  0
   36.9080   26.9130   42.3430 C   0  0  0  0  0  0  0  0  0  0  0  0
   37.9970   26.8290   41.5010 C   0  0  0  0  0  0  0  0  0  0  0  0
   39.0410   27.6530   41.8120 N   0  0  0  0  0  0  0  0  0  0  0  0
   39.0060   28.4850   42.8640 C   0  0  0  0  0  0  0  0  0  0  0  0
   37.9370   28.5580   43.6780 N   0  0  0  0  0  0  0  0  0  0  0  0
   35.9580   27.7470   44.0180 H   0  0  0  0  0  0  0  0  0  0  0  0
   36.0730   26.2600   42.1020 H   0  0  0  0  0  0  0  0  0  0  0  0
   39.8750   29.0940   43.0270 H   0  0  0  0  0  0  0  0  0  0  0  0
  2  1  1  0  0  0  0
  3  2  1  0  0  0  0
  3 31  1  0  0  0  0
  4  3  2  0  0  0  0
  5  6  2  0  0  0  0
  5  4  1  0  0  0  0
  6  7  1  0  0  0  0
  7 10  1  0  0  0  0
  7  2  2  0  0  0  0
  8  5  1  0  0  0  0
  9  6  1  0  0  0  0
 11 16  1  0  0  0  0
 11  4  1  0  0  0  0
 12 11  2  0  0  0  0
 13 14  2  0  0  0  0
 13 12  1  0  0  0  0
 14 15  1  0  0  0  0
 15 20  1  0  0  0  0
 15 16  2  0  0  0  0
 17 12  1  0  0  0  0
 18 13  1  0  0  0  0
 19 14  1  0  0  0  0
 20 21  1  0  0  0  0
 21 22  1  0  0  0  0
 23 21  1  0  0  0  0
 24 23  1  0  0  0  0
 25 23  1  0  0  0  0
 26 25  1  0  0  0  0
 27 25  1  0  0  0  0
 28 27  1  0  0  0  0
 28 20  1  0  0  0  0
 29 34  1  0  0  0  0
 29 35  1  0  0  0  0
 30 29  2  0  0  0  0
 31 32  2  0  0  0  0
 31 30  1  0  0  0  0
 32 33  1  0  0  0  0
 33 37  1  0  0  0  0
 33 34  2  0  0  0  0
 36 30  1  0  0  0  0
M  END
>  <minimizedAffinity>
-5.66880846

$$$$
