
 OpenBabel03252505323D

 30 32  0  0  0  0  0  0  0  0999 V2000
   46.7070   34.8000   42.0140 C   0  0  0  0  0  0  0  0  0  0  0  0
   47.9490   35.4020   41.9390 C   0  0  0  0  0  0  0  0  0  0  0  0
   48.7710   35.3040   40.8170 C   0  0  0  0  0  0  0  0  0  0  0  0
   48.3190   34.5670   39.7280 C   0  0  0  0  0  0  0  0  0  0  0  0
   47.0870   33.9800   39.8220 C   0  0  0  0  0  0  0  0  0  0  0  0
   46.2760   34.0810   40.9350 C   0  0  0  0  0  0  0  0  0  0  0  0
   48.3200   35.9850   42.7890 H   0  0  0  0  0  0  0  0  0  0  0  0
   49.7230   35.8120   40.8580 H   0  0  0  0  0  0  0  0  0  0  0  0
   49.0200   34.5520   38.9220 H   0  0  0  0  0  0  0  0  0  0  0  0
   46.8880   33.4580   38.8990 H   0  0  0  0  0  0  0  0  0  0  0  0
   44.4800   36.0960   44.7510 C   0  0  0  0  0  0  0  0  0  0  0  0
   45.1580   36.0420   43.5140 C   0  0  0  0  0  0  0  0  0  0  0  0
   45.9700   34.9620   43.2370 C   0  0  0  0  0  0  0  0  0  0  0  0
   46.0800   33.9850   44.1880 N   0  0  0  0  0  0  0  0  0  0  0  0
   45.4090   34.0740   45.3700 C   0  0  0  0  0  0  0  0  0  0  0  0
   44.6170   35.1240   45.6420 N   0  0  0  0  0  0  0  0  0  0  0  0
   45.5600   33.0530   46.3570 N   0  0  0  0  0  0  0  0  0  0  0  0
   43.8320   36.9490   44.9790 H   0  0  0  0  0  0  0  0  0  0  0  0
   45.0580   36.8160   42.7890 H   0  0  0  0  0  0  0  0  0  0  0  0
   45.6130   33.2140   47.3890 H   0  0  0  0  0  0  0  0  0  0  0  0
   45.6300   32.0290   46.0920 H   0  0  0  0  0  0  0  0  0  0  0  0
   45.0210   33.4460   40.8740 N   0  0  0  0  0  0  0  0  0  0  0  0
   43.8640   34.1130   40.3030 C   0  0  0  0  0  3  0  0  0  0  0  0
   43.4730   33.4370   39.4780 H   0  0  0  0  0  0  0  0  0  0  0  0
   42.7450   34.2640   41.2880 C   0  0  0  0  0  3  0  0  0  0  0  0
   41.8100   34.4040   40.6820 H   0  0  0  0  0  0  0  0  0  0  0  0
   42.5190   33.0600   42.0590 N   0  0  0  0  0  0  0  0  0  0  0  0
   42.8940   33.1350   43.0240 H   0  0  0  0  0  0  0  0  0  0  0  0
   43.1110   31.9690   41.3420 C   0  0  0  0  0  2  0  0  0  0  0  0
   44.6250   32.1320   41.3510 C   0  0  0  0  0  2  0  0  0  0  0  0
  1 13  1  0  0  0  0
  2  1  1  0  0  0  0
  2  7  1  0  0  0  0
  3  8  1  0  0  0  0
  3  2  2  0  0  0  0
  4  5  2  0  0  0  0
  4  3  1  0  0  0  0
  5  6  1  0  0  0  0
  6  1  2  0  0  0  0
  9  4  1  0  0  0  0
 10  5  1  0  0  0  0
 11 18  1  0  0  0  0
 11 16  1  0  0  0  0
 12 11  2  0  0  0  0
 13 12  1  0  0  0  0
 13 14  2  0  0  0  0
 14 15  1  0  0  0  0
 15 16  2  0  0  0  0
 15 17  1  0  0  0  0
 17 20  1  0  0  0  0
 19 12  1  0  0  0  0
 21 17  1  0  0  0  0
 22  6  1  0  0  0  0
 22 30  1  0  0  0  0
 23 22  1  0  0  0  0
 23 25  1  0  0  0  0
 24 23  1  0  0  0  0
 25 27  1  0  0  0  0
 26 25  1  0  0  0  0
 27 28  1  0  0  0  0
 29 30  1  0  0  0  0
 29 27  1  0  0  0  0
M  END
>  <minimizedAffinity>
-6.24570704

>  <minimizedRMSD>
0.537557781

$$$$
