
     RDKit          3D

 36 38  0  0  0  0  0  0  0  0999 V2000
   44.4167   36.1730   44.7895 C   0  0  0  0  0  0  0  0  0  0  0  0
   45.0720   36.0596   43.5445 C   0  0  0  0  0  0  0  0  0  0  0  0
   45.8971   34.9796   43.3111 C   0  0  0  0  0  0  0  0  0  0  0  0
   46.0426   34.0600   44.3131 N   0  0  0  0  0  0  0  0  0  0  0  0
   45.3940   34.2051   45.5020 C   0  0  0  0  0  0  0  0  0  0  0  0
   44.5888   35.2546   45.7306 N   0  0  0  0  0  0  0  0  0  0  0  0
   45.5823   33.2440   46.5408 N   0  0  0  0  0  0  0  0  0  0  0  0
   46.6132   34.7607   42.0847 C   0  0  0  0  0  0  0  0  0  0  0  0
   47.8574   35.3518   41.9635 C   0  0  0  0  0  0  0  0  0  0  0  0
   48.6597   35.2013   40.8344 C   0  0  0  0  0  0  0  0  0  0  0  0
   48.1857   34.4214   39.7854 C   0  0  0  0  0  0  0  0  0  0  0  0
   46.9531   33.8463   39.9244 C   0  0  0  0  0  0  0  0  0  0  0  0
   46.1613   33.9987   41.0449 C   0  0  0  0  0  0  0  0  0  0  0  0
   43.7594   37.0265   44.9824 H   0  0  0  0  0  0  0  0  0  0  0  0
   44.9443   36.7898   42.7794 H   0  0  0  0  0  0  0  0  0  0  0  0
   45.6526   33.4644   47.5607 H   0  0  0  0  0  0  0  0  0  0  0  0
   45.6654   32.2084   46.3331 H   0  0  0  0  0  0  0  0  0  0  0  0
   48.2450   35.9688   42.7815 H   0  0  0  0  0  0  0  0  0  0  0  0
   49.6154   35.7045   40.8369 H   0  0  0  0  0  0  0  0  0  0  0  0
   48.8729   34.3677   38.9690 H   0  0  0  0  0  0  0  0  0  0  0  0
   46.7354   33.2861   39.0266 H   0  0  0  0  0  0  0  0  0  0  0  0
   44.9005   33.3703   41.0311 N   0  0  0  0  0  0  0  0  0  0  0  0
   44.6095   32.2398   41.8930 C   0  0  2  0  0  0  0  0  0  0  0  0
   43.6925   32.5203   42.5005 H   0  0  0  0  0  0  0  0  0  0  0  0
   44.2407   31.0096   41.1205 C   0  0  2  0  0  0  0  0  0  0  0  0
   43.6680   30.3525   41.8294 H   0  0  0  0  0  0  0  0  0  0  0  0
   43.3204   31.2906   40.0392 N   0  0  0  0  0  0  0  0  0  0  0  0
   43.7888   31.2897   39.1131 H   0  0  0  0  0  0  0  0  0  0  0  0
   42.6946   32.5499   40.3175 C   0  0  0  0  0  0  0  0  0  0  0  0
   43.7364   33.6562   40.2094 C   0  0  0  0  0  0  0  0  0  0  0  0
   45.3912   32.0062   42.6237 H   0  0  0  0  0  0  0  0  0  0  0  0
   45.0688   30.4209   40.7322 H   0  0  0  0  0  0  0  0  0  0  0  0
   42.1452   32.5320   41.2547 H   0  0  0  0  0  0  0  0  0  0  0  0
   41.9957   32.7366   39.4406 H   0  0  0  0  0  0  0  0  0  0  0  0
   44.0076   33.6484   39.1247 H   0  0  0  0  0  0  0  0  0  0  0  0
   43.2510   34.5598   40.5645 H   0  0  0  0  0  0  0  0  0  0  0  0
  1  6  2  0
  2  1  1  0
  3  2  2  0
  3  4  1  0
  4  5  2  0
  5  6  1  0
  5  7  1  0
  8  3  1  0
  9  8  2  0
 10  9  1  0
 11 12  1  0
 11 10  2  0
 12 13  2  0
 13  8  1  0
  1 14  1  0
  2 15  1  0
  7 16  1  0
  7 17  1  0
  9 18  1  0
 10 19  1  0
 11 20  1  0
 12 21  1  0
 22 23  1  0
 23 24  1  1
 23 25  1  0
 25 26  1  1
 25 27  1  0
 27 28  1  0
 27 29  1  0
 29 30  1  0
 30 22  1  0
 23 31  1  0
 25 32  1  0
 29 33  1  0
 29 34  1  0
 30 35  1  0
 30 36  1  0
 13 22  1  0
M  ISO  8  14  14  15  14  18  14  19  14  20  14  21  14  24   8  26   8
M  ISO  1  28   5
M  END
>  <DihAtoms>  (1) 
11,12,21,22

>  <DihDeg>  (1) 
21.099695480090976

$$$$
