
 OpenBabel03252505333D

 30 32  0  0  0  0  0  0  0  0999 V2000
   46.7040   34.7950   42.0030 C   0  0  0  0  0  0  0  0  0  0  0  0
   47.9460   35.3970   41.9250 C   0  0  0  0  0  0  0  0  0  0  0  0
   48.7670   35.2960   40.8020 C   0  0  0  0  0  0  0  0  0  0  0  0
   48.3130   34.5560   39.7160 C   0  0  0  0  0  0  0  0  0  0  0  0
   47.0810   33.9690   39.8130 C   0  0  0  0  0  0  0  0  0  0  0  0
   46.2720   34.0730   40.9270 C   0  0  0  0  0  0  0  0  0  0  0  0
   48.3180   35.9830   42.7730 H   0  0  0  0  0  0  0  0  0  0  0  0
   49.7180   35.8040   40.8400 H   0  0  0  0  0  0  0  0  0  0  0  0
   49.0120   34.5390   38.9090 H   0  0  0  0  0  0  0  0  0  0  0  0
   46.8800   33.4440   38.8910 H   0  0  0  0  0  0  0  0  0  0  0  0
   44.4830   36.1010   44.7410 C   0  0  0  0  0  0  0  0  0  0  0  0
   45.1600   36.0430   43.5030 C   0  0  0  0  0  0  0  0  0  0  0  0
   45.9680   34.9610   43.2260 C   0  0  0  0  0  0  0  0  0  0  0  0
   46.0770   33.9850   44.1780 N   0  0  0  0  0  0  0  0  0  0  0  0
   45.4080   34.0770   45.3620 C   0  0  0  0  0  0  0  0  0  0  0  0
   44.6190   35.1290   45.6330 N   0  0  0  0  0  0  0  0  0  0  0  0
   45.5570   33.0570   46.3490 N   0  0  0  0  0  0  0  0  0  0  0  0
   43.8380   36.9550   44.9680 H   0  0  0  0  0  0  0  0  0  0  0  0
   45.0610   36.8170   42.7780 H   0  0  0  0  0  0  0  0  0  0  0  0
   45.6120   33.2190   47.3810 H   0  0  0  0  0  0  0  0  0  0  0  0
   45.6240   32.0330   46.0860 H   0  0  0  0  0  0  0  0  0  0  0  0
   45.0160   33.4380   40.8690 N   0  0  0  0  0  0  0  0  0  0  0  0
   43.8590   34.1040   40.2990 C   0  0  0  0  0  3  0  0  0  0  0  0
   43.4650   33.4260   39.4770 H   0  0  0  0  0  0  0  0  0  0  0  0
   42.7410   34.2590   41.2860 C   0  0  0  0  0  3  0  0  0  0  0  0
   41.8040   34.3970   40.6820 H   0  0  0  0  0  0  0  0  0  0  0  0
   42.5170   33.0560   42.0600 N   0  0  0  0  0  0  0  0  0  0  0  0
   42.8930   33.1330   43.0250 H   0  0  0  0  0  0  0  0  0  0  0  0
   43.1070   31.9630   41.3450 C   0  0  0  0  0  2  0  0  0  0  0  0
   44.6220   32.1250   41.3510 C   0  0  0  0  0  2  0  0  0  0  0  0
  1 13  1  0  0  0  0
  2  1  1  0  0  0  0
  2  7  1  0  0  0  0
  3  8  1  0  0  0  0
  3  2  2  0  0  0  0
  4  5  2  0  0  0  0
  4  3  1  0  0  0  0
  5  6  1  0  0  0  0
  6  1  2  0  0  0  0
  9  4  1  0  0  0  0
 10  5  1  0  0  0  0
 11 18  1  0  0  0  0
 11 16  1  0  0  0  0
 12 11  2  0  0  0  0
 13 12  1  0  0  0  0
 13 14  2  0  0  0  0
 14 15  1  0  0  0  0
 15 16  2  0  0  0  0
 15 17  1  0  0  0  0
 17 20  1  0  0  0  0
 19 12  1  0  0  0  0
 21 17  1  0  0  0  0
 22  6  1  0  0  0  0
 22 30  1  0  0  0  0
 23 22  1  0  0  0  0
 23 25  1  0  0  0  0
 24 23  1  0  0  0  0
 25 27  1  0  0  0  0
 26 25  1  0  0  0  0
 27 28  1  0  0  0  0
 29 30  1  0  0  0  0
 29 27  1  0  0  0  0
M  END
>  <minimizedAffinity>
-6.25420523

>  <minimizedRMSD>
0.252043784

$$$$
