
 OpenBabel03242522283D

 38 41  0  0  0  0  0  0  0  0999 V2000
   39.3720   27.0460   40.8650 F   0  0  0  0  0  0  0  0  0  0  0  0
   38.4380   27.2880   41.8450 C   0  0  0  0  0  0  0  0  0  0  0  0
   37.3270   26.5190   41.9460 C   0  0  0  0  0  0  0  0  0  0  0  0
   36.4610   26.8140   42.9760 C   0  0  0  0  0  0  0  0  0  0  0  0
   36.6880   27.8350   43.8670 C   0  0  0  0  0  0  0  0  0  0  0  0
   37.8330   28.5610   43.6850 C   0  0  0  0  0  0  0  0  0  0  0  0
   38.7310   28.3200   42.6930 C   0  0  0  0  0  0  0  0  0  0  0  0
   35.5980   26.1230   42.9610 H   0  0  0  0  0  0  0  0  0  0  0  0
   35.8900   27.8760   44.5700 H   0  0  0  0  0  0  0  0  0  0  0  0
   37.7210   29.2930   44.4400 H   0  0  0  0  0  0  0  0  0  0  0  0
   39.8940   29.1640   42.6240 C   0  0  0  0  0  0  0  0  0  0  0  0
   39.7560   30.4540   42.0990 C   0  0  0  0  0  0  0  0  0  0  0  0
   40.8910   31.2300   42.0540 C   0  0  0  0  0  0  0  0  0  0  0  0
   42.1420   30.7660   42.5130 C   0  0  0  0  0  0  0  0  0  0  0  0
   42.2050   29.4510   43.0310 C   0  0  0  0  0  0  0  0  0  0  0  0
   41.0810   28.6590   43.0790 C   0  0  0  0  0  0  0  0  0  0  0  0
   38.9130   30.9720   41.7310 H   0  0  0  0  0  0  0  0  0  0  0  0
   40.8910   32.2560   41.6570 H   0  0  0  0  0  0  0  0  0  0  0  0
   42.9930   31.4570   42.4390 H   0  0  0  0  0  0  0  0  0  0  0  0
   43.1990   29.2460   43.3350 H   0  0  0  0  0  0  0  0  0  0  0  0
   41.5230   27.4080   43.5130 N   0  0  0  0  0  0  0  0  0  0  0  0
   40.8670   26.1260   43.8660 C   0  0  0  0  0  3  0  0  0  0  0  0
   39.7910   26.2000   43.9510 H   0  0  0  0  0  0  0  0  0  0  0  0
   41.2680   25.0470   42.8920 C   0  0  0  0  0  3  0  0  0  0  0  0
   40.7210   24.1370   43.2140 H   0  0  0  0  0  0  0  0  0  0  0  0
   42.6760   24.7940   43.1300 N   0  0  0  0  0  0  0  0  0  0  0  0
   42.9660   24.0850   42.4200 H   0  0  0  0  0  0  0  0  0  0  0  0
   43.4010   25.9850   42.8400 C   0  0  0  0  0  2  0  0  0  0  0  0
   42.9830   27.2130   43.5900 C   0  0  0  0  0  2  0  0  0  0  0  0
   37.2700   23.1230   40.2530 C   0  0  0  0  0  0  0  0  0  0  0  0
   37.4660   24.1370   41.1760 C   0  0  0  0  0  0  0  0  0  0  0  0
   37.1180   25.4620   40.9690 C   0  0  0  0  0  0  0  0  0  0  0  0
   36.5650   25.6920   39.7760 N   0  0  0  0  0  0  0  0  0  0  0  0
   36.3660   24.7240   38.8680 C   0  0  0  0  0  0  0  0  0  0  0  0
   36.7080   23.4640   39.0890 N   0  0  0  0  0  0  0  0  0  0  0  0
   37.5650   22.1340   40.4930 H   0  0  0  0  0  0  0  0  0  0  0  0
   37.9210   23.8610   42.1180 H   0  0  0  0  0  0  0  0  0  0  0  0
   35.9130   24.9620   37.9140 H   0  0  0  0  0  0  0  0  0  0  0  0
  1  2  1  0  0  0  0
  2  3  2  0  0  0  0
  2  7  1  0  0  0  0
  3  4  1  0  0  0  0
  4  5  2  0  0  0  0
  5  9  1  0  0  0  0
  6  5  1  0  0  0  0
  6 10  1  0  0  0  0
  7  6  2  0  0  0  0
  8  4  1  0  0  0  0
 11  7  1  0  0  0  0
 11 16  1  0  0  0  0
 12 11  2  0  0  0  0
 13 12  1  0  0  0  0
 13 14  2  0  0  0  0
 14 15  1  0  0  0  0
 15 16  2  0  0  0  0
 15 20  1  0  0  0  0
 16 21  1  0  0  0  0
 17 12  1  0  0  0  0
 18 13  1  0  0  0  0
 19 14  1  0  0  0  0
 21 29  1  0  0  0  0
 21 22  1  0  0  0  0
 22 23  1  0  0  0  0
 24 26  1  0  0  0  0
 24 25  1  0  0  0  0
 24 22  1  0  0  0  0
 27 26  1  0  0  0  0
 28 26  1  0  0  0  0
 28 29  1  0  0  0  0
 30 36  1  0  0  0  0
 30 31  1  0  0  0  0
 31 37  1  0  0  0  0
 32 31  2  0  0  0  0
 32  3  1  0  0  0  0
 33 32  1  0  0  0  0
 34 35  1  0  0  0  0
 34 33  2  0  0  0  0
 35 30  2  0  0  0  0
 38 34  1  0  0  0  0
M  END
>  <minimizedAffinity>
-6.24153805

$$$$

 OpenBabel03242522283D

 38 41  0  0  0  0  0  0  0  0999 V2000
   39.5490   27.4420   40.4890 F   0  0  0  0  0  0  0  0  0  0  0  0
   38.6810   27.5410   41.5510 C   0  0  0  0  0  0  0  0  0  0  0  0
   39.1120   27.3300   42.8180 C   0  0  0  0  0  0  0  0  0  0  0  0
   38.1820   27.4790   43.8230 C   0  0  0  0  0  0  0  0  0  0  0  0
   36.8740   27.8200   43.5770 C   0  0  0  0  0  0  0  0  0  0  0  0
   36.5270   28.0100   42.2680 C   0  0  0  0  0  0  0  0  0  0  0  0
   37.3970   27.8830   41.2300 C   0  0  0  0  0  0  0  0  0  0  0  0
   38.6460   27.2860   44.8070 H   0  0  0  0  0  0  0  0  0  0  0  0
   36.3430   27.8770   44.4990 H   0  0  0  0  0  0  0  0  0  0  0  0
   35.4890   28.1890   42.3660 H   0  0  0  0  0  0  0  0  0  0  0  0
   36.8920   28.1140   39.9020 C   0  0  0  0  0  0  0  0  0  0  0  0
   36.2460   27.0650   39.2390 C   0  0  0  0  0  0  0  0  0  0  0  0
   35.7760   27.3290   37.9730 C   0  0  0  0  0  0  0  0  0  0  0  0
   35.9250   28.5910   37.3590 C   0  0  0  0  0  0  0  0  0  0  0  0
   36.5880   29.6030   38.0920 C   0  0  0  0  0  0  0  0  0  0  0  0
   37.0700   29.3560   39.3560 C   0  0  0  0  0  0  0  0  0  0  0  0
   36.0270   26.0780   39.5390 H   0  0  0  0  0  0  0  0  0  0  0  0
   35.2560   26.5730   37.3650 H   0  0  0  0  0  0  0  0  0  0  0  0
   35.5160   28.7100   36.3470 H   0  0  0  0  0  0  0  0  0  0  0  0
   36.6220   30.4870   37.5080 H   0  0  0  0  0  0  0  0  0  0  0  0
   37.7690   30.5080   39.7230 N   0  0  0  0  0  0  0  0  0  0  0  0
   39.1870   30.9390   39.6690 C   0  0  0  0  0  3  0  0  0  0  0  0
   39.8730   30.1380   39.4250 H   0  0  0  0  0  0  0  0  0  0  0  0
   39.3440   32.1020   38.7220 C   0  0  0  0  0  3  0  0  0  0  0  0
   40.4280   32.3450   38.7270 H   0  0  0  0  0  0  0  0  0  0  0  0
   38.6640   33.2220   39.3460 N   0  0  0  0  0  0  0  0  0  0  0  0
   38.7280   34.0130   38.6680 H   0  0  0  0  0  0  0  0  0  0  0  0
   37.2830   32.8960   39.4680 C   0  0  0  0  0  2  0  0  0  0  0  0
   36.9640   31.6400   40.2190 C   0  0  0  0  0  2  0  0  0  0  0  0
   42.8310   27.4950   43.5550 C   0  0  0  0  0  0  0  0  0  0  0  0
   41.5070   27.8460   43.3510 C   0  0  0  0  0  0  0  0  0  0  0  0
   40.5010   26.9510   43.0290 C   0  0  0  0  0  0  0  0  0  0  0  0
   40.9190   25.6870   42.9260 N   0  0  0  0  0  0  0  0  0  0  0  0
   42.1970   25.3260   43.1200 C   0  0  0  0  0  0  0  0  0  0  0  0
   43.1420   26.2010   43.4270 N   0  0  0  0  0  0  0  0  0  0  0  0
   43.5390   28.2460   43.7990 H   0  0  0  0  0  0  0  0  0  0  0  0
   41.2560   28.8940   43.4540 H   0  0  0  0  0  0  0  0  0  0  0  0
   42.4860   24.2870   43.0250 H   0  0  0  0  0  0  0  0  0  0  0  0
  1  2  1  0  0  0  0
  2  3  1  0  0  0  0
  3 32  1  0  0  0  0
  3  4  2  0  0  0  0
  4  8  1  0  0  0  0
  5  4  1  0  0  0  0
  5  9  1  0  0  0  0
  6 10  1  0  0  0  0
  6  5  2  0  0  0  0
  7  2  2  0  0  0  0
  7  6  1  0  0  0  0
 11  7  1  0  0  0  0
 12 17  1  0  0  0  0
 12 11  2  0  0  0  0
 13 12  1  0  0  0  0
 14 13  2  0  0  0  0
 14 15  1  0  0  0  0
 15 16  2  0  0  0  0
 16 21  1  0  0  0  0
 16 11  1  0  0  0  0
 18 13  1  0  0  0  0
 19 14  1  0  0  0  0
 20 15  1  0  0  0  0
 21 29  1  0  0  0  0
 22 21  1  0  0  0  0
 23 22  1  0  0  0  0
 24 25  1  0  0  0  0
 24 26  1  0  0  0  0
 24 22  1  0  0  0  0
 26 28  1  0  0  0  0
 27 26  1  0  0  0  0
 28 29  1  0  0  0  0
 30 36  1  0  0  0  0
 31 37  1  0  0  0  0
 31 30  2  0  0  0  0
 32 31  1  0  0  0  0
 33 32  2  0  0  0  0
 33 34  1  0  0  0  0
 34 35  2  0  0  0  0
 35 30  1  0  0  0  0
 38 34  1  0  0  0  0
M  END
>  <minimizedAffinity>
-6.12479305

$$$$

 OpenBabel03242522283D

 38 41  0  0  0  0  0  0  0  0999 V2000
   39.4310   27.2000   40.6670 F   0  0  0  0  0  0  0  0  0  0  0  0
   38.5830   27.5100   41.7040 C   0  0  0  0  0  0  0  0  0  0  0  0
   37.5510   26.6910   42.0220 C   0  0  0  0  0  0  0  0  0  0  0  0
   36.7700   27.0640   43.0940 C   0  0  0  0  0  0  0  0  0  0  0  0
   37.0040   28.2080   43.8190 C   0  0  0  0  0  0  0  0  0  0  0  0
   38.0650   28.9750   43.4240 C   0  0  0  0  0  0  0  0  0  0  0  0
   38.8770   28.6630   42.3780 C   0  0  0  0  0  0  0  0  0  0  0  0
   35.9670   26.3240   43.2590 H   0  0  0  0  0  0  0  0  0  0  0  0
   36.2790   28.2910   44.5940 H   0  0  0  0  0  0  0  0  0  0  0  0
   37.9710   29.7930   44.0880 H   0  0  0  0  0  0  0  0  0  0  0  0
   39.9570   29.5640   42.0770 C   0  0  0  0  0  0  0  0  0  0  0  0
   41.1620   29.4220   42.7760 C   0  0  0  0  0  0  0  0  0  0  0  0
   42.1700   30.3020   42.4560 C   0  0  0  0  0  0  0  0  0  0  0  0
   42.0180   31.3010   41.4720 C   0  0  0  0  0  0  0  0  0  0  0  0
   40.7720   31.3830   40.8070 C   0  0  0  0  0  0  0  0  0  0  0  0
   39.7500   30.5160   41.1170 C   0  0  0  0  0  0  0  0  0  0  0  0
   41.4630   28.7350   43.5180 H   0  0  0  0  0  0  0  0  0  0  0  0
   43.1540   30.2780   42.9480 H   0  0  0  0  0  0  0  0  0  0  0  0
   42.8780   31.9570   41.2820 H   0  0  0  0  0  0  0  0  0  0  0  0
   40.8070   32.1730   40.1010 H   0  0  0  0  0  0  0  0  0  0  0  0
   38.6480   30.9570   40.3830 N   0  0  0  0  0  0  0  0  0  0  0  0
   37.5050   31.8650   40.6450 C   0  0  0  0  0  3  0  0  0  0  0  0
   37.4070   32.1470   41.6850 H   0  0  0  0  0  0  0  0  0  0  0  0
   37.5840   33.0780   39.7520 C   0  0  0  0  0  3  0  0  0  0  0  0
   36.7110   33.7070   40.0260 H   0  0  0  0  0  0  0  0  0  0  0  0
   37.3470   32.6000   38.4030 N   0  0  0  0  0  0  0  0  0  0  0  0
   37.4530   33.4310   37.7800 H   0  0  0  0  0  0  0  0  0  0  0  0
   38.3880   31.6920   38.0590 C   0  0  0  0  0  2  0  0  0  0  0  0
   38.5740   30.5220   38.9750 C   0  0  0  0  0  2  0  0  0  0  0  0
   37.6240   23.1100   40.7680 C   0  0  0  0  0  0  0  0  0  0  0  0
   37.8300   24.2490   41.5290 C   0  0  0  0  0  0  0  0  0  0  0  0
   37.3300   25.5010   41.2140 C   0  0  0  0  0  0  0  0  0  0  0  0
   36.6140   25.5270   40.0880 N   0  0  0  0  0  0  0  0  0  0  0  0
   36.4020   24.4350   39.3360 C   0  0  0  0  0  0  0  0  0  0  0  0
   36.8920   23.2480   39.6580 N   0  0  0  0  0  0  0  0  0  0  0  0
   38.0440   22.1890   41.0820 H   0  0  0  0  0  0  0  0  0  0  0  0
   38.4230   24.1370   42.4270 H   0  0  0  0  0  0  0  0  0  0  0  0
   35.8140   24.5070   38.4310 H   0  0  0  0  0  0  0  0  0  0  0  0
  1  2  1  0  0  0  0
  2  3  2  0  0  0  0
  2  7  1  0  0  0  0
  3  4  1  0  0  0  0
  4  8  1  0  0  0  0
  4  5  2  0  0  0  0
  5  9  1  0  0  0  0
  6  5  1  0  0  0  0
  6 10  1  0  0  0  0
  7  6  2  0  0  0  0
 11  7  1  0  0  0  0
 11 12  1  0  0  0  0
 12 17  1  0  0  0  0
 13 12  2  0  0  0  0
 13 18  1  0  0  0  0
 14 13  1  0  0  0  0
 15 16  1  0  0  0  0
 15 14  2  0  0  0  0
 16 11  2  0  0  0  0
 19 14  1  0  0  0  0
 20 15  1  0  0  0  0
 21 22  1  0  0  0  0
 21 16  1  0  0  0  0
 22 23  1  0  0  0  0
 24 25  1  0  0  0  0
 24 22  1  0  0  0  0
 26 24  1  0  0  0  0
 27 26  1  0  0  0  0
 28 26  1  0  0  0  0
 28 29  1  0  0  0  0
 29 21  1  0  0  0  0
 30 36  1  0  0  0  0
 30 31  1  0  0  0  0
 31 37  1  0  0  0  0
 32 31  2  0  0  0  0
 32  3  1  0  0  0  0
 33 32  1  0  0  0  0
 34 35  1  0  0  0  0
 34 33  2  0  0  0  0
 35 30  2  0  0  0  0
 38 34  1  0  0  0  0
M  END
>  <minimizedAffinity>
-6.10282946

$$$$

 OpenBabel03242522283D

 38 41  0  0  0  0  0  0  0  0999 V2000
   39.0230   27.3000   40.4980 F   0  0  0  0  0  0  0  0  0  0  0  0
   38.2180   27.4260   41.6050 C   0  0  0  0  0  0  0  0  0  0  0  0
   37.4000   26.4130   41.9850 C   0  0  0  0  0  0  0  0  0  0  0  0
   36.6510   26.6150   43.1230 C   0  0  0  0  0  0  0  0  0  0  0  0
   36.7090   27.7770   43.8530 C   0  0  0  0  0  0  0  0  0  0  0  0
   37.5590   28.7460   43.3930 C   0  0  0  0  0  0  0  0  0  0  0  0
   38.3280   28.6100   42.2800 C   0  0  0  0  0  0  0  0  0  0  0  0
   36.0300   25.7260   43.3340 H   0  0  0  0  0  0  0  0  0  0  0  0
   36.0480   27.7070   44.6840 H   0  0  0  0  0  0  0  0  0  0  0  0
   37.3570   29.5230   44.0810 H   0  0  0  0  0  0  0  0  0  0  0  0
   39.1780   29.7130   41.9160 C   0  0  0  0  0  0  0  0  0  0  0  0
   40.2960   29.9880   42.7120 C   0  0  0  0  0  0  0  0  0  0  0  0
   41.0840   31.0480   42.3270 C   0  0  0  0  0  0  0  0  0  0  0  0
   40.7970   31.8290   41.1870 C   0  0  0  0  0  0  0  0  0  0  0  0
   39.6500   31.4900   40.4320 C   0  0  0  0  0  0  0  0  0  0  0  0
   38.8470   30.4370   40.8040 C   0  0  0  0  0  0  0  0  0  0  0  0
   40.6750   29.5120   43.5730 H   0  0  0  0  0  0  0  0  0  0  0  0
   41.9830   31.3500   42.8840 H   0  0  0  0  0  0  0  0  0  0  0  0
   41.4830   32.6550   40.9560 H   0  0  0  0  0  0  0  0  0  0  0  0
   39.5650   32.1580   39.6130 H   0  0  0  0  0  0  0  0  0  0  0  0
   37.7580   30.4700   39.9320 N   0  0  0  0  0  0  0  0  0  0  0  0
   37.5520   30.1710   38.4940 C   0  0  0  0  0  3  0  0  0  0  0  0
   38.4750   30.0330   37.9450 H   0  0  0  0  0  0  0  0  0  0  0  0
   36.6340   28.9860   38.3310 C   0  0  0  0  0  3  0  0  0  0  0  0
   36.5520   28.8210   37.2370 H   0  0  0  0  0  0  0  0  0  0  0  0
   35.3280   29.4250   38.7860 N   0  0  0  0  0  0  0  0  0  0  0  0
   34.7050   28.5900   38.7220 H   0  0  0  0  0  0  0  0  0  0  0  0
   35.4230   29.7620   40.1660 C   0  0  0  0  0  2  0  0  0  0  0  0
   36.4470   30.7950   40.5240 C   0  0  0  0  0  2  0  0  0  0  0  0
   38.0390   22.9060   40.6840 C   0  0  0  0  0  0  0  0  0  0  0  0
   38.0740   24.0580   41.4520 C   0  0  0  0  0  0  0  0  0  0  0  0
   37.3570   25.2090   41.1700 C   0  0  0  0  0  0  0  0  0  0  0  0
   36.6100   25.1200   40.0680 N   0  0  0  0  0  0  0  0  0  0  0  0
   36.5610   24.0130   39.3100 C   0  0  0  0  0  0  0  0  0  0  0  0
   37.2560   22.9250   39.6000 N   0  0  0  0  0  0  0  0  0  0  0  0
   38.6190   22.0680   40.9730 H   0  0  0  0  0  0  0  0  0  0  0  0
   38.7080   24.0430   42.3290 H   0  0  0  0  0  0  0  0  0  0  0  0
   35.9380   23.9900   38.4250 H   0  0  0  0  0  0  0  0  0  0  0  0
  1  2  1  0  0  0  0
  2  3  2  0  0  0  0
  2  7  1  0  0  0  0
  3  4  1  0  0  0  0
  4  8  1  0  0  0  0
  4  5  2  0  0  0  0
  5  9  1  0  0  0  0
  6  5  1  0  0  0  0
  6 10  1  0  0  0  0
  7  6  2  0  0  0  0
 11  7  1  0  0  0  0
 11 12  1  0  0  0  0
 12 17  1  0  0  0  0
 13 12  2  0  0  0  0
 13 18  1  0  0  0  0
 14 13  1  0  0  0  0
 15 16  1  0  0  0  0
 15 14  2  0  0  0  0
 16 11  2  0  0  0  0
 19 14  1  0  0  0  0
 20 15  1  0  0  0  0
 21 29  1  0  0  0  0
 21 16  1  0  0  0  0
 22 21  1  0  0  0  0
 23 22  1  0  0  0  0
 24 22  1  0  0  0  0
 24 26  1  0  0  0  0
 25 24  1  0  0  0  0
 26 28  1  0  0  0  0
 27 26  1  0  0  0  0
 28 29  1  0  0  0  0
 30 36  1  0  0  0  0
 30 31  1  0  0  0  0
 31 37  1  0  0  0  0
 32 31  2  0  0  0  0
 32  3  1  0  0  0  0
 33 32  1  0  0  0  0
 34 35  1  0  0  0  0
 34 33  2  0  0  0  0
 35 30  2  0  0  0  0
 38 34  1  0  0  0  0
M  END
>  <minimizedAffinity>
-5.87815475

$$$$

 OpenBabel03242522283D

 38 41  0  0  0  0  0  0  0  0999 V2000
   37.1880   26.5120   39.3120 F   0  0  0  0  0  0  0  0  0  0  0  0
   36.1230   27.3430   39.0530 C   0  0  0  0  0  0  0  0  0  0  0  0
   35.3490   27.1540   37.9570 C   0  0  0  0  0  0  0  0  0  0  0  0
   34.2870   28.0160   37.7920 C   0  0  0  0  0  0  0  0  0  0  0  0
   34.0070   29.0270   38.6790 C   0  0  0  0  0  0  0  0  0  0  0  0
   34.8440   29.1450   39.7540 C   0  0  0  0  0  0  0  0  0  0  0  0
   35.9070   28.3270   39.9780 C   0  0  0  0  0  0  0  0  0  0  0  0
   33.7290   27.7640   36.8720 H   0  0  0  0  0  0  0  0  0  0  0  0
   33.1470   29.5600   38.3490 H   0  0  0  0  0  0  0  0  0  0  0  0
   34.4490   30.0120   40.2130 H   0  0  0  0  0  0  0  0  0  0  0  0
   36.7010   28.5680   41.1540 C   0  0  0  0  0  0  0  0  0  0  0  0
   36.4260   27.8320   42.3110 C   0  0  0  0  0  0  0  0  0  0  0  0
   37.2100   28.0910   43.4110 C   0  0  0  0  0  0  0  0  0  0  0  0
   38.2480   29.0470   43.3920 C   0  0  0  0  0  0  0  0  0  0  0  0
   38.4680   29.7520   42.1860 C   0  0  0  0  0  0  0  0  0  0  0  0
   37.6910   29.5110   41.0770 C   0  0  0  0  0  0  0  0  0  0  0  0
   35.7170   27.0750   42.5060 H   0  0  0  0  0  0  0  0  0  0  0  0
   37.0750   27.5690   44.3710 H   0  0  0  0  0  0  0  0  0  0  0  0
   38.8230   29.1850   44.3170 H   0  0  0  0  0  0  0  0  0  0  0  0
   39.2730   30.4280   42.3210 H   0  0  0  0  0  0  0  0  0  0  0  0
   38.0860   30.4560   40.1290 N   0  0  0  0  0  0  0  0  0  0  0  0
   38.6210   30.3990   38.7470 C   0  0  0  0  0  3  0  0  0  0  0  0
   38.9150   29.4040   38.4380 H   0  0  0  0  0  0  0  0  0  0  0  0
   37.6380   31.0060   37.7790 C   0  0  0  0  0  3  0  0  0  0  0  0
   38.1050   30.9040   36.7770 H   0  0  0  0  0  0  0  0  0  0  0  0
   37.6020   32.4250   38.0790 N   0  0  0  0  0  0  0  0  0  0  0  0
   36.8830   32.8360   37.4440 H   0  0  0  0  0  0  0  0  0  0  0  0
   37.1180   32.5900   39.4080 C   0  0  0  0  0  2  0  0  0  0  0  0
   37.8790   31.8730   40.4820 C   0  0  0  0  0  2  0  0  0  0  0  0
   35.4300   23.8020   36.1790 C   0  0  0  0  0  0  0  0  0  0  0  0
   35.1090   24.8280   37.0530 C   0  0  0  0  0  0  0  0  0  0  0  0
   35.6940   26.0830   37.0350 C   0  0  0  0  0  0  0  0  0  0  0  0
   36.6180   26.2320   36.0830 N   0  0  0  0  0  0  0  0  0  0  0  0
   36.9440   25.2500   35.2260 C   0  0  0  0  0  0  0  0  0  0  0  0
   36.3700   24.0580   35.2640 N   0  0  0  0  0  0  0  0  0  0  0  0
   34.9320   22.8700   36.2630 H   0  0  0  0  0  0  0  0  0  0  0  0
   34.3480   24.6200   37.7940 H   0  0  0  0  0  0  0  0  0  0  0  0
   37.7000   25.4210   34.4710 H   0  0  0  0  0  0  0  0  0  0  0  0
  2  1  1  0  0  0  0
  2  7  1  0  0  0  0
  3  2  2  0  0  0  0
  4  3  1  0  0  0  0
  4  5  2  0  0  0  0
  5  6  1  0  0  0  0
  6  7  2  0  0  0  0
  6 10  1  0  0  0  0
  7 11  1  0  0  0  0
  8  4  1  0  0  0  0
  9  5  1  0  0  0  0
 11 12  1  0  0  0  0
 12 17  1  0  0  0  0
 12 13  2  0  0  0  0
 13 18  1  0  0  0  0
 14 13  1  0  0  0  0
 14 19  1  0  0  0  0
 15 20  1  0  0  0  0
 15 14  2  0  0  0  0
 16 11  2  0  0  0  0
 16 15  1  0  0  0  0
 21 29  1  0  0  0  0
 21 16  1  0  0  0  0
 22 21  1  0  0  0  0
 23 22  1  0  0  0  0
 24 26  1  0  0  0  0
 24 22  1  0  0  0  0
 25 24  1  0  0  0  0
 26 28  1  0  0  0  0
 27 26  1  0  0  0  0
 28 29  1  0  0  0  0
 30 36  1  0  0  0  0
 30 31  1  0  0  0  0
 31 37  1  0  0  0  0
 32 31  2  0  0  0  0
 32  3  1  0  0  0  0
 33 32  1  0  0  0  0
 34 35  1  0  0  0  0
 34 33  2  0  0  0  0
 35 30  2  0  0  0  0
 38 34  1  0  0  0  0
M  END
>  <minimizedAffinity>
-5.87679577

$$$$

 OpenBabel03242522283D

 38 41  0  0  0  0  0  0  0  0999 V2000
   37.2890   31.0000   37.4340 F   0  0  0  0  0  0  0  0  0  0  0  0
   36.5650   30.4470   38.4650 C   0  0  0  0  0  0  0  0  0  0  0  0
   35.7850   29.3590   38.2560 C   0  0  0  0  0  0  0  0  0  0  0  0
   35.1190   28.8540   39.3510 C   0  0  0  0  0  0  0  0  0  0  0  0
   35.2210   29.4120   40.6030 C   0  0  0  0  0  0  0  0  0  0  0  0
   36.0280   30.5100   40.7190 C   0  0  0  0  0  0  0  0  0  0  0  0
   36.7150   31.0560   39.6800 C   0  0  0  0  0  0  0  0  0  0  0  0
   34.5210   27.9710   39.0620 H   0  0  0  0  0  0  0  0  0  0  0  0
   34.6220   28.8580   41.2870 H   0  0  0  0  0  0  0  0  0  0  0  0
   35.8710   30.7600   41.7340 H   0  0  0  0  0  0  0  0  0  0  0  0
   37.5280   32.2120   39.9500 C   0  0  0  0  0  0  0  0  0  0  0  0
   37.1090   33.4550   39.4610 C   0  0  0  0  0  0  0  0  0  0  0  0
   37.9130   34.5340   39.7440 C   0  0  0  0  0  0  0  0  0  0  0  0
   39.1030   34.4160   40.4910 C   0  0  0  0  0  0  0  0  0  0  0  0
   39.4620   33.1280   40.9530 C   0  0  0  0  0  0  0  0  0  0  0  0
   38.6740   32.0350   40.6760 C   0  0  0  0  0  0  0  0  0  0  0  0
   36.2550   33.7370   38.9100 H   0  0  0  0  0  0  0  0  0  0  0  0
   37.6760   35.5540   39.4030 H   0  0  0  0  0  0  0  0  0  0  0  0
   39.6800   35.3340   40.6700 H   0  0  0  0  0  0  0  0  0  0  0  0
   40.3700   33.1950   41.4960 H   0  0  0  0  0  0  0  0  0  0  0  0
   39.3800   30.9320   41.1580 N   0  0  0  0  0  0  0  0  0  0  0  0
   39.5060   30.2560   42.4720 C   0  0  0  0  0  3  0  0  0  0  0  0
   39.0710   30.8160   43.2900 H   0  0  0  0  0  0  0  0  0  0  0  0
   38.9370   28.8610   42.3990 C   0  0  0  0  0  3  0  0  0  0  0  0
   39.0530   28.4390   43.4200 H   0  0  0  0  0  0  0  0  0  0  0  0
   39.8280   28.1090   41.5350 N   0  0  0  0  0  0  0  0  0  0  0  0
   39.4060   27.1590   41.4440 H   0  0  0  0  0  0  0  0  0  0  0  0
   39.7980   28.6980   40.2390 C   0  0  0  0  0  2  0  0  0  0  0  0
   40.1470   30.1540   40.1670 C   0  0  0  0  0  2  0  0  0  0  0  0
   36.4500   27.3050   35.1350 C   0  0  0  0  0  0  0  0  0  0  0  0
   36.5310   27.8310   36.4140 C   0  0  0  0  0  0  0  0  0  0  0  0
   35.6920   28.8150   36.9110 C   0  0  0  0  0  0  0  0  0  0  0  0
   34.7740   29.2290   36.0350 N   0  0  0  0  0  0  0  0  0  0  0  0
   34.6780   28.7330   34.7910 C   0  0  0  0  0  0  0  0  0  0  0  0
   35.4930   27.7930   34.3400 N   0  0  0  0  0  0  0  0  0  0  0  0
   37.1330   26.5520   34.8360 H   0  0  0  0  0  0  0  0  0  0  0  0
   37.3070   27.4360   37.0570 H   0  0  0  0  0  0  0  0  0  0  0  0
   33.9150   29.1030   34.1190 H   0  0  0  0  0  0  0  0  0  0  0  0
  1  2  1  0  0  0  0
  2  7  1  0  0  0  0
  3  2  2  0  0  0  0
  3  4  1  0  0  0  0
  4  5  2  0  0  0  0
  5  6  1  0  0  0  0
  5  9  1  0  0  0  0
  6 10  1  0  0  0  0
  7 11  1  0  0  0  0
  7  6  2  0  0  0  0
  8  4  1  0  0  0  0
 11 16  1  0  0  0  0
 12 13  1  0  0  0  0
 12 11  2  0  0  0  0
 13 14  2  0  0  0  0
 14 19  1  0  0  0  0
 14 15  1  0  0  0  0
 15 20  1  0  0  0  0
 16 15  2  0  0  0  0
 16 21  1  0  0  0  0
 17 12  1  0  0  0  0
 18 13  1  0  0  0  0
 21 22  1  0  0  0  0
 22 23  1  0  0  0  0
 24 22  1  0  0  0  0
 24 25  1  0  0  0  0
 26 24  1  0  0  0  0
 27 26  1  0  0  0  0
 28 26  1  0  0  0  0
 29 28  1  0  0  0  0
 29 21  1  0  0  0  0
 30 31  1  0  0  0  0
 31 32  2  0  0  0  0
 31 37  1  0  0  0  0
 32  3  1  0  0  0  0
 33 32  1  0  0  0  0
 34 33  2  0  0  0  0
 35 34  1  0  0  0  0
 35 30  2  0  0  0  0
 36 30  1  0  0  0  0
 38 34  1  0  0  0  0
M  END
>  <minimizedAffinity>
-5.81383944

$$$$

 OpenBabel03242522283D

 38 41  0  0  0  0  0  0  0  0999 V2000
   38.6510   29.1670   40.3570 F   0  0  0  0  0  0  0  0  0  0  0  0
   38.0940   28.6610   41.5080 C   0  0  0  0  0  0  0  0  0  0  0  0
   38.7600   28.7260   42.6860 C   0  0  0  0  0  0  0  0  0  0  0  0
   38.1140   28.2220   43.7930 C   0  0  0  0  0  0  0  0  0  0  0  0
   36.8560   27.6720   43.7310 C   0  0  0  0  0  0  0  0  0  0  0  0
   36.2610   27.6450   42.4990 C   0  0  0  0  0  0  0  0  0  0  0  0
   36.8420   28.1280   41.3690 C   0  0  0  0  0  0  0  0  0  0  0  0
   38.7490   28.3310   44.6900 H   0  0  0  0  0  0  0  0  0  0  0  0
   36.5620   27.3510   44.7020 H   0  0  0  0  0  0  0  0  0  0  0  0
   35.3680   27.1270   42.7270 H   0  0  0  0  0  0  0  0  0  0  0  0
   36.0960   28.0350   40.1420 C   0  0  0  0  0  0  0  0  0  0  0  0
   35.1610   29.0340   39.8480 C   0  0  0  0  0  0  0  0  0  0  0  0
   34.4720   28.9080   38.6640 C   0  0  0  0  0  0  0  0  0  0  0  0
   34.6860   27.8350   37.7750 C   0  0  0  0  0  0  0  0  0  0  0  0
   35.6480   26.8630   38.1380 C   0  0  0  0  0  0  0  0  0  0  0  0
   36.3430   26.9690   39.3200 C   0  0  0  0  0  0  0  0  0  0  0  0
   34.8830   29.9060   40.3720 H   0  0  0  0  0  0  0  0  0  0  0  0
   33.7130   29.6370   38.3410 H   0  0  0  0  0  0  0  0  0  0  0  0
   34.0910   27.8180   36.8510 H   0  0  0  0  0  0  0  0  0  0  0  0
   35.7000   26.1260   37.3790 H   0  0  0  0  0  0  0  0  0  0  0  0
   37.0940   25.7960   39.4200 N   0  0  0  0  0  0  0  0  0  0  0  0
   38.5410   25.4740   39.4540 C   0  0  0  0  0  3  0  0  0  0  0  0
   39.1770   26.3130   39.2020 H   0  0  0  0  0  0  0  0  0  0  0  0
   38.9150   24.8860   40.7920 C   0  0  0  0  0  3  0  0  0  0  0  0
   40.0080   24.6960   40.7380 H   0  0  0  0  0  0  0  0  0  0  0  0
   38.2690   23.5890   40.8540 N   0  0  0  0  0  0  0  0  0  0  0  0
   38.4850   23.2040   41.8000 H   0  0  0  0  0  0  0  0  0  0  0  0
   36.8600   23.7870   40.8030 C   0  0  0  0  0  2  0  0  0  0  0  0
   36.3410   24.5440   39.6190 C   0  0  0  0  0  2  0  0  0  0  0  0
   42.5380   29.0830   42.7240 C   0  0  0  0  0  0  0  0  0  0  0  0
   41.2610   28.5470   42.7120 C   0  0  0  0  0  0  0  0  0  0  0  0
   40.0970   29.2990   42.7000 C   0  0  0  0  0  0  0  0  0  0  0  0
   40.3090   30.6160   42.7010 N   0  0  0  0  0  0  0  0  0  0  0  0
   41.5390   31.1560   42.7120 C   0  0  0  0  0  0  0  0  0  0  0  0
   42.6360   30.4160   42.7250 N   0  0  0  0  0  0  0  0  0  0  0  0
   43.3770   28.4340   42.7320 H   0  0  0  0  0  0  0  0  0  0  0  0
   41.1820   27.4680   42.7120 H   0  0  0  0  0  0  0  0  0  0  0  0
   41.6570   32.2310   42.7130 H   0  0  0  0  0  0  0  0  0  0  0  0
  1  2  1  0  0  0  0
  2  3  1  0  0  0  0
  3 32  1  0  0  0  0
  3  4  2  0  0  0  0
  4  8  1  0  0  0  0
  5  4  1  0  0  0  0
  5  9  1  0  0  0  0
  6 10  1  0  0  0  0
  6  5  2  0  0  0  0
  7  2  2  0  0  0  0
  7  6  1  0  0  0  0
 11  7  1  0  0  0  0
 12 11  1  0  0  0  0
 12 17  1  0  0  0  0
 13 12  2  0  0  0  0
 14 15  2  0  0  0  0
 14 13  1  0  0  0  0
 15 16  1  0  0  0  0
 16 21  1  0  0  0  0
 16 11  2  0  0  0  0
 18 13  1  0  0  0  0
 19 14  1  0  0  0  0
 20 15  1  0  0  0  0
 21 22  1  0  0  0  0
 21 29  1  0  0  0  0
 22 24  1  0  0  0  0
 23 22  1  0  0  0  0
 24 26  1  0  0  0  0
 25 24  1  0  0  0  0
 26 27  1  0  0  0  0
 28 26  1  0  0  0  0
 29 28  1  0  0  0  0
 30 35  1  0  0  0  0
 30 36  1  0  0  0  0
 31 30  2  0  0  0  0
 32 33  2  0  0  0  0
 32 31  1  0  0  0  0
 33 34  1  0  0  0  0
 34 38  1  0  0  0  0
 34 35  2  0  0  0  0
 37 31  1  0  0  0  0
M  END
>  <minimizedAffinity>
-5.80446291

$$$$

 OpenBabel03242522283D

 38 41  0  0  0  0  0  0  0  0999 V2000
   38.2110   28.0760   39.9060 F   0  0  0  0  0  0  0  0  0  0  0  0
   37.7370   27.9310   41.1890 C   0  0  0  0  0  0  0  0  0  0  0  0
   37.5710   29.0110   41.9910 C   0  0  0  0  0  0  0  0  0  0  0  0
   37.0640   28.7760   43.2500 C   0  0  0  0  0  0  0  0  0  0  0  0
   36.7370   27.5180   43.6950 C   0  0  0  0  0  0  0  0  0  0  0  0
   36.9420   26.4880   42.8190 C   0  0  0  0  0  0  0  0  0  0  0  0
   37.4350   26.6510   41.5630 C   0  0  0  0  0  0  0  0  0  0  0  0
   36.9700   29.7250   43.8080 H   0  0  0  0  0  0  0  0  0  0  0  0
   36.3670   27.5800   44.6920 H   0  0  0  0  0  0  0  0  0  0  0  0
   36.6800   25.6620   43.4270 H   0  0  0  0  0  0  0  0  0  0  0  0
   37.5960   25.4740   40.7500 C   0  0  0  0  0  0  0  0  0  0  0  0
   36.4930   25.0010   40.0300 C   0  0  0  0  0  0  0  0  0  0  0  0
   36.6900   23.8770   39.2630 C   0  0  0  0  0  0  0  0  0  0  0  0
   37.9370   23.2200   39.1900 C   0  0  0  0  0  0  0  0  0  0  0  0
   39.0060   23.7570   39.9450 C   0  0  0  0  0  0  0  0  0  0  0  0
   38.8270   24.8780   40.7220 C   0  0  0  0  0  0  0  0  0  0  0  0
   35.5060   25.3640   39.9460 H   0  0  0  0  0  0  0  0  0  0  0  0
   35.8880   23.4220   38.6620 H   0  0  0  0  0  0  0  0  0  0  0  0
   38.0010   22.3300   38.5500 H   0  0  0  0  0  0  0  0  0  0  0  0
   39.8710   23.1640   39.7900 H   0  0  0  0  0  0  0  0  0  0  0  0
   40.0250   25.0470   41.4170 N   0  0  0  0  0  0  0  0  0  0  0  0
   41.3220   25.7070   41.1320 C   0  0  0  0  0  3  0  0  0  0  0  0
   41.4360   26.0080   40.0980 H   0  0  0  0  0  0  0  0  0  0  0  0
   41.5350   26.8700   42.0680 C   0  0  0  0  0  3  0  0  0  0  0  0
   42.5090   27.3140   41.7740 H   0  0  0  0  0  0  0  0  0  0  0  0
   41.7200   26.2950   43.3870 N   0  0  0  0  0  0  0  0  0  0  0  0
   41.8160   27.1020   44.0420 H   0  0  0  0  0  0  0  0  0  0  0  0
   40.5260   25.6100   43.7490 C   0  0  0  0  0  2  0  0  0  0  0  0
   40.0620   24.5450   42.8040 C   0  0  0  0  0  2  0  0  0  0  0  0
   39.5760   32.1250   41.1630 C   0  0  0  0  0  0  0  0  0  0  0  0
   39.2060   30.8790   41.6430 C   0  0  0  0  0  0  0  0  0  0  0  0
   37.9480   30.3210   41.4840 C   0  0  0  0  0  0  0  0  0  0  0  0
   37.0960   31.0990   40.8130 N   0  0  0  0  0  0  0  0  0  0  0  0
   37.4350   32.3090   40.3390 C   0  0  0  0  0  0  0  0  0  0  0  0
   38.6440   32.8220   40.5050 N   0  0  0  0  0  0  0  0  0  0  0  0
   40.5620   32.4770   41.3290 H   0  0  0  0  0  0  0  0  0  0  0  0
   39.9610   30.3160   42.1760 H   0  0  0  0  0  0  0  0  0  0  0  0
   36.7070   32.9020   39.8010 H   0  0  0  0  0  0  0  0  0  0  0  0
  1  2  1  0  0  0  0
  2  7  2  0  0  0  0
  2  3  1  0  0  0  0
  3  4  2  0  0  0  0
  4  5  1  0  0  0  0
  4  8  1  0  0  0  0
  5  9  1  0  0  0  0
  6 10  1  0  0  0  0
  6  5  2  0  0  0  0
  7  6  1  0  0  0  0
 11  7  1  0  0  0  0
 12 11  2  0  0  0  0
 13 12  1  0  0  0  0
 14 13  2  0  0  0  0
 14 15  1  0  0  0  0
 15 16  2  0  0  0  0
 16 11  1  0  0  0  0
 16 21  1  0  0  0  0
 17 12  1  0  0  0  0
 18 13  1  0  0  0  0
 19 14  1  0  0  0  0
 20 15  1  0  0  0  0
 21 29  1  0  0  0  0
 22 21  1  0  0  0  0
 22 24  1  0  0  0  0
 23 22  1  0  0  0  0
 24 26  1  0  0  0  0
 25 24  1  0  0  0  0
 26 28  1  0  0  0  0
 26 27  1  0  0  0  0
 29 28  1  0  0  0  0
 30 36  1  0  0  0  0
 30 31  1  0  0  0  0
 31 37  1  0  0  0  0
 32 31  2  0  0  0  0
 32  3  1  0  0  0  0
 33 32  1  0  0  0  0
 34 35  1  0  0  0  0
 34 33  2  0  0  0  0
 35 30  2  0  0  0  0
 38 34  1  0  0  0  0
M  END
>  <minimizedAffinity>
-5.78196907

$$$$

 OpenBabel03242522283D

 38 41  0  0  0  0  0  0  0  0999 V2000
   39.8270   30.5270   38.4490 F   0  0  0  0  0  0  0  0  0  0  0  0
   39.1470   31.5880   38.9990 C   0  0  0  0  0  0  0  0  0  0  0  0
   39.7730   32.7680   39.2280 C   0  0  0  0  0  0  0  0  0  0  0  0
   39.0060   33.7850   39.7530 C   0  0  0  0  0  0  0  0  0  0  0  0
   37.6720   33.6340   40.0430 C   0  0  0  0  0  0  0  0  0  0  0  0
   37.1250   32.4080   39.7830 C   0  0  0  0  0  0  0  0  0  0  0  0
   37.8240   31.3640   39.2620 C   0  0  0  0  0  0  0  0  0  0  0  0
   39.6190   34.6940   39.8930 H   0  0  0  0  0  0  0  0  0  0  0  0
   37.2890   34.5460   40.4380 H   0  0  0  0  0  0  0  0  0  0  0  0
   36.1440   32.5510   40.1520 H   0  0  0  0  0  0  0  0  0  0  0  0
   37.1160   30.1300   39.0400 C   0  0  0  0  0  0  0  0  0  0  0  0
   36.3060   30.0180   37.9040 C   0  0  0  0  0  0  0  0  0  0  0  0
   35.6510   28.8220   37.7270 C   0  0  0  0  0  0  0  0  0  0  0  0
   35.7790   27.7480   38.6330 C   0  0  0  0  0  0  0  0  0  0  0  0
   36.6160   27.9350   39.7580 C   0  0  0  0  0  0  0  0  0  0  0  0
   37.2760   29.1260   39.9550 C   0  0  0  0  0  0  0  0  0  0  0  0
   36.1060   30.6940   37.1190 H   0  0  0  0  0  0  0  0  0  0  0  0
   34.9880   28.6320   36.8690 H   0  0  0  0  0  0  0  0  0  0  0  0
   35.2190   26.8300   38.4090 H   0  0  0  0  0  0  0  0  0  0  0  0
   36.6150   27.0500   40.3410 H   0  0  0  0  0  0  0  0  0  0  0  0
   37.8910   29.0120   41.2020 N   0  0  0  0  0  0  0  0  0  0  0  0
   37.5010   29.3230   42.5990 C   0  0  0  0  0  3  0  0  0  0  0  0
   36.5920   29.9050   42.6750 H   0  0  0  0  0  0  0  0  0  0  0  0
   37.4110   28.0560   43.4120 C   0  0  0  0  0  3  0  0  0  0  0  0
   37.0970   28.3760   44.4280 H   0  0  0  0  0  0  0  0  0  0  0  0
   38.7680   27.5590   43.5320 N   0  0  0  0  0  0  0  0  0  0  0  0
   38.6990   26.6550   44.0510 H   0  0  0  0  0  0  0  0  0  0  0  0
   39.2500   27.2490   42.2290 C   0  0  0  0  0  2  0  0  0  0  0  0
   39.2160   28.3650   41.2300 C   0  0  0  0  0  2  0  0  0  0  0  0
   43.0410   33.5360   37.4580 C   0  0  0  0  0  0  0  0  0  0  0  0
   41.6920   33.4270   37.7560 C   0  0  0  0  0  0  0  0  0  0  0  0
   41.1910   32.8760   38.9240 C   0  0  0  0  0  0  0  0  0  0  0  0
   42.1350   32.4440   39.7620 N   0  0  0  0  0  0  0  0  0  0  0  0
   43.4470   32.5400   39.4930 C   0  0  0  0  0  0  0  0  0  0  0  0
   43.9020   33.0710   38.3690 N   0  0  0  0  0  0  0  0  0  0  0  0
   43.3390   33.9730   36.5390 H   0  0  0  0  0  0  0  0  0  0  0  0
   40.9960   33.8030   37.0190 H   0  0  0  0  0  0  0  0  0  0  0  0
   44.1740   32.1750   40.2060 H   0  0  0  0  0  0  0  0  0  0  0  0
  1  2  1  0  0  0  0
  2  3  2  0  0  0  0
  2  7  1  0  0  0  0
  3  4  1  0  0  0  0
  4  8  1  0  0  0  0
  4  5  2  0  0  0  0
  5  9  1  0  0  0  0
  6  5  1  0  0  0  0
  6 10  1  0  0  0  0
  7  6  2  0  0  0  0
 11  7  1  0  0  0  0
 11 16  1  0  0  0  0
 12 11  2  0  0  0  0
 13 12  1  0  0  0  0
 13 14  2  0  0  0  0
 14 15  1  0  0  0  0
 15 16  2  0  0  0  0
 15 20  1  0  0  0  0
 16 21  1  0  0  0  0
 17 12  1  0  0  0  0
 18 13  1  0  0  0  0
 19 14  1  0  0  0  0
 21 29  1  0  0  0  0
 21 22  1  0  0  0  0
 22 23  1  0  0  0  0
 22 24  1  0  0  0  0
 24 26  1  0  0  0  0
 24 25  1  0  0  0  0
 26 27  1  0  0  0  0
 28 26  1  0  0  0  0
 29 28  1  0  0  0  0
 30 31  2  0  0  0  0
 30 35  1  0  0  0  0
 31 32  1  0  0  0  0
 32  3  1  0  0  0  0
 32 33  2  0  0  0  0
 34 33  1  0  0  0  0
 34 38  1  0  0  0  0
 35 34  2  0  0  0  0
 36 30  1  0  0  0  0
 37 31  1  0  0  0  0
M  END
>  <minimizedAffinity>
-5.7786994

$$$$
