
 OpenBabel03242510103D

 28 30  0  0  0  0  0  0  0  0999 V2000
   40.5960   29.7710   40.1640 Br  0  0  0  0  0  0  0  0  0  0  0  0
   39.0850   30.9330   40.0630 C   0  0  0  0  0  0  0  0  0  0  0  0
   37.9290   30.6140   40.7240 C   0  0  0  0  0  0  0  0  0  0  0  0
   36.8060   31.4590   40.6610 C   0  0  0  0  0  0  0  0  0  0  0  0
   36.9020   32.6040   39.9200 C   0  0  0  0  0  0  0  0  0  0  0  0
   38.0900   32.8810   39.2720 C   0  0  0  0  0  0  0  0  0  0  0  0
   39.1850   32.0800   39.3200 C   0  0  0  0  0  0  0  0  0  0  0  0
   35.8930   31.2270   41.1710 H   0  0  0  0  0  0  0  0  0  0  0  0
   36.0580   33.2750   39.8500 H   0  0  0  0  0  0  0  0  0  0  0  0
   38.1070   33.8080   38.6970 H   0  0  0  0  0  0  0  0  0  0  0  0
   38.1170   28.2950   43.5440 C   0  0  0  0  0  0  0  0  0  0  0  0
   37.7690   27.0470   42.9770 C   0  0  0  0  0  0  0  0  0  0  0  0
   37.4740   27.0410   41.6140 C   0  0  0  0  0  0  0  0  0  0  0  0
   37.5330   28.1970   40.9140 N   0  0  0  0  0  0  0  0  0  0  0  0
   37.8740   29.3850   41.4990 C   0  0  0  0  0  0  0  0  0  0  0  0
   38.1610   29.4020   42.8170 N   0  0  0  0  0  0  0  0  0  0  0  0
   38.3500   28.3230   44.6070 H   0  0  0  0  0  0  0  0  0  0  0  0
   37.7350   26.1430   43.5780 H   0  0  0  0  0  0  0  0  0  0  0  0
   37.2010   26.1210   41.1160 H   0  0  0  0  0  0  0  0  0  0  0  0
   40.3510   32.4770   38.6060 N   0  0  0  0  0  0  0  0  0  0  0  0
   41.4320   33.3340   39.0560 C   0  0  0  0  0  3  0  0  0  0  0  0
   40.9950   34.0430   39.7890 H   0  0  0  0  0  0  0  0  0  0  0  0
   41.9970   34.1610   37.9240 C   0  0  0  0  0  3  0  0  0  0  0  0
   41.1640   34.7730   37.5220 H   0  0  0  0  0  0  0  0  0  0  0  0
   42.6050   33.3320   36.9020 N   0  0  0  0  0  0  0  0  0  0  0  0
   42.3770   33.7340   35.9770 H   0  0  0  0  0  0  0  0  0  0  0  0
   42.1050   31.9700   37.0650 C   0  0  0  0  0  2  0  0  0  0  0  0
   40.5890   32.0170   37.2300 C   0  0  0  0  0  2  0  0  0  0  0  0
  2  1  1  0  0  0  0
  2  3  1  0  0  0  0
  3 15  1  0  0  0  0
  4  3  2  0  0  0  0
  4  8  1  0  0  0  0
  5  4  1  0  0  0  0
  6  7  1  0  0  0  0
  6  5  2  0  0  0  0
  7  2  2  0  0  0  0
  9  5  1  0  0  0  0
 10  6  1  0  0  0  0
 11 17  1  0  0  0  0
 12 11  1  0  0  0  0
 12 18  1  0  0  0  0
 13 12  2  0  0  0  0
 14 15  2  0  0  0  0
 14 13  1  0  0  0  0
 15 16  1  0  0  0  0
 16 11  2  0  0  0  0
 19 13  1  0  0  0  0
 20 21  1  0  0  0  0
 20  7  1  0  0  0  0
 21 22  1  0  0  0  0
 23 21  1  0  0  0  0
 24 23  1  0  0  0  0
 25 27  1  0  0  0  0
 25 23  1  0  0  0  0
 26 25  1  0  0  0  0
 27 28  1  0  0  0  0
 28 20  1  0  0  0  0
M  END
>  <minimizedAffinity>
-5.09336615

$$$$

 OpenBabel03242510103D

 28 30  0  0  0  0  0  0  0  0999 V2000
   38.3870   27.8270   38.9480 Br  0  0  0  0  0  0  0  0  0  0  0  0
   38.7650   28.7810   40.5580 C   0  0  0  0  0  0  0  0  0  0  0  0
   38.7650   28.1260   41.7600 C   0  0  0  0  0  0  0  0  0  0  0  0
   39.0420   28.8130   42.9560 C   0  0  0  0  0  0  0  0  0  0  0  0
   39.3090   30.1520   42.8830 C   0  0  0  0  0  0  0  0  0  0  0  0
   39.2970   30.7670   41.6460 C   0  0  0  0  0  0  0  0  0  0  0  0
   39.0330   30.1230   40.4800 C   0  0  0  0  0  0  0  0  0  0  0  0
   39.0470   28.3180   43.9060 H   0  0  0  0  0  0  0  0  0  0  0  0
   39.5250   30.7110   43.7820 H   0  0  0  0  0  0  0  0  0  0  0  0
   39.5180   31.8350   41.6500 H   0  0  0  0  0  0  0  0  0  0  0  0
   36.9320   24.9770   42.0600 C   0  0  0  0  0  0  0  0  0  0  0  0
   37.9210   23.9890   41.8440 C   0  0  0  0  0  0  0  0  0  0  0  0
   39.2150   24.4460   41.5970 C   0  0  0  0  0  0  0  0  0  0  0  0
   39.4600   25.7760   41.5750 N   0  0  0  0  0  0  0  0  0  0  0  0
   38.4750   26.7010   41.7890 C   0  0  0  0  0  0  0  0  0  0  0  0
   37.2200   26.2700   42.0290 N   0  0  0  0  0  0  0  0  0  0  0  0
   35.9140   24.6430   42.2540 H   0  0  0  0  0  0  0  0  0  0  0  0
   37.6790   22.9320   41.8710 H   0  0  0  0  0  0  0  0  0  0  0  0
   40.0210   23.7460   41.4240 H   0  0  0  0  0  0  0  0  0  0  0  0
   39.0510   30.8710   39.2700 N   0  0  0  0  0  0  0  0  0  0  0  0
   37.9890   31.6740   38.6930 C   0  0  0  0  0  3  0  0  0  0  0  0
   37.0300   31.2200   39.0180 H   0  0  0  0  0  0  0  0  0  0  0  0
   38.0110   31.6280   37.1830 C   0  0  0  0  0  3  0  0  0  0  0  0
   37.8910   30.5660   36.8880 H   0  0  0  0  0  0  0  0  0  0  0  0
   39.2260   32.2080   36.6430 N   0  0  0  0  0  0  0  0  0  0  0  0
   39.5300   31.6360   35.8360 H   0  0  0  0  0  0  0  0  0  0  0  0
   40.2200   32.2540   37.7110 C   0  0  0  0  0  2  0  0  0  0  0  0
   40.2490   30.9020   38.4170 C   0  0  0  0  0  2  0  0  0  0  0  0
  1  2  1  0  0  0  0
  2  3  1  0  0  0  0
  3 15  1  0  0  0  0
  3  4  2  0  0  0  0
  4  8  1  0  0  0  0
  5  4  1  0  0  0  0
  5  9  1  0  0  0  0
  6 10  1  0  0  0  0
  6  5  2  0  0  0  0
  7  2  2  0  0  0  0
  7  6  1  0  0  0  0
 11 17  1  0  0  0  0
 12 18  1  0  0  0  0
 12 11  2  0  0  0  0
 13 12  1  0  0  0  0
 14 13  2  0  0  0  0
 14 15  1  0  0  0  0
 15 16  2  0  0  0  0
 16 11  1  0  0  0  0
 19 13  1  0  0  0  0
 20  7  1  0  0  0  0
 21 22  1  0  0  0  0
 21 20  1  0  0  0  0
 23 21  1  0  0  0  0
 24 23  1  0  0  0  0
 25 23  1  0  0  0  0
 25 27  1  0  0  0  0
 26 25  1  0  0  0  0
 27 28  1  0  0  0  0
 28 20  1  0  0  0  0
M  END
>  <minimizedAffinity>
-5.03541422

$$$$

 OpenBabel03242510103D

 28 30  0  0  0  0  0  0  0  0999 V2000
   38.0030   28.0560   39.0810 Br  0  0  0  0  0  0  0  0  0  0  0  0
   37.7210   27.9200   40.9640 C   0  0  0  0  0  0  0  0  0  0  0  0
   37.6010   26.6900   41.5530 C   0  0  0  0  0  0  0  0  0  0  0  0
   37.3930   26.5710   42.9400 C   0  0  0  0  0  0  0  0  0  0  0  0
   37.3140   27.7180   43.6790 C   0  0  0  0  0  0  0  0  0  0  0  0
   37.4420   28.9350   43.0380 C   0  0  0  0  0  0  0  0  0  0  0  0
   37.6420   29.0720   41.7020 C   0  0  0  0  0  0  0  0  0  0  0  0
   37.2970   25.6180   43.4180 H   0  0  0  0  0  0  0  0  0  0  0  0
   37.1550   27.6640   44.7470 H   0  0  0  0  0  0  0  0  0  0  0  0
   37.3700   29.8150   43.6790 H   0  0  0  0  0  0  0  0  0  0  0  0
   36.6350   23.8670   39.4400 C   0  0  0  0  0  0  0  0  0  0  0  0
   37.8630   23.2280   39.1500 C   0  0  0  0  0  0  0  0  0  0  0  0
   39.0090   23.7990   39.7020 C   0  0  0  0  0  0  0  0  0  0  0  0
   38.8990   24.9080   40.4680 N   0  0  0  0  0  0  0  0  0  0  0  0
   37.6920   25.4970   40.7250 C   0  0  0  0  0  0  0  0  0  0  0  0
   36.5770   24.9530   40.1960 N   0  0  0  0  0  0  0  0  0  0  0  0
   35.7270   23.4390   39.0190 H   0  0  0  0  0  0  0  0  0  0  0  0
   37.9040   22.3380   38.5290 H   0  0  0  0  0  0  0  0  0  0  0  0
   39.9810   23.3620   39.5210 H   0  0  0  0  0  0  0  0  0  0  0  0
   37.7570   30.3830   41.1610 N   0  0  0  0  0  0  0  0  0  0  0  0
   38.9650   31.1430   40.8940 C   0  0  0  0  0  3  0  0  0  0  0  0
   39.7240   30.8070   41.6300 H   0  0  0  0  0  0  0  0  0  0  0  0
   38.7540   32.6230   41.1200 C   0  0  0  0  0  3  0  0  0  0  0  0
   38.4470   32.7500   42.1780 H   0  0  0  0  0  0  0  0  0  0  0  0
   37.7790   33.1750   40.2000 N   0  0  0  0  0  0  0  0  0  0  0  0
   37.1980   33.8600   40.7140 H   0  0  0  0  0  0  0  0  0  0  0  0
   36.9970   32.0710   39.6510 C   0  0  0  0  0  2  0  0  0  0  0  0
   36.5630   31.1570   40.7920 C   0  0  0  0  0  2  0  0  0  0  0  0
  1  2  1  0  0  0  0
  2  3  2  0  0  0  0
  2  7  1  0  0  0  0
  3  4  1  0  0  0  0
  4  8  1  0  0  0  0
  4  5  2  0  0  0  0
  5  9  1  0  0  0  0
  6 10  1  0  0  0  0
  6  5  1  0  0  0  0
  7  6  2  0  0  0  0
 11 16  1  0  0  0  0
 12 11  2  0  0  0  0
 12 13  1  0  0  0  0
 13 14  2  0  0  0  0
 14 15  1  0  0  0  0
 15  3  1  0  0  0  0
 16 15  2  0  0  0  0
 17 11  1  0  0  0  0
 18 12  1  0  0  0  0
 19 13  1  0  0  0  0
 20  7  1  0  0  0  0
 21 23  1  0  0  0  0
 21 20  1  0  0  0  0
 21 22  1  0  0  0  0
 23 24  1  0  0  0  0
 25 26  1  0  0  0  0
 25 23  1  0  0  0  0
 27 25  1  0  0  0  0
 27 28  1  0  0  0  0
 28 20  1  0  0  0  0
M  END
>  <minimizedAffinity>
-4.95868349

$$$$

 OpenBabel03242510103D

 28 30  0  0  0  0  0  0  0  0999 V2000
   40.4990   29.2700   41.2300 Br  0  0  0  0  0  0  0  0  0  0  0  0
   38.5940   29.2110   41.1310 C   0  0  0  0  0  0  0  0  0  0  0  0
   37.9230   28.0730   41.4910 C   0  0  0  0  0  0  0  0  0  0  0  0
   36.5180   28.0120   41.4250 C   0  0  0  0  0  0  0  0  0  0  0  0
   35.8460   29.1200   40.9900 C   0  0  0  0  0  0  0  0  0  0  0  0
   36.5680   30.2430   40.6380 C   0  0  0  0  0  0  0  0  0  0  0  0
   37.9230   30.3230   40.6950 C   0  0  0  0  0  0  0  0  0  0  0  0
   35.9760   27.1310   41.7020 H   0  0  0  0  0  0  0  0  0  0  0  0
   34.7670   29.1070   40.9260 H   0  0  0  0  0  0  0  0  0  0  0  0
   35.9770   31.0960   40.2990 H   0  0  0  0  0  0  0  0  0  0  0  0
   39.7810   25.8010   43.6690 C   0  0  0  0  0  0  0  0  0  0  0  0
   40.1250   24.7240   42.8190 C   0  0  0  0  0  0  0  0  0  0  0  0
   39.6980   24.8150   41.4940 C   0  0  0  0  0  0  0  0  0  0  0  0
   38.9940   25.8980   41.0940 N   0  0  0  0  0  0  0  0  0  0  0  0
   38.6810   26.9190   41.9480 C   0  0  0  0  0  0  0  0  0  0  0  0
   39.0890   26.8410   43.2310 N   0  0  0  0  0  0  0  0  0  0  0  0
   40.1040   25.7500   44.7080 H   0  0  0  0  0  0  0  0  0  0  0  0
   40.6930   23.8740   43.1840 H   0  0  0  0  0  0  0  0  0  0  0  0
   39.9270   24.0280   40.7890 H   0  0  0  0  0  0  0  0  0  0  0  0
   38.5500   31.5400   40.3040 N   0  0  0  0  0  0  0  0  0  0  0  0
   38.9280   32.6650   41.1390 C   0  0  0  0  0  3  0  0  0  0  0  0
   38.2150   32.6880   41.9880 H   0  0  0  0  0  0  0  0  0  0  0  0
   38.7850   33.9780   40.4050 C   0  0  0  0  0  3  0  0  0  0  0  0
   37.7220   34.0660   40.1010 H   0  0  0  0  0  0  0  0  0  0  0  0
   39.6840   34.0620   39.2700 N   0  0  0  0  0  0  0  0  0  0  0  0
   39.1840   34.5250   38.4910 H   0  0  0  0  0  0  0  0  0  0  0  0
   40.1210   32.7100   38.9360 C   0  0  0  0  0  2  0  0  0  0  0  0
   38.9030   31.7920   38.8990 C   0  0  0  0  0  2  0  0  0  0  0  0
  2  1  1  0  0  0  0
  2  3  1  0  0  0  0
  3 15  1  0  0  0  0
  4  3  2  0  0  0  0
  4  8  1  0  0  0  0
  5  4  1  0  0  0  0
  6  7  1  0  0  0  0
  6  5  2  0  0  0  0
  7  2  2  0  0  0  0
  9  5  1  0  0  0  0
 10  6  1  0  0  0  0
 11 17  1  0  0  0  0
 12 18  1  0  0  0  0
 12 11  2  0  0  0  0
 13 12  1  0  0  0  0
 14 13  2  0  0  0  0
 14 15  1  0  0  0  0
 15 16  2  0  0  0  0
 16 11  1  0  0  0  0
 19 13  1  0  0  0  0
 20  7  1  0  0  0  0
 20 21  1  0  0  0  0
 21 22  1  0  0  0  0
 23 21  1  0  0  0  0
 24 23  1  0  0  0  0
 25 23  1  0  0  0  0
 26 25  1  0  0  0  0
 27 25  1  0  0  0  0
 28 27  1  0  0  0  0
 28 20  1  0  0  0  0
M  END
>  <minimizedAffinity>
-4.93823051

$$$$

 OpenBabel03242510103D

 28 30  0  0  0  0  0  0  0  0999 V2000
   40.4510   29.2940   41.0140 Br  0  0  0  0  0  0  0  0  0  0  0  0
   38.5440   29.2400   40.9850 C   0  0  0  0  0  0  0  0  0  0  0  0
   37.8820   28.1250   41.4230 C   0  0  0  0  0  0  0  0  0  0  0  0
   36.4760   28.0680   41.4090 C   0  0  0  0  0  0  0  0  0  0  0  0
   35.7920   29.1560   40.9450 C   0  0  0  0  0  0  0  0  0  0  0  0
   36.5050   30.2580   40.5140 C   0  0  0  0  0  0  0  0  0  0  0  0
   37.8620   30.3340   40.5200 C   0  0  0  0  0  0  0  0  0  0  0  0
   35.9410   27.2040   41.7480 H   0  0  0  0  0  0  0  0  0  0  0  0
   34.7110   29.1460   40.9200 H   0  0  0  0  0  0  0  0  0  0  0  0
   35.9060   31.0960   40.1560 H   0  0  0  0  0  0  0  0  0  0  0  0
   39.6470   24.9250   41.4990 C   0  0  0  0  0  0  0  0  0  0  0  0
   40.1180   24.8300   42.8290 C   0  0  0  0  0  0  0  0  0  0  0  0
   39.8060   25.8920   43.6780 C   0  0  0  0  0  0  0  0  0  0  0  0
   39.0890   26.9360   43.2030 N   0  0  0  0  0  0  0  0  0  0  0  0
   38.6520   26.9900   41.9080 C   0  0  0  0  0  0  0  0  0  0  0  0
   38.9480   25.9680   41.0790 N   0  0  0  0  0  0  0  0  0  0  0  0
   39.8800   24.1060   40.8190 H   0  0  0  0  0  0  0  0  0  0  0  0
   40.6910   23.9720   43.1670 H   0  0  0  0  0  0  0  0  0  0  0  0
   40.1340   25.8860   44.7080 H   0  0  0  0  0  0  0  0  0  0  0  0
   38.4790   31.5260   40.0490 N   0  0  0  0  0  0  0  0  0  0  0  0
   38.9460   31.8290   38.7080 C   0  0  0  0  0  3  0  0  0  0  0  0
   39.2420   30.8640   38.2470 H   0  0  0  0  0  0  0  0  0  0  0  0
   40.1780   32.7050   38.7310 C   0  0  0  0  0  3  0  0  0  0  0  0
   40.9580   32.1540   39.2940 H   0  0  0  0  0  0  0  0  0  0  0  0
   39.9030   34.0050   39.3110 N   0  0  0  0  0  0  0  0  0  0  0  0
   40.7140   34.2800   39.8930 H   0  0  0  0  0  0  0  0  0  0  0  0
   38.6650   33.9080   40.0770 C   0  0  0  0  0  2  0  0  0  0  0  0
   38.7210   32.6600   40.9530 C   0  0  0  0  0  2  0  0  0  0  0  0
  2  1  1  0  0  0  0
  2  3  1  0  0  0  0
  3 15  1  0  0  0  0
  4  3  2  0  0  0  0
  4  8  1  0  0  0  0
  5  4  1  0  0  0  0
  6  7  1  0  0  0  0
  6  5  2  0  0  0  0
  7  2  2  0  0  0  0
  9  5  1  0  0  0  0
 10  6  1  0  0  0  0
 11 12  1  0  0  0  0
 12 18  1  0  0  0  0
 12 13  2  0  0  0  0
 13 19  1  0  0  0  0
 14 13  1  0  0  0  0
 15 14  2  0  0  0  0
 16 11  2  0  0  0  0
 16 15  1  0  0  0  0
 17 11  1  0  0  0  0
 20  7  1  0  0  0  0
 20 28  1  0  0  0  0
 21 23  1  0  0  0  0
 21 20  1  0  0  0  0
 22 21  1  0  0  0  0
 23 24  1  0  0  0  0
 23 25  1  0  0  0  0
 25 26  1  0  0  0  0
 25 27  1  0  0  0  0
 27 28  1  0  0  0  0
M  END
>  <minimizedAffinity>
-4.92014742

$$$$

 OpenBabel03242510103D

 28 30  0  0  0  0  0  0  0  0999 V2000
   37.8080   27.9160   39.0260 Br  0  0  0  0  0  0  0  0  0  0  0  0
   37.7220   28.0400   40.9290 C   0  0  0  0  0  0  0  0  0  0  0  0
   37.6850   26.9020   41.6900 C   0  0  0  0  0  0  0  0  0  0  0  0
   37.6220   26.9740   43.0940 C   0  0  0  0  0  0  0  0  0  0  0  0
   37.5980   28.2110   43.6740 C   0  0  0  0  0  0  0  0  0  0  0  0
   37.6380   29.3290   42.8640 C   0  0  0  0  0  0  0  0  0  0  0  0
   37.6990   29.2820   41.5080 C   0  0  0  0  0  0  0  0  0  0  0  0
   37.5920   26.0950   43.7050 H   0  0  0  0  0  0  0  0  0  0  0  0
   37.5490   28.3030   44.7500 H   0  0  0  0  0  0  0  0  0  0  0  0
   37.6170   30.2880   43.3830 H   0  0  0  0  0  0  0  0  0  0  0  0
   36.5590   23.8070   40.1030 C   0  0  0  0  0  0  0  0  0  0  0  0
   37.7620   23.1430   39.7670 C   0  0  0  0  0  0  0  0  0  0  0  0
   38.9480   23.7940   40.1030 C   0  0  0  0  0  0  0  0  0  0  0  0
   38.8970   24.9980   40.7190 N   0  0  0  0  0  0  0  0  0  0  0  0
   37.7120   25.6070   41.0270 C   0  0  0  0  0  0  0  0  0  0  0  0
   36.5590   24.9860   40.7060 N   0  0  0  0  0  0  0  0  0  0  0  0
   35.6200   23.3170   39.8490 H   0  0  0  0  0  0  0  0  0  0  0  0
   37.7550   22.1770   39.2720 H   0  0  0  0  0  0  0  0  0  0  0  0
   39.9040   23.3440   39.8760 H   0  0  0  0  0  0  0  0  0  0  0  0
   37.7350   30.5070   40.7840 N   0  0  0  0  0  0  0  0  0  0  0  0
   36.6320   31.2170   40.1620 C   0  0  0  0  0  3  0  0  0  0  0  0
   35.8840   30.4520   39.8680 H   0  0  0  0  0  0  0  0  0  0  0  0
   37.0650   31.9220   38.8980 C   0  0  0  0  0  3  0  0  0  0  0  0
   37.4580   31.1450   38.2100 H   0  0  0  0  0  0  0  0  0  0  0  0
   38.0450   32.9560   39.1660 N   0  0  0  0  0  0  0  0  0  0  0  0
   38.7510   32.9420   38.4090 H   0  0  0  0  0  0  0  0  0  0  0  0
   38.6230   32.7040   40.4820 C   0  0  0  0  0  2  0  0  0  0  0  0
   38.9990   31.2290   40.5830 C   0  0  0  0  0  2  0  0  0  0  0  0
  1  2  1  0  0  0  0
  2  7  2  0  0  0  0
  2  3  1  0  0  0  0
  3  4  2  0  0  0  0
  4  5  1  0  0  0  0
  4  8  1  0  0  0  0
  5  9  1  0  0  0  0
  6 10  1  0  0  0  0
  6  5  2  0  0  0  0
  7  6  1  0  0  0  0
 11 16  1  0  0  0  0
 12 11  2  0  0  0  0
 12 13  1  0  0  0  0
 13 14  2  0  0  0  0
 14 15  1  0  0  0  0
 15  3  1  0  0  0  0
 16 15  2  0  0  0  0
 17 11  1  0  0  0  0
 18 12  1  0  0  0  0
 19 13  1  0  0  0  0
 20  7  1  0  0  0  0
 21 20  1  0  0  0  0
 22 21  1  0  0  0  0
 23 25  1  0  0  0  0
 23 21  1  0  0  0  0
 24 23  1  0  0  0  0
 25 27  1  0  0  0  0
 26 25  1  0  0  0  0
 27 28  1  0  0  0  0
 28 20  1  0  0  0  0
M  END
>  <minimizedAffinity>
-4.89241266

$$$$

 OpenBabel03242510103D

 28 30  0  0  0  0  0  0  0  0999 V2000
   40.4930   28.8580   41.0940 Br  0  0  0  0  0  0  0  0  0  0  0  0
   38.5870   28.9270   41.0460 C   0  0  0  0  0  0  0  0  0  0  0  0
   37.9520   30.0550   40.6000 C   0  0  0  0  0  0  0  0  0  0  0  0
   36.5470   30.1240   40.5580 C   0  0  0  0  0  0  0  0  0  0  0  0
   35.8360   29.0340   40.9770 C   0  0  0  0  0  0  0  0  0  0  0  0
   36.5230   27.9200   41.4180 C   0  0  0  0  0  0  0  0  0  0  0  0
   37.8780   27.8320   41.4670 C   0  0  0  0  0  0  0  0  0  0  0  0
   36.0330   30.9970   40.2110 H   0  0  0  0  0  0  0  0  0  0  0  0
   34.7560   29.0520   40.9580 H   0  0  0  0  0  0  0  0  0  0  0  0
   35.9030   27.0810   41.7390 H   0  0  0  0  0  0  0  0  0  0  0  0
   39.7590   33.2320   40.6510 C   0  0  0  0  0  0  0  0  0  0  0  0
   40.2690   33.3520   39.3370 C   0  0  0  0  0  0  0  0  0  0  0  0
   39.9680   32.3140   38.4550 C   0  0  0  0  0  0  0  0  0  0  0  0
   39.2240   31.2690   38.8840 N   0  0  0  0  0  0  0  0  0  0  0  0
   38.7500   31.1900   40.1640 C   0  0  0  0  0  0  0  0  0  0  0  0
   39.0350   32.1880   41.0250 N   0  0  0  0  0  0  0  0  0  0  0  0
   39.9830   34.0310   41.3570 H   0  0  0  0  0  0  0  0  0  0  0  0
   40.8620   34.2100   39.0370 H   0  0  0  0  0  0  0  0  0  0  0  0
   40.3250   32.3410   37.4350 H   0  0  0  0  0  0  0  0  0  0  0  0
   38.4660   26.6270   41.9430 N   0  0  0  0  0  0  0  0  0  0  0  0
   38.7890   25.4270   41.1940 C   0  0  0  0  0  3  0  0  0  0  0  0
   38.0610   25.3650   40.3590 H   0  0  0  0  0  0  0  0  0  0  0  0
   38.6090   24.1810   42.0310 C   0  0  0  0  0  3  0  0  0  0  0  0
   37.5490   24.1570   42.3550 H   0  0  0  0  0  0  0  0  0  0  0  0
   39.5230   24.1520   43.1570 N   0  0  0  0  0  0  0  0  0  0  0  0
   39.0190   23.7700   43.9760 H   0  0  0  0  0  0  0  0  0  0  0  0
   40.0140   25.5080   43.3780 C   0  0  0  0  0  2  0  0  0  0  0  0
   38.8320   26.4720   43.3580 C   0  0  0  0  0  2  0  0  0  0  0  0
  2  1  1  0  0  0  0
  2  7  1  0  0  0  0
  3  2  2  0  0  0  0
  4  3  1  0  0  0  0
  4  5  2  0  0  0  0
  5  6  1  0  0  0  0
  6  7  2  0  0  0  0
  6 10  1  0  0  0  0
  7 20  1  0  0  0  0
  8  4  1  0  0  0  0
  9  5  1  0  0  0  0
 11 16  1  0  0  0  0
 11 17  1  0  0  0  0
 12 11  2  0  0  0  0
 13 14  2  0  0  0  0
 13 12  1  0  0  0  0
 14 15  1  0  0  0  0
 15  3  1  0  0  0  0
 15 16  2  0  0  0  0
 18 12  1  0  0  0  0
 19 13  1  0  0  0  0
 20 28  1  0  0  0  0
 21 20  1  0  0  0  0
 21 23  1  0  0  0  0
 22 21  1  0  0  0  0
 23 24  1  0  0  0  0
 23 25  1  0  0  0  0
 25 27  1  0  0  0  0
 25 26  1  0  0  0  0
 28 27  1  0  0  0  0
M  END
>  <minimizedAffinity>
-4.74663401

$$$$

 OpenBabel03242510103D

 28 30  0  0  0  0  0  0  0  0999 V2000
   39.9320   28.3980   40.3830 Br  0  0  0  0  0  0  0  0  0  0  0  0
   38.1000   28.9330   40.4090 C   0  0  0  0  0  0  0  0  0  0  0  0
   37.7390   30.1670   39.9400 C   0  0  0  0  0  0  0  0  0  0  0  0
   36.3930   30.5780   39.9510 C   0  0  0  0  0  0  0  0  0  0  0  0
   35.4590   29.7100   40.4430 C   0  0  0  0  0  0  0  0  0  0  0  0
   35.8730   28.4760   40.9040 C   0  0  0  0  0  0  0  0  0  0  0  0
   37.1670   28.0600   40.9030 C   0  0  0  0  0  0  0  0  0  0  0  0
   36.0910   31.5400   39.5880 H   0  0  0  0  0  0  0  0  0  0  0  0
   34.4160   29.9930   40.4670 H   0  0  0  0  0  0  0  0  0  0  0  0
   35.0840   27.8260   41.2850 H   0  0  0  0  0  0  0  0  0  0  0  0
   40.3390   32.7340   39.8080 C   0  0  0  0  0  0  0  0  0  0  0  0
   40.7270   32.7520   38.4480 C   0  0  0  0  0  0  0  0  0  0  0  0
   40.0680   31.8620   37.6000 C   0  0  0  0  0  0  0  0  0  0  0  0
   39.1140   31.0440   38.1020 N   0  0  0  0  0  0  0  0  0  0  0  0
   38.7680   31.0570   39.4250 C   0  0  0  0  0  0  0  0  0  0  0  0
   39.3990   31.9140   40.2540 N   0  0  0  0  0  0  0  0  0  0  0  0
   40.8410   33.4200   40.4880 H   0  0  0  0  0  0  0  0  0  0  0  0
   41.4980   33.4260   38.0890 H   0  0  0  0  0  0  0  0  0  0  0  0
   40.3130   31.8230   36.5480 H   0  0  0  0  0  0  0  0  0  0  0  0
   37.4650   26.7630   41.4060 N   0  0  0  0  0  0  0  0  0  0  0  0
   38.0290   26.4060   42.6960 C   0  0  0  0  0  3  0  0  0  0  0  0
   38.6690   27.2550   43.0110 H   0  0  0  0  0  0  0  0  0  0  0  0
   38.9210   25.1910   42.5980 C   0  0  0  0  0  3  0  0  0  0  0  0
   39.7300   25.4380   41.8810 H   0  0  0  0  0  0  0  0  0  0  0  0
   38.1810   24.0100   42.1970 N   0  0  0  0  0  0  0  0  0  0  0  0
   38.7680   23.4640   41.5430 H   0  0  0  0  0  0  0  0  0  0  0  0
   36.9230   24.4440   41.5990 C   0  0  0  0  0  2  0  0  0  0  0  0
   37.2090   25.5610   40.6000 C   0  0  0  0  0  2  0  0  0  0  0  0
  1  2  1  0  0  0  0
  2  7  1  0  0  0  0
  3  4  1  0  0  0  0
  3  2  2  0  0  0  0
  4  5  2  0  0  0  0
  5  9  1  0  0  0  0
  5  6  1  0  0  0  0
  6 10  1  0  0  0  0
  7  6  2  0  0  0  0
  7 20  1  0  0  0  0
  8  4  1  0  0  0  0
 11 16  1  0  0  0  0
 11 17  1  0  0  0  0
 12 11  2  0  0  0  0
 13 14  2  0  0  0  0
 13 12  1  0  0  0  0
 14 15  1  0  0  0  0
 15  3  1  0  0  0  0
 15 16  2  0  0  0  0
 18 12  1  0  0  0  0
 19 13  1  0  0  0  0
 20 21  1  0  0  0  0
 21 22  1  0  0  0  0
 23 21  1  0  0  0  0
 24 23  1  0  0  0  0
 25 23  1  0  0  0  0
 26 25  1  0  0  0  0
 27 25  1  0  0  0  0
 28 20  1  0  0  0  0
 28 27  1  0  0  0  0
M  END
>  <minimizedAffinity>
-4.6976409

$$$$

 OpenBabel03242510103D

 28 30  0  0  0  0  0  0  0  0999 V2000
   40.9260   30.2950   40.6110 Br  0  0  0  0  0  0  0  0  0  0  0  0
   39.2960   31.2480   40.3320 C   0  0  0  0  0  0  0  0  0  0  0  0
   39.3000   32.4220   39.6270 C   0  0  0  0  0  0  0  0  0  0  0  0
   38.1080   33.1380   39.4120 C   0  0  0  0  0  0  0  0  0  0  0  0
   36.9490   32.6280   39.9260 C   0  0  0  0  0  0  0  0  0  0  0  0
   36.9970   31.4400   40.6290 C   0  0  0  0  0  0  0  0  0  0  0  0
   38.1360   30.7340   40.8490 C   0  0  0  0  0  0  0  0  0  0  0  0
   38.0910   34.0580   38.8630 H   0  0  0  0  0  0  0  0  0  0  0  0
   36.0150   33.1520   39.7800 H   0  0  0  0  0  0  0  0  0  0  0  0
   36.0420   31.0830   41.0150 H   0  0  0  0  0  0  0  0  0  0  0  0
   42.5080   34.1610   39.4090 C   0  0  0  0  0  0  0  0  0  0  0  0
   42.9520   33.8860   38.0950 C   0  0  0  0  0  0  0  0  0  0  0  0
   42.1170   33.0950   37.3070 C   0  0  0  0  0  0  0  0  0  0  0  0
   40.9520   32.6380   37.8220 N   0  0  0  0  0  0  0  0  0  0  0  0
   40.5580   32.9260   39.0990 C   0  0  0  0  0  0  0  0  0  0  0  0
   41.3580   33.6910   39.8690 N   0  0  0  0  0  0  0  0  0  0  0  0
   43.1460   34.7770   40.0420 H   0  0  0  0  0  0  0  0  0  0  0  0
   43.8960   34.2750   37.7240 H   0  0  0  0  0  0  0  0  0  0  0  0
   42.3940   32.8460   36.2920 H   0  0  0  0  0  0  0  0  0  0  0  0
   38.0540   29.5220   41.5900 N   0  0  0  0  0  0  0  0  0  0  0  0
   38.3530   29.3040   42.9930 C   0  0  0  0  0  3  0  0  0  0  0  0
   39.1340   30.0410   43.2730 H   0  0  0  0  0  0  0  0  0  0  0  0
   38.9360   27.9300   43.2320 C   0  0  0  0  0  3  0  0  0  0  0  0
   39.8630   27.8600   42.6270 H   0  0  0  0  0  0  0  0  0  0  0  0
   37.9920   26.8800   42.9050 N   0  0  0  0  0  0  0  0  0  0  0  0
   38.5090   26.1070   42.4490 H   0  0  0  0  0  0  0  0  0  0  0  0
   36.9570   27.4500   42.0500 C   0  0  0  0  0  2  0  0  0  0  0  0
   37.6210   28.2710   40.9490 C   0  0  0  0  0  2  0  0  0  0  0  0
  2  1  1  0  0  0  0
  2  7  1  0  0  0  0
  3  2  2  0  0  0  0
  4  3  1  0  0  0  0
  4  5  2  0  0  0  0
  5  6  1  0  0  0  0
  6  7  2  0  0  0  0
  6 10  1  0  0  0  0
  7 20  1  0  0  0  0
  8  4  1  0  0  0  0
  9  5  1  0  0  0  0
 11 16  1  0  0  0  0
 11 17  1  0  0  0  0
 12 11  2  0  0  0  0
 13 14  2  0  0  0  0
 13 12  1  0  0  0  0
 14 15  1  0  0  0  0
 15  3  1  0  0  0  0
 15 16  2  0  0  0  0
 18 12  1  0  0  0  0
 19 13  1  0  0  0  0
 20 21  1  0  0  0  0
 21 23  1  0  0  0  0
 21 22  1  0  0  0  0
 24 23  1  0  0  0  0
 25 23  1  0  0  0  0
 26 25  1  0  0  0  0
 27 25  1  0  0  0  0
 28 20  1  0  0  0  0
 28 27  1  0  0  0  0
M  END
>  <minimizedAffinity>
-4.68991756

$$$$
