
 OpenBabel03252505333D

 30 32  0  0  0  0  0  0  0  0999 V2000
   46.7630   34.6640   41.9620 C   0  0  0  0  0  0  0  0  0  0  0  0
   47.9560   35.3450   41.8040 C   0  0  0  0  0  0  0  0  0  0  0  0
   48.7030   35.2990   40.6280 C   0  0  0  0  0  0  0  0  0  0  0  0
   48.2250   34.5350   39.5690 C   0  0  0  0  0  0  0  0  0  0  0  0
   47.0430   33.8700   39.7460 C   0  0  0  0  0  0  0  0  0  0  0  0
   46.3060   33.9190   40.9130 C   0  0  0  0  0  0  0  0  0  0  0  0
   48.3470   35.9510   42.6290 H   0  0  0  0  0  0  0  0  0  0  0  0
   49.6210   35.8680   40.6040 H   0  0  0  0  0  0  0  0  0  0  0  0
   48.8680   34.5650   38.7170 H   0  0  0  0  0  0  0  0  0  0  0  0
   46.8130   33.3360   38.8360 H   0  0  0  0  0  0  0  0  0  0  0  0
   44.4720   35.6560   44.7720 C   0  0  0  0  0  0  0  0  0  0  0  0
   45.0440   35.6260   43.4820 C   0  0  0  0  0  0  0  0  0  0  0  0
   46.1030   34.7800   43.2330 C   0  0  0  0  0  0  0  0  0  0  0  0
   46.5550   34.0010   44.2640 N   0  0  0  0  0  0  0  0  0  0  0  0
   45.9760   34.0600   45.4960 C   0  0  0  0  0  0  0  0  0  0  0  0
   44.9430   34.8820   45.7410 N   0  0  0  0  0  0  0  0  0  0  0  0
   46.4810   33.2550   46.5620 N   0  0  0  0  0  0  0  0  0  0  0  0
   43.6290   36.3240   44.9780 H   0  0  0  0  0  0  0  0  0  0  0  0
   44.6760   36.2430   42.6950 H   0  0  0  0  0  0  0  0  0  0  0  0
   46.5650   33.5580   47.5590 H   0  0  0  0  0  0  0  0  0  0  0  0
   46.8170   32.2630   46.4000 H   0  0  0  0  0  0  0  0  0  0  0  0
   45.0920   33.2050   40.9350 N   0  0  0  0  0  0  0  0  0  0  0  0
   43.9140   33.6960   40.2430 C   0  0  0  0  0  3  0  0  0  0  0  0
   43.5850   32.8720   39.5350 H   0  0  0  0  0  0  0  0  0  0  0  0
   42.7620   33.9340   41.1710 C   0  0  0  0  0  3  0  0  0  0  0  0
   41.8360   33.9150   40.5350 H   0  0  0  0  0  0  0  0  0  0  0  0
   42.5880   32.8600   42.1250 N   0  0  0  0  0  0  0  0  0  0  0  0
   42.9310   33.1140   43.0710 H   0  0  0  0  0  0  0  0  0  0  0  0
   43.2620   31.7050   41.6070 C   0  0  0  0  0  2  0  0  0  0  0  0
   44.7630   31.9630   41.6140 C   0  0  0  0  0  2  0  0  0  0  0  0
  1 13  1  0  0  0  0
  2  1  1  0  0  0  0
  2  7  1  0  0  0  0
  3  2  2  0  0  0  0
  4  5  2  0  0  0  0
  4  3  1  0  0  0  0
  5  6  1  0  0  0  0
  6 22  1  0  0  0  0
  6  1  2  0  0  0  0
  8  3  1  0  0  0  0
  9  4  1  0  0  0  0
 10  5  1  0  0  0  0
 11 18  1  0  0  0  0
 11 16  1  0  0  0  0
 12 11  2  0  0  0  0
 13 12  1  0  0  0  0
 13 14  2  0  0  0  0
 14 15  1  0  0  0  0
 15 16  2  0  0  0  0
 15 17  1  0  0  0  0
 17 20  1  0  0  0  0
 19 12  1  0  0  0  0
 21 17  1  0  0  0  0
 22 30  1  0  0  0  0
 23 22  1  0  0  0  0
 23 25  1  0  0  0  0
 24 23  1  0  0  0  0
 25 27  1  0  0  0  0
 26 25  1  0  0  0  0
 27 28  1  0  0  0  0
 29 30  1  0  0  0  0
 29 27  1  0  0  0  0
M  END
>  <minimizedAffinity>
-6.0952034

>  <minimizedRMSD>
0.893383145

$$$$
