
 OpenBabel03252504473D

 21 22  0  0  0  0  0  0  0  0999 V2000
   37.9160   25.7580   42.3900 C   0  0  0  0  0  0  0  0  0  0  0  0
   39.2530   25.6430   42.8090 C   0  0  0  0  0  0  0  0  0  0  0  0
   39.9480   26.8290   43.1480 C   0  0  0  0  0  0  0  0  0  0  0  0
   39.2870   27.9910   43.0480 N   0  0  0  0  0  0  0  0  0  0  0  0
   37.9990   28.0560   42.6410 C   0  0  0  0  0  0  0  0  0  0  0  0
   37.3080   26.9470   42.3100 N   0  0  0  0  0  0  0  0  0  0  0  0
   39.7320   24.6710   42.8690 H   0  0  0  0  0  0  0  0  0  0  0  0
   40.9800   26.7700   43.4740 H   0  0  0  0  0  0  0  0  0  0  0  0
   37.2030   24.5020   42.0380 C   0  0  0  0  0  0  0  0  0  0  0  0
   37.9110   23.6700   41.9080 H   0  0  0  0  0  0  0  0  0  0  0  0
   36.4900   24.3260   42.8790 H   0  0  0  0  0  0  0  0  0  0  0  0
   36.6080   24.6110   41.1210 H   0  0  0  0  0  0  0  0  0  0  0  0
   37.4580   29.3360   42.5900 O   0  0  0  0  0  0  0  0  0  0  0  0
   36.6530   29.0460   40.1460 O   0  0  0  0  0  0  0  0  0  0  0  0
   36.9600   30.1270   41.1870 P   0  0  1  0  0  0  0  0  0  0  0  0
   35.5450   31.0130   41.3890 O   0  0  0  0  0  0  0  0  0  0  0  0
   34.7780   30.4720   41.6390 H   0  0  0  0  0  0  0  0  0  0  0  0
   38.1790   31.1570   40.6220 O   0  0  0  0  0  0  0  0  0  0  0  0
   37.7590   32.4710   40.5350 C   0  0  0  0  0  3  0  0  0  0  0  0
   37.3660   33.1220   39.2760 C   0  0  0  0  0  2  0  0  0  0  0  0
   38.7300   33.4530   39.8470 C   0  0  0  0  0  2  0  0  0  0  0  0
  1  2  1  0  0  0  0
  2  7  1  0  0  0  0
  2  3  2  0  0  0  0
  3  8  1  0  0  0  0
  4  3  1  0  0  0  0
  5  4  2  0  0  0  0
  6  1  2  0  0  0  0
  6  5  1  0  0  0  0
  9  1  1  0  0  0  0
  9 11  1  0  0  0  0
 10  9  1  0  0  0  0
 12  9  1  0  0  0  0
 13  5  1  0  0  0  0
 15 14  2  6  0  0  0
 15 16  1  0  0  0  0
 15 13  1  0  0  0  0
 16 17  1  0  0  0  0
 18 15  1  0  0  0  0
 19 18  1  0  0  0  0
 20 21  1  0  0  0  0
 20 19  1  0  0  0  0
 21 19  1  0  0  0  0
M  END
>  <minimizedAffinity>
-4.59269428

$$$$

 OpenBabel03252504473D

 21 22  0  0  0  0  0  0  0  0999 V2000
   37.3870   26.6830   42.0460 C   0  0  0  0  0  0  0  0  0  0  0  0
   37.2020   27.1030   43.3750 C   0  0  0  0  0  0  0  0  0  0  0  0
   37.3190   28.4850   43.6580 C   0  0  0  0  0  0  0  0  0  0  0  0
   37.5980   29.3100   42.6390 N   0  0  0  0  0  0  0  0  0  0  0  0
   37.7680   28.8640   41.3740 C   0  0  0  0  0  0  0  0  0  0  0  0
   37.6640   27.5550   41.0690 N   0  0  0  0  0  0  0  0  0  0  0  0
   36.9780   26.3830   44.1560 H   0  0  0  0  0  0  0  0  0  0  0  0
   37.1810   28.8370   44.6740 H   0  0  0  0  0  0  0  0  0  0  0  0
   37.2610   25.2280   41.7680 C   0  0  0  0  0  0  0  0  0  0  0  0
   37.2950   24.6450   42.7010 H   0  0  0  0  0  0  0  0  0  0  0  0
   36.2880   25.1160   41.2320 H   0  0  0  0  0  0  0  0  0  0  0  0
   38.0510   24.8690   41.0940 H   0  0  0  0  0  0  0  0  0  0  0  0
   38.0530   29.8460   40.4320 O   0  0  0  0  0  0  0  0  0  0  0  0
   36.8370   31.4330   38.7870 O   0  0  0  0  0  0  0  0  0  0  0  0
   37.2210   31.3030   40.2630 P   0  0  1  0  0  0  0  0  0  0  0  0
   35.7840   31.3550   41.1380 O   0  0  0  0  0  0  0  0  0  0  0  0
   35.1380   30.6810   40.8670 H   0  0  0  0  0  0  0  0  0  0  0  0
   38.1990   32.6020   40.7330 O   0  0  0  0  0  0  0  0  0  0  0  0
   38.8800   33.1600   39.6670 C   0  0  0  0  0  3  0  0  0  0  0  0
   40.2760   32.8410   39.3320 C   0  0  0  0  0  2  0  0  0  0  0  0
   40.0000   34.1610   40.0220 C   0  0  0  0  0  2  0  0  0  0  0  0
  1  2  1  0  0  0  0
  2  3  2  0  0  0  0
  2  7  1  0  0  0  0
  3  8  1  0  0  0  0
  4  3  1  0  0  0  0
  5  4  2  0  0  0  0
  6  5  1  0  0  0  0
  6  1  2  0  0  0  0
  9  1  1  0  0  0  0
  9 10  1  0  0  0  0
 11  9  1  0  0  0  0
 12  9  1  0  0  0  0
 13  5  1  0  0  0  0
 15 14  2  6  0  0  0
 15 13  1  0  0  0  0
 15 18  1  0  0  0  0
 15 16  1  0  0  0  0
 17 16  1  0  0  0  0
 19 21  1  0  0  0  0
 19 18  1  0  0  0  0
 20 19  1  0  0  0  0
 20 21  1  0  0  0  0
M  END
>  <minimizedAffinity>
-4.37575006

$$$$

 OpenBabel03252504473D

 21 22  0  0  0  0  0  0  0  0999 V2000
   35.9390   29.3330   36.3800 C   0  0  0  0  0  0  0  0  0  0  0  0
   34.6180   29.0090   36.7400 C   0  0  0  0  0  0  0  0  0  0  0  0
   34.3060   28.9290   38.1180 C   0  0  0  0  0  0  0  0  0  0  0  0
   35.2890   29.1670   38.9970 N   0  0  0  0  0  0  0  0  0  0  0  0
   36.5470   29.4760   38.6080 C   0  0  0  0  0  0  0  0  0  0  0  0
   36.8800   29.5600   37.3040 N   0  0  0  0  0  0  0  0  0  0  0  0
   33.8670   28.8270   35.9780 H   0  0  0  0  0  0  0  0  0  0  0  0
   33.2960   28.6820   38.4250 H   0  0  0  0  0  0  0  0  0  0  0  0
   36.2490   29.4110   34.9290 C   0  0  0  0  0  0  0  0  0  0  0  0
   35.4500   28.9470   34.3300 H   0  0  0  0  0  0  0  0  0  0  0  0
   36.3630   30.5010   34.7130 H   0  0  0  0  0  0  0  0  0  0  0  0
   37.2040   28.9270   34.6860 H   0  0  0  0  0  0  0  0  0  0  0  0
   37.4510   29.6940   39.6410 O   0  0  0  0  0  0  0  0  0  0  0  0
   37.7980   31.9970   40.7730 O   0  0  0  0  0  0  0  0  0  0  0  0
   37.1540   30.6290   41.0130 P   0  0  1  0  0  0  0  0  0  0  0  0
   35.5180   30.9120   41.2840 O   0  0  0  0  0  0  0  0  0  0  0  0
   35.0820   31.4010   40.5660 H   0  0  0  0  0  0  0  0  0  0  0  0
   37.8210   29.8970   42.3850 O   0  0  0  0  0  0  0  0  0  0  0  0
   37.7510   28.5170   42.3330 C   0  0  0  0  0  3  0  0  0  0  0  0
   36.5120   27.7530   42.5440 C   0  0  0  0  0  2  0  0  0  0  0  0
   37.5180   27.7950   43.6770 C   0  0  0  0  0  2  0  0  0  0  0  0
  1  2  2  0  0  0  0
  1  6  1  0  0  0  0
  2  3  1  0  0  0  0
  3  8  1  0  0  0  0
  3  4  2  0  0  0  0
  5  4  1  0  0  0  0
  5 13  1  0  0  0  0
  6  5  2  0  0  0  0
  7  2  1  0  0  0  0
  9  1  1  0  0  0  0
 10  9  1  0  0  0  0
 11  9  1  0  0  0  0
 12  9  1  0  0  0  0
 13 15  1  0  0  0  0
 15 14  2  6  0  0  0
 15 16  1  0  0  0  0
 15 18  1  0  0  0  0
 17 16  1  0  0  0  0
 19 18  1  0  0  0  0
 19 20  1  0  0  0  0
 19 21  1  0  0  0  0
 20 21  1  0  0  0  0
M  END
>  <minimizedAffinity>
-4.23154259

$$$$

 OpenBabel03252504473D

 21 22  0  0  0  0  0  0  0  0999 V2000
   37.1810   31.0320   38.2550 C   0  0  0  0  0  0  0  0  0  0  0  0
   37.3400   32.2400   38.9570 C   0  0  0  0  0  0  0  0  0  0  0  0
   37.1780   32.2170   40.3640 C   0  0  0  0  0  0  0  0  0  0  0  0
   36.8830   31.0440   40.9400 N   0  0  0  0  0  0  0  0  0  0  0  0
   36.7390   29.9040   40.2260 C   0  0  0  0  0  0  0  0  0  0  0  0
   36.8860   29.8890   38.8860 N   0  0  0  0  0  0  0  0  0  0  0  0
   37.5790   33.1590   38.4310 H   0  0  0  0  0  0  0  0  0  0  0  0
   37.2950   33.1330   40.9310 H   0  0  0  0  0  0  0  0  0  0  0  0
   37.3540   31.0760   36.7790 C   0  0  0  0  0  0  0  0  0  0  0  0
   37.3290   32.1120   36.4100 H   0  0  0  0  0  0  0  0  0  0  0  0
   38.3340   30.5780   36.5850 H   0  0  0  0  0  0  0  0  0  0  0  0
   36.5820   30.4930   36.2580 H   0  0  0  0  0  0  0  0  0  0  0  0
   36.4330   28.7720   40.9720 O   0  0  0  0  0  0  0  0  0  0  0  0
   38.7550   28.3040   42.0190 O   0  0  0  0  0  0  0  0  0  0  0  0
   37.2600   28.2620   42.3500 P   0  0  1  0  0  0  0  0  0  0  0  0
   37.0350   29.2730   43.6750 O   0  0  0  0  0  0  0  0  0  0  0  0
   37.3530   30.1800   43.5320 H   0  0  0  0  0  0  0  0  0  0  0  0
   36.7960   26.6890   42.7720 O   0  0  0  0  0  0  0  0  0  0  0  0
   37.5080   25.7270   42.0800 C   0  0  0  0  0  3  0  0  0  0  0  0
   37.1620   25.2720   40.7250 C   0  0  0  0  0  2  0  0  0  0  0  0
   36.8040   24.3670   41.8860 C   0  0  0  0  0  2  0  0  0  0  0  0
  1  6  2  0  0  0  0
  1  2  1  0  0  0  0
  2  3  2  0  0  0  0
  3  8  1  0  0  0  0
  3  4  1  0  0  0  0
  5  4  2  0  0  0  0
  5 13  1  0  0  0  0
  6  5  1  0  0  0  0
  7  2  1  0  0  0  0
  9  1  1  0  0  0  0
 10  9  1  0  0  0  0
 11  9  1  0  0  0  0
 12  9  1  0  0  0  0
 13 15  1  0  0  0  0
 15 14  2  6  0  0  0
 15 18  1  0  0  0  0
 15 16  1  0  0  0  0
 17 16  1  0  0  0  0
 19 18  1  0  0  0  0
 20 21  1  0  0  0  0
 20 19  1  0  0  0  0
 21 19  1  0  0  0  0
M  END
>  <minimizedAffinity>
-4.22360849

$$$$

 OpenBabel03252504473D

 21 22  0  0  0  0  0  0  0  0999 V2000
   36.7450   25.1880   39.8950 C   0  0  0  0  0  0  0  0  0  0  0  0
   36.9570   24.2930   40.9590 C   0  0  0  0  0  0  0  0  0  0  0  0
   37.0600   24.8270   42.2660 C   0  0  0  0  0  0  0  0  0  0  0  0
   36.9480   26.1550   42.4100 N   0  0  0  0  0  0  0  0  0  0  0  0
   36.7440   26.9800   41.3580 C   0  0  0  0  0  0  0  0  0  0  0  0
   36.6420   26.5070   40.1000 N   0  0  0  0  0  0  0  0  0  0  0  0
   37.0390   23.2260   40.7760 H   0  0  0  0  0  0  0  0  0  0  0  0
   37.2230   24.1600   43.1050 H   0  0  0  0  0  0  0  0  0  0  0  0
   36.6410   24.6090   38.5300 C   0  0  0  0  0  0  0  0  0  0  0  0
   37.0050   23.5710   38.5130 H   0  0  0  0  0  0  0  0  0  0  0  0
   35.5590   24.6850   38.2620 H   0  0  0  0  0  0  0  0  0  0  0  0
   37.2030   25.1970   37.7910 H   0  0  0  0  0  0  0  0  0  0  0  0
   36.6510   28.3310   41.6740 O   0  0  0  0  0  0  0  0  0  0  0  0
   34.7760   29.0150   40.0240 O   0  0  0  0  0  0  0  0  0  0  0  0
   36.0780   29.5340   40.6410 P   0  0  1  0  0  0  0  0  0  0  0  0
   35.6940   30.9660   41.4350 O   0  0  0  0  0  0  0  0  0  0  0  0
   34.9890   30.8680   42.0970 H   0  0  0  0  0  0  0  0  0  0  0  0
   37.2120   29.8650   39.4280 O   0  0  0  0  0  0  0  0  0  0  0  0
   36.7500   30.7950   38.5150 C   0  0  0  0  0  3  0  0  0  0  0  0
   37.4210   31.0910   37.2400 C   0  0  0  0  0  2  0  0  0  0  0  0
   37.5860   32.0840   38.3730 C   0  0  0  0  0  2  0  0  0  0  0  0
  1  6  2  0  0  0  0
  1  2  1  0  0  0  0
  2  3  2  0  0  0  0
  3  4  1  0  0  0  0
  3  8  1  0  0  0  0
  5 13  1  0  0  0  0
  5  4  2  0  0  0  0
  6  5  1  0  0  0  0
  7  2  1  0  0  0  0
  9  1  1  0  0  0  0
 10  9  1  0  0  0  0
 11  9  1  0  0  0  0
 12  9  1  0  0  0  0
 15 14  2  6  0  0  0
 15 16  1  0  0  0  0
 15 13  1  0  0  0  0
 16 17  1  0  0  0  0
 18 15  1  0  0  0  0
 19 18  1  0  0  0  0
 20 21  1  0  0  0  0
 20 19  1  0  0  0  0
 21 19  1  0  0  0  0
M  END
>  <minimizedAffinity>
-4.21957541

$$$$

 OpenBabel03252504473D

 21 22  0  0  0  0  0  0  0  0999 V2000
   37.4280   28.2170   42.4700 C   0  0  0  0  0  0  0  0  0  0  0  0
   36.9500   27.2580   41.5590 C   0  0  0  0  0  0  0  0  0  0  0  0
   36.2750   27.7190   40.4030 C   0  0  0  0  0  0  0  0  0  0  0  0
   36.1340   29.0430   40.2470 N   0  0  0  0  0  0  0  0  0  0  0  0
   36.6110   29.9310   41.1490 C   0  0  0  0  0  0  0  0  0  0  0  0
   37.2580   29.5280   42.2610 N   0  0  0  0  0  0  0  0  0  0  0  0
   37.0950   26.1990   41.7440 H   0  0  0  0  0  0  0  0  0  0  0  0
   35.8950   27.0030   39.6840 H   0  0  0  0  0  0  0  0  0  0  0  0
   38.1330   27.7140   43.6780 C   0  0  0  0  0  0  0  0  0  0  0  0
   37.9540   26.6380   43.8200 H   0  0  0  0  0  0  0  0  0  0  0  0
   39.2120   27.9460   43.5050 H   0  0  0  0  0  0  0  0  0  0  0  0
   37.8250   28.2500   44.5860 H   0  0  0  0  0  0  0  0  0  0  0  0
   36.3840   31.2680   40.8420 O   0  0  0  0  0  0  0  0  0  0  0  0
   37.4440   31.7620   38.5310 O   0  0  0  0  0  0  0  0  0  0  0  0
   37.4390   32.2610   39.9790 P   0  0  1  0  0  0  0  0  0  0  0  0
   36.9490   33.8700   39.9300 O   0  0  0  0  0  0  0  0  0  0  0  0
   36.0910   34.0030   39.4940 H   0  0  0  0  0  0  0  0  0  0  0  0
   38.9980   32.1800   40.6330 O   0  0  0  0  0  0  0  0  0  0  0  0
   39.9730   32.5260   39.7160 C   0  0  0  0  0  3  0  0  0  0  0  0
   41.2500   31.8120   39.5710 C   0  0  0  0  0  2  0  0  0  0  0  0
   41.2640   33.1440   40.2930 C   0  0  0  0  0  2  0  0  0  0  0  0
  1  9  1  0  0  0  0
  2  7  1  0  0  0  0
  2  1  2  0  0  0  0
  3  2  1  0  0  0  0
  4  3  2  0  0  0  0
  4  5  1  0  0  0  0
  5  6  2  0  0  0  0
  6  1  1  0  0  0  0
  8  3  1  0  0  0  0
  9 10  1  0  0  0  0
  9 12  1  0  0  0  0
 11  9  1  0  0  0  0
 13  5  1  0  0  0  0
 15 14  2  6  0  0  0
 15 18  1  0  0  0  0
 15 13  1  0  0  0  0
 16 15  1  0  0  0  0
 17 16  1  0  0  0  0
 19 21  1  0  0  0  0
 19 18  1  0  0  0  0
 20 19  1  0  0  0  0
 20 21  1  0  0  0  0
M  END
>  <minimizedAffinity>
-4.11815882

$$$$

 OpenBabel03252504473D

 21 22  0  0  0  0  0  0  0  0999 V2000
   36.6370   28.7790   41.5050 C   0  0  0  0  0  0  0  0  0  0  0  0
   37.4170   29.9230   41.7490 C   0  0  0  0  0  0  0  0  0  0  0  0
   38.5990   29.7690   42.5130 C   0  0  0  0  0  0  0  0  0  0  0  0
   38.9030   28.5410   42.9570 N   0  0  0  0  0  0  0  0  0  0  0  0
   38.1230   27.4670   42.6980 C   0  0  0  0  0  0  0  0  0  0  0  0
   36.9900   27.5770   41.9750 N   0  0  0  0  0  0  0  0  0  0  0  0
   37.1170   30.8910   41.3620 H   0  0  0  0  0  0  0  0  0  0  0  0
   39.2210   30.6340   42.7170 H   0  0  0  0  0  0  0  0  0  0  0  0
   35.3990   28.9590   40.7020 C   0  0  0  0  0  0  0  0  0  0  0  0
   35.1290   30.0240   40.6270 H   0  0  0  0  0  0  0  0  0  0  0  0
   35.6280   28.5080   39.7070 H   0  0  0  0  0  0  0  0  0  0  0  0
   34.5500   28.4060   41.1260 H   0  0  0  0  0  0  0  0  0  0  0  0
   38.5740   26.2650   43.2300 O   0  0  0  0  0  0  0  0  0  0  0  0
   39.6280   25.2120   41.1110 O   0  0  0  0  0  0  0  0  0  0  0  0
   38.8130   24.8430   42.3540 P   0  0  1  0  0  0  0  0  0  0  0  0
   39.7080   23.6890   43.1890 O   0  0  0  0  0  0  0  0  0  0  0  0
   40.6070   23.9810   43.4140 H   0  0  0  0  0  0  0  0  0  0  0  0
   37.3280   24.1680   41.9040 O   0  0  0  0  0  0  0  0  0  0  0  0
   37.2020   24.0400   40.5330 C   0  0  0  0  0  3  0  0  0  0  0  0
   36.4090   24.9540   39.6970 C   0  0  0  0  0  2  0  0  0  0  0  0
   35.8180   23.5950   40.0140 C   0  0  0  0  0  2  0  0  0  0  0  0
  1  2  2  0  0  0  0
  1  6  1  0  0  0  0
  2  3  1  0  0  0  0
  3  8  1  0  0  0  0
  3  4  2  0  0  0  0
  5  4  1  0  0  0  0
  5 13  1  0  0  0  0
  6  5  2  0  0  0  0
  7  2  1  0  0  0  0
  9 12  1  0  0  0  0
  9  1  1  0  0  0  0
 10  9  1  0  0  0  0
 11  9  1  0  0  0  0
 15 14  2  6  0  0  0
 15 16  1  0  0  0  0
 15 13  1  0  0  0  0
 16 17  1  0  0  0  0
 18 15  1  0  0  0  0
 19 18  1  0  0  0  0
 20 21  1  0  0  0  0
 20 19  1  0  0  0  0
 21 19  1  0  0  0  0
M  END
>  <minimizedAffinity>
-4.04889917

$$$$

 OpenBabel03252504473D

 21 22  0  0  0  0  0  0  0  0999 V2000
   38.2060   24.6940   40.1850 C   0  0  0  0  0  0  0  0  0  0  0  0
   37.5190   24.1810   41.3000 C   0  0  0  0  0  0  0  0  0  0  0  0
   37.0520   25.0990   42.2710 C   0  0  0  0  0  0  0  0  0  0  0  0
   37.2910   26.4020   42.0680 N   0  0  0  0  0  0  0  0  0  0  0  0
   37.9560   26.8520   40.9790 C   0  0  0  0  0  0  0  0  0  0  0  0
   38.4160   26.0070   40.0350 N   0  0  0  0  0  0  0  0  0  0  0  0
   37.3580   23.1140   41.4070 H   0  0  0  0  0  0  0  0  0  0  0  0
   36.5190   24.7320   43.1410 H   0  0  0  0  0  0  0  0  0  0  0  0
   38.6910   23.7150   39.1760 C   0  0  0  0  0  0  0  0  0  0  0  0
   38.6680   22.6910   39.5780 H   0  0  0  0  0  0  0  0  0  0  0  0
   38.0140   23.8420   38.2970 H   0  0  0  0  0  0  0  0  0  0  0  0
   39.7110   23.9440   38.8400 H   0  0  0  0  0  0  0  0  0  0  0  0
   38.1240   28.2310   40.9150 O   0  0  0  0  0  0  0  0  0  0  0  0
   35.6820   29.0880   41.0230 O   0  0  0  0  0  0  0  0  0  0  0  0
   37.0780   29.3700   41.5880 P   0  0  1  0  0  0  0  0  0  0  0  0
   36.9500   29.2510   43.2610 O   0  0  0  0  0  0  0  0  0  0  0  0
   36.5980   28.3990   43.5660 H   0  0  0  0  0  0  0  0  0  0  0  0
   37.5700   30.9380   41.1830 O   0  0  0  0  0  0  0  0  0  0  0  0
   36.7540   31.5150   40.2260 C   0  0  0  0  0  3  0  0  0  0  0  0
   37.0620   31.5230   38.7880 C   0  0  0  0  0  2  0  0  0  0  0  0
   37.2860   32.8040   39.5650 C   0  0  0  0  0  2  0  0  0  0  0  0
  1  2  1  0  0  0  0
  2  7  1  0  0  0  0
  2  3  2  0  0  0  0
  3  8  1  0  0  0  0
  4  3  1  0  0  0  0
  5  4  2  0  0  0  0
  6  1  2  0  0  0  0
  6  5  1  0  0  0  0
  9 10  1  0  0  0  0
  9  1  1  0  0  0  0
 11  9  1  0  0  0  0
 12  9  1  0  0  0  0
 13  5  1  0  0  0  0
 13 15  1  0  0  0  0
 15 14  2  6  0  0  0
 15 16  1  0  0  0  0
 16 17  1  0  0  0  0
 18 15  1  0  0  0  0
 19 18  1  0  0  0  0
 20 21  1  0  0  0  0
 20 19  1  0  0  0  0
 21 19  1  0  0  0  0
M  END
>  <minimizedAffinity>
-4.02959204

$$$$

 OpenBabel03252504473D

 21 22  0  0  0  0  0  0  0  0999 V2000
   37.9060   27.9890   43.3950 C   0  0  0  0  0  0  0  0  0  0  0  0
   39.0040   27.1130   43.4670 C   0  0  0  0  0  0  0  0  0  0  0  0
   40.2910   27.6380   43.1990 C   0  0  0  0  0  0  0  0  0  0  0  0
   40.3840   28.9400   42.8930 N   0  0  0  0  0  0  0  0  0  0  0  0
   39.3010   29.7470   42.8350 C   0  0  0  0  0  0  0  0  0  0  0  0
   38.0610   29.2810   43.0840 N   0  0  0  0  0  0  0  0  0  0  0  0
   38.8620   26.0670   43.7210 H   0  0  0  0  0  0  0  0  0  0  0  0
   41.1560   26.9860   43.2480 H   0  0  0  0  0  0  0  0  0  0  0  0
   36.5630   27.4190   43.6790 C   0  0  0  0  0  0  0  0  0  0  0  0
   36.5880   26.3190   43.6540 H   0  0  0  0  0  0  0  0  0  0  0  0
   36.2840   27.8160   44.6850 H   0  0  0  0  0  0  0  0  0  0  0  0
   35.8070   27.7750   42.9650 H   0  0  0  0  0  0  0  0  0  0  0  0
   39.5650   31.0710   42.5030 O   0  0  0  0  0  0  0  0  0  0  0  0
   39.0800   33.1260   41.0040 O   0  0  0  0  0  0  0  0  0  0  0  0
   39.6090   31.6910   40.9360 P   0  0  1  0  0  0  0  0  0  0  0  0
   41.1640   31.7850   40.3000 O   0  0  0  0  0  0  0  0  0  0  0  0
   41.7560   32.3700   40.8010 H   0  0  0  0  0  0  0  0  0  0  0  0
   38.6470   30.7580   39.9020 O   0  0  0  0  0  0  0  0  0  0  0  0
   37.3660   31.2630   39.7770 C   0  0  0  0  0  3  0  0  0  0  0  0
   36.2080   30.7470   40.5250 C   0  0  0  0  0  2  0  0  0  0  0  0
   36.3410   30.3530   39.0680 C   0  0  0  0  0  2  0  0  0  0  0  0
  1  2  1  0  0  0  0
  1  9  1  0  0  0  0
  2  7  1  0  0  0  0
  3  8  1  0  0  0  0
  3  2  2  0  0  0  0
  4  3  1  0  0  0  0
  5  4  2  0  0  0  0
  5  6  1  0  0  0  0
  6  1  2  0  0  0  0
  9 11  1  0  0  0  0
 10  9  1  0  0  0  0
 12  9  1  0  0  0  0
 13  5  1  0  0  0  0
 15 14  2  1  0  0  0
 15 13  1  0  0  0  0
 16 17  1  0  0  0  0
 16 15  1  0  0  0  0
 18 15  1  0  0  0  0
 19 18  1  0  0  0  0
 19 20  1  0  0  0  0
 21 19  1  0  0  0  0
 21 20  1  0  0  0  0
M  END
>  <minimizedAffinity>
-4.01235247

$$$$
