
 OpenBabel03242521203D

 20 22  0  0  0  0  0  0  0  0999 V2000
   46.0280   33.7200   44.7410 C   0  0  0  0  0  0  0  0  0  0  0  0
   45.0840   34.6700   44.4850 C   0  0  0  0  0  0  0  0  0  0  0  0
   45.1960   35.6030   43.4890 C   0  0  0  0  0  0  0  0  0  0  0  0
   46.3260   35.5490   42.7340 N   0  0  0  0  0  0  0  0  0  0  0  0
   47.2540   34.6200   42.9820 C   0  0  0  0  0  0  0  0  0  0  0  0
   47.1510   33.6900   43.9680 N   0  0  0  0  0  0  0  0  0  0  0  0
   44.1860   34.7020   45.0950 H   0  0  0  0  0  0  0  0  0  0  0  0
   44.4200   36.3480   43.3120 H   0  0  0  0  0  0  0  0  0  0  0  0
   46.0090   30.5250   46.5240 C   0  0  0  0  0  0  0  0  0  0  0  0
   45.5840   30.8880   47.8080 C   0  0  0  0  0  0  0  0  0  0  0  0
   45.3000   32.2430   48.0650 C   0  0  0  0  0  0  0  0  0  0  0  0
   45.4580   33.1440   47.0320 N   0  0  0  0  0  0  0  0  0  0  0  0
   45.8690   32.7370   45.8210 C   0  0  0  0  0  0  0  0  0  0  0  0
   46.1460   31.4530   45.5460 N   0  0  0  0  0  0  0  0  0  0  0  0
   46.2420   29.5100   46.2600 H   0  0  0  0  0  0  0  0  0  0  0  0
   45.4770   30.1520   48.5710 H   0  0  0  0  0  0  0  0  0  0  0  0
   44.9680   32.5730   49.0400 H   0  0  0  0  0  0  0  0  0  0  0  0
   48.4860   34.5890   42.1310 C   0  0  0  0  0  0  0  0  0  0  0  0
   48.2500   34.8230   40.6240 C   0  0  0  0  0  0  0  0  0  0  0  0
   48.9650   35.8270   41.4770 C   0  0  0  0  0  0  0  0  0  0  0  0
  1 13  1  0  0  0  0
  2  1  1  0  0  0  0
  2  7  1  0  0  0  0
  3  2  2  0  0  0  0
  4  5  2  0  0  0  0
  4  3  1  0  0  0  0
  5  6  1  0  0  0  0
  6  1  2  0  0  0  0
  8  3  1  0  0  0  0
  9 10  1  0  0  0  0
 10 11  2  0  0  0  0
 10 16  1  0  0  0  0
 11 17  1  0  0  0  0
 12 11  1  0  0  0  0
 13 12  2  0  0  0  0
 14 13  1  0  0  0  0
 14  9  2  0  0  0  0
 15  9  1  0  0  0  0
 18  5  1  0  0  0  0
 19 20  1  0  0  0  0
 19 18  1  0  0  0  0
 20 18  1  0  0  0  0
M  END
>  <minimizedAffinity>
-5.04527903

>  <minimizedRMSD>
6.47246265

$$$$
