
 OpenBabel03252503193D

 33 36  0  0  0  0  0  0  0  0999 V2000
   46.2530   34.7400   41.8660 C   0  0  0  0  0  0  0  0  0  0  0  0
   47.4600   35.0830   41.7410 O   0  0  0  0  0  0  0  0  0  0  0  0
   45.3850   34.1980   40.7630 C   0  0  0  0  0  0  0  0  0  0  0  0
   44.0520   34.4130   40.5830 C   0  0  0  0  0  0  0  0  0  0  0  0
   43.7210   33.7250   39.4680 N   0  0  0  0  0  0  0  0  0  0  0  0
   44.8020   33.1190   38.9910 C   0  0  0  0  0  0  0  0  0  0  0  0
   45.8400   33.4070   39.7900 N   0  0  0  0  0  0  0  0  0  0  0  0
   44.9730   32.2880   37.8550 N   0  0  0  0  0  0  0  0  0  0  0  0
   43.3950   35.0010   41.1910 H   0  0  0  0  0  0  0  0  0  0  0  0
   44.5290   32.5840   36.9360 H   0  0  0  0  0  0  0  0  0  0  0  0
   45.5260   31.3860   37.8950 H   0  0  0  0  0  0  0  0  0  0  0  0
   42.4120   33.6200   38.8350 C   0  0  0  0  0  0  0  0  0  0  0  0
   42.5090   33.2440   37.8020 H   0  0  0  0  0  0  0  0  0  0  0  0
   41.7490   32.9380   39.4120 H   0  0  0  0  0  0  0  0  0  0  0  0
   41.8500   35.0230   38.7620 C   0  0  0  0  0  0  0  0  0  0  0  0
   40.4910   35.2690   39.3310 C   0  0  0  0  0  0  0  0  0  0  0  0
   40.7340   35.3230   37.8620 C   0  0  0  0  0  0  0  0  0  0  0  0
   45.0750   36.0950   43.5330 C   0  0  0  0  0  0  0  0  0  0  0  0
   45.7140   34.8970   43.1630 C   0  0  0  0  0  0  0  0  0  0  0  0
   45.7440   33.9390   44.1840 C   0  0  0  0  0  0  0  0  0  0  0  0
   45.2220   34.1360   45.3860 N   0  0  0  0  0  0  0  0  0  0  0  0
   44.6180   35.3160   45.6830 C   0  0  0  0  0  0  0  0  0  0  0  0
   44.5520   36.2780   44.7550 N   0  0  0  0  0  0  0  0  0  0  0  0
   45.0230   36.8720   42.7820 H   0  0  0  0  0  0  0  0  0  0  0  0
   44.1860   35.4970   46.6590 H   0  0  0  0  0  0  0  0  0  0  0  0
   46.3770   32.6920   43.8960 C   0  0  0  0  0  0  0  0  0  0  0  0
   47.6390   32.2000   43.9550 C   0  0  0  0  0  0  0  0  0  0  0  0
   47.9620   30.9740   43.6210 C   0  0  0  0  0  0  0  0  0  0  0  0
   46.9450   30.2080   43.2040 C   0  0  0  0  0  0  0  0  0  0  0  0
   45.4750   31.2750   43.2910 S   0  0  0  0  0  0  0  0  0  0  0  0
   48.3700   32.9520   44.3180 H   0  0  0  0  0  0  0  0  0  0  0  0
   48.9520   30.5400   43.6520 H   0  0  0  0  0  0  0  0  0  0  0  0
   46.9830   29.0790   42.8520 H   0  0  0  0  0  0  0  0  0  0  0  0
  1 19  1  0  0  0  0
  2  1  2  0  0  0  0
  3  1  1  0  0  0  0
  4  3  2  0  0  0  0
  4  9  1  0  0  0  0
  5  4  1  0  0  0  0
  6  5  1  0  0  0  0
  6  7  2  0  0  0  0
  7  3  1  0  0  0  0
  8 11  1  0  0  0  0
  8  6  1  0  0  0  0
 10  8  1  0  0  0  0
 12 14  1  0  0  0  0
 12  5  1  0  0  0  0
 13 12  1  0  0  0  0
 15 12  1  0  0  0  0
 15 16  1  0  0  0  0
 17 15  1  0  0  0  0
 17 16  1  0  0  0  0
 18 23  1  0  0  0  0
 19 18  2  0  0  0  0
 19 20  1  0  0  0  0
 20 21  2  0  0  0  0
 21 22  1  0  0  0  0
 22 25  1  0  0  0  0
 23 22  2  0  0  0  0
 24 18  1  0  0  0  0
 26 27  2  0  0  0  0
 26 20  1  0  0  0  0
 27 31  1  0  0  0  0
 28 32  1  0  0  0  0
 28 27  1  0  0  0  0
 29 30  1  0  0  0  0
 29 28  2  0  0  0  0
 30 26  1  0  0  0  0
 33 29  1  0  0  0  0
M  END
>  <minimizedAffinity>
-5.20807791

>  <minimizedRMSD>
0.70125252

$$$$
