
 OpenBabel03252508143D

 31 34  0  0  1  0  0  0  0  0999 V2000
   47.1300   31.0510   46.7370 C   0  0  0  0  0  0  0  0  0  0  0  0
   46.3720   30.2630   46.5490 H   0  0  0  0  0  0  0  0  0  0  0  0
   48.1550   30.6780   46.7210 H   0  0  0  0  0  0  0  0  0  0  0  0
   46.7970   31.6800   48.0690 C   0  0  1  0  0  0  0  0  0  0  0  0
   46.2050   30.7760   49.0930 C   0  0  0  0  0  0  0  0  0  0  0  0
   47.5550   31.2710   49.2760 C   0  0  1  0  0  0  0  0  0  0  0  0
   46.4730   32.7410   48.0530 H   0  0  0  0  0  0  0  0  0  0  0  0
   46.0360   29.7110   48.8260 H   0  0  0  0  0  0  0  0  0  0  0  0
   45.3630   31.1820   49.7130 H   0  0  0  0  0  0  0  0  0  0  0  0
   47.6620   32.0500   50.0930 H   0  0  0  0  0  0  0  0  0  0  0  0
   48.7920   30.4790   49.0870 C   0  0  0  0  0  0  0  0  0  0  0  0
   49.6220   30.2690   50.3800 C   0  0  0  0  0  0  0  0  0  0  0  0
   50.1210   31.2040   49.3490 C   0  0  0  0  0  0  0  0  0  0  0  0
   48.8200   29.6520   48.3480 H   0  0  0  0  0  0  0  0  0  0  0  0
   49.1600   30.5880   51.3220 H   0  0  0  0  0  0  0  0  0  0  0  0
   50.1320   29.2740   50.4260 H   0  0  0  0  0  0  0  0  0  0  0  0
   50.0180   32.2870   49.6380 H   0  0  0  0  0  0  0  0  0  0  0  0
   50.9770   30.9040   48.7300 H   0  0  0  0  0  0  0  0  0  0  0  0
   46.1640   33.0550   45.9220 C   0  0  0  0  0  3  0  0  0  0  0  0
   46.9100   32.0640   45.6210 C   0  0  0  0  0  3  0  0  0  0  0  0
   44.6840   35.8970   44.1070 C   0  0  0  0  0  0  0  0  0  0  0  0
   45.3900   35.9180   42.9120 C   0  0  0  0  0  0  0  0  0  0  0  0
   46.3740   34.9560   42.7600 C   0  0  0  0  0  0  0  0  0  0  0  0
   46.5800   34.0810   43.7530 N   0  0  0  0  0  0  0  0  0  0  0  0
   45.8930   34.0650   44.9030 C   0  0  0  0  0  0  0  0  0  0  0  0
   44.9510   34.9840   45.0550 N   0  0  0  0  0  0  0  0  0  0  0  0
   43.9120   36.6450   44.2370 H   0  0  0  0  0  0  0  0  0  0  0  0
   45.2050   36.6280   42.1370 H   0  0  0  0  0  0  0  0  0  0  0  0
   47.1830   34.9180   41.4920 C   0  0  0  0  0  3  0  0  0  0  0  0
   48.5900   35.5620   41.6790 C   0  0  0  0  0  2  0  0  0  0  0  0
   48.3850   34.0880   41.3840 C   0  0  0  0  0  2  0  0  0  0  0  0
  1  4  1  0  0  0  0
  2  1  1  0  0  0  0
  3  1  1  0  0  0  0
  4  7  1  6  0  0  0
  4  5  1  0  0  0  0
  4  6  1  0  0  0  0
  5  6  1  0  0  0  0
  5  9  1  0  0  0  0
  6 10  1  1  0  0  0
  8  5  1  0  0  0  0
 11  6  1  0  0  0  0
 11 13  1  0  0  0  0
 11 12  1  0  0  0  0
 12 16  1  0  0  0  0
 12 15  1  0  0  0  0
 13 17  1  0  0  0  0
 13 12  1  0  0  0  0
 14 11  1  0  0  0  0
 18 13  1  0  0  0  0
 20 19  2  0  0  0  0
 20  1  1  0  0  0  0
 21 27  1  0  0  0  0
 21 26  1  0  0  0  0
 22 21  2  0  0  0  0
 23 22  1  0  0  0  0
 23 24  2  0  0  0  0
 24 25  1  0  0  0  0
 25 26  2  0  0  0  0
 25 19  1  0  0  0  0
 28 22  1  0  0  0  0
 29 30  1  0  0  0  0
 29 23  1  0  0  0  0
 31 29  1  0  0  0  0
 31 30  1  0  0  0  0
M  END
>  <minimizedAffinity>
-5.34036779

>  <minimizedRMSD>
0.380884916

$$$$
