
     RDKit          3D

 38 40  0  0  0  0  0  0  0  0999 V2000
   42.2052   34.1738   40.1946 C   0  0  0  0  0  0  0  0  0  0  0  0
   42.2913   35.1466   41.1933 C   0  0  0  0  0  0  0  0  0  0  0  0
   41.2422   36.0165   41.3422 C   0  0  0  0  0  0  0  0  0  0  0  0
   40.1463   35.9259   40.5305 C   0  0  0  0  0  0  0  0  0  0  0  0
   40.0292   34.9947   39.5518 C   0  0  0  0  0  0  0  0  0  0  0  0
   41.1080   34.1231   39.4208 C   0  0  0  0  0  0  0  0  0  0  0  0
   44.6097   31.2921   40.5928 C   0  0  0  0  0  0  0  0  0  0  0  0
   43.4701   32.0951   40.7809 C   0  0  0  0  0  0  0  0  0  0  0  0
   43.3445   33.2710   40.0735 C   0  0  0  0  0  0  0  0  0  0  0  0
   44.3488   33.5957   39.2165 N   0  0  0  0  0  0  0  0  0  0  0  0
   45.4423   32.8210   39.0388 C   0  0  0  0  0  0  0  0  0  0  0  0
   45.5671   31.6698   39.7302 N   0  0  0  0  0  0  0  0  0  0  0  0
   43.4977   35.2235   42.0646 C   0  0  0  0  0  0  0  0  0  0  0  0
   43.2284   35.6748   43.3984 N   0  0  0  0  0  0  0  0  0  0  0  0
   44.6536   35.8488   44.3299 S   0  0  0  0  0  0  0  0  0  0  0  0
   45.8207   35.1990   43.6554 O   0  0  0  0  0  0  0  0  0  0  0  0
   44.4723   35.3067   45.7067 O   0  0  0  0  0  0  0  0  0  0  0  0
   44.9358   37.5079   44.4452 O   0  0  0  0  0  0  0  0  0  0  0  0
   41.2931   36.7771   42.1120 H   0  0  0  0  0  0  0  0  0  0  0  0
   39.3464   36.6535   40.7064 H   0  0  0  0  0  0  0  0  0  0  0  0
   39.1597   34.9335   38.9182 H   0  0  0  0  0  0  0  0  0  0  0  0
   41.0505   33.3610   38.6451 H   0  0  0  0  0  0  0  0  0  0  0  0
   44.6962   30.3767   41.1506 H   0  0  0  0  0  0  0  0  0  0  0  0
   42.6794   31.8186   41.4696 H   0  0  0  0  0  0  0  0  0  0  0  0
   46.2140   33.1217   38.3460 H   0  0  0  0  0  0  0  0  0  0  0  0
   44.1999   35.9241   41.5663 H   0  0  0  0  0  0  0  0  0  0  0  0
   44.0152   34.2273   42.0373 H   0  0  0  0  0  0  0  0  0  0  0  0
   42.5768   34.9886   43.8344 H   0  0  0  0  0  0  0  0  0  0  0  0
   46.3360   35.7047   42.9716 H   0  0  0  0  0  0  0  0  0  0  0  0
   45.1656   34.9094   46.2749 H   0  0  0  0  0  0  0  0  0  0  0  0
   43.8302   38.2329   44.0568 C   0  0  0  0  0  0  0  0  0  0  0  0
   43.5958   38.6007   42.6282 C   0  0  0  0  0  0  0  0  0  0  0  0
   44.0752   39.6685   43.5934 C   0  0  0  0  0  0  0  0  0  0  0  0
   42.9044   38.0496   44.6503 H   0  0  0  0  0  0  0  0  0  0  0  0
   44.2988   38.2520   41.8406 H   0  0  0  0  0  0  0  0  0  0  0  0
   42.5525   38.6572   42.2432 H   0  0  0  0  0  0  0  0  0  0  0  0
   45.1147   40.0009   43.5130 H   0  0  0  0  0  0  0  0  0  0  0  0
   43.3607   40.4152   43.9835 H   0  0  0  0  0  0  0  0  0  0  0  0
  1  2  1  0
  2  3  2  0
  2 13  1  0
  4  3  1  0
  5  4  2  0
  6  5  1  0
  6  1  2  0
  7  8  2  0
  9  1  1  0
  9  8  1  0
 10  9  2  0
 11 10  1  0
 11 12  2  0
 12  7  1  0
 13 14  1  0
 14 15  1  0
 15 18  1  0
 15 17  1  0
 16 15  1  0
  3 19  1  0
  4 20  1  0
  5 21  1  0
  6 22  1  0
  7 23  1  0
  8 24  1  0
 11 25  1  0
 13 26  1  0
 13 27  1  0
 14 28  1  0
 16 29  1  0
 17 30  1  0
 31 32  1  0
 32 33  1  0
 33 31  1  0
 31 34  1  0
 32 35  1  0
 32 36  1  0
 33 37  1  0
 33 38  1  0
 18 31  1  0
M  ISO  8  19  14  20  14  21  14  22  14  23  14  24  14  25  14  26   8
M  ISO  4  27   8  28   5  29   3  30   3
M  END
>  <DihAtoms>  (1) 
14,17,30,31

>  <DihDeg>  (1) 
-147.06870468018266

$$$$
