REMARK  Name = 
REMARK  4 active torsions:
REMARK  status: ('A' for Active; 'I' for Inactive)
REMARK    1  A    between atoms: C_3  and  C_10
REMARK    2  A    between atoms: C_4  and  C_15
REMARK    3  A    between atoms: C_14  and  S_20
REMARK    4  A    between atoms: S_20  and  C_33
REMARK                            x       y       z     vdW  Elec       q    Type
REMARK                         _______ _______ _______ _____ _____    ______ ____
ROOT
ATOM      1 CL   UNL     1      45.284  35.274  43.137  0.00  0.00    +0.000 Cl
ATOM      2  C   UNL     1      45.166  34.525  41.567  0.00  0.00    +0.000 A 
ATOM      3  C   UNL     1      46.264  34.139  40.882  0.00  0.00    +0.000 A 
ATOM      4  C   UNL     1      46.071  33.562  39.640  0.00  0.00    +0.000 A 
ATOM      5  C   UNL     1      44.821  33.380  39.103  0.00  0.00    +0.000 A 
ATOM      6  C   UNL     1      43.725  33.772  39.801  0.00  0.00    +0.000 A 
ATOM      7  C   UNL     1      43.905  34.348  41.043  0.00  0.00    +0.000 A 
ATOM      8  H   UNL     1      44.725  32.927  38.129  0.00  0.00    +0.000 HD
ATOM      9  H   UNL     1      42.732  33.646  39.417  0.00  0.00    +0.000 HD
ATOM     10  H   UNL     1      43.026  34.658  41.597  0.00  0.00    +0.000 HD
ENDROOT
BRANCH   4  12
ATOM     11  C   UNL     1      47.807  31.884  38.986  0.00  0.00    +0.000 A 
ATOM     12  C   UNL     1      47.233  33.114  38.875  0.00  0.00    +0.000 A 
ATOM     13  C   UNL     1      47.764  34.025  37.981  0.00  0.00    +0.000 A 
ATOM     14  C   UNL     1      48.856  33.690  37.215  0.00  0.00    +0.000 A 
ATOM     15  C   UNL     1      49.455  32.441  37.311  0.00  0.00    +0.000 A 
ATOM     16  C   UNL     1      48.914  31.532  38.214  0.00  0.00    +0.000 A 
ATOM     17  H   UNL     1      47.336  35.003  37.871  0.00  0.00    +0.000 HD
ATOM     18  H   UNL     1      49.246  34.418  36.530  0.00  0.00    +0.000 HD
ATOM     19  H   UNL     1      50.301  32.181  36.716  0.00  0.00    +0.000 HD
ATOM     20  H   UNL     1      49.389  30.575  38.274  0.00  0.00    +0.000 HD
BRANCH  11  21
ATOM     21  S   UNL     1      47.188  30.718  40.026  0.00  0.00    +0.000 S 
ATOM     22  O   UNL     1      46.770  29.446  39.332  0.00  0.00    +0.000 OA
ATOM     23  O   UNL     1      48.411  30.269  40.882  0.00  0.00    +0.000 OA
BRANCH  21  24
ATOM     24  C   UNL     1      46.045  30.971  41.268  0.00  0.00    +0.000 C 
ATOM     25  C   UNL     1      44.608  30.685  40.761  0.00  0.00    +0.000 C 
ATOM     26  C   UNL     1      45.151  29.946  41.886  0.00  0.00    +0.000 C 
ENDBRANCH  21  24
ENDBRANCH  11  21
ENDBRANCH   4  12
BRANCH   3  29
ATOM     27  C   UNL     1      49.540  35.752  41.884  0.00  0.00    +0.000 A 
ATOM     28  C   UNL     1      48.279  35.550  41.311  0.00  0.00    +0.000 A 
ATOM     29  C   UNL     1      47.578  34.359  41.475  0.00  0.00    +0.000 A 
ATOM     30  N   UNL     1      48.201  33.437  42.215  0.00  0.00    +0.000 NA
ATOM     31  C   UNL     1      49.405  33.620  42.767  0.00  0.00    +0.000 A 
ATOM     32  N   UNL     1      50.068  34.767  42.603  0.00  0.00    +0.000 NA
ATOM     33  H   UNL     1      50.015  36.713  41.704  0.00  0.00    +0.000 HD
ATOM     34  H   UNL     1      47.822  36.336  40.719  0.00  0.00    +0.000 HD
ATOM     35  H   UNL     1      49.895  32.856  43.367  0.00  0.00    +0.000 HD
ENDBRANCH   3  29
TORSDOF 4
