
 OpenBabel03252509023D

 39 41  0  0  1  0  0  0  0  0999 V2000
   37.8240   26.9520   42.7340 N   0  0  0  0  0  0  0  0  0  0  0  0
   39.0430   26.6700   43.4100 C   0  0  0  0  0  0  0  0  0  0  0  0
   40.1970   27.5800   43.0570 C   0  0  0  0  0  0  0  0  0  0  0  0
   39.7970   28.9960   42.7390 C   0  0  0  0  0  0  0  0  0  0  0  0
   38.3170   29.2160   42.9290 C   0  0  0  0  0  0  0  0  0  0  0  0
   37.6700   28.1220   42.0070 C   0  0  2  0  0  0  0  0  0  0  0  0
   38.8610   26.8360   44.4990 H   0  0  0  0  0  0  0  0  0  0  0  0
   39.4060   25.6440   43.3330 H   0  0  0  0  0  0  0  0  0  0  0  0
   40.7490   27.0970   42.2210 H   0  0  0  0  0  0  0  0  0  0  0  0
   40.9100   27.5760   43.9110 H   0  0  0  0  0  0  0  0  0  0  0  0
   40.0670   29.1900   41.6880 H   0  0  0  0  0  0  0  0  0  0  0  0
   40.3250   29.7090   43.4200 H   0  0  0  0  0  0  0  0  0  0  0  0
   37.9940   29.0030   43.9480 H   0  0  0  0  0  0  0  0  0  0  0  0
   38.0720   30.2080   42.5460 H   0  0  0  0  0  0  0  0  0  0  0  0
   38.1780   28.2180   41.0310 H   0  0  0  0  0  0  0  0  0  0  0  0
   37.0960   25.7860   42.3280 C   0  0  0  0  0  0  0  0  0  0  0  0
   36.3580   25.5440   43.1120 H   0  0  0  0  0  0  0  0  0  0  0  0
   36.5660   26.0380   41.3790 H   0  0  0  0  0  0  0  0  0  0  0  0
   38.0580   24.6820   42.0430 C   0  0  0  0  0  0  0  0  0  0  0  0
   39.0670   24.9990   41.7500 H   0  0  0  0  0  0  0  0  0  0  0  0
   38.1930   24.0400   42.9470 H   0  0  0  0  0  0  0  0  0  0  0  0
   37.7020   21.8840   39.5560 C   0  0  0  0  0  0  0  0  0  0  0  0
   38.2400   22.7400   40.5350 C   0  0  0  0  0  0  0  0  0  0  0  0
   37.4770   23.7860   41.0080 C   0  0  0  0  0  0  0  0  0  0  0  0
   36.2470   23.9360   40.5040 N   0  0  0  0  0  0  0  0  0  0  0  0
   35.7410   23.1100   39.5670 C   0  0  0  0  0  0  0  0  0  0  0  0
   36.4610   22.0810   39.0850 N   0  0  0  0  0  0  0  0  0  0  0  0
   38.2990   21.0630   39.1840 H   0  0  0  0  0  0  0  0  0  0  0  0
   39.2460   22.5530   40.8940 H   0  0  0  0  0  0  0  0  0  0  0  0
   34.7460   23.2450   39.1720 H   0  0  0  0  0  0  0  0  0  0  0  0
   36.3370   28.5320   41.9840 O   0  0  0  0  0  0  0  0  0  0  0  0
   37.2150   29.7410   39.7870 O   0  0  0  0  0  0  0  0  0  0  0  0
   35.9880   29.5340   40.6800 P   0  0  2  0  0  0  0  0  0  0  0  0
   35.6660   31.0770   41.3420 O   0  0  0  0  0  0  0  0  0  0  0  0
   35.0240   31.0000   42.0860 H   0  0  0  0  0  0  0  0  0  0  0  0
   34.6510   29.0350   39.8320 O   0  0  0  0  0  0  0  0  0  0  0  0
   34.7800   29.0020   38.4670 C   0  0  0  0  0  3  0  0  0  0  0  0
   34.4760   27.7930   37.6710 C   0  0  0  0  0  2  0  0  0  0  0  0
   33.4470   28.8700   37.7220 C   0  0  0  0  0  2  0  0  0  0  0  0
  1  2  1  0  0  0  0
  2  7  1  0  0  0  0
  3  2  1  0  0  0  0
  3 10  1  0  0  0  0
  4  5  1  0  0  0  0
  4  3  1  0  0  0  0
  4 12  1  0  0  0  0
  5 13  1  0  0  0  0
  6 15  1  6  0  0  0
  6  1  1  0  0  0  0
  6  5  1  0  0  0  0
  8  2  1  0  0  0  0
  9  3  1  0  0  0  0
 11  4  1  0  0  0  0
 14  5  1  0  0  0  0
 16  1  1  0  0  0  0
 16 17  1  0  0  0  0
 18 16  1  0  0  0  0
 19 16  1  0  0  0  0
 19 21  1  0  0  0  0
 20 19  1  0  0  0  0
 22 23  1  0  0  0  0
 23 29  1  0  0  0  0
 23 24  2  0  0  0  0
 24 19  1  0  0  0  0
 25 24  1  0  0  0  0
 26 25  2  0  0  0  0
 27 22  2  0  0  0  0
 27 26  1  0  0  0  0
 28 22  1  0  0  0  0
 30 26  1  0  0  0  0
 31  6  1  0  0  0  0
 33 32  2  6  0  0  0
 33 34  1  0  0  0  0
 33 31  1  0  0  0  0
 34 35  1  0  0  0  0
 36 33  1  0  0  0  0
 37 36  1  0  0  0  0
 38 39  1  0  0  0  0
 38 37  1  0  0  0  0
 39 37  1  0  0  0  0
M  END
>  <minimizedAffinity>
-5.16915464

$$$$

 OpenBabel03252509023D

 39 41  0  0  1  0  0  0  0  0999 V2000
   36.3530   27.5730   39.2270 N   0  0  0  0  0  0  0  0  0  0  0  0
   35.5890   26.9030   38.2340 C   0  0  0  0  0  0  0  0  0  0  0  0
   34.4840   27.7250   37.6120 C   0  0  0  0  0  0  0  0  0  0  0  0
   34.7950   29.1920   37.4900 C   0  0  0  0  0  0  0  0  0  0  0  0
   36.1980   29.5070   37.9460 C   0  0  0  0  0  0  0  0  0  0  0  0
   36.2340   28.9430   39.4100 C   0  0  2  0  0  0  0  0  0  0  0  0
   36.2820   26.6600   37.3930 H   0  0  0  0  0  0  0  0  0  0  0  0
   35.1510   25.9480   38.5310 H   0  0  0  0  0  0  0  0  0  0  0  0
   33.5620   27.5350   38.2040 H   0  0  0  0  0  0  0  0  0  0  0  0
   34.2680   27.3040   36.6040 H   0  0  0  0  0  0  0  0  0  0  0  0
   34.0710   29.7390   38.1160 H   0  0  0  0  0  0  0  0  0  0  0  0
   34.7170   29.5170   36.4220 H   0  0  0  0  0  0  0  0  0  0  0  0
   36.9510   28.9630   37.3770 H   0  0  0  0  0  0  0  0  0  0  0  0
   36.3080   30.5940   37.9700 H   0  0  0  0  0  0  0  0  0  0  0  0
   35.3310   29.3410   39.9050 H   0  0  0  0  0  0  0  0  0  0  0  0
   36.7020   26.7540   40.3500 C   0  0  0  0  0  0  0  0  0  0  0  0
   36.7470   27.3930   41.2480 H   0  0  0  0  0  0  0  0  0  0  0  0
   35.8930   25.9940   40.4720 H   0  0  0  0  0  0  0  0  0  0  0  0
   37.9740   26.0350   40.0550 C   0  0  0  0  0  0  0  0  0  0  0  0
   37.8650   25.0770   39.5310 H   0  0  0  0  0  0  0  0  0  0  0  0
   38.6340   26.6600   39.4060 H   0  0  0  0  0  0  0  0  0  0  0  0
   39.7250   24.3740   42.9390 C   0  0  0  0  0  0  0  0  0  0  0  0
   39.0080   24.5650   41.7440 C   0  0  0  0  0  0  0  0  0  0  0  0
   38.7320   25.8480   41.3210 C   0  0  0  0  0  0  0  0  0  0  0  0
   39.1660   26.8590   42.0810 N   0  0  0  0  0  0  0  0  0  0  0  0
   39.8520   26.6650   43.2250 C   0  0  0  0  0  0  0  0  0  0  0  0
   40.1370   25.4270   43.6630 N   0  0  0  0  0  0  0  0  0  0  0  0
   39.9430   23.3680   43.2720 H   0  0  0  0  0  0  0  0  0  0  0  0
   38.6900   23.6930   41.1820 H   0  0  0  0  0  0  0  0  0  0  0  0
   40.1950   27.4940   43.8260 H   0  0  0  0  0  0  0  0  0  0  0  0
   37.4210   29.4950   39.8910 O   0  0  0  0  0  0  0  0  0  0  0  0
   37.3900   29.6370   42.5440 O   0  0  0  0  0  0  0  0  0  0  0  0
   37.1900   30.4450   41.2570 P   0  0  2  0  0  0  0  0  0  0  0  0
   35.5340   30.8700   41.2640 O   0  0  0  0  0  0  0  0  0  0  0  0
   35.2680   31.2130   40.3790 H   0  0  0  0  0  0  0  0  0  0  0  0
   38.0920   31.8380   41.2270 O   0  0  0  0  0  0  0  0  0  0  0  0
   38.2880   32.4030   39.9930 C   0  0  0  0  0  3  0  0  0  0  0  0
   37.2210   33.1350   39.2760 C   0  0  0  0  0  2  0  0  0  0  0  0
   38.2480   33.9360   40.0010 C   0  0  0  0  0  2  0  0  0  0  0  0
  1  6  1  0  0  0  0
  1 16  1  0  0  0  0
  2  8  1  0  0  0  0
  2  1  1  0  0  0  0
  3  9  1  0  0  0  0
  3  2  1  0  0  0  0
  4  3  1  0  0  0  0
  4  5  1  0  0  0  0
  4 11  1  0  0  0  0
  5 14  1  0  0  0  0
  5  6  1  0  0  0  0
  6 31  1  0  0  0  0
  6 15  1  1  0  0  0
  7  2  1  0  0  0  0
 10  3  1  0  0  0  0
 12  4  1  0  0  0  0
 13  5  1  0  0  0  0
 16 18  1  0  0  0  0
 16 17  1  0  0  0  0
 19 16  1  0  0  0  0
 19 24  1  0  0  0  0
 20 19  1  0  0  0  0
 21 19  1  0  0  0  0
 22 28  1  0  0  0  0
 22 27  1  0  0  0  0
 23 22  2  0  0  0  0
 24 23  1  0  0  0  0
 24 25  2  0  0  0  0
 25 26  1  0  0  0  0
 26 27  2  0  0  0  0
 26 30  1  0  0  0  0
 29 23  1  0  0  0  0
 31 33  1  0  0  0  0
 33 34  1  0  0  0  0
 33 32  2  1  0  0  0
 35 34  1  0  0  0  0
 36 33  1  0  0  0  0
 37 39  1  0  0  0  0
 37 36  1  0  0  0  0
 38 37  1  0  0  0  0
 38 39  1  0  0  0  0
M  END
>  <minimizedAffinity>
-4.9836483

$$$$

 OpenBabel03252509023D

 39 41  0  0  1  0  0  0  0  0999 V2000
   37.0970   26.7290   41.6250 N   0  0  0  0  0  0  0  0  0  0  0  0
   37.1800   25.3140   41.7380 C   0  0  0  0  0  0  0  0  0  0  0  0
   36.4950   24.5410   40.6360 C   0  0  0  0  0  0  0  0  0  0  0  0
   36.5340   25.2130   39.2900 C   0  0  0  0  0  0  0  0  0  0  0  0
   37.3340   26.4910   39.3240 C   0  0  0  0  0  0  0  0  0  0  0  0
   36.6360   27.3210   40.4590 C   0  0  2  0  0  0  0  0  0  0  0  0
   38.2600   25.0410   41.6610 H   0  0  0  0  0  0  0  0  0  0  0  0
   36.8440   24.8900   42.6860 H   0  0  0  0  0  0  0  0  0  0  0  0
   35.4570   24.3350   40.9780 H   0  0  0  0  0  0  0  0  0  0  0  0
   36.9780   23.5410   40.5670 H   0  0  0  0  0  0  0  0  0  0  0  0
   35.4940   25.4360   38.9990 H   0  0  0  0  0  0  0  0  0  0  0  0
   37.0180   24.5430   38.5360 H   0  0  0  0  0  0  0  0  0  0  0  0
   38.3640   26.3260   39.6390 H   0  0  0  0  0  0  0  0  0  0  0  0
   37.2010   26.9970   38.3660 H   0  0  0  0  0  0  0  0  0  0  0  0
   35.5560   27.2870   40.2310 H   0  0  0  0  0  0  0  0  0  0  0  0
   36.8920   27.4060   42.8710 C   0  0  0  0  0  0  0  0  0  0  0  0
   36.5030   28.4160   42.6600 H   0  0  0  0  0  0  0  0  0  0  0  0
   36.1310   26.8240   43.4450 H   0  0  0  0  0  0  0  0  0  0  0  0
   38.1640   27.3980   43.6480 C   0  0  0  0  0  0  0  0  0  0  0  0
   38.0530   27.4620   44.7370 H   0  0  0  0  0  0  0  0  0  0  0  0
   38.7310   26.4550   43.4570 H   0  0  0  0  0  0  0  0  0  0  0  0
   41.2120   29.2340   42.4290 C   0  0  0  0  0  0  0  0  0  0  0  0
   40.3690   28.2100   42.8980 C   0  0  0  0  0  0  0  0  0  0  0  0
   39.0440   28.4910   43.1530 C   0  0  0  0  0  0  0  0  0  0  0  0
   38.6220   29.7420   42.9380 N   0  0  0  0  0  0  0  0  0  0  0  0
   39.4370   30.7160   42.4890 C   0  0  0  0  0  0  0  0  0  0  0  0
   40.7340   30.4730   42.2320 N   0  0  0  0  0  0  0  0  0  0  0  0
   42.2510   29.0150   42.2290 H   0  0  0  0  0  0  0  0  0  0  0  0
   40.7860   27.2190   43.0470 H   0  0  0  0  0  0  0  0  0  0  0  0
   39.0800   31.7200   42.3210 H   0  0  0  0  0  0  0  0  0  0  0  0
   37.2060   28.5810   40.2710 O   0  0  0  0  0  0  0  0  0  0  0  0
   36.6310   30.9060   39.1210 O   0  0  0  0  0  0  0  0  0  0  0  0
   36.0600   29.7760   39.9840 P   0  0  2  0  0  0  0  0  0  0  0  0
   35.7450   30.5030   41.4990 O   0  0  0  0  0  0  0  0  0  0  0  0
   35.5700   29.8100   42.1780 H   0  0  0  0  0  0  0  0  0  0  0  0
   34.6370   29.1660   39.3860 O   0  0  0  0  0  0  0  0  0  0  0  0
   34.5850   28.9740   38.0290 C   0  0  0  0  0  3  0  0  0  0  0  0
   34.0500   27.7350   37.4230 C   0  0  0  0  0  2  0  0  0  0  0  0
   33.1610   28.9300   37.4630 C   0  0  0  0  0  2  0  0  0  0  0  0
  1  2  1  0  0  0  0
  1 16  1  0  0  0  0
  2  8  1  0  0  0  0
  3  9  1  0  0  0  0
  3  2  1  0  0  0  0
  4  5  1  0  0  0  0
  4  3  1  0  0  0  0
  5 13  1  0  0  0  0
  5  6  1  0  0  0  0
  6 15  1  6  0  0  0
  6  1  1  0  0  0  0
  7  2  1  0  0  0  0
 10  3  1  0  0  0  0
 11  4  1  0  0  0  0
 12  4  1  0  0  0  0
 14  5  1  0  0  0  0
 16 18  1  0  0  0  0
 16 19  1  0  0  0  0
 17 16  1  0  0  0  0
 19 20  1  0  0  0  0
 21 19  1  0  0  0  0
 22 23  1  0  0  0  0
 23 29  1  0  0  0  0
 23 24  2  0  0  0  0
 24 19  1  0  0  0  0
 25 24  1  0  0  0  0
 26 25  2  0  0  0  0
 27 22  2  0  0  0  0
 27 26  1  0  0  0  0
 28 22  1  0  0  0  0
 30 26  1  0  0  0  0
 31  6  1  0  0  0  0
 33 32  2  6  0  0  0
 33 31  1  0  0  0  0
 33 34  1  0  0  0  0
 34 35  1  0  0  0  0
 36 33  1  0  0  0  0
 37 36  1  0  0  0  0
 38 39  1  0  0  0  0
 38 37  1  0  0  0  0
 39 37  1  0  0  0  0
M  END
>  <minimizedAffinity>
-4.87265682

$$$$

 OpenBabel03252509023D

 39 41  0  0  1  0  0  0  0  0999 V2000
   38.0490   28.3590   37.8020 N   0  0  0  0  0  0  0  0  0  0  0  0
   38.3100   28.1860   36.4160 C   0  0  0  0  0  0  0  0  0  0  0  0
   37.1640   28.5430   35.4980 C   0  0  0  0  0  0  0  0  0  0  0  0
   36.3060   29.6780   35.9890 C   0  0  0  0  0  0  0  0  0  0  0  0
   36.8400   30.2720   37.2690 C   0  0  0  0  0  0  0  0  0  0  0  0
   36.9180   29.0360   38.2330 C   0  0  2  0  0  0  0  0  0  0  0  0
   39.1320   28.8910   36.1450 H   0  0  0  0  0  0  0  0  0  0  0  0
   38.6670   27.1990   36.1160 H   0  0  0  0  0  0  0  0  0  0  0  0
   36.5790   27.6120   35.3290 H   0  0  0  0  0  0  0  0  0  0  0  0
   37.5880   28.8000   34.5020 H   0  0  0  0  0  0  0  0  0  0  0  0
   35.2930   29.2790   36.1630 H   0  0  0  0  0  0  0  0  0  0  0  0
   36.2800   30.5000   35.2310 H   0  0  0  0  0  0  0  0  0  0  0  0
   37.8560   30.6520   37.1560 H   0  0  0  0  0  0  0  0  0  0  0  0
   36.1010   30.9830   37.6440 H   0  0  0  0  0  0  0  0  0  0  0  0
   35.9350   28.5390   38.1590 H   0  0  0  0  0  0  0  0  0  0  0  0
   38.5950   27.3280   38.6340 C   0  0  0  0  0  0  0  0  0  0  0  0
   39.6040   27.0780   38.2660 H   0  0  0  0  0  0  0  0  0  0  0  0
   38.6660   27.7380   39.6710 H   0  0  0  0  0  0  0  0  0  0  0  0
   37.6570   26.1690   38.6580 C   0  0  0  0  0  0  0  0  0  0  0  0
   36.6050   26.4090   38.4610 H   0  0  0  0  0  0  0  0  0  0  0  0
   37.9460   25.4180   37.8840 H   0  0  0  0  0  0  0  0  0  0  0  0
   39.1900   24.6180   41.7220 C   0  0  0  0  0  0  0  0  0  0  0  0
   39.0490   25.2860   40.4910 C   0  0  0  0  0  0  0  0  0  0  0  0
   37.7900   25.4610   39.9600 C   0  0  0  0  0  0  0  0  0  0  0  0
   36.7510   24.9810   40.6520 N   0  0  0  0  0  0  0  0  0  0  0  0
   36.8970   24.3430   41.8300 C   0  0  0  0  0  0  0  0  0  0  0  0
   38.1120   24.1560   42.3730 N   0  0  0  0  0  0  0  0  0  0  0  0
   40.1780   24.4800   42.1400 H   0  0  0  0  0  0  0  0  0  0  0  0
   39.9410   25.6480   39.9900 H   0  0  0  0  0  0  0  0  0  0  0  0
   36.0470   23.9610   42.3750 H   0  0  0  0  0  0  0  0  0  0  0  0
   37.1370   29.6570   39.4630 O   0  0  0  0  0  0  0  0  0  0  0  0
   34.5410   29.1970   39.7890 O   0  0  0  0  0  0  0  0  0  0  0  0
   35.8560   29.4530   40.5310 P   0  0  2  0  0  0  0  0  0  0  0  0
   35.6350   30.9640   41.3000 O   0  0  0  0  0  0  0  0  0  0  0  0
   36.4980   31.3060   41.6300 H   0  0  0  0  0  0  0  0  0  0  0  0
   36.1700   28.3110   41.6940 O   0  0  0  0  0  0  0  0  0  0  0  0
   37.4590   28.2600   42.1570 C   0  0  0  0  0  3  0  0  0  0  0  0
   37.9160   29.0480   43.3230 C   0  0  0  0  0  2  0  0  0  0  0  0
   37.5960   27.6080   43.5390 C   0  0  0  0  0  2  0  0  0  0  0  0
  1  6  1  0  0  0  0
  1 16  1  0  0  0  0
  2  1  1  0  0  0  0
  3  4  1  0  0  0  0
  3  2  1  0  0  0  0
  4 11  1  0  0  0  0
  4  5  1  0  0  0  0
  5 14  1  0  0  0  0
  5  6  1  0  0  0  0
  6 15  1  6  0  0  0
  6 31  1  0  0  0  0
  7  2  1  0  0  0  0
  8  2  1  0  0  0  0
  9  3  1  0  0  0  0
 10  3  1  0  0  0  0
 12  4  1  0  0  0  0
 13  5  1  0  0  0  0
 16 19  1  0  0  0  0
 16 18  1  0  0  0  0
 17 16  1  0  0  0  0
 19 24  1  0  0  0  0
 20 19  1  0  0  0  0
 21 19  1  0  0  0  0
 22 28  1  0  0  0  0
 22 27  1  0  0  0  0
 23 22  2  0  0  0  0
 24 23  1  0  0  0  0
 24 25  2  0  0  0  0
 25 26  1  0  0  0  0
 26 27  2  0  0  0  0
 26 30  1  0  0  0  0
 29 23  1  0  0  0  0
 31 33  1  0  0  0  0
 33 32  2  6  0  0  0
 33 34  1  0  0  0  0
 33 36  1  0  0  0  0
 34 35  1  0  0  0  0
 36 37  1  0  0  0  0
 37 38  1  0  0  0  0
 37 39  1  0  0  0  0
 38 39  1  0  0  0  0
M  END
>  <minimizedAffinity>
-4.87005758

$$$$

 OpenBabel03252509023D

 39 41  0  0  1  0  0  0  0  0999 V2000
   38.0880   27.7500   42.9830 N   0  0  0  0  0  0  0  0  0  0  0  0
   39.2690   27.2540   43.5990 C   0  0  0  0  0  0  0  0  0  0  0  0
   40.5620   27.7930   43.0340 C   0  0  0  0  0  0  0  0  0  0  0  0
   40.4820   29.2150   42.5460 C   0  0  0  0  0  0  0  0  0  0  0  0
   39.1270   29.8230   42.8130 C   0  0  0  0  0  0  0  0  0  0  0  0
   38.1410   28.8250   42.1080 C   0  0  2  0  0  0  0  0  0  0  0  0
   39.2510   27.5910   44.6630 H   0  0  0  0  0  0  0  0  0  0  0  0
   39.3650   26.1680   43.6430 H   0  0  0  0  0  0  0  0  0  0  0  0
   40.8880   27.0900   42.2370 H   0  0  0  0  0  0  0  0  0  0  0  0
   41.3420   27.7130   43.8240 H   0  0  0  0  0  0  0  0  0  0  0  0
   40.6760   29.2070   41.4610 H   0  0  0  0  0  0  0  0  0  0  0  0
   41.2360   29.8490   43.0760 H   0  0  0  0  0  0  0  0  0  0  0  0
   38.8750   29.8240   43.8730 H   0  0  0  0  0  0  0  0  0  0  0  0
   39.0880   30.7920   42.3100 H   0  0  0  0  0  0  0  0  0  0  0  0
   38.5490   28.6710   41.0940 H   0  0  0  0  0  0  0  0  0  0  0  0
   37.0620   26.7660   42.8040 C   0  0  0  0  0  0  0  0  0  0  0  0
   36.5640   26.5990   43.7740 H   0  0  0  0  0  0  0  0  0  0  0  0
   36.3270   27.1790   42.0720 H   0  0  0  0  0  0  0  0  0  0  0  0
   37.6610   25.5350   42.2140 C   0  0  0  0  0  0  0  0  0  0  0  0
   38.7450   25.5690   42.0480 H   0  0  0  0  0  0  0  0  0  0  0  0
   37.4860   24.6570   42.8820 H   0  0  0  0  0  0  0  0  0  0  0  0
   35.7420   23.6300   39.6010 C   0  0  0  0  0  0  0  0  0  0  0  0
   36.4130   23.9510   40.7950 C   0  0  0  0  0  0  0  0  0  0  0  0
   36.9550   25.2090   40.9460 C   0  0  0  0  0  0  0  0  0  0  0  0
   36.8140   26.0720   39.9340 N   0  0  0  0  0  0  0  0  0  0  0  0
   36.1690   25.7540   38.7940 C   0  0  0  0  0  0  0  0  0  0  0  0
   35.6300   24.5360   38.6170 N   0  0  0  0  0  0  0  0  0  0  0  0
   35.3160   22.6430   39.4810 H   0  0  0  0  0  0  0  0  0  0  0  0
   36.4860   23.1960   41.5710 H   0  0  0  0  0  0  0  0  0  0  0  0
   36.0640   26.4640   37.9870 H   0  0  0  0  0  0  0  0  0  0  0  0
   36.9510   29.5520   42.1260 O   0  0  0  0  0  0  0  0  0  0  0  0
   34.9660   29.1130   40.4160 O   0  0  0  0  0  0  0  0  0  0  0  0
   36.3210   29.8060   40.5890 P   0  0  2  0  0  0  0  0  0  0  0  0
   37.3670   28.9920   39.5080 O   0  0  0  0  0  0  0  0  0  0  0  0
   38.3040   29.2300   39.6990 H   0  0  0  0  0  0  0  0  0  0  0  0
   36.2790   31.4120   40.1730 O   0  0  0  0  0  0  0  0  0  0  0  0
   37.4300   32.1230   40.3940 C   0  0  0  0  0  3  0  0  0  0  0  0
   38.4230   32.3780   39.3280 C   0  0  0  0  0  2  0  0  0  0  0  0
   37.4730   33.4740   39.6690 C   0  0  0  0  0  2  0  0  0  0  0  0
  1  2  1  0  0  0  0
  2  8  1  0  0  0  0
  2  7  1  0  0  0  0
  3  2  1  0  0  0  0
  3 10  1  0  0  0  0
  4  5  1  0  0  0  0
  4  3  1  0  0  0  0
  4 12  1  0  0  0  0
  5 13  1  0  0  0  0
  6 15  1  6  0  0  0
  6 31  1  0  0  0  0
  6  5  1  0  0  0  0
  6  1  1  0  0  0  0
  9  3  1  0  0  0  0
 11  4  1  0  0  0  0
 14  5  1  0  0  0  0
 16  1  1  0  0  0  0
 16 17  1  0  0  0  0
 18 16  1  0  0  0  0
 19 16  1  0  0  0  0
 19 21  1  0  0  0  0
 20 19  1  0  0  0  0
 22 23  1  0  0  0  0
 23 24  2  0  0  0  0
 23 29  1  0  0  0  0
 24 19  1  0  0  0  0
 25 24  1  0  0  0  0
 26 25  2  0  0  0  0
 27 26  1  0  0  0  0
 27 22  2  0  0  0  0
 28 22  1  0  0  0  0
 30 26  1  0  0  0  0
 33 32  2  6  0  0  0
 33 31  1  0  0  0  0
 34 35  1  0  0  0  0
 34 33  1  0  0  0  0
 36 37  1  0  0  0  0
 36 33  1  0  0  0  0
 38 39  1  0  0  0  0
 38 37  1  0  0  0  0
 39 37  1  0  0  0  0
M  END
>  <minimizedAffinity>
-4.81991529

$$$$

 OpenBabel03252509023D

 39 41  0  0  1  0  0  0  0  0999 V2000
   37.9660   26.5850   41.0750 N   0  0  0  0  0  0  0  0  0  0  0  0
   38.6530   25.4450   41.5730 C   0  0  0  0  0  0  0  0  0  0  0  0
   39.5650   25.7090   42.7490 C   0  0  0  0  0  0  0  0  0  0  0  0
   39.0820   26.7900   43.6790 C   0  0  0  0  0  0  0  0  0  0  0  0
   37.7310   27.3200   43.2690 C   0  0  0  0  0  0  0  0  0  0  0  0
   37.9600   27.7770   41.7840 C   0  0  2  0  0  0  0  0  0  0  0  0
   37.8800   24.7360   41.9560 H   0  0  0  0  0  0  0  0  0  0  0  0
   39.2280   24.8750   40.8410 H   0  0  0  0  0  0  0  0  0  0  0  0
   40.5750   25.9240   42.3370 H   0  0  0  0  0  0  0  0  0  0  0  0
   39.6820   24.7570   43.3130 H   0  0  0  0  0  0  0  0  0  0  0  0
   39.8230   27.6060   43.6520 H   0  0  0  0  0  0  0  0  0  0  0  0
   38.9760   26.3890   44.7170 H   0  0  0  0  0  0  0  0  0  0  0  0
   36.9700   26.5410   43.2470 H   0  0  0  0  0  0  0  0  0  0  0  0
   37.5090   28.1910   43.8890 H   0  0  0  0  0  0  0  0  0  0  0  0
   38.8750   28.3950   41.8010 H   0  0  0  0  0  0  0  0  0  0  0  0
   37.8670   26.6320   39.6460 C   0  0  0  0  0  0  0  0  0  0  0  0
   38.2530   27.6060   39.3010 H   0  0  0  0  0  0  0  0  0  0  0  0
   38.5060   25.8110   39.2410 H   0  0  0  0  0  0  0  0  0  0  0  0
   36.4570   26.3630   39.2430 C   0  0  0  0  0  0  0  0  0  0  0  0
   36.2450   25.3360   38.9230 H   0  0  0  0  0  0  0  0  0  0  0  0
   35.7640   26.5630   40.0960 H   0  0  0  0  0  0  0  0  0  0  0  0
   34.4660   28.8950   37.3020 C   0  0  0  0  0  0  0  0  0  0  0  0
   34.8520   27.9800   38.2990 C   0  0  0  0  0  0  0  0  0  0  0  0
   36.0610   27.3280   38.1830 C   0  0  0  0  0  0  0  0  0  0  0  0
   36.8160   27.6030   37.1130 N   0  0  0  0  0  0  0  0  0  0  0  0
   36.4360   28.4820   36.1640 C   0  0  0  0  0  0  0  0  0  0  0  0
   35.2630   29.1330   36.2490 N   0  0  0  0  0  0  0  0  0  0  0  0
   33.5180   29.4070   37.3920 H   0  0  0  0  0  0  0  0  0  0  0  0
   34.1860   27.8100   39.1370 H   0  0  0  0  0  0  0  0  0  0  0  0
   37.0570   28.6920   35.3070 H   0  0  0  0  0  0  0  0  0  0  0  0
   36.7990   28.5080   41.5370 O   0  0  0  0  0  0  0  0  0  0  0  0
   38.2010   30.7310   41.9250 O   0  0  0  0  0  0  0  0  0  0  0  0
   37.1140   30.0880   41.0580 P   0  0  2  0  0  0  0  0  0  0  0  0
   35.6970   30.9800   41.4040 O   0  0  0  0  0  0  0  0  0  0  0  0
   34.9060   30.5100   41.0510 H   0  0  0  0  0  0  0  0  0  0  0  0
   37.4310   30.2110   39.4330 O   0  0  0  0  0  0  0  0  0  0  0  0
   36.8390   31.2610   38.7800 C   0  0  0  0  0  3  0  0  0  0  0  0
   37.4040   32.6280   38.8010 C   0  0  0  0  0  2  0  0  0  0  0  0
   37.6530   31.7900   37.5930 C   0  0  0  0  0  2  0  0  0  0  0  0
  1  2  1  0  0  0  0
  1  6  1  0  0  0  0
  2  7  1  0  0  0  0
  2  3  1  0  0  0  0
  3 10  1  0  0  0  0
  3  4  1  0  0  0  0
  4 12  1  0  0  0  0
  5  4  1  0  0  0  0
  5 14  1  0  0  0  0
  6 15  1  6  0  0  0
  6  5  1  0  0  0  0
  8  2  1  0  0  0  0
  9  3  1  0  0  0  0
 11  4  1  0  0  0  0
 13  5  1  0  0  0  0
 16  1  1  0  0  0  0
 17 16  1  0  0  0  0
 18 16  1  0  0  0  0
 19 16  1  0  0  0  0
 19 21  1  0  0  0  0
 20 19  1  0  0  0  0
 22 28  1  0  0  0  0
 22 23  1  0  0  0  0
 23 29  1  0  0  0  0
 24 23  2  0  0  0  0
 24 19  1  0  0  0  0
 25 24  1  0  0  0  0
 26 27  1  0  0  0  0
 26 25  2  0  0  0  0
 27 22  2  0  0  0  0
 30 26  1  0  0  0  0
 31  6  1  0  0  0  0
 33 34  1  0  0  0  0
 33 31  1  0  0  0  0
 33 32  2  1  0  0  0
 35 34  1  0  0  0  0
 36 33  1  0  0  0  0
 37 38  1  0  0  0  0
 37 36  1  0  0  0  0
 39 37  1  0  0  0  0
 39 38  1  0  0  0  0
M  END
>  <minimizedAffinity>
-4.71478701

$$$$

 OpenBabel03252509023D

 39 41  0  0  1  0  0  0  0  0999 V2000
   37.0990   29.5820   38.3490 N   0  0  0  0  0  0  0  0  0  0  0  0
   36.2510   28.5990   37.7720 C   0  0  0  0  0  0  0  0  0  0  0  0
   36.5840   28.2200   36.3480 C   0  0  0  0  0  0  0  0  0  0  0  0
   38.0530   28.2640   36.0210 C   0  0  0  0  0  0  0  0  0  0  0  0
   38.8870   28.5990   37.2330 C   0  0  0  0  0  0  0  0  0  0  0  0
   38.2760   29.9610   37.7220 C   0  0  2  0  0  0  0  0  0  0  0  0
   36.3840   27.6610   38.3630 H   0  0  0  0  0  0  0  0  0  0  0  0
   35.1810   28.8100   37.8070 H   0  0  0  0  0  0  0  0  0  0  0  0
   35.9830   28.8810   35.6850 H   0  0  0  0  0  0  0  0  0  0  0  0
   36.1920   27.1950   36.1630 H   0  0  0  0  0  0  0  0  0  0  0  0
   38.1990   29.0350   35.2470 H   0  0  0  0  0  0  0  0  0  0  0  0
   38.3980   27.2650   35.6520 H   0  0  0  0  0  0  0  0  0  0  0  0
   38.7500   27.8820   38.0410 H   0  0  0  0  0  0  0  0  0  0  0  0
   39.9150   28.7580   36.9000 H   0  0  0  0  0  0  0  0  0  0  0  0
   38.2230   30.6020   36.8240 H   0  0  0  0  0  0  0  0  0  0  0  0
   36.4160   30.5380   39.1690 C   0  0  0  0  0  0  0  0  0  0  0  0
   37.1570   31.2510   39.5670 H   0  0  0  0  0  0  0  0  0  0  0  0
   35.6890   31.0790   38.5150 H   0  0  0  0  0  0  0  0  0  0  0  0
   35.6430   29.8180   40.2220 C   0  0  0  0  0  0  0  0  0  0  0  0
   34.8310   30.3900   40.6860 H   0  0  0  0  0  0  0  0  0  0  0  0
   35.1640   28.9040   39.7950 H   0  0  0  0  0  0  0  0  0  0  0  0
   37.3680   27.5220   42.6490 C   0  0  0  0  0  0  0  0  0  0  0  0
   36.4840   28.0070   41.6680 C   0  0  0  0  0  0  0  0  0  0  0  0
   36.5840   29.3190   41.2600 C   0  0  0  0  0  0  0  0  0  0  0  0
   37.5300   30.0760   41.8280 N   0  0  0  0  0  0  0  0  0  0  0  0
   38.3720   29.6020   42.7670 C   0  0  0  0  0  0  0  0  0  0  0  0
   38.2990   28.3260   43.1860 N   0  0  0  0  0  0  0  0  0  0  0  0
   37.2910   26.4920   42.9700 H   0  0  0  0  0  0  0  0  0  0  0  0
   35.7430   27.3300   41.2540 H   0  0  0  0  0  0  0  0  0  0  0  0
   39.1300   30.2270   43.2140 H   0  0  0  0  0  0  0  0  0  0  0  0
   39.2330   30.3770   38.6480 O   0  0  0  0  0  0  0  0  0  0  0  0
   39.4530   32.9700   39.1790 O   0  0  0  0  0  0  0  0  0  0  0  0
   39.9290   31.8520   38.2460 P   0  0  2  0  0  0  0  0  0  0  0  0
   39.3010   32.2700   36.7110 O   0  0  0  0  0  0  0  0  0  0  0  0
   39.3810   31.5060   36.0930 H   0  0  0  0  0  0  0  0  0  0  0  0
   41.5830   31.7700   38.1340 O   0  0  0  0  0  0  0  0  0  0  0  0
   42.1640   32.5660   37.1810 C   0  0  0  0  0  3  0  0  0  0  0  0
   42.4940   33.9870   37.4280 C   0  0  0  0  0  2  0  0  0  0  0  0
   43.5980   32.9910   37.5200 C   0  0  0  0  0  2  0  0  0  0  0  0
  1 16  1  0  0  0  0
  2  8  1  0  0  0  0
  2  1  1  0  0  0  0
  2  7  1  0  0  0  0
  3  2  1  0  0  0  0
  4  3  1  0  0  0  0
  4  5  1  0  0  0  0
  5  6  1  0  0  0  0
  5 13  1  0  0  0  0
  6 15  1  6  0  0  0
  6  1  1  0  0  0  0
  6 31  1  0  0  0  0
  9  3  1  0  0  0  0
 10  3  1  0  0  0  0
 11  4  1  0  0  0  0
 12  4  1  0  0  0  0
 14  5  1  0  0  0  0
 16 17  1  0  0  0  0
 16 19  1  0  0  0  0
 18 16  1  0  0  0  0
 19 20  1  0  0  0  0
 19 24  1  0  0  0  0
 21 19  1  0  0  0  0
 22 28  1  0  0  0  0
 22 27  1  0  0  0  0
 23 22  2  0  0  0  0
 24 23  1  0  0  0  0
 24 25  2  0  0  0  0
 25 26  1  0  0  0  0
 26 27  2  0  0  0  0
 26 30  1  0  0  0  0
 29 23  1  0  0  0  0
 33 31  1  0  0  0  0
 33 32  2  1  0  0  0
 34 33  1  0  0  0  0
 35 34  1  0  0  0  0
 36 33  1  0  0  0  0
 37 38  1  0  0  0  0
 37 39  1  0  0  0  0
 37 36  1  0  0  0  0
 38 39  1  0  0  0  0
M  END
>  <minimizedAffinity>
-4.7054925

$$$$

 OpenBabel03252509023D

 39 41  0  0  1  0  0  0  0  0999 V2000
   36.1730   29.4740   38.6040 N   0  0  0  0  0  0  0  0  0  0  0  0
   35.0420   28.7630   38.1190 C   0  0  0  0  0  0  0  0  0  0  0  0
   34.6810   29.0390   36.6780 C   0  0  0  0  0  0  0  0  0  0  0  0
   35.8590   29.3210   35.7850 C   0  0  0  0  0  0  0  0  0  0  0  0
   37.1670   29.1800   36.5230 C   0  0  0  0  0  0  0  0  0  0  0  0
   37.0040   30.1650   37.7350 C   0  0  2  0  0  0  0  0  0  0  0  0
   35.2960   27.6760   38.1540 H   0  0  0  0  0  0  0  0  0  0  0  0
   34.1270   28.8630   38.7050 H   0  0  0  0  0  0  0  0  0  0  0  0
   33.9420   29.8700   36.6800 H   0  0  0  0  0  0  0  0  0  0  0  0
   34.1210   28.1590   36.2900 H   0  0  0  0  0  0  0  0  0  0  0  0
   35.7550   30.3540   35.4130 H   0  0  0  0  0  0  0  0  0  0  0  0
   35.8830   28.5960   34.9340 H   0  0  0  0  0  0  0  0  0  0  0  0
   37.3020   28.1820   36.9400 H   0  0  0  0  0  0  0  0  0  0  0  0
   37.9640   29.5370   35.8670 H   0  0  0  0  0  0  0  0  0  0  0  0
   36.6520   31.1160   37.2990 H   0  0  0  0  0  0  0  0  0  0  0  0
   36.0340   29.9490   39.9490 C   0  0  0  0  0  0  0  0  0  0  0  0
   37.0120   30.3310   40.2880 H   0  0  0  0  0  0  0  0  0  0  0  0
   35.2910   30.7820   39.9340 H   0  0  0  0  0  0  0  0  0  0  0  0
   35.4850   28.8540   40.8010 C   0  0  0  0  0  0  0  0  0  0  0  0
   34.6140   29.1220   41.4110 H   0  0  0  0  0  0  0  0  0  0  0  0
   35.1560   27.9960   40.1660 H   0  0  0  0  0  0  0  0  0  0  0  0
   38.2970   28.6850   43.2910 C   0  0  0  0  0  0  0  0  0  0  0  0
   37.2670   29.1830   42.4730 C   0  0  0  0  0  0  0  0  0  0  0  0
   36.5720   28.3140   41.6600 C   0  0  0  0  0  0  0  0  0  0  0  0
   36.9190   27.0220   41.6910 N   0  0  0  0  0  0  0  0  0  0  0  0
   37.9080   26.5560   42.4790 C   0  0  0  0  0  0  0  0  0  0  0  0
   38.6040   27.3790   43.2820 N   0  0  0  0  0  0  0  0  0  0  0  0
   38.8430   29.3670   43.9300 H   0  0  0  0  0  0  0  0  0  0  0  0
   37.0440   30.2440   42.5040 H   0  0  0  0  0  0  0  0  0  0  0  0
   38.1750   25.5100   42.4910 H   0  0  0  0  0  0  0  0  0  0  0  0
   38.3100   30.2240   38.2220 O   0  0  0  0  0  0  0  0  0  0  0  0
   37.8500   32.7770   38.7960 O   0  0  0  0  0  0  0  0  0  0  0  0
   38.9080   31.7930   38.2880 P   0  0  2  0  0  0  0  0  0  0  0  0
   39.1950   32.2590   36.6680 O   0  0  0  0  0  0  0  0  0  0  0  0
   39.7060   31.5600   36.1990 H   0  0  0  0  0  0  0  0  0  0  0  0
   40.3370   31.8960   39.1270 O   0  0  0  0  0  0  0  0  0  0  0  0
   40.2640   32.4530   40.3780 C   0  0  0  0  0  3  0  0  0  0  0  0
   39.8480   31.6790   41.5680 C   0  0  0  0  0  2  0  0  0  0  0  0
   41.3070   31.9070   41.3610 C   0  0  0  0  0  2  0  0  0  0  0  0
  1 16  1  0  0  0  0
  2  7  1  0  0  0  0
  2  1  1  0  0  0  0
  2  8  1  0  0  0  0
  3  9  1  0  0  0  0
  3  2  1  0  0  0  0
  4  5  1  0  0  0  0
  4  3  1  0  0  0  0
  5 13  1  0  0  0  0
  5  6  1  0  0  0  0
  6 15  1  6  0  0  0
  6 31  1  0  0  0  0
  6  1  1  0  0  0  0
 10  3  1  0  0  0  0
 11  4  1  0  0  0  0
 12  4  1  0  0  0  0
 14  5  1  0  0  0  0
 16 17  1  0  0  0  0
 16 19  1  0  0  0  0
 18 16  1  0  0  0  0
 19 20  1  0  0  0  0
 19 24  1  0  0  0  0
 21 19  1  0  0  0  0
 22 28  1  0  0  0  0
 23 29  1  0  0  0  0
 23 22  2  0  0  0  0
 24 25  2  0  0  0  0
 24 23  1  0  0  0  0
 25 26  1  0  0  0  0
 26 30  1  0  0  0  0
 26 27  2  0  0  0  0
 27 22  1  0  0  0  0
 31 33  1  0  0  0  0
 33 32  2  1  0  0  0
 33 36  1  0  0  0  0
 34 33  1  0  0  0  0
 35 34  1  0  0  0  0
 36 37  1  0  0  0  0
 37 39  1  0  0  0  0
 37 38  1  0  0  0  0
 39 38  1  0  0  0  0
M  END
>  <minimizedAffinity>
-4.68519831

$$$$

 OpenBabel03252509023D

 39 41  0  0  1  0  0  0  0  0999 V2000
   36.3080   30.0160   39.7780 N   0  0  0  0  0  0  0  0  0  0  0  0
   36.4160   30.3170   38.3930 C   0  0  0  0  0  0  0  0  0  0  0  0
   37.1850   29.3060   37.5750 C   0  0  0  0  0  0  0  0  0  0  0  0
   37.0400   27.8840   38.0490 C   0  0  0  0  0  0  0  0  0  0  0  0
   36.0760   27.7750   39.2050 C   0  0  0  0  0  0  0  0  0  0  0  0
   36.6710   28.7690   40.2640 C   0  0  2  0  0  0  0  0  0  0  0  0
   35.3820   30.3090   37.9730 H   0  0  0  0  0  0  0  0  0  0  0  0
   36.8190   31.3020   38.1480 H   0  0  0  0  0  0  0  0  0  0  0  0
   38.2450   29.6400   37.5550 H   0  0  0  0  0  0  0  0  0  0  0  0
   36.8400   29.3840   36.5200 H   0  0  0  0  0  0  0  0  0  0  0  0
   38.0370   27.5360   38.3660 H   0  0  0  0  0  0  0  0  0  0  0  0
   36.6400   27.2400   37.2270 H   0  0  0  0  0  0  0  0  0  0  0  0
   35.0810   28.1400   38.9500 H   0  0  0  0  0  0  0  0  0  0  0  0
   36.1280   26.7550   39.5910 H   0  0  0  0  0  0  0  0  0  0  0  0
   37.7430   28.5140   40.3410 H   0  0  0  0  0  0  0  0  0  0  0  0
   36.4370   31.1550   40.6380 C   0  0  0  0  0  0  0  0  0  0  0  0
   35.4300   31.5570   40.8400 H   0  0  0  0  0  0  0  0  0  0  0  0
   36.8980   30.8030   41.5920 H   0  0  0  0  0  0  0  0  0  0  0  0
   37.3660   32.1400   40.0110 C   0  0  0  0  0  0  0  0  0  0  0  0
   37.4460   32.0840   38.9190 H   0  0  0  0  0  0  0  0  0  0  0  0
   37.0360   33.1830   40.2360 H   0  0  0  0  0  0  0  0  0  0  0  0
   41.0140   32.6780   40.7440 C   0  0  0  0  0  0  0  0  0  0  0  0
   39.7390   32.7920   40.1620 C   0  0  0  0  0  0  0  0  0  0  0  0
   38.7090   32.0080   40.6360 C   0  0  0  0  0  0  0  0  0  0  0  0
   38.9800   31.1670   41.6410 N   0  0  0  0  0  0  0  0  0  0  0  0
   40.2050   31.0660   42.1910 C   0  0  0  0  0  0  0  0  0  0  0  0
   41.2300   31.8160   41.7510 N   0  0  0  0  0  0  0  0  0  0  0  0
   41.8230   33.2920   40.3730 H   0  0  0  0  0  0  0  0  0  0  0  0
   39.5980   33.4980   39.3500 H   0  0  0  0  0  0  0  0  0  0  0  0
   40.4060   30.3820   43.0020 H   0  0  0  0  0  0  0  0  0  0  0  0
   35.9360   28.4340   41.4010 O   0  0  0  0  0  0  0  0  0  0  0  0
   36.1020   27.0740   43.6770 O   0  0  0  0  0  0  0  0  0  0  0  0
   36.9040   27.9000   42.6670 P   0  0  2  0  0  0  0  0  0  0  0  0
   37.3750   29.3010   43.5270 O   0  0  0  0  0  0  0  0  0  0  0  0
   37.7170   29.9830   42.9030 H   0  0  0  0  0  0  0  0  0  0  0  0
   38.2710   27.1200   42.1400 O   0  0  0  0  0  0  0  0  0  0  0  0
   38.2350   25.7500   42.1720 C   0  0  0  0  0  3  0  0  0  0  0  0
   37.4170   24.9560   41.2290 C   0  0  0  0  0  2  0  0  0  0  0  0
   38.8740   25.0850   40.9470 C   0  0  0  0  0  2  0  0  0  0  0  0
  1  6  1  0  0  0  0
  1 16  1  0  0  0  0
  2  1  1  0  0  0  0
  3  4  1  0  0  0  0
  3  2  1  0  0  0  0
  4 11  1  0  0  0  0
  4  5  1  0  0  0  0
  5 14  1  0  0  0  0
  5  6  1  0  0  0  0
  6 15  1  1  0  0  0
  6 31  1  0  0  0  0
  7  2  1  0  0  0  0
  8  2  1  0  0  0  0
  9  3  1  0  0  0  0
 10  3  1  0  0  0  0
 12  4  1  0  0  0  0
 13  5  1  0  0  0  0
 16 17  1  0  0  0  0
 16 18  1  0  0  0  0
 19 21  1  0  0  0  0
 19 24  1  0  0  0  0
 19 16  1  0  0  0  0
 20 19  1  0  0  0  0
 22 27  1  0  0  0  0
 23 24  1  0  0  0  0
 23 22  2  0  0  0  0
 24 25  2  0  0  0  0
 25 26  1  0  0  0  0
 26 30  1  0  0  0  0
 27 26  2  0  0  0  0
 28 22  1  0  0  0  0
 29 23  1  0  0  0  0
 31 33  1  0  0  0  0
 33 34  1  0  0  0  0
 33 32  2  1  0  0  0
 35 34  1  0  0  0  0
 36 37  1  0  0  0  0
 36 33  1  0  0  0  0
 38 37  1  0  0  0  0
 39 38  1  0  0  0  0
 39 37  1  0  0  0  0
M  END
>  <minimizedAffinity>
-4.61735821

$$$$
