
 OpenBabel03252509083D

 35 38  0  0  0  0  0  0  0  0999 V2000
   45.3040   35.9970   43.4790 Cl  0  0  0  0  0  0  0  0  0  0  0  0
   44.8810   35.1410   42.0200 C   0  0  0  0  0  0  0  0  0  0  0  0
   45.7960   34.4300   41.3250 C   0  0  0  0  0  0  0  0  0  0  0  0
   45.3690   33.7930   40.1750 C   0  0  0  0  0  0  0  0  0  0  0  0
   44.0710   33.8670   39.7350 C   0  0  0  0  0  0  0  0  0  0  0  0
   43.1610   34.5840   40.4410 C   0  0  0  0  0  0  0  0  0  0  0  0
   43.5750   35.2240   41.5930 C   0  0  0  0  0  0  0  0  0  0  0  0
   43.7900   33.3530   38.8300 H   0  0  0  0  0  0  0  0  0  0  0  0
   42.1380   34.6650   40.1320 H   0  0  0  0  0  0  0  0  0  0  0  0
   42.8440   35.7950   42.1540 H   0  0  0  0  0  0  0  0  0  0  0  0
   46.4600   31.6460   39.4980 C   0  0  0  0  0  0  0  0  0  0  0  0
   46.3240   32.9980   39.4050 C   0  0  0  0  0  0  0  0  0  0  0  0
   47.1320   33.6960   38.5270 C   0  0  0  0  0  0  0  0  0  0  0  0
   48.0590   33.0310   37.7580 C   0  0  0  0  0  0  0  0  0  0  0  0
   48.2120   31.6530   37.8350 C   0  0  0  0  0  0  0  0  0  0  0  0
   47.3950   30.9600   38.7220 C   0  0  0  0  0  0  0  0  0  0  0  0
   47.0510   34.7620   38.4320 H   0  0  0  0  0  0  0  0  0  0  0  0
   48.6720   33.6000   37.0860 H   0  0  0  0  0  0  0  0  0  0  0  0
   48.9300   31.1380   37.2380 H   0  0  0  0  0  0  0  0  0  0  0  0
   47.5280   29.9000   38.7680 H   0  0  0  0  0  0  0  0  0  0  0  0
   45.4840   30.7340   40.5170 S   0  0  0  0  0  0  0  0  0  0  0  0
   44.0910   30.5110   39.9840 O   0  0  0  0  0  0  0  0  0  0  0  0
   46.1090   29.3060   40.4830 O   0  0  0  0  0  0  0  0  0  0  0  0
   45.3140   30.9330   42.2040 C   0  0  0  0  0  3  0  0  0  0  0  0
   43.9140   31.5050   42.5510 C   0  0  0  0  0  2  0  0  0  0  0  0
   44.3430   30.2290   43.0960 C   0  0  0  0  0  2  0  0  0  0  0  0
   49.4100   35.3320   42.0060 C   0  0  0  0  0  0  0  0  0  0  0  0
   48.0940   35.3860   41.5340 C   0  0  0  0  0  0  0  0  0  0  0  0
   47.1700   34.3830   41.8130 C   0  0  0  0  0  0  0  0  0  0  0  0
   47.6380   33.3780   42.5590 N   0  0  0  0  0  0  0  0  0  0  0  0
   48.8940   33.3170   43.0150 C   0  0  0  0  0  0  0  0  0  0  0  0
   49.7710   34.2850   42.7410 N   0  0  0  0  0  0  0  0  0  0  0  0
   50.0640   36.1590   41.7390 H   0  0  0  0  0  0  0  0  0  0  0  0
   47.7690   36.2280   40.9310 H   0  0  0  0  0  0  0  0  0  0  0  0
   49.2550   32.4900   43.6210 H   0  0  0  0  0  0  0  0  0  0  0  0
  2  1  1  0  0  0  0
  3 29  1  0  0  0  0
  3  2  2  0  0  0  0
  4  3  1  0  0  0  0
  5  4  2  0  0  0  0
  5  6  1  0  0  0  0
  6  7  2  0  0  0  0
  7  2  1  0  0  0  0
  7 10  1  0  0  0  0
  8  5  1  0  0  0  0
  9  6  1  0  0  0  0
 11 21  1  0  0  0  0
 12 11  1  0  0  0  0
 12  4  1  0  0  0  0
 13 12  2  0  0  0  0
 14 15  2  0  0  0  0
 14 13  1  0  0  0  0
 15 16  1  0  0  0  0
 16 20  1  0  0  0  0
 16 11  2  0  0  0  0
 17 13  1  0  0  0  0
 18 14  1  0  0  0  0
 19 15  1  0  0  0  0
 21 24  1  0  0  0  0
 22 21  2  0  0  0  0
 23 21  2  0  0  0  0
 24 25  1  0  0  0  0
 24 26  1  0  0  0  0
 25 26  1  0  0  0  0
 27 32  1  0  0  0  0
 28 29  1  0  0  0  0
 28 27  2  0  0  0  0
 29 30  2  0  0  0  0
 30 31  1  0  0  0  0
 31 35  1  0  0  0  0
 32 31  2  0  0  0  0
 33 27  1  0  0  0  0
 34 28  1  0  0  0  0
M  END
>  <minimizedAffinity>
-4.56619453

>  <minimizedRMSD>
1.46650267

$$$$
