
 OpenBabel03252509343D

 37 39  0  0  1  0  0  0  0  0999 V2000
   45.6990   33.6370   41.6140 C   0  0  1  0  0  0  0  0  0  0  0  0
   44.8150   34.0970   40.4780 C   0  0  0  0  0  0  0  0  0  0  0  0
   45.0830   33.0290   39.4500 C   0  0  0  0  0  0  0  0  0  0  0  0
   46.4690   32.4910   39.7470 C   0  0  0  0  0  0  0  0  0  0  0  0
   47.0120   33.3740   40.8710 C   0  0  1  0  0  0  0  0  0  0  0  0
   45.3120   32.6940   41.9950 H   0  0  0  0  0  0  0  0  0  0  0  0
   43.7370   33.9420   40.7860 H   0  0  0  0  0  0  0  0  0  0  0  0
   45.0010   35.1160   40.1540 H   0  0  0  0  0  0  0  0  0  0  0  0
   45.0670   33.5000   38.4460 H   0  0  0  0  0  0  0  0  0  0  0  0
   44.3290   32.2130   39.4540 H   0  0  0  0  0  0  0  0  0  0  0  0
   47.0610   32.4220   38.8690 H   0  0  0  0  0  0  0  0  0  0  0  0
   46.3450   31.4820   40.2590 H   0  0  0  0  0  0  0  0  0  0  0  0
   47.6330   32.8030   41.5690 H   0  0  0  0  0  0  0  0  0  0  0  0
   47.6720   34.6270   40.4190 C   0  0  0  0  0  0  0  0  0  0  0  0
   46.9830   35.4860   40.6990 H   0  0  0  0  0  0  0  0  0  0  0  0
   47.7660   34.6680   39.2990 H   0  0  0  0  0  0  0  0  0  0  0  0
   48.9670   34.8790   41.1010 C   0  0  0  0  0  3  0  0  0  0  0  0
   49.3250   36.0950   41.8440 C   0  0  0  0  0  2  0  0  0  0  0  0
   49.2550   34.7120   42.5210 C   0  0  0  0  0  2  0  0  0  0  0  0
   45.8570   34.6120   42.5930 O   0  0  0  0  0  0  0  0  0  0  0  0
   44.7490   35.0390   44.9030 O   0  0  0  0  0  0  0  0  0  0  0  0
   45.4500   33.9850   44.1010 P   0  0  1  0  0  0  0  0  0  0  0  0
   44.5100   32.5960   43.9300 O   0  0  0  0  0  0  0  0  0  0  0  0
   43.7270   32.8450   43.4040 H   0  0  0  0  0  0  0  0  0  0  0  0
   46.8560   33.4850   44.8790 O   0  0  0  0  0  0  0  0  0  0  0  0
   46.8420   32.1440   45.0100 C   0  0  0  0  0  0  0  0  0  0  0  0
   46.2110   31.5500   44.3550 H   0  0  0  0  0  0  0  0  0  0  0  0
   47.8910   31.7820   44.8000 H   0  0  0  0  0  0  0  0  0  0  0  0
   46.8850   31.9540   48.7260 C   0  0  0  0  0  0  0  0  0  0  0  0
   47.1610   32.3770   47.4170 C   0  0  0  0  0  0  0  0  0  0  0  0
   46.5520   31.7040   46.3850 C   0  0  0  0  0  0  0  0  0  0  0  0
   45.7170   30.6680   46.6890 N   0  0  0  0  0  0  0  0  0  0  0  0
   45.4670   30.2800   47.9460 C   0  0  0  0  0  0  0  0  0  0  0  0
   46.0500   30.9230   48.9520 N   0  0  0  0  0  0  0  0  0  0  0  0
   47.3910   32.5180   49.5050 H   0  0  0  0  0  0  0  0  0  0  0  0
   47.8410   33.2140   47.2510 H   0  0  0  0  0  0  0  0  0  0  0  0
   44.8030   29.4560   48.1750 H   0  0  0  0  0  0  0  0  0  0  0  0
  1  6  1  1  0  0  0
  1 20  1  0  0  0  0
  2  7  1  0  0  0  0
  2  1  1  0  0  0  0
  3 10  1  0  0  0  0
  3  4  1  0  0  0  0
  3  2  1  0  0  0  0
  4 12  1  0  0  0  0
  4  5  1  0  0  0  0
  5 13  1  1  0  0  0
  5  1  1  0  0  0  0
  8  2  1  0  0  0  0
  9  3  1  0  0  0  0
 11  4  1  0  0  0  0
 14 15  1  0  0  0  0
 14  5  1  0  0  0  0
 14 17  1  0  0  0  0
 16 14  1  0  0  0  0
 17 18  1  0  0  0  0
 17 19  1  0  0  0  0
 18 19  1  0  0  0  0
 20 22  1  0  0  0  0
 22 25  1  0  0  0  0
 22 21  2  1  0  0  0
 23 22  1  0  0  0  0
 24 23  1  0  0  0  0
 25 26  1  0  0  0  0
 26 31  1  0  0  0  0
 27 26  1  0  0  0  0
 28 26  1  0  0  0  0
 29 34  1  0  0  0  0
 29 35  1  0  0  0  0
 30 29  2  0  0  0  0
 31 32  2  0  0  0  0
 31 30  1  0  0  0  0
 32 33  1  0  0  0  0
 33 37  1  0  0  0  0
 33 34  2  0  0  0  0
 36 30  1  0  0  0  0
M  END
>  <minimizedAffinity>
-4.92363834

>  <minimizedRMSD>
1.4523741

$$$$
