
 OpenBabel03252508503D

 22 24  0  0  0  0  0  0  0  0999 V2000
   45.8990   34.2180   41.0420 C   0  0  0  0  0  0  0  0  0  0  0  0
   46.5020   34.8120   42.1460 C   0  0  0  0  0  0  0  0  0  0  0  0
   47.8640   35.1400   42.0360 C   0  0  0  0  0  0  0  0  0  0  0  0
   48.5010   34.8590   40.8620 N   0  0  0  0  0  0  0  0  0  0  0  0
   47.8640   34.2830   39.8240 C   0  0  0  0  0  0  0  0  0  0  0  0
   46.5580   33.9540   39.8960 N   0  0  0  0  0  0  0  0  0  0  0  0
   48.3490   35.6030   42.8870 H   0  0  0  0  0  0  0  0  0  0  0  0
   48.4210   34.0800   38.9080 H   0  0  0  0  0  0  0  0  0  0  0  0
   45.7330   35.0690   43.3520 C   0  0  0  0  0  0  0  0  0  0  0  0
   45.0630   36.2540   43.5790 C   0  0  0  0  0  0  0  0  0  0  0  0
   44.4820   36.0700   44.8130 C   0  0  0  0  0  0  0  0  0  0  0  0
   44.7790   34.8490   45.3110 N   0  0  0  0  0  0  0  0  0  0  0  0
   45.5340   34.2660   44.4100 N   0  0  0  0  0  0  0  0  0  0  0  0
   45.0080   37.1270   42.9330 H   0  0  0  0  0  0  0  0  0  0  0  0
   43.8640   36.8320   45.3070 H   0  0  0  0  0  0  0  0  0  0  0  0
   44.4640   34.4480   46.2380 H   0  0  0  0  0  0  0  0  0  0  0  0
   44.5520   33.8900   41.1390 O   0  0  0  0  0  0  0  0  0  0  0  0
   43.5150   34.5560   40.5460 C   0  0  0  0  0  0  0  0  0  0  0  0
   42.7900   35.4840   41.0280 O   0  0  0  0  0  0  0  0  0  0  0  0
   42.8300   34.5080   39.1980 C   0  0  0  0  0  3  0  0  0  0  0  0
   42.8470   33.2150   38.4280 C   0  0  0  0  0  2  0  0  0  0  0  0
   41.5880   33.7560   39.0290 C   0  0  0  0  0  2  0  0  0  0  0  0
  1 17  1  0  0  0  0
  1  2  1  0  0  0  0
  2  9  1  0  0  0  0
  3  2  2  0  0  0  0
  3  7  1  0  0  0  0
  4  3  1  0  0  0  0
  5  6  1  0  0  0  0
  5  4  2  0  0  0  0
  6  1  2  0  0  0  0
  8  5  1  0  0  0  0
  9 10  1  0  0  0  0
  9 13  2  0  0  0  0
 10 11  2  0  0  0  0
 11 15  1  0  0  0  0
 11 12  1  0  0  0  0
 12 16  1  0  0  0  0
 13 12  1  0  0  0  0
 14 10  1  0  0  0  0
 18 19  2  0  0  0  0
 18 17  1  0  0  0  0
 20 18  1  0  0  0  0
 21 22  1  0  0  0  0
 21 20  1  0  0  0  0
 22 20  1  0  0  0  0
M  END
>  <minimizedAffinity>
-4.69277382

>  <minimizedRMSD>
0.603176773

$$$$
