
 OpenBabel03252508503D

 22 24  0  0  0  0  0  0  0  0999 V2000
   45.8830   34.2180   41.0230 C   0  0  0  0  0  0  0  0  0  0  0  0
   46.4920   34.8040   42.1280 C   0  0  0  0  0  0  0  0  0  0  0  0
   47.8570   35.1210   42.0170 C   0  0  0  0  0  0  0  0  0  0  0  0
   48.4910   34.8360   40.8420 N   0  0  0  0  0  0  0  0  0  0  0  0
   47.8480   34.2670   39.8040 C   0  0  0  0  0  0  0  0  0  0  0  0
   46.5390   33.9500   39.8760 N   0  0  0  0  0  0  0  0  0  0  0  0
   48.3470   35.5780   42.8690 H   0  0  0  0  0  0  0  0  0  0  0  0
   48.4030   34.0610   38.8870 H   0  0  0  0  0  0  0  0  0  0  0  0
   45.7270   35.0660   43.3340 C   0  0  0  0  0  0  0  0  0  0  0  0
   45.0710   36.2580   43.5660 C   0  0  0  0  0  0  0  0  0  0  0  0
   44.4880   36.0770   44.8000 C   0  0  0  0  0  0  0  0  0  0  0  0
   44.7690   34.8500   45.2930 N   0  0  0  0  0  0  0  0  0  0  0  0
   45.5170   34.2610   44.3890 N   0  0  0  0  0  0  0  0  0  0  0  0
   45.0270   37.1340   42.9230 H   0  0  0  0  0  0  0  0  0  0  0  0
   43.8790   36.8450   45.2960 H   0  0  0  0  0  0  0  0  0  0  0  0
   44.4490   34.4500   46.2180 H   0  0  0  0  0  0  0  0  0  0  0  0
   44.5340   33.9000   41.1210 O   0  0  0  0  0  0  0  0  0  0  0  0
   43.5020   34.5860   40.5410 C   0  0  0  0  0  0  0  0  0  0  0  0
   42.7950   35.5210   41.0370 O   0  0  0  0  0  0  0  0  0  0  0  0
   42.8020   34.5560   39.2010 C   0  0  0  0  0  3  0  0  0  0  0  0
   42.3470   33.2300   38.6560 C   0  0  0  0  0  2  0  0  0  0  0  0
   41.3720   34.2650   39.1200 C   0  0  0  0  0  2  0  0  0  0  0  0
  1 17  1  0  0  0  0
  1  2  1  0  0  0  0
  2  9  1  0  0  0  0
  3  2  2  0  0  0  0
  3  7  1  0  0  0  0
  4  3  1  0  0  0  0
  5  6  1  0  0  0  0
  5  4  2  0  0  0  0
  6  1  2  0  0  0  0
  8  5  1  0  0  0  0
  9 10  1  0  0  0  0
  9 13  2  0  0  0  0
 10 11  2  0  0  0  0
 11 12  1  0  0  0  0
 11 15  1  0  0  0  0
 12 16  1  0  0  0  0
 13 12  1  0  0  0  0
 14 10  1  0  0  0  0
 18 19  2  0  0  0  0
 18 17  1  0  0  0  0
 20 18  1  0  0  0  0
 21 22  1  0  0  0  0
 21 20  1  0  0  0  0
 22 20  1  0  0  0  0
M  END
>  <minimizedAffinity>
-4.7548542

>  <minimizedRMSD>
0.657159925

$$$$
