
 OpenBabel03252509083D

 35 38  0  0  0  0  0  0  0  0999 V2000
   45.4820   35.2330   43.3100 Cl  0  0  0  0  0  0  0  0  0  0  0  0
   45.2320   34.5360   41.7310 C   0  0  0  0  0  0  0  0  0  0  0  0
   46.2660   34.1290   40.9650 C   0  0  0  0  0  0  0  0  0  0  0  0
   45.9700   33.5970   39.7230 C   0  0  0  0  0  0  0  0  0  0  0  0
   44.6810   33.4790   39.2650 C   0  0  0  0  0  0  0  0  0  0  0  0
   43.6500   33.8920   40.0440 C   0  0  0  0  0  0  0  0  0  0  0  0
   43.9330   34.4240   41.2870 C   0  0  0  0  0  0  0  0  0  0  0  0
   44.5040   33.0590   38.2880 H   0  0  0  0  0  0  0  0  0  0  0  0
   42.6290   33.8170   39.7240 H   0  0  0  0  0  0  0  0  0  0  0  0
   43.1050   34.7510   41.9060 H   0  0  0  0  0  0  0  0  0  0  0  0
   47.2570   31.8290   38.5090 C   0  0  0  0  0  0  0  0  0  0  0  0
   47.0600   33.1270   38.8710 C   0  0  0  0  0  0  0  0  0  0  0  0
   47.9370   34.0930   38.4130 C   0  0  0  0  0  0  0  0  0  0  0  0
   48.9920   33.7440   37.6030 C   0  0  0  0  0  0  0  0  0  0  0  0
   49.2100   32.4270   37.2200 C   0  0  0  0  0  0  0  0  0  0  0  0
   48.3230   31.4630   37.6860 C   0  0  0  0  0  0  0  0  0  0  0  0
   47.8110   35.1240   38.6820 H   0  0  0  0  0  0  0  0  0  0  0  0
   49.6560   34.5160   37.2630 H   0  0  0  0  0  0  0  0  0  0  0  0
   50.0270   32.1570   36.5900 H   0  0  0  0  0  0  0  0  0  0  0  0
   48.5070   30.4540   37.3810 H   0  0  0  0  0  0  0  0  0  0  0  0
   46.2070   30.6120   39.0000 S   0  0  0  0  0  0  0  0  0  0  0  0
   44.8050   30.7690   38.4660 O   0  0  0  0  0  0  0  0  0  0  0  0
   46.7220   29.3340   38.2720 O   0  0  0  0  0  0  0  0  0  0  0  0
   46.0400   29.9950   40.5820 C   0  0  0  0  0  3  0  0  0  0  0  0
   47.3520   30.1830   41.3870 C   0  0  0  0  0  2  0  0  0  0  0  0
   46.1110   30.7680   41.8580 C   0  0  0  0  0  2  0  0  0  0  0  0
   49.5830   35.6430   41.9870 C   0  0  0  0  0  0  0  0  0  0  0  0
   48.2800   35.5070   41.4950 C   0  0  0  0  0  0  0  0  0  0  0  0
   47.6240   34.2800   41.4750 C   0  0  0  0  0  0  0  0  0  0  0  0
   48.3330   33.2550   41.9580 N   0  0  0  0  0  0  0  0  0  0  0  0
   49.5780   33.3740   42.4310 C   0  0  0  0  0  0  0  0  0  0  0  0
   50.1970   34.5570   42.4450 N   0  0  0  0  0  0  0  0  0  0  0  0
   50.0170   36.6390   41.9650 H   0  0  0  0  0  0  0  0  0  0  0  0
   47.7520   36.3760   41.1150 H   0  0  0  0  0  0  0  0  0  0  0  0
   50.1390   32.5270   42.8210 H   0  0  0  0  0  0  0  0  0  0  0  0
  2  1  1  0  0  0  0
  3 29  1  0  0  0  0
  3  2  2  0  0  0  0
  4  3  1  0  0  0  0
  5  4  2  0  0  0  0
  5  6  1  0  0  0  0
  6  7  2  0  0  0  0
  7  2  1  0  0  0  0
  7 10  1  0  0  0  0
  8  5  1  0  0  0  0
  9  6  1  0  0  0  0
 11 12  1  0  0  0  0
 11 21  1  0  0  0  0
 12  4  1  0  0  0  0
 13 17  1  0  0  0  0
 13 12  2  0  0  0  0
 14 13  1  0  0  0  0
 15 14  2  0  0  0  0
 15 16  1  0  0  0  0
 16 11  2  0  0  0  0
 18 14  1  0  0  0  0
 19 15  1  0  0  0  0
 20 16  1  0  0  0  0
 21 24  1  0  0  0  0
 22 21  2  0  0  0  0
 23 21  2  0  0  0  0
 24 25  1  0  0  0  0
 24 26  1  0  0  0  0
 25 26  1  0  0  0  0
 27 32  1  0  0  0  0
 28 27  2  0  0  0  0
 29 28  1  0  0  0  0
 29 30  2  0  0  0  0
 30 31  1  0  0  0  0
 31 32  2  0  0  0  0
 31 35  1  0  0  0  0
 33 27  1  0  0  0  0
 34 28  1  0  0  0  0
M  END
>  <minimizedAffinity>
-4.42255735

>  <minimizedRMSD>
1.12767613

$$$$
