
 OpenBabel03252509273D

 24 26  0  0  1  0  0  0  0  0999 V2000
   47.0720   35.1940   41.7670 C   0  0  1  0  0  0  0  0  0  0  0  0
   48.5750   35.5780   41.8700 C   0  0  0  0  0  0  0  0  0  0  0  0
   47.9790   34.3790   41.0720 C   0  0  2  0  0  0  0  0  0  0  0  0
   46.4460   35.9650   41.2840 H   0  0  0  0  0  0  0  0  0  0  0  0
   48.8270   36.4670   41.2950 H   0  0  0  0  0  0  0  0  0  0  0  0
   49.1210   35.3430   42.7870 H   0  0  0  0  0  0  0  0  0  0  0  0
   48.3420   33.3850   41.4800 H   0  0  0  0  0  0  0  0  0  0  0  0
   44.9860   34.8470   44.8640 C   0  0  0  0  0  0  0  0  0  0  0  0
   45.4500   35.3710   43.6290 C   0  0  0  0  0  0  0  0  0  0  0  0
   46.5500   34.7680   43.1180 C   0  0  0  0  0  0  0  0  0  0  0  0
   47.1760   33.7150   43.7670 N   0  0  0  0  0  0  0  0  0  0  0  0
   46.7020   33.2480   44.9400 C   0  0  0  0  0  0  0  0  0  0  0  0
   45.6020   33.8190   45.4880 N   0  0  0  0  0  0  0  0  0  0  0  0
   44.1080   35.3080   45.2950 H   0  0  0  0  0  0  0  0  0  0  0  0
   47.2750   32.4250   45.3460 H   0  0  0  0  0  0  0  0  0  0  0  0
   44.8380   36.4650   42.9980 N   0  0  0  0  0  0  0  0  0  0  0  0
   45.3850   37.1760   42.4650 H   0  0  0  0  0  0  0  0  0  0  0  0
   43.7910   36.5990   43.0440 H   0  0  0  0  0  0  0  0  0  0  0  0
   48.0690   34.3960   39.5670 C   0  0  0  0  0  0  0  0  0  0  0  0
   47.1930   34.9590   39.2030 H   0  0  0  0  0  0  0  0  0  0  0  0
   48.9530   35.0050   39.2940 H   0  0  0  0  0  0  0  0  0  0  0  0
   48.0860   33.0250   38.9470 C   0  0  0  0  0  0  0  0  0  0  0  0
   49.2640   32.1660   38.9220 C   0  0  0  0  0  0  0  0  0  0  0  0
   48.9460   32.9610   37.6680 C   0  0  0  0  0  0  0  0  0  0  0  0
  1  4  1  6  0  0  0
  1  2  1  0  0  0  0
  1 10  1  0  0  0  0
  2  6  1  0  0  0  0
  3  7  1  1  0  0  0
  3  1  1  0  0  0  0
  3  2  1  0  0  0  0
  5  2  1  0  0  0  0
  8 14  1  0  0  0  0
  8 13  1  0  0  0  0
  9  8  2  0  0  0  0
 10  9  1  0  0  0  0
 10 11  2  0  0  0  0
 11 12  1  0  0  0  0
 12 15  1  0  0  0  0
 12 13  2  0  0  0  0
 16 18  1  0  0  0  0
 16  9  1  0  0  0  0
 17 16  1  0  0  0  0
 19  3  1  0  0  0  0
 20 19  1  0  0  0  0
 21 19  1  0  0  0  0
 22 19  1  0  0  0  0
 23 22  1  0  0  0  0
 24 23  1  0  0  0  0
 24 22  1  0  0  0  0
M  END
>  <minimizedAffinity>
-4.35038471

>  <minimizedRMSD>
1.06865263

$$$$
