
 OpenBabel03252505313D

 21 22  0  0  0  0  0  0  0  0999 V2000
   37.7380   29.7610   42.6680 O   0  0  0  0  0  0  0  0  0  0  0  0
   36.9490   29.8350   41.3560 P   0  0  1  0  0  0  0  0  0  0  0  0
   35.6760   30.9190   41.4430 O   0  0  0  0  0  0  0  0  0  0  0  0
   35.9340   31.7860   41.8380 H   0  0  0  0  0  0  0  0  0  0  0  0
   38.0470   30.2510   40.1310 O   0  0  0  0  0  0  0  0  0  0  0  0
   38.7140   33.7080   40.5840 C   0  0  0  0  0  0  0  0  0  0  0  0
   39.8550   33.9690   39.8000 C   0  0  0  0  0  0  0  0  0  0  0  0
   40.3750   32.8540   39.1000 C   0  0  0  0  0  0  0  0  0  0  0  0
   39.7690   31.6340   39.2180 N   0  0  0  0  0  0  0  0  0  0  0  0
   38.6760   31.4800   39.9980 C   0  0  0  0  0  0  0  0  0  0  0  0
   38.1540   32.4950   40.6710 N   0  0  0  0  0  0  0  0  0  0  0  0
   38.3530   34.5900   41.1000 H   0  0  0  0  0  0  0  0  0  0  0  0
   40.3280   34.9160   39.7050 H   0  0  0  0  0  0  0  0  0  0  0  0
   41.2600   32.9430   38.4590 H   0  0  0  0  0  0  0  0  0  0  0  0
   36.3110   28.2870   41.0960 O   0  0  0  0  0  0  0  0  0  0  0  0
   36.6160   27.5060   42.1970 C   0  0  0  0  0  0  0  0  0  0  0  0
   37.1340   28.1070   42.9790 H   0  0  0  0  0  0  0  0  0  0  0  0
   35.6730   27.0830   42.6540 H   0  0  0  0  0  0  0  0  0  0  0  0
   37.4230   26.3260   41.7280 C   0  0  0  0  0  3  0  0  0  0  0  0
   36.9340   25.4360   40.6550 C   0  0  0  0  0  2  0  0  0  0  0  0
   36.9930   24.9470   42.0960 C   0  0  0  0  0  2  0  0  0  0  0  0
  2  3  1  0  0  0  0
  2  1  2  1  0  0  0
  3  4  1  0  0  0  0
  5  2  1  0  0  0  0
  6 11  1  0  0  0  0
  6 12  1  0  0  0  0
  7  6  2  0  0  0  0
  8  9  2  0  0  0  0
  8  7  1  0  0  0  0
  9 10  1  0  0  0  0
 10  5  1  0  0  0  0
 10 11  2  0  0  0  0
 13  7  1  0  0  0  0
 14  8  1  0  0  0  0
 15  2  1  0  0  0  0
 15 16  1  0  0  0  0
 16 18  1  0  0  0  0
 16 17  1  0  0  0  0
 19 21  1  0  0  0  0
 19 16  1  0  0  0  0
 20 19  1  0  0  0  0
 20 21  1  0  0  0  0
M  END
>  <minimizedAffinity>
-4.27951574

$$$$

 OpenBabel03252505313D

 21 22  0  0  0  0  0  0  0  0999 V2000
   38.7090   28.1250   41.8670 O   0  0  0  0  0  0  0  0  0  0  0  0
   37.2530   28.2340   42.3310 P   0  0  1  0  0  0  0  0  0  0  0  0
   37.0900   29.2120   43.6800 O   0  0  0  0  0  0  0  0  0  0  0  0
   37.5790   30.0660   43.5980 H   0  0  0  0  0  0  0  0  0  0  0  0
   36.3480   28.8160   41.0190 O   0  0  0  0  0  0  0  0  0  0  0  0
   37.1790   32.1900   40.2960 C   0  0  0  0  0  0  0  0  0  0  0  0
   37.2450   32.2600   38.8910 C   0  0  0  0  0  0  0  0  0  0  0  0
   36.9790   31.0470   38.2120 C   0  0  0  0  0  0  0  0  0  0  0  0
   36.6840   29.9190   38.9260 N   0  0  0  0  0  0  0  0  0  0  0  0
   36.6440   29.9490   40.2760 C   0  0  0  0  0  0  0  0  0  0  0  0
   36.8870   31.0610   40.9540 N   0  0  0  0  0  0  0  0  0  0  0  0
   37.3910   33.1400   40.7710 H   0  0  0  0  0  0  0  0  0  0  0  0
   37.4740   33.1350   38.3330 H   0  0  0  0  0  0  0  0  0  0  0  0
   37.0030   30.9870   37.1170 H   0  0  0  0  0  0  0  0  0  0  0  0
   36.7680   26.6650   42.7530 O   0  0  0  0  0  0  0  0  0  0  0  0
   37.7700   25.7900   42.3720 C   0  0  0  0  0  0  0  0  0  0  0  0
   38.3460   26.1950   41.5100 H   0  0  0  0  0  0  0  0  0  0  0  0
   38.4920   25.6240   43.2250 H   0  0  0  0  0  0  0  0  0  0  0  0
   37.1410   24.4530   42.0860 C   0  0  0  0  0  3  0  0  0  0  0  0
   37.7460   23.5080   41.1240 C   0  0  0  0  0  2  0  0  0  0  0  0
   36.4480   24.2290   40.7850 C   0  0  0  0  0  2  0  0  0  0  0  0
  2  1  2  6  0  0  0
  2 15  1  0  0  0  0
  2  3  1  0  0  0  0
  4  3  1  0  0  0  0
  5  2  1  0  0  0  0
  6 12  1  0  0  0  0
  6 11  1  0  0  0  0
  7  6  2  0  0  0  0
  8  7  1  0  0  0  0
  8  9  2  0  0  0  0
  9 10  1  0  0  0  0
 10 11  2  0  0  0  0
 10  5  1  0  0  0  0
 13  7  1  0  0  0  0
 14  8  1  0  0  0  0
 16 15  1  0  0  0  0
 16 18  1  0  0  0  0
 17 16  1  0  0  0  0
 19 16  1  0  0  0  0
 20 19  1  0  0  0  0
 21 20  1  0  0  0  0
 21 19  1  0  0  0  0
M  END
>  <minimizedAffinity>
-4.23874855

$$$$

 OpenBabel03252505313D

 21 22  0  0  0  0  0  0  0  0999 V2000
   37.2930   30.4960   39.3120 O   0  0  0  0  0  0  0  0  0  0  0  0
   37.2700   31.2820   40.6270 P   0  0  1  0  0  0  0  0  0  0  0  0
   35.8010   31.1490   41.4180 O   0  0  0  0  0  0  0  0  0  0  0  0
   35.4720   30.2200   41.4680 H   0  0  0  0  0  0  0  0  0  0  0  0
   38.5510   30.7080   41.5800 O   0  0  0  0  0  0  0  0  0  0  0  0
   39.8040   27.7650   43.1200 C   0  0  0  0  0  0  0  0  0  0  0  0
   38.6760   27.1330   43.6790 C   0  0  0  0  0  0  0  0  0  0  0  0
   37.4470   27.8050   43.4810 C   0  0  0  0  0  0  0  0  0  0  0  0
   37.4190   28.9830   42.7870 N   0  0  0  0  0  0  0  0  0  0  0  0
   38.5570   29.5140   42.2860 C   0  0  0  0  0  0  0  0  0  0  0  0
   39.7310   28.9210   42.4480 N   0  0  0  0  0  0  0  0  0  0  0  0
   40.7200   27.2150   43.2970 H   0  0  0  0  0  0  0  0  0  0  0  0
   38.6930   26.2180   44.2180 H   0  0  0  0  0  0  0  0  0  0  0  0
   36.5040   27.4030   43.8730 H   0  0  0  0  0  0  0  0  0  0  0  0
   37.5050   32.9090   40.2140 O   0  0  0  0  0  0  0  0  0  0  0  0
   38.7220   33.3120   40.7350 C   0  0  0  0  0  0  0  0  0  0  0  0
   38.5950   34.1930   41.4050 H   0  0  0  0  0  0  0  0  0  0  0  0
   39.1870   32.4800   41.3410 H   0  0  0  0  0  0  0  0  0  0  0  0
   39.6600   33.5730   39.5880 C   0  0  0  0  0  3  0  0  0  0  0  0
   40.8510   32.7290   39.3600 C   0  0  0  0  0  2  0  0  0  0  0  0
   41.0040   34.1610   39.8560 C   0  0  0  0  0  2  0  0  0  0  0  0
  2  1  2  6  0  0  0
  2  3  1  0  0  0  0
  2  5  1  0  0  0  0
  3  4  1  0  0  0  0
  5 10  1  0  0  0  0
  6 12  1  0  0  0  0
  6  7  1  0  0  0  0
  7 13  1  0  0  0  0
  8  7  2  0  0  0  0
  8 14  1  0  0  0  0
  9  8  1  0  0  0  0
 10 11  1  0  0  0  0
 10  9  2  0  0  0  0
 11  6  2  0  0  0  0
 15  2  1  0  0  0  0
 15 16  1  0  0  0  0
 16 18  1  0  0  0  0
 16 17  1  0  0  0  0
 19 21  1  0  0  0  0
 19 16  1  0  0  0  0
 20 19  1  0  0  0  0
 20 21  1  0  0  0  0
M  END
>  <minimizedAffinity>
-4.19809103

$$$$

 OpenBabel03252505313D

 21 22  0  0  0  0  0  0  0  0999 V2000
   34.1910   29.1200   39.4940 O   0  0  0  0  0  0  0  0  0  0  0  0
   35.6070   29.5140   39.9290 P   0  0  1  0  0  0  0  0  0  0  0  0
   35.6020   30.4870   41.2910 O   0  0  0  0  0  0  0  0  0  0  0  0
   35.0130   30.1470   42.0060 H   0  0  0  0  0  0  0  0  0  0  0  0
   36.4740   28.0780   40.1850 O   0  0  0  0  0  0  0  0  0  0  0  0
   39.1950   26.9320   42.1550 C   0  0  0  0  0  0  0  0  0  0  0  0
   38.8060   27.1590   43.4890 C   0  0  0  0  0  0  0  0  0  0  0  0
   37.5270   27.7400   43.6540 C   0  0  0  0  0  0  0  0  0  0  0  0
   36.7670   28.0380   42.5570 N   0  0  0  0  0  0  0  0  0  0  0  0
   37.2270   27.7830   41.3110 C   0  0  0  0  0  0  0  0  0  0  0  0
   38.4190   27.2410   41.1080 N   0  0  0  0  0  0  0  0  0  0  0  0
   40.1800   26.4870   42.0780 H   0  0  0  0  0  0  0  0  0  0  0  0
   39.3930   26.9290   44.3440 H   0  0  0  0  0  0  0  0  0  0  0  0
   37.1220   27.9610   44.6500 H   0  0  0  0  0  0  0  0  0  0  0  0
   36.2700   30.4010   38.6460 O   0  0  0  0  0  0  0  0  0  0  0  0
   37.5830   30.6990   38.9640 C   0  0  0  0  0  0  0  0  0  0  0  0
   37.8120   30.4120   40.0160 H   0  0  0  0  0  0  0  0  0  0  0  0
   38.2910   30.1350   38.2890 H   0  0  0  0  0  0  0  0  0  0  0  0
   37.8130   32.1610   38.6890 C   0  0  0  0  0  3  0  0  0  0  0  0
   38.6980   32.9760   39.5460 C   0  0  0  0  0  2  0  0  0  0  0  0
   37.1900   33.1840   39.5760 C   0  0  0  0  0  2  0  0  0  0  0  0
  2  1  2  6  0  0  0
  2  5  1  0  0  0  0
  2  3  1  0  0  0  0
  3  4  1  0  0  0  0
  5 10  1  0  0  0  0
  6  7  1  0  0  0  0
  7  8  2  0  0  0  0
  7 13  1  0  0  0  0
  8 14  1  0  0  0  0
  9  8  1  0  0  0  0
 10  9  2  0  0  0  0
 11 10  1  0  0  0  0
 11  6  2  0  0  0  0
 12  6  1  0  0  0  0
 15 16  1  0  0  0  0
 15  2  1  0  0  0  0
 16 17  1  0  0  0  0
 18 16  1  0  0  0  0
 19 16  1  0  0  0  0
 19 20  1  0  0  0  0
 19 21  1  0  0  0  0
 20 21  1  0  0  0  0
M  END
>  <minimizedAffinity>
-4.08560467

$$$$

 OpenBabel03252505313D

 21 22  0  0  0  0  0  0  0  0999 V2000
   39.3760   27.7600   43.6470 O   0  0  0  0  0  0  0  0  0  0  0  0
   38.3630   28.4810   42.7520 P   0  0  1  0  0  0  0  0  0  0  0  0
   37.1710   29.2530   43.6390 O   0  0  0  0  0  0  0  0  0  0  0  0
   37.5320   29.7810   44.3910 H   0  0  0  0  0  0  0  0  0  0  0  0
   39.2310   29.5700   41.7830 O   0  0  0  0  0  0  0  0  0  0  0  0
   36.9590   31.7860   40.1920 C   0  0  0  0  0  0  0  0  0  0  0  0
   37.6300   33.0230   40.1350 C   0  0  0  0  0  0  0  0  0  0  0  0
   38.9310   33.0300   40.6900 C   0  0  0  0  0  0  0  0  0  0  0  0
   39.4480   31.8860   41.2290 N   0  0  0  0  0  0  0  0  0  0  0  0
   38.7260   30.7430   41.2400 C   0  0  0  0  0  0  0  0  0  0  0  0
   37.5030   30.6880   40.7320 N   0  0  0  0  0  0  0  0  0  0  0  0
   35.9680   31.8290   39.7570 H   0  0  0  0  0  0  0  0  0  0  0  0
   37.2330   33.9150   39.7160 H   0  0  0  0  0  0  0  0  0  0  0  0
   39.5450   33.9400   40.6990 H   0  0  0  0  0  0  0  0  0  0  0  0
   37.6270   27.2830   41.8050 O   0  0  0  0  0  0  0  0  0  0  0  0
   36.8840   26.4700   42.6420 C   0  0  0  0  0  0  0  0  0  0  0  0
   37.2000   26.5980   43.7030 H   0  0  0  0  0  0  0  0  0  0  0  0
   35.7870   26.7290   42.5730 H   0  0  0  0  0  0  0  0  0  0  0  0
   37.0140   25.0520   42.1560 C   0  0  0  0  0  3  0  0  0  0  0  0
   38.3190   24.3600   42.1370 C   0  0  0  0  0  2  0  0  0  0  0  0
   37.6510   24.7820   40.8350 C   0  0  0  0  0  2  0  0  0  0  0  0
  2  3  1  0  0  0  0
  2  1  2  1  0  0  0
  3  4  1  0  0  0  0
  5  2  1  0  0  0  0
  6 11  1  0  0  0  0
  7  6  2  0  0  0  0
  7  8  1  0  0  0  0
  8 14  1  0  0  0  0
  8  9  2  0  0  0  0
  9 10  1  0  0  0  0
 10  5  1  0  0  0  0
 11 10  2  0  0  0  0
 12  6  1  0  0  0  0
 13  7  1  0  0  0  0
 15 16  1  0  0  0  0
 15  2  1  0  0  0  0
 16 17  1  0  0  0  0
 18 16  1  0  0  0  0
 19 16  1  0  0  0  0
 20 19  1  0  0  0  0
 21 20  1  0  0  0  0
 21 19  1  0  0  0  0
M  END
>  <minimizedAffinity>
-4.07168913

$$$$

 OpenBabel03252505313D

 21 22  0  0  0  0  0  0  0  0999 V2000
   39.6600   29.5930   40.7990 O   0  0  0  0  0  0  0  0  0  0  0  0
   38.9980   30.5520   41.7940 P   0  0  1  0  0  0  0  0  0  0  0  0
   40.0420   31.7580   42.3030 O   0  0  0  0  0  0  0  0  0  0  0  0
   40.5320   32.1820   41.5590 H   0  0  0  0  0  0  0  0  0  0  0  0
   37.6210   31.1910   41.0370 O   0  0  0  0  0  0  0  0  0  0  0  0
   34.9110   29.0940   40.1100 C   0  0  0  0  0  0  0  0  0  0  0  0
   34.9500   29.0410   38.7040 C   0  0  0  0  0  0  0  0  0  0  0  0
   35.9890   29.7880   38.1000 C   0  0  0  0  0  0  0  0  0  0  0  0
   36.8640   30.4920   38.8810 N   0  0  0  0  0  0  0  0  0  0  0  0
   36.7450   30.4830   40.2270 C   0  0  0  0  0  0  0  0  0  0  0  0
   35.7880   29.8000   40.8360 N   0  0  0  0  0  0  0  0  0  0  0  0
   34.1000   28.5090   40.5270 H   0  0  0  0  0  0  0  0  0  0  0  0
   34.2730   28.4950   38.0930 H   0  0  0  0  0  0  0  0  0  0  0  0
   36.1150   29.8180   37.0100 H   0  0  0  0  0  0  0  0  0  0  0  0
   38.5690   29.6190   43.1430 O   0  0  0  0  0  0  0  0  0  0  0  0
   39.1910   28.3880   43.0280 C   0  0  0  0  0  0  0  0  0  0  0  0
   39.6090   28.2480   42.0050 H   0  0  0  0  0  0  0  0  0  0  0  0
   40.0430   28.3070   43.7650 H   0  0  0  0  0  0  0  0  0  0  0  0
   38.2000   27.3230   43.4110 C   0  0  0  0  0  3  0  0  0  0  0  0
   37.1630   26.8600   42.4660 C   0  0  0  0  0  2  0  0  0  0  0  0
   36.7820   27.6990   43.6790 C   0  0  0  0  0  2  0  0  0  0  0  0
  2  1  2  6  0  0  0
  2  3  1  0  0  0  0
  2 15  1  0  0  0  0
  4  3  1  0  0  0  0
  5  2  1  0  0  0  0
  6 12  1  0  0  0  0
  6 11  1  0  0  0  0
  7  6  2  0  0  0  0
  8  7  1  0  0  0  0
  8  9  2  0  0  0  0
  9 10  1  0  0  0  0
 10 11  2  0  0  0  0
 10  5  1  0  0  0  0
 13  7  1  0  0  0  0
 14  8  1  0  0  0  0
 16 15  1  0  0  0  0
 16 19  1  0  0  0  0
 16 18  1  0  0  0  0
 17 16  1  0  0  0  0
 19 21  1  0  0  0  0
 20 19  1  0  0  0  0
 20 21  1  0  0  0  0
M  END
>  <minimizedAffinity>
-4.05710173

$$$$

 OpenBabel03252505313D

 21 22  0  0  0  0  0  0  0  0999 V2000
   38.0040   31.4000   40.7210 O   0  0  0  0  0  0  0  0  0  0  0  0
   37.0350   30.2580   41.0470 P   0  0  1  0  0  0  0  0  0  0  0  0
   35.4440   30.7740   41.0980 O   0  0  0  0  0  0  0  0  0  0  0  0
   35.1970   31.3410   40.3290 H   0  0  0  0  0  0  0  0  0  0  0  0
   37.2670   29.0520   39.8760 O   0  0  0  0  0  0  0  0  0  0  0  0
   34.4140   28.9690   37.7650 C   0  0  0  0  0  0  0  0  0  0  0  0
   34.2860   27.6220   37.3710 C   0  0  0  0  0  0  0  0  0  0  0  0
   35.2650   26.7450   37.8950 C   0  0  0  0  0  0  0  0  0  0  0  0
   36.2420   27.2280   38.7200 N   0  0  0  0  0  0  0  0  0  0  0  0
   36.2840   28.5400   39.0420 C   0  0  0  0  0  0  0  0  0  0  0  0
   35.3900   29.4000   38.5750 N   0  0  0  0  0  0  0  0  0  0  0  0
   33.6450   29.6020   37.3400 H   0  0  0  0  0  0  0  0  0  0  0  0
   33.5280   27.2430   36.7310 H   0  0  0  0  0  0  0  0  0  0  0  0
   35.2610   25.6740   37.6550 H   0  0  0  0  0  0  0  0  0  0  0  0
   37.4610   29.6960   42.5880 O   0  0  0  0  0  0  0  0  0  0  0  0
   38.4220   28.7130   42.4350 C   0  0  0  0  0  0  0  0  0  0  0  0
   38.6490   28.5420   41.3580 H   0  0  0  0  0  0  0  0  0  0  0  0
   39.3820   29.0170   42.9470 H   0  0  0  0  0  0  0  0  0  0  0  0
   37.9440   27.4730   43.1410 C   0  0  0  0  0  3  0  0  0  0  0  0
   36.9820   26.5480   42.5060 C   0  0  0  0  0  2  0  0  0  0  0  0
   36.5530   27.4220   43.6780 C   0  0  0  0  0  2  0  0  0  0  0  0
  2  1  2  6  0  0  0
  2  3  1  0  0  0  0
  2 15  1  0  0  0  0
  4  3  1  0  0  0  0
  5  2  1  0  0  0  0
  6 11  1  0  0  0  0
  7  6  2  0  0  0  0
  7  8  1  0  0  0  0
  8  9  2  0  0  0  0
  9 10  1  0  0  0  0
 10  5  1  0  0  0  0
 11 10  2  0  0  0  0
 12  6  1  0  0  0  0
 13  7  1  0  0  0  0
 14  8  1  0  0  0  0
 16 15  1  0  0  0  0
 16 18  1  0  0  0  0
 16 19  1  0  0  0  0
 17 16  1  0  0  0  0
 19 21  1  0  0  0  0
 20 19  1  0  0  0  0
 20 21  1  0  0  0  0
M  END
>  <minimizedAffinity>
-4.02106142

$$$$

 OpenBabel03252505313D

 21 22  0  0  0  0  0  0  0  0999 V2000
   40.8990   25.7340   41.2940 O   0  0  0  0  0  0  0  0  0  0  0  0
   40.9190   25.3820   42.7850 P   0  0  1  0  0  0  0  0  0  0  0  0
   42.3810   24.7160   43.2580 O   0  0  0  0  0  0  0  0  0  0  0  0
   43.1600   25.2230   42.9260 H   0  0  0  0  0  0  0  0  0  0  0  0
   40.5680   26.8020   43.6430 O   0  0  0  0  0  0  0  0  0  0  0  0
   39.1550   29.7270   42.2120 C   0  0  0  0  0  0  0  0  0  0  0  0
   37.7850   29.6690   42.5310 C   0  0  0  0  0  0  0  0  0  0  0  0
   37.3870   28.5370   43.2810 C   0  0  0  0  0  0  0  0  0  0  0  0
   38.3140   27.5990   43.6420 N   0  0  0  0  0  0  0  0  0  0  0  0
   39.6110   27.7420   43.2880 C   0  0  0  0  0  0  0  0  0  0  0  0
   40.0300   28.7840   42.5860 N   0  0  0  0  0  0  0  0  0  0  0  0
   39.4120   30.6090   41.6380 H   0  0  0  0  0  0  0  0  0  0  0  0
   37.0610   30.3950   42.2530 H   0  0  0  0  0  0  0  0  0  0  0  0
   36.3430   28.3890   43.5850 H   0  0  0  0  0  0  0  0  0  0  0  0
   39.7080   24.2190   43.0160 O   0  0  0  0  0  0  0  0  0  0  0  0
   39.0490   24.0400   41.8130 C   0  0  0  0  0  0  0  0  0  0  0  0
   39.5860   24.5570   40.9850 H   0  0  0  0  0  0  0  0  0  0  0  0
   38.9910   22.9410   41.5550 H   0  0  0  0  0  0  0  0  0  0  0  0
   37.6300   24.5090   41.9790 C   0  0  0  0  0  3  0  0  0  0  0  0
   36.5700   24.1110   41.0290 C   0  0  0  0  0  2  0  0  0  0  0  0
   37.0840   25.5450   41.0560 C   0  0  0  0  0  2  0  0  0  0  0  0
  2  1  2  6  0  0  0
  2 15  1  0  0  0  0
  2  3  1  0  0  0  0
  2  5  1  0  0  0  0
  4  3  1  0  0  0  0
  6  7  2  0  0  0  0
  6 11  1  0  0  0  0
  7  8  1  0  0  0  0
  8 14  1  0  0  0  0
  8  9  2  0  0  0  0
 10  9  1  0  0  0  0
 10  5  1  0  0  0  0
 11 10  2  0  0  0  0
 12  6  1  0  0  0  0
 13  7  1  0  0  0  0
 16 19  1  0  0  0  0
 16 15  1  0  0  0  0
 17 16  1  0  0  0  0
 18 16  1  0  0  0  0
 20 21  1  0  0  0  0
 20 19  1  0  0  0  0
 21 19  1  0  0  0  0
M  END
>  <minimizedAffinity>
-4.01302099

$$$$

 OpenBabel03252505313D

 21 22  0  0  0  0  0  0  0  0999 V2000
   41.1430   29.0190   42.1270 O   0  0  0  0  0  0  0  0  0  0  0  0
   40.1280   30.1590   42.2520 P   0  0  1  0  0  0  0  0  0  0  0  0
   40.7950   31.5280   42.9480 O   0  0  0  0  0  0  0  0  0  0  0  0
   41.6690   31.7710   42.5590 H   0  0  0  0  0  0  0  0  0  0  0  0
   39.5290   30.4740   40.6960 O   0  0  0  0  0  0  0  0  0  0  0  0
   37.1120   32.5050   39.0720 C   0  0  0  0  0  0  0  0  0  0  0  0
   37.3880   33.8180   39.4980 C   0  0  0  0  0  0  0  0  0  0  0  0
   38.4780   33.9470   40.3920 C   0  0  0  0  0  0  0  0  0  0  0  0
   39.1760   32.8370   40.7780 N   0  0  0  0  0  0  0  0  0  0  0  0
   38.8350   31.6130   40.3150 C   0  0  0  0  0  0  0  0  0  0  0  0
   37.8230   31.4440   39.4780 N   0  0  0  0  0  0  0  0  0  0  0  0
   36.2720   32.4560   38.3900 H   0  0  0  0  0  0  0  0  0  0  0  0
   36.8490   34.6840   39.1990 H   0  0  0  0  0  0  0  0  0  0  0  0
   38.7820   34.9240   40.7870 H   0  0  0  0  0  0  0  0  0  0  0  0
   38.8970   29.5930   43.2700 O   0  0  0  0  0  0  0  0  0  0  0  0
   38.8310   28.2170   43.1390 C   0  0  0  0  0  0  0  0  0  0  0  0
   39.6490   27.8410   42.4840 H   0  0  0  0  0  0  0  0  0  0  0  0
   38.9370   27.7200   44.1470 H   0  0  0  0  0  0  0  0  0  0  0  0
   37.4590   27.8590   42.6350 C   0  0  0  0  0  3  0  0  0  0  0  0
   36.4040   27.3760   43.5500 C   0  0  0  0  0  2  0  0  0  0  0  0
   37.0560   26.4250   42.5540 C   0  0  0  0  0  2  0  0  0  0  0  0
  2  1  2  6  0  0  0
  2  3  1  0  0  0  0
  2 15  1  0  0  0  0
  4  3  1  0  0  0  0
  5  2  1  0  0  0  0
  6 11  2  0  0  0  0
  6  7  1  0  0  0  0
  7  8  2  0  0  0  0
  8  9  1  0  0  0  0
  8 14  1  0  0  0  0
 10  5  1  0  0  0  0
 10  9  2  0  0  0  0
 11 10  1  0  0  0  0
 12  6  1  0  0  0  0
 13  7  1  0  0  0  0
 16 15  1  0  0  0  0
 16 18  1  0  0  0  0
 17 16  1  0  0  0  0
 19 16  1  0  0  0  0
 19 20  1  0  0  0  0
 21 19  1  0  0  0  0
 21 20  1  0  0  0  0
M  END
>  <minimizedAffinity>
-3.96146274

$$$$
