
 OpenBabel03252507163D

 23 25  0  0  0  0  0  0  0  0999 V2000
   44.7900   35.9250   43.4030 C   0  0  0  0  0  0  0  0  0  0  0  0
   45.4640   34.7340   43.0370 C   0  0  0  0  0  0  0  0  0  0  0  0
   45.7390   33.8250   44.0330 C   0  0  0  0  0  0  0  0  0  0  0  0
   45.3670   34.0840   45.3010 N   0  0  0  0  0  0  0  0  0  0  0  0
   44.7170   35.2410   45.6370 C   0  0  0  0  0  0  0  0  0  0  0  0
   44.4480   36.1260   44.6760 N   0  0  0  0  0  0  0  0  0  0  0  0
   44.5480   36.6800   42.6560 H   0  0  0  0  0  0  0  0  0  0  0  0
   44.4860   35.3010   46.7010 H   0  0  0  0  0  0  0  0  0  0  0  0
   46.4320   32.5950   43.6700 C   0  0  0  0  0  0  0  0  0  0  0  0
   45.7120   31.4430   43.4180 C   0  0  0  0  0  0  0  0  0  0  0  0
   46.3950   30.2990   43.0790 C   0  0  0  0  0  0  0  0  0  0  0  0
   47.7870   30.2400   42.9750 C   0  0  0  0  0  0  0  0  0  0  0  0
   48.4490   31.4200   43.2380 C   0  0  0  0  0  0  0  0  0  0  0  0
   47.7740   32.5410   43.5720 N   0  0  0  0  0  0  0  0  0  0  0  0
   44.6340   31.4450   43.4870 H   0  0  0  0  0  0  0  0  0  0  0  0
   45.8270   29.3970   42.8820 H   0  0  0  0  0  0  0  0  0  0  0  0
   48.3250   29.3390   42.7080 H   0  0  0  0  0  0  0  0  0  0  0  0
   49.5390   31.4040   43.1660 H   0  0  0  0  0  0  0  0  0  0  0  0
   45.8300   34.5200   41.6720 C   0  0  0  0  0  0  0  0  0  0  0  0
   46.9680   34.9270   41.3010 O   0  0  0  0  0  0  0  0  0  0  0  0
   44.9430   33.8520   40.6890 C   0  0  0  0  0  3  0  0  0  0  0  0
   43.5700   33.4360   41.1360 C   0  0  0  0  0  2  0  0  0  0  0  0
   43.6850   34.5750   40.2210 C   0  0  0  0  0  2  0  0  0  0  0  0
  1  6  1  0  0  0  0
  2  1  2  0  0  0  0
  2  3  1  0  0  0  0
  3  4  2  0  0  0  0
  4  5  1  0  0  0  0
  5  8  1  0  0  0  0
  6  5  2  0  0  0  0
  7  1  1  0  0  0  0
  9  3  1  0  0  0  0
 10 15  1  0  0  0  0
 10  9  2  0  0  0  0
 11 10  1  0  0  0  0
 12 11  2  0  0  0  0
 12 13  1  0  0  0  0
 13 14  2  0  0  0  0
 14  9  1  0  0  0  0
 16 11  1  0  0  0  0
 17 12  1  0  0  0  0
 18 13  1  0  0  0  0
 19  2  1  0  0  0  0
 20 19  2  0  0  0  0
 21 22  1  0  0  0  0
 21 19  1  0  0  0  0
 23 21  1  0  0  0  0
 23 22  1  0  0  0  0
M  END
>  <minimizedAffinity>
-3.89464784

>  <minimizedRMSD>
0.580897033

$$$$
