
 OpenBabel03242514563D

 13 14  0  0  0  0  0  0  0  0999 V2000
   37.0840   29.4850   41.7810 C   0  0  0  0  0  0  0  0  0  0  0  0
   36.4030   28.2670   41.7330 C   0  0  0  0  0  0  0  0  0  0  0  0
   36.9490   27.1810   42.4440 C   0  0  0  0  0  0  0  0  0  0  0  0
   38.1020   27.3870   43.1320 N   0  0  0  0  0  0  0  0  0  0  0  0
   38.7290   28.5790   43.1540 C   0  0  0  0  0  0  0  0  0  0  0  0
   38.2350   29.6430   42.4840 N   0  0  0  0  0  0  0  0  0  0  0  0
   35.4930   28.1150   41.1870 H   0  0  0  0  0  0  0  0  0  0  0  0
   36.4240   26.2430   42.4060 H   0  0  0  0  0  0  0  0  0  0  0  0
   39.6440   28.6700   43.7230 H   0  0  0  0  0  0  0  0  0  0  0  0
   36.2930   30.7940   40.8370 S   0  0  0  0  0  0  0  0  0  0  0  0
   37.6000   31.7670   40.0090 C   0  0  0  0  0  3  0  0  0  0  0  0
   37.3980   33.1880   39.6910 C   0  0  0  0  0  2  0  0  0  0  0  0
   37.3160   32.1540   38.6040 C   0  0  0  0  0  2  0  0  0  0  0  0
  1  6  1  0  0  0  0
  2  1  2  0  0  0  0
  2  3  1  0  0  0  0
  3  4  2  0  0  0  0
  4  5  1  0  0  0  0
  5  9  1  0  0  0  0
  6  5  2  0  0  0  0
  7  2  1  0  0  0  0
  8  3  1  0  0  0  0
 10  1  1  0  0  0  0
 11 10  1  0  0  0  0
 12 11  1  0  0  0  0
 13 12  1  0  0  0  0
 13 11  1  0  0  0  0
M  END
>  <minimizedAffinity>
-3.42395377

$$$$

 OpenBabel03242514563D

 13 14  0  0  0  0  0  0  0  0999 V2000
   37.0320   29.4020   41.8240 C   0  0  0  0  0  0  0  0  0  0  0  0
   38.3090   29.6920   42.3070 C   0  0  0  0  0  0  0  0  0  0  0  0
   38.9790   28.6920   43.0380 C   0  0  0  0  0  0  0  0  0  0  0  0
   38.3400   27.5080   43.2270 N   0  0  0  0  0  0  0  0  0  0  0  0
   37.1060   27.2660   42.7440 C   0  0  0  0  0  0  0  0  0  0  0  0
   36.4330   28.2010   42.0380 N   0  0  0  0  0  0  0  0  0  0  0  0
   38.8050   30.6300   42.1520 H   0  0  0  0  0  0  0  0  0  0  0  0
   39.9620   28.9170   43.4090 H   0  0  0  0  0  0  0  0  0  0  0  0
   36.6590   26.3000   42.9330 H   0  0  0  0  0  0  0  0  0  0  0  0
   36.2790   30.7520   40.9080 S   0  0  0  0  0  0  0  0  0  0  0  0
   37.6170   31.7770   40.2040 C   0  0  0  0  0  3  0  0  0  0  0  0
   37.3440   33.1270   39.6890 C   0  0  0  0  0  2  0  0  0  0  0  0
   37.5570   31.9860   38.7350 C   0  0  0  0  0  2  0  0  0  0  0  0
  1  6  2  0  0  0  0
  1  2  1  0  0  0  0
  2  3  2  0  0  0  0
  3  4  1  0  0  0  0
  3  8  1  0  0  0  0
  5  9  1  0  0  0  0
  5  4  2  0  0  0  0
  6  5  1  0  0  0  0
  7  2  1  0  0  0  0
 10  1  1  0  0  0  0
 11 10  1  0  0  0  0
 12 11  1  0  0  0  0
 13 12  1  0  0  0  0
 13 11  1  0  0  0  0
M  END
>  <minimizedAffinity>
-3.33712053

$$$$

 OpenBabel03242514563D

 13 14  0  0  0  0  0  0  0  0999 V2000
   37.6710   31.0470   40.9350 C   0  0  0  0  0  0  0  0  0  0  0  0
   36.9470   31.7010   39.9370 C   0  0  0  0  0  0  0  0  0  0  0  0
   37.4490   32.9260   39.4570 C   0  0  0  0  0  0  0  0  0  0  0  0
   38.6050   33.3930   39.9950 N   0  0  0  0  0  0  0  0  0  0  0  0
   39.2750   32.7310   40.9580 C   0  0  0  0  0  0  0  0  0  0  0  0
   38.8250   31.5540   41.4430 N   0  0  0  0  0  0  0  0  0  0  0  0
   36.0360   31.3230   39.5180 H   0  0  0  0  0  0  0  0  0  0  0  0
   36.8910   33.4290   38.6880 H   0  0  0  0  0  0  0  0  0  0  0  0
   40.1890   33.1640   41.3410 H   0  0  0  0  0  0  0  0  0  0  0  0
   36.9340   29.4960   41.4660 S   0  0  0  0  0  0  0  0  0  0  0  0
   37.7210   29.0030   43.0410 C   0  0  0  0  0  3  0  0  0  0  0  0
   38.5590   27.7980   43.1220 C   0  0  0  0  0  2  0  0  0  0  0  0
   37.1640   27.7840   43.6800 C   0  0  0  0  0  2  0  0  0  0  0  0
  1  6  1  0  0  0  0
  1 10  1  0  0  0  0
  2  1  2  0  0  0  0
  3  2  1  0  0  0  0
  3  4  2  0  0  0  0
  4  5  1  0  0  0  0
  5  9  1  0  0  0  0
  5  6  2  0  0  0  0
  7  2  1  0  0  0  0
  8  3  1  0  0  0  0
 10 11  1  0  0  0  0
 11 12  1  0  0  0  0
 11 13  1  0  0  0  0
 12 13  1  0  0  0  0
M  END
>  <minimizedAffinity>
-3.31701493

$$$$

 OpenBabel03242514563D

 13 14  0  0  0  0  0  0  0  0999 V2000
   36.4280   30.3450   40.0620 C   0  0  0  0  0  0  0  0  0  0  0  0
   36.6540   30.1890   38.6930 C   0  0  0  0  0  0  0  0  0  0  0  0
   37.2390   31.2630   37.9960 C   0  0  0  0  0  0  0  0  0  0  0  0
   37.5460   32.3840   38.7000 N   0  0  0  0  0  0  0  0  0  0  0  0
   37.3120   32.4970   40.0210 C   0  0  0  0  0  0  0  0  0  0  0  0
   36.7530   31.4870   40.7230 N   0  0  0  0  0  0  0  0  0  0  0  0
   36.4080   29.2990   38.1480 H   0  0  0  0  0  0  0  0  0  0  0  0
   37.4130   31.1420   36.9430 H   0  0  0  0  0  0  0  0  0  0  0  0
   37.5820   33.4200   40.5160 H   0  0  0  0  0  0  0  0  0  0  0  0
   35.6790   28.9090   40.8420 S   0  0  0  0  0  0  0  0  0  0  0  0
   36.9640   28.0640   41.8290 C   0  0  0  0  0  3  0  0  0  0  0  0
   36.6450   27.4720   43.1360 C   0  0  0  0  0  2  0  0  0  0  0  0
   37.3930   28.7720   43.0610 C   0  0  0  0  0  2  0  0  0  0  0  0
  1  6  1  0  0  0  0
  1 10  1  0  0  0  0
  2  1  2  0  0  0  0
  3  2  1  0  0  0  0
  3  4  2  0  0  0  0
  4  5  1  0  0  0  0
  5  9  1  0  0  0  0
  5  6  2  0  0  0  0
  7  2  1  0  0  0  0
  8  3  1  0  0  0  0
 10 11  1  0  0  0  0
 11 13  1  0  0  0  0
 11 12  1  0  0  0  0
 13 12  1  0  0  0  0
M  END
>  <minimizedAffinity>
-3.31542325

$$$$

 OpenBabel03242514563D

 13 14  0  0  0  0  0  0  0  0999 V2000
   37.7300   30.6000   41.0570 C   0  0  0  0  0  0  0  0  0  0  0  0
   39.0300   30.7670   41.5360 C   0  0  0  0  0  0  0  0  0  0  0  0
   39.6560   32.0090   41.3180 C   0  0  0  0  0  0  0  0  0  0  0  0
   38.9560   32.9660   40.6550 N   0  0  0  0  0  0  0  0  0  0  0  0
   37.7010   32.7660   40.2070 C   0  0  0  0  0  0  0  0  0  0  0  0
   37.0680   31.5880   40.3980 N   0  0  0  0  0  0  0  0  0  0  0  0
   39.5740   30.0060   42.0590 H   0  0  0  0  0  0  0  0  0  0  0  0
   40.6570   32.1380   41.6880 H   0  0  0  0  0  0  0  0  0  0  0  0
   37.2040   33.5730   39.6860 H   0  0  0  0  0  0  0  0  0  0  0  0
   37.0360   28.9770   41.3950 S   0  0  0  0  0  0  0  0  0  0  0  0
   37.3210   28.5930   43.1590 C   0  0  0  0  0  3  0  0  0  0  0  0
   38.0960   27.4100   43.5590 C   0  0  0  0  0  2  0  0  0  0  0  0
   36.5990   27.4050   43.6800 C   0  0  0  0  0  2  0  0  0  0  0  0
  1 10  1  0  0  0  0
  1  2  1  0  0  0  0
  2  7  1  0  0  0  0
  3  2  2  0  0  0  0
  3  8  1  0  0  0  0
  4  3  1  0  0  0  0
  5  6  1  0  0  0  0
  5  4  2  0  0  0  0
  6  1  2  0  0  0  0
  9  5  1  0  0  0  0
 10 11  1  0  0  0  0
 11 12  1  0  0  0  0
 11 13  1  0  0  0  0
 12 13  1  0  0  0  0
M  END
>  <minimizedAffinity>
-3.20841742

$$$$

 OpenBabel03242514563D

 13 14  0  0  0  0  0  0  0  0999 V2000
   36.7900   28.7590   41.8720 C   0  0  0  0  0  0  0  0  0  0  0  0
   35.7160   28.7710   40.9810 C   0  0  0  0  0  0  0  0  0  0  0  0
   35.5970   29.8700   40.1090 C   0  0  0  0  0  0  0  0  0  0  0  0
   36.5360   30.8490   40.1900 N   0  0  0  0  0  0  0  0  0  0  0  0
   37.5600   30.8000   41.0640 C   0  0  0  0  0  0  0  0  0  0  0  0
   37.7060   29.7620   41.9150 N   0  0  0  0  0  0  0  0  0  0  0  0
   34.9800   27.9930   40.9250 H   0  0  0  0  0  0  0  0  0  0  0  0
   34.7690   29.8790   39.4230 H   0  0  0  0  0  0  0  0  0  0  0  0
   38.2690   31.6160   41.0730 H   0  0  0  0  0  0  0  0  0  0  0  0
   36.8370   27.3080   42.9310 S   0  0  0  0  0  0  0  0  0  0  0  0
   37.6540   25.9570   42.0110 C   0  0  0  0  0  3  0  0  0  0  0  0
   37.0390   25.3850   40.8040 C   0  0  0  0  0  2  0  0  0  0  0  0
   36.9950   24.6300   42.1020 C   0  0  0  0  0  2  0  0  0  0  0  0
  1  6  1  0  0  0  0
  1 10  1  0  0  0  0
  2  1  2  0  0  0  0
  3  4  2  0  0  0  0
  3  2  1  0  0  0  0
  4  5  1  0  0  0  0
  5  9  1  0  0  0  0
  5  6  2  0  0  0  0
  7  2  1  0  0  0  0
  8  3  1  0  0  0  0
 11 13  1  0  0  0  0
 11 10  1  0  0  0  0
 12 11  1  0  0  0  0
 12 13  1  0  0  0  0
M  END
>  <minimizedAffinity>
-3.17730069

$$$$

 OpenBabel03242514563D

 13 14  0  0  0  0  0  0  0  0999 V2000
   38.0270   27.0620   42.8010 C   0  0  0  0  0  0  0  0  0  0  0  0
   37.0520   26.1890   42.3140 C   0  0  0  0  0  0  0  0  0  0  0  0
   37.3970   24.8310   42.1730 C   0  0  0  0  0  0  0  0  0  0  0  0
   38.6570   24.4570   42.5180 N   0  0  0  0  0  0  0  0  0  0  0  0
   39.5700   25.3300   42.9850 C   0  0  0  0  0  0  0  0  0  0  0  0
   39.2750   26.6400   43.1340 N   0  0  0  0  0  0  0  0  0  0  0  0
   36.0610   26.4950   42.0450 H   0  0  0  0  0  0  0  0  0  0  0  0
   36.6460   24.1600   41.7980 H   0  0  0  0  0  0  0  0  0  0  0  0
   40.5530   24.9610   43.2400 H   0  0  0  0  0  0  0  0  0  0  0  0
   37.4710   28.7650   42.9380 S   0  0  0  0  0  0  0  0  0  0  0  0
   37.1100   29.3830   41.2560 C   0  0  0  0  0  3  0  0  0  0  0  0
   36.3410   30.6190   41.0540 C   0  0  0  0  0  2  0  0  0  0  0  0
   35.6920   29.2840   40.8290 C   0  0  0  0  0  2  0  0  0  0  0  0
  1 10  1  0  0  0  0
  1  6  1  0  0  0  0
  2  1  2  0  0  0  0
  3  2  1  0  0  0  0
  3  4  2  0  0  0  0
  4  5  1  0  0  0  0
  5  6  2  0  0  0  0
  5  9  1  0  0  0  0
  7  2  1  0  0  0  0
  8  3  1  0  0  0  0
 11 10  1  0  0  0  0
 12 11  1  0  0  0  0
 13 12  1  0  0  0  0
 13 11  1  0  0  0  0
M  END
>  <minimizedAffinity>
-3.1248498

$$$$

 OpenBabel03242514563D

 13 14  0  0  0  0  0  0  0  0999 V2000
   37.0120   28.7960   42.1970 C   0  0  0  0  0  0  0  0  0  0  0  0
   36.0470   28.1750   41.4020 C   0  0  0  0  0  0  0  0  0  0  0  0
   35.4370   28.9410   40.3900 C   0  0  0  0  0  0  0  0  0  0  0  0
   35.8260   30.2360   40.2520 N   0  0  0  0  0  0  0  0  0  0  0  0
   36.7620   30.7990   41.0400 C   0  0  0  0  0  0  0  0  0  0  0  0
   37.3690   30.0950   42.0200 N   0  0  0  0  0  0  0  0  0  0  0  0
   35.7480   27.1530   41.5190 H   0  0  0  0  0  0  0  0  0  0  0  0
   34.6940   28.4620   39.7780 H   0  0  0  0  0  0  0  0  0  0  0  0
   37.0210   31.8350   40.8730 H   0  0  0  0  0  0  0  0  0  0  0  0
   37.7200   27.7200   43.4500 S   0  0  0  0  0  0  0  0  0  0  0  0
   39.2680   27.0120   42.7850 C   0  0  0  0  0  3  0  0  0  0  0  0
   40.3760   26.6460   43.6780 C   0  0  0  0  0  2  0  0  0  0  0  0
   40.4570   27.8980   42.8530 C   0  0  0  0  0  2  0  0  0  0  0  0
  1 10  1  0  0  0  0
  2  7  1  0  0  0  0
  2  1  2  0  0  0  0
  3  2  1  0  0  0  0
  4  3  2  0  0  0  0
  4  5  1  0  0  0  0
  5  6  2  0  0  0  0
  6  1  1  0  0  0  0
  8  3  1  0  0  0  0
  9  5  1  0  0  0  0
 11 13  1  0  0  0  0
 11 10  1  0  0  0  0
 11 12  1  0  0  0  0
 13 12  1  0  0  0  0
M  END
>  <minimizedAffinity>
-3.07430577

$$$$

 OpenBabel03242514563D

 13 14  0  0  0  0  0  0  0  0999 V2000
   36.9430   30.7780   40.7640 C   0  0  0  0  0  0  0  0  0  0  0  0
   35.8310   30.1410   40.2110 C   0  0  0  0  0  0  0  0  0  0  0  0
   35.4620   28.8880   40.7380 C   0  0  0  0  0  0  0  0  0  0  0  0
   36.2110   28.3800   41.7510 N   0  0  0  0  0  0  0  0  0  0  0  0
   37.2780   29.0270   42.2580 C   0  0  0  0  0  0  0  0  0  0  0  0
   37.6620   30.2300   41.7780 N   0  0  0  0  0  0  0  0  0  0  0  0
   35.2460   30.5510   39.4120 H   0  0  0  0  0  0  0  0  0  0  0  0
   34.6060   28.3980   40.3110 H   0  0  0  0  0  0  0  0  0  0  0  0
   37.8280   28.5610   43.0640 H   0  0  0  0  0  0  0  0  0  0  0  0
   37.3160   32.3670   40.0120 S   0  0  0  0  0  0  0  0  0  0  0  0
   38.7670   33.0760   40.8680 C   0  0  0  0  0  3  0  0  0  0  0  0
   39.5490   34.1600   40.2580 C   0  0  0  0  0  2  0  0  0  0  0  0
   40.0850   32.7570   40.2640 C   0  0  0  0  0  2  0  0  0  0  0  0
  1  6  1  0  0  0  0
  2  3  1  0  0  0  0
  2  1  2  0  0  0  0
  3  4  2  0  0  0  0
  4  5  1  0  0  0  0
  5  9  1  0  0  0  0
  6  5  2  0  0  0  0
  7  2  1  0  0  0  0
  8  3  1  0  0  0  0
 10  1  1  0  0  0  0
 10 11  1  0  0  0  0
 12 13  1  0  0  0  0
 12 11  1  0  0  0  0
 13 11  1  0  0  0  0
M  END
>  <minimizedAffinity>
-3.05187774

$$$$
