
 OpenBabel03252509263D

 24 26  0  0  1  0  0  0  0  0999 V2000
   46.6280   35.0900   41.8800 C   0  0  1  0  0  0  0  0  0  0  0  0
   48.1630   35.3340   41.8830 C   0  0  0  0  0  0  0  0  0  0  0  0
   47.4190   34.1250   41.2370 C   0  0  2  0  0  0  0  0  0  0  0  0
   46.0540   35.8670   41.3450 H   0  0  0  0  0  0  0  0  0  0  0  0
   48.4680   36.1320   41.2100 H   0  0  0  0  0  0  0  0  0  0  0  0
   48.7300   35.1380   42.7960 H   0  0  0  0  0  0  0  0  0  0  0  0
   47.7080   33.1460   41.7300 H   0  0  0  0  0  0  0  0  0  0  0  0
   44.7070   35.2910   45.0940 C   0  0  0  0  0  0  0  0  0  0  0  0
   45.1620   35.6430   43.7960 C   0  0  0  0  0  0  0  0  0  0  0  0
   46.1370   34.8520   43.2880 C   0  0  0  0  0  0  0  0  0  0  0  0
   46.6520   33.7780   43.9950 N   0  0  0  0  0  0  0  0  0  0  0  0
   46.1920   33.4780   45.2270 C   0  0  0  0  0  0  0  0  0  0  0  0
   45.2150   34.2400   45.7760 N   0  0  0  0  0  0  0  0  0  0  0  0
   43.9280   35.9040   45.5250 H   0  0  0  0  0  0  0  0  0  0  0  0
   46.6710   32.6190   45.6760 H   0  0  0  0  0  0  0  0  0  0  0  0
   44.6660   36.7570   43.1020 N   0  0  0  0  0  0  0  0  0  0  0  0
   45.2720   37.3390   42.4820 H   0  0  0  0  0  0  0  0  0  0  0  0
   43.6520   37.0400   43.1880 H   0  0  0  0  0  0  0  0  0  0  0  0
   47.4360   33.9860   39.7350 C   0  0  0  0  0  0  0  0  0  0  0  0
   46.3910   33.8310   39.4190 H   0  0  0  0  0  0  0  0  0  0  0  0
   47.7370   34.9650   39.3140 H   0  0  0  0  0  0  0  0  0  0  0  0
   48.2890   32.8460   39.2440 C   0  0  0  0  0  3  0  0  0  0  0  0
   48.9090   32.8140   37.9260 C   0  0  0  0  0  2  0  0  0  0  0  0
   47.6140   32.0430   38.1130 C   0  0  0  0  0  2  0  0  0  0  0  0
  1  4  1  6  0  0  0
  1  2  1  0  0  0  0
  1 10  1  0  0  0  0
  2  6  1  0  0  0  0
  3  7  1  1  0  0  0
  3  1  1  0  0  0  0
  3  2  1  0  0  0  0
  5  2  1  0  0  0  0
  8 14  1  0  0  0  0
  8 13  1  0  0  0  0
  9  8  2  0  0  0  0
 10  9  1  0  0  0  0
 10 11  2  0  0  0  0
 11 12  1  0  0  0  0
 12 15  1  0  0  0  0
 12 13  2  0  0  0  0
 16 18  1  0  0  0  0
 16  9  1  0  0  0  0
 17 16  1  0  0  0  0
 19  3  1  0  0  0  0
 20 19  1  0  0  0  0
 21 19  1  0  0  0  0
 22 19  1  0  0  0  0
 23 24  1  0  0  0  0
 23 22  1  0  0  0  0
 24 22  1  0  0  0  0
M  END
>  <minimizedAffinity>
-4.2729373

>  <minimizedRMSD>
0.521935463

$$$$
