
 OpenBabel03252509323D

 21 22  0  0  0  0  0  0  0  0999 V2000
   46.9060   34.3530   42.3130 C   0  0  0  0  0  0  0  0  0  0  0  0
   46.7060   35.1710   41.5840 H   0  0  0  0  0  0  0  0  0  0  0  0
   46.5260   33.4080   41.8470 H   0  0  0  0  0  0  0  0  0  0  0  0
   45.4470   34.0090   45.7380 C   0  0  0  0  0  0  0  0  0  0  0  0
   46.2140   33.7420   44.5980 C   0  0  0  0  0  0  0  0  0  0  0  0
   46.1170   34.6090   43.5140 C   0  0  0  0  0  0  0  0  0  0  0  0
   45.2700   35.6930   43.6080 N   0  0  0  0  0  0  0  0  0  0  0  0
   44.5450   35.9160   44.7280 C   0  0  0  0  0  0  0  0  0  0  0  0
   44.6290   35.0900   45.7770 N   0  0  0  0  0  0  0  0  0  0  0  0
   45.5950   33.2770   46.5220 H   0  0  0  0  0  0  0  0  0  0  0  0
   46.8730   32.8990   44.5250 H   0  0  0  0  0  0  0  0  0  0  0  0
   43.8760   36.7610   44.8200 H   0  0  0  0  0  0  0  0  0  0  0  0
   48.2610   34.2440   42.6240 O   0  0  0  0  0  0  0  0  0  0  0  0
   48.7200   31.6690   42.7670 O   0  0  0  0  0  0  0  0  0  0  0  0
   48.8410   32.8600   41.8400 P   0  0  2  0  0  0  0  0  0  0  0  0
   50.4210   33.1660   41.3670 O   0  0  0  0  0  0  0  0  0  0  0  0
   51.0070   33.0920   42.1570 H   0  0  0  0  0  0  0  0  0  0  0  0
   47.8590   32.5720   40.5030 O   0  0  0  0  0  0  0  0  0  0  0  0
   48.4420   32.9020   39.3060 C   0  0  0  0  0  3  0  0  0  0  0  0
   48.1910   34.3120   38.8300 C   0  0  0  0  0  2  0  0  0  0  0  0
   47.4220   33.2020   38.2090 C   0  0  0  0  0  2  0  0  0  0  0  0
  1 13  1  0  0  0  0
  1  6  1  0  0  0  0
  2  1  1  0  0  0  0
  3  1  1  0  0  0  0
  4  9  1  0  0  0  0
  4 10  1  0  0  0  0
  5  4  2  0  0  0  0
  6  7  2  0  0  0  0
  6  5  1  0  0  0  0
  7  8  1  0  0  0  0
  8 12  1  0  0  0  0
  8  9  2  0  0  0  0
 11  5  1  0  0  0  0
 15 13  1  0  0  0  0
 15 14  2  1  0  0  0
 16 15  1  0  0  0  0
 16 17  1  0  0  0  0
 18 15  1  0  0  0  0
 19 18  1  0  0  0  0
 20 19  1  0  0  0  0
 21 20  1  0  0  0  0
 21 19  1  0  0  0  0
M  END
>  <minimizedAffinity>
-3.78598666

>  <minimizedRMSD>
2.4119153

$$$$
