
     RDKit          3D

 34 36  0  0  0  0  0  0  0  0999 V2000
   45.6115   34.4058   41.8530 N   0  0  0  0  0  0  0  0  0  0  0  0
   46.9538   34.1245   41.4062 C   0  0  1  0  0  0  0  0  0  0  0  0
   47.0952   34.0226   39.9349 C   0  0  0  0  0  0  0  0  0  0  0  0
   46.0479   33.3847   39.2488 N   0  0  0  0  0  0  0  0  0  0  0  0
   44.7532   33.4770   39.7762 C   0  0  0  0  0  0  0  0  0  0  0  0
   44.6564   34.5925   40.7996 C   0  0  0  0  0  0  0  0  0  0  0  0
   44.7207   35.6082   43.6933 C   0  0  0  0  0  0  0  0  0  0  0  0
   45.3883   34.4653   43.2358 C   0  0  0  0  0  0  0  0  0  0  0  0
   45.7631   33.5092   44.1784 C   0  0  0  0  0  0  0  0  0  0  0  0
   45.4742   33.7118   45.4899 N   0  0  0  0  0  0  0  0  0  0  0  0
   44.8295   34.8249   45.8950 C   0  0  0  0  0  0  0  0  0  0  0  0
   44.4585   35.7554   45.0225 N   0  0  0  0  0  0  0  0  0  0  0  0
   47.8517   35.2461   41.8774 C   0  0  0  0  0  0  0  0  0  0  0  0
   47.2470   33.1513   41.8488 H   0  0  0  0  0  0  0  0  0  0  0  0
   48.0640   33.5123   39.7042 H   0  0  0  0  0  0  0  0  0  0  0  0
   47.2027   35.0572   39.5255 H   0  0  0  0  0  0  0  0  0  0  0  0
   46.3211   32.4404   38.8949 H   0  0  0  0  0  0  0  0  0  0  0  0
   44.5215   32.5351   40.3371 H   0  0  0  0  0  0  0  0  0  0  0  0
   43.9390   33.6075   39.0257 H   0  0  0  0  0  0  0  0  0  0  0  0
   44.7579   35.5508   40.2505 H   0  0  0  0  0  0  0  0  0  0  0  0
   43.6501   34.5224   41.2656 H   0  0  0  0  0  0  0  0  0  0  0  0
   44.3978   36.3999   43.0029 H   0  0  0  0  0  0  0  0  0  0  0  0
   46.2674   32.6540   43.8028 H   0  0  0  0  0  0  0  0  0  0  0  0
   44.5676   35.0522   46.9168 H   0  0  0  0  0  0  0  0  0  0  0  0
   47.8205   35.2116   43.0010 H   0  0  0  0  0  0  0  0  0  0  0  0
   47.4733   36.1976   41.4921 H   0  0  0  0  0  0  0  0  0  0  0  0
   49.2865   35.0780   41.4777 C   0  0  0  0  0  0  0  0  0  0  0  0
   49.6206   33.6526   41.0013 C   0  0  0  0  0  0  0  0  0  0  0  0
   49.6897   34.8362   40.0791 C   0  0  0  0  0  0  0  0  0  0  0  0
   50.0547   35.4834   42.1906 H   0  0  0  0  0  0  0  0  0  0  0  0
   48.7960   32.9354   40.8734 H   0  0  0  0  0  0  0  0  0  0  0  0
   50.5620   33.1886   41.3603 H   0  0  0  0  0  0  0  0  0  0  0  0
   50.7424   35.1230   39.8073 H   0  0  0  0  0  0  0  0  0  0  0  0
   48.9663   34.9782   39.2614 H   0  0  0  0  0  0  0  0  0  0  0  0
  1  8  1  0
  2  1  1  0
  2 13  1  0
  3  2  1  0
  4  5  1  0
  4  3  1  0
  5  6  1  0
  6  1  1  0
  7 12  2  0
  8  7  1  0
  8  9  2  0
  9 10  1  0
 10 11  2  0
 12 11  1  0
  2 14  1  1
  3 15  1  0
  3 16  1  0
  4 17  1  0
  5 18  1  0
  5 19  1  0
  6 20  1  0
  6 21  1  0
  7 22  1  0
  9 23  1  0
 11 24  1  0
 13 25  1  0
 13 26  1  0
 27 28  1  0
 28 29  1  0
 29 27  1  0
 27 30  1  0
 28 31  1  0
 28 32  1  0
 29 33  1  0
 29 34  1  0
 13 27  1  0
M  ISO  8  14  13  15  13  16  13  17   5  18  13  19  13  20  13  21  13
M  ISO  5  22  14  23  14  24  14  25   8  26   8
M  END
>  <DihAtoms>  (1) 
1,12,26,27

>  <DihDeg>  (1) 
-179.99983873415397

$$$$
