
 OpenBabel03242510223D

 32 35  0  0  1  0  0  0  0  0999 V2000
   46.3130   32.1210   44.5270 C   0  0  1  0  0  0  0  0  0  0  0  0
   46.4520   31.3690   43.3530 C   0  0  0  0  0  0  0  0  0  0  0  0
   47.6790   32.1200   43.9620 C   0  0  1  0  0  0  0  0  0  0  0  0
   46.1390   31.6650   45.5250 H   0  0  0  0  0  0  0  0  0  0  0  0
   46.1940   31.6230   42.3070 H   0  0  0  0  0  0  0  0  0  0  0  0
   46.5290   30.2420   43.4500 H   0  0  0  0  0  0  0  0  0  0  0  0
   48.4360   31.4200   44.3430 H   0  0  0  0  0  0  0  0  0  0  0  0
   45.0650   33.9800   43.1870 C   0  0  0  0  0  0  0  0  0  0  0  0
   45.5510   33.4570   44.4290 C   0  0  0  0  0  0  0  0  0  0  0  0
   45.3370   34.2100   45.5650 C   0  0  0  0  0  0  0  0  0  0  0  0
   44.6910   35.3890   45.4590 N   0  0  0  0  0  0  0  0  0  0  0  0
   44.2360   35.8750   44.2710 C   0  0  0  0  0  0  0  0  0  0  0  0
   44.4350   35.1360   43.1020 N   0  0  0  0  0  0  0  0  0  0  0  0
   45.2200   33.3720   42.3170 H   0  0  0  0  0  0  0  0  0  0  0  0
   45.6760   33.8760   46.5370 H   0  0  0  0  0  0  0  0  0  0  0  0
   43.7190   36.8190   44.1920 H   0  0  0  0  0  0  0  0  0  0  0  0
   48.0550   33.2530   43.1960 N   0  0  0  0  0  0  0  0  0  0  0  0
   49.2250   33.3110   42.4470 C   0  0  0  0  0  0  0  0  0  0  0  0
   50.3910   32.9210   42.7080 O   0  0  0  0  0  0  0  0  0  0  0  0
   47.5060   34.1390   43.1210 H   0  0  0  0  0  0  0  0  0  0  0  0
   49.1800   33.9330   41.0590 C   0  0  2  0  0  0  0  0  0  0  0  0
   48.6910   35.4250   40.9820 C   0  0  0  0  0  0  0  0  0  0  0  0
   47.9120   34.2720   40.4150 C   0  0  1  0  0  0  0  0  0  0  0  0
   50.0870   33.8240   40.4300 H   0  0  0  0  0  0  0  0  0  0  0  0
   48.3420   35.8270   41.9590 H   0  0  0  0  0  0  0  0  0  0  0  0
   49.1540   36.0820   40.2540 H   0  0  0  0  0  0  0  0  0  0  0  0
   47.0350   33.8130   40.9280 H   0  0  0  0  0  0  0  0  0  0  0  0
   47.8390   34.1740   38.9120 C   0  0  0  0  0  0  0  0  0  0  0  0
   48.5820   34.8390   38.2030 O   0  0  0  0  0  0  0  0  0  0  0  0
   46.8470   33.2570   38.2630 C   0  0  0  0  0  3  0  0  0  0  0  0
   46.9050   32.9820   36.8140 C   0  0  0  0  0  2  0  0  0  0  0  0
   47.4470   31.9540   37.7750 C   0  0  0  0  0  2  0  0  0  0  0  0
  1  4  1  1  0  0  0
  2  6  1  0  0  0  0
  2  3  1  0  0  0  0
  2  1  1  0  0  0  0
  3  7  1  1  0  0  0
  3  1  1  0  0  0  0
  5  2  1  0  0  0  0
  8  9  1  0  0  0  0
  9  1  1  0  0  0  0
  9 10  2  0  0  0  0
 10 15  1  0  0  0  0
 11 10  1  0  0  0  0
 12 11  2  0  0  0  0
 13  8  2  0  0  0  0
 13 12  1  0  0  0  0
 14  8  1  0  0  0  0
 16 12  1  0  0  0  0
 17  3  1  0  0  0  0
 18 19  2  0  0  0  0
 18 17  1  0  0  0  0
 20 17  1  0  0  0  0
 21 24  1  6  0  0  0
 21 18  1  0  0  0  0
 22 21  1  0  0  0  0
 22 25  1  0  0  0  0
 23 27  1  1  0  0  0
 23 22  1  0  0  0  0
 23 21  1  0  0  0  0
 26 22  1  0  0  0  0
 28 23  1  0  0  0  0
 29 28  2  0  0  0  0
 30 28  1  0  0  0  0
 31 32  1  0  0  0  0
 31 30  1  0  0  0  0
 32 30  1  0  0  0  0
M  END
>  <minimizedAffinity>
-4.52063036

>  <minimizedRMSD>
0.328549951

$$$$
