
 OpenBabel03242519333D

 42 45  0  0  0  0  0  0  0  0999 V2000
   37.3940   27.8170   41.4310 C   0  0  0  0  0  0  0  0  0  0  0  0
   36.5980   27.2520   40.3970 C   0  0  0  0  0  0  0  0  0  0  0  0
   36.1390   28.0540   39.3430 C   0  0  0  0  0  0  0  0  0  0  0  0
   36.5000   29.3740   39.3810 N   0  0  0  0  0  0  0  0  0  0  0  0
   37.2690   29.8780   40.3960 C   0  0  0  0  0  0  0  0  0  0  0  0
   37.7020   29.1130   41.3950 N   0  0  0  0  0  0  0  0  0  0  0  0
   36.2960   26.2440   40.3270 H   0  0  0  0  0  0  0  0  0  0  0  0
   35.5390   27.6660   38.5490 H   0  0  0  0  0  0  0  0  0  0  0  0
   37.8030   26.8750   42.4710 C   0  0  0  0  0  0  0  0  0  0  0  0
   38.5430   27.4550   43.5640 C   0  0  0  0  0  0  0  0  0  0  0  0
   39.9510   27.0360   43.6530 C   0  0  0  0  0  0  0  0  0  0  0  0
   40.0850   25.5140   43.6920 C   0  0  0  0  0  0  0  0  0  0  0  0
   39.1360   24.8010   42.7860 C   0  0  0  0  0  0  0  0  0  0  0  0
   38.5930   25.7490   41.7240 C   0  0  0  0  0  0  0  0  0  0  0  0
   36.8800   26.3100   42.7980 H   0  0  0  0  0  0  0  0  0  0  0  0
   38.5080   28.5650   43.6030 H   0  0  0  0  0  0  0  0  0  0  0  0
   38.0550   27.1470   44.5360 H   0  0  0  0  0  0  0  0  0  0  0  0
   40.6540   27.4400   42.9190 H   0  0  0  0  0  0  0  0  0  0  0  0
   40.3450   27.3830   44.6530 H   0  0  0  0  0  0  0  0  0  0  0  0
   41.1200   25.2010   43.4250 H   0  0  0  0  0  0  0  0  0  0  0  0
   39.9310   25.1700   44.7430 H   0  0  0  0  0  0  0  0  0  0  0  0
   38.2490   24.4930   43.3960 H   0  0  0  0  0  0  0  0  0  0  0  0
   39.5150   23.8980   42.3170 H   0  0  0  0  0  0  0  0  0  0  0  0
   39.4530   26.2230   41.2480 H   0  0  0  0  0  0  0  0  0  0  0  0
   37.9040   25.2150   41.0550 H   0  0  0  0  0  0  0  0  0  0  0  0
   37.5440   31.3040   40.2670 C   0  0  0  0  0  0  0  0  0  0  0  0
   36.8560   32.0310   39.3750 N   0  0  0  0  0  0  0  0  0  0  0  0
   37.2750   33.3200   39.4260 C   0  0  0  0  0  0  0  0  0  0  0  0
   38.2360   33.3760   40.3690 N   0  0  0  0  0  0  0  0  0  0  0  0
   38.4090   32.1590   40.8870 N   0  0  0  0  0  0  0  0  0  0  0  0
   36.8990   34.1230   38.8220 H   0  0  0  0  0  0  0  0  0  0  0  0
   38.9700   34.5370   40.8050 C   0  0  0  0  0  0  0  0  0  0  0  0
   38.2800   35.4200   40.8100 H   0  0  0  0  0  0  0  0  0  0  0  0
   39.3650   34.4670   41.8090 H   0  0  0  0  0  0  0  0  0  0  0  0
   40.0300   34.8430   39.8450 C   0  0  0  0  0  3  0  0  0  0  0  0
   41.1580   34.2450   39.4910 C   0  0  0  0  0  3  0  0  0  0  0  0
   42.1250   34.6870   38.3760 C   0  0  0  0  0  0  0  0  0  0  0  0
   43.0970   34.8370   38.8800 H   0  0  0  0  0  0  0  0  0  0  0  0
   41.7680   35.6460   37.9970 H   0  0  0  0  0  0  0  0  0  0  0  0
   42.1870   33.6710   37.2790 C   0  0  0  0  0  3  0  0  0  0  0  0
   42.9240   32.4040   37.4170 C   0  0  0  0  0  2  0  0  0  0  0  0
   41.4200   32.4180   37.2710 C   0  0  0  0  0  2  0  0  0  0  0  0
  1  9  1  0  0  0  0
  2  1  2  0  0  0  0
  3  4  2  0  0  0  0
  3  2  1  0  0  0  0
  4  5  1  0  0  0  0
  5  6  2  0  0  0  0
  6  1  1  0  0  0  0
  7  2  1  0  0  0  0
  8  3  1  0  0  0  0
  9 15  1  0  0  0  0
  9 10  1  0  0  0  0
 10 16  1  0  0  0  0
 10 11  1  0  0  0  0
 10 17  1  0  0  0  0
 11 12  1  0  0  0  0
 11 19  1  0  0  0  0
 12 21  1  0  0  0  0
 13 22  1  0  0  0  0
 13 12  1  0  0  0  0
 14  9  1  0  0  0  0
 14 13  1  0  0  0  0
 18 11  1  0  0  0  0
 20 12  1  0  0  0  0
 23 13  1  0  0  0  0
 24 14  1  0  0  0  0
 25 14  1  0  0  0  0
 26  5  1  0  0  0  0
 26 30  2  0  0  0  0
 27 28  2  0  0  0  0
 27 26  1  0  0  0  0
 28 29  1  0  0  0  0
 29 32  1  0  0  0  0
 29 30  1  0  0  0  0
 31 28  1  0  0  0  0
 32 33  1  0  0  0  0
 32 34  1  0  0  0  0
 35 32  1  0  0  0  0
 36 35  2  0  0  0  0
 37 38  1  0  0  0  0
 37 36  1  0  0  0  0
 39 37  1  0  0  0  0
 40 41  1  0  0  0  0
 40 37  1  0  0  0  0
 42 40  1  0  0  0  0
 42 41  1  0  0  0  0
M  END
>  <minimizedAffinity>
-5.72607088

$$$$

 OpenBabel03242519333D

 42 45  0  0  0  0  0  0  0  0999 V2000
   37.0640   28.0370   41.8890 C   0  0  0  0  0  0  0  0  0  0  0  0
   37.3810   29.3460   42.3440 C   0  0  0  0  0  0  0  0  0  0  0  0
   36.9670   30.4660   41.6120 C   0  0  0  0  0  0  0  0  0  0  0  0
   36.2580   30.2180   40.4680 N   0  0  0  0  0  0  0  0  0  0  0  0
   35.9730   28.9400   40.0640 C   0  0  0  0  0  0  0  0  0  0  0  0
   36.3690   27.8780   40.7620 N   0  0  0  0  0  0  0  0  0  0  0  0
   37.9240   29.5840   43.2170 H   0  0  0  0  0  0  0  0  0  0  0  0
   37.1870   31.4650   41.9210 H   0  0  0  0  0  0  0  0  0  0  0  0
   37.5590   26.9560   42.7390 C   0  0  0  0  0  0  0  0  0  0  0  0
   38.4330   27.3700   43.8090 C   0  0  0  0  0  0  0  0  0  0  0  0
   39.8290   26.9250   43.6790 C   0  0  0  0  0  0  0  0  0  0  0  0
   39.9240   25.4110   43.4970 C   0  0  0  0  0  0  0  0  0  0  0  0
   38.8600   24.8420   42.6170 C   0  0  0  0  0  0  0  0  0  0  0  0
   38.2290   25.9330   41.7610 C   0  0  0  0  0  0  0  0  0  0  0  0
   36.6630   26.3630   43.0890 H   0  0  0  0  0  0  0  0  0  0  0  0
   38.4330   28.4650   44.0010 H   0  0  0  0  0  0  0  0  0  0  0  0
   38.0460   26.9380   44.7800 H   0  0  0  0  0  0  0  0  0  0  0  0
   40.4570   27.4180   42.9310 H   0  0  0  0  0  0  0  0  0  0  0  0
   40.3420   27.1270   44.6650 H   0  0  0  0  0  0  0  0  0  0  0  0
   40.9130   25.1240   43.0740 H   0  0  0  0  0  0  0  0  0  0  0  0
   39.8780   24.9270   44.5020 H   0  0  0  0  0  0  0  0  0  0  0  0
   38.0380   24.4630   43.2770 H   0  0  0  0  0  0  0  0  0  0  0  0
   39.1580   24.0070   41.9900 H   0  0  0  0  0  0  0  0  0  0  0  0
   39.0440   26.4570   41.2590 H   0  0  0  0  0  0  0  0  0  0  0  0
   37.4550   25.5050   41.1090 H   0  0  0  0  0  0  0  0  0  0  0  0
   35.2150   28.8760   38.8200 C   0  0  0  0  0  0  0  0  0  0  0  0
   35.8650   28.9400   37.6490 N   0  0  0  0  0  0  0  0  0  0  0  0
   34.9690   28.8630   36.6330 C   0  0  0  0  0  0  0  0  0  0  0  0
   33.7510   28.7490   37.2000 N   0  0  0  0  0  0  0  0  0  0  0  0
   33.8870   28.7560   38.5280 N   0  0  0  0  0  0  0  0  0  0  0  0
   35.2060   28.8900   35.5870 H   0  0  0  0  0  0  0  0  0  0  0  0
   32.4820   28.6130   36.5330 C   0  0  0  0  0  0  0  0  0  0  0  0
   32.6650   28.3850   35.4510 H   0  0  0  0  0  0  0  0  0  0  0  0
   31.8640   27.8070   36.9030 H   0  0  0  0  0  0  0  0  0  0  0  0
   31.7610   29.8860   36.5730 C   0  0  0  0  0  3  0  0  0  0  0  0
   30.7690   30.4100   35.8690 C   0  0  0  0  0  3  0  0  0  0  0  0
   30.0740   31.7610   36.1200 C   0  0  0  0  0  0  0  0  0  0  0  0
   30.5550   32.1680   37.0290 H   0  0  0  0  0  0  0  0  0  0  0  0
   29.0240   31.5520   36.3360 H   0  0  0  0  0  0  0  0  0  0  0  0
   30.2030   32.6650   34.9350 C   0  0  0  0  0  3  0  0  0  0  0  0
   31.4080   32.6910   34.0890 C   0  0  0  0  0  2  0  0  0  0  0  0
   30.0800   32.2200   33.5410 C   0  0  0  0  0  2  0  0  0  0  0  0
  1  2  1  0  0  0  0
  1  9  1  0  0  0  0
  2  7  1  0  0  0  0
  3  8  1  0  0  0  0
  3  2  2  0  0  0  0
  4  3  1  0  0  0  0
  5  4  2  0  0  0  0
  5  6  1  0  0  0  0
  6  1  2  0  0  0  0
  9 15  1  0  0  0  0
  9 10  1  0  0  0  0
 10 16  1  0  0  0  0
 10 17  1  0  0  0  0
 11 10  1  0  0  0  0
 11 19  1  0  0  0  0
 12 11  1  0  0  0  0
 12 21  1  0  0  0  0
 13 22  1  0  0  0  0
 13 12  1  0  0  0  0
 14 13  1  0  0  0  0
 14  9  1  0  0  0  0
 18 11  1  0  0  0  0
 20 12  1  0  0  0  0
 23 13  1  0  0  0  0
 24 14  1  0  0  0  0
 25 14  1  0  0  0  0
 26  5  1  0  0  0  0
 27 26  1  0  0  0  0
 28 29  1  0  0  0  0
 28 27  2  0  0  0  0
 29 30  1  0  0  0  0
 30 26  2  0  0  0  0
 31 28  1  0  0  0  0
 32 35  1  0  0  0  0
 32 34  1  0  0  0  0
 32 29  1  0  0  0  0
 33 32  1  0  0  0  0
 36 37  1  0  0  0  0
 36 35  2  0  0  0  0
 37 39  1  0  0  0  0
 37 38  1  0  0  0  0
 40 37  1  0  0  0  0
 41 40  1  0  0  0  0
 42 41  1  0  0  0  0
 42 40  1  0  0  0  0
M  END
>  <minimizedAffinity>
-5.69995737

$$$$

 OpenBabel03242519333D

 42 45  0  0  0  0  0  0  0  0999 V2000
   37.2590   30.1890   41.0050 C   0  0  0  0  0  0  0  0  0  0  0  0
   37.8110   31.4900   40.8570 C   0  0  0  0  0  0  0  0  0  0  0  0
   37.7080   32.1650   39.6340 C   0  0  0  0  0  0  0  0  0  0  0  0
   37.0600   31.5040   38.6260 N   0  0  0  0  0  0  0  0  0  0  0  0
   36.5420   30.2490   38.8090 C   0  0  0  0  0  0  0  0  0  0  0  0
   36.6430   29.6110   39.9730 N   0  0  0  0  0  0  0  0  0  0  0  0
   38.3170   32.0370   41.6040 H   0  0  0  0  0  0  0  0  0  0  0  0
   38.1100   33.1440   39.4850 H   0  0  0  0  0  0  0  0  0  0  0  0
   37.4380   29.5940   42.3270 C   0  0  0  0  0  0  0  0  0  0  0  0
   38.7980   29.5690   42.8080 C   0  0  0  0  0  0  0  0  0  0  0  0
   39.3900   28.2270   42.9270 C   0  0  0  0  0  0  0  0  0  0  0  0
   38.5260   27.3030   43.7840 C   0  0  0  0  0  0  0  0  0  0  0  0
   37.0590   27.4680   43.5580 C   0  0  0  0  0  0  0  0  0  0  0  0
   36.7950   28.1690   42.2320 C   0  0  0  0  0  0  0  0  0  0  0  0
   36.7180   30.1080   43.0300 H   0  0  0  0  0  0  0  0  0  0  0  0
   39.4990   30.2090   42.2300 H   0  0  0  0  0  0  0  0  0  0  0  0
   38.8240   30.0240   43.8420 H   0  0  0  0  0  0  0  0  0  0  0  0
   39.6710   27.7060   42.0070 H   0  0  0  0  0  0  0  0  0  0  0  0
   40.3550   28.3330   43.5050 H   0  0  0  0  0  0  0  0  0  0  0  0
   38.7860   26.2360   43.6010 H   0  0  0  0  0  0  0  0  0  0  0  0
   38.7640   27.4880   44.8590 H   0  0  0  0  0  0  0  0  0  0  0  0
   36.6690   28.1590   44.3480 H   0  0  0  0  0  0  0  0  0  0  0  0
   36.4640   26.5620   43.6220 H   0  0  0  0  0  0  0  0  0  0  0  0
   37.3440   27.6210   41.4650 H   0  0  0  0  0  0  0  0  0  0  0  0
   35.7140   28.2780   42.0680 H   0  0  0  0  0  0  0  0  0  0  0  0
   35.8950   29.7050   37.6210 C   0  0  0  0  0  0  0  0  0  0  0  0
   36.5650   29.6760   36.4600 N   0  0  0  0  0  0  0  0  0  0  0  0
   35.7750   29.1350   35.4990 C   0  0  0  0  0  0  0  0  0  0  0  0
   34.6040   28.8270   36.0900 N   0  0  0  0  0  0  0  0  0  0  0  0
   34.6630   29.1690   37.3790 N   0  0  0  0  0  0  0  0  0  0  0  0
   36.0520   28.9880   34.4730 H   0  0  0  0  0  0  0  0  0  0  0  0
   33.4520   28.2080   35.4850 C   0  0  0  0  0  0  0  0  0  0  0  0
   33.8000   27.4940   34.6950 H   0  0  0  0  0  0  0  0  0  0  0  0
   32.8490   27.6220   36.1650 H   0  0  0  0  0  0  0  0  0  0  0  0
   32.6440   29.2200   34.8060 C   0  0  0  0  0  3  0  0  0  0  0  0
   31.8960   30.2340   35.2150 C   0  0  0  0  0  3  0  0  0  0  0  0
   31.1710   31.2630   34.3270 C   0  0  0  0  0  0  0  0  0  0  0  0
   30.4450   30.6730   33.7370 H   0  0  0  0  0  0  0  0  0  0  0  0
   31.9150   31.6900   33.6520 H   0  0  0  0  0  0  0  0  0  0  0  0
   30.5240   32.3300   35.1520 C   0  0  0  0  0  3  0  0  0  0  0  0
   29.1050   32.2760   35.5400 C   0  0  0  0  0  2  0  0  0  0  0  0
   30.2000   32.1880   36.5770 C   0  0  0  0  0  2  0  0  0  0  0  0
  1  9  1  0  0  0  0
  2  1  1  0  0  0  0
  2  7  1  0  0  0  0
  3  2  2  0  0  0  0
  4  5  2  0  0  0  0
  4  3  1  0  0  0  0
  5  6  1  0  0  0  0
  6  1  2  0  0  0  0
  8  3  1  0  0  0  0
  9 10  1  0  0  0  0
  9 15  1  0  0  0  0
 10 11  1  0  0  0  0
 10 17  1  0  0  0  0
 11 19  1  0  0  0  0
 11 12  1  0  0  0  0
 12 21  1  0  0  0  0
 13 23  1  0  0  0  0
 13 12  1  0  0  0  0
 13 22  1  0  0  0  0
 14  9  1  0  0  0  0
 14 13  1  0  0  0  0
 16 10  1  0  0  0  0
 18 11  1  0  0  0  0
 20 12  1  0  0  0  0
 24 14  1  0  0  0  0
 25 14  1  0  0  0  0
 26  5  1  0  0  0  0
 27 26  1  0  0  0  0
 28 29  1  0  0  0  0
 28 27  2  0  0  0  0
 29 30  1  0  0  0  0
 30 26  2  0  0  0  0
 31 28  1  0  0  0  0
 32 29  1  0  0  0  0
 32 34  1  0  0  0  0
 33 32  1  0  0  0  0
 35 36  2  0  0  0  0
 35 32  1  0  0  0  0
 37 40  1  0  0  0  0
 37 36  1  0  0  0  0
 38 37  1  0  0  0  0
 39 37  1  0  0  0  0
 40 41  1  0  0  0  0
 40 42  1  0  0  0  0
 41 42  1  0  0  0  0
M  END
>  <minimizedAffinity>
-5.68822527

$$$$

 OpenBabel03242519333D

 42 45  0  0  0  0  0  0  0  0999 V2000
   40.7730   33.8210   38.9780 C   0  0  0  0  0  0  0  0  0  0  0  0
   40.4510   34.9090   39.8330 C   0  0  0  0  0  0  0  0  0  0  0  0
   39.2460   34.9110   40.5480 C   0  0  0  0  0  0  0  0  0  0  0  0
   38.4310   33.8260   40.3700 N   0  0  0  0  0  0  0  0  0  0  0  0
   38.7790   32.7970   39.5350 C   0  0  0  0  0  0  0  0  0  0  0  0
   39.9250   32.8000   38.8580 N   0  0  0  0  0  0  0  0  0  0  0  0
   41.0470   35.7640   40.0010 H   0  0  0  0  0  0  0  0  0  0  0  0
   38.9690   35.7110   41.2000 H   0  0  0  0  0  0  0  0  0  0  0  0
   42.0550   33.9440   38.2870 C   0  0  0  0  0  0  0  0  0  0  0  0
   42.2320   33.0590   37.1620 C   0  0  0  0  0  0  0  0  0  0  0  0
   43.2580   32.0210   37.3430 C   0  0  0  0  0  0  0  0  0  0  0  0
   44.6060   32.6230   37.7390 C   0  0  0  0  0  0  0  0  0  0  0  0
   44.4990   33.7610   38.6990 C   0  0  0  0  0  0  0  0  0  0  0  0
   43.1440   33.7520   39.3950 C   0  0  0  0  0  0  0  0  0  0  0  0
   42.1980   35.0360   38.0320 H   0  0  0  0  0  0  0  0  0  0  0  0
   41.2970   32.5680   36.8150 H   0  0  0  0  0  0  0  0  0  0  0  0
   42.5490   33.6720   36.2660 H   0  0  0  0  0  0  0  0  0  0  0  0
   43.0290   31.1830   38.0080 H   0  0  0  0  0  0  0  0  0  0  0  0
   43.4430   31.5470   36.3350 H   0  0  0  0  0  0  0  0  0  0  0  0
   45.2670   31.8500   38.1910 H   0  0  0  0  0  0  0  0  0  0  0  0
   45.1310   32.9600   36.8140 H   0  0  0  0  0  0  0  0  0  0  0  0
   44.5280   34.7110   38.1070 H   0  0  0  0  0  0  0  0  0  0  0  0
   45.2930   33.8370   39.4370 H   0  0  0  0  0  0  0  0  0  0  0  0
   43.0040   32.7530   39.8110 H   0  0  0  0  0  0  0  0  0  0  0  0
   43.0770   34.5860   40.1080 H   0  0  0  0  0  0  0  0  0  0  0  0
   37.7820   31.7350   39.4700 C   0  0  0  0  0  0  0  0  0  0  0  0
   37.4580   31.2070   38.2810 N   0  0  0  0  0  0  0  0  0  0  0  0
   36.5180   30.2450   38.4580 C   0  0  0  0  0  0  0  0  0  0  0  0
   36.2680   30.1880   39.7810 N   0  0  0  0  0  0  0  0  0  0  0  0
   37.0280   31.0890   40.4070 N   0  0  0  0  0  0  0  0  0  0  0  0
   36.0740   29.6550   37.6800 H   0  0  0  0  0  0  0  0  0  0  0  0
   35.3590   29.3030   40.4650 C   0  0  0  0  0  0  0  0  0  0  0  0
   34.8600   29.8690   41.2930 H   0  0  0  0  0  0  0  0  0  0  0  0
   34.5590   28.9170   39.8480 H   0  0  0  0  0  0  0  0  0  0  0  0
   36.1060   28.2150   41.0950 C   0  0  0  0  0  3  0  0  0  0  0  0
   36.5820   28.0030   42.3130 C   0  0  0  0  0  3  0  0  0  0  0  0
   37.2860   26.7300   42.8200 C   0  0  0  0  0  0  0  0  0  0  0  0
   36.6540   26.3630   43.6500 H   0  0  0  0  0  0  0  0  0  0  0  0
   38.2570   27.0320   43.2180 H   0  0  0  0  0  0  0  0  0  0  0  0
   37.4480   25.7270   41.7220 C   0  0  0  0  0  3  0  0  0  0  0  0
   38.1480   24.4470   41.9180 C   0  0  0  0  0  2  0  0  0  0  0  0
   36.6680   24.4870   41.6150 C   0  0  0  0  0  2  0  0  0  0  0  0
  1  2  1  0  0  0  0
  2  7  1  0  0  0  0
  2  3  2  0  0  0  0
  3  8  1  0  0  0  0
  4  3  1  0  0  0  0
  5  4  2  0  0  0  0
  6  1  2  0  0  0  0
  6  5  1  0  0  0  0
  9  1  1  0  0  0  0
  9 14  1  0  0  0  0
 10 11  1  0  0  0  0
 10  9  1  0  0  0  0
 11 12  1  0  0  0  0
 11 18  1  0  0  0  0
 12 20  1  0  0  0  0
 12 13  1  0  0  0  0
 13 14  1  0  0  0  0
 13 23  1  0  0  0  0
 14 24  1  0  0  0  0
 14 25  1  0  0  0  0
 15  9  1  0  0  0  0
 16 10  1  0  0  0  0
 17 10  1  0  0  0  0
 19 11  1  0  0  0  0
 21 12  1  0  0  0  0
 22 13  1  0  0  0  0
 26  5  1  0  0  0  0
 26 30  2  0  0  0  0
 27 28  2  0  0  0  0
 27 26  1  0  0  0  0
 28 29  1  0  0  0  0
 29 30  1  0  0  0  0
 29 32  1  0  0  0  0
 31 28  1  0  0  0  0
 32 35  1  0  0  0  0
 32 33  1  0  0  0  0
 34 32  1  0  0  0  0
 35 36  2  0  0  0  0
 36 37  1  0  0  0  0
 37 39  1  0  0  0  0
 37 38  1  0  0  0  0
 40 41  1  0  0  0  0
 40 37  1  0  0  0  0
 42 40  1  0  0  0  0
 42 41  1  0  0  0  0
M  END
>  <minimizedAffinity>
-5.66570711

$$$$

 OpenBabel03242519333D

 42 45  0  0  0  0  0  0  0  0999 V2000
   32.7600   29.2050   37.1250 C   0  0  0  0  0  0  0  0  0  0  0  0
   33.4630   29.2120   35.8900 C   0  0  0  0  0  0  0  0  0  0  0  0
   34.8290   28.9020   35.8540 C   0  0  0  0  0  0  0  0  0  0  0  0
   35.4170   28.6020   37.0540 N   0  0  0  0  0  0  0  0  0  0  0  0
   34.7030   28.6070   38.2230 C   0  0  0  0  0  0  0  0  0  0  0  0
   33.4050   28.9030   38.2520 N   0  0  0  0  0  0  0  0  0  0  0  0
   33.0530   29.4370   34.9440 H   0  0  0  0  0  0  0  0  0  0  0  0
   35.3910   28.8970   34.9460 H   0  0  0  0  0  0  0  0  0  0  0  0
   31.3440   29.5510   37.0250 C   0  0  0  0  0  0  0  0  0  0  0  0
   31.0220   30.5270   36.0140 C   0  0  0  0  0  0  0  0  0  0  0  0
   30.5520   31.8230   36.5280 C   0  0  0  0  0  0  0  0  0  0  0  0
   29.3660   31.6580   37.4770 C   0  0  0  0  0  0  0  0  0  0  0  0
   29.4800   30.4770   38.3840 C   0  0  0  0  0  0  0  0  0  0  0  0
   30.9240   29.9990   38.4660 C   0  0  0  0  0  0  0  0  0  0  0  0
   30.7660   28.5850   36.9240 H   0  0  0  0  0  0  0  0  0  0  0  0
   31.8390   30.7170   35.2850 H   0  0  0  0  0  0  0  0  0  0  0  0
   30.1890   30.1170   35.3680 H   0  0  0  0  0  0  0  0  0  0  0  0
   31.2880   32.4910   36.9840 H   0  0  0  0  0  0  0  0  0  0  0  0
   30.1380   32.4050   35.6530 H   0  0  0  0  0  0  0  0  0  0  0  0
   29.2330   32.5660   38.1060 H   0  0  0  0  0  0  0  0  0  0  0  0
   28.4320   31.5760   36.8700 H   0  0  0  0  0  0  0  0  0  0  0  0
   28.9090   29.6340   37.9190 H   0  0  0  0  0  0  0  0  0  0  0  0
   29.0760   30.6060   39.3840 H   0  0  0  0  0  0  0  0  0  0  0  0
   31.5340   30.8670   38.7220 H   0  0  0  0  0  0  0  0  0  0  0  0
   31.0010   29.1380   39.1430 H   0  0  0  0  0  0  0  0  0  0  0  0
   35.5000   28.2690   39.3950 C   0  0  0  0  0  0  0  0  0  0  0  0
   36.3760   27.2560   39.3270 N   0  0  0  0  0  0  0  0  0  0  0  0
   37.0010   27.1210   40.5240 C   0  0  0  0  0  0  0  0  0  0  0  0
   36.4940   28.0720   41.3330 N   0  0  0  0  0  0  0  0  0  0  0  0
   35.5810   28.7760   40.6600 N   0  0  0  0  0  0  0  0  0  0  0  0
   37.7510   26.3910   40.7580 H   0  0  0  0  0  0  0  0  0  0  0  0
   36.8590   28.3460   42.7000 C   0  0  0  0  0  0  0  0  0  0  0  0
   36.7960   29.4510   42.8750 H   0  0  0  0  0  0  0  0  0  0  0  0
   36.2100   27.8940   43.4370 H   0  0  0  0  0  0  0  0  0  0  0  0
   38.2530   27.9670   42.9270 C   0  0  0  0  0  3  0  0  0  0  0  0
   38.8600   27.1190   43.7450 C   0  0  0  0  0  3  0  0  0  0  0  0
   40.3640   26.7890   43.7800 C   0  0  0  0  0  0  0  0  0  0  0  0
   40.6570   26.8940   44.8420 H   0  0  0  0  0  0  0  0  0  0  0  0
   40.8780   27.5520   43.1920 H   0  0  0  0  0  0  0  0  0  0  0  0
   40.6320   25.4230   43.2320 C   0  0  0  0  0  3  0  0  0  0  0  0
   39.5790   24.4010   43.1100 C   0  0  0  0  0  2  0  0  0  0  0  0
   40.2450   24.9840   41.8850 C   0  0  0  0  0  2  0  0  0  0  0  0
  1  6  1  0  0  0  0
  2  1  2  0  0  0  0
  3  2  1  0  0  0  0
  3  4  2  0  0  0  0
  4  5  1  0  0  0  0
  5  6  2  0  0  0  0
  5 26  1  0  0  0  0
  7  2  1  0  0  0  0
  8  3  1  0  0  0  0
  9  1  1  0  0  0  0
  9 14  1  0  0  0  0
 10 11  1  0  0  0  0
 10  9  1  0  0  0  0
 11 18  1  0  0  0  0
 11 12  1  0  0  0  0
 12 20  1  0  0  0  0
 12 13  1  0  0  0  0
 13 14  1  0  0  0  0
 13 23  1  0  0  0  0
 14 24  1  0  0  0  0
 14 25  1  0  0  0  0
 15  9  1  0  0  0  0
 16 10  1  0  0  0  0
 17 10  1  0  0  0  0
 19 11  1  0  0  0  0
 21 12  1  0  0  0  0
 22 13  1  0  0  0  0
 26 30  2  0  0  0  0
 27 26  1  0  0  0  0
 27 28  2  0  0  0  0
 28 31  1  0  0  0  0
 28 29  1  0  0  0  0
 29 32  1  0  0  0  0
 30 29  1  0  0  0  0
 32 33  1  0  0  0  0
 32 35  1  0  0  0  0
 32 34  1  0  0  0  0
 35 36  2  0  0  0  0
 36 37  1  0  0  0  0
 37 38  1  0  0  0  0
 39 37  1  0  0  0  0
 40 37  1  0  0  0  0
 41 40  1  0  0  0  0
 42 41  1  0  0  0  0
 42 40  1  0  0  0  0
M  END
>  <minimizedAffinity>
-5.59259844

$$$$

 OpenBabel03242519333D

 42 45  0  0  0  0  0  0  0  0999 V2000
   40.8740   33.5220   40.6120 C   0  0  0  0  0  0  0  0  0  0  0  0
   40.2720   34.7700   40.2910 C   0  0  0  0  0  0  0  0  0  0  0  0
   38.8800   34.8710   40.1680 C   0  0  0  0  0  0  0  0  0  0  0  0
   38.1660   33.7210   40.3730 N   0  0  0  0  0  0  0  0  0  0  0  0
   38.7850   32.5380   40.6810 C   0  0  0  0  0  0  0  0  0  0  0  0
   40.1080   32.4470   40.7960 N   0  0  0  0  0  0  0  0  0  0  0  0
   40.7820   35.6790   40.1250 H   0  0  0  0  0  0  0  0  0  0  0  0
   38.3920   35.7900   39.9280 H   0  0  0  0  0  0  0  0  0  0  0  0
   42.3320   33.5510   40.7050 C   0  0  0  0  0  0  0  0  0  0  0  0
   42.9290   32.3930   41.3210 C   0  0  0  0  0  0  0  0  0  0  0  0
   43.5700   32.6410   42.6220 C   0  0  0  0  0  0  0  0  0  0  0  0
   44.6010   33.7660   42.5380 C   0  0  0  0  0  0  0  0  0  0  0  0
   44.1810   34.9050   41.6680 C   0  0  0  0  0  0  0  0  0  0  0  0
   42.6730   34.8870   41.4490 C   0  0  0  0  0  0  0  0  0  0  0  0
   42.7320   33.7730   39.6710 H   0  0  0  0  0  0  0  0  0  0  0  0
   42.2410   31.5270   41.4320 H   0  0  0  0  0  0  0  0  0  0  0  0
   43.7360   31.9950   40.6370 H   0  0  0  0  0  0  0  0  0  0  0  0
   42.9240   32.8090   43.4890 H   0  0  0  0  0  0  0  0  0  0  0  0
   44.1710   31.7220   42.8850 H   0  0  0  0  0  0  0  0  0  0  0  0
   44.8300   34.1700   43.5500 H   0  0  0  0  0  0  0  0  0  0  0  0
   45.5620   33.3410   42.1620 H   0  0  0  0  0  0  0  0  0  0  0  0
   44.6340   34.7470   40.6570 H   0  0  0  0  0  0  0  0  0  0  0  0
   44.4950   35.8920   41.9940 H   0  0  0  0  0  0  0  0  0  0  0  0
   42.2070   34.8320   42.4340 H   0  0  0  0  0  0  0  0  0  0  0  0
   42.3710   35.7330   40.8170 H   0  0  0  0  0  0  0  0  0  0  0  0
   37.8610   31.4240   40.8560 C   0  0  0  0  0  0  0  0  0  0  0  0
   36.6460   31.4800   40.2910 N   0  0  0  0  0  0  0  0  0  0  0  0
   35.9610   30.3460   40.5840 C   0  0  0  0  0  0  0  0  0  0  0  0
   36.7780   29.5870   41.3410 N   0  0  0  0  0  0  0  0  0  0  0  0
   37.9350   30.2300   41.5140 N   0  0  0  0  0  0  0  0  0  0  0  0
   34.9630   30.1180   40.2640 H   0  0  0  0  0  0  0  0  0  0  0  0
   36.5100   28.2770   41.8800 C   0  0  0  0  0  0  0  0  0  0  0  0
   35.8350   28.3840   42.7670 H   0  0  0  0  0  0  0  0  0  0  0  0
   35.9990   27.6080   41.2010 H   0  0  0  0  0  0  0  0  0  0  0  0
   37.7510   27.6790   42.3700 C   0  0  0  0  0  3  0  0  0  0  0  0
   38.2780   27.4930   43.5710 C   0  0  0  0  0  3  0  0  0  0  0  0
   39.5870   26.7510   43.8990 C   0  0  0  0  0  0  0  0  0  0  0  0
   39.3590   25.6800   43.7420 H   0  0  0  0  0  0  0  0  0  0  0  0
   39.7990   26.9180   44.9570 H   0  0  0  0  0  0  0  0  0  0  0  0
   40.7150   27.2390   43.0460 C   0  0  0  0  0  3  0  0  0  0  0  0
   41.1010   28.6590   42.9840 C   0  0  0  0  0  2  0  0  0  0  0  0
   42.0350   27.6210   43.5640 C   0  0  0  0  0  2  0  0  0  0  0  0
  1  9  1  0  0  0  0
  1  6  1  0  0  0  0
  2  1  2  0  0  0  0
  3  2  1  0  0  0  0
  3  4  2  0  0  0  0
  4  5  1  0  0  0  0
  5  6  2  0  0  0  0
  5 26  1  0  0  0  0
  7  2  1  0  0  0  0
  8  3  1  0  0  0  0
  9 10  1  0  0  0  0
  9 14  1  0  0  0  0
 10 16  1  0  0  0  0
 10 11  1  0  0  0  0
 11 19  1  0  0  0  0
 11 18  1  0  0  0  0
 12 11  1  0  0  0  0
 12 20  1  0  0  0  0
 13 23  1  0  0  0  0
 13 12  1  0  0  0  0
 14 13  1  0  0  0  0
 14 24  1  0  0  0  0
 15  9  1  0  0  0  0
 17 10  1  0  0  0  0
 21 12  1  0  0  0  0
 22 13  1  0  0  0  0
 25 14  1  0  0  0  0
 26 30  2  0  0  0  0
 27 28  2  0  0  0  0
 27 26  1  0  0  0  0
 28 29  1  0  0  0  0
 29 30  1  0  0  0  0
 29 32  1  0  0  0  0
 31 28  1  0  0  0  0
 32 35  1  0  0  0  0
 32 33  1  0  0  0  0
 34 32  1  0  0  0  0
 35 36  2  0  0  0  0
 36 37  1  0  0  0  0
 37 39  1  0  0  0  0
 38 37  1  0  0  0  0
 40 42  1  0  0  0  0
 40 37  1  0  0  0  0
 41 40  1  0  0  0  0
 41 42  1  0  0  0  0
M  END
>  <minimizedAffinity>
-5.54911089

$$$$

 OpenBabel03242519333D

 42 45  0  0  0  0  0  0  0  0999 V2000
   32.7890   29.2760   37.2850 C   0  0  0  0  0  0  0  0  0  0  0  0
   33.5290   28.8890   36.1340 C   0  0  0  0  0  0  0  0  0  0  0  0
   34.8940   28.5950   36.2400 C   0  0  0  0  0  0  0  0  0  0  0  0
   35.4450   28.7030   37.4880 N   0  0  0  0  0  0  0  0  0  0  0  0
   34.6970   29.0800   38.5720 C   0  0  0  0  0  0  0  0  0  0  0  0
   33.4000   29.3580   38.4670 N   0  0  0  0  0  0  0  0  0  0  0  0
   33.1470   28.7930   35.1550 H   0  0  0  0  0  0  0  0  0  0  0  0
   35.4830   28.3020   35.3980 H   0  0  0  0  0  0  0  0  0  0  0  0
   31.3770   29.5600   37.0380 C   0  0  0  0  0  0  0  0  0  0  0  0
   31.1170   30.4790   35.9580 C   0  0  0  0  0  0  0  0  0  0  0  0
   30.5530   31.7750   36.3670 C   0  0  0  0  0  0  0  0  0  0  0  0
   29.2890   31.6010   37.2080 C   0  0  0  0  0  0  0  0  0  0  0  0
   29.3590   30.4640   38.1740 C   0  0  0  0  0  0  0  0  0  0  0  0
   30.8060   30.0490   38.4120 C   0  0  0  0  0  0  0  0  0  0  0  0
   30.8470   28.5670   36.9270 H   0  0  0  0  0  0  0  0  0  0  0  0
   31.9920   30.6720   35.3010 H   0  0  0  0  0  0  0  0  0  0  0  0
   30.3650   30.0100   35.2560 H   0  0  0  0  0  0  0  0  0  0  0  0
   31.2170   32.4910   36.8610 H   0  0  0  0  0  0  0  0  0  0  0  0
   30.2030   32.3030   35.4330 H   0  0  0  0  0  0  0  0  0  0  0  0
   29.0640   32.5280   37.7820 H   0  0  0  0  0  0  0  0  0  0  0  0
   28.4210   31.4570   36.5210 H   0  0  0  0  0  0  0  0  0  0  0  0
   28.8670   29.5790   37.6960 H   0  0  0  0  0  0  0  0  0  0  0  0
   28.8580   30.6170   39.1250 H   0  0  0  0  0  0  0  0  0  0  0  0
   31.3570   30.9500   38.6840 H   0  0  0  0  0  0  0  0  0  0  0  0
   30.8500   29.2200   39.1310 H   0  0  0  0  0  0  0  0  0  0  0  0
   35.4590   29.1450   39.8140 C   0  0  0  0  0  0  0  0  0  0  0  0
   35.8780   30.3350   40.2690 N   0  0  0  0  0  0  0  0  0  0  0  0
   36.5610   30.1570   41.4270 C   0  0  0  0  0  0  0  0  0  0  0  0
   36.5550   28.8340   41.6800 N   0  0  0  0  0  0  0  0  0  0  0  0
   35.8900   28.2070   40.7070 N   0  0  0  0  0  0  0  0  0  0  0  0
   37.0110   30.9360   42.0120 H   0  0  0  0  0  0  0  0  0  0  0  0
   37.1340   28.1540   42.8110 C   0  0  0  0  0  0  0  0  0  0  0  0
   38.2320   28.3740   42.8410 H   0  0  0  0  0  0  0  0  0  0  0  0
   36.7450   28.4670   43.7700 H   0  0  0  0  0  0  0  0  0  0  0  0
   37.0040   26.7070   42.6400 C   0  0  0  0  0  3  0  0  0  0  0  0
   37.7980   25.7550   42.1750 C   0  0  0  0  0  3  0  0  0  0  0  0
   37.5090   24.2420   42.1520 C   0  0  0  0  0  0  0  0  0  0  0  0
   36.6460   24.1030   42.8290 H   0  0  0  0  0  0  0  0  0  0  0  0
   38.3800   23.7380   42.5770 H   0  0  0  0  0  0  0  0  0  0  0  0
   37.2430   23.7630   40.7600 C   0  0  0  0  0  3  0  0  0  0  0  0
   35.8850   23.6870   40.1960 C   0  0  0  0  0  2  0  0  0  0  0  0
   36.9110   24.6450   39.6330 C   0  0  0  0  0  2  0  0  0  0  0  0
  1  6  1  0  0  0  0
  2  3  1  0  0  0  0
  2  1  2  0  0  0  0
  3  4  2  0  0  0  0
  4  5  1  0  0  0  0
  5 26  1  0  0  0  0
  6  5  2  0  0  0  0
  7  2  1  0  0  0  0
  8  3  1  0  0  0  0
  9  1  1  0  0  0  0
  9 14  1  0  0  0  0
 10 11  1  0  0  0  0
 10  9  1  0  0  0  0
 11 18  1  0  0  0  0
 11 12  1  0  0  0  0
 12 20  1  0  0  0  0
 12 13  1  0  0  0  0
 13 14  1  0  0  0  0
 13 23  1  0  0  0  0
 14 24  1  0  0  0  0
 14 25  1  0  0  0  0
 15  9  1  0  0  0  0
 16 10  1  0  0  0  0
 17 10  1  0  0  0  0
 19 11  1  0  0  0  0
 21 12  1  0  0  0  0
 22 13  1  0  0  0  0
 26 27  1  0  0  0  0
 26 30  2  0  0  0  0
 27 28  2  0  0  0  0
 28 29  1  0  0  0  0
 28 31  1  0  0  0  0
 29 32  1  0  0  0  0
 30 29  1  0  0  0  0
 32 33  1  0  0  0  0
 32 34  1  0  0  0  0
 35 32  1  0  0  0  0
 36 35  2  0  0  0  0
 37 36  1  0  0  0  0
 37 39  1  0  0  0  0
 37 38  1  0  0  0  0
 40 37  1  0  0  0  0
 41 40  1  0  0  0  0
 42 41  1  0  0  0  0
 42 40  1  0  0  0  0
M  END
>  <minimizedAffinity>
-5.48763323

$$$$

 OpenBabel03242519333D

 42 45  0  0  0  0  0  0  0  0999 V2000
   37.1460   27.0760   41.6190 C   0  0  0  0  0  0  0  0  0  0  0  0
   37.1570   26.9900   43.0370 C   0  0  0  0  0  0  0  0  0  0  0  0
   37.3780   28.1360   43.8120 C   0  0  0  0  0  0  0  0  0  0  0  0
   37.5740   29.3050   43.1260 N   0  0  0  0  0  0  0  0  0  0  0  0
   37.5550   29.3450   41.7570 C   0  0  0  0  0  0  0  0  0  0  0  0
   37.3460   28.2530   41.0260 N   0  0  0  0  0  0  0  0  0  0  0  0
   37.0110   26.1130   43.6060 H   0  0  0  0  0  0  0  0  0  0  0  0
   37.3940   28.1110   44.8800 H   0  0  0  0  0  0  0  0  0  0  0  0
   36.9110   25.8090   40.9300 C   0  0  0  0  0  0  0  0  0  0  0  0
   36.9290   24.6400   41.7750 C   0  0  0  0  0  0  0  0  0  0  0  0
   38.0530   23.7210   41.5410 C   0  0  0  0  0  0  0  0  0  0  0  0
   38.1380   23.2960   40.0760 C   0  0  0  0  0  0  0  0  0  0  0  0
   37.8430   24.3950   39.1100 C   0  0  0  0  0  0  0  0  0  0  0  0
   37.9780   25.7540   39.7850 C   0  0  0  0  0  0  0  0  0  0  0  0
   35.9590   25.9210   40.3310 H   0  0  0  0  0  0  0  0  0  0  0  0
   36.8810   24.8620   42.8630 H   0  0  0  0  0  0  0  0  0  0  0  0
   35.9850   24.0460   41.5910 H   0  0  0  0  0  0  0  0  0  0  0  0
   39.0460   24.0260   41.8850 H   0  0  0  0  0  0  0  0  0  0  0  0
   37.8330   22.7660   42.1030 H   0  0  0  0  0  0  0  0  0  0  0  0
   39.1480   22.8900   39.8390 H   0  0  0  0  0  0  0  0  0  0  0  0
   37.4300   22.4490   39.9090 H   0  0  0  0  0  0  0  0  0  0  0  0
   36.7660   24.3110   38.8160 H   0  0  0  0  0  0  0  0  0  0  0  0
   38.4140   24.3830   38.1860 H   0  0  0  0  0  0  0  0  0  0  0  0
   38.9590   25.7790   40.2620 H   0  0  0  0  0  0  0  0  0  0  0  0
   37.7690   26.5580   39.0660 H   0  0  0  0  0  0  0  0  0  0  0  0
   37.7900   30.6760   41.2090 C   0  0  0  0  0  0  0  0  0  0  0  0
   36.8680   31.2310   40.4080 N   0  0  0  0  0  0  0  0  0  0  0  0
   37.2930   32.4580   40.0180 C   0  0  0  0  0  0  0  0  0  0  0  0
   38.4960   32.6520   40.5940 N   0  0  0  0  0  0  0  0  0  0  0  0
   38.8100   31.5770   41.3200 N   0  0  0  0  0  0  0  0  0  0  0  0
   36.7580   33.1290   39.3740 H   0  0  0  0  0  0  0  0  0  0  0  0
   39.3370   33.8180   40.4980 C   0  0  0  0  0  0  0  0  0  0  0  0
   38.6970   34.7070   40.2650 H   0  0  0  0  0  0  0  0  0  0  0  0
   39.8660   34.0670   41.4090 H   0  0  0  0  0  0  0  0  0  0  0  0
   40.2660   33.6690   39.3780 C   0  0  0  0  0  3  0  0  0  0  0  0
   40.8380   32.6340   38.7820 C   0  0  0  0  0  3  0  0  0  0  0  0
   41.7430   32.6710   37.5360 C   0  0  0  0  0  0  0  0  0  0  0  0
   42.3000   33.6230   37.6130 H   0  0  0  0  0  0  0  0  0  0  0  0
   41.0910   32.7100   36.6610 H   0  0  0  0  0  0  0  0  0  0  0  0
   42.6380   31.4730   37.4810 C   0  0  0  0  0  3  0  0  0  0  0  0
   42.5520   30.4720   36.4040 C   0  0  0  0  0  2  0  0  0  0  0  0
   43.7800   31.3390   36.5670 C   0  0  0  0  0  2  0  0  0  0  0  0
  1  2  1  0  0  0  0
  2  7  1  0  0  0  0
  2  3  2  0  0  0  0
  3  8  1  0  0  0  0
  4  3  1  0  0  0  0
  5  4  2  0  0  0  0
  6  1  2  0  0  0  0
  6  5  1  0  0  0  0
  9  1  1  0  0  0  0
  9 10  1  0  0  0  0
 10 16  1  0  0  0  0
 11 10  1  0  0  0  0
 11 18  1  0  0  0  0
 11 19  1  0  0  0  0
 12 11  1  0  0  0  0
 13 14  1  0  0  0  0
 13 12  1  0  0  0  0
 14 24  1  0  0  0  0
 14  9  1  0  0  0  0
 15  9  1  0  0  0  0
 17 10  1  0  0  0  0
 20 12  1  0  0  0  0
 21 12  1  0  0  0  0
 22 13  1  0  0  0  0
 23 13  1  0  0  0  0
 25 14  1  0  0  0  0
 26 30  2  0  0  0  0
 26  5  1  0  0  0  0
 27 26  1  0  0  0  0
 28 27  2  0  0  0  0
 28 29  1  0  0  0  0
 29 30  1  0  0  0  0
 31 28  1  0  0  0  0
 32 29  1  0  0  0  0
 32 34  1  0  0  0  0
 33 32  1  0  0  0  0
 35 32  1  0  0  0  0
 36 35  2  0  0  0  0
 37 38  1  0  0  0  0
 37 36  1  0  0  0  0
 39 37  1  0  0  0  0
 40 37  1  0  0  0  0
 41 42  1  0  0  0  0
 41 40  1  0  0  0  0
 42 40  1  0  0  0  0
M  END
>  <minimizedAffinity>
-5.38139439

$$$$

 OpenBabel03242519333D

 42 45  0  0  0  0  0  0  0  0999 V2000
   40.8800   33.6930   40.0510 C   0  0  0  0  0  0  0  0  0  0  0  0
   39.9670   34.7740   39.9150 C   0  0  0  0  0  0  0  0  0  0  0  0
   38.6290   34.6200   40.3000 C   0  0  0  0  0  0  0  0  0  0  0  0
   38.2770   33.3950   40.8000 N   0  0  0  0  0  0  0  0  0  0  0  0
   39.1880   32.3790   40.9140 C   0  0  0  0  0  0  0  0  0  0  0  0
   40.4580   32.5300   40.5470 N   0  0  0  0  0  0  0  0  0  0  0  0
   40.1940   35.7320   39.5360 H   0  0  0  0  0  0  0  0  0  0  0  0
   37.9140   35.4090   40.2120 H   0  0  0  0  0  0  0  0  0  0  0  0
   42.2420   33.9820   39.6090 C   0  0  0  0  0  0  0  0  0  0  0  0
   42.3460   34.6110   38.3160 C   0  0  0  0  0  0  0  0  0  0  0  0
   42.9610   33.7820   37.2680 C   0  0  0  0  0  0  0  0  0  0  0  0
   44.3330   33.2600   37.6950 C   0  0  0  0  0  0  0  0  0  0  0  0
   44.4010   32.8480   39.1290 C   0  0  0  0  0  0  0  0  0  0  0  0
   43.0040   32.6160   39.6890 C   0  0  0  0  0  0  0  0  0  0  0  0
   42.7510   34.5600   40.4370 H   0  0  0  0  0  0  0  0  0  0  0  0
   41.3850   35.0110   37.9230 H   0  0  0  0  0  0  0  0  0  0  0  0
   42.9890   35.5360   38.4130 H   0  0  0  0  0  0  0  0  0  0  0  0
   42.3740   32.9560   36.8560 H   0  0  0  0  0  0  0  0  0  0  0  0
   43.1740   34.4530   36.3850 H   0  0  0  0  0  0  0  0  0  0  0  0
   44.6370   32.3900   37.0700 H   0  0  0  0  0  0  0  0  0  0  0  0
   45.0940   34.0520   37.4960 H   0  0  0  0  0  0  0  0  0  0  0  0
   44.8210   33.7070   39.7110 H   0  0  0  0  0  0  0  0  0  0  0  0
   45.0330   31.9920   39.3480 H   0  0  0  0  0  0  0  0  0  0  0  0
   42.4970   31.9270   39.0110 H   0  0  0  0  0  0  0  0  0  0  0  0
   43.0630   32.3030   40.7410 H   0  0  0  0  0  0  0  0  0  0  0  0
   38.6250   31.1490   41.4610 C   0  0  0  0  0  0  0  0  0  0  0  0
   37.4520   30.6970   40.9950 N   0  0  0  0  0  0  0  0  0  0  0  0
   37.1240   29.5500   41.6420 C   0  0  0  0  0  0  0  0  0  0  0  0
   38.1190   29.3020   42.5160 N   0  0  0  0  0  0  0  0  0  0  0  0
   39.0370   30.2660   42.4170 N   0  0  0  0  0  0  0  0  0  0  0  0
   36.2380   28.9690   41.4730 H   0  0  0  0  0  0  0  0  0  0  0  0
   38.2380   28.1830   43.4160 C   0  0  0  0  0  0  0  0  0  0  0  0
   39.3040   27.8420   43.4290 H   0  0  0  0  0  0  0  0  0  0  0  0
   37.9870   28.4050   44.4440 H   0  0  0  0  0  0  0  0  0  0  0  0
   37.4470   27.0590   42.9160 C   0  0  0  0  0  3  0  0  0  0  0  0
   37.7440   25.8830   42.3820 C   0  0  0  0  0  3  0  0  0  0  0  0
   36.7520   24.7730   41.9850 C   0  0  0  0  0  0  0  0  0  0  0  0
   35.7540   25.1710   42.2470 H   0  0  0  0  0  0  0  0  0  0  0  0
   36.9660   23.9070   42.6140 H   0  0  0  0  0  0  0  0  0  0  0  0
   36.8810   24.4250   40.5360 C   0  0  0  0  0  3  0  0  0  0  0  0
   36.5210   25.3650   39.4620 C   0  0  0  0  0  2  0  0  0  0  0  0
   37.9520   24.9190   39.6610 C   0  0  0  0  0  2  0  0  0  0  0  0
  1  6  1  0  0  0  0
  2  1  2  0  0  0  0
  2  3  1  0  0  0  0
  3  4  2  0  0  0  0
  4  5  1  0  0  0  0
  5 26  1  0  0  0  0
  6  5  2  0  0  0  0
  7  2  1  0  0  0  0
  8  3  1  0  0  0  0
  9 14  1  0  0  0  0
  9  1  1  0  0  0  0
  9 15  1  0  0  0  0
 10 17  1  0  0  0  0
 10  9  1  0  0  0  0
 11 12  1  0  0  0  0
 11 10  1  0  0  0  0
 12 13  1  0  0  0  0
 13 23  1  0  0  0  0
 13 14  1  0  0  0  0
 13 22  1  0  0  0  0
 14 25  1  0  0  0  0
 16 10  1  0  0  0  0
 18 11  1  0  0  0  0
 19 11  1  0  0  0  0
 20 12  1  0  0  0  0
 21 12  1  0  0  0  0
 24 14  1  0  0  0  0
 26 30  2  0  0  0  0
 27 26  1  0  0  0  0
 27 28  2  0  0  0  0
 28 29  1  0  0  0  0
 29 32  1  0  0  0  0
 30 29  1  0  0  0  0
 31 28  1  0  0  0  0
 32 33  1  0  0  0  0
 32 34  1  0  0  0  0
 35 32  1  0  0  0  0
 36 35  2  0  0  0  0
 37 38  1  0  0  0  0
 37 36  1  0  0  0  0
 37 39  1  0  0  0  0
 40 37  1  0  0  0  0
 41 42  1  0  0  0  0
 41 40  1  0  0  0  0
 42 40  1  0  0  0  0
M  END
>  <minimizedAffinity>
-5.37659788

$$$$
