
 OpenBabel03252508143D

 31 34  0  0  1  0  0  0  0  0999 V2000
   47.2620   31.2500   46.6890 C   0  0  0  0  0  0  0  0  0  0  0  0
   46.6810   30.3270   46.4830 H   0  0  0  0  0  0  0  0  0  0  0  0
   48.3420   31.1010   46.6410 H   0  0  0  0  0  0  0  0  0  0  0  0
   46.8380   31.7480   48.0510 C   0  0  1  0  0  0  0  0  0  0  0  0
   46.2450   30.7360   48.9660 C   0  0  0  0  0  0  0  0  0  0  0  0
   47.5590   31.2740   49.2560 C   0  0  1  0  0  0  0  0  0  0  0  0
   46.4640   32.7920   48.1050 H   0  0  0  0  0  0  0  0  0  0  0  0
   46.1390   29.6910   48.6040 H   0  0  0  0  0  0  0  0  0  0  0  0
   45.3560   31.0510   49.5740 H   0  0  0  0  0  0  0  0  0  0  0  0
   47.5910   31.9850   50.1390 H   0  0  0  0  0  0  0  0  0  0  0  0
   48.8400   30.5550   49.0640 C   0  0  0  0  0  0  0  0  0  0  0  0
   49.6170   30.2710   50.3760 C   0  0  0  0  0  0  0  0  0  0  0  0
   50.1190   31.3130   49.4540 C   0  0  0  0  0  0  0  0  0  0  0  0
   48.9420   29.7980   48.2600 H   0  0  0  0  0  0  0  0  0  0  0  0
   49.0960   30.4870   51.3170 H   0  0  0  0  0  0  0  0  0  0  0  0
   50.1710   29.2990   50.3640 H   0  0  0  0  0  0  0  0  0  0  0  0
   49.9500   32.3620   49.8290 H   0  0  0  0  0  0  0  0  0  0  0  0
   51.0160   31.1050   48.8570 H   0  0  0  0  0  0  0  0  0  0  0  0
   45.9220   33.0730   45.9870 C   0  0  0  0  0  3  0  0  0  0  0  0
   46.8090   32.2330   45.6170 C   0  0  0  0  0  3  0  0  0  0  0  0
   44.4420   36.0930   44.4870 C   0  0  0  0  0  0  0  0  0  0  0  0
   44.4440   35.8120   43.1270 C   0  0  0  0  0  0  0  0  0  0  0  0
   44.9690   34.5860   42.7530 C   0  0  0  0  0  0  0  0  0  0  0  0
   45.4310   33.7640   43.7040 N   0  0  0  0  0  0  0  0  0  0  0  0
   45.4240   34.0420   45.0140 C   0  0  0  0  0  0  0  0  0  0  0  0
   44.9240   35.2130   45.3790 N   0  0  0  0  0  0  0  0  0  0  0  0
   44.0340   37.0480   44.7910 H   0  0  0  0  0  0  0  0  0  0  0  0
   44.0700   36.4860   42.3900 H   0  0  0  0  0  0  0  0  0  0  0  0
   45.0070   34.2110   41.2960 C   0  0  0  0  0  3  0  0  0  0  0  0
   43.9370   33.1350   40.9440 C   0  0  0  0  0  2  0  0  0  0  0  0
   43.9020   34.5480   40.3980 C   0  0  0  0  0  2  0  0  0  0  0  0
  1  4  1  0  0  0  0
  2  1  1  0  0  0  0
  3  1  1  0  0  0  0
  4  7  1  1  0  0  0
  4  5  1  0  0  0  0
  4  6  1  0  0  0  0
  5  6  1  0  0  0  0
  5  9  1  0  0  0  0
  6 10  1  1  0  0  0
  8  5  1  0  0  0  0
 11  6  1  0  0  0  0
 11 13  1  0  0  0  0
 11 12  1  0  0  0  0
 12 15  1  0  0  0  0
 13 17  1  0  0  0  0
 13 12  1  0  0  0  0
 14 11  1  0  0  0  0
 16 12  1  0  0  0  0
 18 13  1  0  0  0  0
 20 19  2  0  0  0  0
 20  1  1  0  0  0  0
 21 27  1  0  0  0  0
 21 26  1  0  0  0  0
 22 21  2  0  0  0  0
 23 22  1  0  0  0  0
 23 24  2  0  0  0  0
 24 25  1  0  0  0  0
 25 26  2  0  0  0  0
 25 19  1  0  0  0  0
 28 22  1  0  0  0  0
 29 23  1  0  0  0  0
 30 29  1  0  0  0  0
 31 30  1  0  0  0  0
 31 29  1  0  0  0  0
M  END
>  <minimizedAffinity>
-4.71156168

>  <minimizedRMSD>
1.05607545

$$$$
