
 OpenBabel03252502593D

 16 17  0  0  0  0  0  0  0  0999 V2000
   44.2680   35.7580   44.2100 C   0  0  0  0  0  0  0  0  0  0  0  0
   44.3930   34.9350   43.1010 C   0  0  0  0  0  0  0  0  0  0  0  0
   45.0070   33.7110   43.2220 C   0  0  0  0  0  0  0  0  0  0  0  0
   45.4760   33.3440   44.4410 N   0  0  0  0  0  0  0  0  0  0  0  0
   45.3410   34.1620   45.5060 C   0  0  0  0  0  0  0  0  0  0  0  0
   44.7530   35.3410   45.3990 N   0  0  0  0  0  0  0  0  0  0  0  0
   43.7910   36.7260   44.1430 H   0  0  0  0  0  0  0  0  0  0  0  0
   45.1450   33.0230   42.4190 H   0  0  0  0  0  0  0  0  0  0  0  0
   45.7110   33.8880   46.4980 H   0  0  0  0  0  0  0  0  0  0  0  0
   43.7560   35.4580   41.4910 S   0  0  0  0  0  0  0  0  0  0  0  0
   42.1010   34.8350   41.2670 C   0  0  0  0  0  0  0  0  0  0  0  0
   42.1590   33.7120   41.2070 H   0  0  0  0  0  0  0  0  0  0  0  0
   41.5050   34.9960   42.2120 H   0  0  0  0  0  0  0  0  0  0  0  0
   41.3130   35.4230   40.1520 C   0  0  0  0  0  0  0  0  0  0  0  0
   39.9020   35.0550   39.8900 C   0  0  0  0  0  0  0  0  0  0  0  0
   40.2090   36.3750   40.6230 C   0  0  0  0  0  0  0  0  0  0  0  0
  1  6  1  0  0  0  0
  2  3  1  0  0  0  0
  2  1  2  0  0  0  0
  3  4  2  0  0  0  0
  4  5  1  0  0  0  0
  5  9  1  0  0  0  0
  6  5  2  0  0  0  0
  7  1  1  0  0  0  0
  8  3  1  0  0  0  0
 10  2  1  0  0  0  0
 11 10  1  0  0  0  0
 11 13  1  0  0  0  0
 12 11  1  0  0  0  0
 14 16  1  0  0  0  0
 14 11  1  0  0  0  0
 15 14  1  0  0  0  0
 15 16  1  0  0  0  0
M  END
>  <minimizedAffinity>
-3.76885772

>  <minimizedRMSD>
2.50552368

$$$$
