
 OpenBabel03242514173D

 35 37  0  0  0  0  0  0  0  0999 V2000
   45.9760   34.9230   43.2860 C   0  0  0  0  0  0  0  0  0  0  0  0
   45.7490   34.2200   44.4660 C   0  0  0  0  0  0  0  0  0  0  0  0
   44.9610   34.8510   45.3940 C   0  0  0  0  0  0  0  0  0  0  0  0
   44.4560   36.0880   45.1250 N   0  0  0  0  0  0  0  0  0  0  0  0
   44.6910   36.7340   43.9850 C   0  0  0  0  0  0  0  0  0  0  0  0
   45.4430   36.1400   43.0950 N   0  0  0  0  0  0  0  0  0  0  0  0
   44.6240   34.5690   46.3740 H   0  0  0  0  0  0  0  0  0  0  0  0
   44.3130   37.7130   43.7300 H   0  0  0  0  0  0  0  0  0  0  0  0
   46.8620   34.2360   42.3270 C   0  0  0  0  0  0  0  0  0  0  0  0
   48.2300   34.7290   42.2650 C   0  0  0  0  0  0  0  0  0  0  0  0
   48.5680   35.3760   40.9940 C   0  0  0  0  0  0  0  0  0  0  0  0
   48.3260   34.4540   39.8000 C   0  0  0  0  0  0  0  0  0  0  0  0
   47.0620   33.6870   39.9090 C   0  0  0  0  0  0  0  0  0  0  0  0
   46.1630   34.2520   40.9790 C   0  0  0  0  0  0  0  0  0  0  0  0
   46.9000   33.1520   42.5450 H   0  0  0  0  0  0  0  0  0  0  0  0
   48.3720   35.4820   43.0820 H   0  0  0  0  0  0  0  0  0  0  0  0
   49.0230   33.9640   42.4830 H   0  0  0  0  0  0  0  0  0  0  0  0
   49.6490   35.6330   40.9760 H   0  0  0  0  0  0  0  0  0  0  0  0
   48.0110   36.3270   40.8890 H   0  0  0  0  0  0  0  0  0  0  0  0
   48.2700   35.1150   38.9090 H   0  0  0  0  0  0  0  0  0  0  0  0
   49.2250   33.8170   39.6270 H   0  0  0  0  0  0  0  0  0  0  0  0
   46.5160   33.5070   38.9800 H   0  0  0  0  0  0  0  0  0  0  0  0
   47.3390   32.6580   40.2850 H   0  0  0  0  0  0  0  0  0  0  0  0
   45.7940   35.2600   40.7210 H   0  0  0  0  0  0  0  0  0  0  0  0
   45.2700   33.6080   41.0630 H   0  0  0  0  0  0  0  0  0  0  0  0
   46.1360   33.0380   44.9070 O   0  0  0  0  0  0  0  0  0  0  0  0
   46.6490   32.5810   46.0850 C   0  0  0  0  0  0  0  0  0  0  0  0
   47.4860   33.2660   46.4190 H   0  0  0  0  0  0  0  0  0  0  0  0
   47.1970   31.6080   45.9060 H   0  0  0  0  0  0  0  0  0  0  0  0
   45.7290   32.4870   47.2420 C   0  0  0  0  0  0  0  0  0  0  0  0
   44.6570   32.3980   46.8760 H   0  0  0  0  0  0  0  0  0  0  0  0
   45.7000   33.4220   47.8530 H   0  0  0  0  0  0  0  0  0  0  0  0
   46.0770   31.3790   48.1730 C   0  0  0  0  0  0  0  0  0  0  0  0
   45.1080   30.2020   48.2400 C   0  0  0  0  0  0  0  0  0  0  0  0
   45.4440   31.0930   49.4580 C   0  0  0  0  0  0  0  0  0  0  0  0
  1  2  1  0  0  0  0
  2 26  1  0  0  0  0
  2  3  2  0  0  0  0
  3  7  1  0  0  0  0
  4  3  1  0  0  0  0
  5  4  2  0  0  0  0
  6  1  2  0  0  0  0
  6  5  1  0  0  0  0
  8  5  1  0  0  0  0
  9 15  1  0  0  0  0
  9  1  1  0  0  0  0
 10  9  1  0  0  0  0
 10 17  1  0  0  0  0
 10 16  1  0  0  0  0
 11 10  1  0  0  0  0
 12 13  1  0  0  0  0
 12 11  1  0  0  0  0
 13 23  1  0  0  0  0
 13 14  1  0  0  0  0
 14 25  1  0  0  0  0
 14  9  1  0  0  0  0
 18 11  1  0  0  0  0
 19 11  1  0  0  0  0
 20 12  1  0  0  0  0
 21 12  1  0  0  0  0
 22 13  1  0  0  0  0
 24 14  1  0  0  0  0
 26 27  1  0  0  0  0
 27 28  1  0  0  0  0
 27 30  1  0  0  0  0
 29 27  1  0  0  0  0
 30 32  1  0  0  0  0
 30 33  1  0  0  0  0
 31 30  1  0  0  0  0
 33 34  1  0  0  0  0
 33 35  1  0  0  0  0
 34 35  1  0  0  0  0
M  END
>  <minimizedAffinity>
-5.40151882

>  <minimizedRMSD>
1.95265424

$$$$
