
 OpenBabel03252507173D

 23 25  0  0  0  0  0  0  0  0999 V2000
   37.1110   24.7070   42.1090 C   0  0  0  0  0  0  0  0  0  0  0  0
   37.0980   26.1080   41.9000 C   0  0  0  0  0  0  0  0  0  0  0  0
   36.8300   26.5620   40.6290 C   0  0  0  0  0  0  0  0  0  0  0  0
   36.5920   25.6820   39.6380 N   0  0  0  0  0  0  0  0  0  0  0  0
   36.6100   24.3300   39.8570 C   0  0  0  0  0  0  0  0  0  0  0  0
   36.8690   23.8850   41.0870 N   0  0  0  0  0  0  0  0  0  0  0  0
   37.3180   24.2930   43.0950 H   0  0  0  0  0  0  0  0  0  0  0  0
   36.3990   23.7550   38.9550 H   0  0  0  0  0  0  0  0  0  0  0  0
   36.8120   28.0010   40.4010 C   0  0  0  0  0  0  0  0  0  0  0  0
   35.6600   28.7260   40.6370 C   0  0  0  0  0  0  0  0  0  0  0  0
   35.6750   30.0820   40.4120 C   0  0  0  0  0  0  0  0  0  0  0  0
   36.8020   30.7690   39.9540 C   0  0  0  0  0  0  0  0  0  0  0  0
   37.9190   29.9940   39.7360 C   0  0  0  0  0  0  0  0  0  0  0  0
   37.8990   28.6610   39.9580 N   0  0  0  0  0  0  0  0  0  0  0  0
   34.7670   28.2330   40.9930 H   0  0  0  0  0  0  0  0  0  0  0  0
   34.7700   30.6470   40.5990 H   0  0  0  0  0  0  0  0  0  0  0  0
   36.8140   31.8370   39.7760 H   0  0  0  0  0  0  0  0  0  0  0  0
   38.8160   30.5040   39.3760 H   0  0  0  0  0  0  0  0  0  0  0  0
   37.3580   26.9880   42.9970 C   0  0  0  0  0  0  0  0  0  0  0  0
   36.3650   27.5370   43.5540 O   0  0  0  0  0  0  0  0  0  0  0  0
   38.7230   27.2780   43.4990 C   0  0  0  0  0  3  0  0  0  0  0  0
   39.8670   27.2190   42.5250 C   0  0  0  0  0  2  0  0  0  0  0  0
   39.4360   28.5330   43.0090 C   0  0  0  0  0  2  0  0  0  0  0  0
  1  7  1  0  0  0  0
  2  1  1  0  0  0  0
  2 19  1  0  0  0  0
  3  2  2  0  0  0  0
  4  5  2  0  0  0  0
  4  3  1  0  0  0  0
  5  6  1  0  0  0  0
  6  1  2  0  0  0  0
  8  5  1  0  0  0  0
  9  3  1  0  0  0  0
  9 10  1  0  0  0  0
 10 15  1  0  0  0  0
 11 16  1  0  0  0  0
 11 10  2  0  0  0  0
 12 11  1  0  0  0  0
 13 12  2  0  0  0  0
 13 14  1  0  0  0  0
 14  9  2  0  0  0  0
 17 12  1  0  0  0  0
 18 13  1  0  0  0  0
 19 21  1  0  0  0  0
 19 20  2  0  0  0  0
 22 23  1  0  0  0  0
 22 21  1  0  0  0  0
 23 21  1  0  0  0  0
M  END
>  <minimizedAffinity>
-4.64020824

$$$$

 OpenBabel03252507173D

 23 25  0  0  0  0  0  0  0  0999 V2000
   37.3160   33.1590   39.5660 C   0  0  0  0  0  0  0  0  0  0  0  0
   37.5980   31.8430   40.0060 C   0  0  0  0  0  0  0  0  0  0  0  0
   38.7080   31.6590   40.7980 C   0  0  0  0  0  0  0  0  0  0  0  0
   39.4800   32.7110   41.1270 N   0  0  0  0  0  0  0  0  0  0  0  0
   39.1940   33.9770   40.6920 C   0  0  0  0  0  0  0  0  0  0  0  0
   38.1200   34.1610   39.9240 N   0  0  0  0  0  0  0  0  0  0  0  0
   36.4510   33.3620   38.9360 H   0  0  0  0  0  0  0  0  0  0  0  0
   39.9140   34.7170   41.0430 H   0  0  0  0  0  0  0  0  0  0  0  0
   39.0090   30.3090   41.2590 C   0  0  0  0  0  0  0  0  0  0  0  0
   38.7870   29.9610   42.5770 C   0  0  0  0  0  0  0  0  0  0  0  0
   39.0820   28.6810   42.9810 C   0  0  0  0  0  0  0  0  0  0  0  0
   39.5970   27.7070   42.1230 C   0  0  0  0  0  0  0  0  0  0  0  0
   39.7980   28.1130   40.8220 C   0  0  0  0  0  0  0  0  0  0  0  0
   39.5070   29.3730   40.4300 N   0  0  0  0  0  0  0  0  0  0  0  0
   38.3880   30.6850   43.2740 H   0  0  0  0  0  0  0  0  0  0  0  0
   38.9050   28.4120   44.0160 H   0  0  0  0  0  0  0  0  0  0  0  0
   39.8300   26.6980   42.4410 H   0  0  0  0  0  0  0  0  0  0  0  0
   40.2020   27.3720   40.1270 H   0  0  0  0  0  0  0  0  0  0  0  0
   36.7360   30.7690   39.6210 C   0  0  0  0  0  0  0  0  0  0  0  0
   36.8540   30.3170   38.4460 O   0  0  0  0  0  0  0  0  0  0  0  0
   35.7250   30.1740   40.5290 C   0  0  0  0  0  3  0  0  0  0  0  0
   34.7330   29.2030   39.9510 C   0  0  0  0  0  2  0  0  0  0  0  0
   35.7880   28.6800   40.8230 C   0  0  0  0  0  2  0  0  0  0  0  0
  1  6  2  0  0  0  0
  1  2  1  0  0  0  0
  2  3  2  0  0  0  0
  3  4  1  0  0  0  0
  3  9  1  0  0  0  0
  5  8  1  0  0  0  0
  5  4  2  0  0  0  0
  6  5  1  0  0  0  0
  7  1  1  0  0  0  0
  9 10  1  0  0  0  0
 10 11  2  0  0  0  0
 10 15  1  0  0  0  0
 11 16  1  0  0  0  0
 12 17  1  0  0  0  0
 12 11  1  0  0  0  0
 13 12  2  0  0  0  0
 14 13  1  0  0  0  0
 14  9  2  0  0  0  0
 18 13  1  0  0  0  0
 19  2  1  0  0  0  0
 19 21  1  0  0  0  0
 20 19  2  0  0  0  0
 21 23  1  0  0  0  0
 22 21  1  0  0  0  0
 22 23  1  0  0  0  0
M  END
>  <minimizedAffinity>
-4.58813572

$$$$

 OpenBabel03252507173D

 23 25  0  0  0  0  0  0  0  0999 V2000
   37.1390   31.4720   38.5960 C   0  0  0  0  0  0  0  0  0  0  0  0
   37.4490   30.4110   39.4810 C   0  0  0  0  0  0  0  0  0  0  0  0
   38.0130   30.7360   40.6940 C   0  0  0  0  0  0  0  0  0  0  0  0
   38.2500   32.0250   41.0010 N   0  0  0  0  0  0  0  0  0  0  0  0
   37.9450   33.0390   40.1320 C   0  0  0  0  0  0  0  0  0  0  0  0
   37.3990   32.7300   38.9560 N   0  0  0  0  0  0  0  0  0  0  0  0
   36.6920   31.2730   37.6230 H   0  0  0  0  0  0  0  0  0  0  0  0
   38.1980   34.0230   40.5280 H   0  0  0  0  0  0  0  0  0  0  0  0
   38.3360   29.6530   41.6150 C   0  0  0  0  0  0  0  0  0  0  0  0
   37.4560   29.3190   42.6260 C   0  0  0  0  0  0  0  0  0  0  0  0
   37.7900   28.2940   43.4790 C   0  0  0  0  0  0  0  0  0  0  0  0
   38.9790   27.5680   43.3760 C   0  0  0  0  0  0  0  0  0  0  0  0
   39.8160   27.9480   42.3490 C   0  0  0  0  0  0  0  0  0  0  0  0
   39.4830   28.9570   41.5140 N   0  0  0  0  0  0  0  0  0  0  0  0
   36.5240   29.8540   42.7410 H   0  0  0  0  0  0  0  0  0  0  0  0
   37.0970   28.0330   44.2710 H   0  0  0  0  0  0  0  0  0  0  0  0
   39.2420   26.7610   44.0480 H   0  0  0  0  0  0  0  0  0  0  0  0
   40.7550   27.3990   42.2450 H   0  0  0  0  0  0  0  0  0  0  0  0
   37.1700   29.0630   39.0940 C   0  0  0  0  0  0  0  0  0  0  0  0
   38.0590   28.4470   38.4390 O   0  0  0  0  0  0  0  0  0  0  0  0
   35.9010   28.3700   39.4230 C   0  0  0  0  0  3  0  0  0  0  0  0
   34.7530   29.1930   39.9380 C   0  0  0  0  0  2  0  0  0  0  0  0
   34.6650   28.6560   38.5770 C   0  0  0  0  0  2  0  0  0  0  0  0
  1  6  2  0  0  0  0
  1  2  1  0  0  0  0
  2  3  2  0  0  0  0
  3  4  1  0  0  0  0
  3  9  1  0  0  0  0
  5  8  1  0  0  0  0
  5  4  2  0  0  0  0
  6  5  1  0  0  0  0
  7  1  1  0  0  0  0
  9 10  1  0  0  0  0
 10 15  1  0  0  0  0
 10 11  2  0  0  0  0
 11 16  1  0  0  0  0
 12 11  1  0  0  0  0
 12 17  1  0  0  0  0
 13 12  2  0  0  0  0
 14  9  2  0  0  0  0
 14 13  1  0  0  0  0
 18 13  1  0  0  0  0
 19 21  1  0  0  0  0
 19  2  1  0  0  0  0
 20 19  2  0  0  0  0
 21 22  1  0  0  0  0
 23 21  1  0  0  0  0
 23 22  1  0  0  0  0
M  END
>  <minimizedAffinity>
-4.4872427

$$$$

 OpenBabel03252507173D

 23 25  0  0  0  0  0  0  0  0999 V2000
   35.5770   26.6190   38.0720 C   0  0  0  0  0  0  0  0  0  0  0  0
   36.3490   26.6530   39.2590 C   0  0  0  0  0  0  0  0  0  0  0  0
   36.2960   27.7980   40.0220 C   0  0  0  0  0  0  0  0  0  0  0  0
   35.5290   28.8320   39.6280 N   0  0  0  0  0  0  0  0  0  0  0  0
   34.7900   28.7830   38.4760 C   0  0  0  0  0  0  0  0  0  0  0  0
   34.8380   27.6760   37.7340 N   0  0  0  0  0  0  0  0  0  0  0  0
   35.5820   25.7380   37.4300 H   0  0  0  0  0  0  0  0  0  0  0  0
   34.2250   29.6970   38.2980 H   0  0  0  0  0  0  0  0  0  0  0  0
   37.0840   27.8460   41.2470 C   0  0  0  0  0  0  0  0  0  0  0  0
   36.4700   27.6780   42.4730 C   0  0  0  0  0  0  0  0  0  0  0  0
   37.2410   27.7300   43.6100 C   0  0  0  0  0  0  0  0  0  0  0  0
   38.6210   27.9450   43.5900 C   0  0  0  0  0  0  0  0  0  0  0  0
   39.1760   28.1070   42.3390 C   0  0  0  0  0  0  0  0  0  0  0  0
   38.4140   28.0560   41.2250 N   0  0  0  0  0  0  0  0  0  0  0  0
   35.4040   27.5080   42.5320 H   0  0  0  0  0  0  0  0  0  0  0  0
   36.7560   27.5970   44.5700 H   0  0  0  0  0  0  0  0  0  0  0  0
   39.2290   27.9860   44.4850 H   0  0  0  0  0  0  0  0  0  0  0  0
   40.2540   28.2780   42.2930 H   0  0  0  0  0  0  0  0  0  0  0  0
   37.1420   25.5190   39.6200 C   0  0  0  0  0  0  0  0  0  0  0  0
   38.3090   25.4460   39.1420 O   0  0  0  0  0  0  0  0  0  0  0  0
   36.6570   24.4430   40.5180 C   0  0  0  0  0  3  0  0  0  0  0  0
   37.5800   23.2940   40.8150 C   0  0  0  0  0  2  0  0  0  0  0  0
   37.3190   24.2670   41.8800 C   0  0  0  0  0  2  0  0  0  0  0  0
  1  2  1  0  0  0  0
  2 19  1  0  0  0  0
  2  3  2  0  0  0  0
  3  9  1  0  0  0  0
  4  3  1  0  0  0  0
  5  4  2  0  0  0  0
  6  1  2  0  0  0  0
  6  5  1  0  0  0  0
  7  1  1  0  0  0  0
  8  5  1  0  0  0  0
  9 10  1  0  0  0  0
 10 15  1  0  0  0  0
 10 11  2  0  0  0  0
 11 16  1  0  0  0  0
 12 11  1  0  0  0  0
 12 17  1  0  0  0  0
 13 12  2  0  0  0  0
 14  9  2  0  0  0  0
 14 13  1  0  0  0  0
 18 13  1  0  0  0  0
 19 21  1  0  0  0  0
 20 19  2  0  0  0  0
 21 22  1  0  0  0  0
 21 23  1  0  0  0  0
 22 23  1  0  0  0  0
M  END
>  <minimizedAffinity>
-4.31545019

$$$$

 OpenBabel03252507173D

 23 25  0  0  0  0  0  0  0  0999 V2000
   36.3560   27.6990   42.4100 C   0  0  0  0  0  0  0  0  0  0  0  0
   36.5180   28.6070   41.3340 C   0  0  0  0  0  0  0  0  0  0  0  0
   37.5200   29.5450   41.4370 C   0  0  0  0  0  0  0  0  0  0  0  0
   38.3030   29.5740   42.5320 N   0  0  0  0  0  0  0  0  0  0  0  0
   38.1320   28.6900   43.5630 C   0  0  0  0  0  0  0  0  0  0  0  0
   37.1620   27.7790   43.4690 N   0  0  0  0  0  0  0  0  0  0  0  0
   35.5780   26.9370   42.3820 H   0  0  0  0  0  0  0  0  0  0  0  0
   38.8430   28.8450   44.3740 H   0  0  0  0  0  0  0  0  0  0  0  0
   37.6990   30.4840   40.3370 C   0  0  0  0  0  0  0  0  0  0  0  0
   36.9490   31.6440   40.2880 C   0  0  0  0  0  0  0  0  0  0  0  0
   37.1400   32.5090   39.2370 C   0  0  0  0  0  0  0  0  0  0  0  0
   38.0590   32.2760   38.2100 C   0  0  0  0  0  0  0  0  0  0  0  0
   38.7760   31.1050   38.3140 C   0  0  0  0  0  0  0  0  0  0  0  0
   38.5830   30.2570   39.3480 N   0  0  0  0  0  0  0  0  0  0  0  0
   36.2280   31.8620   41.0620 H   0  0  0  0  0  0  0  0  0  0  0  0
   36.5500   33.4180   39.2020 H   0  0  0  0  0  0  0  0  0  0  0  0
   38.2090   32.9580   37.3820 H   0  0  0  0  0  0  0  0  0  0  0  0
   39.5010   30.8950   37.5240 H   0  0  0  0  0  0  0  0  0  0  0  0
   35.6530   28.5200   40.1990 C   0  0  0  0  0  0  0  0  0  0  0  0
   34.5550   29.1460   40.2520 O   0  0  0  0  0  0  0  0  0  0  0  0
   35.9850   27.7380   38.9830 C   0  0  0  0  0  3  0  0  0  0  0  0
   34.9420   27.6190   37.9070 C   0  0  0  0  0  2  0  0  0  0  0  0
   36.1090   28.4680   37.6500 C   0  0  0  0  0  2  0  0  0  0  0  0
  1  6  1  0  0  0  0
  2  3  1  0  0  0  0
  2  1  2  0  0  0  0
  3  4  2  0  0  0  0
  4  5  1  0  0  0  0
  5  8  1  0  0  0  0
  6  5  2  0  0  0  0
  7  1  1  0  0  0  0
  9  3  1  0  0  0  0
 10  9  1  0  0  0  0
 10 15  1  0  0  0  0
 11 10  2  0  0  0  0
 12 13  2  0  0  0  0
 12 11  1  0  0  0  0
 13 14  1  0  0  0  0
 14  9  2  0  0  0  0
 16 11  1  0  0  0  0
 17 12  1  0  0  0  0
 18 13  1  0  0  0  0
 19 20  2  0  0  0  0
 19  2  1  0  0  0  0
 21 19  1  0  0  0  0
 22 21  1  0  0  0  0
 23 22  1  0  0  0  0
 23 21  1  0  0  0  0
M  END
>  <minimizedAffinity>
-4.29453373

$$$$

 OpenBabel03252507173D

 23 25  0  0  0  0  0  0  0  0999 V2000
   36.0350   29.8140   38.2080 C   0  0  0  0  0  0  0  0  0  0  0  0
   36.6180   29.5460   39.4710 C   0  0  0  0  0  0  0  0  0  0  0  0
   36.6990   28.2320   39.8700 C   0  0  0  0  0  0  0  0  0  0  0  0
   36.2330   27.2560   39.0680 N   0  0  0  0  0  0  0  0  0  0  0  0
   35.6710   27.5330   37.8500 C   0  0  0  0  0  0  0  0  0  0  0  0
   35.5900   28.8050   37.4590 N   0  0  0  0  0  0  0  0  0  0  0  0
   35.9450   30.8360   37.8420 H   0  0  0  0  0  0  0  0  0  0  0  0
   35.3430   26.6360   37.3240 H   0  0  0  0  0  0  0  0  0  0  0  0
   37.2970   27.9420   41.1670 C   0  0  0  0  0  0  0  0  0  0  0  0
   36.5170   27.9510   42.3080 C   0  0  0  0  0  0  0  0  0  0  0  0
   37.1110   27.6750   43.5160 C   0  0  0  0  0  0  0  0  0  0  0  0
   38.4700   27.3830   43.6520 C   0  0  0  0  0  0  0  0  0  0  0  0
   39.1960   27.3900   42.4810 C   0  0  0  0  0  0  0  0  0  0  0  0
   38.6080   27.6630   41.2960 N   0  0  0  0  0  0  0  0  0  0  0  0
   35.4610   28.1710   42.2460 H   0  0  0  0  0  0  0  0  0  0  0  0
   36.4960   27.6820   44.4080 H   0  0  0  0  0  0  0  0  0  0  0  0
   38.9390   27.1660   44.6040 H   0  0  0  0  0  0  0  0  0  0  0  0
   40.2630   27.1670   42.5570 H   0  0  0  0  0  0  0  0  0  0  0  0
   37.0950   30.6290   40.2730 C   0  0  0  0  0  0  0  0  0  0  0  0
   36.2650   31.1990   41.0380 O   0  0  0  0  0  0  0  0  0  0  0  0
   38.5000   31.1040   40.2440 C   0  0  0  0  0  3  0  0  0  0  0  0
   38.8340   32.3840   40.9580 C   0  0  0  0  0  2  0  0  0  0  0  0
   39.2970   31.1230   41.5430 C   0  0  0  0  0  2  0  0  0  0  0  0
  1  2  1  0  0  0  0
  2  3  2  0  0  0  0
  2 19  1  0  0  0  0
  3  9  1  0  0  0  0
  4  3  1  0  0  0  0
  5  4  2  0  0  0  0
  6  5  1  0  0  0  0
  6  1  2  0  0  0  0
  7  1  1  0  0  0  0
  8  5  1  0  0  0  0
  9 14  2  0  0  0  0
  9 10  1  0  0  0  0
 10 11  2  0  0  0  0
 11 12  1  0  0  0  0
 11 16  1  0  0  0  0
 12 17  1  0  0  0  0
 13 18  1  0  0  0  0
 13 12  2  0  0  0  0
 14 13  1  0  0  0  0
 15 10  1  0  0  0  0
 19 20  2  0  0  0  0
 21 19  1  0  0  0  0
 21 22  1  0  0  0  0
 21 23  1  0  0  0  0
 22 23  1  0  0  0  0
M  END
>  <minimizedAffinity>
-4.2773242

$$$$

 OpenBabel03252507173D

 23 25  0  0  0  0  0  0  0  0999 V2000
   36.6030   29.7270   37.9210 C   0  0  0  0  0  0  0  0  0  0  0  0
   37.1530   29.4460   39.1960 C   0  0  0  0  0  0  0  0  0  0  0  0
   36.8040   28.2560   39.7930 C   0  0  0  0  0  0  0  0  0  0  0  0
   35.9680   27.4090   39.1640 N   0  0  0  0  0  0  0  0  0  0  0  0
   35.4450   27.6960   37.9320 C   0  0  0  0  0  0  0  0  0  0  0  0
   35.7800   28.8480   37.3490 N   0  0  0  0  0  0  0  0  0  0  0  0
   36.8450   30.6540   37.4030 H   0  0  0  0  0  0  0  0  0  0  0  0
   34.7870   26.9110   37.5600 H   0  0  0  0  0  0  0  0  0  0  0  0
   37.3630   27.9540   41.1050 C   0  0  0  0  0  0  0  0  0  0  0  0
   36.6650   28.2890   42.2490 C   0  0  0  0  0  0  0  0  0  0  0  0
   37.2200   27.9920   43.4710 C   0  0  0  0  0  0  0  0  0  0  0  0
   38.4600   27.3650   43.6170 C   0  0  0  0  0  0  0  0  0  0  0  0
   39.1080   27.0560   42.4420 C   0  0  0  0  0  0  0  0  0  0  0  0
   38.5590   27.3510   41.2430 N   0  0  0  0  0  0  0  0  0  0  0  0
   35.7020   28.7750   42.1800 H   0  0  0  0  0  0  0  0  0  0  0  0
   36.6700   28.2560   44.3670 H   0  0  0  0  0  0  0  0  0  0  0  0
   38.8970   27.1310   44.5800 H   0  0  0  0  0  0  0  0  0  0  0  0
   40.0810   26.5660   42.5250 H   0  0  0  0  0  0  0  0  0  0  0  0
   38.0360   30.3890   39.8080 C   0  0  0  0  0  0  0  0  0  0  0  0
   39.2790   30.1960   39.6780 O   0  0  0  0  0  0  0  0  0  0  0  0
   37.5610   31.5650   40.5770 C   0  0  0  0  0  3  0  0  0  0  0  0
   38.4840   32.7440   40.7170 C   0  0  0  0  0  2  0  0  0  0  0  0
   37.3180   32.8770   39.8390 C   0  0  0  0  0  2  0  0  0  0  0  0
  1  2  1  0  0  0  0
  2  3  2  0  0  0  0
  2 19  1  0  0  0  0
  3  9  1  0  0  0  0
  4  3  1  0  0  0  0
  5  4  2  0  0  0  0
  6  1  2  0  0  0  0
  6  5  1  0  0  0  0
  7  1  1  0  0  0  0
  8  5  1  0  0  0  0
  9 14  2  0  0  0  0
  9 10  1  0  0  0  0
 10 11  2  0  0  0  0
 11 12  1  0  0  0  0
 11 16  1  0  0  0  0
 12 17  1  0  0  0  0
 13 18  1  0  0  0  0
 13 12  2  0  0  0  0
 14 13  1  0  0  0  0
 15 10  1  0  0  0  0
 19 21  1  0  0  0  0
 20 19  2  0  0  0  0
 21 22  1  0  0  0  0
 23 21  1  0  0  0  0
 23 22  1  0  0  0  0
M  END
>  <minimizedAffinity>
-4.23893642

$$$$

 OpenBabel03252507173D

 23 25  0  0  0  0  0  0  0  0999 V2000
   39.3340   30.5610   37.9260 C   0  0  0  0  0  0  0  0  0  0  0  0
   38.6060   30.1450   39.0680 C   0  0  0  0  0  0  0  0  0  0  0  0
   39.2080   29.2410   39.9140 C   0  0  0  0  0  0  0  0  0  0  0  0
   40.4460   28.7880   39.6410 N   0  0  0  0  0  0  0  0  0  0  0  0
   41.1350   29.2000   38.5320 C   0  0  0  0  0  0  0  0  0  0  0  0
   40.5560   30.0750   37.7090 N   0  0  0  0  0  0  0  0  0  0  0  0
   38.9050   31.2740   37.2230 H   0  0  0  0  0  0  0  0  0  0  0  0
   42.1210   28.7420   38.4540 H   0  0  0  0  0  0  0  0  0  0  0  0
   38.4700   28.8050   41.0930 C   0  0  0  0  0  0  0  0  0  0  0  0
   38.6910   29.4140   42.3130 C   0  0  0  0  0  0  0  0  0  0  0  0
   37.9800   28.9790   43.4060 C   0  0  0  0  0  0  0  0  0  0  0  0
   37.0410   27.9470   43.3470 C   0  0  0  0  0  0  0  0  0  0  0  0
   36.8660   27.3770   42.1050 C   0  0  0  0  0  0  0  0  0  0  0  0
   37.5670   27.8080   41.0340 N   0  0  0  0  0  0  0  0  0  0  0  0
   39.4080   30.2180   42.4010 H   0  0  0  0  0  0  0  0  0  0  0  0
   38.1550   29.4600   44.3610 H   0  0  0  0  0  0  0  0  0  0  0  0
   36.4810   27.6030   44.2080 H   0  0  0  0  0  0  0  0  0  0  0  0
   36.1380   26.5660   42.0290 H   0  0  0  0  0  0  0  0  0  0  0  0
   37.2950   30.6670   39.3000 C   0  0  0  0  0  0  0  0  0  0  0  0
   36.3220   30.0610   38.7650 O   0  0  0  0  0  0  0  0  0  0  0  0
   37.0350   31.8690   40.1280 C   0  0  0  0  0  3  0  0  0  0  0  0
   38.1990   32.7490   40.4910 C   0  0  0  0  0  2  0  0  0  0  0  0
   37.2340   33.2470   39.5070 C   0  0  0  0  0  2  0  0  0  0  0  0
  1  2  1  0  0  0  0
  2 19  1  0  0  0  0
  2  3  2  0  0  0  0
  3  9  1  0  0  0  0
  4  3  1  0  0  0  0
  5  4  2  0  0  0  0
  6  1  2  0  0  0  0
  6  5  1  0  0  0  0
  7  1  1  0  0  0  0
  8  5  1  0  0  0  0
  9 10  1  0  0  0  0
 10 15  1  0  0  0  0
 10 11  2  0  0  0  0
 11 16  1  0  0  0  0
 12 11  1  0  0  0  0
 12 17  1  0  0  0  0
 13 12  2  0  0  0  0
 14  9  2  0  0  0  0
 14 13  1  0  0  0  0
 18 13  1  0  0  0  0
 19 21  1  0  0  0  0
 20 19  2  0  0  0  0
 21 22  1  0  0  0  0
 23 21  1  0  0  0  0
 23 22  1  0  0  0  0
M  END
>  <minimizedAffinity>
-4.21864367

$$$$

 OpenBabel03252507173D

 23 25  0  0  0  0  0  0  0  0999 V2000
   37.6500   28.9700   42.5620 C   0  0  0  0  0  0  0  0  0  0  0  0
   37.0500   29.2190   41.3030 C   0  0  0  0  0  0  0  0  0  0  0  0
   36.6460   28.1310   40.5630 C   0  0  0  0  0  0  0  0  0  0  0  0
   36.8270   26.8870   41.0450 N   0  0  0  0  0  0  0  0  0  0  0  0
   37.4100   26.6640   42.2630 C   0  0  0  0  0  0  0  0  0  0  0  0
   37.8040   27.7150   42.9840 N   0  0  0  0  0  0  0  0  0  0  0  0
   37.9900   29.7940   43.1890 H   0  0  0  0  0  0  0  0  0  0  0  0
   37.4850   25.6050   42.5080 H   0  0  0  0  0  0  0  0  0  0  0  0
   36.0260   28.3720   39.2670 C   0  0  0  0  0  0  0  0  0  0  0  0
   34.6830   28.6910   39.1890 C   0  0  0  0  0  0  0  0  0  0  0  0
   34.1280   28.9110   37.9510 C   0  0  0  0  0  0  0  0  0  0  0  0
   34.8540   28.8300   36.7610 C   0  0  0  0  0  0  0  0  0  0  0  0
   36.1860   28.5080   36.9020 C   0  0  0  0  0  0  0  0  0  0  0  0
   36.7270   28.2910   38.1210 N   0  0  0  0  0  0  0  0  0  0  0  0
   34.0860   28.7650   40.0870 H   0  0  0  0  0  0  0  0  0  0  0  0
   33.0750   29.1620   37.8950 H   0  0  0  0  0  0  0  0  0  0  0  0
   34.4160   29.0040   35.7850 H   0  0  0  0  0  0  0  0  0  0  0  0
   36.7790   28.4360   35.9870 H   0  0  0  0  0  0  0  0  0  0  0  0
   36.8860   30.5650   40.8510 C   0  0  0  0  0  0  0  0  0  0  0  0
   35.8810   31.2060   41.2740 O   0  0  0  0  0  0  0  0  0  0  0  0
   37.8310   31.2300   39.9220 C   0  0  0  0  0  3  0  0  0  0  0  0
   37.2780   31.8590   38.6730 C   0  0  0  0  0  2  0  0  0  0  0  0
   37.7480   32.7420   39.7440 C   0  0  0  0  0  2  0  0  0  0  0  0
  1  6  1  0  0  0  0
  1  7  1  0  0  0  0
  2  1  2  0  0  0  0
  3  4  2  0  0  0  0
  3  2  1  0  0  0  0
  4  5  1  0  0  0  0
  5  8  1  0  0  0  0
  5  6  2  0  0  0  0
  9  3  1  0  0  0  0
 10  9  1  0  0  0  0
 10 15  1  0  0  0  0
 11 10  2  0  0  0  0
 12 13  2  0  0  0  0
 12 11  1  0  0  0  0
 13 14  1  0  0  0  0
 14  9  2  0  0  0  0
 16 11  1  0  0  0  0
 17 12  1  0  0  0  0
 18 13  1  0  0  0  0
 19 20  2  0  0  0  0
 19  2  1  0  0  0  0
 21 19  1  0  0  0  0
 22 23  1  0  0  0  0
 22 21  1  0  0  0  0
 23 21  1  0  0  0  0
M  END
>  <minimizedAffinity>
-4.16465902

$$$$
