
 OpenBabel03252508433D

 25 27  0  0  0  0  0  0  0  0999 V2000
   45.9640   33.9640   41.6820 C   0  0  0  0  0  0  0  0  0  0  0  0
   47.0600   33.9130   40.8490 C   0  0  0  0  0  0  0  0  0  0  0  0
   48.3290   33.9550   41.3720 C   0  0  0  0  0  0  0  0  0  0  0  0
   48.4750   34.0490   42.7450 C   0  0  0  0  0  0  0  0  0  0  0  0
   47.4180   34.1030   43.6030 C   0  0  0  0  0  0  0  0  0  0  0  0
   46.1410   34.0570   43.0240 C   0  0  0  0  0  0  0  0  0  0  0  0
   49.2100   33.9170   40.7280 H   0  0  0  0  0  0  0  0  0  0  0  0
   49.4920   34.0780   43.1130 H   0  0  0  0  0  0  0  0  0  0  0  0
   47.5610   34.1860   44.6750 H   0  0  0  0  0  0  0  0  0  0  0  0
   45.2980   34.0960   43.6970 H   0  0  0  0  0  0  0  0  0  0  0  0
   42.7400   32.8460   40.0530 C   0  0  0  0  0  0  0  0  0  0  0  0
   44.0070   32.7590   40.6590 C   0  0  0  0  0  0  0  0  0  0  0  0
   44.6530   33.9180   41.0480 C   0  0  0  0  0  0  0  0  0  0  0  0
   43.9930   35.0600   40.8060 N   0  0  0  0  0  0  0  0  0  0  0  0
   42.7840   35.1620   40.2300 C   0  0  0  0  0  0  0  0  0  0  0  0
   42.1550   34.0380   39.8500 N   0  0  0  0  0  0  0  0  0  0  0  0
   42.2280   31.9300   39.7400 H   0  0  0  0  0  0  0  0  0  0  0  0
   44.4910   31.8260   40.8340 H   0  0  0  0  0  0  0  0  0  0  0  0
   42.4320   36.1810   40.1310 H   0  0  0  0  0  0  0  0  0  0  0  0
   46.8690   33.8180   39.3620 C   0  0  0  0  0  0  0  0  0  0  0  0
   46.0570   34.4670   39.0040 H   0  0  0  0  0  0  0  0  0  0  0  0
   46.5890   32.7780   39.1370 H   0  0  0  0  0  0  0  0  0  0  0  0
   48.2030   34.0850   38.7130 C   0  0  0  0  0  3  0  0  0  0  0  0
   48.7630   33.1460   37.7260 C   0  0  0  0  0  2  0  0  0  0  0  0
   48.2370   34.4940   37.2920 C   0  0  0  0  0  2  0  0  0  0  0  0
  1  6  1  0  0  0  0
  2  3  1  0  0  0  0
  2  1  2  0  0  0  0
  3  4  2  0  0  0  0
  4  8  1  0  0  0  0
  4  5  1  0  0  0  0
  5  9  1  0  0  0  0
  6  5  2  0  0  0  0
  6 10  1  0  0  0  0
  7  3  1  0  0  0  0
 11 12  1  0  0  0  0
 12 18  1  0  0  0  0
 12 13  2  0  0  0  0
 13  1  1  0  0  0  0
 14 13  1  0  0  0  0
 15 14  2  0  0  0  0
 16 11  2  0  0  0  0
 16 15  1  0  0  0  0
 17 11  1  0  0  0  0
 19 15  1  0  0  0  0
 20  2  1  0  0  0  0
 21 20  1  0  0  0  0
 22 20  1  0  0  0  0
 23 20  1  0  0  0  0
 24 23  1  0  0  0  0
 25 24  1  0  0  0  0
 25 23  1  0  0  0  0
M  END
>  <minimizedAffinity>
-3.91978979

>  <minimizedRMSD>
4.08726215

$$$$
