
 OpenBabel03252505133D

 38 41  0  0  1  0  0  0  0  0999 V2000
   37.4160   32.5910   39.9370 C   0  0  0  0  0  0  0  0  0  0  0  0
   37.0470   31.4310   40.6560 C   0  0  0  0  0  0  0  0  0  0  0  0
   38.0320   30.4330   40.8390 C   0  0  0  0  0  0  0  0  0  0  0  0
   39.2880   30.6100   40.3280 N   0  0  0  0  0  0  0  0  0  0  0  0
   39.5880   31.7330   39.6500 C   0  0  0  0  0  0  0  0  0  0  0  0
   38.6620   32.7300   39.4490 N   0  0  0  0  0  0  0  0  0  0  0  0
   36.7110   33.3800   39.7660 H   0  0  0  0  0  0  0  0  0  0  0  0
   36.0560   31.3180   41.0450 H   0  0  0  0  0  0  0  0  0  0  0  0
   40.9630   31.9020   39.0990 C   0  0  2  0  0  0  0  0  0  0  0  0
   41.7830   32.4420   40.2510 C   0  0  0  0  0  0  0  0  0  0  0  0
   42.1190   33.8720   40.1960 C   0  0  0  0  0  0  0  0  0  0  0  0
   42.8370   34.0570   38.8620 C   0  0  0  0  0  0  0  0  0  0  0  0
   41.9310   33.8340   37.7230 C   0  0  0  0  0  0  0  0  0  0  0  0
   40.9850   32.7030   37.9090 C   0  0  0  0  0  0  0  0  0  0  0  0
   41.3020   30.8660   38.8670 H   0  0  0  0  0  0  0  0  0  0  0  0
   42.7360   31.8730   40.2770 H   0  0  0  0  0  0  0  0  0  0  0  0
   41.3170   32.2390   41.2440 H   0  0  0  0  0  0  0  0  0  0  0  0
   42.8950   34.0650   40.9630 H   0  0  0  0  0  0  0  0  0  0  0  0
   41.2950   34.5830   40.3310 H   0  0  0  0  0  0  0  0  0  0  0  0
   43.6910   33.3780   38.8380 H   0  0  0  0  0  0  0  0  0  0  0  0
   43.1020   35.1220   38.8260 H   0  0  0  0  0  0  0  0  0  0  0  0
   41.8230   34.3420   36.7740 H   0  0  0  0  0  0  0  0  0  0  0  0
   40.0410   32.3790   36.8760 N   0  0  0  0  0  0  0  0  0  0  0  0
   40.3350   31.6470   36.2150 H   0  0  0  0  0  0  0  0  0  0  0  0
   39.0890   32.7520   36.6610 H   0  0  0  0  0  0  0  0  0  0  0  0
   37.6810   29.2290   41.5790 C   0  0  0  0  0  0  0  0  0  0  0  0
   37.6200   29.2860   42.9240 C   0  0  0  0  0  0  0  0  0  0  0  0
   37.2750   28.0870   43.5780 C   0  0  0  0  0  0  0  0  0  0  0  0
   37.0350   26.9850   42.8020 C   0  0  0  0  0  0  0  0  0  0  0  0
   37.0960   26.9300   41.4500 C   0  0  0  0  0  0  0  0  0  0  0  0
   37.4360   28.1160   40.8530 N   0  0  0  0  0  0  0  0  0  0  0  0
   37.8210   30.1820   43.4700 H   0  0  0  0  0  0  0  0  0  0  0  0
   37.2100   28.0670   44.6470 H   0  0  0  0  0  0  0  0  0  0  0  0
   36.7730   26.0820   43.3380 H   0  0  0  0  0  0  0  0  0  0  0  0
   36.8410   25.7810   40.6960 O   0  0  0  0  0  0  0  0  0  0  0  0
   37.8470   24.8040   40.6260 C   0  0  0  0  0  3  0  0  0  0  0  0
   37.6660   23.6760   39.5690 C   0  0  0  0  0  2  0  0  0  0  0  0
   37.5790   23.4210   41.0590 C   0  0  0  0  0  2  0  0  0  0  0  0
  1  2  1  0  0  0  0
  2  3  2  0  0  0  0
  2  8  1  0  0  0  0
  3 26  1  0  0  0  0
  4  3  1  0  0  0  0
  5  4  2  0  0  0  0
  6  5  1  0  0  0  0
  6  1  2  0  0  0  0
  7  1  1  0  0  0  0
  9 15  1  6  0  0  0
  9  5  1  0  0  0  0
  9 10  1  0  0  0  0
 10 16  1  0  0  0  0
 10 17  1  0  0  0  0
 11 10  1  0  0  0  0
 11 19  1  0  0  0  0
 11 18  1  0  0  0  0
 12 11  1  0  0  0  0
 13 14  2  0  0  0  0
 13 12  1  0  0  0  0
 14  9  1  0  0  0  0
 20 12  1  0  0  0  0
 21 12  1  0  0  0  0
 22 13  1  0  0  0  0
 23 14  1  0  0  0  0
 24 23  1  0  0  0  0
 25 23  1  0  0  0  0
 26 27  1  0  0  0  0
 27 32  1  0  0  0  0
 27 28  2  0  0  0  0
 28 33  1  0  0  0  0
 29 34  1  0  0  0  0
 29 28  1  0  0  0  0
 30 29  2  0  0  0  0
 31 30  1  0  0  0  0
 31 26  2  0  0  0  0
 35 30  1  0  0  0  0
 36 35  1  0  0  0  0
 36 38  1  0  0  0  0
 37 36  1  0  0  0  0
 37 38  1  0  0  0  0
M  END
>  <minimizedAffinity>
-6.04881001

$$$$

 OpenBabel03252505133D

 38 41  0  0  1  0  0  0  0  0999 V2000
   38.1310   32.8190   40.1670 C   0  0  0  0  0  0  0  0  0  0  0  0
   37.3400   32.1080   39.2350 C   0  0  0  0  0  0  0  0  0  0  0  0
   37.1440   30.7260   39.4620 C   0  0  0  0  0  0  0  0  0  0  0  0
   37.7110   30.1250   40.5520 N   0  0  0  0  0  0  0  0  0  0  0  0
   38.4560   30.8470   41.4090 C   0  0  0  0  0  0  0  0  0  0  0  0
   38.6720   32.1930   41.2280 N   0  0  0  0  0  0  0  0  0  0  0  0
   38.3140   33.8680   40.0460 H   0  0  0  0  0  0  0  0  0  0  0  0
   36.9080   32.6040   38.3900 H   0  0  0  0  0  0  0  0  0  0  0  0
   39.0680   30.1690   42.5880 C   0  0  2  0  0  0  0  0  0  0  0  0
   40.4780   29.8300   42.1560 C   0  0  0  0  0  0  0  0  0  0  0  0
   40.7380   28.4200   41.8330 C   0  0  0  0  0  0  0  0  0  0  0  0
   40.3350   27.6480   43.0860 C   0  0  0  0  0  0  0  0  0  0  0  0
   38.8830   27.7230   43.3260 C   0  0  0  0  0  0  0  0  0  0  0  0
   38.2890   29.0560   43.0490 C   0  0  0  0  0  0  0  0  0  0  0  0
   39.1100   30.9570   43.3750 H   0  0  0  0  0  0  0  0  0  0  0  0
   41.1580   30.1160   42.9860 H   0  0  0  0  0  0  0  0  0  0  0  0
   40.8260   30.4470   41.2940 H   0  0  0  0  0  0  0  0  0  0  0  0
   41.8350   28.2870   41.7610 H   0  0  0  0  0  0  0  0  0  0  0  0
   40.2680   28.0210   40.9260 H   0  0  0  0  0  0  0  0  0  0  0  0
   40.9040   28.0440   43.9280 H   0  0  0  0  0  0  0  0  0  0  0  0
   40.5410   26.5950   42.8520 H   0  0  0  0  0  0  0  0  0  0  0  0
   38.1670   26.9870   43.6660 H   0  0  0  0  0  0  0  0  0  0  0  0
   36.8800   29.2680   43.2370 N   0  0  0  0  0  0  0  0  0  0  0  0
   36.6030   29.6530   44.1490 H   0  0  0  0  0  0  0  0  0  0  0  0
   36.0620   29.1010   42.6100 H   0  0  0  0  0  0  0  0  0  0  0  0
   36.3320   29.9690   38.5210 C   0  0  0  0  0  0  0  0  0  0  0  0
   35.2100   29.3680   38.9660 C   0  0  0  0  0  0  0  0  0  0  0  0
   34.4700   28.6530   38.0040 C   0  0  0  0  0  0  0  0  0  0  0  0
   34.9450   28.6320   36.7210 C   0  0  0  0  0  0  0  0  0  0  0  0
   36.0720   29.2380   36.2760 C   0  0  0  0  0  0  0  0  0  0  0  0
   36.7630   29.9210   37.2420 N   0  0  0  0  0  0  0  0  0  0  0  0
   34.8940   29.4230   39.9850 H   0  0  0  0  0  0  0  0  0  0  0  0
   33.5680   28.1520   38.2950 H   0  0  0  0  0  0  0  0  0  0  0  0
   34.3510   28.0730   36.0090 H   0  0  0  0  0  0  0  0  0  0  0  0
   36.5210   29.1910   34.9530 O   0  0  0  0  0  0  0  0  0  0  0  0
   35.8790   30.0130   34.0120 C   0  0  0  0  0  3  0  0  0  0  0  0
   36.6510   30.3180   32.6960 C   0  0  0  0  0  2  0  0  0  0  0  0
   36.3780   31.3740   33.7450 C   0  0  0  0  0  2  0  0  0  0  0  0
  1  6  1  0  0  0  0
  2  3  1  0  0  0  0
  2  1  2  0  0  0  0
  3  4  2  0  0  0  0
  4  5  1  0  0  0  0
  5  9  1  0  0  0  0
  6  5  2  0  0  0  0
  7  1  1  0  0  0  0
  8  2  1  0  0  0  0
  9 14  1  0  0  0  0
  9 15  1  1  0  0  0
 10  9  1  0  0  0  0
 10 16  1  0  0  0  0
 11 10  1  0  0  0  0
 11 12  1  0  0  0  0
 12 13  1  0  0  0  0
 12 20  1  0  0  0  0
 13 22  1  0  0  0  0
 14 23  1  0  0  0  0
 14 13  2  0  0  0  0
 17 10  1  0  0  0  0
 18 11  1  0  0  0  0
 19 11  1  0  0  0  0
 21 12  1  0  0  0  0
 23 24  1  0  0  0  0
 25 23  1  0  0  0  0
 26 27  1  0  0  0  0
 26  3  1  0  0  0  0
 27 32  1  0  0  0  0
 28 33  1  0  0  0  0
 28 27  2  0  0  0  0
 29 28  1  0  0  0  0
 30 29  2  0  0  0  0
 30 31  1  0  0  0  0
 31 26  2  0  0  0  0
 34 29  1  0  0  0  0
 35 30  1  0  0  0  0
 36 35  1  0  0  0  0
 37 38  1  0  0  0  0
 37 36  1  0  0  0  0
 38 36  1  0  0  0  0
M  END
>  <minimizedAffinity>
-5.9774828

$$$$

 OpenBabel03252505133D

 38 41  0  0  1  0  0  0  0  0999 V2000
   33.1550   26.9470   36.0500 C   0  0  0  0  0  0  0  0  0  0  0  0
   34.2700   27.4360   36.7680 C   0  0  0  0  0  0  0  0  0  0  0  0
   34.1290   28.6780   37.4310 C   0  0  0  0  0  0  0  0  0  0  0  0
   32.9450   29.3590   37.3610 N   0  0  0  0  0  0  0  0  0  0  0  0
   31.9140   28.8490   36.6630 C   0  0  0  0  0  0  0  0  0  0  0  0
   32.0060   27.6460   36.0040 N   0  0  0  0  0  0  0  0  0  0  0  0
   33.2050   26.0130   35.5270 H   0  0  0  0  0  0  0  0  0  0  0  0
   35.1860   26.8820   36.8060 H   0  0  0  0  0  0  0  0  0  0  0  0
   30.6340   29.6120   36.5980 C   0  0  2  0  0  0  0  0  0  0  0  0
   30.6820   30.3440   35.2740 C   0  0  0  0  0  0  0  0  0  0  0  0
   30.9650   31.7850   35.3380 C   0  0  0  0  0  0  0  0  0  0  0  0
   29.8870   32.3570   36.2560 C   0  0  0  0  0  0  0  0  0  0  0  0
   30.0440   31.8770   37.6400 C   0  0  0  0  0  0  0  0  0  0  0  0
   30.4310   30.4460   37.7470 C   0  0  0  0  0  0  0  0  0  0  0  0
   29.8420   28.8290   36.5500 H   0  0  0  0  0  0  0  0  0  0  0  0
   29.6930   30.2160   34.7870 H   0  0  0  0  0  0  0  0  0  0  0  0
   31.4010   29.8870   34.5540 H   0  0  0  0  0  0  0  0  0  0  0  0
   30.7430   32.2160   34.3420 H   0  0  0  0  0  0  0  0  0  0  0  0
   31.9750   32.0820   35.6420 H   0  0  0  0  0  0  0  0  0  0  0  0
   28.9130   32.0930   35.8440 H   0  0  0  0  0  0  0  0  0  0  0  0
   30.0880   33.4360   36.2940 H   0  0  0  0  0  0  0  0  0  0  0  0
   29.9290   32.3710   38.5950 H   0  0  0  0  0  0  0  0  0  0  0  0
   30.6210   29.8490   39.0400 N   0  0  0  0  0  0  0  0  0  0  0  0
   29.8060   29.3590   39.4310 H   0  0  0  0  0  0  0  0  0  0  0  0
   31.4500   29.8150   39.6750 H   0  0  0  0  0  0  0  0  0  0  0  0
   35.2590   29.2040   38.1820 C   0  0  0  0  0  0  0  0  0  0  0  0
   36.2300   29.8670   37.5210 C   0  0  0  0  0  0  0  0  0  0  0  0
   37.2930   30.3500   38.3080 C   0  0  0  0  0  0  0  0  0  0  0  0
   37.2500   30.1100   39.6550 C   0  0  0  0  0  0  0  0  0  0  0  0
   36.2730   29.4450   40.3170 C   0  0  0  0  0  0  0  0  0  0  0  0
   35.2580   28.9900   39.5160 N   0  0  0  0  0  0  0  0  0  0  0  0
   36.2030   30.0190   36.4650 H   0  0  0  0  0  0  0  0  0  0  0  0
   38.0960   30.8850   37.8420 H   0  0  0  0  0  0  0  0  0  0  0  0
   38.0830   30.4960   40.2280 H   0  0  0  0  0  0  0  0  0  0  0  0
   36.2680   29.2230   41.6980 O   0  0  0  0  0  0  0  0  0  0  0  0
   37.0780   28.1930   42.2010 C   0  0  0  0  0  3  0  0  0  0  0  0
   36.5130   27.3660   43.3920 C   0  0  0  0  0  2  0  0  0  0  0  0
   37.6900   28.3070   43.5370 C   0  0  0  0  0  2  0  0  0  0  0  0
  1  2  1  0  0  0  0
  2  8  1  0  0  0  0
  2  3  2  0  0  0  0
  3 26  1  0  0  0  0
  4  3  1  0  0  0  0
  5  4  2  0  0  0  0
  6  1  2  0  0  0  0
  6  5  1  0  0  0  0
  7  1  1  0  0  0  0
  9 15  1  6  0  0  0
  9  5  1  0  0  0  0
  9 14  1  0  0  0  0
 10 11  1  0  0  0  0
 10  9  1  0  0  0  0
 11 19  1  0  0  0  0
 11 12  1  0  0  0  0
 12 21  1  0  0  0  0
 12 13  1  0  0  0  0
 13 14  2  0  0  0  0
 13 22  1  0  0  0  0
 14 23  1  0  0  0  0
 16 10  1  0  0  0  0
 17 10  1  0  0  0  0
 18 11  1  0  0  0  0
 20 12  1  0  0  0  0
 23 24  1  0  0  0  0
 23 25  1  0  0  0  0
 26 31  1  0  0  0  0
 27 26  2  0  0  0  0
 27 28  1  0  0  0  0
 28 29  2  0  0  0  0
 29 34  1  0  0  0  0
 29 30  1  0  0  0  0
 30 35  1  0  0  0  0
 31 30  2  0  0  0  0
 32 27  1  0  0  0  0
 33 28  1  0  0  0  0
 35 36  1  0  0  0  0
 36 37  1  0  0  0  0
 36 38  1  0  0  0  0
 37 38  1  0  0  0  0
M  END
>  <minimizedAffinity>
-5.86175108

$$$$

 OpenBabel03252505133D

 38 41  0  0  1  0  0  0  0  0999 V2000
   36.7980   29.3140   37.7470 C   0  0  0  0  0  0  0  0  0  0  0  0
   36.9090   28.6020   38.9630 C   0  0  0  0  0  0  0  0  0  0  0  0
   37.5880   29.2310   40.0320 C   0  0  0  0  0  0  0  0  0  0  0  0
   38.1110   30.4850   39.8660 N   0  0  0  0  0  0  0  0  0  0  0  0
   37.9790   31.1190   38.6870 C   0  0  0  0  0  0  0  0  0  0  0  0
   37.3260   30.5460   37.6210 N   0  0  0  0  0  0  0  0  0  0  0  0
   36.2950   28.8860   36.9030 H   0  0  0  0  0  0  0  0  0  0  0  0
   36.4900   27.6220   39.0660 H   0  0  0  0  0  0  0  0  0  0  0  0
   38.5610   32.4840   38.5280 C   0  0  2  0  0  0  0  0  0  0  0  0
   40.0290   32.2520   38.2450 C   0  0  0  0  0  0  0  0  0  0  0  0
   40.9560   32.5230   39.3530 C   0  0  0  0  0  0  0  0  0  0  0  0
   40.6830   33.9730   39.7490 C   0  0  0  0  0  0  0  0  0  0  0  0
   39.3380   34.1320   40.3280 C   0  0  0  0  0  0  0  0  0  0  0  0
   38.2840   33.3340   39.6500 C   0  0  0  0  0  0  0  0  0  0  0  0
   38.0750   32.8910   37.6120 H   0  0  0  0  0  0  0  0  0  0  0  0
   40.3140   32.9120   37.3990 H   0  0  0  0  0  0  0  0  0  0  0  0
   40.2390   31.2220   37.8690 H   0  0  0  0  0  0  0  0  0  0  0  0
   41.9830   32.5330   38.9390 H   0  0  0  0  0  0  0  0  0  0  0  0
   40.9210   31.8410   40.2110 H   0  0  0  0  0  0  0  0  0  0  0  0
   40.8190   34.5980   38.8650 H   0  0  0  0  0  0  0  0  0  0  0  0
   41.3840   34.1820   40.5670 H   0  0  0  0  0  0  0  0  0  0  0  0
   38.9730   34.7220   41.1580 H   0  0  0  0  0  0  0  0  0  0  0  0
   36.9270   33.3930   40.1160 N   0  0  0  0  0  0  0  0  0  0  0  0
   36.3180   34.0700   39.6370 H   0  0  0  0  0  0  0  0  0  0  0  0
   36.4260   32.8670   40.8670 H   0  0  0  0  0  0  0  0  0  0  0  0
   37.7130   28.5240   41.2970 C   0  0  0  0  0  0  0  0  0  0  0  0
   37.3870   29.1650   42.4380 C   0  0  0  0  0  0  0  0  0  0  0  0
   37.5300   28.4230   43.6260 C   0  0  0  0  0  0  0  0  0  0  0  0
   37.9800   27.1340   43.5220 C   0  0  0  0  0  0  0  0  0  0  0  0
   38.3070   26.4920   42.3760 C   0  0  0  0  0  0  0  0  0  0  0  0
   38.1550   27.2480   41.2430 N   0  0  0  0  0  0  0  0  0  0  0  0
   37.0410   30.1750   42.4490 H   0  0  0  0  0  0  0  0  0  0  0  0
   37.2870   28.8760   44.5660 H   0  0  0  0  0  0  0  0  0  0  0  0
   38.0780   26.5950   44.4550 H   0  0  0  0  0  0  0  0  0  0  0  0
   38.7620   25.1710   42.3150 O   0  0  0  0  0  0  0  0  0  0  0  0
   37.8040   24.1490   42.2340 C   0  0  0  0  0  3  0  0  0  0  0  0
   37.8330   23.2510   40.9640 C   0  0  0  0  0  2  0  0  0  0  0  0
   36.7100   24.2250   41.2490 C   0  0  0  0  0  2  0  0  0  0  0  0
  1  2  1  0  0  0  0
  2  8  1  0  0  0  0
  2  3  2  0  0  0  0
  3 26  1  0  0  0  0
  4  3  1  0  0  0  0
  5  4  2  0  0  0  0
  6  1  2  0  0  0  0
  6  5  1  0  0  0  0
  7  1  1  0  0  0  0
  9 15  1  6  0  0  0
  9  5  1  0  0  0  0
  9 14  1  0  0  0  0
 10  9  1  0  0  0  0
 10 11  1  0  0  0  0
 11 12  1  0  0  0  0
 11 19  1  0  0  0  0
 12 13  1  0  0  0  0
 12 21  1  0  0  0  0
 13 22  1  0  0  0  0
 14 23  1  0  0  0  0
 14 13  2  0  0  0  0
 16 10  1  0  0  0  0
 17 10  1  0  0  0  0
 18 11  1  0  0  0  0
 20 12  1  0  0  0  0
 23 25  1  0  0  0  0
 24 23  1  0  0  0  0
 26 27  1  0  0  0  0
 27 32  1  0  0  0  0
 27 28  2  0  0  0  0
 28 33  1  0  0  0  0
 29 28  1  0  0  0  0
 29 34  1  0  0  0  0
 30 29  2  0  0  0  0
 31 26  2  0  0  0  0
 31 30  1  0  0  0  0
 35 30  1  0  0  0  0
 36 35  1  0  0  0  0
 37 38  1  0  0  0  0
 37 36  1  0  0  0  0
 38 36  1  0  0  0  0
M  END
>  <minimizedAffinity>
-5.80867672

$$$$

 OpenBabel03252505133D

 38 41  0  0  1  0  0  0  0  0999 V2000
   35.4700   28.0590   37.3040 C   0  0  0  0  0  0  0  0  0  0  0  0
   35.8500   27.0730   38.2440 C   0  0  0  0  0  0  0  0  0  0  0  0
   36.5400   27.5030   39.4010 C   0  0  0  0  0  0  0  0  0  0  0  0
   36.8180   28.8300   39.5780 N   0  0  0  0  0  0  0  0  0  0  0  0
   36.4350   29.7280   38.6520 C   0  0  0  0  0  0  0  0  0  0  0  0
   35.7610   29.3560   37.5130 N   0  0  0  0  0  0  0  0  0  0  0  0
   34.9450   27.7920   36.4090 H   0  0  0  0  0  0  0  0  0  0  0  0
   35.6200   26.0400   38.0800 H   0  0  0  0  0  0  0  0  0  0  0  0
   36.7520   31.1700   38.8650 C   0  0  2  0  0  0  0  0  0  0  0  0
   37.9930   31.4240   38.0360 C   0  0  0  0  0  0  0  0  0  0  0  0
   39.2570   31.5450   38.7780 C   0  0  0  0  0  0  0  0  0  0  0  0
   39.0160   32.6670   39.7850 C   0  0  0  0  0  0  0  0  0  0  0  0
   38.0160   32.2830   40.7960 C   0  0  0  0  0  0  0  0  0  0  0  0
   36.8690   31.5090   40.2530 C   0  0  0  0  0  0  0  0  0  0  0  0
   35.8950   31.7170   38.4090 H   0  0  0  0  0  0  0  0  0  0  0  0
   37.8360   32.3730   37.4820 H   0  0  0  0  0  0  0  0  0  0  0  0
   38.1400   30.6610   37.2350 H   0  0  0  0  0  0  0  0  0  0  0  0
   40.0180   31.9490   38.0820 H   0  0  0  0  0  0  0  0  0  0  0  0
   39.6470   30.6350   39.2490 H   0  0  0  0  0  0  0  0  0  0  0  0
   38.7130   33.5590   39.2350 H   0  0  0  0  0  0  0  0  0  0  0  0
   39.9640   32.7680   40.3300 H   0  0  0  0  0  0  0  0  0  0  0  0
   37.9610   32.4580   41.8610 H   0  0  0  0  0  0  0  0  0  0  0  0
   35.8220   31.0670   41.1330 N   0  0  0  0  0  0  0  0  0  0  0  0
   35.0020   31.6850   41.1990 H   0  0  0  0  0  0  0  0  0  0  0  0
   35.7300   30.2170   41.7320 H   0  0  0  0  0  0  0  0  0  0  0  0
   36.9400   26.5110   40.3880 C   0  0  0  0  0  0  0  0  0  0  0  0
   36.5980   25.2210   40.1910 C   0  0  0  0  0  0  0  0  0  0  0  0
   37.0170   24.3140   41.1840 C   0  0  0  0  0  0  0  0  0  0  0  0
   37.7240   24.8110   42.2450 C   0  0  0  0  0  0  0  0  0  0  0  0
   38.0670   26.1070   42.4400 C   0  0  0  0  0  0  0  0  0  0  0  0
   37.6400   26.9570   41.4540 N   0  0  0  0  0  0  0  0  0  0  0  0
   36.0430   24.8990   39.3380 H   0  0  0  0  0  0  0  0  0  0  0  0
   36.7760   23.2740   41.0860 H   0  0  0  0  0  0  0  0  0  0  0  0
   38.0280   24.0850   42.9880 H   0  0  0  0  0  0  0  0  0  0  0  0
   38.7930   26.5720   43.5410 O   0  0  0  0  0  0  0  0  0  0  0  0
   40.1310   26.1640   43.6650 C   0  0  0  0  0  3  0  0  0  0  0  0
   41.2120   27.2820   43.6780 C   0  0  0  0  0  2  0  0  0  0  0  0
   41.0630   26.3040   42.5320 C   0  0  0  0  0  2  0  0  0  0  0  0
  1  6  2  0  0  0  0
  1  2  1  0  0  0  0
  2  3  2  0  0  0  0
  3  4  1  0  0  0  0
  3 26  1  0  0  0  0
  5  9  1  0  0  0  0
  5  4  2  0  0  0  0
  6  5  1  0  0  0  0
  7  1  1  0  0  0  0
  8  2  1  0  0  0  0
  9 15  1  6  0  0  0
  9 14  1  0  0  0  0
 10 11  1  0  0  0  0
 10  9  1  0  0  0  0
 11 19  1  0  0  0  0
 11 12  1  0  0  0  0
 12 21  1  0  0  0  0
 12 13  1  0  0  0  0
 13 22  1  0  0  0  0
 14 13  2  0  0  0  0
 14 23  1  0  0  0  0
 16 10  1  0  0  0  0
 17 10  1  0  0  0  0
 18 11  1  0  0  0  0
 20 12  1  0  0  0  0
 23 24  1  0  0  0  0
 23 25  1  0  0  0  0
 26 31  1  0  0  0  0
 27 26  2  0  0  0  0
 27 28  1  0  0  0  0
 28 29  2  0  0  0  0
 29 30  1  0  0  0  0
 29 34  1  0  0  0  0
 30 35  1  0  0  0  0
 31 30  2  0  0  0  0
 32 27  1  0  0  0  0
 33 28  1  0  0  0  0
 35 36  1  0  0  0  0
 36 37  1  0  0  0  0
 38 36  1  0  0  0  0
 38 37  1  0  0  0  0
M  END
>  <minimizedAffinity>
-5.72323132

$$$$

 OpenBabel03252505133D

 38 41  0  0  1  0  0  0  0  0999 V2000
   36.2540   26.1440   39.1550 C   0  0  0  0  0  0  0  0  0  0  0  0
   37.2220   25.8890   40.1540 C   0  0  0  0  0  0  0  0  0  0  0  0
   37.8160   27.0040   40.7890 C   0  0  0  0  0  0  0  0  0  0  0  0
   37.4490   28.2720   40.4290 N   0  0  0  0  0  0  0  0  0  0  0  0
   36.5230   28.4590   39.4710 C   0  0  0  0  0  0  0  0  0  0  0  0
   35.9190   27.4050   38.8280 N   0  0  0  0  0  0  0  0  0  0  0  0
   35.7710   25.3380   38.6390 H   0  0  0  0  0  0  0  0  0  0  0  0
   37.4900   24.8860   40.4150 H   0  0  0  0  0  0  0  0  0  0  0  0
   36.1420   29.8510   39.0930 C   0  0  2  0  0  0  0  0  0  0  0  0
   36.9340   30.1460   37.8380 C   0  0  0  0  0  0  0  0  0  0  0  0
   38.0960   31.0340   37.9950 C   0  0  0  0  0  0  0  0  0  0  0  0
   37.5340   32.3100   38.6160 C   0  0  0  0  0  0  0  0  0  0  0  0
   37.0440   32.0770   39.9850 C   0  0  0  0  0  0  0  0  0  0  0  0
   36.3320   30.7850   40.1650 C   0  0  0  0  0  0  0  0  0  0  0  0
   35.0610   29.7850   38.8320 H   0  0  0  0  0  0  0  0  0  0  0  0
   36.2430   30.6220   37.1110 H   0  0  0  0  0  0  0  0  0  0  0  0
   37.2800   29.2210   37.3180 H   0  0  0  0  0  0  0  0  0  0  0  0
   38.4280   31.3360   36.9820 H   0  0  0  0  0  0  0  0  0  0  0  0
   38.9530   30.6390   38.5520 H   0  0  0  0  0  0  0  0  0  0  0  0
   36.7450   32.6880   37.9640 H   0  0  0  0  0  0  0  0  0  0  0  0
   38.3980   32.9800   38.7210 H   0  0  0  0  0  0  0  0  0  0  0  0
   37.1070   32.6700   40.8870 H   0  0  0  0  0  0  0  0  0  0  0  0
   35.8060   30.4280   41.4540 N   0  0  0  0  0  0  0  0  0  0  0  0
   34.8180   30.6650   41.6150 H   0  0  0  0  0  0  0  0  0  0  0  0
   36.2450   29.9620   42.2800 H   0  0  0  0  0  0  0  0  0  0  0  0
   38.8120   26.7720   41.8240 C   0  0  0  0  0  0  0  0  0  0  0  0
   38.8410   25.5760   42.4450 C   0  0  0  0  0  0  0  0  0  0  0  0
   39.8300   25.4180   43.4360 C   0  0  0  0  0  0  0  0  0  0  0  0
   40.6640   26.4760   43.6780 C   0  0  0  0  0  0  0  0  0  0  0  0
   40.6340   27.6770   43.0530 C   0  0  0  0  0  0  0  0  0  0  0  0
   39.6580   27.7910   42.0970 N   0  0  0  0  0  0  0  0  0  0  0  0
   38.1580   24.7900   42.2080 H   0  0  0  0  0  0  0  0  0  0  0  0
   39.9040   24.4900   43.9670 H   0  0  0  0  0  0  0  0  0  0  0  0
   41.4100   26.3190   44.4450 H   0  0  0  0  0  0  0  0  0  0  0  0
   41.5080   28.7320   43.3310 O   0  0  0  0  0  0  0  0  0  0  0  0
   41.5440   29.8100   42.4320 C   0  0  0  0  0  3  0  0  0  0  0  0
   42.2700   31.1020   42.9060 C   0  0  0  0  0  2  0  0  0  0  0  0
   40.7720   31.0360   42.7030 C   0  0  0  0  0  2  0  0  0  0  0  0
  1  2  1  0  0  0  0
  2  8  1  0  0  0  0
  2  3  2  0  0  0  0
  3 26  1  0  0  0  0
  4  3  1  0  0  0  0
  5  4  2  0  0  0  0
  6  1  2  0  0  0  0
  6  5  1  0  0  0  0
  7  1  1  0  0  0  0
  9 15  1  6  0  0  0
  9  5  1  0  0  0  0
  9 14  1  0  0  0  0
 10 11  1  0  0  0  0
 10  9  1  0  0  0  0
 11 19  1  0  0  0  0
 11 12  1  0  0  0  0
 12 21  1  0  0  0  0
 12 13  1  0  0  0  0
 13 14  2  0  0  0  0
 13 22  1  0  0  0  0
 14 23  1  0  0  0  0
 16 10  1  0  0  0  0
 17 10  1  0  0  0  0
 18 11  1  0  0  0  0
 20 12  1  0  0  0  0
 23 24  1  0  0  0  0
 23 25  1  0  0  0  0
 26 31  2  0  0  0  0
 26 27  1  0  0  0  0
 27 28  2  0  0  0  0
 28 29  1  0  0  0  0
 28 33  1  0  0  0  0
 29 34  1  0  0  0  0
 30 35  1  0  0  0  0
 30 29  2  0  0  0  0
 31 30  1  0  0  0  0
 32 27  1  0  0  0  0
 36 38  1  0  0  0  0
 36 37  1  0  0  0  0
 36 35  1  0  0  0  0
 38 37  1  0  0  0  0
M  END
>  <minimizedAffinity>
-5.67208433

$$$$

 OpenBabel03252505133D

 38 41  0  0  1  0  0  0  0  0999 V2000
   35.3970   29.5330   39.9740 C   0  0  0  0  0  0  0  0  0  0  0  0
   36.3440   30.5210   39.6170 C   0  0  0  0  0  0  0  0  0  0  0  0
   37.5970   30.4930   40.2710 C   0  0  0  0  0  0  0  0  0  0  0  0
   37.8580   29.5330   41.2100 N   0  0  0  0  0  0  0  0  0  0  0  0
   36.9220   28.6160   41.5130 C   0  0  0  0  0  0  0  0  0  0  0  0
   35.6900   28.6040   40.9030 N   0  0  0  0  0  0  0  0  0  0  0  0
   34.4310   29.5060   39.5130 H   0  0  0  0  0  0  0  0  0  0  0  0
   36.1130   31.2610   38.8790 H   0  0  0  0  0  0  0  0  0  0  0  0
   37.2270   27.5810   42.5440 C   0  0  2  0  0  0  0  0  0  0  0  0
   38.2020   28.2480   43.4900 C   0  0  0  0  0  0  0  0  0  0  0  0
   39.6080   27.8370   43.3720 C   0  0  0  0  0  0  0  0  0  0  0  0
   39.5920   26.3220   43.5600 C   0  0  0  0  0  0  0  0  0  0  0  0
   38.9020   25.6450   42.4490 C   0  0  0  0  0  0  0  0  0  0  0  0
   37.6840   26.3500   41.9690 C   0  0  0  0  0  0  0  0  0  0  0  0
   36.2610   27.4190   43.0740 H   0  0  0  0  0  0  0  0  0  0  0  0
   37.8700   28.0210   44.5250 H   0  0  0  0  0  0  0  0  0  0  0  0
   38.1670   29.3620   43.4320 H   0  0  0  0  0  0  0  0  0  0  0  0
   40.1480   28.2250   44.2580 H   0  0  0  0  0  0  0  0  0  0  0  0
   40.1420   28.1400   42.4640 H   0  0  0  0  0  0  0  0  0  0  0  0
   39.1220   26.1030   44.5200 H   0  0  0  0  0  0  0  0  0  0  0  0
   40.6430   26.0140   43.4870 H   0  0  0  0  0  0  0  0  0  0  0  0
   39.1160   24.7300   41.9140 H   0  0  0  0  0  0  0  0  0  0  0  0
   36.9170   25.8000   40.8850 N   0  0  0  0  0  0  0  0  0  0  0  0
   36.1190   25.2100   41.1560 H   0  0  0  0  0  0  0  0  0  0  0  0
   37.0160   25.8870   39.8490 H   0  0  0  0  0  0  0  0  0  0  0  0
   38.5930   31.4960   39.9210 C   0  0  0  0  0  0  0  0  0  0  0  0
   38.7220   32.5870   40.7020 C   0  0  0  0  0  0  0  0  0  0  0  0
   39.7040   33.5160   40.3070 C   0  0  0  0  0  0  0  0  0  0  0  0
   40.4320   33.2360   39.1820 C   0  0  0  0  0  0  0  0  0  0  0  0
   40.3010   32.1380   38.3990 C   0  0  0  0  0  0  0  0  0  0  0  0
   39.3350   31.2600   38.8170 N   0  0  0  0  0  0  0  0  0  0  0  0
   38.1190   32.7460   41.5690 H   0  0  0  0  0  0  0  0  0  0  0  0
   39.8550   34.4050   40.8860 H   0  0  0  0  0  0  0  0  0  0  0  0
   41.1760   33.9720   38.9090 H   0  0  0  0  0  0  0  0  0  0  0  0
   41.0680   31.8900   37.2570 O   0  0  0  0  0  0  0  0  0  0  0  0
   42.1220   30.9680   37.3620 C   0  0  0  0  0  3  0  0  0  0  0  0
   43.5410   31.4660   36.9620 C   0  0  0  0  0  2  0  0  0  0  0  0
   42.7770   30.4410   36.1510 C   0  0  0  0  0  2  0  0  0  0  0  0
  1  6  1  0  0  0  0
  2  1  2  0  0  0  0
  2  3  1  0  0  0  0
  3  4  2  0  0  0  0
  4  5  1  0  0  0  0
  5  9  1  0  0  0  0
  6  5  2  0  0  0  0
  7  1  1  0  0  0  0
  8  2  1  0  0  0  0
  9 15  1  1  0  0  0
  9 10  1  0  0  0  0
 10 16  1  0  0  0  0
 11 10  1  0  0  0  0
 11 12  1  0  0  0  0
 11 18  1  0  0  0  0
 12 20  1  0  0  0  0
 13 12  1  0  0  0  0
 14 13  2  0  0  0  0
 14  9  1  0  0  0  0
 17 10  1  0  0  0  0
 19 11  1  0  0  0  0
 21 12  1  0  0  0  0
 22 13  1  0  0  0  0
 23 24  1  0  0  0  0
 23 14  1  0  0  0  0
 25 23  1  0  0  0  0
 26  3  1  0  0  0  0
 26 27  1  0  0  0  0
 27 32  1  0  0  0  0
 28 27  2  0  0  0  0
 28 33  1  0  0  0  0
 29 28  1  0  0  0  0
 30 31  1  0  0  0  0
 30 29  2  0  0  0  0
 31 26  2  0  0  0  0
 34 29  1  0  0  0  0
 35 36  1  0  0  0  0
 35 30  1  0  0  0  0
 37 36  1  0  0  0  0
 38 37  1  0  0  0  0
 38 36  1  0  0  0  0
M  END
>  <minimizedAffinity>
-5.59167624

$$$$

 OpenBabel03252505133D

 38 41  0  0  1  0  0  0  0  0999 V2000
   41.2940   29.5200   42.7690 C   0  0  0  0  0  0  0  0  0  0  0  0
   40.5900   30.4010   41.9160 C   0  0  0  0  0  0  0  0  0  0  0  0
   39.2870   30.0250   41.5160 C   0  0  0  0  0  0  0  0  0  0  0  0
   38.7520   28.8450   41.9540 N   0  0  0  0  0  0  0  0  0  0  0  0
   39.4640   28.0410   42.7650 C   0  0  0  0  0  0  0  0  0  0  0  0
   40.7340   28.3670   43.1790 N   0  0  0  0  0  0  0  0  0  0  0  0
   42.2850   29.7530   43.1030 H   0  0  0  0  0  0  0  0  0  0  0  0
   41.0330   31.3190   41.5880 H   0  0  0  0  0  0  0  0  0  0  0  0
   38.8610   26.7570   43.2260 C   0  0  2  0  0  0  0  0  0  0  0  0
   39.7070   25.6760   42.5890 C   0  0  0  0  0  0  0  0  0  0  0  0
   39.1100   24.9740   41.4440 C   0  0  0  0  0  0  0  0  0  0  0  0
   37.7900   24.4160   41.9700 C   0  0  0  0  0  0  0  0  0  0  0  0
   36.8380   25.4910   42.2960 C   0  0  0  0  0  0  0  0  0  0  0  0
   37.4570   26.6760   42.9450 C   0  0  0  0  0  0  0  0  0  0  0  0
   39.0310   26.7470   44.3280 H   0  0  0  0  0  0  0  0  0  0  0  0
   39.9260   24.9200   43.3710 H   0  0  0  0  0  0  0  0  0  0  0  0
   40.7130   26.0440   42.2760 H   0  0  0  0  0  0  0  0  0  0  0  0
   39.7310   24.0800   41.2360 H   0  0  0  0  0  0  0  0  0  0  0  0
   38.9830   25.5470   40.5180 H   0  0  0  0  0  0  0  0  0  0  0  0
   38.0060   23.7900   42.8370 H   0  0  0  0  0  0  0  0  0  0  0  0
   37.3490   23.8780   41.1190 H   0  0  0  0  0  0  0  0  0  0  0  0
   35.7700   25.5810   42.1500 H   0  0  0  0  0  0  0  0  0  0  0  0
   36.6420   27.8010   43.3130 N   0  0  0  0  0  0  0  0  0  0  0  0
   36.3010   27.8070   44.2830 H   0  0  0  0  0  0  0  0  0  0  0  0
   36.3230   28.6350   42.7710 H   0  0  0  0  0  0  0  0  0  0  0  0
   38.5370   30.9140   40.6420 C   0  0  0  0  0  0  0  0  0  0  0  0
   38.6400   32.2460   40.8240 C   0  0  0  0  0  0  0  0  0  0  0  0
   37.8890   33.0490   39.9440 C   0  0  0  0  0  0  0  0  0  0  0  0
   37.1320   32.4180   38.9930 C   0  0  0  0  0  0  0  0  0  0  0  0
   37.0310   31.0800   38.8120 C   0  0  0  0  0  0  0  0  0  0  0  0
   37.7760   30.3340   39.6880 N   0  0  0  0  0  0  0  0  0  0  0  0
   39.2500   32.6750   41.5880 H   0  0  0  0  0  0  0  0  0  0  0  0
   37.9270   34.1170   40.0370 H   0  0  0  0  0  0  0  0  0  0  0  0
   36.5690   33.0670   38.3350 H   0  0  0  0  0  0  0  0  0  0  0  0
   36.2460   30.4770   37.8250 O   0  0  0  0  0  0  0  0  0  0  0  0
   35.6480   29.2420   38.1250 C   0  0  0  0  0  3  0  0  0  0  0  0
   35.4120   28.2630   36.9380 C   0  0  0  0  0  2  0  0  0  0  0  0
   34.2770   28.9450   37.6720 C   0  0  0  0  0  2  0  0  0  0  0  0
  1  7  1  0  0  0  0
  1  6  1  0  0  0  0
  2  1  2  0  0  0  0
  3  2  1  0  0  0  0
  3  4  2  0  0  0  0
  4  5  1  0  0  0  0
  5  6  2  0  0  0  0
  5  9  1  0  0  0  0
  8  2  1  0  0  0  0
  9 15  1  1  0  0  0
 10  9  1  0  0  0  0
 10 16  1  0  0  0  0
 11 12  1  0  0  0  0
 11 10  1  0  0  0  0
 12 13  1  0  0  0  0
 12 20  1  0  0  0  0
 13 14  2  0  0  0  0
 14  9  1  0  0  0  0
 14 23  1  0  0  0  0
 17 10  1  0  0  0  0
 18 11  1  0  0  0  0
 19 11  1  0  0  0  0
 21 12  1  0  0  0  0
 22 13  1  0  0  0  0
 23 24  1  0  0  0  0
 25 23  1  0  0  0  0
 26 27  1  0  0  0  0
 26  3  1  0  0  0  0
 27 32  1  0  0  0  0
 28 33  1  0  0  0  0
 28 27  2  0  0  0  0
 29 28  1  0  0  0  0
 30 29  2  0  0  0  0
 30 31  1  0  0  0  0
 31 26  2  0  0  0  0
 34 29  1  0  0  0  0
 35 36  1  0  0  0  0
 35 30  1  0  0  0  0
 37 38  1  0  0  0  0
 37 36  1  0  0  0  0
 38 36  1  0  0  0  0
M  END
>  <minimizedAffinity>
-5.47309399

$$$$

 OpenBabel03252505133D

 38 41  0  0  1  0  0  0  0  0999 V2000
   38.1530   28.3040   42.9990 C   0  0  0  0  0  0  0  0  0  0  0  0
   37.9650   26.9560   42.6130 C   0  0  0  0  0  0  0  0  0  0  0  0
   37.6010   26.7050   41.2700 C   0  0  0  0  0  0  0  0  0  0  0  0
   37.4410   27.7460   40.3980 N   0  0  0  0  0  0  0  0  0  0  0  0
   37.6310   29.0110   40.8170 C   0  0  0  0  0  0  0  0  0  0  0  0
   37.9860   29.3020   42.1130 N   0  0  0  0  0  0  0  0  0  0  0  0
   38.4280   28.5540   44.0040 H   0  0  0  0  0  0  0  0  0  0  0  0
   38.0970   26.1600   43.3160 H   0  0  0  0  0  0  0  0  0  0  0  0
   37.4470   30.1310   39.8490 C   0  0  2  0  0  0  0  0  0  0  0  0
   38.8150   30.3490   39.2380 C   0  0  0  0  0  0  0  0  0  0  0  0
   39.5550   31.5290   39.7060 C   0  0  0  0  0  0  0  0  0  0  0  0
   38.6260   32.7100   39.4340 C   0  0  0  0  0  0  0  0  0  0  0  0
   37.4200   32.6560   40.2790 C   0  0  0  0  0  0  0  0  0  0  0  0
   36.8600   31.2910   40.4540 C   0  0  0  0  0  0  0  0  0  0  0  0
   36.7640   29.7200   39.0700 H   0  0  0  0  0  0  0  0  0  0  0  0
   38.6780   30.4500   38.1410 H   0  0  0  0  0  0  0  0  0  0  0  0
   39.4830   29.4610   39.3490 H   0  0  0  0  0  0  0  0  0  0  0  0
   40.4120   31.6820   39.0210 H   0  0  0  0  0  0  0  0  0  0  0  0
   39.9200   31.5120   40.7400 H   0  0  0  0  0  0  0  0  0  0  0  0
   38.3750   32.7090   38.3730 H   0  0  0  0  0  0  0  0  0  0  0  0
   39.1830   33.5940   39.7700 H   0  0  0  0  0  0  0  0  0  0  0  0
   36.8660   33.4260   40.7990 H   0  0  0  0  0  0  0  0  0  0  0  0
   35.6860   31.0950   41.2590 N   0  0  0  0  0  0  0  0  0  0  0  0
   34.7910   31.0850   40.7510 H   0  0  0  0  0  0  0  0  0  0  0  0
   35.5620   30.9560   42.2870 H   0  0  0  0  0  0  0  0  0  0  0  0
   37.4050   25.3270   40.8420 C   0  0  0  0  0  0  0  0  0  0  0  0
   38.1930   24.3650   41.3640 C   0  0  0  0  0  0  0  0  0  0  0  0
   37.9510   23.0540   40.9080 C   0  0  0  0  0  0  0  0  0  0  0  0
   36.9520   22.8730   39.9900 C   0  0  0  0  0  0  0  0  0  0  0  0
   36.1610   23.8410   39.4680 C   0  0  0  0  0  0  0  0  0  0  0  0
   36.4290   25.1010   39.9360 N   0  0  0  0  0  0  0  0  0  0  0  0
   38.9580   24.5750   42.0780 H   0  0  0  0  0  0  0  0  0  0  0  0
   38.5440   22.2450   41.2840 H   0  0  0  0  0  0  0  0  0  0  0  0
   36.7940   21.8540   39.6630 H   0  0  0  0  0  0  0  0  0  0  0  0
   35.1490   23.6110   38.5320 O   0  0  0  0  0  0  0  0  0  0  0  0
   34.2880   22.5230   38.7490 C   0  0  0  0  0  3  0  0  0  0  0  0
   32.8180   22.6750   38.2610 C   0  0  0  0  0  2  0  0  0  0  0  0
   33.1900   22.6220   39.7270 C   0  0  0  0  0  2  0  0  0  0  0  0
  1  7  1  0  0  0  0
  2  1  1  0  0  0  0
  2  8  1  0  0  0  0
  3  2  2  0  0  0  0
  4  5  2  0  0  0  0
  4  3  1  0  0  0  0
  5  6  1  0  0  0  0
  6  1  2  0  0  0  0
  9 15  1  6  0  0  0
  9 14  1  0  0  0  0
  9  5  1  0  0  0  0
 10 17  1  0  0  0  0
 10 11  1  0  0  0  0
 10  9  1  0  0  0  0
 11 19  1  0  0  0  0
 12 11  1  0  0  0  0
 12 21  1  0  0  0  0
 12 13  1  0  0  0  0
 13 14  2  0  0  0  0
 13 22  1  0  0  0  0
 14 23  1  0  0  0  0
 16 10  1  0  0  0  0
 18 11  1  0  0  0  0
 20 12  1  0  0  0  0
 23 25  1  0  0  0  0
 24 23  1  0  0  0  0
 26  3  1  0  0  0  0
 26 27  1  0  0  0  0
 27 32  1  0  0  0  0
 28 33  1  0  0  0  0
 28 27  2  0  0  0  0
 29 28  1  0  0  0  0
 30 31  1  0  0  0  0
 30 29  2  0  0  0  0
 31 26  2  0  0  0  0
 34 29  1  0  0  0  0
 35 36  1  0  0  0  0
 35 30  1  0  0  0  0
 36 38  1  0  0  0  0
 37 36  1  0  0  0  0
 37 38  1  0  0  0  0
M  END
>  <minimizedAffinity>
-5.4658289

$$$$
