
 OpenBabel03252503013D

 24 25  0  0  0  0  0  0  0  0999 V2000
   43.3330   35.4400   41.6320 C   0  0  0  0  0  0  0  0  0  0  0  0
   44.4200   35.5110   41.3430 H   0  0  0  0  0  0  0  0  0  0  0  0
   42.7760   36.2660   41.1460 H   0  0  0  0  0  0  0  0  0  0  0  0
   43.3090   35.5870   43.0970 N   0  0  0  0  0  0  0  0  0  0  0  0
   42.6130   36.2920   43.4100 H   0  0  0  0  0  0  0  0  0  0  0  0
   44.8790   35.9240   43.7190 S   0  0  0  0  0  0  0  0  0  0  0  0
   45.9410   35.6670   42.7080 O   0  0  0  0  0  0  0  0  0  0  0  0
   46.4080   36.4210   42.2560 H   0  0  0  0  0  0  0  0  0  0  0  0
   44.8670   37.3850   44.1080 O   0  0  0  0  0  0  0  0  0  0  0  0
   44.4230   38.0370   43.4830 H   0  0  0  0  0  0  0  0  0  0  0  0
   45.1150   35.0700   45.1350 O   0  0  0  0  0  0  0  0  0  0  0  0
   45.3940   33.7350   44.9320 C   0  0  0  0  0  3  0  0  0  0  0  0
   45.9780   33.0350   46.1400 C   0  0  0  0  0  2  0  0  0  0  0  0
   46.8290   33.2890   44.9430 C   0  0  0  0  0  2  0  0  0  0  0  0
   42.7680   33.7960   41.2330 S   0  0  0  0  0  0  0  0  0  0  0  0
   40.0830   33.0870   41.3010 C   0  0  0  0  0  0  0  0  0  0  0  0
   41.0460   33.8650   40.6710 C   0  0  0  0  0  0  0  0  0  0  0  0
   40.7160   34.7020   39.6130 C   0  0  0  0  0  0  0  0  0  0  0  0
   39.3980   34.7170   39.2270 N   0  0  0  0  0  0  0  0  0  0  0  0
   38.5150   33.9500   39.8660 C   0  0  0  0  0  0  0  0  0  0  0  0
   38.7980   33.1480   40.8720 N   0  0  0  0  0  0  0  0  0  0  0  0
   40.3520   32.4390   42.1250 H   0  0  0  0  0  0  0  0  0  0  0  0
   41.4680   35.3200   39.1100 H   0  0  0  0  0  0  0  0  0  0  0  0
   37.5140   34.0750   39.4410 H   0  0  0  0  0  0  0  0  0  0  0  0
  1  4  1  0  0  0  0
  2  1  1  0  0  0  0
  3  1  1  0  0  0  0
  4  5  1  0  0  0  0
  4  6  1  0  0  0  0
  6  9  1  0  0  0  0
  6 11  1  0  0  0  0
  7  6  1  0  0  0  0
  8  7  1  0  0  0  0
 10  9  1  0  0  0  0
 12 14  1  0  0  0  0
 12 11  1  0  0  0  0
 12 13  1  0  0  0  0
 14 13  1  0  0  0  0
 15  1  1  0  0  0  0
 16 22  1  0  0  0  0
 17 15  1  0  0  0  0
 17 16  2  0  0  0  0
 18 17  1  0  0  0  0
 19 18  2  0  0  0  0
 19 20  1  0  0  0  0
 20 21  2  0  0  0  0
 21 16  1  0  0  0  0
 23 18  1  0  0  0  0
 24 20  1  0  0  0  0
M  END
>  <minimizedAffinity>
-4.70240545

>  <minimizedRMSD>
1.36221778

$$$$
