
 OpenBabel03252500063D

 43 46  0  0  0  0  0  0  0  0999 V2000
   37.2820   30.6320   41.6890 C   0  0  0  0  0  0  0  0  0  0  0  0
   37.0130   30.5830   40.3230 C   0  0  0  0  0  0  0  0  0  0  0  0
   36.7930   29.3460   39.7170 C   0  0  0  0  0  0  0  0  0  0  0  0
   36.8680   28.2890   40.5630 N   0  0  0  0  0  0  0  0  0  0  0  0
   37.1200   28.3440   41.8430 C   0  0  0  0  0  0  0  0  0  0  0  0
   37.3250   29.5200   42.3930 N   0  0  0  0  0  0  0  0  0  0  0  0
   37.4500   31.6050   42.1340 H   0  0  0  0  0  0  0  0  0  0  0  0
   36.5090   29.1280   38.3450 C   0  0  0  0  0  0  0  0  0  0  0  0
   37.6060   29.0230   37.4870 C   0  0  0  0  0  0  0  0  0  0  0  0
   37.5200   28.8120   36.1290 C   0  0  0  0  0  0  0  0  0  0  0  0
   36.3090   28.6910   35.5340 C   0  0  0  0  0  0  0  0  0  0  0  0
   35.1860   28.7840   36.3190 C   0  0  0  0  0  0  0  0  0  0  0  0
   33.9380   28.6730   35.7910 C   0  0  0  0  0  0  0  0  0  0  0  0
   32.7950   28.7610   36.5330 C   0  0  0  0  0  0  0  0  0  0  0  0
   32.9410   28.9760   37.9100 C   0  0  0  0  0  0  0  0  0  0  0  0
   34.2260   29.0840   38.4120 C   0  0  0  0  0  0  0  0  0  0  0  0
   35.3300   28.9970   37.6820 C   0  0  0  0  0  0  0  0  0  0  0  0
   38.6350   29.1080   37.8760 H   0  0  0  0  0  0  0  0  0  0  0  0
   38.4080   28.7400   35.5150 H   0  0  0  0  0  0  0  0  0  0  0  0
   36.2360   28.5280   34.4820 H   0  0  0  0  0  0  0  0  0  0  0  0
   33.8690   28.5070   34.7140 H   0  0  0  0  0  0  0  0  0  0  0  0
   31.8110   28.6670   36.0750 H   0  0  0  0  0  0  0  0  0  0  0  0
   32.0220   29.0380   38.4550 H   0  0  0  0  0  0  0  0  0  0  0  0
   34.1790   29.3150   39.8270 N   0  0  0  0  0  0  0  0  0  0  0  0
   34.0500   28.3460   40.2450 H   0  0  0  0  0  0  0  0  0  0  0  0
   34.2380   30.1640   40.4190 H   0  0  0  0  0  0  0  0  0  0  0  0
   37.1370   27.0060   42.5290 C   0  0  0  0  0  0  0  0  0  0  0  0
   38.3650   26.7520   43.0950 F   0  0  0  0  0  0  0  0  0  0  0  0
   36.7910   26.0080   41.6600 F   0  0  0  0  0  0  0  0  0  0  0  0
   36.1230   26.9830   43.5130 F   0  0  0  0  0  0  0  0  0  0  0  0
   36.9350   31.7400   39.4410 C   0  0  0  0  0  0  0  0  0  0  0  0
   37.1970   31.4070   38.4120 H   0  0  0  0  0  0  0  0  0  0  0  0
   35.8680   32.0690   39.3670 H   0  0  0  0  0  0  0  0  0  0  0  0
   37.7940   32.8870   39.7710 C   0  0  0  0  0  0  0  0  0  0  0  0
   37.2710   33.7730   39.2770 H   0  0  0  0  0  0  0  0  0  0  0  0
   37.9770   33.2100   40.7560 H   0  0  0  0  0  0  0  0  0  0  0  0
   40.2780   32.5540   39.5180 C   0  0  0  0  0  0  0  0  0  0  0  0
   40.3550   32.3760   40.7850 O   0  0  0  0  0  0  0  0  0  0  0  0
   39.0070   32.7730   38.9160 N   0  0  0  0  0  0  0  0  0  0  0  0
   39.0340   32.8370   37.8720 H   0  0  0  0  0  0  0  0  0  0  0  0
   41.5330   32.5270   38.7090 C   0  0  0  0  0  3  0  0  0  0  0  0
   41.8070   33.5660   37.7080 C   0  0  0  0  0  2  0  0  0  0  0  0
   41.2720   32.2180   37.2410 C   0  0  0  0  0  2  0  0  0  0  0  0
  1  7  1  0  0  0  0
  1  6  1  0  0  0  0
  2  1  2  0  0  0  0
  3  2  1  0  0  0  0
  3  4  2  0  0  0  0
  4  5  1  0  0  0  0
  5  6  2  0  0  0  0
  5 27  1  0  0  0  0
  8  3  1  0  0  0  0
  9 18  1  0  0  0  0
  9  8  2  0  0  0  0
 10  9  1  0  0  0  0
 11 10  2  0  0  0  0
 11 12  1  0  0  0  0
 12 17  1  0  0  0  0
 13 12  2  0  0  0  0
 13 14  1  0  0  0  0
 14 15  2  0  0  0  0
 15 16  1  0  0  0  0
 15 23  1  0  0  0  0
 16 24  1  0  0  0  0
 17  8  1  0  0  0  0
 17 16  2  0  0  0  0
 19 10  1  0  0  0  0
 20 11  1  0  0  0  0
 21 13  1  0  0  0  0
 22 14  1  0  0  0  0
 24 25  1  0  0  0  0
 24 26  1  0  0  0  0
 27 28  1  0  0  0  0
 27 30  1  0  0  0  0
 29 27  1  0  0  0  0
 31 34  1  0  0  0  0
 31  2  1  0  0  0  0
 32 31  1  0  0  0  0
 33 31  1  0  0  0  0
 34 36  1  0  0  0  0
 35 34  1  0  0  0  0
 37 38  2  0  0  0  0
 39 37  1  0  0  0  0
 39 34  1  0  0  0  0
 40 39  1  0  0  0  0
 41 37  1  0  0  0  0
 42 41  1  0  0  0  0
 43 42  1  0  0  0  0
 43 41  1  0  0  0  0
M  END
>  <minimizedAffinity>
-6.2341013

$$$$

 OpenBabel03252500063D

 43 46  0  0  0  0  0  0  0  0999 V2000
   36.6330   30.2320   37.5530 C   0  0  0  0  0  0  0  0  0  0  0  0
   36.3120   29.4750   38.6780 C   0  0  0  0  0  0  0  0  0  0  0  0
   37.3340   29.0610   39.5320 C   0  0  0  0  0  0  0  0  0  0  0  0
   38.5730   29.4600   39.1550 N   0  0  0  0  0  0  0  0  0  0  0  0
   38.8650   30.1700   38.0990 C   0  0  0  0  0  0  0  0  0  0  0  0
   37.8870   30.5490   37.3070 N   0  0  0  0  0  0  0  0  0  0  0  0
   35.8210   30.5400   36.9050 H   0  0  0  0  0  0  0  0  0  0  0  0
   37.1730   28.2900   40.7120 C   0  0  0  0  0  0  0  0  0  0  0  0
   37.0240   28.9970   41.9070 C   0  0  0  0  0  0  0  0  0  0  0  0
   36.8570   28.4170   43.1450 C   0  0  0  0  0  0  0  0  0  0  0  0
   36.8300   27.0670   43.2650 C   0  0  0  0  0  0  0  0  0  0  0  0
   36.9710   26.3090   42.1290 C   0  0  0  0  0  0  0  0  0  0  0  0
   36.9530   24.9510   42.1750 C   0  0  0  0  0  0  0  0  0  0  0  0
   37.0910   24.1570   41.0710 C   0  0  0  0  0  0  0  0  0  0  0  0
   37.2580   24.8010   39.8380 C   0  0  0  0  0  0  0  0  0  0  0  0
   37.2710   26.1850   39.8300 C   0  0  0  0  0  0  0  0  0  0  0  0
   37.1360   26.9450   40.9080 C   0  0  0  0  0  0  0  0  0  0  0  0
   37.0340   30.1000   41.9130 H   0  0  0  0  0  0  0  0  0  0  0  0
   36.7470   29.0190   44.0370 H   0  0  0  0  0  0  0  0  0  0  0  0
   36.7010   26.6120   44.2220 H   0  0  0  0  0  0  0  0  0  0  0  0
   36.8220   24.4890   43.1550 H   0  0  0  0  0  0  0  0  0  0  0  0
   37.0720   23.0710   41.1460 H   0  0  0  0  0  0  0  0  0  0  0  0
   37.3620   24.1450   38.9990 H   0  0  0  0  0  0  0  0  0  0  0  0
   37.4640   26.6630   38.4910 N   0  0  0  0  0  0  0  0  0  0  0  0
   36.4930   26.6260   38.0590 H   0  0  0  0  0  0  0  0  0  0  0  0
   38.2910   26.9880   37.9570 H   0  0  0  0  0  0  0  0  0  0  0  0
   40.3300   30.4650   37.9370 C   0  0  0  0  0  0  0  0  0  0  0  0
   40.5290   31.6990   37.3590 F   0  0  0  0  0  0  0  0  0  0  0  0
   40.9470   29.4870   37.2050 F   0  0  0  0  0  0  0  0  0  0  0  0
   40.9540   30.4040   39.2030 F   0  0  0  0  0  0  0  0  0  0  0  0
   34.9660   29.0660   39.0580 C   0  0  0  0  0  0  0  0  0  0  0  0
   35.0440   28.4280   39.9660 H   0  0  0  0  0  0  0  0  0  0  0  0
   34.3950   29.9670   39.3960 H   0  0  0  0  0  0  0  0  0  0  0  0
   34.1890   28.3230   38.0550 C   0  0  0  0  0  0  0  0  0  0  0  0
   34.5840   28.7130   37.0570 H   0  0  0  0  0  0  0  0  0  0  0  0
   34.2210   27.2760   37.9560 H   0  0  0  0  0  0  0  0  0  0  0  0
   32.1320   29.0950   36.8240 C   0  0  0  0  0  0  0  0  0  0  0  0
   32.6630   28.6800   35.7330 O   0  0  0  0  0  0  0  0  0  0  0  0
   32.8200   28.9090   38.0550 N   0  0  0  0  0  0  0  0  0  0  0  0
   32.2800   29.2150   38.8970 H   0  0  0  0  0  0  0  0  0  0  0  0
   30.7980   29.7650   36.7660 C   0  0  0  0  0  3  0  0  0  0  0  0
   30.6910   31.2300   36.7490 C   0  0  0  0  0  2  0  0  0  0  0  0
   30.4550   30.4900   38.0600 C   0  0  0  0  0  2  0  0  0  0  0  0
  1  2  1  0  0  0  0
  2 31  1  0  0  0  0
  2  3  2  0  0  0  0
  3  8  1  0  0  0  0
  4  3  1  0  0  0  0
  5  4  2  0  0  0  0
  6  1  2  0  0  0  0
  6  5  1  0  0  0  0
  7  1  1  0  0  0  0
  8 17  2  0  0  0  0
  8  9  1  0  0  0  0
  9 18  1  0  0  0  0
  9 10  2  0  0  0  0
 10 11  1  0  0  0  0
 10 19  1  0  0  0  0
 11 20  1  0  0  0  0
 12 13  1  0  0  0  0
 12 11  2  0  0  0  0
 13 21  1  0  0  0  0
 14 22  1  0  0  0  0
 14 13  2  0  0  0  0
 15 14  1  0  0  0  0
 16 15  2  0  0  0  0
 16 17  1  0  0  0  0
 17 12  1  0  0  0  0
 23 15  1  0  0  0  0
 24 16  1  0  0  0  0
 25 24  1  0  0  0  0
 26 24  1  0  0  0  0
 27  5  1  0  0  0  0
 27 30  1  0  0  0  0
 28 27  1  0  0  0  0
 29 27  1  0  0  0  0
 31 33  1  0  0  0  0
 31 32  1  0  0  0  0
 34 31  1  0  0  0  0
 35 34  1  0  0  0  0
 36 34  1  0  0  0  0
 37 39  1  0  0  0  0
 38 37  2  0  0  0  0
 39 34  1  0  0  0  0
 39 40  1  0  0  0  0
 41 37  1  0  0  0  0
 41 43  1  0  0  0  0
 42 41  1  0  0  0  0
 42 43  1  0  0  0  0
M  END
>  <minimizedAffinity>
-6.09312487

$$$$

 OpenBabel03252500063D

 43 46  0  0  0  0  0  0  0  0999 V2000
   36.2900   28.4190   37.6620 C   0  0  0  0  0  0  0  0  0  0  0  0
   36.9250   29.3720   38.4560 C   0  0  0  0  0  0  0  0  0  0  0  0
   37.3290   30.5760   37.8800 C   0  0  0  0  0  0  0  0  0  0  0  0
   37.0440   30.6860   36.5600 N   0  0  0  0  0  0  0  0  0  0  0  0
   36.4480   29.7880   35.8230 C   0  0  0  0  0  0  0  0  0  0  0  0
   36.0770   28.6600   36.3860 N   0  0  0  0  0  0  0  0  0  0  0  0
   35.9880   27.4910   38.1350 H   0  0  0  0  0  0  0  0  0  0  0  0
   37.9830   31.6420   38.5490 C   0  0  0  0  0  0  0  0  0  0  0  0
   37.1670   32.5580   39.2160 C   0  0  0  0  0  0  0  0  0  0  0  0
   37.6260   33.6520   39.9160 C   0  0  0  0  0  0  0  0  0  0  0  0
   38.9550   33.9010   39.9920 C   0  0  0  0  0  0  0  0  0  0  0  0
   39.8170   33.0400   39.3590 C   0  0  0  0  0  0  0  0  0  0  0  0
   41.1630   33.2280   39.3930 C   0  0  0  0  0  0  0  0  0  0  0  0
   42.0560   32.3980   38.7770 C   0  0  0  0  0  0  0  0  0  0  0  0
   41.5330   31.3010   38.0790 C   0  0  0  0  0  0  0  0  0  0  0  0
   40.1590   31.1420   38.0660 C   0  0  0  0  0  0  0  0  0  0  0  0
   39.3010   31.9540   38.6680 C   0  0  0  0  0  0  0  0  0  0  0  0
   36.0690   32.4420   39.2110 H   0  0  0  0  0  0  0  0  0  0  0  0
   36.9420   34.3280   40.4130 H   0  0  0  0  0  0  0  0  0  0  0  0
   39.3170   34.7480   40.5330 H   0  0  0  0  0  0  0  0  0  0  0  0
   41.5280   34.0950   39.9470 H   0  0  0  0  0  0  0  0  0  0  0  0
   43.1290   32.5810   38.8250 H   0  0  0  0  0  0  0  0  0  0  0  0
   42.2660   30.6760   37.6110 H   0  0  0  0  0  0  0  0  0  0  0  0
   39.8100   29.9820   37.2960 N   0  0  0  0  0  0  0  0  0  0  0  0
   39.9410   29.1720   37.9730 H   0  0  0  0  0  0  0  0  0  0  0  0
   39.4980   29.8350   36.3190 H   0  0  0  0  0  0  0  0  0  0  0  0
   36.2620   30.1890   34.3860 C   0  0  0  0  0  0  0  0  0  0  0  0
   36.8780   29.2980   33.5370 F   0  0  0  0  0  0  0  0  0  0  0  0
   36.7250   31.4580   34.1700 F   0  0  0  0  0  0  0  0  0  0  0  0
   34.8790   30.2660   34.1060 F   0  0  0  0  0  0  0  0  0  0  0  0
   37.2130   29.2240   39.8770 C   0  0  0  0  0  0  0  0  0  0  0  0
   37.4250   30.2340   40.2920 H   0  0  0  0  0  0  0  0  0  0  0  0
   36.2820   28.8940   40.4030 H   0  0  0  0  0  0  0  0  0  0  0  0
   38.3350   28.3460   40.2410 C   0  0  0  0  0  0  0  0  0  0  0  0
   38.8580   28.1430   39.2460 H   0  0  0  0  0  0  0  0  0  0  0  0
   39.1130   28.6370   40.8870 H   0  0  0  0  0  0  0  0  0  0  0  0
   37.5740   26.5850   41.8720 C   0  0  0  0  0  0  0  0  0  0  0  0
   37.8370   27.3970   42.8290 O   0  0  0  0  0  0  0  0  0  0  0  0
   37.7550   27.0050   40.5250 N   0  0  0  0  0  0  0  0  0  0  0  0
   37.4490   26.3020   39.8130 H   0  0  0  0  0  0  0  0  0  0  0  0
   37.0840   25.2140   42.2060 C   0  0  0  0  0  3  0  0  0  0  0  0
   37.8370   24.0230   41.7910 C   0  0  0  0  0  2  0  0  0  0  0  0
   36.6220   24.4460   40.9740 C   0  0  0  0  0  2  0  0  0  0  0  0
  1  7  1  0  0  0  0
  1  2  1  0  0  0  0
  2 31  1  0  0  0  0
  3  2  2  0  0  0  0
  3  8  1  0  0  0  0
  4  3  1  0  0  0  0
  5  6  1  0  0  0  0
  5  4  2  0  0  0  0
  6  1  2  0  0  0  0
  8 17  2  0  0  0  0
  8  9  1  0  0  0  0
  9 10  2  0  0  0  0
 10 11  1  0  0  0  0
 10 19  1  0  0  0  0
 11 20  1  0  0  0  0
 12 13  1  0  0  0  0
 12 11  2  0  0  0  0
 13 21  1  0  0  0  0
 14 22  1  0  0  0  0
 14 13  2  0  0  0  0
 15 14  1  0  0  0  0
 16 15  2  0  0  0  0
 16 17  1  0  0  0  0
 17 12  1  0  0  0  0
 18  9  1  0  0  0  0
 23 15  1  0  0  0  0
 24 25  1  0  0  0  0
 24 16  1  0  0  0  0
 26 24  1  0  0  0  0
 27  5  1  0  0  0  0
 28 27  1  0  0  0  0
 29 27  1  0  0  0  0
 30 27  1  0  0  0  0
 31 34  1  0  0  0  0
 31 32  1  0  0  0  0
 31 33  1  0  0  0  0
 34 39  1  0  0  0  0
 34 36  1  0  0  0  0
 35 34  1  0  0  0  0
 37 41  1  0  0  0  0
 37 38  2  0  0  0  0
 39 37  1  0  0  0  0
 40 39  1  0  0  0  0
 42 41  1  0  0  0  0
 43 42  1  0  0  0  0
 43 41  1  0  0  0  0
M  END
>  <minimizedAffinity>
-6.08774185

$$$$

 OpenBabel03252500063D

 43 46  0  0  0  0  0  0  0  0999 V2000
   36.7690   29.2740   36.4780 C   0  0  0  0  0  0  0  0  0  0  0  0
   37.2290   28.9320   37.7480 C   0  0  0  0  0  0  0  0  0  0  0  0
   36.3060   28.5880   38.7350 C   0  0  0  0  0  0  0  0  0  0  0  0
   35.0140   28.6270   38.3280 N   0  0  0  0  0  0  0  0  0  0  0  0
   34.5910   28.9490   37.1350 C   0  0  0  0  0  0  0  0  0  0  0  0
   35.4790   29.2700   36.2210 N   0  0  0  0  0  0  0  0  0  0  0  0
   37.5080   29.5380   35.7300 H   0  0  0  0  0  0  0  0  0  0  0  0
   36.6110   28.2170   40.0690 C   0  0  0  0  0  0  0  0  0  0  0  0
   36.8140   29.2580   40.9790 C   0  0  0  0  0  0  0  0  0  0  0  0
   37.1170   29.0860   42.3110 C   0  0  0  0  0  0  0  0  0  0  0  0
   37.2400   27.8380   42.8250 C   0  0  0  0  0  0  0  0  0  0  0  0
   37.0530   26.7670   41.9860 C   0  0  0  0  0  0  0  0  0  0  0  0
   37.1600   25.4880   42.4330 C   0  0  0  0  0  0  0  0  0  0  0  0
   36.9850   24.3930   41.6350 C   0  0  0  0  0  0  0  0  0  0  0  0
   36.6770   24.6270   40.2880 C   0  0  0  0  0  0  0  0  0  0  0  0
   36.5760   25.9410   39.8690 C   0  0  0  0  0  0  0  0  0  0  0  0
   36.7490   26.9970   40.6530 C   0  0  0  0  0  0  0  0  0  0  0  0
   36.7360   30.3100   40.6560 H   0  0  0  0  0  0  0  0  0  0  0  0
   37.2630   29.9340   42.9670 H   0  0  0  0  0  0  0  0  0  0  0  0
   37.4750   27.6990   43.8570 H   0  0  0  0  0  0  0  0  0  0  0  0
   37.4020   25.3500   43.4890 H   0  0  0  0  0  0  0  0  0  0  0  0
   37.0790   23.3810   42.0280 H   0  0  0  0  0  0  0  0  0  0  0  0
   36.5470   23.7440   39.6970 H   0  0  0  0  0  0  0  0  0  0  0  0
   36.2720   25.9850   38.4680 N   0  0  0  0  0  0  0  0  0  0  0  0
   35.2190   25.8440   38.4250 H   0  0  0  0  0  0  0  0  0  0  0  0
   36.8430   26.1100   37.6120 H   0  0  0  0  0  0  0  0  0  0  0  0
   33.0970   28.9010   36.9730 C   0  0  0  0  0  0  0  0  0  0  0  0
   32.6760   27.6470   36.5950 F   0  0  0  0  0  0  0  0  0  0  0  0
   32.6750   29.8420   36.0730 F   0  0  0  0  0  0  0  0  0  0  0  0
   32.4910   29.2830   38.1910 F   0  0  0  0  0  0  0  0  0  0  0  0
   38.6290   28.8950   38.1520 C   0  0  0  0  0  0  0  0  0  0  0  0
   38.6650   28.7170   39.2500 H   0  0  0  0  0  0  0  0  0  0  0  0
   39.1120   27.9900   37.7050 H   0  0  0  0  0  0  0  0  0  0  0  0
   39.4350   30.0900   37.8660 C   0  0  0  0  0  0  0  0  0  0  0  0
   40.3380   29.9850   38.5580 H   0  0  0  0  0  0  0  0  0  0  0  0
   39.8540   30.2950   36.9230 H   0  0  0  0  0  0  0  0  0  0  0  0
   39.1400   31.6880   39.7910 C   0  0  0  0  0  0  0  0  0  0  0  0
   40.1560   31.1490   40.3570 O   0  0  0  0  0  0  0  0  0  0  0  0
   38.7350   31.2400   38.5010 N   0  0  0  0  0  0  0  0  0  0  0  0
   37.9420   31.7840   38.0900 H   0  0  0  0  0  0  0  0  0  0  0  0
   38.4070   32.7740   40.5070 C   0  0  0  0  0  3  0  0  0  0  0  0
   37.5210   33.6920   39.7800 C   0  0  0  0  0  2  0  0  0  0  0  0
   38.9240   34.1600   40.1460 C   0  0  0  0  0  2  0  0  0  0  0  0
  1  2  1  0  0  0  0
  2 31  1  0  0  0  0
  2  3  2  0  0  0  0
  3  8  1  0  0  0  0
  4  3  1  0  0  0  0
  5  4  2  0  0  0  0
  6  1  2  0  0  0  0
  6  5  1  0  0  0  0
  7  1  1  0  0  0  0
  8 17  2  0  0  0  0
  8  9  1  0  0  0  0
  9 10  2  0  0  0  0
 10 11  1  0  0  0  0
 10 19  1  0  0  0  0
 11 20  1  0  0  0  0
 12 13  1  0  0  0  0
 12 11  2  0  0  0  0
 13 21  1  0  0  0  0
 14 22  1  0  0  0  0
 14 13  2  0  0  0  0
 15 14  1  0  0  0  0
 16 15  2  0  0  0  0
 16 17  1  0  0  0  0
 17 12  1  0  0  0  0
 18  9  1  0  0  0  0
 23 15  1  0  0  0  0
 24 16  1  0  0  0  0
 25 24  1  0  0  0  0
 26 24  1  0  0  0  0
 27  5  1  0  0  0  0
 27 30  1  0  0  0  0
 28 27  1  0  0  0  0
 29 27  1  0  0  0  0
 31 32  1  0  0  0  0
 33 31  1  0  0  0  0
 34 31  1  0  0  0  0
 34 39  1  0  0  0  0
 34 35  1  0  0  0  0
 36 34  1  0  0  0  0
 37 38  2  0  0  0  0
 37 41  1  0  0  0  0
 39 37  1  0  0  0  0
 40 39  1  0  0  0  0
 42 43  1  0  0  0  0
 42 41  1  0  0  0  0
 43 41  1  0  0  0  0
M  END
>  <minimizedAffinity>
-6.02265978

$$$$

 OpenBabel03252500063D

 43 46  0  0  0  0  0  0  0  0999 V2000
   35.0550   28.8660   38.3830 C   0  0  0  0  0  0  0  0  0  0  0  0
   35.8440   29.7200   39.1510 C   0  0  0  0  0  0  0  0  0  0  0  0
   36.7700   30.5460   38.5140 C   0  0  0  0  0  0  0  0  0  0  0  0
   36.7970   30.4170   37.1650 N   0  0  0  0  0  0  0  0  0  0  0  0
   36.0540   29.6140   36.4530 C   0  0  0  0  0  0  0  0  0  0  0  0
   35.1880   28.8440   37.0740 N   0  0  0  0  0  0  0  0  0  0  0  0
   34.3440   28.2350   38.9040 H   0  0  0  0  0  0  0  0  0  0  0  0
   37.6420   31.4670   39.1490 C   0  0  0  0  0  0  0  0  0  0  0  0
   37.1550   32.7620   39.3380 C   0  0  0  0  0  0  0  0  0  0  0  0
   37.8590   33.7840   39.9350 C   0  0  0  0  0  0  0  0  0  0  0  0
   39.1190   33.5680   40.3870 C   0  0  0  0  0  0  0  0  0  0  0  0
   39.6610   32.3160   40.2330 C   0  0  0  0  0  0  0  0  0  0  0  0
   40.9180   32.0290   40.6620 C   0  0  0  0  0  0  0  0  0  0  0  0
   41.4980   30.7990   40.5280 C   0  0  0  0  0  0  0  0  0  0  0  0
   40.7350   29.7970   39.9130 C   0  0  0  0  0  0  0  0  0  0  0  0
   39.4600   30.1250   39.4900 C   0  0  0  0  0  0  0  0  0  0  0  0
   38.9070   31.3240   39.6250 C   0  0  0  0  0  0  0  0  0  0  0  0
   36.1400   33.0360   39.0040 H   0  0  0  0  0  0  0  0  0  0  0  0
   37.4270   34.7690   40.0530 H   0  0  0  0  0  0  0  0  0  0  0  0
   39.6700   34.3570   40.8500 H   0  0  0  0  0  0  0  0  0  0  0  0
   41.4780   32.8380   41.1340 H   0  0  0  0  0  0  0  0  0  0  0  0
   42.5090   30.6050   40.8840 H   0  0  0  0  0  0  0  0  0  0  0  0
   41.2250   28.8480   39.8280 H   0  0  0  0  0  0  0  0  0  0  0  0
   38.8410   28.9870   38.8760 N   0  0  0  0  0  0  0  0  0  0  0  0
   38.4690   28.4190   39.6960 H   0  0  0  0  0  0  0  0  0  0  0  0
   38.7220   28.6750   37.8950 H   0  0  0  0  0  0  0  0  0  0  0  0
   36.3020   29.6890   34.9720 C   0  0  0  0  0  0  0  0  0  0  0  0
   37.3190   28.8430   34.5930 F   0  0  0  0  0  0  0  0  0  0  0  0
   36.5760   30.9730   34.5880 F   0  0  0  0  0  0  0  0  0  0  0  0
   35.1070   29.3640   34.2900 F   0  0  0  0  0  0  0  0  0  0  0  0
   35.7860   29.8390   40.6030 C   0  0  0  0  0  0  0  0  0  0  0  0
   36.6010   30.5250   40.9240 H   0  0  0  0  0  0  0  0  0  0  0  0
   34.8430   30.3690   40.8860 H   0  0  0  0  0  0  0  0  0  0  0  0
   35.9180   28.5950   41.3760 C   0  0  0  0  0  0  0  0  0  0  0  0
   35.0160   28.6110   42.0770 H   0  0  0  0  0  0  0  0  0  0  0  0
   35.8930   27.6370   40.9420 H   0  0  0  0  0  0  0  0  0  0  0  0
   38.1850   27.9920   42.2910 C   0  0  0  0  0  0  0  0  0  0  0  0
   38.3040   27.1280   41.3510 O   0  0  0  0  0  0  0  0  0  0  0  0
   37.0240   28.8120   42.3490 N   0  0  0  0  0  0  0  0  0  0  0  0
   37.0470   29.5330   43.1060 H   0  0  0  0  0  0  0  0  0  0  0  0
   39.2780   28.1090   43.3030 C   0  0  0  0  0  3  0  0  0  0  0  0
   40.6720   27.8220   42.9430 C   0  0  0  0  0  2  0  0  0  0  0  0
   39.8690   26.7570   43.6800 C   0  0  0  0  0  2  0  0  0  0  0  0
  1  7  1  0  0  0  0
  1  2  1  0  0  0  0
  2 31  1  0  0  0  0
  3  8  1  0  0  0  0
  3  2  2  0  0  0  0
  4  3  1  0  0  0  0
  5  6  1  0  0  0  0
  5  4  2  0  0  0  0
  6  1  2  0  0  0  0
  8  9  2  0  0  0  0
  8 17  1  0  0  0  0
  9 10  1  0  0  0  0
 10 19  1  0  0  0  0
 10 11  2  0  0  0  0
 11 20  1  0  0  0  0
 12 11  1  0  0  0  0
 12 13  1  0  0  0  0
 13 21  1  0  0  0  0
 14 13  2  0  0  0  0
 14 22  1  0  0  0  0
 15 14  1  0  0  0  0
 16 17  1  0  0  0  0
 16 15  2  0  0  0  0
 17 12  2  0  0  0  0
 18  9  1  0  0  0  0
 23 15  1  0  0  0  0
 24 16  1  0  0  0  0
 24 25  1  0  0  0  0
 26 24  1  0  0  0  0
 27  5  1  0  0  0  0
 28 27  1  0  0  0  0
 29 27  1  0  0  0  0
 30 27  1  0  0  0  0
 31 33  1  0  0  0  0
 31 32  1  0  0  0  0
 31 34  1  0  0  0  0
 34 35  1  0  0  0  0
 34 39  1  0  0  0  0
 36 34  1  0  0  0  0
 37 39  1  0  0  0  0
 37 41  1  0  0  0  0
 38 37  2  0  0  0  0
 39 40  1  0  0  0  0
 41 43  1  0  0  0  0
 42 41  1  0  0  0  0
 42 43  1  0  0  0  0
M  END
>  <minimizedAffinity>
-5.97156334

$$$$

 OpenBabel03252500063D

 43 46  0  0  0  0  0  0  0  0999 V2000
   37.4190   29.5390   42.1920 C   0  0  0  0  0  0  0  0  0  0  0  0
   36.7250   29.7870   41.0090 C   0  0  0  0  0  0  0  0  0  0  0  0
   36.2850   28.7090   40.2410 C   0  0  0  0  0  0  0  0  0  0  0  0
   36.5950   27.4940   40.7550 N   0  0  0  0  0  0  0  0  0  0  0  0
   37.2450   27.2700   41.8650 C   0  0  0  0  0  0  0  0  0  0  0  0
   37.6510   28.3010   42.5730 N   0  0  0  0  0  0  0  0  0  0  0  0
   37.7500   30.3940   42.7690 H   0  0  0  0  0  0  0  0  0  0  0  0
   35.5690   28.7920   39.0190 C   0  0  0  0  0  0  0  0  0  0  0  0
   34.1850   28.9490   39.1140 C   0  0  0  0  0  0  0  0  0  0  0  0
   33.3320   29.0480   38.0370 C   0  0  0  0  0  0  0  0  0  0  0  0
   33.8230   28.9950   36.7750 C   0  0  0  0  0  0  0  0  0  0  0  0
   35.1770   28.8410   36.6080 C   0  0  0  0  0  0  0  0  0  0  0  0
   35.7370   28.7790   35.3710 C   0  0  0  0  0  0  0  0  0  0  0  0
   37.0780   28.6260   35.1580 C   0  0  0  0  0  0  0  0  0  0  0  0
   37.8980   28.5300   36.2900 C   0  0  0  0  0  0  0  0  0  0  0  0
   37.2930   28.5980   37.5320 C   0  0  0  0  0  0  0  0  0  0  0  0
   35.9890   28.7470   37.7270 C   0  0  0  0  0  0  0  0  0  0  0  0
   33.6910   29.0030   40.0990 H   0  0  0  0  0  0  0  0  0  0  0  0
   32.2660   29.1690   38.1740 H   0  0  0  0  0  0  0  0  0  0  0  0
   33.1660   29.0710   35.9360 H   0  0  0  0  0  0  0  0  0  0  0  0
   35.0630   28.8570   34.5160 H   0  0  0  0  0  0  0  0  0  0  0  0
   37.4930   28.5790   34.1520 H   0  0  0  0  0  0  0  0  0  0  0  0
   38.9420   28.4110   36.0800 H   0  0  0  0  0  0  0  0  0  0  0  0
   38.2800   28.4680   38.5640 N   0  0  0  0  0  0  0  0  0  0  0  0
   38.6860   29.4470   38.6610 H   0  0  0  0  0  0  0  0  0  0  0  0
   38.6150   27.6770   39.1450 H   0  0  0  0  0  0  0  0  0  0  0  0
   37.4410   25.8150   42.1870 C   0  0  0  0  0  0  0  0  0  0  0  0
   36.3520   25.3000   42.8520 F   0  0  0  0  0  0  0  0  0  0  0  0
   38.5840   25.6260   42.9160 F   0  0  0  0  0  0  0  0  0  0  0  0
   37.6690   25.1060   40.9860 F   0  0  0  0  0  0  0  0  0  0  0  0
   36.4030   31.1080   40.4860 C   0  0  0  0  0  0  0  0  0  0  0  0
   36.1240   30.9950   39.4140 H   0  0  0  0  0  0  0  0  0  0  0  0
   35.4710   31.4770   40.9810 H   0  0  0  0  0  0  0  0  0  0  0  0
   37.4570   32.1310   40.5680 C   0  0  0  0  0  0  0  0  0  0  0  0
   36.8810   33.1130   40.6510 H   0  0  0  0  0  0  0  0  0  0  0  0
   38.1610   32.1760   41.3480 H   0  0  0  0  0  0  0  0  0  0  0  0
   39.2880   31.6710   38.9010 C   0  0  0  0  0  0  0  0  0  0  0  0
   39.8780   30.9570   39.7880 O   0  0  0  0  0  0  0  0  0  0  0  0
   38.0300   32.2640   39.2010 N   0  0  0  0  0  0  0  0  0  0  0  0
   37.5930   32.7690   38.3950 H   0  0  0  0  0  0  0  0  0  0  0  0
   39.9460   31.8580   37.5740 C   0  0  0  0  0  3  0  0  0  0  0  0
   41.2930   31.3290   37.3190 C   0  0  0  0  0  2  0  0  0  0  0  0
   41.1330   32.8100   37.6420 C   0  0  0  0  0  2  0  0  0  0  0  0
  1  6  1  0  0  0  0
  1  7  1  0  0  0  0
  2  1  2  0  0  0  0
  3  4  2  0  0  0  0
  3  2  1  0  0  0  0
  4  5  1  0  0  0  0
  5 27  1  0  0  0  0
  5  6  2  0  0  0  0
  8  9  1  0  0  0  0
  8  3  1  0  0  0  0
  9 18  1  0  0  0  0
 10 19  1  0  0  0  0
 10  9  2  0  0  0  0
 11 10  1  0  0  0  0
 12 11  2  0  0  0  0
 12 17  1  0  0  0  0
 13 12  1  0  0  0  0
 14 13  2  0  0  0  0
 14 15  1  0  0  0  0
 15 16  2  0  0  0  0
 16 17  1  0  0  0  0
 16 24  1  0  0  0  0
 17  8  2  0  0  0  0
 20 11  1  0  0  0  0
 21 13  1  0  0  0  0
 22 14  1  0  0  0  0
 23 15  1  0  0  0  0
 24 25  1  0  0  0  0
 24 26  1  0  0  0  0
 27 28  1  0  0  0  0
 27 29  1  0  0  0  0
 30 27  1  0  0  0  0
 31 34  1  0  0  0  0
 31 33  1  0  0  0  0
 31  2  1  0  0  0  0
 32 31  1  0  0  0  0
 34 35  1  0  0  0  0
 34 36  1  0  0  0  0
 37 39  1  0  0  0  0
 37 38  2  0  0  0  0
 39 34  1  0  0  0  0
 40 39  1  0  0  0  0
 41 43  1  0  0  0  0
 41 37  1  0  0  0  0
 42 41  1  0  0  0  0
 42 43  1  0  0  0  0
M  END
>  <minimizedAffinity>
-5.9418087

$$$$

 OpenBabel03252500063D

 43 46  0  0  0  0  0  0  0  0999 V2000
   37.2210   31.0800   37.4700 C   0  0  0  0  0  0  0  0  0  0  0  0
   36.8040   29.9660   38.1970 C   0  0  0  0  0  0  0  0  0  0  0  0
   37.7630   29.1440   38.7900 C   0  0  0  0  0  0  0  0  0  0  0  0
   39.0420   29.5400   38.5830 N   0  0  0  0  0  0  0  0  0  0  0  0
   39.4240   30.5860   37.9000 C   0  0  0  0  0  0  0  0  0  0  0  0
   38.5040   31.3460   37.3500 N   0  0  0  0  0  0  0  0  0  0  0  0
   36.4560   31.7000   37.0190 H   0  0  0  0  0  0  0  0  0  0  0  0
   37.5040   27.9800   39.5580 C   0  0  0  0  0  0  0  0  0  0  0  0
   37.3490   26.7850   38.8520 C   0  0  0  0  0  0  0  0  0  0  0  0
   37.0940   25.5620   39.4300 C   0  0  0  0  0  0  0  0  0  0  0  0
   36.9750   25.4570   40.7760 C   0  0  0  0  0  0  0  0  0  0  0  0
   37.1160   26.5940   41.5330 C   0  0  0  0  0  0  0  0  0  0  0  0
   37.0100   26.5630   42.8870 C   0  0  0  0  0  0  0  0  0  0  0  0
   37.1420   27.6690   43.6790 C   0  0  0  0  0  0  0  0  0  0  0  0
   37.4010   28.8880   43.0370 C   0  0  0  0  0  0  0  0  0  0  0  0
   37.5030   28.8800   41.6580 C   0  0  0  0  0  0  0  0  0  0  0  0
   37.3730   27.8000   40.8990 C   0  0  0  0  0  0  0  0  0  0  0  0
   37.4270   26.7680   37.7520 H   0  0  0  0  0  0  0  0  0  0  0  0
   36.9830   24.6690   38.8290 H   0  0  0  0  0  0  0  0  0  0  0  0
   36.7770   24.5110   41.2290 H   0  0  0  0  0  0  0  0  0  0  0  0
   36.8070   25.5940   43.3470 H   0  0  0  0  0  0  0  0  0  0  0  0
   37.0500   27.6070   44.7630 H   0  0  0  0  0  0  0  0  0  0  0  0
   37.4980   29.7280   43.6930 H   0  0  0  0  0  0  0  0  0  0  0  0
   37.7540   30.2090   41.1800 N   0  0  0  0  0  0  0  0  0  0  0  0
   38.8030   30.3350   41.3010 H   0  0  0  0  0  0  0  0  0  0  0  0
   37.1530   30.9600   40.7950 H   0  0  0  0  0  0  0  0  0  0  0  0
   40.9140   30.7790   37.8420 C   0  0  0  0  0  0  0  0  0  0  0  0
   41.5590   29.6000   37.5490 F   0  0  0  0  0  0  0  0  0  0  0  0
   41.3840   31.3060   39.0150 F   0  0  0  0  0  0  0  0  0  0  0  0
   41.2120   31.7620   36.8720 F   0  0  0  0  0  0  0  0  0  0  0  0
   35.4180   29.5700   38.4050 C   0  0  0  0  0  0  0  0  0  0  0  0
   35.3880   28.8570   39.2590 H   0  0  0  0  0  0  0  0  0  0  0  0
   34.8360   30.4570   38.7590 H   0  0  0  0  0  0  0  0  0  0  0  0
   34.7300   28.9360   37.2700 C   0  0  0  0  0  0  0  0  0  0  0  0
   34.8730   29.6770   36.4140 H   0  0  0  0  0  0  0  0  0  0  0  0
   35.0170   28.0090   36.8630 H   0  0  0  0  0  0  0  0  0  0  0  0
   32.4060   29.4570   36.4520 C   0  0  0  0  0  0  0  0  0  0  0  0
   32.8810   29.5820   35.2680 O   0  0  0  0  0  0  0  0  0  0  0  0
   33.2700   29.0840   37.5190 N   0  0  0  0  0  0  0  0  0  0  0  0
   32.7810   28.9380   38.4320 H   0  0  0  0  0  0  0  0  0  0  0  0
   30.9510   29.7100   36.6730 C   0  0  0  0  0  3  0  0  0  0  0  0
   30.4540   31.0640   36.9490 C   0  0  0  0  0  2  0  0  0  0  0  0
   30.6410   30.0990   38.1130 C   0  0  0  0  0  2  0  0  0  0  0  0
  1  2  1  0  0  0  0
  2 31  1  0  0  0  0
  2  3  2  0  0  0  0
  3  8  1  0  0  0  0
  4  3  1  0  0  0  0
  5  4  2  0  0  0  0
  6  1  2  0  0  0  0
  6  5  1  0  0  0  0
  7  1  1  0  0  0  0
  8 17  1  0  0  0  0
  9 10  1  0  0  0  0
  9  8  2  0  0  0  0
 10 11  2  0  0  0  0
 11 20  1  0  0  0  0
 11 12  1  0  0  0  0
 12 13  1  0  0  0  0
 13 21  1  0  0  0  0
 13 14  2  0  0  0  0
 14 22  1  0  0  0  0
 15 14  1  0  0  0  0
 15 23  1  0  0  0  0
 16 15  2  0  0  0  0
 17 12  2  0  0  0  0
 17 16  1  0  0  0  0
 18  9  1  0  0  0  0
 19 10  1  0  0  0  0
 24 25  1  0  0  0  0
 24 16  1  0  0  0  0
 26 24  1  0  0  0  0
 27  5  1  0  0  0  0
 27 29  1  0  0  0  0
 28 27  1  0  0  0  0
 30 27  1  0  0  0  0
 31 33  1  0  0  0  0
 31 32  1  0  0  0  0
 34 39  1  0  0  0  0
 34 31  1  0  0  0  0
 35 34  1  0  0  0  0
 36 34  1  0  0  0  0
 37 41  1  0  0  0  0
 37 39  1  0  0  0  0
 38 37  2  0  0  0  0
 39 40  1  0  0  0  0
 41 42  1  0  0  0  0
 41 43  1  0  0  0  0
 42 43  1  0  0  0  0
M  END
>  <minimizedAffinity>
-5.88657141

$$$$

 OpenBabel03252500063D

 43 46  0  0  0  0  0  0  0  0999 V2000
   36.8350   28.7300   36.5460 C   0  0  0  0  0  0  0  0  0  0  0  0
   37.2770   28.0630   37.6870 C   0  0  0  0  0  0  0  0  0  0  0  0
   36.3470   27.6810   38.6540 C   0  0  0  0  0  0  0  0  0  0  0  0
   35.0680   28.0160   38.3600 N   0  0  0  0  0  0  0  0  0  0  0  0
   34.6610   28.6400   37.2880 C   0  0  0  0  0  0  0  0  0  0  0  0
   35.5550   28.9910   36.3900 N   0  0  0  0  0  0  0  0  0  0  0  0
   37.5790   29.0150   35.8110 H   0  0  0  0  0  0  0  0  0  0  0  0
   36.6340   26.9990   39.8640 C   0  0  0  0  0  0  0  0  0  0  0  0
   36.6100   25.6040   39.8180 C   0  0  0  0  0  0  0  0  0  0  0  0
   36.8630   24.7800   40.8920 C   0  0  0  0  0  0  0  0  0  0  0  0
   37.1610   25.3120   42.1020 C   0  0  0  0  0  0  0  0  0  0  0  0
   37.2020   26.6790   42.2190 C   0  0  0  0  0  0  0  0  0  0  0  0
   37.4940   27.2820   43.4020 C   0  0  0  0  0  0  0  0  0  0  0  0
   37.5450   28.6380   43.5660 C   0  0  0  0  0  0  0  0  0  0  0  0
   37.2790   29.4270   42.4390 C   0  0  0  0  0  0  0  0  0  0  0  0
   36.9860   28.7800   41.2520 C   0  0  0  0  0  0  0  0  0  0  0  0
   36.9390   27.4620   41.1060 C   0  0  0  0  0  0  0  0  0  0  0  0
   36.3770   25.0760   38.8770 H   0  0  0  0  0  0  0  0  0  0  0  0
   36.8290   23.7030   40.7930 H   0  0  0  0  0  0  0  0  0  0  0  0
   37.3580   24.6780   42.9380 H   0  0  0  0  0  0  0  0  0  0  0  0
   37.6940   26.6300   44.2550 H   0  0  0  0  0  0  0  0  0  0  0  0
   37.7820   29.0860   44.5300 H   0  0  0  0  0  0  0  0  0  0  0  0
   37.3290   30.4830   42.6090 H   0  0  0  0  0  0  0  0  0  0  0  0
   36.7290   29.7430   40.2210 N   0  0  0  0  0  0  0  0  0  0  0  0
   37.6970   30.0230   39.8800 H   0  0  0  0  0  0  0  0  0  0  0  0
   35.8670   30.1520   39.8190 H   0  0  0  0  0  0  0  0  0  0  0  0
   33.1770   28.8740   37.2300 C   0  0  0  0  0  0  0  0  0  0  0  0
   32.6840   29.2510   38.4580 F   0  0  0  0  0  0  0  0  0  0  0  0
   32.5260   27.7620   36.7710 F   0  0  0  0  0  0  0  0  0  0  0  0
   32.9070   29.8660   36.2610 F   0  0  0  0  0  0  0  0  0  0  0  0
   38.6630   27.7130   37.9710 C   0  0  0  0  0  0  0  0  0  0  0  0
   39.0980   28.5180   38.6040 H   0  0  0  0  0  0  0  0  0  0  0  0
   38.6820   26.8030   38.6220 H   0  0  0  0  0  0  0  0  0  0  0  0
   39.5510   27.5240   36.8150 C   0  0  0  0  0  0  0  0  0  0  0  0
   40.3570   26.8140   37.2000 H   0  0  0  0  0  0  0  0  0  0  0  0
   39.2380   27.0940   35.9070 H   0  0  0  0  0  0  0  0  0  0  0  0
   41.7500   28.7120   36.5010 C   0  0  0  0  0  0  0  0  0  0  0  0
   42.3200   27.5690   36.3890 O   0  0  0  0  0  0  0  0  0  0  0  0
   40.3390   28.7790   36.6720 N   0  0  0  0  0  0  0  0  0  0  0  0
   39.9570   29.7530   36.6830 H   0  0  0  0  0  0  0  0  0  0  0  0
   42.5930   29.9440   36.4480 C   0  0  0  0  0  3  0  0  0  0  0  0
   43.6350   30.1010   35.4240 C   0  0  0  0  0  2  0  0  0  0  0  0
   44.0420   29.6740   36.8290 C   0  0  0  0  0  2  0  0  0  0  0  0
  1  2  1  0  0  0  0
  2 31  1  0  0  0  0
  2  3  2  0  0  0  0
  3  8  1  0  0  0  0
  4  3  1  0  0  0  0
  5  4  2  0  0  0  0
  6  1  2  0  0  0  0
  6  5  1  0  0  0  0
  7  1  1  0  0  0  0
  8 17  1  0  0  0  0
  9  8  2  0  0  0  0
  9 10  1  0  0  0  0
 10 11  2  0  0  0  0
 11 12  1  0  0  0  0
 11 20  1  0  0  0  0
 12 13  1  0  0  0  0
 13 14  2  0  0  0  0
 13 21  1  0  0  0  0
 14 22  1  0  0  0  0
 15 23  1  0  0  0  0
 15 14  1  0  0  0  0
 16 15  2  0  0  0  0
 17 16  1  0  0  0  0
 17 12  2  0  0  0  0
 18  9  1  0  0  0  0
 19 10  1  0  0  0  0
 24 16  1  0  0  0  0
 25 24  1  0  0  0  0
 26 24  1  0  0  0  0
 27  5  1  0  0  0  0
 27 28  1  0  0  0  0
 29 27  1  0  0  0  0
 30 27  1  0  0  0  0
 31 32  1  0  0  0  0
 31 33  1  0  0  0  0
 34 35  1  0  0  0  0
 34 31  1  0  0  0  0
 36 34  1  0  0  0  0
 37 39  1  0  0  0  0
 38 37  2  0  0  0  0
 39 40  1  0  0  0  0
 39 34  1  0  0  0  0
 41 37  1  0  0  0  0
 41 43  1  0  0  0  0
 42 41  1  0  0  0  0
 42 43  1  0  0  0  0
M  END
>  <minimizedAffinity>
-5.88494587

$$$$

 OpenBabel03252500063D

 43 46  0  0  0  0  0  0  0  0999 V2000
   36.7780   30.2300   38.0470 C   0  0  0  0  0  0  0  0  0  0  0  0
   36.9210   29.2630   39.0400 C   0  0  0  0  0  0  0  0  0  0  0  0
   37.4510   29.6320   40.2770 C   0  0  0  0  0  0  0  0  0  0  0  0
   37.7780   30.9430   40.3740 N   0  0  0  0  0  0  0  0  0  0  0  0
   37.6410   31.8440   39.4390 C   0  0  0  0  0  0  0  0  0  0  0  0
   37.1410   31.4730   38.2810 N   0  0  0  0  0  0  0  0  0  0  0  0
   36.3650   29.9160   37.0960 H   0  0  0  0  0  0  0  0  0  0  0  0
   37.6580   28.7720   41.3850 C   0  0  0  0  0  0  0  0  0  0  0  0
   36.5350   28.4630   42.1570 C   0  0  0  0  0  0  0  0  0  0  0  0
   36.5480   27.6460   43.2660 C   0  0  0  0  0  0  0  0  0  0  0  0
   37.7070   27.0800   43.6800 C   0  0  0  0  0  0  0  0  0  0  0  0
   38.8510   27.3420   42.9670 C   0  0  0  0  0  0  0  0  0  0  0  0
   40.0490   26.8080   43.3250 C   0  0  0  0  0  0  0  0  0  0  0  0
   41.2120   27.0430   42.6470 C   0  0  0  0  0  0  0  0  0  0  0  0
   41.1400   27.8800   41.5260 C   0  0  0  0  0  0  0  0  0  0  0  0
   39.9040   28.4050   41.1920 C   0  0  0  0  0  0  0  0  0  0  0  0
   38.7820   28.1710   41.8580 C   0  0  0  0  0  0  0  0  0  0  0  0
   35.5450   28.8760   41.9000 H   0  0  0  0  0  0  0  0  0  0  0  0
   35.6430   27.4440   43.8240 H   0  0  0  0  0  0  0  0  0  0  0  0
   37.7230   26.4460   44.5390 H   0  0  0  0  0  0  0  0  0  0  0  0
   40.0610   26.1610   44.2040 H   0  0  0  0  0  0  0  0  0  0  0  0
   42.1550   26.5970   42.9630 H   0  0  0  0  0  0  0  0  0  0  0  0
   42.0720   28.0380   41.0230 H   0  0  0  0  0  0  0  0  0  0  0  0
   40.0270   29.2440   40.0350 N   0  0  0  0  0  0  0  0  0  0  0  0
   40.0080   28.5640   39.2170 H   0  0  0  0  0  0  0  0  0  0  0  0
   40.1230   30.2670   39.8950 H   0  0  0  0  0  0  0  0  0  0  0  0
   38.0890   33.2230   39.8340 C   0  0  0  0  0  0  0  0  0  0  0  0
   37.1170   34.1590   39.5640 F   0  0  0  0  0  0  0  0  0  0  0  0
   39.2610   33.5530   39.2100 F   0  0  0  0  0  0  0  0  0  0  0  0
   38.4100   33.2240   41.2100 F   0  0  0  0  0  0  0  0  0  0  0  0
   36.5530   27.8590   38.9050 C   0  0  0  0  0  0  0  0  0  0  0  0
   36.1790   27.5050   39.8910 H   0  0  0  0  0  0  0  0  0  0  0  0
   35.6690   27.7800   38.2240 H   0  0  0  0  0  0  0  0  0  0  0  0
   37.6100   26.9350   38.4690 C   0  0  0  0  0  0  0  0  0  0  0  0
   37.1380   26.3700   37.5960 H   0  0  0  0  0  0  0  0  0  0  0  0
   38.5420   27.2530   38.0980 H   0  0  0  0  0  0  0  0  0  0  0  0
   38.9110   25.1800   39.7220 C   0  0  0  0  0  0  0  0  0  0  0  0
   39.9690   25.5660   39.1090 O   0  0  0  0  0  0  0  0  0  0  0  0
   37.6790   25.8530   39.4890 N   0  0  0  0  0  0  0  0  0  0  0  0
   36.8880   25.5150   40.0850 H   0  0  0  0  0  0  0  0  0  0  0  0
   39.0070   24.0270   40.6670 C   0  0  0  0  0  3  0  0  0  0  0  0
   38.0410   22.9220   40.6070 C   0  0  0  0  0  2  0  0  0  0  0  0
   37.8610   23.9990   41.6690 C   0  0  0  0  0  2  0  0  0  0  0  0
  1  6  2  0  0  0  0
  1  2  1  0  0  0  0
  2  3  2  0  0  0  0
  3  4  1  0  0  0  0
  3  8  1  0  0  0  0
  5 27  1  0  0  0  0
  5  4  2  0  0  0  0
  6  5  1  0  0  0  0
  7  1  1  0  0  0  0
  8 17  2  0  0  0  0
  8  9  1  0  0  0  0
  9 10  2  0  0  0  0
 10 11  1  0  0  0  0
 10 19  1  0  0  0  0
 11 20  1  0  0  0  0
 12 13  1  0  0  0  0
 12 11  2  0  0  0  0
 13 21  1  0  0  0  0
 14 22  1  0  0  0  0
 14 13  2  0  0  0  0
 15 14  1  0  0  0  0
 16 15  2  0  0  0  0
 16 17  1  0  0  0  0
 17 12  1  0  0  0  0
 18  9  1  0  0  0  0
 23 15  1  0  0  0  0
 24 16  1  0  0  0  0
 25 24  1  0  0  0  0
 26 24  1  0  0  0  0
 27 30  1  0  0  0  0
 28 27  1  0  0  0  0
 29 27  1  0  0  0  0
 31  2  1  0  0  0  0
 31 32  1  0  0  0  0
 33 31  1  0  0  0  0
 34 31  1  0  0  0  0
 34 39  1  0  0  0  0
 35 34  1  0  0  0  0
 36 34  1  0  0  0  0
 37 41  1  0  0  0  0
 38 37  2  0  0  0  0
 39 37  1  0  0  0  0
 39 40  1  0  0  0  0
 41 43  1  0  0  0  0
 42 41  1  0  0  0  0
 42 43  1  0  0  0  0
M  END
>  <minimizedAffinity>
-5.8202219

$$$$
