REMARK  Name = 
REMARK  2 active torsions:
REMARK  status: ('A' for Active; 'I' for Inactive)
REMARK    1  A    between atoms: C_3  and  C_7
REMARK    2  A    between atoms: C_7  and  C_13
REMARK                            x       y       z     vdW  Elec       q    Type
REMARK                         _______ _______ _______ _____ _____    ______ ____
ROOT
ATOM      1  C   UNL     1      44.566  36.006  44.491  0.00  0.00    +0.000 A 
ATOM      2  C   UNL     1      45.305  35.922  43.297  0.00  0.00    +0.000 A 
ATOM      3  C   UNL     1      46.190  34.858  43.179  0.00  0.00    +0.000 A 
ATOM      4  N   UNL     1      46.302  33.965  44.195  0.00  0.00    +0.000 NA
ATOM      5  C   UNL     1      45.574  34.080  45.327  0.00  0.00    +0.000 A 
ATOM      6  N   UNL     1      44.711  35.106  45.459  0.00  0.00    +0.000 NA
ATOM      7  H   UNL     1      43.859  36.813  44.644  0.00  0.00    +0.000 HD
ATOM      8  H   UNL     1      45.133  36.681  42.569  0.00  0.00    +0.000 HD
ATOM      9  H   UNL     1      45.633  33.393  46.157  0.00  0.00    +0.000 HD
ENDROOT
BRANCH   3  10
ATOM     10  C   UNL     1      46.955  34.778  41.934  0.00  0.00    +0.000 C 
ATOM     11  H   UNL     1      47.490  35.730  41.759  0.00  0.00    +0.000 HD
ATOM     12  H   UNL     1      46.203  34.714  41.104  0.00  0.00    +0.000 HD
BRANCH  10  13
ATOM     13  C   UNL     1      47.864  33.585  41.948  0.00  0.00    +0.000 C 
ATOM     14  C   UNL     1      48.347  33.182  43.324  0.00  0.00    +0.000 C 
ATOM     15  C   UNL     1      47.433  32.285  42.507  0.00  0.00    +0.000 C 
ENDBRANCH  10  13
ENDBRANCH   3  10
TORSDOF 2
