
 OpenBabel03242512593D

 29 32  0  0  0  0  0  0  0  0999 V2000
   45.3070   33.3170   41.0760 F   0  0  0  0  0  0  0  0  0  0  0  0
   46.4700   34.0050   40.9450 C   0  0  0  0  0  0  0  0  0  0  0  0
   46.9350   34.8070   41.9610 C   0  0  0  0  0  0  0  0  0  0  0  0
   48.1280   35.4650   41.7300 C   0  0  0  0  0  0  0  0  0  0  0  0
   48.8470   35.3610   40.5770 C   0  0  0  0  0  0  0  0  0  0  0  0
   48.3320   34.5420   39.5930 C   0  0  0  0  0  0  0  0  0  0  0  0
   47.1450   33.8590   39.7650 C   0  0  0  0  0  0  0  0  0  0  0  0
   48.5080   36.1030   42.5240 H   0  0  0  0  0  0  0  0  0  0  0  0
   49.7770   35.8760   40.4020 H   0  0  0  0  0  0  0  0  0  0  0  0
   48.8450   34.4100   38.6540 H   0  0  0  0  0  0  0  0  0  0  0  0
   44.4840   35.9830   44.6030 C   0  0  0  0  0  0  0  0  0  0  0  0
   45.2240   35.9270   43.4060 C   0  0  0  0  0  0  0  0  0  0  0  0
   46.1540   34.9030   43.1780 C   0  0  0  0  0  0  0  0  0  0  0  0
   46.2860   33.9830   44.1840 N   0  0  0  0  0  0  0  0  0  0  0  0
   45.5620   34.0620   45.3250 C   0  0  0  0  0  0  0  0  0  0  0  0
   44.6760   35.0490   45.5260 N   0  0  0  0  0  0  0  0  0  0  0  0
   43.7690   36.7710   44.7790 H   0  0  0  0  0  0  0  0  0  0  0  0
   45.0740   36.6720   42.6640 H   0  0  0  0  0  0  0  0  0  0  0  0
   45.8000   33.2490   46.0050 H   0  0  0  0  0  0  0  0  0  0  0  0
   46.6180   32.9980   38.7140 C   0  0  0  0  0  0  0  0  0  0  0  0
   46.3670   31.6460   38.7960 C   0  0  0  0  0  0  0  0  0  0  0  0
   45.8720   31.2190   37.5730 C   0  0  0  0  0  0  0  0  0  0  0  0
   45.8400   32.3250   36.7910 N   0  0  0  0  0  0  0  0  0  0  0  0
   46.2810   33.3980   37.4530 N   0  0  0  0  0  0  0  0  0  0  0  0
   46.5230   31.0120   39.6600 H   0  0  0  0  0  0  0  0  0  0  0  0
   45.5770   30.2220   37.3020 H   0  0  0  0  0  0  0  0  0  0  0  0
   45.3910   32.3760   35.4090 C   0  0  0  0  0  0  0  0  0  0  0  0
   46.4270   31.9450   34.3370 C   0  0  0  0  0  0  0  0  0  0  0  0
   45.1910   31.1470   34.6340 C   0  0  0  0  0  0  0  0  0  0  0  0
  2  1  1  0  0  0  0
  2  3  1  0  0  0  0
  3 13  1  0  0  0  0
  4  3  2  0  0  0  0
  4  8  1  0  0  0  0
  5  4  1  0  0  0  0
  6  7  1  0  0  0  0
  6  5  2  0  0  0  0
  7  2  2  0  0  0  0
  9  5  1  0  0  0  0
 10  6  1  0  0  0  0
 11 17  1  0  0  0  0
 11 16  1  0  0  0  0
 12 11  2  0  0  0  0
 13 12  1  0  0  0  0
 13 14  2  0  0  0  0
 14 15  1  0  0  0  0
 15 16  2  0  0  0  0
 15 19  1  0  0  0  0
 18 12  1  0  0  0  0
 20 21  1  0  0  0  0
 20  7  1  0  0  0  0
 21 25  1  0  0  0  0
 22 21  2  0  0  0  0
 23 24  1  0  0  0  0
 23 22  1  0  0  0  0
 24 20  2  0  0  0  0
 26 22  1  0  0  0  0
 27 23  1  0  0  0  0
 28 29  1  0  0  0  0
 28 27  1  0  0  0  0
 29 27  1  0  0  0  0
M  END
>  <minimizedAffinity>
-5.66083908

>  <minimizedRMSD>
1.02853465

$$$$
