
 OpenBabel03242520003D

 24 26  0  0  1  0  0  0  0  0999 V2000
   44.7100   33.0080   41.1980 Br  0  0  0  0  0  0  0  0  0  0  0  0
   46.3570   33.9560   41.0050 C   0  0  0  0  0  0  0  0  0  0  0  0
   46.8560   34.7670   41.9890 C   0  0  0  0  0  0  0  0  0  0  0  0
   48.0530   35.4320   41.7450 C   0  0  0  0  0  0  0  0  0  0  0  0
   48.7440   35.2960   40.5480 C   0  0  0  0  0  0  0  0  0  0  0  0
   48.2360   34.4690   39.5480 C   0  0  0  0  0  0  0  0  0  0  0  0
   47.0420   33.8240   39.8250 C   0  0  0  0  0  0  0  0  0  0  0  0
   48.4180   36.0610   42.5350 H   0  0  0  0  0  0  0  0  0  0  0  0
   49.6610   35.8150   40.3790 H   0  0  0  0  0  0  0  0  0  0  0  0
   48.7810   34.3680   38.6190 H   0  0  0  0  0  0  0  0  0  0  0  0
   44.4930   35.9050   44.7140 C   0  0  0  0  0  0  0  0  0  0  0  0
   45.1930   35.8560   43.4930 C   0  0  0  0  0  0  0  0  0  0  0  0
   46.1060   34.8650   43.2340 C   0  0  0  0  0  0  0  0  0  0  0  0
   46.2700   33.9520   44.2490 N   0  0  0  0  0  0  0  0  0  0  0  0
   45.6010   34.0070   45.4040 C   0  0  0  0  0  0  0  0  0  0  0  0
   44.7270   34.9680   45.6360 N   0  0  0  0  0  0  0  0  0  0  0  0
   43.8110   36.7250   44.7930 H   0  0  0  0  0  0  0  0  0  0  0  0
   45.0450   36.5860   42.7100 H   0  0  0  0  0  0  0  0  0  0  0  0
   45.8500   33.2110   46.0950 H   0  0  0  0  0  0  0  0  0  0  0  0
   46.5600   32.9470   38.7870 C   0  0  1  0  0  0  0  0  0  0  0  0
   45.7640   33.3840   37.8690 O   0  0  0  0  0  0  0  0  0  0  0  0
   46.8240   31.5190   38.5450 C   0  0  0  0  0  0  0  0  0  0  0  0
   47.8350   30.7720   39.4020 C   0  0  0  0  0  0  0  0  0  0  0  0
   48.1700   31.0730   37.9870 C   0  0  0  0  0  0  0  0  0  0  0  0
  2  1  1  0  0  0  0
  2  3  1  0  0  0  0
  3 13  1  0  0  0  0
  4  3  2  0  0  0  0
  4  8  1  0  0  0  0
  5  4  1  0  0  0  0
  6  7  1  0  0  0  0
  6  5  2  0  0  0  0
  7  2  2  0  0  0  0
  9  5  1  0  0  0  0
 10  6  1  0  0  0  0
 11 17  1  0  0  0  0
 11 16  1  0  0  0  0
 12 11  2  0  0  0  0
 13 12  1  0  0  0  0
 13 14  2  0  0  0  0
 14 15  1  0  0  0  0
 15 16  2  0  0  0  0
 15 19  1  0  0  0  0
 18 12  1  0  0  0  0
 20 21  1  6  0  0  0
 20  7  1  0  0  0  0
 22 20  1  0  0  0  0
 22 23  1  0  0  0  0
 24 22  1  0  0  0  0
 24 23  1  0  0  0  0
M  END
>  <minimizedAffinity>
-5.01468754

>  <minimizedRMSD>
0.817279398

$$$$
