
     RDKit          3D

 40 43  0  0  0  0  0  0  0  0999 V2000
   45.2840   35.2741   43.1374 Cl  0  0  0  0  0  0  0  0  0  0  0  0
   45.1655   34.5248   41.5669 C   0  0  0  0  0  0  0  0  0  0  0  0
   46.2635   34.1386   40.8816 C   0  0  0  0  0  0  0  0  0  0  0  0
   46.0705   33.5620   39.6401 C   0  0  0  0  0  0  0  0  0  0  0  0
   44.8212   33.3800   39.1026 C   0  0  0  0  0  0  0  0  0  0  0  0
   43.7246   33.7716   39.8014 C   0  0  0  0  0  0  0  0  0  0  0  0
   43.9049   34.3480   41.0432 C   0  0  0  0  0  0  0  0  0  0  0  0
   49.5396   35.7524   41.8842 C   0  0  0  0  0  0  0  0  0  0  0  0
   48.2790   35.5504   41.3108 C   0  0  0  0  0  0  0  0  0  0  0  0
   47.5782   34.3589   41.4748 C   0  0  0  0  0  0  0  0  0  0  0  0
   48.2008   33.4367   42.2148 N   0  0  0  0  0  0  0  0  0  0  0  0
   49.4046   33.6195   42.7671 C   0  0  0  0  0  0  0  0  0  0  0  0
   50.0678   34.7671   42.6031 N   0  0  0  0  0  0  0  0  0  0  0  0
   47.8070   31.8841   38.9862 C   0  0  0  0  0  0  0  0  0  0  0  0
   47.2333   33.1145   38.8750 C   0  0  0  0  0  0  0  0  0  0  0  0
   47.7642   34.0254   37.9814 C   0  0  0  0  0  0  0  0  0  0  0  0
   48.8561   33.6895   37.2155 C   0  0  0  0  0  0  0  0  0  0  0  0
   49.4554   32.4409   37.3113 C   0  0  0  0  0  0  0  0  0  0  0  0
   48.9142   31.5317   38.2141 C   0  0  0  0  0  0  0  0  0  0  0  0
   47.1875   30.7182   40.0264 S   0  0  0  0  0  0  0  0  0  0  0  0
   46.7703   29.4464   39.3320 O   0  0  0  0  0  0  0  0  0  0  0  0
   48.4106   30.2693   40.8819 O   0  0  0  0  0  0  0  0  0  0  0  0
   44.7253   32.9266   38.1286 H   0  0  0  0  0  0  0  0  0  0  0  0
   42.7318   33.6457   39.4166 H   0  0  0  0  0  0  0  0  0  0  0  0
   43.0264   34.6585   41.5966 H   0  0  0  0  0  0  0  0  0  0  0  0
   50.0146   36.7132   41.7043 H   0  0  0  0  0  0  0  0  0  0  0  0
   47.8218   36.3356   40.7190 H   0  0  0  0  0  0  0  0  0  0  0  0
   49.8952   32.8556   43.3671 H   0  0  0  0  0  0  0  0  0  0  0  0
   47.3364   35.0033   37.8710 H   0  0  0  0  0  0  0  0  0  0  0  0
   49.2463   34.4182   36.5303 H   0  0  0  0  0  0  0  0  0  0  0  0
   50.3015   32.1810   36.7164 H   0  0  0  0  0  0  0  0  0  0  0  0
   49.3890   30.5754   38.2743 H   0  0  0  0  0  0  0  0  0  0  0  0
   46.0454   30.9713   41.2683 C   0  0  0  0  0  0  0  0  0  0  0  0
   46.7444   31.0498   42.6507 C   0  0  0  0  0  0  0  0  0  0  0  0
   45.9472   32.1615   42.1664 C   0  0  0  0  0  0  0  0  0  0  0  0
   45.1781   30.2700   41.4120 H   0  0  0  0  0  0  0  0  0  0  0  0
   46.3564   30.5065   43.5170 H   0  0  0  0  0  0  0  0  0  0  0  0
   47.8379   31.1794   42.7089 H   0  0  0  0  0  0  0  0  0  0  0  0
   44.9773   32.4099   42.6377 H   0  0  0  0  0  0  0  0  0  0  0  0
   46.5000   33.1015   41.9019 H   0  0  0  0  0  0  0  0  0  0  0  0
  2  1  1  0
  3 10  1  0
  3  2  2  0
  4  3  1  0
  5  4  2  0
  5  6  1  0
  6  7  2  0
  7  2  1  0
  8 13  2  0
  9 10  2  0
  9  8  1  0
 10 11  1  0
 11 12  2  0
 13 12  1  0
 14 20  1  0
 15 14  1  0
 15  4  1  0
 16 15  2  0
 17 18  2  0
 17 16  1  0
 18 19  1  0
 19 14  2  0
 20 22  2  0
 21 20  2  0
  5 23  1  0
  6 24  1  0
  7 25  1  0
  8 26  1  0
  9 27  1  0
 12 28  1  0
 16 29  1  0
 17 30  1  0
 18 31  1  0
 19 32  1  0
 33 34  1  0
 34 35  1  0
 35 33  1  0
 33 36  1  0
 34 37  1  0
 34 38  1  0
 35 39  1  0
 35 40  1  0
 20 33  1  0
M  ISO  8  23  14  24  14  25  14  26  14  27  14  28  14  29  14  30  14
M  ISO  2  31  14  32  14
M  END
>  <DihAtoms>  (1) 
13,19,32,33

>  <DihDeg>  (1) 
-175.70123627706607

$$$$
