REMARK  Name = 
REMARK  5 active torsions:
REMARK  status: ('A' for Active; 'I' for Inactive)
REMARK    1  A    between atoms: C_1  and  C_2
REMARK    2  A    between atoms: C_1  and  C_9
REMARK    3  A    between atoms: C_4  and  C_5
REMARK    4  A    between atoms: C_8  and  C_14
REMARK    5  A    between atoms: C_12  and  C_31
REMARK                            x       y       z     vdW  Elec       q    Type
REMARK                         _______ _______ _______ _____ _____    ______ ____
ROOT
ATOM      1  C   UNL     1      47.138  31.273  46.721  0.00  0.00    +0.000 C 
ATOM      2  H   UNL     1      46.391  30.497  46.453  0.00  0.00    +0.000 HD
ATOM      3  H   UNL     1      48.167  30.912  46.689  0.00  0.00    +0.000 HD
ENDROOT
BRANCH   1   4
ATOM      4  C   UNL     1      46.778  31.781  48.097  0.00  0.00    +0.000 C 
ATOM      5  C   UNL     1      46.180  30.787  49.029  0.00  0.00    +0.000 C 
ATOM      6  C   UNL     1      47.522  31.276  49.276  0.00  0.00    +0.000 C 
ATOM      7  H   UNL     1      46.444  32.837  48.167  0.00  0.00    +0.000 HD
ATOM      8  H   UNL     1      46.025  29.748  48.668  0.00  0.00    +0.000 HD
ATOM      9  H   UNL     1      45.324  31.131  49.668  0.00  0.00    +0.000 HD
ATOM     10  H   UNL     1      47.609  31.982  50.159  0.00  0.00    +0.000 HD
BRANCH   6  11
ATOM     11  C   UNL     1      48.769  30.513  49.039  0.00  0.00    +0.000 C 
ATOM     12  C   UNL     1      49.599  30.229  50.318  0.00  0.00    +0.000 C 
ATOM     13  C   UNL     1      50.088  31.236  49.352  0.00  0.00    +0.000 C 
ATOM     14  H   UNL     1      48.809  29.737  48.247  0.00  0.00    +0.000 HD
ATOM     15  H   UNL     1      49.131  30.480  51.278  0.00  0.00    +0.000 HD
ATOM     16  H   UNL     1      50.121  29.240  50.300  0.00  0.00    +0.000 HD
ATOM     17  H   UNL     1      49.971  32.297  49.712  0.00  0.00    +0.000 HD
ATOM     18  H   UNL     1      50.949  30.988  48.718  0.00  0.00    +0.000 HD
ENDBRANCH   6  11
ENDBRANCH   1   4
BRANCH   1  20
ATOM     19  C   UNL     1      45.927  33.142  45.912  0.00  0.00    +0.000 C 
ATOM     20  C   UNL     1      46.925  32.377  45.693  0.00  0.00    +0.000 C 
BRANCH  19  25
ATOM     21  C   UNL     1      44.485  36.146  44.344  0.00  0.00    +0.000 A 
ATOM     22  C   UNL     1      45.117  36.199  43.109  0.00  0.00    +0.000 A 
ATOM     23  C   UNL     1      46.040  35.201  42.846  0.00  0.00    +0.000 A 
ATOM     24  N   UNL     1      46.261  34.264  43.777  0.00  0.00    +0.000 NA
ATOM     25  C   UNL     1      45.646  34.218  44.966  0.00  0.00    +0.000 A 
ATOM     26  N   UNL     1      44.763  35.171  45.225  0.00  0.00    +0.000 NA
ATOM     27  H   UNL     1      43.762  36.921  44.561  0.00  0.00    +0.000 HD
ATOM     28  H   UNL     1      44.922  36.958  42.385  0.00  0.00    +0.000 HD
BRANCH  23  29
ATOM     29  C   UNL     1      46.767  35.194  41.528  0.00  0.00    +0.000 C 
ATOM     30  C   UNL     1      45.904  34.567  40.391  0.00  0.00    +0.000 C 
ATOM     31  C   UNL     1      46.318  36.026  40.411  0.00  0.00    +0.000 C 
ENDBRANCH  23  29
ENDBRANCH  19  25
ENDBRANCH   1  20
TORSDOF 5
