REMARK  Name = 
REMARK  3 active torsions:
REMARK  status: ('A' for Active; 'I' for Inactive)
REMARK    1  A    between atoms: C_1  and  N_9
REMARK    2  A    between atoms: C_2  and  N_10
REMARK    3  A    between atoms: C_7  and  C_16
REMARK                            x       y       z     vdW  Elec       q    Type
REMARK                         _______ _______ _______ _____ _____    ______ ____
ROOT
ATOM      1  C   UNL     1      45.311  34.558  45.030  0.00  0.00    +0.000 A 
ATOM      2  C   UNL     1      45.262  33.941  46.266  0.00  0.00    +0.000 A 
ATOM      3  C   UNL     1      46.164  32.904  46.471  0.00  0.00    +0.000 A 
ATOM      4  N   UNL     1      47.001  32.583  45.473  0.00  0.00    +0.000 NA
ATOM      5  C   UNL     1      47.022  33.201  44.287  0.00  0.00    +0.000 A 
ATOM      6  N   UNL     1      46.160  34.216  44.047  0.00  0.00    +0.000 NA
ATOM      7  H   UNL     1      46.114  32.432  47.441  0.00  0.00    +0.000 HD
ATOM      8  H   UNL     1      47.751  32.836  43.576  0.00  0.00    +0.000 HD
ENDROOT
BRANCH   1  11
ATOM      9  C   UNL     1      43.963  35.389  43.300  0.00  0.00    +0.000 C 
ATOM     10  O   UNL     1      44.410  34.274  42.847  0.00  0.00    +0.000 OA
ATOM     11  N   UNL     1      44.458  35.657  44.613  0.00  0.00    +0.000 N 
ATOM     12  H   UNL     1      44.199  36.530  45.123  0.00  0.00    +0.000 HD
BRANCH   9  13
ATOM     13  C   UNL     1      43.044  36.327  42.600  0.00  0.00    +0.000 C 
ATOM     14  C   UNL     1      42.906  36.272  41.125  0.00  0.00    +0.000 C 
ATOM     15  C   UNL     1      41.794  35.768  41.963  0.00  0.00    +0.000 C 
ENDBRANCH   9  13
ENDBRANCH   1  11
BRANCH   2  16
ATOM     16  N   UNL     1      44.303  34.428  47.195  0.00  0.00    +0.000 N 
ATOM     17  H   UNL     1      44.360  35.170  47.913  0.00  0.00    +0.000 HD
ATOM     18  H   UNL     1      43.549  33.754  46.866  0.00  0.00    +0.000 HD
ENDBRANCH   2  16
TORSDOF 3
