
 OpenBabel03252508503D

 22 24  0  0  0  0  0  0  0  0999 V2000
   45.9800   34.1760   41.0330 C   0  0  0  0  0  0  0  0  0  0  0  0
   46.5480   34.7300   42.1750 C   0  0  0  0  0  0  0  0  0  0  0  0
   47.9010   35.1040   42.1040 C   0  0  0  0  0  0  0  0  0  0  0  0
   48.5640   34.9020   40.9280 N   0  0  0  0  0  0  0  0  0  0  0  0
   47.9610   34.3600   39.8530 C   0  0  0  0  0  0  0  0  0  0  0  0
   46.6650   33.9890   39.8860 N   0  0  0  0  0  0  0  0  0  0  0  0
   48.3580   35.5380   42.9860 H   0  0  0  0  0  0  0  0  0  0  0  0
   48.5380   34.2200   38.9380 H   0  0  0  0  0  0  0  0  0  0  0  0
   45.7530   34.9030   43.3790 C   0  0  0  0  0  0  0  0  0  0  0  0
   45.1030   36.0800   43.6880 C   0  0  0  0  0  0  0  0  0  0  0  0
   44.4860   35.8070   44.8890 C   0  0  0  0  0  0  0  0  0  0  0  0
   44.7430   34.5420   45.2890 N   0  0  0  0  0  0  0  0  0  0  0  0
   45.5090   34.0190   44.3600 N   0  0  0  0  0  0  0  0  0  0  0  0
   45.0840   37.0050   43.1180 H   0  0  0  0  0  0  0  0  0  0  0  0
   43.8710   36.5400   45.4290 H   0  0  0  0  0  0  0  0  0  0  0  0
   44.3950   34.0730   46.1700 H   0  0  0  0  0  0  0  0  0  0  0  0
   44.6440   33.8030   41.0910 O   0  0  0  0  0  0  0  0  0  0  0  0
   43.5870   34.5110   40.5870 C   0  0  0  0  0  0  0  0  0  0  0  0
   43.3100   35.7430   40.7470 O   0  0  0  0  0  0  0  0  0  0  0  0
   42.3970   34.1980   39.7070 C   0  0  0  0  0  3  0  0  0  0  0  0
   42.5230   33.0930   38.6940 C   0  0  0  0  0  2  0  0  0  0  0  0
   41.6430   32.9590   39.8980 C   0  0  0  0  0  2  0  0  0  0  0  0
  1 17  1  0  0  0  0
  1  2  1  0  0  0  0
  2  9  1  0  0  0  0
  3  2  2  0  0  0  0
  3  7  1  0  0  0  0
  4  3  1  0  0  0  0
  5  6  1  0  0  0  0
  5  4  2  0  0  0  0
  6  1  2  0  0  0  0
  8  5  1  0  0  0  0
  9 10  1  0  0  0  0
  9 13  2  0  0  0  0
 10 11  2  0  0  0  0
 11 12  1  0  0  0  0
 11 15  1  0  0  0  0
 12 16  1  0  0  0  0
 13 12  1  0  0  0  0
 14 10  1  0  0  0  0
 18 19  2  0  0  0  0
 18 17  1  0  0  0  0
 20 22  1  0  0  0  0
 20 18  1  0  0  0  0
 21 20  1  0  0  0  0
 21 22  1  0  0  0  0
M  END
>  <minimizedAffinity>
-4.5723772

>  <minimizedRMSD>
0.735956252

$$$$
