
     RDKit          3D

 30 32  0  0  0  0  0  0  0  0999 V2000
   46.6114   34.4251   41.4477 C   0  0  0  0  0  0  0  0  0  0  0  0
   47.8826   34.9099   41.2338 C   0  0  0  0  0  0  0  0  0  0  0  0
   48.5303   34.6572   40.0500 C   0  0  0  0  0  0  0  0  0  0  0  0
   47.8763   33.9083   39.0874 C   0  0  0  0  0  0  0  0  0  0  0  0
   46.6201   33.4095   39.2589 C   0  0  0  0  0  0  0  0  0  0  0  0
   45.9981   33.6943   40.4843 C   0  0  0  0  0  0  0  0  0  0  0  0
   44.6940   36.0494   44.2738 C   0  0  0  0  0  0  0  0  0  0  0  0
   45.2349   35.8598   42.9880 C   0  0  0  0  0  0  0  0  0  0  0  0
   45.9957   34.7347   42.7323 C   0  0  0  0  0  0  0  0  0  0  0  0
   46.1573   33.8948   43.7639 N   0  0  0  0  0  0  0  0  0  0  0  0
   45.6494   34.0578   44.9974 C   0  0  0  0  0  0  0  0  0  0  0  0
   44.9095   35.1502   45.2493 N   0  0  0  0  0  0  0  0  0  0  0  0
   48.5692   35.7138   42.3011 C   0  0  0  0  0  0  0  0  0  0  0  0
   49.5378   35.0318   39.8621 H   0  0  0  0  0  0  0  0  0  0  0  0
   48.4228   33.7341   38.1688 H   0  0  0  0  0  0  0  0  0  0  0  0
   46.1342   32.8183   38.4908 H   0  0  0  0  0  0  0  0  0  0  0  0
   45.0007   33.3054   40.6275 H   0  0  0  0  0  0  0  0  0  0  0  0
   44.0937   36.9411   44.4810 H   0  0  0  0  0  0  0  0  0  0  0  0
   45.0754   36.5563   42.1970 H   0  0  0  0  0  0  0  0  0  0  0  0
   45.8988   33.2570   45.6818 H   0  0  0  0  0  0  0  0  0  0  0  0
   48.9261   35.0873   43.1313 H   0  0  0  0  0  0  0  0  0  0  0  0
   47.8246   36.4139   42.7088 H   0  0  0  0  0  0  0  0  0  0  0  0
   49.6493   36.5280   41.6346 C   0  0  0  0  0  0  0  0  0  0  0  0
   49.6387   37.9991   41.7082 C   0  0  0  0  0  0  0  0  0  0  0  0
   50.6619   37.1980   42.4790 C   0  0  0  0  0  0  0  0  0  0  0  0
   49.9786   36.0887   40.6481 H   0  0  0  0  0  0  0  0  0  0  0  0
   49.9947   38.5752   40.8233 H   0  0  0  0  0  0  0  0  0  0  0  0
   48.8521   38.5050   42.2851 H   0  0  0  0  0  0  0  0  0  0  0  0
   50.5386   37.1962   43.5728 H   0  0  0  0  0  0  0  0  0  0  0  0
   51.7017   37.3120   42.1140 H   0  0  0  0  0  0  0  0  0  0  0  0
  1  9  1  0
  2  1  1  0
  2 13  1  0
  3  2  2  0
  4  5  2  0
  4  3  1  0
  5  6  1  0
  6  1  2  0
  7 12  2  0
  8  7  1  0
  9  8  2  0
  9 10  1  0
 10 11  2  0
 11 12  1  0
  3 14  1  0
  4 15  1  0
  5 16  1  0
  6 17  1  0
  7 18  1  0
  8 19  1  0
 11 20  1  0
 13 21  1  0
 13 22  1  0
 23 24  1  0
 24 25  1  0
 25 23  1  0
 23 26  1  0
 24 27  1  0
 24 28  1  0
 25 29  1  0
 25 30  1  0
 13 23  1  0
M  ISO  8  14  14  15  14  16  14  17  14  18  14  19  14  20  14  21   8
M  ISO  1  22   8
M  END
>  <DihAtoms>  (1) 
1,12,22,23

>  <DihDeg>  (1) 
-179.80038650678995

$$$$
