
 OpenBabel03252509083D

 35 38  0  0  0  0  0  0  0  0999 V2000
   45.3870   35.3350   43.2410 Cl  0  0  0  0  0  0  0  0  0  0  0  0
   45.2090   34.5730   41.6830 C   0  0  0  0  0  0  0  0  0  0  0  0
   46.2790   34.1580   40.9710 C   0  0  0  0  0  0  0  0  0  0  0  0
   46.0390   33.5730   39.7410 C   0  0  0  0  0  0  0  0  0  0  0  0
   44.7710   33.4110   39.2420 C   0  0  0  0  0  0  0  0  0  0  0  0
   43.7030   33.8320   39.9670 C   0  0  0  0  0  0  0  0  0  0  0  0
   43.9300   34.4160   41.1970 C   0  0  0  0  0  0  0  0  0  0  0  0
   44.6380   32.9510   38.2760 H   0  0  0  0  0  0  0  0  0  0  0  0
   42.6970   33.7220   39.6130 H   0  0  0  0  0  0  0  0  0  0  0  0
   43.0740   34.7490   41.7730 H   0  0  0  0  0  0  0  0  0  0  0  0
   47.6230   31.8110   38.9400 C   0  0  0  0  0  0  0  0  0  0  0  0
   47.1690   33.0950   38.9480 C   0  0  0  0  0  0  0  0  0  0  0  0
   47.8020   34.0350   38.1570 C   0  0  0  0  0  0  0  0  0  0  0  0
   48.8740   33.6750   37.3730 C   0  0  0  0  0  0  0  0  0  0  0  0
   49.3500   32.3720   37.3490 C   0  0  0  0  0  0  0  0  0  0  0  0
   48.7080   31.4330   38.1490 C   0  0  0  0  0  0  0  0  0  0  0  0
   47.4700   35.0560   38.1410 H   0  0  0  0  0  0  0  0  0  0  0  0
   49.3450   34.4280   36.7700 H   0  0  0  0  0  0  0  0  0  0  0  0
   50.1810   32.0930   36.7400 H   0  0  0  0  0  0  0  0  0  0  0  0
   49.0890   30.4340   38.1170 H   0  0  0  0  0  0  0  0  0  0  0  0
   46.8750   30.6110   39.8500 S   0  0  0  0  0  0  0  0  0  0  0  0
   45.5390   30.1780   39.3010 O   0  0  0  0  0  0  0  0  0  0  0  0
   47.7690   29.3510   39.6440 O   0  0  0  0  0  0  0  0  0  0  0  0
   46.7180   30.5770   41.5490 C   0  0  0  0  0  3  0  0  0  0  0  0
   45.2450   30.8200   41.9700 C   0  0  0  0  0  2  0  0  0  0  0  0
   45.9280   29.5990   42.3570 C   0  0  0  0  0  2  0  0  0  0  0  0
   49.5820   35.7430   41.9290 C   0  0  0  0  0  0  0  0  0  0  0  0
   48.3010   35.5610   41.3950 C   0  0  0  0  0  0  0  0  0  0  0  0
   47.6140   34.3580   41.5240 C   0  0  0  0  0  0  0  0  0  0  0  0
   48.2700   33.4040   42.1910 N   0  0  0  0  0  0  0  0  0  0  0  0
   49.4940   33.5680   42.7050 C   0  0  0  0  0  0  0  0  0  0  0  0
   50.1430   34.7270   42.5750 N   0  0  0  0  0  0  0  0  0  0  0  0
   50.0440   36.7160   41.7810 H   0  0  0  0  0  0  0  0  0  0  0  0
   47.8160   36.3730   40.8630 H   0  0  0  0  0  0  0  0  0  0  0  0
   50.0110   32.7770   43.2450 H   0  0  0  0  0  0  0  0  0  0  0  0
  2  1  1  0  0  0  0
  3 29  1  0  0  0  0
  3  2  2  0  0  0  0
  4  3  1  0  0  0  0
  5  4  2  0  0  0  0
  5  6  1  0  0  0  0
  6  7  2  0  0  0  0
  7  2  1  0  0  0  0
  7 10  1  0  0  0  0
  8  5  1  0  0  0  0
  9  6  1  0  0  0  0
 11 12  1  0  0  0  0
 11 21  1  0  0  0  0
 12  4  1  0  0  0  0
 13 12  2  0  0  0  0
 14 13  1  0  0  0  0
 15 14  2  0  0  0  0
 15 16  1  0  0  0  0
 16 11  2  0  0  0  0
 17 13  1  0  0  0  0
 18 14  1  0  0  0  0
 19 15  1  0  0  0  0
 20 16  1  0  0  0  0
 21 24  1  0  0  0  0
 22 21  2  0  0  0  0
 23 21  2  0  0  0  0
 24 25  1  0  0  0  0
 24 26  1  0  0  0  0
 25 26  1  0  0  0  0
 27 32  1  0  0  0  0
 28 29  1  0  0  0  0
 28 27  2  0  0  0  0
 29 30  2  0  0  0  0
 30 31  1  0  0  0  0
 31 35  1  0  0  0  0
 32 31  2  0  0  0  0
 33 27  1  0  0  0  0
 34 28  1  0  0  0  0
M  END
>  <minimizedAffinity>
-4.43436193

>  <minimizedRMSD>
0.659629047

$$$$
