
 OpenBabel03242517293D

 34 36  0  0  1  0  0  0  0  0999 V2000
   40.4130   28.3880   37.3000 C   0  0  0  0  0  0  0  0  0  0  0  0
   41.5980   29.0830   36.8940 C   0  0  0  0  0  0  0  0  0  0  0  0
   41.7240   30.4380   37.2180 C   0  0  0  0  0  0  0  0  0  0  0  0
   40.7040   31.0190   37.9060 N   0  0  0  0  0  0  0  0  0  0  0  0
   39.6000   30.3650   38.2820 C   0  0  0  0  0  0  0  0  0  0  0  0
   39.4910   29.0690   37.9670 N   0  0  0  0  0  0  0  0  0  0  0  0
   38.6090   31.0460   38.9840 N   0  0  0  0  0  0  0  0  0  0  0  0
   37.9780   32.2070   38.4190 C   0  0  0  0  0  0  0  0  0  0  0  0
   37.2550   33.0500   39.4210 C   0  0  0  0  0  0  0  0  0  0  0  0
   36.6570   32.3580   40.5120 N   0  0  0  0  0  0  0  0  0  0  0  0
   36.7650   30.9250   40.4240 C   0  0  0  0  0  0  0  0  0  0  0  0
   38.2170   30.5600   40.3110 C   0  0  2  0  0  0  0  0  0  0  0  0
   40.3180   27.3460   37.0510 H   0  0  0  0  0  0  0  0  0  0  0  0
   42.3730   28.5530   36.3460 H   0  0  0  0  0  0  0  0  0  0  0  0
   42.6120   30.9870   36.9210 H   0  0  0  0  0  0  0  0  0  0  0  0
   38.6820   32.8550   37.8520 H   0  0  0  0  0  0  0  0  0  0  0  0
   37.2270   31.8460   37.6820 H   0  0  0  0  0  0  0  0  0  0  0  0
   37.9730   33.8010   39.8120 H   0  0  0  0  0  0  0  0  0  0  0  0
   36.4820   33.6290   38.8630 H   0  0  0  0  0  0  0  0  0  0  0  0
   35.6890   32.6620   40.7510 H   0  0  0  0  0  0  0  0  0  0  0  0
   36.2640   30.6330   39.4720 H   0  0  0  0  0  0  0  0  0  0  0  0
   36.2540   30.4580   41.2660 H   0  0  0  0  0  0  0  0  0  0  0  0
   38.2800   29.4690   40.2680 H   0  0  0  0  0  0  0  0  0  0  0  0
   39.0500   31.1540   41.4070 C   0  0  0  0  0  0  0  0  0  0  0  0
   38.5650   32.0660   41.8000 H   0  0  0  0  0  0  0  0  0  0  0  0
   40.0780   31.2820   41.0510 H   0  0  0  0  0  0  0  0  0  0  0  0
   39.1060   30.1400   42.5240 C   0  0  0  0  0  3  0  0  0  0  0  0
   39.1070   28.8470   42.2800 C   0  0  0  0  0  3  0  0  0  0  0  0
   39.1610   27.7670   43.3070 C   0  0  0  0  0  0  0  0  0  0  0  0
   39.0460   28.2930   44.2940 H   0  0  0  0  0  0  0  0  0  0  0  0
   40.0890   27.1970   43.3200 H   0  0  0  0  0  0  0  0  0  0  0  0
   37.9350   26.8880   43.1250 C   0  0  0  0  0  3  0  0  0  0  0  0
   37.0420   27.1700   41.9430 C   0  0  0  0  0  2  0  0  0  0  0  0
   36.5820   27.4400   43.3600 C   0  0  0  0  0  2  0  0  0  0  0  0
  1  6  1  0  0  0  0
  2  3  1  0  0  0  0
  2  1  2  0  0  0  0
  3  4  2  0  0  0  0
  4  5  1  0  0  0  0
  5  7  1  0  0  0  0
  6  5  2  0  0  0  0
  7 12  1  0  0  0  0
  8  7  1  0  0  0  0
  8  9  1  0  0  0  0
  9 18  1  0  0  0  0
  9 10  1  0  0  0  0
 10 20  1  0  0  0  0
 11 10  1  0  0  0  0
 11 22  1  0  0  0  0
 12 23  1  1  0  0  0
 12 11  1  0  0  0  0
 12 24  1  0  0  0  0
 13  1  1  0  0  0  0
 14  2  1  0  0  0  0
 15  3  1  0  0  0  0
 16  8  1  0  0  0  0
 17  8  1  0  0  0  0
 19  9  1  0  0  0  0
 21 11  1  0  0  0  0
 24 25  1  0  0  0  0
 24 27  1  0  0  0  0
 26 24  1  0  0  0  0
 28 27  2  0  0  0  0
 28 29  1  0  0  0  0
 29 31  1  0  0  0  0
 29 30  1  0  0  0  0
 32 29  1  0  0  0  0
 32 34  1  0  0  0  0
 33 32  1  0  0  0  0
 33 34  1  0  0  0  0
M  END
>  <minimizedAffinity>
-4.96832752

$$$$

 OpenBabel03242517293D

 34 36  0  0  1  0  0  0  0  0999 V2000
   39.1480   26.5720   38.0640 C   0  0  0  0  0  0  0  0  0  0  0  0
   40.5360   26.7800   38.3550 C   0  0  0  0  0  0  0  0  0  0  0  0
   40.8920   27.8380   39.1970 C   0  0  0  0  0  0  0  0  0  0  0  0
   39.8910   28.6120   39.6940 N   0  0  0  0  0  0  0  0  0  0  0  0
   38.5970   28.4130   39.4200 C   0  0  0  0  0  0  0  0  0  0  0  0
   38.2680   27.3980   38.6130 N   0  0  0  0  0  0  0  0  0  0  0  0
   37.6430   29.2610   39.9780 N   0  0  0  0  0  0  0  0  0  0  0  0
   37.6900   30.6770   39.7350 C   0  0  0  0  0  0  0  0  0  0  0  0
   36.8790   31.4820   40.7000 C   0  0  0  0  0  0  0  0  0  0  0  0
   35.6910   30.8690   41.1900 N   0  0  0  0  0  0  0  0  0  0  0  0
   35.4070   29.5880   40.5960 C   0  0  0  0  0  0  0  0  0  0  0  0
   36.5870   28.6860   40.8170 C   0  0  2  0  0  0  0  0  0  0  0  0
   38.8750   25.7570   37.4170 H   0  0  0  0  0  0  0  0  0  0  0  0
   41.2820   26.1190   37.9200 H   0  0  0  0  0  0  0  0  0  0  0  0
   41.9370   28.0160   39.4310 H   0  0  0  0  0  0  0  0  0  0  0  0
   38.7250   31.0830   39.7150 H   0  0  0  0  0  0  0  0  0  0  0  0
   37.2690   30.8490   38.7190 H   0  0  0  0  0  0  0  0  0  0  0  0
   37.5350   31.7470   41.5540 H   0  0  0  0  0  0  0  0  0  0  0  0
   36.6330   32.4460   40.1940 H   0  0  0  0  0  0  0  0  0  0  0  0
   34.8500   31.4850   41.2090 H   0  0  0  0  0  0  0  0  0  0  0  0
   35.3140   29.7670   39.5000 H   0  0  0  0  0  0  0  0  0  0  0  0
   34.4680   29.1950   40.9850 H   0  0  0  0  0  0  0  0  0  0  0  0
   36.3430   27.7130   40.3800 H   0  0  0  0  0  0  0  0  0  0  0  0
   36.9860   28.5980   42.2600 C   0  0  0  0  0  0  0  0  0  0  0  0
   36.2990   29.2000   42.8810 H   0  0  0  0  0  0  0  0  0  0  0  0
   38.0490   28.8460   42.3560 H   0  0  0  0  0  0  0  0  0  0  0  0
   36.8440   27.1540   42.6740 C   0  0  0  0  0  3  0  0  0  0  0  0
   37.1440   26.1700   41.8550 C   0  0  0  0  0  3  0  0  0  0  0  0
   37.0410   24.7150   42.1660 C   0  0  0  0  0  0  0  0  0  0  0  0
   36.3310   24.3000   41.3980 H   0  0  0  0  0  0  0  0  0  0  0  0
   36.6550   24.4860   43.1580 H   0  0  0  0  0  0  0  0  0  0  0  0
   38.3980   24.0840   41.9050 C   0  0  0  0  0  3  0  0  0  0  0  0
   39.5070   24.3830   42.8820 C   0  0  0  0  0  2  0  0  0  0  0  0
   39.5370   24.9230   41.4680 C   0  0  0  0  0  2  0  0  0  0  0  0
  1  2  2  0  0  0  0
  1  6  1  0  0  0  0
  2  3  1  0  0  0  0
  3 15  1  0  0  0  0
  3  4  2  0  0  0  0
  5  4  1  0  0  0  0
  5  7  1  0  0  0  0
  6  5  2  0  0  0  0
  7 12  1  0  0  0  0
  8  7  1  0  0  0  0
  8  9  1  0  0  0  0
  9 10  1  0  0  0  0
  9 18  1  0  0  0  0
 10 20  1  0  0  0  0
 11 12  1  0  0  0  0
 11 22  1  0  0  0  0
 11 10  1  0  0  0  0
 12 23  1  6  0  0  0
 12 24  1  0  0  0  0
 13  1  1  0  0  0  0
 14  2  1  0  0  0  0
 16  8  1  0  0  0  0
 17  8  1  0  0  0  0
 19  9  1  0  0  0  0
 21 11  1  0  0  0  0
 24 26  1  0  0  0  0
 24 27  1  0  0  0  0
 24 25  1  0  0  0  0
 28 29  1  0  0  0  0
 28 27  2  0  0  0  0
 29 31  1  0  0  0  0
 30 29  1  0  0  0  0
 32 29  1  0  0  0  0
 32 33  1  0  0  0  0
 34 32  1  0  0  0  0
 34 33  1  0  0  0  0
M  END
>  <minimizedAffinity>
-4.94852018

$$$$

 OpenBabel03242517293D

 34 36  0  0  1  0  0  0  0  0999 V2000
   41.0010   28.8920   40.5110 C   0  0  0  0  0  0  0  0  0  0  0  0
   41.4060   28.9650   41.8830 C   0  0  0  0  0  0  0  0  0  0  0  0
   40.9340   30.0250   42.6650 C   0  0  0  0  0  0  0  0  0  0  0  0
   40.1120   30.9300   42.0700 N   0  0  0  0  0  0  0  0  0  0  0  0
   39.7370   30.8570   40.7890 C   0  0  0  0  0  0  0  0  0  0  0  0
   40.1940   29.8390   40.0500 N   0  0  0  0  0  0  0  0  0  0  0  0
   38.8900   31.8330   40.2680 N   0  0  0  0  0  0  0  0  0  0  0  0
   39.2690   33.2190   40.2940 C   0  0  0  0  0  0  0  0  0  0  0  0
   38.1250   34.1610   40.0880 C   0  0  0  0  0  0  0  0  0  0  0  0
   37.0830   33.7090   39.2290 N   0  0  0  0  0  0  0  0  0  0  0  0
   37.3470   32.4350   38.6130 C   0  0  0  0  0  0  0  0  0  0  0  0
   37.6050   31.4240   39.6920 C   0  0  2  0  0  0  0  0  0  0  0  0
   41.3630   28.0770   39.9100 H   0  0  0  0  0  0  0  0  0  0  0  0
   42.0670   28.2040   42.2910 H   0  0  0  0  0  0  0  0  0  0  0  0
   41.2270   30.1020   43.7070 H   0  0  0  0  0  0  0  0  0  0  0  0
   39.8050   33.5090   41.2240 H   0  0  0  0  0  0  0  0  0  0  0  0
   39.9880   33.3780   39.4590 H   0  0  0  0  0  0  0  0  0  0  0  0
   37.7010   34.4020   41.0850 H   0  0  0  0  0  0  0  0  0  0  0  0
   38.5540   35.1160   39.7010 H   0  0  0  0  0  0  0  0  0  0  0  0
   36.7410   34.4130   38.5400 H   0  0  0  0  0  0  0  0  0  0  0  0
   38.2880   32.5600   38.0290 H   0  0  0  0  0  0  0  0  0  0  0  0
   36.5310   32.1680   37.9400 H   0  0  0  0  0  0  0  0  0  0  0  0
   37.7810   30.4600   39.2050 H   0  0  0  0  0  0  0  0  0  0  0  0
   36.5090   31.3760   40.7140 C   0  0  0  0  0  0  0  0  0  0  0  0
   35.6500   31.9830   40.3780 H   0  0  0  0  0  0  0  0  0  0  0  0
   36.9190   31.6400   41.6950 H   0  0  0  0  0  0  0  0  0  0  0  0
   36.0540   29.9400   40.8120 C   0  0  0  0  0  3  0  0  0  0  0  0
   36.7900   29.0220   41.3990 C   0  0  0  0  0  3  0  0  0  0  0  0
   36.4330   27.5820   41.5500 C   0  0  0  0  0  0  0  0  0  0  0  0
   36.9850   27.0550   40.7230 H   0  0  0  0  0  0  0  0  0  0  0  0
   35.3700   27.3640   41.4560 H   0  0  0  0  0  0  0  0  0  0  0  0
   37.0190   27.0910   42.8620 C   0  0  0  0  0  3  0  0  0  0  0  0
   37.8280   28.0690   43.6760 C   0  0  0  0  0  2  0  0  0  0  0  0
   38.4790   26.8840   42.9940 C   0  0  0  0  0  2  0  0  0  0  0  0
  1  2  1  0  0  0  0
  2 14  1  0  0  0  0
  2  3  2  0  0  0  0
  3 15  1  0  0  0  0
  4  3  1  0  0  0  0
  5  4  2  0  0  0  0
  6  1  2  0  0  0  0
  6  5  1  0  0  0  0
  7  8  1  0  0  0  0
  7  5  1  0  0  0  0
  8 16  1  0  0  0  0
  9  8  1  0  0  0  0
  9 18  1  0  0  0  0
 10  9  1  0  0  0  0
 11 10  1  0  0  0  0
 11 12  1  0  0  0  0
 12 23  1  6  0  0  0
 12  7  1  0  0  0  0
 12 24  1  0  0  0  0
 13  1  1  0  0  0  0
 17  8  1  0  0  0  0
 19  9  1  0  0  0  0
 20 10  1  0  0  0  0
 21 11  1  0  0  0  0
 22 11  1  0  0  0  0
 24 27  1  0  0  0  0
 24 26  1  0  0  0  0
 25 24  1  0  0  0  0
 27 28  2  0  0  0  0
 28 29  1  0  0  0  0
 29 32  1  0  0  0  0
 30 29  1  0  0  0  0
 31 29  1  0  0  0  0
 32 34  1  0  0  0  0
 32 33  1  0  0  0  0
 34 33  1  0  0  0  0
M  END
>  <minimizedAffinity>
-4.9413147

$$$$

 OpenBabel03242517293D

 34 36  0  0  1  0  0  0  0  0999 V2000
   38.8760   26.2590   38.2540 C   0  0  0  0  0  0  0  0  0  0  0  0
   37.8730   25.3350   37.8150 C   0  0  0  0  0  0  0  0  0  0  0  0
   36.7310   25.1610   38.6040 C   0  0  0  0  0  0  0  0  0  0  0  0
   36.6390   25.8880   39.7500 N   0  0  0  0  0  0  0  0  0  0  0  0
   37.5780   26.7500   40.1540 C   0  0  0  0  0  0  0  0  0  0  0  0
   38.6670   26.9070   39.3930 N   0  0  0  0  0  0  0  0  0  0  0  0
   37.3950   27.4490   41.3450 N   0  0  0  0  0  0  0  0  0  0  0  0
   37.2110   26.7470   42.5860 C   0  0  0  0  0  0  0  0  0  0  0  0
   36.6310   27.5900   43.6760 C   0  0  0  0  0  0  0  0  0  0  0  0
   36.9930   28.9670   43.6690 N   0  0  0  0  0  0  0  0  0  0  0  0
   37.9510   29.3130   42.6510 C   0  0  0  0  0  0  0  0  0  0  0  0
   37.3940   28.9150   41.3140 C   0  0  2  0  0  0  0  0  0  0  0  0
   39.7540   26.3920   37.6470 H   0  0  0  0  0  0  0  0  0  0  0  0
   38.0150   24.7880   36.8860 H   0  0  0  0  0  0  0  0  0  0  0  0
   35.9570   24.4660   38.2920 H   0  0  0  0  0  0  0  0  0  0  0  0
   36.5930   25.8280   42.4810 H   0  0  0  0  0  0  0  0  0  0  0  0
   38.2160   26.4080   42.9230 H   0  0  0  0  0  0  0  0  0  0  0  0
   35.5260   27.5010   43.6210 H   0  0  0  0  0  0  0  0  0  0  0  0
   36.9260   27.1200   44.6440 H   0  0  0  0  0  0  0  0  0  0  0  0
   37.2530   29.3610   44.5990 H   0  0  0  0  0  0  0  0  0  0  0  0
   38.8530   28.6860   42.8460 H   0  0  0  0  0  0  0  0  0  0  0  0
   38.2140   30.3670   42.7260 H   0  0  0  0  0  0  0  0  0  0  0  0
   38.1250   29.2060   40.5540 H   0  0  0  0  0  0  0  0  0  0  0  0
   36.0290   29.4810   41.0650 C   0  0  0  0  0  0  0  0  0  0  0  0
   35.4220   29.4290   41.9860 H   0  0  0  0  0  0  0  0  0  0  0  0
   35.5920   28.9980   40.1840 H   0  0  0  0  0  0  0  0  0  0  0  0
   36.2090   30.9370   40.7090 C   0  0  0  0  0  3  0  0  0  0  0  0
   36.9610   31.3110   39.6970 C   0  0  0  0  0  3  0  0  0  0  0  0
   37.2030   32.7170   39.2620 C   0  0  0  0  0  0  0  0  0  0  0  0
   36.2140   33.2380   39.3900 H   0  0  0  0  0  0  0  0  0  0  0  0
   37.5250   32.8260   38.2280 H   0  0  0  0  0  0  0  0  0  0  0  0
   38.1710   33.3500   40.2470 C   0  0  0  0  0  3  0  0  0  0  0  0
   39.5870   33.5810   39.7850 C   0  0  0  0  0  2  0  0  0  0  0  0
   39.2620   32.5450   40.8400 C   0  0  0  0  0  2  0  0  0  0  0  0
  1  6  1  0  0  0  0
  2  1  2  0  0  0  0
  2  3  1  0  0  0  0
  3  4  2  0  0  0  0
  4  5  1  0  0  0  0
  5  7  1  0  0  0  0
  6  5  2  0  0  0  0
  7  8  1  0  0  0  0
  8 17  1  0  0  0  0
  8  9  1  0  0  0  0
  9 19  1  0  0  0  0
 10  9  1  0  0  0  0
 10 20  1  0  0  0  0
 11 22  1  0  0  0  0
 11 21  1  0  0  0  0
 11 10  1  0  0  0  0
 12 23  1  6  0  0  0
 12  7  1  0  0  0  0
 12 11  1  0  0  0  0
 13  1  1  0  0  0  0
 14  2  1  0  0  0  0
 15  3  1  0  0  0  0
 16  8  1  0  0  0  0
 18  9  1  0  0  0  0
 24 12  1  0  0  0  0
 24 25  1  0  0  0  0
 26 24  1  0  0  0  0
 27 24  1  0  0  0  0
 28 27  2  0  0  0  0
 29 30  1  0  0  0  0
 29 28  1  0  0  0  0
 29 32  1  0  0  0  0
 31 29  1  0  0  0  0
 32 34  1  0  0  0  0
 33 32  1  0  0  0  0
 33 34  1  0  0  0  0
M  END
>  <minimizedAffinity>
-4.92950296

$$$$

 OpenBabel03242517293D

 34 36  0  0  1  0  0  0  0  0999 V2000
   37.1640   29.2560   36.1250 C   0  0  0  0  0  0  0  0  0  0  0  0
   38.1020   28.1930   36.3320 C   0  0  0  0  0  0  0  0  0  0  0  0
   39.0590   28.3320   37.3430 C   0  0  0  0  0  0  0  0  0  0  0  0
   39.0400   29.4770   38.0750 N   0  0  0  0  0  0  0  0  0  0  0  0
   38.1610   30.4660   37.8780 C   0  0  0  0  0  0  0  0  0  0  0  0
   37.2500   30.3220   36.9080 N   0  0  0  0  0  0  0  0  0  0  0  0
   38.2210   31.6030   38.6810 N   0  0  0  0  0  0  0  0  0  0  0  0
   39.4160   32.3980   38.7370 C   0  0  0  0  0  0  0  0  0  0  0  0
   39.4760   33.3170   39.9150 C   0  0  0  0  0  0  0  0  0  0  0  0
   38.2330   33.8440   40.3670 N   0  0  0  0  0  0  0  0  0  0  0  0
   37.1100   33.4750   39.5450 C   0  0  0  0  0  0  0  0  0  0  0  0
   37.0420   31.9770   39.4700 C   0  0  2  0  0  0  0  0  0  0  0  0
   36.4280   29.1480   35.3470 H   0  0  0  0  0  0  0  0  0  0  0  0
   38.0570   27.3050   35.7060 H   0  0  0  0  0  0  0  0  0  0  0  0
   39.7810   27.5410   37.5190 H   0  0  0  0  0  0  0  0  0  0  0  0
   40.3480   31.7900   38.7130 H   0  0  0  0  0  0  0  0  0  0  0  0
   39.4340   33.0280   37.8190 H   0  0  0  0  0  0  0  0  0  0  0  0
   39.9670   32.7700   40.7460 H   0  0  0  0  0  0  0  0  0  0  0  0
   40.1700   34.1480   39.6450 H   0  0  0  0  0  0  0  0  0  0  0  0
   38.2380   34.8630   40.5860 H   0  0  0  0  0  0  0  0  0  0  0  0
   37.3320   33.8600   38.5220 H   0  0  0  0  0  0  0  0  0  0  0  0
   36.2000   33.9420   39.9220 H   0  0  0  0  0  0  0  0  0  0  0  0
   36.1710   31.7180   38.8610 H   0  0  0  0  0  0  0  0  0  0  0  0
   37.0290   31.3300   40.8220 C   0  0  0  0  0  0  0  0  0  0  0  0
   36.3470   31.8770   41.4980 H   0  0  0  0  0  0  0  0  0  0  0  0
   38.0590   31.2180   41.1790 H   0  0  0  0  0  0  0  0  0  0  0  0
   36.4840   29.9340   40.6410 C   0  0  0  0  0  3  0  0  0  0  0  0
   37.1290   28.8790   41.0890 C   0  0  0  0  0  3  0  0  0  0  0  0
   36.6780   27.4630   40.9650 C   0  0  0  0  0  0  0  0  0  0  0  0
   37.3510   27.0080   40.1870 H   0  0  0  0  0  0  0  0  0  0  0  0
   35.6440   27.3400   40.6480 H   0  0  0  0  0  0  0  0  0  0  0  0
   36.9770   26.7610   42.2790 C   0  0  0  0  0  3  0  0  0  0  0  0
   36.5110   27.4280   43.5480 C   0  0  0  0  0  2  0  0  0  0  0  0
   37.9830   27.3200   43.2090 C   0  0  0  0  0  2  0  0  0  0  0  0
  1  2  2  0  0  0  0
  1  6  1  0  0  0  0
  2  3  1  0  0  0  0
  3 15  1  0  0  0  0
  3  4  2  0  0  0  0
  5  4  1  0  0  0  0
  5  7  1  0  0  0  0
  6  5  2  0  0  0  0
  7  8  1  0  0  0  0
  7 12  1  0  0  0  0
  8  9  1  0  0  0  0
  9 10  1  0  0  0  0
  9 18  1  0  0  0  0
 10 20  1  0  0  0  0
 11 22  1  0  0  0  0
 11 10  1  0  0  0  0
 12 23  1  6  0  0  0
 12 11  1  0  0  0  0
 12 24  1  0  0  0  0
 13  1  1  0  0  0  0
 14  2  1  0  0  0  0
 16  8  1  0  0  0  0
 17  8  1  0  0  0  0
 19  9  1  0  0  0  0
 21 11  1  0  0  0  0
 24 26  1  0  0  0  0
 24 25  1  0  0  0  0
 27 24  1  0  0  0  0
 27 28  2  0  0  0  0
 29 28  1  0  0  0  0
 29 32  1  0  0  0  0
 30 29  1  0  0  0  0
 31 29  1  0  0  0  0
 32 34  1  0  0  0  0
 32 33  1  0  0  0  0
 34 33  1  0  0  0  0
M  END
>  <minimizedAffinity>
-4.90022755

$$$$

 OpenBabel03242517293D

 34 36  0  0  1  0  0  0  0  0999 V2000
   39.4430   32.2640   40.6740 C   0  0  0  0  0  0  0  0  0  0  0  0
   38.7350   33.5090   40.6650 C   0  0  0  0  0  0  0  0  0  0  0  0
   37.6000   33.6280   39.8570 C   0  0  0  0  0  0  0  0  0  0  0  0
   37.2320   32.5440   39.1230 N   0  0  0  0  0  0  0  0  0  0  0  0
   37.8970   31.3830   39.1360 C   0  0  0  0  0  0  0  0  0  0  0  0
   38.9820   31.2810   39.9120 N   0  0  0  0  0  0  0  0  0  0  0  0
   37.4430   30.3280   38.3480 N   0  0  0  0  0  0  0  0  0  0  0  0
   37.3170   30.4780   36.9240 C   0  0  0  0  0  0  0  0  0  0  0  0
   36.4550   29.4390   36.2810 C   0  0  0  0  0  0  0  0  0  0  0  0
   36.4770   28.1450   36.8750 N   0  0  0  0  0  0  0  0  0  0  0  0
   37.4150   28.0180   37.9610 C   0  0  0  0  0  0  0  0  0  0  0  0
   37.0950   29.0580   38.9950 C   0  0  2  0  0  0  0  0  0  0  0  0
   40.3170   32.1730   41.2960 H   0  0  0  0  0  0  0  0  0  0  0  0
   39.0890   34.3340   41.2790 H   0  0  0  0  0  0  0  0  0  0  0  0
   37.0470   34.5620   39.8330 H   0  0  0  0  0  0  0  0  0  0  0  0
   36.9490   31.4830   36.6210 H   0  0  0  0  0  0  0  0  0  0  0  0
   38.3380   30.3790   36.4930 H   0  0  0  0  0  0  0  0  0  0  0  0
   35.4130   29.8220   36.2740 H   0  0  0  0  0  0  0  0  0  0  0  0
   36.7630   29.3760   35.2110 H   0  0  0  0  0  0  0  0  0  0  0  0
   36.5480   27.3520   36.2030 H   0  0  0  0  0  0  0  0  0  0  0  0
   38.4180   28.2550   37.5350 H   0  0  0  0  0  0  0  0  0  0  0  0
   37.4100   26.9970   38.3420 H   0  0  0  0  0  0  0  0  0  0  0  0
   37.8020   28.9310   39.8190 H   0  0  0  0  0  0  0  0  0  0  0  0
   35.6630   29.0150   39.4360 C   0  0  0  0  0  0  0  0  0  0  0  0
   35.1470   28.1570   38.9670 H   0  0  0  0  0  0  0  0  0  0  0  0
   35.2020   29.9940   39.2660 H   0  0  0  0  0  0  0  0  0  0  0  0
   35.6640   28.7960   40.9300 C   0  0  0  0  0  3  0  0  0  0  0  0
   36.5160   27.9760   41.5050 C   0  0  0  0  0  3  0  0  0  0  0  0
   36.6020   27.6920   42.9660 C   0  0  0  0  0  0  0  0  0  0  0  0
   36.5510   26.5710   43.0510 H   0  0  0  0  0  0  0  0  0  0  0  0
   35.8000   28.1250   43.5630 H   0  0  0  0  0  0  0  0  0  0  0  0
   37.9810   28.1120   43.4440 C   0  0  0  0  0  3  0  0  0  0  0  0
   38.4720   29.4800   43.0430 C   0  0  0  0  0  2  0  0  0  0  0  0
   39.1010   28.2220   42.4820 C   0  0  0  0  0  2  0  0  0  0  0  0
  1 13  1  0  0  0  0
  2  1  1  0  0  0  0
  2 14  1  0  0  0  0
  3  2  2  0  0  0  0
  4  5  2  0  0  0  0
  4  3  1  0  0  0  0
  5  6  1  0  0  0  0
  6  1  2  0  0  0  0
  7 12  1  0  0  0  0
  7  5  1  0  0  0  0
  8  7  1  0  0  0  0
  9 10  1  0  0  0  0
  9  8  1  0  0  0  0
 10 11  1  0  0  0  0
 11 22  1  0  0  0  0
 11 12  1  0  0  0  0
 12 24  1  0  0  0  0
 12 23  1  1  0  0  0
 15  3  1  0  0  0  0
 16  8  1  0  0  0  0
 17  8  1  0  0  0  0
 18  9  1  0  0  0  0
 19  9  1  0  0  0  0
 20 10  1  0  0  0  0
 21 11  1  0  0  0  0
 24 27  1  0  0  0  0
 25 24  1  0  0  0  0
 26 24  1  0  0  0  0
 27 28  2  0  0  0  0
 28 29  1  0  0  0  0
 29 30  1  0  0  0  0
 29 32  1  0  0  0  0
 29 31  1  0  0  0  0
 33 32  1  0  0  0  0
 34 33  1  0  0  0  0
 34 32  1  0  0  0  0
M  END
>  <minimizedAffinity>
-4.88745594

$$$$

 OpenBabel03242517293D

 34 36  0  0  1  0  0  0  0  0999 V2000
   41.5630   29.7460   37.6700 C   0  0  0  0  0  0  0  0  0  0  0  0
   42.5820   29.5660   38.6610 C   0  0  0  0  0  0  0  0  0  0  0  0
   42.4700   30.2620   39.8700 C   0  0  0  0  0  0  0  0  0  0  0  0
   41.3910   31.0730   40.0330 N   0  0  0  0  0  0  0  0  0  0  0  0
   40.4430   31.2370   39.1050 C   0  0  0  0  0  0  0  0  0  0  0  0
   40.5600   30.5670   37.9520 N   0  0  0  0  0  0  0  0  0  0  0  0
   39.3740   32.0910   39.3640 N   0  0  0  0  0  0  0  0  0  0  0  0
   39.6010   33.4760   39.6720 C   0  0  0  0  0  0  0  0  0  0  0  0
   38.4320   34.1520   40.3140 C   0  0  0  0  0  0  0  0  0  0  0  0
   37.1430   33.7020   39.9100 N   0  0  0  0  0  0  0  0  0  0  0  0
   37.1730   32.7160   38.8610 C   0  0  0  0  0  0  0  0  0  0  0  0
   38.0090   31.5550   39.3170 C   0  0  2  0  0  0  0  0  0  0  0  0
   41.6490   29.2100   36.7410 H   0  0  0  0  0  0  0  0  0  0  0  0
   43.4170   28.8990   38.4600 H   0  0  0  0  0  0  0  0  0  0  0  0
   43.2300   30.1420   40.6360 H   0  0  0  0  0  0  0  0  0  0  0  0
   40.5000   33.6410   40.3080 H   0  0  0  0  0  0  0  0  0  0  0  0
   39.8030   33.9980   38.7100 H   0  0  0  0  0  0  0  0  0  0  0  0
   38.5340   34.0340   41.4130 H   0  0  0  0  0  0  0  0  0  0  0  0
   38.5370   35.2450   40.1150 H   0  0  0  0  0  0  0  0  0  0  0  0
   36.4510   34.4570   39.7160 H   0  0  0  0  0  0  0  0  0  0  0  0
   37.6930   33.1940   37.9980 H   0  0  0  0  0  0  0  0  0  0  0  0
   36.1570   32.4450   38.5720 H   0  0  0  0  0  0  0  0  0  0  0  0
   38.0010   30.8090   38.5170 H   0  0  0  0  0  0  0  0  0  0  0  0
   37.5640   31.0050   40.6390 C   0  0  0  0  0  0  0  0  0  0  0  0
   36.5470   31.3650   40.8760 H   0  0  0  0  0  0  0  0  0  0  0  0
   38.3290   31.2170   41.3940 H   0  0  0  0  0  0  0  0  0  0  0  0
   37.5040   29.5040   40.4980 C   0  0  0  0  0  3  0  0  0  0  0  0
   36.9000   28.7520   41.3920 C   0  0  0  0  0  3  0  0  0  0  0  0
   36.7840   27.2660   41.3470 C   0  0  0  0  0  0  0  0  0  0  0  0
   37.5660   26.9320   40.6110 H   0  0  0  0  0  0  0  0  0  0  0  0
   35.8140   26.8940   41.0190 H   0  0  0  0  0  0  0  0  0  0  0  0
   37.1900   26.7240   42.7070 C   0  0  0  0  0  3  0  0  0  0  0  0
   37.8380   27.6810   43.6750 C   0  0  0  0  0  2  0  0  0  0  0  0
   38.6210   26.5500   43.0410 C   0  0  0  0  0  2  0  0  0  0  0  0
  1  6  2  0  0  0  0
  1  2  1  0  0  0  0
  2  3  2  0  0  0  0
  3  4  1  0  0  0  0
  3 15  1  0  0  0  0
  5  7  1  0  0  0  0
  5  4  2  0  0  0  0
  6  5  1  0  0  0  0
  7  8  1  0  0  0  0
  8 16  1  0  0  0  0
  8  9  1  0  0  0  0
  9 18  1  0  0  0  0
 10  9  1  0  0  0  0
 11 12  1  0  0  0  0
 11 10  1  0  0  0  0
 12 23  1  6  0  0  0
 12  7  1  0  0  0  0
 12 24  1  0  0  0  0
 13  1  1  0  0  0  0
 14  2  1  0  0  0  0
 17  8  1  0  0  0  0
 19  9  1  0  0  0  0
 20 10  1  0  0  0  0
 21 11  1  0  0  0  0
 22 11  1  0  0  0  0
 24 25  1  0  0  0  0
 24 26  1  0  0  0  0
 27 24  1  0  0  0  0
 27 28  2  0  0  0  0
 29 28  1  0  0  0  0
 29 32  1  0  0  0  0
 30 29  1  0  0  0  0
 31 29  1  0  0  0  0
 32 34  1  0  0  0  0
 32 33  1  0  0  0  0
 34 33  1  0  0  0  0
M  END
>  <minimizedAffinity>
-4.60485888

$$$$

 OpenBabel03242517293D

 34 36  0  0  1  0  0  0  0  0999 V2000
   34.9220   29.3100   40.1620 C   0  0  0  0  0  0  0  0  0  0  0  0
   34.7680   28.9700   38.7780 C   0  0  0  0  0  0  0  0  0  0  0  0
   35.6830   29.4870   37.8560 C   0  0  0  0  0  0  0  0  0  0  0  0
   36.6730   30.2890   38.3320 N   0  0  0  0  0  0  0  0  0  0  0  0
   36.8120   30.6030   39.6240 C   0  0  0  0  0  0  0  0  0  0  0  0
   35.9310   30.1030   40.4980 N   0  0  0  0  0  0  0  0  0  0  0  0
   37.8590   31.4340   40.0160 N   0  0  0  0  0  0  0  0  0  0  0  0
   37.9910   32.7560   39.4670 C   0  0  0  0  0  0  0  0  0  0  0  0
   39.3470   33.3570   39.6580 C   0  0  0  0  0  0  0  0  0  0  0  0
   40.0340   32.9960   40.8510 N   0  0  0  0  0  0  0  0  0  0  0  0
   39.2620   32.1690   41.7420 C   0  0  0  0  0  0  0  0  0  0  0  0
   38.8280   30.9380   41.0000 C   0  0  2  0  0  0  0  0  0  0  0  0
   34.2180   28.9110   40.8710 H   0  0  0  0  0  0  0  0  0  0  0  0
   33.9510   28.3210   38.4710 H   0  0  0  0  0  0  0  0  0  0  0  0
   35.5870   29.2440   36.8020 H   0  0  0  0  0  0  0  0  0  0  0  0
   37.7270   32.8090   38.3880 H   0  0  0  0  0  0  0  0  0  0  0  0
   37.2590   33.4050   39.9980 H   0  0  0  0  0  0  0  0  0  0  0  0
   39.9660   33.0810   38.7790 H   0  0  0  0  0  0  0  0  0  0  0  0
   39.2220   34.4650   39.6060 H   0  0  0  0  0  0  0  0  0  0  0  0
   40.4950   33.7850   41.3520 H   0  0  0  0  0  0  0  0  0  0  0  0
   38.3480   32.7550   41.9960 H   0  0  0  0  0  0  0  0  0  0  0  0
   39.8290   31.9640   42.6490 H   0  0  0  0  0  0  0  0  0  0  0  0
   38.2630   30.3150   41.6980 H   0  0  0  0  0  0  0  0  0  0  0  0
   39.9740   30.2150   40.3600 C   0  0  0  0  0  0  0  0  0  0  0  0
   40.8930   30.8230   40.4290 H   0  0  0  0  0  0  0  0  0  0  0  0
   39.6880   29.9060   39.3480 H   0  0  0  0  0  0  0  0  0  0  0  0
   40.1950   28.9470   41.1480 C   0  0  0  0  0  3  0  0  0  0  0  0
   39.4460   28.6400   42.1850 C   0  0  0  0  0  3  0  0  0  0  0  0
   39.5800   27.4170   43.0260 C   0  0  0  0  0  0  0  0  0  0  0  0
   40.0490   27.7700   43.9860 H   0  0  0  0  0  0  0  0  0  0  0  0
   40.2060   26.6350   42.5980 H   0  0  0  0  0  0  0  0  0  0  0  0
   38.1820   26.9290   43.3670 C   0  0  0  0  0  3  0  0  0  0  0  0
   37.0920   27.1690   42.3530 C   0  0  0  0  0  2  0  0  0  0  0  0
   37.1100   27.9010   43.6790 C   0  0  0  0  0  2  0  0  0  0  0  0
  1  6  1  0  0  0  0
  1 13  1  0  0  0  0
  2  1  2  0  0  0  0
  3  4  2  0  0  0  0
  3  2  1  0  0  0  0
  4  5  1  0  0  0  0
  5  7  1  0  0  0  0
  5  6  2  0  0  0  0
  7 12  1  0  0  0  0
  8  9  1  0  0  0  0
  8 17  1  0  0  0  0
  8  7  1  0  0  0  0
  9 10  1  0  0  0  0
 10 20  1  0  0  0  0
 10 11  1  0  0  0  0
 11 21  1  0  0  0  0
 11 22  1  0  0  0  0
 12 23  1  1  0  0  0
 12 11  1  0  0  0  0
 14  2  1  0  0  0  0
 15  3  1  0  0  0  0
 16  8  1  0  0  0  0
 18  9  1  0  0  0  0
 19  9  1  0  0  0  0
 24 25  1  0  0  0  0
 24 12  1  0  0  0  0
 24 27  1  0  0  0  0
 26 24  1  0  0  0  0
 27 28  2  0  0  0  0
 28 29  1  0  0  0  0
 29 32  1  0  0  0  0
 29 30  1  0  0  0  0
 31 29  1  0  0  0  0
 32 34  1  0  0  0  0
 33 32  1  0  0  0  0
 33 34  1  0  0  0  0
M  END
>  <minimizedAffinity>
-4.60006428

$$$$

 OpenBabel03242517293D

 34 36  0  0  1  0  0  0  0  0999 V2000
   36.7830   25.2220   38.4020 C   0  0  0  0  0  0  0  0  0  0  0  0
   35.7820   24.2410   38.7000 C   0  0  0  0  0  0  0  0  0  0  0  0
   35.7470   23.6890   39.9850 C   0  0  0  0  0  0  0  0  0  0  0  0
   36.6720   24.1220   40.8820 N   0  0  0  0  0  0  0  0  0  0  0  0
   37.6030   25.0380   40.5990 C   0  0  0  0  0  0  0  0  0  0  0  0
   37.6290   25.5590   39.3670 N   0  0  0  0  0  0  0  0  0  0  0  0
   38.5100   25.4180   41.5870 N   0  0  0  0  0  0  0  0  0  0  0  0
   39.3610   24.4440   42.2130 C   0  0  0  0  0  0  0  0  0  0  0  0
   39.9660   24.9080   43.5000 C   0  0  0  0  0  0  0  0  0  0  0  0
   40.2630   26.2980   43.5920 N   0  0  0  0  0  0  0  0  0  0  0  0
   40.0160   27.0290   42.3760 C   0  0  0  0  0  0  0  0  0  0  0  0
   38.5820   26.8300   41.9790 C   0  0  2  0  0  0  0  0  0  0  0  0
   36.8100   25.6460   37.4140 H   0  0  0  0  0  0  0  0  0  0  0  0
   35.0740   23.9430   37.9300 H   0  0  0  0  0  0  0  0  0  0  0  0
   34.9980   22.9440   40.2340 H   0  0  0  0  0  0  0  0  0  0  0  0
   38.8560   23.4690   42.3890 H   0  0  0  0  0  0  0  0  0  0  0  0
   40.1970   24.2370   41.5070 H   0  0  0  0  0  0  0  0  0  0  0  0
   39.2730   24.6260   44.3200 H   0  0  0  0  0  0  0  0  0  0  0  0
   40.8910   24.3060   43.6620 H   0  0  0  0  0  0  0  0  0  0  0  0
   41.1940   26.5250   44.0020 H   0  0  0  0  0  0  0  0  0  0  0  0
   40.6570   26.5580   41.5940 H   0  0  0  0  0  0  0  0  0  0  0  0
   40.3010   28.0730   42.5020 H   0  0  0  0  0  0  0  0  0  0  0  0
   38.4100   27.4090   41.0670 H   0  0  0  0  0  0  0  0  0  0  0  0
   37.6240   27.1670   43.0810 C   0  0  0  0  0  0  0  0  0  0  0  0
   38.0820   27.8990   43.7710 H   0  0  0  0  0  0  0  0  0  0  0  0
   37.2650   26.2420   43.5450 H   0  0  0  0  0  0  0  0  0  0  0  0
   36.4220   27.8200   42.4420 C   0  0  0  0  0  3  0  0  0  0  0  0
   36.5210   28.4910   41.3150 C   0  0  0  0  0  3  0  0  0  0  0  0
   35.4000   29.1690   40.6030 C   0  0  0  0  0  0  0  0  0  0  0  0
   35.7610   30.2190   40.4190 H   0  0  0  0  0  0  0  0  0  0  0  0
   34.4660   29.2140   41.1610 H   0  0  0  0  0  0  0  0  0  0  0  0
   35.2420   28.5070   39.2450 C   0  0  0  0  0  3  0  0  0  0  0  0
   35.4690   29.3590   38.0220 C   0  0  0  0  0  2  0  0  0  0  0  0
   34.0900   28.8480   38.3810 C   0  0  0  0  0  2  0  0  0  0  0  0
  1  2  2  0  0  0  0
  1  6  1  0  0  0  0
  2  3  1  0  0  0  0
  3 15  1  0  0  0  0
  3  4  2  0  0  0  0
  5  4  1  0  0  0  0
  5  7  1  0  0  0  0
  6  5  2  0  0  0  0
  7 12  1  0  0  0  0
  7  8  1  0  0  0  0
  8 16  1  0  0  0  0
  8  9  1  0  0  0  0
  9 10  1  0  0  0  0
  9 19  1  0  0  0  0
  9 18  1  0  0  0  0
 10 20  1  0  0  0  0
 11 22  1  0  0  0  0
 11 10  1  0  0  0  0
 12 23  1  6  0  0  0
 12 11  1  0  0  0  0
 12 24  1  0  0  0  0
 13  1  1  0  0  0  0
 14  2  1  0  0  0  0
 17  8  1  0  0  0  0
 21 11  1  0  0  0  0
 24 26  1  0  0  0  0
 24 25  1  0  0  0  0
 27 24  1  0  0  0  0
 28 27  2  0  0  0  0
 29 31  1  0  0  0  0
 29 28  1  0  0  0  0
 30 29  1  0  0  0  0
 32 29  1  0  0  0  0
 33 34  1  0  0  0  0
 33 32  1  0  0  0  0
 34 32  1  0  0  0  0
M  END
>  <minimizedAffinity>
-4.58144522

$$$$
