
 OpenBabel03252503343D

 16 17  0  0  0  0  0  0  0  0999 V2000
   45.2210   35.8200   42.9520 C   0  0  0  0  0  0  0  0  0  0  0  0
   46.4680   35.1910   42.7030 C   0  0  0  0  0  0  0  0  0  0  0  0
   46.9370   34.2720   43.6460 C   0  0  0  0  0  0  0  0  0  0  0  0
   46.1950   34.0250   44.7400 N   0  0  0  0  0  0  0  0  0  0  0  0
   45.0060   34.6300   44.9710 C   0  0  0  0  0  0  0  0  0  0  0  0
   44.5300   35.5210   44.0760 N   0  0  0  0  0  0  0  0  0  0  0  0
   44.8000   36.5520   42.2480 H   0  0  0  0  0  0  0  0  0  0  0  0
   47.0150   35.4320   41.8060 H   0  0  0  0  0  0  0  0  0  0  0  0
   44.5250   34.3310   45.8900 H   0  0  0  0  0  0  0  0  0  0  0  0
   48.2680   32.4040   42.6760 C   0  0  0  0  0  0  0  0  0  0  0  0
   47.1630   32.0290   42.1670 O   0  0  0  0  0  0  0  0  0  0  0  0
   48.1750   33.6180   43.4430 N   0  0  0  0  0  0  0  0  0  0  0  0
   49.0790   33.9970   43.8480 H   0  0  0  0  0  0  0  0  0  0  0  0
   49.5860   31.7310   42.5560 C   0  0  0  0  0  3  0  0  0  0  0  0
   49.9560   31.0120   41.2890 C   0  0  0  0  0  2  0  0  0  0  0  0
   50.5260   32.3720   41.5060 C   0  0  0  0  0  2  0  0  0  0  0  0
  1  6  1  0  0  0  0
  2  1  2  0  0  0  0
  2  3  1  0  0  0  0
  3  4  2  0  0  0  0
  4  5  1  0  0  0  0
  5  9  1  0  0  0  0
  6  5  2  0  0  0  0
  7  1  1  0  0  0  0
  8  2  1  0  0  0  0
 10 12  1  0  0  0  0
 11 10  2  0  0  0  0
 12  3  1  0  0  0  0
 12 13  1  0  0  0  0
 14 10  1  0  0  0  0
 15 16  1  0  0  0  0
 15 14  1  0  0  0  0
 16 14  1  0  0  0  0
M  END
>  <minimizedAffinity>
-3.27452087

>  <minimizedRMSD>
3.0292933

$$$$
