REMARK  Name = 
REMARK  3 active torsions:
REMARK  status: ('A' for Active; 'I' for Inactive)
REMARK    1  A    between atoms: C_1  and  C_9
REMARK    2  A    between atoms: C_2  and  C_13
REMARK    3  A    between atoms: C_13  and  C_23
REMARK                            x       y       z     vdW  Elec       q    Type
REMARK                         _______ _______ _______ _____ _____    ______ ____
ROOT
ATOM      1  C   UNL     1      46.611  34.425  41.448  0.00  0.00    +0.000 A 
ATOM      2  C   UNL     1      47.883  34.910  41.234  0.00  0.00    +0.000 A 
ATOM      3  C   UNL     1      48.530  34.657  40.050  0.00  0.00    +0.000 A 
ATOM      4  C   UNL     1      47.876  33.908  39.087  0.00  0.00    +0.000 A 
ATOM      5  C   UNL     1      46.620  33.410  39.259  0.00  0.00    +0.000 A 
ATOM      6  C   UNL     1      45.998  33.694  40.484  0.00  0.00    +0.000 A 
ATOM      7  H   UNL     1      49.538  35.032  39.862  0.00  0.00    +0.000 HD
ATOM      8  H   UNL     1      48.423  33.734  38.169  0.00  0.00    +0.000 HD
ATOM      9  H   UNL     1      46.134  32.818  38.491  0.00  0.00    +0.000 HD
ATOM     10  H   UNL     1      45.001  33.305  40.627  0.00  0.00    +0.000 HD
ENDROOT
BRANCH   1  13
ATOM     11  C   UNL     1      44.694  36.049  44.274  0.00  0.00    +0.000 A 
ATOM     12  C   UNL     1      45.235  35.860  42.988  0.00  0.00    +0.000 A 
ATOM     13  C   UNL     1      45.996  34.735  42.732  0.00  0.00    +0.000 A 
ATOM     14  N   UNL     1      46.157  33.895  43.764  0.00  0.00    +0.000 NA
ATOM     15  C   UNL     1      45.649  34.058  44.997  0.00  0.00    +0.000 A 
ATOM     16  N   UNL     1      44.910  35.150  45.249  0.00  0.00    +0.000 NA
ATOM     17  H   UNL     1      44.094  36.941  44.481  0.00  0.00    +0.000 HD
ATOM     18  H   UNL     1      45.075  36.556  42.197  0.00  0.00    +0.000 HD
ATOM     19  H   UNL     1      45.899  33.257  45.682  0.00  0.00    +0.000 HD
ENDBRANCH   1  13
BRANCH   2  20
ATOM     20  C   UNL     1      48.569  35.714  42.301  0.00  0.00    +0.000 C 
ATOM     21  H   UNL     1      48.926  35.087  43.131  0.00  0.00    +0.000 HD
ATOM     22  H   UNL     1      47.825  36.414  42.709  0.00  0.00    +0.000 HD
BRANCH  20  23
ATOM     23  C   UNL     1      49.649  36.528  41.635  0.00  0.00    +0.000 C 
ATOM     24  C   UNL     1      51.067  36.149  41.763  0.00  0.00    +0.000 C 
ATOM     25  C   UNL     1      50.338  35.968  40.452  0.00  0.00    +0.000 C 
ENDBRANCH  20  23
ENDBRANCH   2  20
TORSDOF 3
