
 OpenBabel03252501113D

 14 15  0  0  0  0  0  0  0  0999 V2000
   44.6000   35.8670   44.3450 C   0  0  0  0  0  0  0  0  0  0  0  0
   45.4360   35.8770   43.2270 C   0  0  0  0  0  0  0  0  0  0  0  0
   46.4250   34.9120   43.1150 C   0  0  0  0  0  0  0  0  0  0  0  0
   46.5420   33.9890   44.1050 N   0  0  0  0  0  0  0  0  0  0  0  0
   45.7160   33.9990   45.1850 C   0  0  0  0  0  0  0  0  0  0  0  0
   44.7460   34.9400   45.3010 N   0  0  0  0  0  0  0  0  0  0  0  0
   43.8050   36.5830   44.5060 H   0  0  0  0  0  0  0  0  0  0  0  0
   45.2050   36.6830   42.5300 H   0  0  0  0  0  0  0  0  0  0  0  0
   45.9800   33.1920   45.8380 H   0  0  0  0  0  0  0  0  0  0  0  0
   47.2490   34.9870   41.9320 C   0  0  0  0  0  0  0  0  0  0  0  0
   48.3070   35.6780   41.8480 O   0  0  0  0  0  0  0  0  0  0  0  0
   46.8780   34.2190   40.6990 C   0  0  0  0  0  0  0  0  0  0  0  0
   47.8170   34.1290   39.5690 C   0  0  0  0  0  0  0  0  0  0  0  0
   47.7210   32.9790   40.5080 C   0  0  0  0  0  0  0  0  0  0  0  0
  1  7  1  0  0  0  0
  1  6  1  0  0  0  0
  2  1  2  0  0  0  0
  3  2  1  0  0  0  0
  3  4  2  0  0  0  0
  4  5  1  0  0  0  0
  5  6  2  0  0  0  0
  5  9  1  0  0  0  0
  8  2  1  0  0  0  0
 10  3  1  0  0  0  0
 11 10  2  0  0  0  0
 12 10  1  0  0  0  0
 13 14  1  0  0  0  0
 13 12  1  0  0  0  0
 14 12  1  0  0  0  0
M  END
>  <minimizedAffinity>
-3.77483606

>  <minimizedRMSD>
0.459880054

$$$$
