
 OpenBabel03252509273D

 24 26  0  0  1  0  0  0  0  0999 V2000
   46.7180   35.1210   41.9130 C   0  0  1  0  0  0  0  0  0  0  0  0
   48.2420   35.4260   41.9620 C   0  0  0  0  0  0  0  0  0  0  0  0
   47.5670   34.1890   41.2960 C   0  0  2  0  0  0  0  0  0  0  0  0
   46.1300   35.8740   41.3590 H   0  0  0  0  0  0  0  0  0  0  0  0
   48.5350   36.2360   41.2980 H   0  0  0  0  0  0  0  0  0  0  0  0
   48.7880   35.2530   42.8930 H   0  0  0  0  0  0  0  0  0  0  0  0
   47.8790   33.2220   41.7980 H   0  0  0  0  0  0  0  0  0  0  0  0
   44.7100   35.2660   45.0760 C   0  0  0  0  0  0  0  0  0  0  0  0
   45.1930   35.6360   43.7930 C   0  0  0  0  0  0  0  0  0  0  0  0
   46.1940   34.8640   43.3050 C   0  0  0  0  0  0  0  0  0  0  0  0
   46.7070   33.7920   44.0170 N   0  0  0  0  0  0  0  0  0  0  0  0
   46.2190   33.4750   45.2340 C   0  0  0  0  0  0  0  0  0  0  0  0
   45.2150   34.2170   45.7620 N   0  0  0  0  0  0  0  0  0  0  0  0
   43.9100   35.8630   45.4900 H   0  0  0  0  0  0  0  0  0  0  0  0
   46.7000   32.6200   45.6880 H   0  0  0  0  0  0  0  0  0  0  0  0
   44.6990   36.7470   43.0940 N   0  0  0  0  0  0  0  0  0  0  0  0
   45.3110   37.3430   42.4950 H   0  0  0  0  0  0  0  0  0  0  0  0
   43.6780   37.0130   43.1550 H   0  0  0  0  0  0  0  0  0  0  0  0
   47.6360   34.0500   39.7950 C   0  0  0  0  0  0  0  0  0  0  0  0
   46.6020   34.1290   39.4210 H   0  0  0  0  0  0  0  0  0  0  0  0
   48.1680   34.9380   39.4030 H   0  0  0  0  0  0  0  0  0  0  0  0
   48.2440   32.7510   39.3370 C   0  0  0  0  0  3  0  0  0  0  0  0
   49.0000   32.6080   38.0990 C   0  0  0  0  0  2  0  0  0  0  0  0
   47.5440   32.1760   38.0890 C   0  0  0  0  0  2  0  0  0  0  0  0
  1  4  1  6  0  0  0
  1  2  1  0  0  0  0
  1 10  1  0  0  0  0
  2  6  1  0  0  0  0
  3  7  1  1  0  0  0
  3  1  1  0  0  0  0
  3  2  1  0  0  0  0
  5  2  1  0  0  0  0
  8 14  1  0  0  0  0
  8 13  1  0  0  0  0
  9  8  2  0  0  0  0
 10  9  1  0  0  0  0
 10 11  2  0  0  0  0
 11 12  1  0  0  0  0
 12 15  1  0  0  0  0
 12 13  2  0  0  0  0
 16 18  1  0  0  0  0
 16  9  1  0  0  0  0
 17 16  1  0  0  0  0
 19  3  1  0  0  0  0
 20 19  1  0  0  0  0
 21 19  1  0  0  0  0
 22 19  1  0  0  0  0
 23 22  1  0  0  0  0
 24 23  1  0  0  0  0
 24 22  1  0  0  0  0
M  END
>  <minimizedAffinity>
-4.25121641

>  <minimizedRMSD>
0.322909623

$$$$
