
 OpenBabel03252500223D

 30 32  0  0  1  0  0  0  0  0999 V2000
   46.0470   34.8270   42.5470 C   0  0  1  0  0  0  0  0  0  0  0  0
   47.5640   35.0570   42.4050 C   0  0  0  0  0  0  0  0  0  0  0  0
   48.2060   34.7310   41.1420 C   0  0  0  0  0  0  0  0  0  0  0  0
   47.2700   34.1840   40.0770 C   0  0  0  0  0  0  0  0  0  0  0  0
   46.5010   33.0950   40.8110 C   0  0  0  0  0  0  0  0  0  0  0  0
   45.4410   33.9020   41.5980 C   0  0  2  0  0  0  0  0  0  0  0  0
   45.7050   35.8900   42.4050 H   0  0  0  0  0  0  0  0  0  0  0  0
   48.1120   35.4470   43.2270 H   0  0  0  0  0  0  0  0  0  0  0  0
   49.2740   34.9260   41.1360 H   0  0  0  0  0  0  0  0  0  0  0  0
   47.9370   33.7990   39.3190 H   0  0  0  0  0  0  0  0  0  0  0  0
   46.6420   35.0440   39.8120 H   0  0  0  0  0  0  0  0  0  0  0  0
   47.1180   32.5370   41.5140 H   0  0  0  0  0  0  0  0  0  0  0  0
   45.9090   32.4690   40.1060 H   0  0  0  0  0  0  0  0  0  0  0  0
   44.8820   33.1110   42.1270 H   0  0  0  0  0  0  0  0  0  0  0  0
   46.6630   33.5390   44.6170 C   0  0  0  0  0  0  0  0  0  0  0  0
   45.8540   34.5090   43.9860 C   0  0  0  0  0  0  0  0  0  0  0  0
   44.8260   35.0670   44.7570 C   0  0  0  0  0  0  0  0  0  0  0  0
   44.6380   34.6750   46.0400 N   0  0  0  0  0  0  0  0  0  0  0  0
   45.4520   33.7340   46.5890 C   0  0  0  0  0  0  0  0  0  0  0  0
   46.4550   33.1770   45.8730 N   0  0  0  0  0  0  0  0  0  0  0  0
   45.2710   33.3220   47.9260 N   0  0  0  0  0  0  0  0  0  0  0  0
   47.4890   33.0460   44.1260 H   0  0  0  0  0  0  0  0  0  0  0  0
   45.5520   32.3510   48.2040 H   0  0  0  0  0  0  0  0  0  0  0  0
   44.8520   34.0250   48.6010 H   0  0  0  0  0  0  0  0  0  0  0  0
   44.0380   36.0800   44.1360 N   0  0  0  0  0  0  0  0  0  0  0  0
   43.1180   36.0110   43.6500 H   0  0  0  0  0  0  0  0  0  0  0  0
   44.3830   37.0810   44.1330 H   0  0  0  0  0  0  0  0  0  0  0  0
   44.4660   34.5290   40.6300 C   0  0  0  0  0  0  0  0  0  0  0  0
   43.5630   33.8000   39.7610 C   0  0  0  0  0  0  0  0  0  0  0  0
   42.9980   34.3660   41.0300 C   0  0  0  0  0  0  0  0  0  0  0  0
  1  7  1  6  0  0  0
  1 16  1  0  0  0  0
  2  1  1  0  0  0  0
  2  8  1  0  0  0  0
  3  2  2  0  0  0  0
  4  5  1  0  0  0  0
  4  3  1  0  0  0  0
  5 12  1  0  0  0  0
  5  6  1  0  0  0  0
  6 14  1  1  0  0  0
  6  1  1  0  0  0  0
  9  3  1  0  0  0  0
 10  4  1  0  0  0  0
 11  4  1  0  0  0  0
 13  5  1  0  0  0  0
 15 20  1  0  0  0  0
 16 15  2  0  0  0  0
 16 17  1  0  0  0  0
 17 18  2  0  0  0  0
 18 19  1  0  0  0  0
 19 21  1  0  0  0  0
 20 19  2  0  0  0  0
 21 23  1  0  0  0  0
 21 24  1  0  0  0  0
 22 15  1  0  0  0  0
 25 17  1  0  0  0  0
 26 25  1  0  0  0  0
 27 25  1  0  0  0  0
 28 30  1  0  0  0  0
 28  6  1  0  0  0  0
 29 28  1  0  0  0  0
 29 30  1  0  0  0  0
M  END
>  <minimizedAffinity>
-5.79300261

>  <minimizedRMSD>
3.22959781

$$$$
