
 OpenBabel03242510223D

 32 35  0  0  1  0  0  0  0  0999 V2000
   46.3000   32.1190   44.4740 C   0  0  1  0  0  0  0  0  0  0  0  0
   46.4040   31.3720   43.2930 C   0  0  0  0  0  0  0  0  0  0  0  0
   47.6500   32.1160   43.8700 C   0  0  1  0  0  0  0  0  0  0  0  0
   46.1540   31.6590   45.4750 H   0  0  0  0  0  0  0  0  0  0  0  0
   46.1160   31.6320   42.2570 H   0  0  0  0  0  0  0  0  0  0  0  0
   46.4790   30.2440   43.3830 H   0  0  0  0  0  0  0  0  0  0  0  0
   48.4150   31.4120   44.2260 H   0  0  0  0  0  0  0  0  0  0  0  0
   45.0380   33.9980   43.1770 C   0  0  0  0  0  0  0  0  0  0  0  0
   45.5410   33.4570   44.4050 C   0  0  0  0  0  0  0  0  0  0  0  0
   45.3450   34.1960   45.5530 C   0  0  0  0  0  0  0  0  0  0  0  0
   44.7000   35.3780   45.4720 N   0  0  0  0  0  0  0  0  0  0  0  0
   44.2290   35.8800   44.2970 C   0  0  0  0  0  0  0  0  0  0  0  0
   44.4100   35.1560   43.1160 N   0  0  0  0  0  0  0  0  0  0  0  0
   45.1800   33.4010   42.2970 H   0  0  0  0  0  0  0  0  0  0  0  0
   45.6970   33.8480   46.5160 H   0  0  0  0  0  0  0  0  0  0  0  0
   43.7130   36.8270   44.2380 H   0  0  0  0  0  0  0  0  0  0  0  0
   48.0070   33.2520   43.0990 N   0  0  0  0  0  0  0  0  0  0  0  0
   49.2150   33.3600   42.4180 C   0  0  0  0  0  0  0  0  0  0  0  0
   50.3830   33.0420   42.7560 O   0  0  0  0  0  0  0  0  0  0  0  0
   47.4160   34.1030   42.9700 H   0  0  0  0  0  0  0  0  0  0  0  0
   49.2180   33.9480   41.0150 C   0  0  2  0  0  0  0  0  0  0  0  0
   48.6340   35.4000   40.8690 C   0  0  0  0  0  0  0  0  0  0  0  0
   47.9750   34.1830   40.2830 C   0  0  1  0  0  0  0  0  0  0  0  0
   50.1690   33.8890   40.4470 H   0  0  0  0  0  0  0  0  0  0  0  0
   48.1960   35.7970   41.8110 H   0  0  0  0  0  0  0  0  0  0  0  0
   49.0980   36.0720   40.1550 H   0  0  0  0  0  0  0  0  0  0  0  0
   47.0990   33.6750   40.7510 H   0  0  0  0  0  0  0  0  0  0  0  0
   48.0060   34.0490   38.7810 C   0  0  0  0  0  0  0  0  0  0  0  0
   48.5560   34.8940   38.0880 O   0  0  0  0  0  0  0  0  0  0  0  0
   47.3600   32.8730   38.1150 C   0  0  0  0  0  3  0  0  0  0  0  0
   46.1920   32.2050   38.7210 C   0  0  0  0  0  2  0  0  0  0  0  0
   45.9740   33.1600   37.5750 C   0  0  0  0  0  2  0  0  0  0  0  0
  1  4  1  1  0  0  0
  2  6  1  0  0  0  0
  2  3  1  0  0  0  0
  2  1  1  0  0  0  0
  3  7  1  1  0  0  0
  3  1  1  0  0  0  0
  5  2  1  0  0  0  0
  8  9  1  0  0  0  0
  9  1  1  0  0  0  0
  9 10  2  0  0  0  0
 10 15  1  0  0  0  0
 11 10  1  0  0  0  0
 12 11  2  0  0  0  0
 13  8  2  0  0  0  0
 13 12  1  0  0  0  0
 14  8  1  0  0  0  0
 16 12  1  0  0  0  0
 17  3  1  0  0  0  0
 18 19  2  0  0  0  0
 18 17  1  0  0  0  0
 20 17  1  0  0  0  0
 21 24  1  6  0  0  0
 21 18  1  0  0  0  0
 22 21  1  0  0  0  0
 22 25  1  0  0  0  0
 23 27  1  1  0  0  0
 23 22  1  0  0  0  0
 23 21  1  0  0  0  0
 26 22  1  0  0  0  0
 28 23  1  0  0  0  0
 29 28  2  0  0  0  0
 30 31  1  0  0  0  0
 30 28  1  0  0  0  0
 32 30  1  0  0  0  0
 32 31  1  0  0  0  0
M  END
>  <minimizedAffinity>
-4.42392445

>  <minimizedRMSD>
0.496595889

$$$$
