
 OpenBabel03252508433D

 25 27  0  0  0  0  0  0  0  0999 V2000
   43.1800   32.4090   40.0600 C   0  0  0  0  0  0  0  0  0  0  0  0
   42.6360   32.8160   38.8610 C   0  0  0  0  0  0  0  0  0  0  0  0
   41.9560   31.9220   38.0710 C   0  0  0  0  0  0  0  0  0  0  0  0
   41.8340   30.6140   38.5080 C   0  0  0  0  0  0  0  0  0  0  0  0
   42.3570   30.1720   39.6860 C   0  0  0  0  0  0  0  0  0  0  0  0
   43.0430   31.1200   40.4590 C   0  0  0  0  0  0  0  0  0  0  0  0
   41.5190   32.2250   37.1180 H   0  0  0  0  0  0  0  0  0  0  0  0
   41.2890   29.9450   37.8550 H   0  0  0  0  0  0  0  0  0  0  0  0
   42.2540   29.1390   40.0000 H   0  0  0  0  0  0  0  0  0  0  0  0
   43.4580   30.7780   41.3950 H   0  0  0  0  0  0  0  0  0  0  0  0
   44.0810   35.2460   42.3930 C   0  0  0  0  0  0  0  0  0  0  0  0
   43.2860   34.3140   41.6980 C   0  0  0  0  0  0  0  0  0  0  0  0
   43.8890   33.4180   40.8360 C   0  0  0  0  0  0  0  0  0  0  0  0
   45.2220   33.5160   40.7350 N   0  0  0  0  0  0  0  0  0  0  0  0
   45.9970   34.3970   41.3890 C   0  0  0  0  0  0  0  0  0  0  0  0
   45.4140   35.2700   42.2260 N   0  0  0  0  0  0  0  0  0  0  0  0
   43.6060   35.9600   43.0730 H   0  0  0  0  0  0  0  0  0  0  0  0
   42.2270   34.2720   41.8150 H   0  0  0  0  0  0  0  0  0  0  0  0
   47.0520   34.3030   41.1630 H   0  0  0  0  0  0  0  0  0  0  0  0
   42.7920   34.2400   38.4100 C   0  0  0  0  0  0  0  0  0  0  0  0
   43.4560   34.3320   37.5390 H   0  0  0  0  0  0  0  0  0  0  0  0
   43.2530   34.7940   39.2410 H   0  0  0  0  0  0  0  0  0  0  0  0
   41.4100   34.8030   38.1940 C   0  0  0  0  0  3  0  0  0  0  0  0
   40.8530   35.8090   39.1140 C   0  0  0  0  0  2  0  0  0  0  0  0
   41.2730   36.1960   37.7150 C   0  0  0  0  0  2  0  0  0  0  0  0
  1  6  1  0  0  0  0
  1 13  1  0  0  0  0
  2  1  2  0  0  0  0
  3  4  2  0  0  0  0
  3  2  1  0  0  0  0
  4  5  1  0  0  0  0
  5  9  1  0  0  0  0
  5  6  2  0  0  0  0
  6 10  1  0  0  0  0
  7  3  1  0  0  0  0
  8  4  1  0  0  0  0
 11 17  1  0  0  0  0
 12 18  1  0  0  0  0
 12 11  2  0  0  0  0
 13 12  1  0  0  0  0
 14 13  2  0  0  0  0
 14 15  1  0  0  0  0
 15 16  2  0  0  0  0
 16 11  1  0  0  0  0
 19 15  1  0  0  0  0
 20  2  1  0  0  0  0
 20 22  1  0  0  0  0
 21 20  1  0  0  0  0
 23 20  1  0  0  0  0
 23 24  1  0  0  0  0
 25 23  1  0  0  0  0
 25 24  1  0  0  0  0
M  END
>  <minimizedAffinity>
-3.35115147

>  <minimizedRMSD>
5.85515547

$$$$
