
 OpenBabel03242510223D

 32 35  0  0  1  0  0  0  0  0999 V2000
   46.3070   32.1210   44.4750 C   0  0  1  0  0  0  0  0  0  0  0  0
   46.4010   31.3730   43.2930 C   0  0  0  0  0  0  0  0  0  0  0  0
   47.6510   32.1210   43.8580 C   0  0  1  0  0  0  0  0  0  0  0  0
   46.1710   31.6620   45.4770 H   0  0  0  0  0  0  0  0  0  0  0  0
   46.1040   31.6320   42.2590 H   0  0  0  0  0  0  0  0  0  0  0  0
   46.4810   30.2470   43.3830 H   0  0  0  0  0  0  0  0  0  0  0  0
   48.4210   31.4200   44.2080 H   0  0  0  0  0  0  0  0  0  0  0  0
   45.0360   34.0000   43.1860 C   0  0  0  0  0  0  0  0  0  0  0  0
   45.5430   33.4570   44.4110 C   0  0  0  0  0  0  0  0  0  0  0  0
   45.3470   34.1920   45.5620 C   0  0  0  0  0  0  0  0  0  0  0  0
   44.6990   35.3720   45.4860 N   0  0  0  0  0  0  0  0  0  0  0  0
   44.2230   35.8760   44.3130 C   0  0  0  0  0  0  0  0  0  0  0  0
   44.4040   35.1560   43.1300 N   0  0  0  0  0  0  0  0  0  0  0  0
   45.1770   33.4060   42.3040 H   0  0  0  0  0  0  0  0  0  0  0  0
   45.7030   33.8420   46.5240 H   0  0  0  0  0  0  0  0  0  0  0  0
   43.7050   36.8220   44.2590 H   0  0  0  0  0  0  0  0  0  0  0  0
   47.9980   33.2580   43.0830 N   0  0  0  0  0  0  0  0  0  0  0  0
   49.2110   33.3800   42.4140 C   0  0  0  0  0  0  0  0  0  0  0  0
   50.3800   33.0830   42.7660 O   0  0  0  0  0  0  0  0  0  0  0  0
   47.3950   34.0990   42.9420 H   0  0  0  0  0  0  0  0  0  0  0  0
   49.2190   33.9590   41.0070 C   0  0  2  0  0  0  0  0  0  0  0  0
   48.6460   35.4140   40.8510 C   0  0  0  0  0  0  0  0  0  0  0  0
   47.9780   34.1990   40.2730 C   0  0  1  0  0  0  0  0  0  0  0  0
   50.1700   33.8890   40.4400 H   0  0  0  0  0  0  0  0  0  0  0  0
   48.2100   35.8210   41.7900 H   0  0  0  0  0  0  0  0  0  0  0  0
   49.1150   36.0780   40.1330 H   0  0  0  0  0  0  0  0  0  0  0  0
   47.0980   33.7000   40.7440 H   0  0  0  0  0  0  0  0  0  0  0  0
   48.0090   34.0540   38.7720 C   0  0  0  0  0  0  0  0  0  0  0  0
   48.5590   34.8940   38.0730 O   0  0  0  0  0  0  0  0  0  0  0  0
   47.3620   32.8740   38.1140 C   0  0  0  0  0  3  0  0  0  0  0  0
   46.1930   32.2110   38.7240 C   0  0  0  0  0  2  0  0  0  0  0  0
   45.9760   33.1600   37.5710 C   0  0  0  0  0  2  0  0  0  0  0  0
  1  4  1  1  0  0  0
  2  6  1  0  0  0  0
  2  3  1  0  0  0  0
  2  1  1  0  0  0  0
  3  7  1  1  0  0  0
  3  1  1  0  0  0  0
  5  2  1  0  0  0  0
  8  9  1  0  0  0  0
  9  1  1  0  0  0  0
  9 10  2  0  0  0  0
 10 15  1  0  0  0  0
 11 10  1  0  0  0  0
 12 11  2  0  0  0  0
 13  8  2  0  0  0  0
 13 12  1  0  0  0  0
 14  8  1  0  0  0  0
 16 12  1  0  0  0  0
 17  3  1  0  0  0  0
 18 19  2  0  0  0  0
 18 17  1  0  0  0  0
 20 17  1  0  0  0  0
 21 24  1  6  0  0  0
 21 18  1  0  0  0  0
 22 21  1  0  0  0  0
 22 25  1  0  0  0  0
 23 27  1  1  0  0  0
 23 22  1  0  0  0  0
 23 21  1  0  0  0  0
 26 22  1  0  0  0  0
 28 23  1  0  0  0  0
 29 28  2  0  0  0  0
 30 31  1  0  0  0  0
 30 28  1  0  0  0  0
 32 30  1  0  0  0  0
 32 31  1  0  0  0  0
M  END
>  <minimizedAffinity>
-4.42084408

>  <minimizedRMSD>
0.536803603

$$$$
