REMARK  Name = 
REMARK  6 active torsions:
REMARK  status: ('A' for Active; 'I' for Inactive)
REMARK    1  A    between atoms: C_1  and  C_4
REMARK    2  A    between atoms: C_1  and  O_8
REMARK    3  A    between atoms: O_8  and  P_10
REMARK    4  A    between atoms: P_10  and  O_11
REMARK    5  A    between atoms: P_10  and  O_12
REMARK    6  A    between atoms: O_12  and  C_19
REMARK                            x       y       z     vdW  Elec       q    Type
REMARK                         _______ _______ _______ _____ _____    ______ ____
ROOT
ATOM      1  C   UNL     1      47.154  33.983  42.465  0.00  0.00    +0.000 C 
ATOM      2  H   UNL     1      47.379  34.838  41.787  0.00  0.00    +0.000 HD
ATOM      3  H   UNL     1      46.596  33.228  41.854  0.00  0.00    +0.000 HD
ENDROOT
BRANCH   1   6
ATOM      4  C   UNL     1      45.304  34.225  45.705  0.00  0.00    +0.000 A 
ATOM      5  C   UNL     1      46.168  33.750  44.711  0.00  0.00    +0.000 A 
ATOM      6  C   UNL     1      46.260  34.458  43.517  0.00  0.00    +0.000 A 
ATOM      7  N   UNL     1      45.497  35.596  43.362  0.00  0.00    +0.000 NA
ATOM      8  C   UNL     1      44.674  36.022  44.347  0.00  0.00    +0.000 A 
ATOM      9  N   UNL     1      44.576  35.351  45.499  0.00  0.00    +0.000 NA
ATOM     10  H   UNL     1      45.306  33.605  46.592  0.00  0.00    +0.000 HD
ATOM     11  H   UNL     1      46.762  32.865  44.832  0.00  0.00    +0.000 HD
ATOM     12  H   UNL     1      44.068  36.913  44.243  0.00  0.00    +0.000 HD
ENDBRANCH   1   6
BRANCH   1  13
ATOM     13  O   UNL     1      48.310  33.425  43.010  0.00  0.00    +0.000 OA
BRANCH  13  15
ATOM     14  O   UNL     1      50.663  33.101  41.907  0.00  0.00    +0.000 OA
ATOM     15  P   UNL     1      49.627  34.154  42.235  0.00  0.00    +0.000 P 
BRANCH  15  16
ATOM     16  O   UNL     1      50.211  35.358  43.246  0.00  0.00    +0.000 OA
ATOM     17  H   UNL     1      50.734  34.937  43.968  0.00  0.00    +0.000 HD
ENDBRANCH  15  16
BRANCH  15  18
ATOM     18  O   UNL     1      49.077  34.804  40.782  0.00  0.00    +0.000 OA
BRANCH  18  19
ATOM     19  C   UNL     1      49.393  36.128  40.612  0.00  0.00    +0.000 C 
ATOM     20  C   UNL     1      49.226  36.995  41.836  0.00  0.00    +0.000 C 
ATOM     21  C   UNL     1      48.188  37.053  40.773  0.00  0.00    +0.000 C 
ENDBRANCH  18  19
ENDBRANCH  15  18
ENDBRANCH  13  15
ENDBRANCH   1  13
TORSDOF 6
