
     RDKit          3D

 37 40  0  0  0  0  0  0  0  0999 V2000
   46.3239   32.1349   44.5548 C   0  0  1  0  0  0  0  0  0  0  0  0
   46.4445   31.3588   43.3941 C   0  0  0  0  0  0  0  0  0  0  0  0
   47.6787   32.1274   43.9629 C   0  0  1  0  0  0  0  0  0  0  0  0
   45.0618   33.9717   43.1989 C   0  0  0  0  0  0  0  0  0  0  0  0
   45.5550   33.4650   44.4450 C   0  0  0  0  0  0  0  0  0  0  0  0
   45.3409   34.2300   45.5732 C   0  0  0  0  0  0  0  0  0  0  0  0
   44.6877   35.4043   45.4565 N   0  0  0  0  0  0  0  0  0  0  0  0
   44.2257   35.8736   44.2645 C   0  0  0  0  0  0  0  0  0  0  0  0
   44.4256   35.1227   43.1035 N   0  0  0  0  0  0  0  0  0  0  0  0
   48.0350   33.2461   43.1667 N   0  0  0  0  0  0  0  0  0  0  0  0
   49.1860   33.2900   42.3876 C   0  0  0  0  0  0  0  0  0  0  0  0
   50.3585   32.9046   42.6268 O   0  0  0  0  0  0  0  0  0  0  0  0
   49.1063   33.8856   40.9902 C   0  0  2  0  0  0  0  0  0  0  0  0
   48.6081   35.3744   40.8974 C   0  0  0  0  0  0  0  0  0  0  0  0
   47.8217   34.2070   40.3703 C   0  0  1  0  0  0  0  0  0  0  0  0
   47.7135   34.0815   38.8706 C   0  0  0  0  0  0  0  0  0  0  0  0
   48.4801   34.6874   38.1338 O   0  0  0  0  0  0  0  0  0  0  0  0
   46.1722   31.6993   45.5661 H   0  0  0  0  0  0  0  0  0  0  0  0
   46.1642   31.5908   42.3485 H   0  0  0  0  0  0  0  0  0  0  0  0
   46.5268   30.2354   43.5134 H   0  0  0  0  0  0  0  0  0  0  0  0
   48.4457   31.4378   44.3436 H   0  0  0  0  0  0  0  0  0  0  0  0
   45.2175   33.3552   42.3346 H   0  0  0  0  0  0  0  0  0  0  0  0
   45.6853   33.9085   46.5478 H   0  0  0  0  0  0  0  0  0  0  0  0
   43.7041   36.8146   44.1774 H   0  0  0  0  0  0  0  0  0  0  0  0
   47.4839   34.1296   43.0885 H   0  0  0  0  0  0  0  0  0  0  0  0
   49.9976   33.7690   40.3421 H   0  0  0  0  0  0  0  0  0  0  0  0
   48.2800   35.7933   41.8740 H   0  0  0  0  0  0  0  0  0  0  0  0
   49.0513   36.0185   40.1457 H   0  0  0  0  0  0  0  0  0  0  0  0
   46.9591   33.7539   40.9118 H   0  0  0  0  0  0  0  0  0  0  0  0
   46.6600   33.2083   38.2606 C   0  0  0  0  0  0  0  0  0  0  0  0
   46.9219   32.4600   37.0152 C   0  0  0  0  0  0  0  0  0  0  0  0
   46.9747   31.7279   38.3332 C   0  0  0  0  0  0  0  0  0  0  0  0
   45.6117   33.4700   38.4990 H   0  0  0  0  0  0  0  0  0  0  0  0
   47.8382   32.6174   36.4306 H   0  0  0  0  0  0  0  0  0  0  0  0
   46.0349   32.2273   36.3849 H   0  0  0  0  0  0  0  0  0  0  0  0
   47.9732   31.3719   38.6205 H   0  0  0  0  0  0  0  0  0  0  0  0
   46.1297   31.0370   38.6030 H   0  0  0  0  0  0  0  0  0  0  0  0
  2  3  1  0
  2  1  1  0
  3  1  1  0
  4  5  2  0
  5  1  1  0
  5  6  1  0
  7  6  2  0
  8  7  1  0
  9  4  1  0
  9  8  2  0
 10  3  1  0
 11 12  2  0
 11 10  1  0
 13 11  1  0
 14 13  1  0
 15 14  1  0
 15 13  1  0
 16 15  1  0
 17 16  2  0
  1 18  1  1
  2 19  1  0
  2 20  1  0
  3 21  1  1
  4 22  1  0
  6 23  1  0
  8 24  1  0
 10 25  1  0
 13 26  1  6
 14 27  1  0
 14 28  1  0
 15 29  1  1
 30 31  1  0
 31 32  1  0
 32 30  1  0
 30 33  1  0
 31 34  1  0
 31 35  1  0
 32 36  1  0
 32 37  1  0
 16 30  1  0
M  ISO  8  18  13  19  13  20  13  21  13  22  14  23  14  24  14  26  13
M  ISO  3  27  13  28  13  29  13
M  END
>  <DihAtoms>  (1) 
14,15,29,30

>  <DihDeg>  (1) 
-25.270836936669546

$$$$
