
 OpenBabel03252509343D

 37 39  0  0  1  0  0  0  0  0999 V2000
   45.3060   34.3750   42.7030 C   0  0  1  0  0  0  0  0  0  0  0  0
   44.5320   35.5150   42.0800 C   0  0  0  0  0  0  0  0  0  0  0  0
   44.1640   34.9220   40.7460 C   0  0  0  0  0  0  0  0  0  0  0  0
   45.2230   33.8820   40.4350 C   0  0  0  0  0  0  0  0  0  0  0  0
   46.2540   34.0090   41.5570 C   0  0  1  0  0  0  0  0  0  0  0  0
   44.6230   33.5470   42.8770 H   0  0  0  0  0  0  0  0  0  0  0  0
   43.5510   35.6190   42.6350 H   0  0  0  0  0  0  0  0  0  0  0  0
   45.0770   36.4530   42.0410 H   0  0  0  0  0  0  0  0  0  0  0  0
   44.1920   35.7290   39.9860 H   0  0  0  0  0  0  0  0  0  0  0  0
   43.1480   34.4740   40.7270 H   0  0  0  0  0  0  0  0  0  0  0  0
   45.5870   33.9760   39.4430 H   0  0  0  0  0  0  0  0  0  0  0  0
   44.7680   32.8570   40.6290 H   0  0  0  0  0  0  0  0  0  0  0  0
   46.6780   33.0370   41.8280 H   0  0  0  0  0  0  0  0  0  0  0  0
   47.3010   35.0400   41.3310 C   0  0  0  0  0  0  0  0  0  0  0  0
   47.1300   35.8610   42.0980 H   0  0  0  0  0  0  0  0  0  0  0  0
   47.1880   35.5360   40.3290 H   0  0  0  0  0  0  0  0  0  0  0  0
   48.6770   34.5290   41.5530 C   0  0  0  0  0  3  0  0  0  0  0  0
   49.6880   35.1320   42.4310 C   0  0  0  0  0  2  0  0  0  0  0  0
   49.1370   33.7140   42.6720 C   0  0  0  0  0  2  0  0  0  0  0  0
   46.0090   34.7670   43.8370 O   0  0  0  0  0  0  0  0  0  0  0  0
   44.8380   34.3830   46.1230 O   0  0  0  0  0  0  0  0  0  0  0  0
   45.6990   33.7020   45.1020 P   0  0  1  0  0  0  0  0  0  0  0  0
   44.9880   32.2870   44.5240 O   0  0  0  0  0  0  0  0  0  0  0  0
   44.1770   32.5500   44.0480 H   0  0  0  0  0  0  0  0  0  0  0  0
   47.1620   33.2260   45.7840 O   0  0  0  0  0  0  0  0  0  0  0  0
   47.1940   31.8820   45.8790 C   0  0  0  0  0  0  0  0  0  0  0  0
   46.8840   31.2790   45.0310 H   0  0  0  0  0  0  0  0  0  0  0  0
   48.2710   31.5910   46.0570 H   0  0  0  0  0  0  0  0  0  0  0  0
   45.9540   31.5140   49.3680 C   0  0  0  0  0  0  0  0  0  0  0  0
   46.6520   32.0030   48.2540 C   0  0  0  0  0  0  0  0  0  0  0  0
   46.4600   31.3710   47.0490 C   0  0  0  0  0  0  0  0  0  0  0  0
   45.6060   30.3090   47.0020 N   0  0  0  0  0  0  0  0  0  0  0  0
   44.9480   29.8560   48.0780 C   0  0  0  0  0  0  0  0  0  0  0  0
   45.1260   30.4590   49.2480 N   0  0  0  0  0  0  0  0  0  0  0  0
   46.1400   32.0480   50.2960 H   0  0  0  0  0  0  0  0  0  0  0  0
   47.3200   32.8580   48.3680 H   0  0  0  0  0  0  0  0  0  0  0  0
   44.2720   29.0110   48.0290 H   0  0  0  0  0  0  0  0  0  0  0  0
  1  6  1  1  0  0  0
  1 20  1  0  0  0  0
  2  7  1  0  0  0  0
  2  1  1  0  0  0  0
  3  2  1  0  0  0  0
  4 12  1  0  0  0  0
  4  3  1  0  0  0  0
  4  5  1  0  0  0  0
  5 13  1  1  0  0  0
  5  1  1  0  0  0  0
  8  2  1  0  0  0  0
  9  3  1  0  0  0  0
 10  3  1  0  0  0  0
 11  4  1  0  0  0  0
 14 17  1  0  0  0  0
 14  5  1  0  0  0  0
 14 15  1  0  0  0  0
 16 14  1  0  0  0  0
 17 18  1  0  0  0  0
 17 19  1  0  0  0  0
 18 19  1  0  0  0  0
 20 22  1  0  0  0  0
 22 25  1  0  0  0  0
 22 21  2  1  0  0  0
 23 22  1  0  0  0  0
 24 23  1  0  0  0  0
 25 26  1  0  0  0  0
 26 28  1  0  0  0  0
 26 31  1  0  0  0  0
 27 26  1  0  0  0  0
 29 35  1  0  0  0  0
 30 36  1  0  0  0  0
 30 29  2  0  0  0  0
 31 30  1  0  0  0  0
 32 31  2  0  0  0  0
 32 33  1  0  0  0  0
 33 34  2  0  0  0  0
 34 29  1  0  0  0  0
 37 33  1  0  0  0  0
M  END
>  <minimizedAffinity>
-4.90302944

>  <minimizedRMSD>
1.94441187

$$$$
