
 OpenBabel03242517593D

 18 19  0  0  0  0  0  0  0  0999 V2000
   45.2100   36.0010   43.3250 C   0  0  0  0  0  0  0  0  0  0  0  0
   46.0670   34.9110   43.1010 C   0  0  0  0  0  0  0  0  0  0  0  0
   46.2020   33.9730   44.1290 C   0  0  0  0  0  0  0  0  0  0  0  0
   45.4940   34.1840   45.2670 N   0  0  0  0  0  0  0  0  0  0  0  0
   44.6800   35.2440   45.4450 C   0  0  0  0  0  0  0  0  0  0  0  0
   44.5360   36.1640   44.4590 N   0  0  0  0  0  0  0  0  0  0  0  0
   45.0410   36.7830   42.5820 H   0  0  0  0  0  0  0  0  0  0  0  0
   46.8390   33.1340   44.0060 H   0  0  0  0  0  0  0  0  0  0  0  0
   44.1470   35.3520   46.3730 H   0  0  0  0  0  0  0  0  0  0  0  0
   46.7750   34.8000   41.8230 C   0  0  0  0  0  0  0  0  0  0  0  0
   45.9970   34.5400   41.0450 H   0  0  0  0  0  0  0  0  0  0  0  0
   47.2980   35.7260   41.6010 H   0  0  0  0  0  0  0  0  0  0  0  0
   47.7570   33.6520   41.9230 C   0  0  0  0  0  0  0  0  0  0  0  0
   47.7370   33.2100   42.9380 H   0  0  0  0  0  0  0  0  0  0  0  0
   47.4530   32.8270   41.2430 H   0  0  0  0  0  0  0  0  0  0  0  0
   49.1500   34.1170   41.5660 C   0  0  0  0  0  0  0  0  0  0  0  0
   50.3150   33.7550   42.3900 C   0  0  0  0  0  0  0  0  0  0  0  0
   49.7440   35.1490   42.4830 C   0  0  0  0  0  0  0  0  0  0  0  0
  1  6  1  0  0  0  0
  2  1  2  0  0  0  0
  2  3  1  0  0  0  0
  3  4  2  0  0  0  0
  4  5  1  0  0  0  0
  5  9  1  0  0  0  0
  6  5  2  0  0  0  0
  7  1  1  0  0  0  0
  8  3  1  0  0  0  0
 10 13  1  0  0  0  0
 10  2  1  0  0  0  0
 11 10  1  0  0  0  0
 12 10  1  0  0  0  0
 13 14  1  0  0  0  0
 15 13  1  0  0  0  0
 16 13  1  0  0  0  0
 16 17  1  0  0  0  0
 16 18  1  0  0  0  0
 17 18  1  0  0  0  0
M  END
>  <minimizedAffinity>
-4.03206921

>  <minimizedRMSD>
1.81356072

$$$$
