
 OpenBabel03252508503D

 22 24  0  0  0  0  0  0  0  0999 V2000
   45.8840   34.2180   41.0220 C   0  0  0  0  0  0  0  0  0  0  0  0
   46.4930   34.8050   42.1270 C   0  0  0  0  0  0  0  0  0  0  0  0
   47.8570   35.1220   42.0160 C   0  0  0  0  0  0  0  0  0  0  0  0
   48.4910   34.8370   40.8420 N   0  0  0  0  0  0  0  0  0  0  0  0
   47.8490   34.2680   39.8040 C   0  0  0  0  0  0  0  0  0  0  0  0
   46.5400   33.9500   39.8760 N   0  0  0  0  0  0  0  0  0  0  0  0
   48.3470   35.5790   42.8680 H   0  0  0  0  0  0  0  0  0  0  0  0
   48.4040   34.0620   38.8870 H   0  0  0  0  0  0  0  0  0  0  0  0
   45.7270   35.0660   43.3330 C   0  0  0  0  0  0  0  0  0  0  0  0
   45.0720   36.2590   43.5650 C   0  0  0  0  0  0  0  0  0  0  0  0
   44.4880   36.0770   44.7990 C   0  0  0  0  0  0  0  0  0  0  0  0
   44.7690   34.8500   45.2920 N   0  0  0  0  0  0  0  0  0  0  0  0
   45.5170   34.2610   44.3880 N   0  0  0  0  0  0  0  0  0  0  0  0
   45.0280   37.1350   42.9230 H   0  0  0  0  0  0  0  0  0  0  0  0
   43.8790   36.8450   45.2950 H   0  0  0  0  0  0  0  0  0  0  0  0
   44.4480   34.4500   46.2160 H   0  0  0  0  0  0  0  0  0  0  0  0
   44.5350   33.9000   41.1200 O   0  0  0  0  0  0  0  0  0  0  0  0
   43.5020   34.5860   40.5410 C   0  0  0  0  0  0  0  0  0  0  0  0
   42.7960   35.5220   41.0360 O   0  0  0  0  0  0  0  0  0  0  0  0
   42.8020   34.5560   39.2010 C   0  0  0  0  0  3  0  0  0  0  0  0
   42.3480   33.2290   38.6560 C   0  0  0  0  0  2  0  0  0  0  0  0
   41.3710   34.2640   39.1220 C   0  0  0  0  0  2  0  0  0  0  0  0
  1 17  1  0  0  0  0
  1  2  1  0  0  0  0
  2  9  1  0  0  0  0
  3  2  2  0  0  0  0
  3  7  1  0  0  0  0
  4  3  1  0  0  0  0
  5  6  1  0  0  0  0
  5  4  2  0  0  0  0
  6  1  2  0  0  0  0
  8  5  1  0  0  0  0
  9 10  1  0  0  0  0
  9 13  2  0  0  0  0
 10 11  2  0  0  0  0
 11 12  1  0  0  0  0
 11 15  1  0  0  0  0
 12 16  1  0  0  0  0
 13 12  1  0  0  0  0
 14 10  1  0  0  0  0
 18 19  2  0  0  0  0
 18 17  1  0  0  0  0
 20 18  1  0  0  0  0
 21 22  1  0  0  0  0
 21 20  1  0  0  0  0
 22 20  1  0  0  0  0
M  END
>  <minimizedAffinity>
-4.75480986

>  <minimizedRMSD>
0.607458651

$$$$
