
 OpenBabel03242510223D

 32 35  0  0  1  0  0  0  0  0999 V2000
   46.3130   32.1210   44.5250 C   0  0  1  0  0  0  0  0  0  0  0  0
   46.4540   31.3680   43.3510 C   0  0  0  0  0  0  0  0  0  0  0  0
   47.6800   32.1190   43.9610 C   0  0  1  0  0  0  0  0  0  0  0  0
   46.1390   31.6640   45.5240 H   0  0  0  0  0  0  0  0  0  0  0  0
   46.1960   31.6230   42.3060 H   0  0  0  0  0  0  0  0  0  0  0  0
   46.5300   30.2420   43.4480 H   0  0  0  0  0  0  0  0  0  0  0  0
   48.4360   31.4190   44.3430 H   0  0  0  0  0  0  0  0  0  0  0  0
   45.0660   33.9800   43.1860 C   0  0  0  0  0  0  0  0  0  0  0  0
   45.5520   33.4560   44.4280 C   0  0  0  0  0  0  0  0  0  0  0  0
   45.3380   34.2090   45.5640 C   0  0  0  0  0  0  0  0  0  0  0  0
   44.6920   35.3880   45.4580 N   0  0  0  0  0  0  0  0  0  0  0  0
   44.2370   35.8740   44.2690 C   0  0  0  0  0  0  0  0  0  0  0  0
   44.4370   35.1350   43.1010 N   0  0  0  0  0  0  0  0  0  0  0  0
   45.2220   33.3720   42.3150 H   0  0  0  0  0  0  0  0  0  0  0  0
   45.6770   33.8750   46.5360 H   0  0  0  0  0  0  0  0  0  0  0  0
   43.7210   36.8190   44.1910 H   0  0  0  0  0  0  0  0  0  0  0  0
   48.0560   33.2530   43.1960 N   0  0  0  0  0  0  0  0  0  0  0  0
   49.2260   33.3100   42.4460 C   0  0  0  0  0  0  0  0  0  0  0  0
   50.3910   32.9180   42.7050 O   0  0  0  0  0  0  0  0  0  0  0  0
   47.5090   34.1390   43.1220 H   0  0  0  0  0  0  0  0  0  0  0  0
   49.1800   33.9330   41.0580 C   0  0  2  0  0  0  0  0  0  0  0  0
   48.6890   35.4240   40.9830 C   0  0  0  0  0  0  0  0  0  0  0  0
   47.9120   34.2700   40.4150 C   0  0  1  0  0  0  0  0  0  0  0  0
   50.0870   33.8260   40.4290 H   0  0  0  0  0  0  0  0  0  0  0  0
   48.3390   35.8250   41.9600 H   0  0  0  0  0  0  0  0  0  0  0  0
   49.1510   36.0820   40.2550 H   0  0  0  0  0  0  0  0  0  0  0  0
   47.0350   33.8100   40.9270 H   0  0  0  0  0  0  0  0  0  0  0  0
   47.8390   34.1740   38.9110 C   0  0  0  0  0  0  0  0  0  0  0  0
   48.5830   34.8400   38.2030 O   0  0  0  0  0  0  0  0  0  0  0  0
   46.8480   33.2580   38.2610 C   0  0  0  0  0  3  0  0  0  0  0  0
   46.9060   32.9810   36.8110 C   0  0  0  0  0  2  0  0  0  0  0  0
   47.4480   31.9540   37.7750 C   0  0  0  0  0  2  0  0  0  0  0  0
  1  4  1  1  0  0  0
  2  6  1  0  0  0  0
  2  3  1  0  0  0  0
  2  1  1  0  0  0  0
  3  7  1  1  0  0  0
  3  1  1  0  0  0  0
  5  2  1  0  0  0  0
  8  9  1  0  0  0  0
  9  1  1  0  0  0  0
  9 10  2  0  0  0  0
 10 15  1  0  0  0  0
 11 10  1  0  0  0  0
 12 11  2  0  0  0  0
 13  8  2  0  0  0  0
 13 12  1  0  0  0  0
 14  8  1  0  0  0  0
 16 12  1  0  0  0  0
 17  3  1  0  0  0  0
 18 19  2  0  0  0  0
 18 17  1  0  0  0  0
 20 17  1  0  0  0  0
 21 24  1  6  0  0  0
 21 18  1  0  0  0  0
 22 21  1  0  0  0  0
 22 25  1  0  0  0  0
 23 27  1  1  0  0  0
 23 22  1  0  0  0  0
 23 21  1  0  0  0  0
 26 22  1  0  0  0  0
 28 23  1  0  0  0  0
 29 28  2  0  0  0  0
 30 28  1  0  0  0  0
 31 32  1  0  0  0  0
 31 30  1  0  0  0  0
 32 30  1  0  0  0  0
M  END
>  <minimizedAffinity>
-4.52077627

>  <minimizedRMSD>
0.192286074

$$$$
