REMARK  Name = 
REMARK  9 active torsions:
REMARK  status: ('A' for Active; 'I' for Inactive)
REMARK    1  A    between atoms: O_1  and  C_2
REMARK    2  A    between atoms: O_1  and  C_9
REMARK    3  A    between atoms: C_2  and  C_4
REMARK    4  A    between atoms: C_10  and  C_11
REMARK    5  A    between atoms: C_11  and  O_12
REMARK    6  A    between atoms: O_12  and  P_14
REMARK    7  A    between atoms: P_14  and  O_15
REMARK    8  A    between atoms: P_14  and  O_16
REMARK    9  A    between atoms: O_16  and  C_27
REMARK                            x       y       z     vdW  Elec       q    Type
REMARK                         _______ _______ _______ _____ _____    ______ ____
ROOT
ATOM      1  C   UNL     1      43.721  35.699  41.476  0.00  0.00    +0.000 C 
ATOM      2  C   UNL     1      43.963  35.244  42.713  0.00  0.00    +0.000 C 
ENDROOT
BRANCH   2   3
ATOM      3  C   UNL     1      45.193  35.575  43.532  0.00  0.00    +0.000 C 
ATOM      4  H   UNL     1      46.029  35.092  42.965  0.00  0.00    +0.000 HD
ATOM      5  H   UNL     1      45.370  36.648  43.565  0.00  0.00    +0.000 HD
BRANCH   3   6
ATOM      6  O   UNL     1      45.056  34.941  44.749  0.00  0.00    +0.000 OA
BRANCH   6   8
ATOM      7  O   UNL     1      45.554  32.350  44.427  0.00  0.00    +0.000 OA
ATOM      8  P   UNL     1      46.150  33.650  44.880  0.00  0.00    +0.000 P 
BRANCH   8   9
ATOM      9  O   UNL     1      47.524  33.948  43.935  0.00  0.00    +0.000 OA
ATOM     10  H   UNL     1      48.360  33.769  44.416  0.00  0.00    +0.000 HD
ENDBRANCH   8   9
BRANCH   8  11
ATOM     11  O   UNL     1      46.652  33.535  46.499  0.00  0.00    +0.000 OA
BRANCH  11  12
ATOM     12  C   UNL     1      47.465  34.573  46.871  0.00  0.00    +0.000 C 
ATOM     13  C   UNL     1      48.807  34.352  47.462  0.00  0.00    +0.000 C 
ATOM     14  C   UNL     1      47.656  34.690  48.382  0.00  0.00    +0.000 C 
ENDBRANCH  11  12
ENDBRANCH   8  11
ENDBRANCH   6   8
ENDBRANCH   3   6
ENDBRANCH   2   3
BRANCH   1  15
ATOM     15  O   UNL     1      42.535  35.282  40.886  0.00  0.00    +0.000 OA
BRANCH  15  16
ATOM     16  C   UNL     1      41.271  35.737  41.177  0.00  0.00    +0.000 C 
ATOM     17  H   UNL     1      41.207  35.813  42.307  0.00  0.00    +0.000 HD
ATOM     18  H   UNL     1      41.063  36.715  40.742  0.00  0.00    +0.000 HD
BRANCH  16  20
ATOM     19  C   UNL     1      40.257  33.585  41.614  0.00  0.00    +0.000 A 
ATOM     20  C   UNL     1      40.198  34.763  40.837  0.00  0.00    +0.000 A 
ATOM     21  C   UNL     1      39.205  34.849  39.916  0.00  0.00    +0.000 A 
ATOM     22  N   UNL     1      38.366  33.817  39.818  0.00  0.00    +0.000 NA
ATOM     23  C   UNL     1      38.418  32.714  40.543  0.00  0.00    +0.000 A 
ATOM     24  N   UNL     1      39.407  32.548  41.511  0.00  0.00    +0.000 NA
ATOM     25  H   UNL     1      41.009  33.414  42.377  0.00  0.00    +0.000 HD
ATOM     26  H   UNL     1      39.215  35.773  39.355  0.00  0.00    +0.000 HD
ATOM     27  H   UNL     1      37.702  31.914  40.411  0.00  0.00    +0.000 HD
ENDBRANCH  16  20
ENDBRANCH  15  16
ENDBRANCH   1  15
TORSDOF 9
