
 OpenBabel03252504463D

 21 22  0  0  0  0  0  0  0  0999 V2000
   45.7860   34.0650   45.1640 C   0  0  0  0  0  0  0  0  0  0  0  0
   44.7730   35.0160   45.3850 C   0  0  0  0  0  0  0  0  0  0  0  0
   44.5210   35.9660   44.3650 C   0  0  0  0  0  0  0  0  0  0  0  0
   45.2630   35.8990   43.2510 N   0  0  0  0  0  0  0  0  0  0  0  0
   46.2270   34.9670   43.0800 C   0  0  0  0  0  0  0  0  0  0  0  0
   46.4950   34.0480   44.0290 N   0  0  0  0  0  0  0  0  0  0  0  0
   44.2070   35.0170   46.3110 H   0  0  0  0  0  0  0  0  0  0  0  0
   43.7470   36.7110   44.5080 H   0  0  0  0  0  0  0  0  0  0  0  0
   46.0370   33.0770   46.2460 C   0  0  0  0  0  0  0  0  0  0  0  0
   45.5620   33.3930   47.1870 H   0  0  0  0  0  0  0  0  0  0  0  0
   45.6220   32.1130   45.8630 H   0  0  0  0  0  0  0  0  0  0  0  0
   47.1110   32.9240   46.4210 H   0  0  0  0  0  0  0  0  0  0  0  0
   46.9070   35.0330   41.8690 O   0  0  0  0  0  0  0  0  0  0  0  0
   46.3040   32.5720   41.3320 O   0  0  0  0  0  0  0  0  0  0  0  0
   47.1690   33.7320   40.8290 P   0  0  1  0  0  0  0  0  0  0  0  0
   46.6860   34.0370   39.2460 O   0  0  0  0  0  0  0  0  0  0  0  0
   45.7370   34.2240   39.1570 H   0  0  0  0  0  0  0  0  0  0  0  0
   48.8030   33.2900   40.8300 O   0  0  0  0  0  0  0  0  0  0  0  0
   49.3610   33.3430   42.0940 C   0  0  0  0  0  0  0  0  0  0  0  0
   50.2410   34.4280   42.5540 C   0  0  0  0  0  0  0  0  0  0  0  0
   50.8840   33.1090   42.1770 C   0  0  0  0  0  0  0  0  0  0  0  0
  1  2  1  0  0  0  0
  1  9  1  0  0  0  0
  2  7  1  0  0  0  0
  3  8  1  0  0  0  0
  3  2  2  0  0  0  0
  4  3  1  0  0  0  0
  5  4  2  0  0  0  0
  5  6  1  0  0  0  0
  6  1  2  0  0  0  0
  9 12  1  0  0  0  0
  9 10  1  0  0  0  0
 11  9  1  0  0  0  0
 13  5  1  0  0  0  0
 15 18  1  0  0  0  0
 15 14  2  1  0  0  0
 15 13  1  0  0  0  0
 16 15  1  0  0  0  0
 17 16  1  0  0  0  0
 18 19  1  0  0  0  0
 19 21  1  0  0  0  0
 19 20  1  0  0  0  0
 21 20  1  0  0  0  0
M  END
>  <minimizedAffinity>
-4.4925437

>  <minimizedRMSD>
6.26420212

$$$$
