
 OpenBabel03252503343D

 16 17  0  0  0  0  0  0  0  0999 V2000
   44.5660   36.0980   44.5410 C   0  0  0  0  0  0  0  0  0  0  0  0
   45.3210   35.9910   43.3450 C   0  0  0  0  0  0  0  0  0  0  0  0
   46.1630   34.8850   43.1990 C   0  0  0  0  0  0  0  0  0  0  0  0
   46.2230   33.9780   44.1900 N   0  0  0  0  0  0  0  0  0  0  0  0
   45.4990   34.0870   45.3290 C   0  0  0  0  0  0  0  0  0  0  0  0
   44.6780   35.1440   45.4940 N   0  0  0  0  0  0  0  0  0  0  0  0
   43.8870   36.9450   44.7130 H   0  0  0  0  0  0  0  0  0  0  0  0
   45.2280   36.7520   42.5880 H   0  0  0  0  0  0  0  0  0  0  0  0
   45.6520   33.2820   46.0320 H   0  0  0  0  0  0  0  0  0  0  0  0
   46.3870   34.1430   40.8330 C   0  0  0  0  0  0  0  0  0  0  0  0
   45.1550   33.8390   40.9290 O   0  0  0  0  0  0  0  0  0  0  0  0
   46.9370   34.7330   42.0240 N   0  0  0  0  0  0  0  0  0  0  0  0
   47.9490   35.0470   41.9790 H   0  0  0  0  0  0  0  0  0  0  0  0
   47.2710   33.9510   39.6550 C   0  0  0  0  0  3  0  0  0  0  0  0
   48.5820   33.2300   39.8040 C   0  0  0  0  0  2  0  0  0  0  0  0
   47.4360   32.4740   39.2260 C   0  0  0  0  0  2  0  0  0  0  0  0
  1  7  1  0  0  0  0
  1  6  1  0  0  0  0
  2  1  2  0  0  0  0
  3  2  1  0  0  0  0
  3  4  2  0  0  0  0
  4  5  1  0  0  0  0
  5  6  2  0  0  0  0
  5  9  1  0  0  0  0
  8  2  1  0  0  0  0
 10 11  2  0  0  0  0
 10 12  1  0  0  0  0
 12  3  1  0  0  0  0
 13 12  1  0  0  0  0
 14 15  1  0  0  0  0
 14 10  1  0  0  0  0
 16 14  1  0  0  0  0
 16 15  1  0  0  0  0
M  END
>  <minimizedAffinity>
-3.64038301

>  <minimizedRMSD>
0.254151493

$$$$
