
 OpenBabel03252508003D

 23 25  0  0  1  0  0  0  0  0999 V2000
   46.5860   34.7580   43.1000 C   0  0  0  0  0  0  0  0  0  0  0  0
   45.5350   35.7070   43.2950 C   0  0  0  0  0  0  0  0  0  0  0  0
   44.7390   35.5090   44.4180 C   0  0  0  0  0  0  0  0  0  0  0  0
   45.0030   34.4550   45.2380 N   0  0  0  0  0  0  0  0  0  0  0  0
   46.0280   33.5860   44.9860 C   0  0  0  0  0  0  0  0  0  0  0  0
   46.8190   33.7150   43.9430 N   0  0  0  0  0  0  0  0  0  0  0  0
   45.4110   36.5090   42.5820 H   0  0  0  0  0  0  0  0  0  0  0  0
   43.9350   36.2020   44.6020 H   0  0  0  0  0  0  0  0  0  0  0  0
   46.2500   32.4630   45.9450 C   0  0  1  0  0  0  0  0  0  0  0  0
   46.9980   32.7390   47.2310 C   0  0  0  0  0  0  0  0  0  0  0  0
   45.5040   32.5700   47.2150 C   0  0  1  0  0  0  0  0  0  0  0  0
   46.3620   31.4530   45.5010 H   0  0  0  0  0  0  0  0  0  0  0  0
   47.6150   31.9260   47.6600 H   0  0  0  0  0  0  0  0  0  0  0  0
   47.4510   33.7420   47.2960 H   0  0  0  0  0  0  0  0  0  0  0  0
   45.1330   31.7270   47.7970 H   0  0  0  0  0  0  0  0  0  0  0  0
   44.8060   33.8220   47.5320 N   0  0  0  0  0  0  0  0  0  0  0  0
   43.8110   33.6150   47.8220 H   0  0  0  0  0  0  0  0  0  0  0  0
   45.2590   34.2450   48.3700 H   0  0  0  0  0  0  0  0  0  0  0  0
   47.4170   34.9810   41.9370 C   0  0  0  0  0  0  0  0  0  0  0  0
   48.4320   35.7650   41.9470 O   0  0  0  0  0  0  0  0  0  0  0  0
   47.0870   34.2730   40.6670 C   0  0  0  0  0  0  0  0  0  0  0  0
   48.0510   34.2930   39.5390 C   0  0  0  0  0  0  0  0  0  0  0  0
   47.9380   33.0370   40.3010 C   0  0  0  0  0  0  0  0  0  0  0  0
  1  2  2  0  0  0  0
  1  6  1  0  0  0  0
  2  3  1  0  0  0  0
  3  8  1  0  0  0  0
  3  4  2  0  0  0  0
  5  4  1  0  0  0  0
  5  9  1  0  0  0  0
  6  5  2  0  0  0  0
  7  2  1  0  0  0  0
  9 12  1  6  0  0  0
  9 11  1  0  0  0  0
  9 10  1  0  0  0  0
 10 14  1  0  0  0  0
 10 13  1  0  0  0  0
 11 10  1  0  0  0  0
 11 16  1  0  0  0  0
 11 15  1  1  0  0  0
 16 17  1  0  0  0  0
 16 18  1  0  0  0  0
 19 20  2  0  0  0  0
 19  1  1  0  0  0  0
 21 19  1  0  0  0  0
 22 23  1  0  0  0  0
 22 21  1  0  0  0  0
 23 21  1  0  0  0  0
M  END
>  <minimizedAffinity>
-5.15397692

>  <minimizedRMSD>
1.07172465

$$$$
