
     RDKit          3D

 29 31  0  0  0  0  0  0  0  0999 V2000
   44.6708   35.3781   45.1431 C   0  0  0  0  0  0  0  0  0  0  0  0
   45.1321   35.6944   43.8377 C   0  0  0  0  0  0  0  0  0  0  0  0
   46.0751   34.8600   43.3375 C   0  0  0  0  0  0  0  0  0  0  0  0
   46.5539   33.7777   44.0580 N   0  0  0  0  0  0  0  0  0  0  0  0
   46.0887   33.5142   45.2957 C   0  0  0  0  0  0  0  0  0  0  0  0
   45.1426   34.3188   45.8382 N   0  0  0  0  0  0  0  0  0  0  0  0
   46.5674   35.0588   41.9238 C   0  0  1  0  0  0  0  0  0  0  0  0
   48.1007   35.3129   41.9220 C   0  0  0  0  0  0  0  0  0  0  0  0
   47.3659   34.0805   41.3108 C   0  0  2  0  0  0  0  0  0  0  0  0
   47.3870   33.8967   39.8137 C   0  0  0  0  0  0  0  0  0  0  0  0
   44.6738   36.8150   43.1286 N   0  0  0  0  0  0  0  0  0  0  0  0
   43.9166   36.0254   45.5678 H   0  0  0  0  0  0  0  0  0  0  0  0
   46.5387   32.6444   45.7551 H   0  0  0  0  0  0  0  0  0  0  0  0
   45.9892   35.8163   41.3649 H   0  0  0  0  0  0  0  0  0  0  0  0
   48.4017   36.0931   41.2264 H   0  0  0  0  0  0  0  0  0  0  0  0
   48.6674   35.1481   42.8416 H   0  0  0  0  0  0  0  0  0  0  0  0
   47.6595   33.1192   41.8327 H   0  0  0  0  0  0  0  0  0  0  0  0
   46.3517   33.6697   39.5080 H   0  0  0  0  0  0  0  0  0  0  0  0
   47.6268   34.8785   39.3616 H   0  0  0  0  0  0  0  0  0  0  0  0
   45.2974   37.3651   42.4977 H   0  0  0  0  0  0  0  0  0  0  0  0
   43.6710   37.1364   43.2155 H   0  0  0  0  0  0  0  0  0  0  0  0
   48.3058   32.7971   39.3543 C   0  0  0  0  0  0  0  0  0  0  0  0
   49.5996   33.0378   38.7276 C   0  0  0  0  0  0  0  0  0  0  0  0
   48.4248   32.7251   37.8183 C   0  0  0  0  0  0  0  0  0  0  0  0
   48.1404   31.8051   39.8495 H   0  0  0  0  0  0  0  0  0  0  0  0
   50.0765   34.0300   38.6484 H   0  0  0  0  0  0  0  0  0  0  0  0
   50.3439   32.2157   38.7729 H   0  0  0  0  0  0  0  0  0  0  0  0
   48.0472   33.5880   37.2240 H   0  0  0  0  0  0  0  0  0  0  0  0
   48.3457   31.7120   37.3707 H   0  0  0  0  0  0  0  0  0  0  0  0
  1  6  2  0
  2  1  1  0
  3  2  2  0
  3  4  1  0
  4  5  2  0
  5  6  1  0
  7  3  1  0
  8  7  1  0
  9  8  1  0
  9  7  1  0
 10  9  1  0
 11  2  1  0
  1 12  1  0
  5 13  1  0
  7 14  1  6
  8 15  1  0
  8 16  1  0
  9 17  1  1
 10 18  1  0
 10 19  1  0
 11 20  1  0
 11 21  1  0
 22 23  1  0
 23 24  1  0
 24 22  1  0
 22 25  1  0
 23 26  1  0
 23 27  1  0
 24 28  1  0
 24 29  1  0
 10 22  1  0
M  ISO  8  12  14  13  14  14  13  15  13  16  13  17  13  18   8  19   8
M  END
>  <DihAtoms>  (1) 
8,9,21,22

>  <DihDeg>  (1) 
-59.999599064991585

$$$$
