
 OpenBabel03242510223D

 32 35  0  0  1  0  0  0  0  0999 V2000
   46.3030   32.1170   44.4730 C   0  0  1  0  0  0  0  0  0  0  0  0
   46.4070   31.3710   43.2910 C   0  0  0  0  0  0  0  0  0  0  0  0
   47.6530   32.1150   43.8680 C   0  0  1  0  0  0  0  0  0  0  0  0
   46.1580   31.6570   45.4740 H   0  0  0  0  0  0  0  0  0  0  0  0
   46.1190   31.6310   42.2550 H   0  0  0  0  0  0  0  0  0  0  0  0
   46.4830   30.2430   43.3800 H   0  0  0  0  0  0  0  0  0  0  0  0
   48.4180   31.4110   44.2240 H   0  0  0  0  0  0  0  0  0  0  0  0
   45.0410   33.9970   43.1770 C   0  0  0  0  0  0  0  0  0  0  0  0
   45.5430   33.4550   44.4040 C   0  0  0  0  0  0  0  0  0  0  0  0
   45.3470   34.1930   45.5530 C   0  0  0  0  0  0  0  0  0  0  0  0
   44.7010   35.3740   45.4730 N   0  0  0  0  0  0  0  0  0  0  0  0
   44.2300   35.8770   44.2980 C   0  0  0  0  0  0  0  0  0  0  0  0
   44.4120   35.1540   43.1160 N   0  0  0  0  0  0  0  0  0  0  0  0
   45.1830   33.4000   42.2960 H   0  0  0  0  0  0  0  0  0  0  0  0
   45.6990   33.8440   46.5160 H   0  0  0  0  0  0  0  0  0  0  0  0
   43.7140   36.8240   44.2400 H   0  0  0  0  0  0  0  0  0  0  0  0
   48.0090   33.2510   43.0970 N   0  0  0  0  0  0  0  0  0  0  0  0
   49.2170   33.3600   42.4160 C   0  0  0  0  0  0  0  0  0  0  0  0
   50.3850   33.0430   42.7530 O   0  0  0  0  0  0  0  0  0  0  0  0
   47.4180   34.1030   42.9690 H   0  0  0  0  0  0  0  0  0  0  0  0
   49.2190   33.9490   41.0120 C   0  0  2  0  0  0  0  0  0  0  0  0
   48.6320   35.4000   40.8670 C   0  0  0  0  0  0  0  0  0  0  0  0
   47.9750   34.1830   40.2810 C   0  0  1  0  0  0  0  0  0  0  0  0
   50.1700   33.8920   40.4450 H   0  0  0  0  0  0  0  0  0  0  0  0
   48.1930   35.7960   41.8100 H   0  0  0  0  0  0  0  0  0  0  0  0
   49.0950   36.0730   40.1540 H   0  0  0  0  0  0  0  0  0  0  0  0
   47.1010   33.6730   40.7490 H   0  0  0  0  0  0  0  0  0  0  0  0
   48.0070   34.0490   38.7790 C   0  0  0  0  0  0  0  0  0  0  0  0
   48.5570   34.8940   38.0860 O   0  0  0  0  0  0  0  0  0  0  0  0
   47.3600   32.8740   38.1120 C   0  0  0  0  0  3  0  0  0  0  0  0
   46.1950   32.2020   38.7210 C   0  0  0  0  0  2  0  0  0  0  0  0
   45.9700   33.1610   37.5790 C   0  0  0  0  0  2  0  0  0  0  0  0
  1  4  1  1  0  0  0
  2  6  1  0  0  0  0
  2  3  1  0  0  0  0
  2  1  1  0  0  0  0
  3  7  1  1  0  0  0
  3  1  1  0  0  0  0
  5  2  1  0  0  0  0
  8  9  1  0  0  0  0
  9  1  1  0  0  0  0
  9 10  2  0  0  0  0
 10 15  1  0  0  0  0
 11 10  1  0  0  0  0
 12 11  2  0  0  0  0
 13  8  2  0  0  0  0
 13 12  1  0  0  0  0
 14  8  1  0  0  0  0
 16 12  1  0  0  0  0
 17  3  1  0  0  0  0
 18 19  2  0  0  0  0
 18 17  1  0  0  0  0
 20 17  1  0  0  0  0
 21 24  1  6  0  0  0
 21 18  1  0  0  0  0
 22 21  1  0  0  0  0
 22 25  1  0  0  0  0
 23 27  1  1  0  0  0
 23 22  1  0  0  0  0
 23 21  1  0  0  0  0
 26 22  1  0  0  0  0
 28 23  1  0  0  0  0
 29 28  2  0  0  0  0
 30 31  1  0  0  0  0
 30 28  1  0  0  0  0
 32 30  1  0  0  0  0
 32 31  1  0  0  0  0
M  END
>  <minimizedAffinity>
-4.42409706

>  <minimizedRMSD>
0.502718449

$$$$
