
 OpenBabel03252504293D

 21 22  0  0  0  0  0  0  0  0999 V2000
   36.4520   30.5000   39.6800 C   0  0  0  0  0  0  0  0  0  0  0  0
   36.9570   29.8150   38.9760 H   0  0  0  0  0  0  0  0  0  0  0  0
   35.6870   31.0310   39.0270 H   0  0  0  0  0  0  0  0  0  0  0  0
   37.1160   32.7980   39.5710 C   0  0  0  0  0  0  0  0  0  0  0  0
   37.3840   31.5330   40.1160 C   0  0  0  0  0  0  0  0  0  0  0  0
   38.4550   31.4360   40.9660 C   0  0  0  0  0  0  0  0  0  0  0  0
   39.1710   32.5430   41.2220 N   0  0  0  0  0  0  0  0  0  0  0  0
   38.9000   33.7370   40.6940 C   0  0  0  0  0  0  0  0  0  0  0  0
   37.8370   33.9240   39.8240 N   0  0  0  0  0  0  0  0  0  0  0  0
   36.2990   33.0000   38.8860 H   0  0  0  0  0  0  0  0  0  0  0  0
   38.6230   30.4430   41.3620 H   0  0  0  0  0  0  0  0  0  0  0  0
   39.6290   34.4710   41.0600 H   0  0  0  0  0  0  0  0  0  0  0  0
   35.7550   29.8660   40.6960 O   0  0  0  0  0  0  0  0  0  0  0  0
   35.9260   28.5750   41.0920 C   0  0  0  0  0  3  0  0  0  0  0  0
   36.5770   28.2860   42.2170 C   0  0  0  0  0  3  0  0  0  0  0  0
   36.8770   27.0040   42.8910 C   0  0  0  0  0  0  0  0  0  0  0  0
   37.7250   27.1170   43.6130 H   0  0  0  0  0  0  0  0  0  0  0  0
   35.9710   26.6280   43.4360 H   0  0  0  0  0  0  0  0  0  0  0  0
   37.3130   26.0000   41.8580 C   0  0  0  0  0  3  0  0  0  0  0  0
   36.8440   24.5690   41.9230 C   0  0  0  0  0  2  0  0  0  0  0  0
   38.2590   24.9130   42.2010 C   0  0  0  0  0  2  0  0  0  0  0  0
  1  5  1  0  0  0  0
  1 13  1  0  0  0  0
  2  1  1  0  0  0  0
  3  1  1  0  0  0  0
  4  9  2  0  0  0  0
  4  5  1  0  0  0  0
  5  6  2  0  0  0  0
  6  7  1  0  0  0  0
  6 11  1  0  0  0  0
  8 12  1  0  0  0  0
  8  7  2  0  0  0  0
  9  8  1  0  0  0  0
 10  4  1  0  0  0  0
 13 14  1  0  0  0  0
 14 15  2  0  0  0  0
 15 16  1  0  0  0  0
 16 18  1  0  0  0  0
 16 17  1  0  0  0  0
 19 20  1  0  0  0  0
 19 21  1  0  0  0  0
 19 16  1  0  0  0  0
 20 21  1  0  0  0  0
M  END
>  <minimizedAffinity>
-4.02112103

$$$$

 OpenBabel03252504293D

 21 22  0  0  0  0  0  0  0  0999 V2000
   39.5750   30.6730   41.6830 C   0  0  0  0  0  0  0  0  0  0  0  0
   40.6290   30.9790   41.8100 H   0  0  0  0  0  0  0  0  0  0  0  0
   39.6430   29.7890   40.9710 H   0  0  0  0  0  0  0  0  0  0  0  0
   37.7910   31.2090   40.1790 C   0  0  0  0  0  0  0  0  0  0  0  0
   38.8450   31.7080   40.9600 C   0  0  0  0  0  0  0  0  0  0  0  0
   39.0430   33.0640   40.9450 C   0  0  0  0  0  0  0  0  0  0  0  0
   38.2270   33.8210   40.1940 N   0  0  0  0  0  0  0  0  0  0  0  0
   37.2300   33.3290   39.4590 C   0  0  0  0  0  0  0  0  0  0  0  0
   36.9600   31.9700   39.4140 N   0  0  0  0  0  0  0  0  0  0  0  0
   37.5370   30.1570   40.1080 H   0  0  0  0  0  0  0  0  0  0  0  0
   39.8650   33.4020   41.5620 H   0  0  0  0  0  0  0  0  0  0  0  0
   36.7180   34.1500   38.9430 H   0  0  0  0  0  0  0  0  0  0  0  0
   38.9660   30.2200   42.8420 O   0  0  0  0  0  0  0  0  0  0  0  0
   38.6210   28.9300   43.1070 C   0  0  0  0  0  3  0  0  0  0  0  0
   37.3610   28.5190   42.9760 C   0  0  0  0  0  3  0  0  0  0  0  0
   36.7220   27.1970   43.1620 C   0  0  0  0  0  0  0  0  0  0  0  0
   37.0230   26.7370   44.1370 H   0  0  0  0  0  0  0  0  0  0  0  0
   35.6050   27.2960   43.1250 H   0  0  0  0  0  0  0  0  0  0  0  0
   37.1960   26.2700   42.0760 C   0  0  0  0  0  3  0  0  0  0  0  0
   36.8970   24.7930   42.1350 C   0  0  0  0  0  2  0  0  0  0  0  0
   38.2810   25.2920   42.3250 C   0  0  0  0  0  2  0  0  0  0  0  0
  1  2  1  0  0  0  0
  1 13  1  0  0  0  0
  3  1  1  0  0  0  0
  4  5  1  0  0  0  0
  5  1  1  0  0  0  0
  6  5  2  0  0  0  0
  6 11  1  0  0  0  0
  7  6  1  0  0  0  0
  8  7  2  0  0  0  0
  9  8  1  0  0  0  0
  9  4  2  0  0  0  0
 10  4  1  0  0  0  0
 12  8  1  0  0  0  0
 13 14  1  0  0  0  0
 15 14  2  0  0  0  0
 15 16  1  0  0  0  0
 16 17  1  0  0  0  0
 18 16  1  0  0  0  0
 19 20  1  0  0  0  0
 19 21  1  0  0  0  0
 19 16  1  0  0  0  0
 20 21  1  0  0  0  0
M  END
>  <minimizedAffinity>
-4.00646687

$$$$

 OpenBabel03252504293D

 21 22  0  0  0  0  0  0  0  0999 V2000
   37.9710   32.7560   40.3820 C   0  0  0  0  0  0  0  0  0  0  0  0
   37.5650   33.7470   40.6520 H   0  0  0  0  0  0  0  0  0  0  0  0
   38.3520   32.3500   41.3750 H   0  0  0  0  0  0  0  0  0  0  0  0
   39.2000   32.0210   38.4640 C   0  0  0  0  0  0  0  0  0  0  0  0
   39.1510   32.9180   39.5420 C   0  0  0  0  0  0  0  0  0  0  0  0
   40.1880   33.8060   39.6600 C   0  0  0  0  0  0  0  0  0  0  0  0
   41.1730   33.7640   38.7480 N   0  0  0  0  0  0  0  0  0  0  0  0
   41.2010   32.9040   37.7300 C   0  0  0  0  0  0  0  0  0  0  0  0
   40.1950   31.9710   37.5360 N   0  0  0  0  0  0  0  0  0  0  0  0
   38.4410   31.2710   38.2660 H   0  0  0  0  0  0  0  0  0  0  0  0
   40.1070   34.4770   40.5050 H   0  0  0  0  0  0  0  0  0  0  0  0
   42.1060   33.0750   37.1340 H   0  0  0  0  0  0  0  0  0  0  0  0
   37.0260   31.8600   39.9090 O   0  0  0  0  0  0  0  0  0  0  0  0
   36.3100   30.9850   40.6680 C   0  0  0  0  0  3  0  0  0  0  0  0
   36.5130   29.6720   40.5710 C   0  0  0  0  0  3  0  0  0  0  0  0
   35.9140   28.5180   41.2790 C   0  0  0  0  0  0  0  0  0  0  0  0
   35.0690   28.8440   41.9370 H   0  0  0  0  0  0  0  0  0  0  0  0
   35.5430   27.7590   40.5420 H   0  0  0  0  0  0  0  0  0  0  0  0
   36.9540   27.9040   42.1760 C   0  0  0  0  0  3  0  0  0  0  0  0
   36.5980   27.4290   43.5620 C   0  0  0  0  0  2  0  0  0  0  0  0
   37.4540   28.6240   43.3710 C   0  0  0  0  0  2  0  0  0  0  0  0
  1  2  1  0  0  0  0
  1  3  1  0  0  0  0
  4  5  1  0  0  0  0
  5  6  2  0  0  0  0
  5  1  1  0  0  0  0
  6 11  1  0  0  0  0
  7  6  1  0  0  0  0
  8  7  2  0  0  0  0
  9  8  1  0  0  0  0
  9  4  2  0  0  0  0
 10  4  1  0  0  0  0
 12  8  1  0  0  0  0
 13  1  1  0  0  0  0
 13 14  1  0  0  0  0
 15 14  2  0  0  0  0
 15 16  1  0  0  0  0
 16 17  1  0  0  0  0
 16 19  1  0  0  0  0
 18 16  1  0  0  0  0
 19 21  1  0  0  0  0
 19 20  1  0  0  0  0
 21 20  1  0  0  0  0
M  END
>  <minimizedAffinity>
-3.91373587

$$$$

 OpenBabel03252504293D

 21 22  0  0  0  0  0  0  0  0999 V2000
   36.2490   30.7210   40.9560 C   0  0  0  0  0  0  0  0  0  0  0  0
   35.3390   30.1420   41.1950 H   0  0  0  0  0  0  0  0  0  0  0  0
   35.9300   31.7980   41.1380 H   0  0  0  0  0  0  0  0  0  0  0  0
   37.2490   31.7250   39.0260 C   0  0  0  0  0  0  0  0  0  0  0  0
   36.5320   30.6280   39.5290 C   0  0  0  0  0  0  0  0  0  0  0  0
   36.2030   29.6390   38.6390 C   0  0  0  0  0  0  0  0  0  0  0  0
   36.5830   29.7790   37.3580 N   0  0  0  0  0  0  0  0  0  0  0  0
   37.2640   30.8290   36.9000 C   0  0  0  0  0  0  0  0  0  0  0  0
   37.6360   31.8750   37.7300 N   0  0  0  0  0  0  0  0  0  0  0  0
   37.5640   32.5700   39.6300 H   0  0  0  0  0  0  0  0  0  0  0  0
   35.6520   28.8150   39.0710 H   0  0  0  0  0  0  0  0  0  0  0  0
   37.4500   30.7020   35.8260 H   0  0  0  0  0  0  0  0  0  0  0  0
   37.3260   30.4660   41.7890 O   0  0  0  0  0  0  0  0  0  0  0  0
   37.5250   29.3250   42.5050 C   0  0  0  0  0  3  0  0  0  0  0  0
   36.7660   28.2500   42.3000 C   0  0  0  0  0  3  0  0  0  0  0  0
   36.7780   26.8950   42.8970 C   0  0  0  0  0  0  0  0  0  0  0  0
   37.4710   26.8480   43.7750 H   0  0  0  0  0  0  0  0  0  0  0  0
   35.7450   26.6030   43.2210 H   0  0  0  0  0  0  0  0  0  0  0  0
   37.2970   25.9180   41.8780 C   0  0  0  0  0  3  0  0  0  0  0  0
   36.8770   24.4700   41.9090 C   0  0  0  0  0  2  0  0  0  0  0  0
   38.2650   24.8610   42.2550 C   0  0  0  0  0  2  0  0  0  0  0  0
  1  3  1  0  0  0  0
  1  2  1  0  0  0  0
  1 13  1  0  0  0  0
  4  5  1  0  0  0  0
  4 10  1  0  0  0  0
  5  1  1  0  0  0  0
  6 11  1  0  0  0  0
  6  5  2  0  0  0  0
  7  6  1  0  0  0  0
  8  7  2  0  0  0  0
  8  9  1  0  0  0  0
  9  4  2  0  0  0  0
 12  8  1  0  0  0  0
 13 14  1  0  0  0  0
 15 14  2  0  0  0  0
 15 16  1  0  0  0  0
 16 18  1  0  0  0  0
 16 17  1  0  0  0  0
 19 20  1  0  0  0  0
 19 21  1  0  0  0  0
 19 16  1  0  0  0  0
 20 21  1  0  0  0  0
M  END
>  <minimizedAffinity>
-3.91175032

$$$$

 OpenBabel03252504293D

 21 22  0  0  0  0  0  0  0  0999 V2000
   38.0500   28.2710   43.5120 C   0  0  0  0  0  0  0  0  0  0  0  0
   37.8390   28.3740   44.5910 H   0  0  0  0  0  0  0  0  0  0  0  0
   37.0210   28.3610   43.0340 H   0  0  0  0  0  0  0  0  0  0  0  0
   37.6560   26.2150   42.3510 C   0  0  0  0  0  0  0  0  0  0  0  0
   38.5020   26.9160   43.2240 C   0  0  0  0  0  0  0  0  0  0  0  0
   39.6130   26.2540   43.6790 C   0  0  0  0  0  0  0  0  0  0  0  0
   39.8210   24.9930   43.2650 N   0  0  0  0  0  0  0  0  0  0  0  0
   39.0050   24.3450   42.4330 C   0  0  0  0  0  0  0  0  0  0  0  0
   37.8590   24.9370   41.9270 N   0  0  0  0  0  0  0  0  0  0  0  0
   36.7480   26.6300   41.9260 H   0  0  0  0  0  0  0  0  0  0  0  0
   40.2340   26.8330   44.3490 H   0  0  0  0  0  0  0  0  0  0  0  0
   39.3970   23.3360   42.2520 H   0  0  0  0  0  0  0  0  0  0  0  0
   38.8360   29.2810   42.9830 O   0  0  0  0  0  0  0  0  0  0  0  0
   38.4240   30.2280   42.0960 C   0  0  0  0  0  3  0  0  0  0  0  0
   37.2140   30.1650   41.5420 C   0  0  0  0  0  3  0  0  0  0  0  0
   36.5070   31.0530   40.5920 C   0  0  0  0  0  0  0  0  0  0  0  0
   35.9730   30.4590   39.8080 H   0  0  0  0  0  0  0  0  0  0  0  0
   35.7710   31.6990   41.1380 H   0  0  0  0  0  0  0  0  0  0  0  0
   37.5190   31.9080   39.8790 C   0  0  0  0  0  3  0  0  0  0  0  0
   37.1970   33.3300   39.4960 C   0  0  0  0  0  2  0  0  0  0  0  0
   37.3370   32.2820   38.4570 C   0  0  0  0  0  2  0  0  0  0  0  0
  1  2  1  0  0  0  0
  3  1  1  0  0  0  0
  4  5  1  0  0  0  0
  5  1  1  0  0  0  0
  5  6  2  0  0  0  0
  6 11  1  0  0  0  0
  7  6  1  0  0  0  0
  8  7  2  0  0  0  0
  9  4  2  0  0  0  0
  9  8  1  0  0  0  0
 10  4  1  0  0  0  0
 12  8  1  0  0  0  0
 13  1  1  0  0  0  0
 14 13  1  0  0  0  0
 15 14  2  0  0  0  0
 16 18  1  0  0  0  0
 16 15  1  0  0  0  0
 17 16  1  0  0  0  0
 19 16  1  0  0  0  0
 20 19  1  0  0  0  0
 21 20  1  0  0  0  0
 21 19  1  0  0  0  0
M  END
>  <minimizedAffinity>
-3.90478897

$$$$

 OpenBabel03252504293D

 21 22  0  0  0  0  0  0  0  0999 V2000
   38.3880   29.1350   42.6040 C   0  0  0  0  0  0  0  0  0  0  0  0
   39.3570   29.3340   43.0960 H   0  0  0  0  0  0  0  0  0  0  0  0
   38.6270   28.2820   41.8900 H   0  0  0  0  0  0  0  0  0  0  0  0
   39.0600   31.1890   41.5750 C   0  0  0  0  0  0  0  0  0  0  0  0
   38.0200   30.2650   41.7600 C   0  0  0  0  0  0  0  0  0  0  0  0
   36.8290   30.5360   41.1400 C   0  0  0  0  0  0  0  0  0  0  0  0
   36.7320   31.6540   40.4020 N   0  0  0  0  0  0  0  0  0  0  0  0
   37.7320   32.5200   40.2370 C   0  0  0  0  0  0  0  0  0  0  0  0
   38.9700   32.3250   40.8300 N   0  0  0  0  0  0  0  0  0  0  0  0
   40.0470   31.0860   42.0150 H   0  0  0  0  0  0  0  0  0  0  0  0
   36.0570   29.7970   41.3110 H   0  0  0  0  0  0  0  0  0  0  0  0
   37.3980   33.3440   39.5930 H   0  0  0  0  0  0  0  0  0  0  0  0
   37.3930   28.6870   43.4590 O   0  0  0  0  0  0  0  0  0  0  0  0
   36.9260   27.4100   43.5350 C   0  0  0  0  0  3  0  0  0  0  0  0
   37.1370   26.5450   42.5450 C   0  0  0  0  0  3  0  0  0  0  0  0
   36.7800   25.1190   42.3760 C   0  0  0  0  0  0  0  0  0  0  0  0
   37.4090   24.4660   43.0320 H   0  0  0  0  0  0  0  0  0  0  0  0
   35.6970   24.9580   42.6180 H   0  0  0  0  0  0  0  0  0  0  0  0
   37.0600   24.7110   40.9550 C   0  0  0  0  0  3  0  0  0  0  0  0
   36.1430   23.7610   40.2280 C   0  0  0  0  0  2  0  0  0  0  0  0
   37.5060   23.3360   40.6290 C   0  0  0  0  0  2  0  0  0  0  0  0
  1  2  1  0  0  0  0
  1 13  1  0  0  0  0
  3  1  1  0  0  0  0
  4  5  1  0  0  0  0
  4 10  1  0  0  0  0
  5  1  1  0  0  0  0
  6 11  1  0  0  0  0
  6  5  2  0  0  0  0
  7  6  1  0  0  0  0
  8  7  2  0  0  0  0
  8  9  1  0  0  0  0
  9  4  2  0  0  0  0
 12  8  1  0  0  0  0
 13 14  1  0  0  0  0
 15 14  2  0  0  0  0
 16 15  1  0  0  0  0
 16 18  1  0  0  0  0
 16 17  1  0  0  0  0
 19 16  1  0  0  0  0
 20 21  1  0  0  0  0
 20 19  1  0  0  0  0
 21 19  1  0  0  0  0
M  END
>  <minimizedAffinity>
-3.82169127

$$$$

 OpenBabel03252504293D

 21 22  0  0  0  0  0  0  0  0999 V2000
   37.0000   30.9370   38.2430 C   0  0  0  0  0  0  0  0  0  0  0  0
   37.7100   30.2370   37.7680 H   0  0  0  0  0  0  0  0  0  0  0  0
   36.4720   31.4170   37.3570 H   0  0  0  0  0  0  0  0  0  0  0  0
   39.1220   31.8190   38.9150 C   0  0  0  0  0  0  0  0  0  0  0  0
   37.7330   32.0140   38.8980 C   0  0  0  0  0  0  0  0  0  0  0  0
   37.2580   33.1600   39.4810 C   0  0  0  0  0  0  0  0  0  0  0  0
   38.1410   34.0150   40.0240 N   0  0  0  0  0  0  0  0  0  0  0  0
   39.4580   33.8120   40.0290 C   0  0  0  0  0  0  0  0  0  0  0  0
   40.0230   32.6800   39.4630 N   0  0  0  0  0  0  0  0  0  0  0  0
   39.6170   30.9530   38.4880 H   0  0  0  0  0  0  0  0  0  0  0  0
   36.1820   33.2680   39.4450 H   0  0  0  0  0  0  0  0  0  0  0  0
   39.9540   34.6530   40.5300 H   0  0  0  0  0  0  0  0  0  0  0  0
   36.0270   30.3280   39.0190 O   0  0  0  0  0  0  0  0  0  0  0  0
   36.2490   29.6210   40.1620 C   0  0  0  0  0  3  0  0  0  0  0  0
   36.7350   28.3820   40.1150 C   0  0  0  0  0  3  0  0  0  0  0  0
   37.0940   27.4140   41.1760 C   0  0  0  0  0  0  0  0  0  0  0  0
   36.3840   26.5490   41.1890 H   0  0  0  0  0  0  0  0  0  0  0  0
   38.1390   27.0380   41.0210 H   0  0  0  0  0  0  0  0  0  0  0  0
   36.9810   28.0930   42.5140 C   0  0  0  0  0  3  0  0  0  0  0  0
   37.8500   27.6730   43.6710 C   0  0  0  0  0  2  0  0  0  0  0  0
   36.3940   27.3910   43.6790 C   0  0  0  0  0  2  0  0  0  0  0  0
  1  5  1  0  0  0  0
  1 13  1  0  0  0  0
  2  1  1  0  0  0  0
  3  1  1  0  0  0  0
  4  9  1  0  0  0  0
  5  4  2  0  0  0  0
  5  6  1  0  0  0  0
  6  7  2  0  0  0  0
  7  8  1  0  0  0  0
  8 12  1  0  0  0  0
  9  8  2  0  0  0  0
 10  4  1  0  0  0  0
 11  6  1  0  0  0  0
 13 14  1  0  0  0  0
 15 14  2  0  0  0  0
 15 16  1  0  0  0  0
 16 17  1  0  0  0  0
 16 19  1  0  0  0  0
 18 16  1  0  0  0  0
 19 20  1  0  0  0  0
 19 21  1  0  0  0  0
 20 21  1  0  0  0  0
M  END
>  <minimizedAffinity>
-3.76108551

$$$$

 OpenBabel03252504293D

 21 22  0  0  0  0  0  0  0  0999 V2000
   36.3750   28.2490   39.8640 C   0  0  0  0  0  0  0  0  0  0  0  0
   35.4850   28.9030   39.8620 H   0  0  0  0  0  0  0  0  0  0  0  0
   35.9430   27.2180   39.6550 H   0  0  0  0  0  0  0  0  0  0  0  0
   37.3140   26.8840   41.5920 C   0  0  0  0  0  0  0  0  0  0  0  0
   36.9320   28.1790   41.2090 C   0  0  0  0  0  0  0  0  0  0  0  0
   37.1300   29.1820   42.1220 C   0  0  0  0  0  0  0  0  0  0  0  0
   37.6700   28.8670   43.3110 N   0  0  0  0  0  0  0  0  0  0  0  0
   38.0270   27.6300   43.6560 C   0  0  0  0  0  0  0  0  0  0  0  0
   37.8610   26.5560   42.7950 N   0  0  0  0  0  0  0  0  0  0  0  0
   37.2060   26.0100   40.9590 H   0  0  0  0  0  0  0  0  0  0  0  0
   36.8210   30.1620   41.7840 H   0  0  0  0  0  0  0  0  0  0  0  0
   38.4410   27.6400   44.6720 H   0  0  0  0  0  0  0  0  0  0  0  0
   37.2890   28.5220   38.8590 O   0  0  0  0  0  0  0  0  0  0  0  0
   37.8040   29.7470   38.5630 C   0  0  0  0  0  3  0  0  0  0  0  0
   37.0670   30.8480   38.6980 C   0  0  0  0  0  3  0  0  0  0  0  0
   37.3700   32.2810   38.4840 C   0  0  0  0  0  0  0  0  0  0  0  0
   38.3830   32.4140   38.0260 H   0  0  0  0  0  0  0  0  0  0  0  0
   36.5970   32.7480   37.8200 H   0  0  0  0  0  0  0  0  0  0  0  0
   37.3980   32.9770   39.8170 C   0  0  0  0  0  3  0  0  0  0  0  0
   38.3670   34.1010   40.0830 C   0  0  0  0  0  2  0  0  0  0  0  0
   38.5300   32.7890   40.7540 C   0  0  0  0  0  2  0  0  0  0  0  0
  1  5  1  0  0  0  0
  2  1  1  0  0  0  0
  3  1  1  0  0  0  0
  4  9  1  0  0  0  0
  5  4  2  0  0  0  0
  5  6  1  0  0  0  0
  6  7  2  0  0  0  0
  7  8  1  0  0  0  0
  8 12  1  0  0  0  0
  9  8  2  0  0  0  0
 10  4  1  0  0  0  0
 11  6  1  0  0  0  0
 13  1  1  0  0  0  0
 14 15  2  0  0  0  0
 14 13  1  0  0  0  0
 16 15  1  0  0  0  0
 16 19  1  0  0  0  0
 17 16  1  0  0  0  0
 18 16  1  0  0  0  0
 19 20  1  0  0  0  0
 19 21  1  0  0  0  0
 20 21  1  0  0  0  0
M  END
>  <minimizedAffinity>
-3.65003848

$$$$

 OpenBabel03252504293D

 21 22  0  0  0  0  0  0  0  0999 V2000
   37.6730   28.3970   43.6480 C   0  0  0  0  0  0  0  0  0  0  0  0
   37.1520   28.8160   44.5270 H   0  0  0  0  0  0  0  0  0  0  0  0
   38.6430   27.9930   44.0850 H   0  0  0  0  0  0  0  0  0  0  0  0
   37.0490   29.8590   41.8580 C   0  0  0  0  0  0  0  0  0  0  0  0
   38.0640   29.4740   42.7460 C   0  0  0  0  0  0  0  0  0  0  0  0
   39.2570   30.1430   42.6560 C   0  0  0  0  0  0  0  0  0  0  0  0
   39.3780   31.1130   41.7350 N   0  0  0  0  0  0  0  0  0  0  0  0
   38.4000   31.4650   40.9000 C   0  0  0  0  0  0  0  0  0  0  0  0
   37.1630   30.8410   40.9210 N   0  0  0  0  0  0  0  0  0  0  0  0
   36.0640   29.4040   41.8310 H   0  0  0  0  0  0  0  0  0  0  0  0
   40.0090   29.8120   43.3590 H   0  0  0  0  0  0  0  0  0  0  0  0
   38.7510   32.2780   40.2520 H   0  0  0  0  0  0  0  0  0  0  0  0
   37.0200   27.3320   43.0480 O   0  0  0  0  0  0  0  0  0  0  0  0
   37.6200   26.2810   42.4240 C   0  0  0  0  0  3  0  0  0  0  0  0
   36.9200   25.2020   42.0780 C   0  0  0  0  0  3  0  0  0  0  0  0
   37.2970   23.9540   41.3790 C   0  0  0  0  0  0  0  0  0  0  0  0
   38.2710   24.0720   40.8410 H   0  0  0  0  0  0  0  0  0  0  0  0
   37.3740   23.1060   42.1090 H   0  0  0  0  0  0  0  0  0  0  0  0
   36.2560   23.6460   40.3360 C   0  0  0  0  0  3  0  0  0  0  0  0
   36.6560   23.2030   38.9520 C   0  0  0  0  0  2  0  0  0  0  0  0
   36.0530   24.5400   39.1720 C   0  0  0  0  0  2  0  0  0  0  0  0
  1  3  1  0  0  0  0
  1  2  1  0  0  0  0
  4  5  1  0  0  0  0
  5  1  1  0  0  0  0
  6  5  2  0  0  0  0
  6 11  1  0  0  0  0
  7  6  1  0  0  0  0
  8  9  1  0  0  0  0
  8  7  2  0  0  0  0
  9  4  2  0  0  0  0
 10  4  1  0  0  0  0
 12  8  1  0  0  0  0
 13  1  1  0  0  0  0
 14 13  1  0  0  0  0
 15 14  2  0  0  0  0
 16 15  1  0  0  0  0
 16 18  1  0  0  0  0
 17 16  1  0  0  0  0
 19 16  1  0  0  0  0
 20 21  1  0  0  0  0
 20 19  1  0  0  0  0
 21 19  1  0  0  0  0
M  END
>  <minimizedAffinity>
-3.64327693

$$$$
