
 OpenBabel03252503343D

 16 17  0  0  0  0  0  0  0  0999 V2000
   44.6690   36.0510   44.1920 C   0  0  0  0  0  0  0  0  0  0  0  0
   45.5850   35.8300   43.1310 C   0  0  0  0  0  0  0  0  0  0  0  0
   46.4390   34.7280   43.2220 C   0  0  0  0  0  0  0  0  0  0  0  0
   46.3590   33.9290   44.3010 N   0  0  0  0  0  0  0  0  0  0  0  0
   45.4820   34.1460   45.3100 C   0  0  0  0  0  0  0  0  0  0  0  0
   44.6460   35.2030   45.2470 N   0  0  0  0  0  0  0  0  0  0  0  0
   43.9730   36.9010   44.1770 H   0  0  0  0  0  0  0  0  0  0  0  0
   45.5990   36.5070   42.2930 H   0  0  0  0  0  0  0  0  0  0  0  0
   45.5340   33.4210   46.1090 H   0  0  0  0  0  0  0  0  0  0  0  0
   47.0370   33.6220   41.0720 C   0  0  0  0  0  0  0  0  0  0  0  0
   45.8350   33.2020   41.0830 O   0  0  0  0  0  0  0  0  0  0  0  0
   47.3700   34.4650   42.1900 N   0  0  0  0  0  0  0  0  0  0  0  0
   48.3470   34.8790   42.2020 H   0  0  0  0  0  0  0  0  0  0  0  0
   48.0810   33.3320   40.0570 C   0  0  0  0  0  3  0  0  0  0  0  0
   47.6880   32.9480   38.6570 C   0  0  0  0  0  2  0  0  0  0  0  0
   48.1270   34.3530   38.8940 C   0  0  0  0  0  2  0  0  0  0  0  0
  1  6  1  0  0  0  0
  2  3  1  0  0  0  0
  2  1  2  0  0  0  0
  3  4  2  0  0  0  0
  4  5  1  0  0  0  0
  5  9  1  0  0  0  0
  6  5  2  0  0  0  0
  7  1  1  0  0  0  0
  8  2  1  0  0  0  0
 10 11  2  0  0  0  0
 10 12  1  0  0  0  0
 12 13  1  0  0  0  0
 12  3  1  0  0  0  0
 14 10  1  0  0  0  0
 15 16  1  0  0  0  0
 15 14  1  0  0  0  0
 16 14  1  0  0  0  0
M  END
>  <minimizedAffinity>
-3.51395631

>  <minimizedRMSD>
0.821602821

$$$$
