
 OpenBabel03252508433D

 25 27  0  0  0  0  0  0  0  0999 V2000
   46.8300   34.7260   42.1320 C   0  0  0  0  0  0  0  0  0  0  0  0
   46.2350   34.0180   41.1100 C   0  0  0  0  0  0  0  0  0  0  0  0
   46.8520   33.9160   39.8880 C   0  0  0  0  0  0  0  0  0  0  0  0
   48.0760   34.5380   39.7120 C   0  0  0  0  0  0  0  0  0  0  0  0
   48.6970   35.2470   40.6950 C   0  0  0  0  0  0  0  0  0  0  0  0
   48.0300   35.3240   41.9270 C   0  0  0  0  0  0  0  0  0  0  0  0
   46.3950   33.3610   39.0660 H   0  0  0  0  0  0  0  0  0  0  0  0
   48.5260   34.4310   38.7330 H   0  0  0  0  0  0  0  0  0  0  0  0
   49.6530   35.7320   40.5280 H   0  0  0  0  0  0  0  0  0  0  0  0
   48.5180   35.8810   42.7120 H   0  0  0  0  0  0  0  0  0  0  0  0
   45.4690   34.0310   45.5900 C   0  0  0  0  0  0  0  0  0  0  0  0
   46.2220   33.8600   44.4130 C   0  0  0  0  0  0  0  0  0  0  0  0
   46.1090   34.7890   43.3960 C   0  0  0  0  0  0  0  0  0  0  0  0
   45.2640   35.8040   43.6270 N   0  0  0  0  0  0  0  0  0  0  0  0
   44.5370   35.9830   44.7430 C   0  0  0  0  0  0  0  0  0  0  0  0
   44.6450   35.0830   45.7320 N   0  0  0  0  0  0  0  0  0  0  0  0
   45.5540   33.2950   46.3970 H   0  0  0  0  0  0  0  0  0  0  0  0
   46.8850   33.0370   44.2780 H   0  0  0  0  0  0  0  0  0  0  0  0
   43.9190   36.8730   44.7230 H   0  0  0  0  0  0  0  0  0  0  0  0
   44.9030   33.3610   41.3300 C   0  0  0  0  0  0  0  0  0  0  0  0
   44.5900   33.3930   42.3840 H   0  0  0  0  0  0  0  0  0  0  0  0
   45.0120   32.3030   41.0470 H   0  0  0  0  0  0  0  0  0  0  0  0
   43.9200   33.9910   40.3760 C   0  0  0  0  0  3  0  0  0  0  0  0
   42.4860   34.0590   40.7060 C   0  0  0  0  0  2  0  0  0  0  0  0
   43.3380   35.3070   40.7170 C   0  0  0  0  0  2  0  0  0  0  0  0
  1 13  1  0  0  0  0
  2 20  1  0  0  0  0
  2  1  2  0  0  0  0
  3  2  1  0  0  0  0
  4  3  2  0  0  0  0
  4  5  1  0  0  0  0
  5  6  2  0  0  0  0
  6  1  1  0  0  0  0
  6 10  1  0  0  0  0
  7  3  1  0  0  0  0
  8  4  1  0  0  0  0
  9  5  1  0  0  0  0
 11 16  1  0  0  0  0
 11 17  1  0  0  0  0
 12 11  2  0  0  0  0
 13 14  2  0  0  0  0
 13 12  1  0  0  0  0
 14 15  1  0  0  0  0
 15 16  2  0  0  0  0
 18 12  1  0  0  0  0
 19 15  1  0  0  0  0
 20 21  1  0  0  0  0
 22 20  1  0  0  0  0
 23 24  1  0  0  0  0
 23 25  1  0  0  0  0
 23 20  1  0  0  0  0
 24 25  1  0  0  0  0
M  END
>  <minimizedAffinity>
-5.36981106

>  <minimizedRMSD>
3.70662737

$$$$
