
 OpenBabel03242521283D

 29 31  0  0  1  0  0  0  0  0999 V2000
   48.2150   33.6160   42.5860 C   0  0  1  0  0  0  0  0  0  0  0  0
   46.7350   33.7440   42.3240 C   0  0  2  0  0  0  0  0  0  0  0  0
   46.4700   34.6300   41.2950 O   0  0  0  0  0  0  0  0  0  0  0  0
   46.8940   34.0100   40.1310 C   0  0  0  0  0  0  0  0  0  0  0  0
   48.4050   34.0310   40.1120 C   0  0  2  0  0  0  0  0  0  0  0  0
   49.0480   33.5230   41.3560 C   0  0  2  0  0  0  0  0  0  0  0  0
   48.3450   32.6490   43.1580 H   0  0  0  0  0  0  0  0  0  0  0  0
   46.3780   32.7140   42.1040 H   0  0  0  0  0  0  0  0  0  0  0  0
   46.5750   34.6010   39.2340 H   0  0  0  0  0  0  0  0  0  0  0  0
   46.5210   32.9720   40.0730 H   0  0  0  0  0  0  0  0  0  0  0  0
   48.7690   33.4390   39.2510 H   0  0  0  0  0  0  0  0  0  0  0  0
   49.9540   34.1670   41.5230 H   0  0  0  0  0  0  0  0  0  0  0  0
   44.5780   35.7440   44.7150 C   0  0  0  0  0  0  0  0  0  0  0  0
   45.2220   35.3640   43.5260 C   0  0  0  0  0  0  0  0  0  0  0  0
   46.0230   34.1870   43.5390 C   0  0  0  0  0  0  0  0  0  0  0  0
   46.1340   33.4830   44.6930 N   0  0  0  0  0  0  0  0  0  0  0  0
   45.4840   33.8970   45.8270 C   0  0  0  0  0  0  0  0  0  0  0  0
   44.7170   35.0190   45.8290 N   0  0  0  0  0  0  0  0  0  0  0  0
   44.0170   36.6500   44.5330 H   0  0  0  0  0  0  0  0  0  0  0  0
   45.1740   35.8820   42.5740 H   0  0  0  0  0  0  0  0  0  0  0  0
   45.5640   33.3480   46.7510 H   0  0  0  0  0  0  0  0  0  0  0  0
   48.6780   34.5880   43.4820 O   0  0  0  0  0  0  0  0  0  0  0  0
   47.9680   35.2940   43.5360 H   0  0  0  0  0  0  0  0  0  0  0  0
   48.7630   35.3580   39.8470 O   0  0  0  0  0  0  0  0  0  0  0  0
   49.4530   35.4390   39.1430 H   0  0  0  0  0  0  0  0  0  0  0  0
   49.5910   32.2340   41.1940 O   0  0  0  0  0  0  0  0  0  0  0  0
   50.9030   32.1570   41.6460 C   0  0  0  0  0  0  0  0  0  0  0  0
   51.5400   30.8510   41.9200 C   0  0  0  0  0  0  0  0  0  0  0  0
   51.8680   31.4930   40.6470 C   0  0  0  0  0  0  0  0  0  0  0  0
  1  7  1  1  0  0  0
  1 22  1  0  0  0  0
  2  8  1  6  0  0  0
  2  1  1  0  0  0  0
  2 15  1  0  0  0  0
  3  2  1  0  0  0  0
  4  3  1  0  0  0  0
  5 11  1  6  0  0  0
  5  4  1  0  0  0  0
  5  6  1  0  0  0  0
  6 12  1  1  0  0  0
  6  1  1  0  0  0  0
  9  4  1  0  0  0  0
 10  4  1  0  0  0  0
 13 18  1  0  0  0  0
 14 15  1  0  0  0  0
 14 13  2  0  0  0  0
 15 16  2  0  0  0  0
 16 17  1  0  0  0  0
 17 18  2  0  0  0  0
 17 21  1  0  0  0  0
 19 13  1  0  0  0  0
 20 14  1  0  0  0  0
 22 23  1  0  0  0  0
 24  5  1  0  0  0  0
 25 24  1  0  0  0  0
 26  6  1  0  0  0  0
 26 27  1  0  0  0  0
 27 28  1  0  0  0  0
 29 27  1  0  0  0  0
 29 28  1  0  0  0  0
M  END
>  <minimizedAffinity>
-5.12640572

>  <minimizedRMSD>
0.248563752

$$$$
