REMARK  Name = 
REMARK  4 active torsions:
REMARK  status: ('A' for Active; 'I' for Inactive)
REMARK    1  A    between atoms: C_1  and  O_12
REMARK    2  A    between atoms: C_2  and  C_7
REMARK    3  A    between atoms: O_12  and  C_13
REMARK    4  A    between atoms: C_13  and  C_20
REMARK                            x       y       z     vdW  Elec       q    Type
REMARK                         _______ _______ _______ _____ _____    ______ ____
ROOT
ATOM      1  C   UNL     1      46.083  34.152  41.007  0.00  0.00    +0.000 A 
ATOM      2  C   UNL     1      46.613  34.830  42.100  0.00  0.00    +0.000 A 
ATOM      3  C   UNL     1      47.938  35.286  41.993  0.00  0.00    +0.000 A 
ATOM      4  N   UNL     1      48.613  35.037  40.833  0.00  0.00    +0.000 NA
ATOM      5  C   UNL     1      48.047  34.375  39.806  0.00  0.00    +0.000 A 
ATOM      6  N   UNL     1      46.778  33.923  39.875  0.00  0.00    +0.000 NA
ATOM      7  H   UNL     1      48.366  35.816  42.836  0.00  0.00    +0.000 HD
ATOM      8  H   UNL     1      48.632  34.203  38.901  0.00  0.00    +0.000 HD
ENDROOT
BRANCH   2   9
ATOM      9  C   UNL     1      45.809  35.043  43.291  0.00  0.00    +0.000 A 
ATOM     10  C   UNL     1      45.056  36.181  43.497  0.00  0.00    +0.000 A 
ATOM     11  C   UNL     1      44.469  35.967  44.724  0.00  0.00    +0.000 A 
ATOM     12  N   UNL     1      44.840  34.773  45.237  0.00  0.00    +0.000 N 
ATOM     13  N   UNL     1      45.648  34.236  44.353  0.00  0.00    +0.000 NA
ATOM     14  H   UNL     1      44.952  37.043  42.843  0.00  0.00    +0.000 HD
ATOM     15  H   UNL     1      43.792  36.689  45.201  0.00  0.00    +0.000 HD
ATOM     16  H   UNL     1      44.538  34.359  46.162  0.00  0.00    +0.000 HD
ENDBRANCH   2   9
BRANCH   1  17
ATOM     17  O   UNL     1      44.774  33.697  41.101  0.00  0.00    +0.000 OA
BRANCH  17  18
ATOM     18  C   UNL     1      43.696  34.199  40.424  0.00  0.00    +0.000 C 
ATOM     19  O   UNL     1      43.245  35.389  40.423  0.00  0.00    +0.000 OA
BRANCH  18  20
ATOM     20  C   UNL     1      42.661  33.640  39.473  0.00  0.00    +0.000 C 
ATOM     21  C   UNL     1      41.264  34.196  39.523  0.00  0.00    +0.000 C 
ATOM     22  C   UNL     1      42.170  34.448  38.358  0.00  0.00    +0.000 C 
ENDBRANCH  18  20
ENDBRANCH  17  18
ENDBRANCH   1  17
TORSDOF 4
