REMARK  Name = 
REMARK  8 active torsions:
REMARK  status: ('A' for Active; 'I' for Inactive)
REMARK    1  A    between atoms: P_2  and  O_3
REMARK    2  A    between atoms: P_2  and  O_4
REMARK    3  A    between atoms: P_2  and  O_12
REMARK    4  A    between atoms: O_4  and  C_5
REMARK    5  A    between atoms: C_5  and  C_8
REMARK    6  A    between atoms: O_12  and  C_13
REMARK    7  A    between atoms: C_17  and  C_18
REMARK    8  A    between atoms: C_18  and  C_35
REMARK                            x       y       z     vdW  Elec       q    Type
REMARK                         _______ _______ _______ _____ _____    ______ ____
ROOT
ATOM      1  C   UNL     1      46.934  34.088  42.277  0.00  0.00    +0.000 C 
ATOM      2  C   UNL     1      46.393  34.264  40.876  0.00  0.00    +0.000 C 
ATOM      3  C   UNL     1      47.327  33.382  40.090  0.00  0.00    +0.000 C 
ATOM      4  C   UNL     1      48.623  33.328  40.876  0.00  0.00    +0.000 C 
ATOM      5  C   UNL     1      48.431  34.303  42.038  0.00  0.00    +0.000 C 
ATOM      6  H   UNL     1      46.768  33.058  42.585  0.00  0.00    +0.000 HD
ATOM      7  H   UNL     1      45.387  33.748  40.820  0.00  0.00    +0.000 HD
ATOM      8  H   UNL     1      46.337  35.297  40.548  0.00  0.00    +0.000 HD
ATOM      9  H   UNL     1      47.503  33.854  39.102  0.00  0.00    +0.000 HD
ATOM     10  H   UNL     1      46.926  32.362  39.912  0.00  0.00    +0.000 HD
ATOM     11  H   UNL     1      49.467  33.490  40.254  0.00  0.00    +0.000 HD
ATOM     12  H   UNL     1      48.666  32.319  41.401  0.00  0.00    +0.000 HD
ATOM     13  H   UNL     1      48.926  33.950  42.948  0.00  0.00    +0.000 HD
ENDROOT
BRANCH   5  14
ATOM     14  C   UNL     1      48.761  35.719  41.727  0.00  0.00    +0.000 C 
ATOM     15  H   UNL     1      48.456  36.338  42.630  0.00  0.00    +0.000 HD
ATOM     16  H   UNL     1      48.147  36.112  40.871  0.00  0.00    +0.000 HD
BRANCH  14  17
ATOM     17  C   UNL     1      50.215  35.946  41.526  0.00  0.00    +0.000 C 
ATOM     18  C   UNL     1      51.242  35.929  42.576  0.00  0.00    +0.000 C 
ATOM     19  C   UNL     1      51.251  34.926  41.406  0.00  0.00    +0.000 C 
ENDBRANCH  14  17
ENDBRANCH   5  14
BRANCH   1  20
ATOM     20  O   UNL     1      46.422  35.027  43.166  0.00  0.00    +0.000 OA
BRANCH  20  22
ATOM     21  O   UNL     1      44.670  35.280  45.067  0.00  0.00    +0.000 OA
ATOM     22  P   UNL     1      45.492  34.259  44.340  0.00  0.00    +0.000 P 
BRANCH  22  23
ATOM     23  O   UNL     1      44.533  33.060  43.645  0.00  0.00    +0.000 OA
ATOM     24  H   UNL     1      43.989  33.492  42.959  0.00  0.00    +0.000 HD
ENDBRANCH  22  23
BRANCH  22  25
ATOM     25  O   UNL     1      46.517  33.456  45.406  0.00  0.00    +0.000 OA
BRANCH  25  26
ATOM     26  C   UNL     1      46.204  32.145  45.424  0.00  0.00    +0.000 C 
ATOM     27  H   UNL     1      45.423  31.773  44.768  0.00  0.00    +0.000 HD
ATOM     28  H   UNL     1      47.132  31.582  45.111  0.00  0.00    +0.000 HD
BRANCH  26  31
ATOM     29  C   UNL     1      45.747  32.038  49.116  0.00  0.00    +0.000 A 
ATOM     30  C   UNL     1      46.043  32.515  47.830  0.00  0.00    +0.000 A 
ATOM     31  C   UNL     1      45.892  31.648  46.775  0.00  0.00    +0.000 A 
ATOM     32  N   UNL     1      45.465  30.378  47.034  0.00  0.00    +0.000 NA
ATOM     33  C   UNL     1      45.188  29.942  48.270  0.00  0.00    +0.000 A 
ATOM     34  N   UNL     1      45.330  30.771  49.298  0.00  0.00    +0.000 NA
ATOM     35  H   UNL     1      45.882  32.762  49.915  0.00  0.00    +0.000 HD
ATOM     36  H   UNL     1      46.380  33.544  47.700  0.00  0.00    +0.000 HD
ATOM     37  H   UNL     1      44.850  28.931  48.464  0.00  0.00    +0.000 HD
ENDBRANCH  26  31
ENDBRANCH  25  26
ENDBRANCH  22  25
ENDBRANCH  20  22
ENDBRANCH   1  20
TORSDOF 8
