
 OpenBabel03242518513D

 17 18  0  0  0  0  0  0  0  0999 V2000
   39.9470   29.1570   42.8080 C   0  0  0  0  0  0  0  0  0  0  0  0
   38.8420   28.2660   42.9090 C   0  0  0  0  0  0  0  0  0  0  0  0
   37.6550   28.6800   42.3000 C   0  0  0  0  0  0  0  0  0  0  0  0
   37.6300   29.8840   41.6600 N   0  0  0  0  0  0  0  0  0  0  0  0
   38.7100   30.7020   41.5890 C   0  0  0  0  0  0  0  0  0  0  0  0
   39.8750   30.3320   42.1690 N   0  0  0  0  0  0  0  0  0  0  0  0
   40.8980   28.9160   43.2490 H   0  0  0  0  0  0  0  0  0  0  0  0
   38.9820   27.3340   43.4430 H   0  0  0  0  0  0  0  0  0  0  0  0
   36.5380   27.7580   42.4130 C   0  0  0  0  0  0  0  0  0  0  0  0
   36.8680   26.5490   41.7920 F   0  0  0  0  0  0  0  0  0  0  0  0
   35.5080   28.2940   41.6240 F   0  0  0  0  0  0  0  0  0  0  0  0
   36.1470   27.4950   43.6740 F   0  0  0  0  0  0  0  0  0  0  0  0
   38.6430   31.9840   40.8960 C   0  0  0  0  0  0  0  0  0  0  0  0
   39.6320   32.7460   40.8280 O   0  0  0  0  0  0  0  0  0  0  0  0
   37.3760   32.4140   40.2460 C   0  0  0  0  0  3  0  0  0  0  0  0
   37.4050   33.7170   39.5400 C   0  0  0  0  0  2  0  0  0  0  0  0
   37.2260   32.4160   38.7660 C   0  0  0  0  0  2  0  0  0  0  0  0
  1  2  1  0  0  0  0
  1  7  1  0  0  0  0
  2  8  1  0  0  0  0
  3  9  1  0  0  0  0
  3  2  2  0  0  0  0
  4  3  1  0  0  0  0
  5  4  2  0  0  0  0
  5  6  1  0  0  0  0
  6  1  2  0  0  0  0
  9 12  1  0  0  0  0
 10  9  1  0  0  0  0
 11  9  1  0  0  0  0
 13  5  1  0  0  0  0
 14 13  2  0  0  0  0
 15 13  1  0  0  0  0
 16 15  1  0  0  0  0
 17 16  1  0  0  0  0
 17 15  1  0  0  0  0
M  END
>  <minimizedAffinity>
-4.56915617

$$$$

 OpenBabel03242518513D

 17 18  0  0  0  0  0  0  0  0999 V2000
   36.6050   30.2030   38.9270 C   0  0  0  0  0  0  0  0  0  0  0  0
   37.1240   31.5270   38.8760 C   0  0  0  0  0  0  0  0  0  0  0  0
   37.7280   32.0010   40.0430 C   0  0  0  0  0  0  0  0  0  0  0  0
   37.7820   31.1840   41.1330 N   0  0  0  0  0  0  0  0  0  0  0  0
   37.2720   29.9270   41.1370 C   0  0  0  0  0  0  0  0  0  0  0  0
   36.6800   29.4370   40.0230 N   0  0  0  0  0  0  0  0  0  0  0  0
   36.1240   29.7610   38.0730 H   0  0  0  0  0  0  0  0  0  0  0  0
   37.0240   32.0830   37.9510 H   0  0  0  0  0  0  0  0  0  0  0  0
   38.2530   33.3540   39.9730 C   0  0  0  0  0  0  0  0  0  0  0  0
   38.5250   33.8160   41.2650 F   0  0  0  0  0  0  0  0  0  0  0  0
   37.1980   34.1610   39.5200 F   0  0  0  0  0  0  0  0  0  0  0  0
   39.3690   33.4900   39.2310 F   0  0  0  0  0  0  0  0  0  0  0  0
   37.3480   29.0830   42.3240 C   0  0  0  0  0  0  0  0  0  0  0  0
   38.1210   29.3480   43.2700 O   0  0  0  0  0  0  0  0  0  0  0  0
   36.4910   27.8720   42.4320 C   0  0  0  0  0  3  0  0  0  0  0  0
   37.1920   26.5650   42.4300 C   0  0  0  0  0  2  0  0  0  0  0  0
   36.4580   27.0540   43.6740 C   0  0  0  0  0  2  0  0  0  0  0  0
  1  6  1  0  0  0  0
  2  1  2  0  0  0  0
  2  3  1  0  0  0  0
  3  4  2  0  0  0  0
  4  5  1  0  0  0  0
  5 13  1  0  0  0  0
  6  5  2  0  0  0  0
  7  1  1  0  0  0  0
  8  2  1  0  0  0  0
  9  3  1  0  0  0  0
  9 10  1  0  0  0  0
 11  9  1  0  0  0  0
 12  9  1  0  0  0  0
 13 15  1  0  0  0  0
 13 14  2  0  0  0  0
 15 17  1  0  0  0  0
 16 15  1  0  0  0  0
 16 17  1  0  0  0  0
M  END
>  <minimizedAffinity>
-4.50049162

$$$$

 OpenBabel03242518513D

 17 18  0  0  0  0  0  0  0  0999 V2000
   37.8790   28.7330   43.3830 C   0  0  0  0  0  0  0  0  0  0  0  0
   38.0120   27.3190   43.2940 C   0  0  0  0  0  0  0  0  0  0  0  0
   37.3940   26.7060   42.2020 C   0  0  0  0  0  0  0  0  0  0  0  0
   36.7180   27.4830   41.3080 N   0  0  0  0  0  0  0  0  0  0  0  0
   36.6170   28.8300   41.4330 C   0  0  0  0  0  0  0  0  0  0  0  0
   37.2030   29.4550   42.4800 N   0  0  0  0  0  0  0  0  0  0  0  0
   38.3230   29.2840   44.1930 H   0  0  0  0  0  0  0  0  0  0  0  0
   38.5750   26.8070   44.0660 H   0  0  0  0  0  0  0  0  0  0  0  0
   37.5410   25.2630   42.1270 C   0  0  0  0  0  0  0  0  0  0  0  0
   38.6540   24.8680   42.8770 F   0  0  0  0  0  0  0  0  0  0  0  0
   37.8880   24.9730   40.7980 F   0  0  0  0  0  0  0  0  0  0  0  0
   36.4730   24.5620   42.5520 F   0  0  0  0  0  0  0  0  0  0  0  0
   35.8840   29.6270   40.4560 C   0  0  0  0  0  0  0  0  0  0  0  0
   34.6910   29.3830   40.1710 O   0  0  0  0  0  0  0  0  0  0  0  0
   36.5530   30.7650   39.7710 C   0  0  0  0  0  3  0  0  0  0  0  0
   37.9240   30.5160   39.2640 C   0  0  0  0  0  2  0  0  0  0  0  0
   36.7700   30.7650   38.2990 C   0  0  0  0  0  2  0  0  0  0  0  0
  1  7  1  0  0  0  0
  2  1  1  0  0  0  0
  2  8  1  0  0  0  0
  3  2  2  0  0  0  0
  4  5  2  0  0  0  0
  4  3  1  0  0  0  0
  5  6  1  0  0  0  0
  6  1  2  0  0  0  0
  9  3  1  0  0  0  0
  9 12  1  0  0  0  0
  9 10  1  0  0  0  0
 11  9  1  0  0  0  0
 13  5  1  0  0  0  0
 14 13  2  0  0  0  0
 15 13  1  0  0  0  0
 16 15  1  0  0  0  0
 17 16  1  0  0  0  0
 17 15  1  0  0  0  0
M  END
>  <minimizedAffinity>
-4.36542368

$$$$

 OpenBabel03242518513D

 17 18  0  0  0  0  0  0  0  0999 V2000
   36.7360   27.0880   39.4680 C   0  0  0  0  0  0  0  0  0  0  0  0
   36.9060   26.8620   40.8630 C   0  0  0  0  0  0  0  0  0  0  0  0
   37.0620   27.9980   41.6600 C   0  0  0  0  0  0  0  0  0  0  0  0
   37.0410   29.2250   41.0660 N   0  0  0  0  0  0  0  0  0  0  0  0
   36.8760   29.3940   39.7300 C   0  0  0  0  0  0  0  0  0  0  0  0
   36.7230   28.3140   38.9290 N   0  0  0  0  0  0  0  0  0  0  0  0
   36.6100   26.2690   38.7830 H   0  0  0  0  0  0  0  0  0  0  0  0
   36.9050   25.8390   41.2210 H   0  0  0  0  0  0  0  0  0  0  0  0
   37.2330   27.7480   43.0810 C   0  0  0  0  0  0  0  0  0  0  0  0
   36.0330   27.2700   43.6170 F   0  0  0  0  0  0  0  0  0  0  0  0
   37.4160   29.0050   43.6800 F   0  0  0  0  0  0  0  0  0  0  0  0
   38.2120   26.8770   43.3880 F   0  0  0  0  0  0  0  0  0  0  0  0
   36.8610   30.7230   39.1310 C   0  0  0  0  0  0  0  0  0  0  0  0
   36.8630   30.8860   37.8920 O   0  0  0  0  0  0  0  0  0  0  0  0
   36.8410   31.9310   40.0000 C   0  0  0  0  0  3  0  0  0  0  0  0
   38.1600   32.4590   40.4260 C   0  0  0  0  0  2  0  0  0  0  0  0
   37.2650   33.2620   39.4880 C   0  0  0  0  0  2  0  0  0  0  0  0
  1  2  1  0  0  0  0
  2  8  1  0  0  0  0
  2  3  2  0  0  0  0
  3  9  1  0  0  0  0
  4  3  1  0  0  0  0
  5  4  2  0  0  0  0
  6  1  2  0  0  0  0
  6  5  1  0  0  0  0
  7  1  1  0  0  0  0
  9 12  1  0  0  0  0
  9 10  1  0  0  0  0
  9 11  1  0  0  0  0
 13  5  1  0  0  0  0
 13 15  1  0  0  0  0
 14 13  2  0  0  0  0
 15 16  1  0  0  0  0
 17 15  1  0  0  0  0
 17 16  1  0  0  0  0
M  END
>  <minimizedAffinity>
-4.34408045

$$$$

 OpenBabel03242518513D

 17 18  0  0  0  0  0  0  0  0999 V2000
   37.2290   27.1580   39.0590 C   0  0  0  0  0  0  0  0  0  0  0  0
   37.2230   26.4030   40.2660 C   0  0  0  0  0  0  0  0  0  0  0  0
   37.0000   27.1200   41.4440 C   0  0  0  0  0  0  0  0  0  0  0  0
   36.8070   28.4680   41.3660 N   0  0  0  0  0  0  0  0  0  0  0  0
   36.8210   29.1470   40.1920 C   0  0  0  0  0  0  0  0  0  0  0  0
   37.0340   28.4820   39.0320 N   0  0  0  0  0  0  0  0  0  0  0  0
   37.3940   26.6840   38.1080 H   0  0  0  0  0  0  0  0  0  0  0  0
   37.3890   25.3340   40.2030 H   0  0  0  0  0  0  0  0  0  0  0  0
   36.9970   26.3340   42.6650 C   0  0  0  0  0  0  0  0  0  0  0  0
   36.1770   26.9530   43.6150 F   0  0  0  0  0  0  0  0  0  0  0  0
   38.2920   26.4290   43.1960 F   0  0  0  0  0  0  0  0  0  0  0  0
   36.5870   25.0600   42.5170 F   0  0  0  0  0  0  0  0  0  0  0  0
   36.6110   30.5890   40.1490 C   0  0  0  0  0  0  0  0  0  0  0  0
   36.1310   31.2120   41.1220 O   0  0  0  0  0  0  0  0  0  0  0  0
   36.9700   31.3580   38.9280 C   0  0  0  0  0  3  0  0  0  0  0  0
   37.2180   32.8090   39.1100 C   0  0  0  0  0  2  0  0  0  0  0  0
   38.3510   31.8690   38.7110 C   0  0  0  0  0  2  0  0  0  0  0  0
  1  2  1  0  0  0  0
  2  3  2  0  0  0  0
  3  9  1  0  0  0  0
  4  3  1  0  0  0  0
  5  4  2  0  0  0  0
  6  1  2  0  0  0  0
  6  5  1  0  0  0  0
  7  1  1  0  0  0  0
  8  2  1  0  0  0  0
  9 11  1  0  0  0  0
  9 10  1  0  0  0  0
 12  9  1  0  0  0  0
 13  5  1  0  0  0  0
 13 14  2  0  0  0  0
 15 16  1  0  0  0  0
 15 13  1  0  0  0  0
 17 15  1  0  0  0  0
 17 16  1  0  0  0  0
M  END
>  <minimizedAffinity>
-4.30722761

$$$$

 OpenBabel03242518513D

 17 18  0  0  0  0  0  0  0  0999 V2000
   36.2210   29.7470   39.0360 C   0  0  0  0  0  0  0  0  0  0  0  0
   36.7300   31.0740   38.9740 C   0  0  0  0  0  0  0  0  0  0  0  0
   37.3990   31.5350   40.1100 C   0  0  0  0  0  0  0  0  0  0  0  0
   37.5200   30.7030   41.1830 N   0  0  0  0  0  0  0  0  0  0  0  0
   37.0180   29.4430   41.1990 C   0  0  0  0  0  0  0  0  0  0  0  0
   36.3640   28.9660   40.1140 N   0  0  0  0  0  0  0  0  0  0  0  0
   35.6930   29.3140   38.2050 H   0  0  0  0  0  0  0  0  0  0  0  0
   36.5730   31.6420   38.0640 H   0  0  0  0  0  0  0  0  0  0  0  0
   37.9130   32.8910   40.0280 C   0  0  0  0  0  0  0  0  0  0  0  0
   38.9400   32.9440   39.0800 F   0  0  0  0  0  0  0  0  0  0  0  0
   38.5470   33.1450   41.2540 F   0  0  0  0  0  0  0  0  0  0  0  0
   36.9960   33.8260   39.7120 F   0  0  0  0  0  0  0  0  0  0  0  0
   37.1670   28.5840   42.3670 C   0  0  0  0  0  0  0  0  0  0  0  0
   36.2700   27.7850   42.7140 O   0  0  0  0  0  0  0  0  0  0  0  0
   38.4110   28.6430   43.1810 C   0  0  0  0  0  3  0  0  0  0  0  0
   38.9770   27.3430   43.6170 C   0  0  0  0  0  2  0  0  0  0  0  0
   39.7240   28.2240   42.6210 C   0  0  0  0  0  2  0  0  0  0  0  0
  1  6  1  0  0  0  0
  2  1  2  0  0  0  0
  2  3  1  0  0  0  0
  3  4  2  0  0  0  0
  4  5  1  0  0  0  0
  5 13  1  0  0  0  0
  6  5  2  0  0  0  0
  7  1  1  0  0  0  0
  8  2  1  0  0  0  0
  9  3  1  0  0  0  0
  9 11  1  0  0  0  0
 10  9  1  0  0  0  0
 12  9  1  0  0  0  0
 13 14  2  0  0  0  0
 13 15  1  0  0  0  0
 15 16  1  0  0  0  0
 17 15  1  0  0  0  0
 17 16  1  0  0  0  0
M  END
>  <minimizedAffinity>
-4.27606058

$$$$

 OpenBabel03242518513D

 17 18  0  0  0  0  0  0  0  0999 V2000
   37.0680   26.8240   39.4780 C   0  0  0  0  0  0  0  0  0  0  0  0
   37.1200   26.6690   40.8910 C   0  0  0  0  0  0  0  0  0  0  0  0
   37.0390   27.8420   41.6460 C   0  0  0  0  0  0  0  0  0  0  0  0
   36.9180   29.0340   40.9960 N   0  0  0  0  0  0  0  0  0  0  0  0
   36.8730   29.1350   39.6440 C   0  0  0  0  0  0  0  0  0  0  0  0
   36.9490   28.0190   38.8840 N   0  0  0  0  0  0  0  0  0  0  0  0
   37.1240   25.9740   38.8220 H   0  0  0  0  0  0  0  0  0  0  0  0
   37.2170   25.6680   41.2940 H   0  0  0  0  0  0  0  0  0  0  0  0
   37.0930   27.6640   43.0870 C   0  0  0  0  0  0  0  0  0  0  0  0
   37.6110   28.8210   43.6790 F   0  0  0  0  0  0  0  0  0  0  0  0
   38.0620   26.6780   43.3250 F   0  0  0  0  0  0  0  0  0  0  0  0
   35.9100   27.3840   43.6670 F   0  0  0  0  0  0  0  0  0  0  0  0
   36.7440   30.4300   38.9860 C   0  0  0  0  0  0  0  0  0  0  0  0
   36.5540   30.5240   37.7540 O   0  0  0  0  0  0  0  0  0  0  0  0
   36.8380   31.6830   39.7830 C   0  0  0  0  0  3  0  0  0  0  0  0
   38.2020   32.2070   40.0320 C   0  0  0  0  0  2  0  0  0  0  0  0
   37.2200   32.9750   39.1540 C   0  0  0  0  0  2  0  0  0  0  0  0
  1  2  1  0  0  0  0
  2  8  1  0  0  0  0
  2  3  2  0  0  0  0
  3  9  1  0  0  0  0
  4  3  1  0  0  0  0
  5  4  2  0  0  0  0
  6  1  2  0  0  0  0
  6  5  1  0  0  0  0
  7  1  1  0  0  0  0
  9 11  1  0  0  0  0
  9 12  1  0  0  0  0
  9 10  1  0  0  0  0
 13  5  1  0  0  0  0
 13 15  1  0  0  0  0
 14 13  2  0  0  0  0
 15 16  1  0  0  0  0
 17 15  1  0  0  0  0
 17 16  1  0  0  0  0
M  END
>  <minimizedAffinity>
-4.20992136

$$$$

 OpenBabel03242518513D

 17 18  0  0  0  0  0  0  0  0999 V2000
   38.7060   28.9080   43.0750 C   0  0  0  0  0  0  0  0  0  0  0  0
   37.7990   29.6930   42.3080 C   0  0  0  0  0  0  0  0  0  0  0  0
   36.9390   28.9920   41.4600 C   0  0  0  0  0  0  0  0  0  0  0  0
   37.0190   27.6310   41.4210 N   0  0  0  0  0  0  0  0  0  0  0  0
   37.9010   26.9240   42.1710 C   0  0  0  0  0  0  0  0  0  0  0  0
   38.7480   27.5720   43.0030 N   0  0  0  0  0  0  0  0  0  0  0  0
   39.4030   29.3680   43.7540 H   0  0  0  0  0  0  0  0  0  0  0  0
   37.8270   30.7700   42.4240 H   0  0  0  0  0  0  0  0  0  0  0  0
   36.0200   29.8080   40.6850 C   0  0  0  0  0  0  0  0  0  0  0  0
   35.8090   31.0240   41.3440 F   0  0  0  0  0  0  0  0  0  0  0  0
   34.7790   29.1550   40.7360 F   0  0  0  0  0  0  0  0  0  0  0  0
   36.4200   30.0720   39.4270 F   0  0  0  0  0  0  0  0  0  0  0  0
   37.9570   25.4690   42.1000 C   0  0  0  0  0  0  0  0  0  0  0  0
   38.8260   24.8140   42.7170 O   0  0  0  0  0  0  0  0  0  0  0  0
   36.9630   24.7240   41.2800 C   0  0  0  0  0  3  0  0  0  0  0  0
   37.2790   24.5720   39.8390 C   0  0  0  0  0  2  0  0  0  0  0  0
   37.2520   23.3590   40.7640 C   0  0  0  0  0  2  0  0  0  0  0  0
  1  7  1  0  0  0  0
  2  8  1  0  0  0  0
  2  1  2  0  0  0  0
  3  2  1  0  0  0  0
  4  3  2  0  0  0  0
  4  5  1  0  0  0  0
  5  6  2  0  0  0  0
  6  1  1  0  0  0  0
  9 11  1  0  0  0  0
  9 10  1  0  0  0  0
  9  3  1  0  0  0  0
 12  9  1  0  0  0  0
 13  5  1  0  0  0  0
 13 14  2  0  0  0  0
 15 13  1  0  0  0  0
 16 17  1  0  0  0  0
 16 15  1  0  0  0  0
 17 15  1  0  0  0  0
M  END
>  <minimizedAffinity>
-4.18287563

$$$$

 OpenBabel03242518513D

 17 18  0  0  0  0  0  0  0  0999 V2000
   40.1140   30.1430   42.3920 C   0  0  0  0  0  0  0  0  0  0  0  0
   39.1820   30.9670   41.7000 C   0  0  0  0  0  0  0  0  0  0  0  0
   37.9610   30.3780   41.3690 C   0  0  0  0  0  0  0  0  0  0  0  0
   37.7410   29.0790   41.7220 N   0  0  0  0  0  0  0  0  0  0  0  0
   38.6590   28.3300   42.3820 C   0  0  0  0  0  0  0  0  0  0  0  0
   39.8540   28.8710   42.7170 N   0  0  0  0  0  0  0  0  0  0  0  0
   41.0790   30.5180   42.6840 H   0  0  0  0  0  0  0  0  0  0  0  0
   39.4690   31.9870   41.4740 H   0  0  0  0  0  0  0  0  0  0  0  0
   37.0220   31.2330   40.6650 C   0  0  0  0  0  0  0  0  0  0  0  0
   37.4470   32.5630   40.7530 F   0  0  0  0  0  0  0  0  0  0  0  0
   35.8260   31.1920   41.3990 F   0  0  0  0  0  0  0  0  0  0  0  0
   36.8460   30.9300   39.3650 F   0  0  0  0  0  0  0  0  0  0  0  0
   38.3870   26.9430   42.7420 C   0  0  0  0  0  0  0  0  0  0  0  0
   39.1820   26.2780   43.4410 O   0  0  0  0  0  0  0  0  0  0  0  0
   37.1370   26.2840   42.2750 C   0  0  0  0  0  3  0  0  0  0  0  0
   37.1910   25.6350   40.9430 C   0  0  0  0  0  2  0  0  0  0  0  0
   37.0190   24.8030   42.2100 C   0  0  0  0  0  2  0  0  0  0  0  0
  1  7  1  0  0  0  0
  1  6  1  0  0  0  0
  2  1  2  0  0  0  0
  3  2  1  0  0  0  0
  3  4  2  0  0  0  0
  4  5  1  0  0  0  0
  5  6  2  0  0  0  0
  5 13  1  0  0  0  0
  8  2  1  0  0  0  0
  9 10  1  0  0  0  0
  9  3  1  0  0  0  0
  9 11  1  0  0  0  0
 12  9  1  0  0  0  0
 13 14  2  0  0  0  0
 15 13  1  0  0  0  0
 16 17  1  0  0  0  0
 16 15  1  0  0  0  0
 17 15  1  0  0  0  0
M  END
>  <minimizedAffinity>
-4.17597771

$$$$
