
 OpenBabel03242516363D

 38 41  0  0  1  0  0  0  0  0999 V2000
   38.0280   32.2510   40.6190 C   0  0  2  0  0  0  0  0  0  0  0  0
   38.9190   31.7480   39.4530 C   0  0  1  0  0  0  0  0  0  0  0  0
   38.0250   31.8600   38.4300 O   0  0  0  0  0  0  0  0  0  0  0  0
   36.8800   31.1890   38.9060 C   0  0  0  0  0  0  0  0  0  0  0  0
   36.9510   31.2040   40.4460 C   0  0  1  0  0  0  0  0  0  0  0  0
   38.5440   32.1890   41.5790 H   0  0  0  0  0  0  0  0  0  0  0  0
   39.1910   30.7180   39.7640 H   0  0  0  0  0  0  0  0  0  0  0  0
   35.9530   31.6500   38.5310 H   0  0  0  0  0  0  0  0  0  0  0  0
   36.9220   30.1410   38.5800 H   0  0  0  0  0  0  0  0  0  0  0  0
   36.0030   31.5270   40.9070 H   0  0  0  0  0  0  0  0  0  0  0  0
   41.9180   33.8080   38.3490 C   0  0  0  0  0  0  0  0  0  0  0  0
   40.7870   33.0050   38.1970 C   0  0  0  0  0  0  0  0  0  0  0  0
   40.1280   32.5700   39.3240 C   0  0  0  0  0  0  0  0  0  0  0  0
   40.6380   32.9650   40.5420 N   0  0  0  0  0  0  0  0  0  0  0  0
   41.7290   33.7410   40.6600 C   0  0  0  0  0  0  0  0  0  0  0  0
   42.3670   34.1610   39.5570 N   0  0  0  0  0  0  0  0  0  0  0  0
   42.3510   34.0860   37.3760 H   0  0  0  0  0  0  0  0  0  0  0  0
   40.3330   32.6580   37.2930 H   0  0  0  0  0  0  0  0  0  0  0  0
   42.0910   34.0250   41.6440 H   0  0  0  0  0  0  0  0  0  0  0  0
   37.4540   33.4540   40.3100 O   0  0  0  0  0  0  0  0  0  0  0  0
   38.0920   34.1390   39.9990 H   0  0  0  0  0  0  0  0  0  0  0  0
   37.3970   29.9810   40.8500 O   0  0  0  0  0  0  0  0  0  0  0  0
   36.5970   28.1330   42.0760 C   0  0  1  0  0  0  0  0  0  0  0  0
   37.1400   29.6480   42.1780 C   0  0  1  0  0  0  0  0  0  0  0  0
   38.2970   29.3920   42.8120 O   0  0  0  0  0  0  0  0  0  0  0  0
   38.8970   28.5090   41.8690 C   0  0  0  0  0  0  0  0  0  0  0  0
   37.8750   27.3980   41.8100 C   0  0  1  0  0  0  0  0  0  0  0  0
   35.8280   28.0830   41.3280 H   0  0  0  0  0  0  0  0  0  0  0  0
   36.2760   30.1150   42.6310 H   0  0  0  0  0  0  0  0  0  0  0  0
   39.8420   28.1660   42.3630 H   0  0  0  0  0  0  0  0  0  0  0  0
   39.0610   29.0350   40.9320 H   0  0  0  0  0  0  0  0  0  0  0  0
   37.9040   26.9540   40.7930 H   0  0  0  0  0  0  0  0  0  0  0  0
   36.2010   27.8270   43.3870 O   0  0  0  0  0  0  0  0  0  0  0  0
   37.0360   27.7920   43.9210 H   0  0  0  0  0  0  0  0  0  0  0  0
   38.1600   26.4710   42.7930 O   0  0  0  0  0  0  0  0  0  0  0  0
   39.0020   25.5220   42.2040 C   0  0  0  0  0  3  0  0  0  0  0  0
   38.5170   24.1240   42.0170 C   0  0  0  0  0  2  0  0  0  0  0  0
   39.5770   24.4130   43.0430 C   0  0  0  0  0  2  0  0  0  0  0  0
  1  6  1  1  0  0  0
  2  7  1  1  0  0  0
  2  1  1  0  0  0  0
  3  4  1  0  0  0  0
  3  2  1  0  0  0  0
  4  5  1  0  0  0  0
  5  1  1  0  0  0  0
  5 22  1  0  0  0  0
  5 10  1  1  0  0  0
  8  4  1  0  0  0  0
  9  4  1  0  0  0  0
 11 16  1  0  0  0  0
 12 11  2  0  0  0  0
 12 13  1  0  0  0  0
 13  2  1  0  0  0  0
 13 14  2  0  0  0  0
 14 15  1  0  0  0  0
 15 19  1  0  0  0  0
 16 15  2  0  0  0  0
 17 11  1  0  0  0  0
 18 12  1  0  0  0  0
 20  1  1  0  0  0  0
 21 20  1  0  0  0  0
 22 24  1  0  0  0  0
 23 28  1  6  0  0  0
 23 24  1  0  0  0  0
 23 33  1  0  0  0  0
 24 29  1  1  0  0  0
 24 25  1  0  0  0  0
 26 30  1  0  0  0  0
 26 25  1  0  0  0  0
 27 32  1  6  0  0  0
 27 26  1  0  0  0  0
 27 23  1  0  0  0  0
 27 35  1  0  0  0  0
 31 26  1  0  0  0  0
 33 34  1  0  0  0  0
 36 35  1  0  0  0  0
 36 38  1  0  0  0  0
 37 36  1  0  0  0  0
 37 38  1  0  0  0  0
M  END
>  <minimizedAffinity>
-5.63677502

$$$$

 OpenBabel03242516363D

 38 41  0  0  1  0  0  0  0  0999 V2000
   36.6330   30.1750   41.3620 C   0  0  2  0  0  0  0  0  0  0  0  0
   37.4220   30.4710   40.0590 C   0  0  1  0  0  0  0  0  0  0  0  0
   36.3950   30.4110   39.1630 O   0  0  0  0  0  0  0  0  0  0  0  0
   35.7640   29.1840   39.4530 C   0  0  0  0  0  0  0  0  0  0  0  0
   36.1050   28.8300   40.9150 C   0  0  1  0  0  0  0  0  0  0  0  0
   37.2930   30.1170   42.2290 H   0  0  0  0  0  0  0  0  0  0  0  0
   38.1660   29.6480   40.0170 H   0  0  0  0  0  0  0  0  0  0  0  0
   34.6780   29.2350   39.2840 H   0  0  0  0  0  0  0  0  0  0  0  0
   36.1960   28.4030   38.8120 H   0  0  0  0  0  0  0  0  0  0  0  0
   35.2150   28.5390   41.4950 H   0  0  0  0  0  0  0  0  0  0  0  0
   38.4970   34.1180   40.0780 C   0  0  0  0  0  0  0  0  0  0  0  0
   37.6350   33.0360   39.8980 C   0  0  0  0  0  0  0  0  0  0  0  0
   38.1070   31.7650   40.1430 C   0  0  0  0  0  0  0  0  0  0  0  0
   39.4180   31.6510   40.5550 N   0  0  0  0  0  0  0  0  0  0  0  0
   40.2270   32.7110   40.7220 C   0  0  0  0  0  0  0  0  0  0  0  0
   39.7600   33.9460   40.4810 N   0  0  0  0  0  0  0  0  0  0  0  0
   38.0010   35.0730   39.8500 H   0  0  0  0  0  0  0  0  0  0  0  0
   36.6130   33.0430   39.5840 H   0  0  0  0  0  0  0  0  0  0  0  0
   41.2520   32.5670   41.0480 H   0  0  0  0  0  0  0  0  0  0  0  0
   35.5480   31.0010   41.4730 O   0  0  0  0  0  0  0  0  0  0  0  0
   35.7570   31.9600   41.3660 H   0  0  0  0  0  0  0  0  0  0  0  0
   37.1030   27.9030   40.8920 O   0  0  0  0  0  0  0  0  0  0  0  0
   37.7510   25.6610   41.2320 C   0  0  1  0  0  0  0  0  0  0  0  0
   37.0790   26.9590   41.9160 C   0  0  1  0  0  0  0  0  0  0  0  0
   38.0510   27.2280   42.8040 O   0  0  0  0  0  0  0  0  0  0  0  0
   39.1470   27.4110   41.9120 C   0  0  0  0  0  0  0  0  0  0  0  0
   39.1910   26.0710   41.2180 C   0  0  1  0  0  0  0  0  0  0  0  0
   37.2760   25.4750   40.2870 H   0  0  0  0  0  0  0  0  0  0  0  0
   36.1110   26.5450   42.1650 H   0  0  0  0  0  0  0  0  0  0  0  0
   40.0350   27.5540   42.5790 H   0  0  0  0  0  0  0  0  0  0  0  0
   38.9490   28.2610   41.2630 H   0  0  0  0  0  0  0  0  0  0  0  0
   39.5760   26.2260   40.1870 H   0  0  0  0  0  0  0  0  0  0  0  0
   37.6090   24.6560   42.2010 O   0  0  0  0  0  0  0  0  0  0  0  0
   38.2020   24.9180   42.9510 H   0  0  0  0  0  0  0  0  0  0  0  0
   39.9870   25.2110   41.9480 O   0  0  0  0  0  0  0  0  0  0  0  0
   41.1650   25.9110   42.2300 C   0  0  0  0  0  3  0  0  0  0  0  0
   42.4430   25.4910   41.5860 C   0  0  0  0  0  2  0  0  0  0  0  0
   42.2400   25.2590   43.0560 C   0  0  0  0  0  2  0  0  0  0  0  0
  1 20  1  0  0  0  0
  1  6  1  1  0  0  0
  2  7  1  6  0  0  0
  2 13  1  0  0  0  0
  2  1  1  0  0  0  0
  3  4  1  0  0  0  0
  3  2  1  0  0  0  0
  4  5  1  0  0  0  0
  5  1  1  0  0  0  0
  5 10  1  1  0  0  0
  8  4  1  0  0  0  0
  9  4  1  0  0  0  0
 11 16  1  0  0  0  0
 12 11  2  0  0  0  0
 12 13  1  0  0  0  0
 13 14  2  0  0  0  0
 14 15  1  0  0  0  0
 15 19  1  0  0  0  0
 16 15  2  0  0  0  0
 17 11  1  0  0  0  0
 18 12  1  0  0  0  0
 21 20  1  0  0  0  0
 22  5  1  0  0  0  0
 22 24  1  0  0  0  0
 23 28  1  6  0  0  0
 23 24  1  0  0  0  0
 23 33  1  0  0  0  0
 24 29  1  1  0  0  0
 24 25  1  0  0  0  0
 26 30  1  0  0  0  0
 26 25  1  0  0  0  0
 27 32  1  6  0  0  0
 27 23  1  0  0  0  0
 27 26  1  0  0  0  0
 27 35  1  0  0  0  0
 31 26  1  0  0  0  0
 33 34  1  0  0  0  0
 35 36  1  0  0  0  0
 36 38  1  0  0  0  0
 37 36  1  0  0  0  0
 37 38  1  0  0  0  0
M  END
>  <minimizedAffinity>
-5.38973999

$$$$

 OpenBabel03242516363D

 38 41  0  0  1  0  0  0  0  0999 V2000
   36.8810   28.3980   41.7810 C   0  0  2  0  0  0  0  0  0  0  0  0
   38.3010   27.7720   41.7950 C   0  0  1  0  0  0  0  0  0  0  0  0
   38.7320   28.2340   43.0030 O   0  0  0  0  0  0  0  0  0  0  0  0
   38.4720   29.6180   42.9490 C   0  0  0  0  0  0  0  0  0  0  0  0
   37.3490   29.8300   41.9130 C   0  0  1  0  0  0  0  0  0  0  0  0
   36.3590   28.1950   40.8450 H   0  0  0  0  0  0  0  0  0  0  0  0
   38.7820   28.2090   40.8950 H   0  0  0  0  0  0  0  0  0  0  0  0
   38.2020   30.0200   43.9370 H   0  0  0  0  0  0  0  0  0  0  0  0
   39.3680   30.1340   42.5780 H   0  0  0  0  0  0  0  0  0  0  0  0
   36.5430   30.4790   42.2940 H   0  0  0  0  0  0  0  0  0  0  0  0
   38.8200   24.0050   41.8240 C   0  0  0  0  0  0  0  0  0  0  0  0
   39.1430   25.3470   42.0330 C   0  0  0  0  0  0  0  0  0  0  0  0
   38.2310   26.3120   41.6680 C   0  0  0  0  0  0  0  0  0  0  0  0
   37.0450   25.8780   41.1150 N   0  0  0  0  0  0  0  0  0  0  0  0
   36.7590   24.5790   40.9260 C   0  0  0  0  0  0  0  0  0  0  0  0
   37.6520   23.6440   41.2840 N   0  0  0  0  0  0  0  0  0  0  0  0
   39.6290   23.3380   42.1560 H   0  0  0  0  0  0  0  0  0  0  0  0
   40.0350   25.7590   42.4540 H   0  0  0  0  0  0  0  0  0  0  0  0
   35.8090   24.2890   40.4850 H   0  0  0  0  0  0  0  0  0  0  0  0
   36.2070   28.1010   42.9340 O   0  0  0  0  0  0  0  0  0  0  0  0
   36.1950   27.1410   43.1600 H   0  0  0  0  0  0  0  0  0  0  0  0
   37.9300   30.2570   40.7570 O   0  0  0  0  0  0  0  0  0  0  0  0
   38.4360   32.5580   40.8420 C   0  0  1  0  0  0  0  0  0  0  0  0
   37.4360   31.4490   40.2320 C   0  0  1  0  0  0  0  0  0  0  0  0
   37.7960   31.5590   38.9420 O   0  0  0  0  0  0  0  0  0  0  0  0
   39.1820   31.2490   39.0520 C   0  0  0  0  0  0  0  0  0  0  0  0
   39.6530   32.3260   40.0000 C   0  0  1  0  0  0  0  0  0  0  0  0
   38.5260   32.4080   41.9010 H   0  0  0  0  0  0  0  0  0  0  0  0
   36.5030   31.8060   40.6470 H   0  0  0  0  0  0  0  0  0  0  0  0
   39.5910   31.4060   38.0220 H   0  0  0  0  0  0  0  0  0  0  0  0
   39.2980   30.2310   39.4160 H   0  0  0  0  0  0  0  0  0  0  0  0
   40.5040   31.9220   40.5890 H   0  0  0  0  0  0  0  0  0  0  0  0
   37.8740   33.7790   40.4400 O   0  0  0  0  0  0  0  0  0  0  0  0
   37.9800   33.8140   39.4540 H   0  0  0  0  0  0  0  0  0  0  0  0
   40.0080   33.4440   39.2720 O   0  0  0  0  0  0  0  0  0  0  0  0
   41.1430   33.0900   38.5360 C   0  0  0  0  0  3  0  0  0  0  0  0
   42.4910   33.2010   39.1640 C   0  0  0  0  0  2  0  0  0  0  0  0
   42.0960   34.1580   38.0750 C   0  0  0  0  0  2  0  0  0  0  0  0
  1  6  1  6  0  0  0
  1  2  1  0  0  0  0
  1  5  1  0  0  0  0
  1 20  1  0  0  0  0
  2  7  1  6  0  0  0
  2  3  1  0  0  0  0
  4  3  1  0  0  0  0
  4  8  1  0  0  0  0
  5 10  1  1  0  0  0
  5  4  1  0  0  0  0
  9  4  1  0  0  0  0
 11 12  1  0  0  0  0
 11 17  1  0  0  0  0
 12 18  1  0  0  0  0
 13  2  1  0  0  0  0
 13 12  2  0  0  0  0
 14 13  1  0  0  0  0
 15 14  2  0  0  0  0
 15 16  1  0  0  0  0
 16 11  2  0  0  0  0
 19 15  1  0  0  0  0
 20 21  1  0  0  0  0
 22  5  1  0  0  0  0
 23 28  1  1  0  0  0
 24 29  1  1  0  0  0
 24 22  1  0  0  0  0
 24 23  1  0  0  0  0
 25 26  1  0  0  0  0
 25 24  1  0  0  0  0
 26 31  1  0  0  0  0
 26 27  1  0  0  0  0
 27 32  1  1  0  0  0
 27 23  1  0  0  0  0
 30 26  1  0  0  0  0
 33 23  1  0  0  0  0
 34 33  1  0  0  0  0
 35 27  1  0  0  0  0
 36 37  1  0  0  0  0
 36 35  1  0  0  0  0
 38 36  1  0  0  0  0
 38 37  1  0  0  0  0
M  END
>  <minimizedAffinity>
-5.26825237

$$$$

 OpenBabel03242516363D

 38 41  0  0  1  0  0  0  0  0999 V2000
   40.0400   31.8730   37.7780 C   0  0  2  0  0  0  0  0  0  0  0  0
   40.6550   30.4480   37.7630 C   0  0  1  0  0  0  0  0  0  0  0  0
   39.7080   29.8090   37.0180 O   0  0  0  0  0  0  0  0  0  0  0  0
   38.4950   30.1470   37.6510 C   0  0  0  0  0  0  0  0  0  0  0  0
   38.7320   31.4630   38.4180 C   0  0  1  0  0  0  0  0  0  0  0  0
   40.6270   32.5600   38.3890 H   0  0  0  0  0  0  0  0  0  0  0  0
   40.7060   30.1800   38.8390 H   0  0  0  0  0  0  0  0  0  0  0  0
   37.6700   30.2340   36.9280 H   0  0  0  0  0  0  0  0  0  0  0  0
   38.2510   29.3710   38.3900 H   0  0  0  0  0  0  0  0  0  0  0  0
   37.9440   32.2100   38.2260 H   0  0  0  0  0  0  0  0  0  0  0  0
   43.9360   29.8040   35.9520 C   0  0  0  0  0  0  0  0  0  0  0  0
   42.6420   29.5320   36.3990 C   0  0  0  0  0  0  0  0  0  0  0  0
   42.0030   30.4650   37.1840 C   0  0  0  0  0  0  0  0  0  0  0  0
   42.6970   31.6200   37.4780 N   0  0  0  0  0  0  0  0  0  0  0  0
   43.9430   31.8570   37.0330 C   0  0  0  0  0  0  0  0  0  0  0  0
   44.5590   30.9430   36.2680 N   0  0  0  0  0  0  0  0  0  0  0  0
   44.3320   28.9830   35.3370 H   0  0  0  0  0  0  0  0  0  0  0  0
   42.0420   28.6670   36.2160 H   0  0  0  0  0  0  0  0  0  0  0  0
   44.4460   32.7840   37.2920 H   0  0  0  0  0  0  0  0  0  0  0  0
   39.7390   32.2860   36.5090 O   0  0  0  0  0  0  0  0  0  0  0  0
   40.4850   32.2030   35.8680 H   0  0  0  0  0  0  0  0  0  0  0  0
   38.9160   31.1480   39.7310 O   0  0  0  0  0  0  0  0  0  0  0  0
   37.0500   30.2830   40.8850 C   0  0  1  0  0  0  0  0  0  0  0  0
   37.9350   31.6040   40.6090 C   0  0  1  0  0  0  0  0  0  0  0  0
   38.4560   31.7430   41.8390 O   0  0  0  0  0  0  0  0  0  0  0  0
   39.1170   30.4870   41.9620 C   0  0  0  0  0  0  0  0  0  0  0  0
   37.9620   29.5270   41.8010 C   0  0  1  0  0  0  0  0  0  0  0  0
   36.7940   29.8280   39.9470 H   0  0  0  0  0  0  0  0  0  0  0  0
   37.1700   32.2420   40.1850 H   0  0  0  0  0  0  0  0  0  0  0  0
   39.5120   30.4750   43.0100 H   0  0  0  0  0  0  0  0  0  0  0  0
   39.8920   30.4080   41.2040 H   0  0  0  0  0  0  0  0  0  0  0  0
   38.3480   28.5940   41.3370 H   0  0  0  0  0  0  0  0  0  0  0  0
   35.9750   30.7520   41.6550 O   0  0  0  0  0  0  0  0  0  0  0  0
   36.3630   31.0190   42.5280 H   0  0  0  0  0  0  0  0  0  0  0  0
   37.3900   29.2970   43.0370 O   0  0  0  0  0  0  0  0  0  0  0  0
   37.5340   27.9290   43.2860 C   0  0  0  0  0  3  0  0  0  0  0  0
   37.0040   26.9410   42.3020 C   0  0  0  0  0  2  0  0  0  0  0  0
   36.3240   27.1030   43.6320 C   0  0  0  0  0  2  0  0  0  0  0  0
  1  6  1  1  0  0  0
  1  5  1  0  0  0  0
  2  1  1  0  0  0  0
  2  7  1  1  0  0  0
  3  4  1  0  0  0  0
  3  2  1  0  0  0  0
  4  9  1  0  0  0  0
  4  5  1  0  0  0  0
  5 10  1  6  0  0  0
  5 22  1  0  0  0  0
  8  4  1  0  0  0  0
 11 16  2  0  0  0  0
 11 12  1  0  0  0  0
 12 13  2  0  0  0  0
 13 14  1  0  0  0  0
 13  2  1  0  0  0  0
 15 19  1  0  0  0  0
 15 14  2  0  0  0  0
 16 15  1  0  0  0  0
 17 11  1  0  0  0  0
 18 12  1  0  0  0  0
 20  1  1  0  0  0  0
 21 20  1  0  0  0  0
 22 24  1  0  0  0  0
 23 28  1  6  0  0  0
 23 33  1  0  0  0  0
 23 27  1  0  0  0  0
 24 29  1  6  0  0  0
 24 23  1  0  0  0  0
 24 25  1  0  0  0  0
 25 26  1  0  0  0  0
 26 30  1  0  0  0  0
 27 32  1  6  0  0  0
 27 26  1  0  0  0  0
 27 35  1  0  0  0  0
 31 26  1  0  0  0  0
 33 34  1  0  0  0  0
 35 36  1  0  0  0  0
 36 38  1  0  0  0  0
 37 36  1  0  0  0  0
 37 38  1  0  0  0  0
M  END
>  <minimizedAffinity>
-5.26425791

$$$$

 OpenBabel03242516363D

 38 41  0  0  1  0  0  0  0  0999 V2000
   37.4080   28.9010   42.2210 C   0  0  2  0  0  0  0  0  0  0  0  0
   38.7710   28.2040   41.9710 C   0  0  1  0  0  0  0  0  0  0  0  0
   39.5340   28.8870   42.8720 O   0  0  0  0  0  0  0  0  0  0  0  0
   39.2660   30.2410   42.5860 C   0  0  0  0  0  0  0  0  0  0  0  0
   37.8910   30.2960   41.8920 C   0  0  1  0  0  0  0  0  0  0  0  0
   36.6360   28.5360   41.5410 H   0  0  0  0  0  0  0  0  0  0  0  0
   38.9700   28.4070   40.8980 H   0  0  0  0  0  0  0  0  0  0  0  0
   39.2950   30.8610   43.4950 H   0  0  0  0  0  0  0  0  0  0  0  0
   40.0150   30.6080   41.8710 H   0  0  0  0  0  0  0  0  0  0  0  0
   37.2290   31.0610   42.3310 H   0  0  0  0  0  0  0  0  0  0  0  0
   39.2490   24.5290   42.8210 C   0  0  0  0  0  0  0  0  0  0  0  0
   39.6100   25.8690   42.6710 C   0  0  0  0  0  0  0  0  0  0  0  0
   38.6710   26.7580   42.1990 C   0  0  0  0  0  0  0  0  0  0  0  0
   37.4220   26.2560   41.9040 N   0  0  0  0  0  0  0  0  0  0  0  0
   37.1010   24.9600   42.0590 C   0  0  0  0  0  0  0  0  0  0  0  0
   38.0210   24.0990   42.5200 N   0  0  0  0  0  0  0  0  0  0  0  0
   40.0850   23.9260   43.2040 H   0  0  0  0  0  0  0  0  0  0  0  0
   40.5510   26.3330   42.8770 H   0  0  0  0  0  0  0  0  0  0  0  0
   36.1010   24.6140   41.8120 H   0  0  0  0  0  0  0  0  0  0  0  0
   37.0980   28.9020   43.5540 O   0  0  0  0  0  0  0  0  0  0  0  0
   37.1540   28.0140   43.9830 H   0  0  0  0  0  0  0  0  0  0  0  0
   38.1100   30.4280   40.5540 O   0  0  0  0  0  0  0  0  0  0  0  0
   38.1850   31.6550   38.5420 C   0  0  1  0  0  0  0  0  0  0  0  0
   37.3650   31.4120   39.9090 C   0  0  1  0  0  0  0  0  0  0  0  0
   36.2600   30.8660   39.3730 O   0  0  0  0  0  0  0  0  0  0  0  0
   36.8430   29.7460   38.7130 C   0  0  0  0  0  0  0  0  0  0  0  0
   37.8100   30.4250   37.7730 C   0  0  1  0  0  0  0  0  0  0  0  0
   39.2230   31.8010   38.7740 H   0  0  0  0  0  0  0  0  0  0  0  0
   37.4220   32.4080   40.3270 H   0  0  0  0  0  0  0  0  0  0  0  0
   35.9950   29.2740   38.1530 H   0  0  0  0  0  0  0  0  0  0  0  0
   37.2990   29.0890   39.4490 H   0  0  0  0  0  0  0  0  0  0  0  0
   38.6750   29.7460   37.6140 H   0  0  0  0  0  0  0  0  0  0  0  0
   37.5300   32.7410   37.9420 O   0  0  0  0  0  0  0  0  0  0  0  0
   36.6350   32.4060   37.6780 H   0  0  0  0  0  0  0  0  0  0  0  0
   37.1580   30.7240   36.5930 O   0  0  0  0  0  0  0  0  0  0  0  0
   36.5220   29.5470   36.1880 C   0  0  0  0  0  3  0  0  0  0  0  0
   37.2730   28.5460   35.3760 C   0  0  0  0  0  2  0  0  0  0  0  0
   36.1740   29.3470   34.7370 C   0  0  0  0  0  2  0  0  0  0  0  0
  1  6  1  6  0  0  0
  1 20  1  0  0  0  0
  2  7  1  6  0  0  0
  2 13  1  0  0  0  0
  2  1  1  0  0  0  0
  2  3  1  0  0  0  0
  4  3  1  0  0  0  0
  4  8  1  0  0  0  0
  5  1  1  0  0  0  0
  5 10  1  1  0  0  0
  5  4  1  0  0  0  0
  9  4  1  0  0  0  0
 11 17  1  0  0  0  0
 12 11  1  0  0  0  0
 12 18  1  0  0  0  0
 13 12  2  0  0  0  0
 14 15  2  0  0  0  0
 14 13  1  0  0  0  0
 15 16  1  0  0  0  0
 16 11  2  0  0  0  0
 19 15  1  0  0  0  0
 20 21  1  0  0  0  0
 22  5  1  0  0  0  0
 23 28  1  1  0  0  0
 23 24  1  0  0  0  0
 24 29  1  1  0  0  0
 24 22  1  0  0  0  0
 25 24  1  0  0  0  0
 26 25  1  0  0  0  0
 26 31  1  0  0  0  0
 27 32  1  6  0  0  0
 27 23  1  0  0  0  0
 27 26  1  0  0  0  0
 30 26  1  0  0  0  0
 33 23  1  0  0  0  0
 34 33  1  0  0  0  0
 35 27  1  0  0  0  0
 36 35  1  0  0  0  0
 37 36  1  0  0  0  0
 38 37  1  0  0  0  0
 38 36  1  0  0  0  0
M  END
>  <minimizedAffinity>
-5.17335081

$$$$

 OpenBabel03242516363D

 38 41  0  0  1  0  0  0  0  0999 V2000
   36.5710   28.8620   39.9700 C   0  0  2  0  0  0  0  0  0  0  0  0
   37.5780   28.1720   40.9270 C   0  0  1  0  0  0  0  0  0  0  0  0
   37.3770   28.9330   42.0410 O   0  0  0  0  0  0  0  0  0  0  0  0
   37.5000   30.2570   41.5740 C   0  0  0  0  0  0  0  0  0  0  0  0
   37.1950   30.2370   40.0630 C   0  0  1  0  0  0  0  0  0  0  0  0
   36.6080   28.4340   38.9670 H   0  0  0  0  0  0  0  0  0  0  0  0
   38.5510   28.2980   40.4090 H   0  0  0  0  0  0  0  0  0  0  0  0
   36.8350   30.9440   42.1200 H   0  0  0  0  0  0  0  0  0  0  0  0
   38.5410   30.5830   41.6990 H   0  0  0  0  0  0  0  0  0  0  0  0
   36.4780   31.0210   39.7680 H   0  0  0  0  0  0  0  0  0  0  0  0
   36.9840   24.5910   42.0590 C   0  0  0  0  0  0  0  0  0  0  0  0
   37.3730   25.9260   42.1770 C   0  0  0  0  0  0  0  0  0  0  0  0
   37.2670   26.7460   41.0760 C   0  0  0  0  0  0  0  0  0  0  0  0
   36.7760   26.1820   39.9180 N   0  0  0  0  0  0  0  0  0  0  0  0
   36.4070   24.8920   39.8320 C   0  0  0  0  0  0  0  0  0  0  0  0
   36.5130   24.1000   40.9090 N   0  0  0  0  0  0  0  0  0  0  0  0
   37.1180   24.0460   43.0050 H   0  0  0  0  0  0  0  0  0  0  0  0
   37.7610   26.4340   43.0340 H   0  0  0  0  0  0  0  0  0  0  0  0
   36.0260   24.4960   38.8960 H   0  0  0  0  0  0  0  0  0  0  0  0
   35.3350   28.9570   40.5490 O   0  0  0  0  0  0  0  0  0  0  0  0
   34.9900   28.1050   40.9100 H   0  0  0  0  0  0  0  0  0  0  0  0
   38.3850   30.2720   39.4010 O   0  0  0  0  0  0  0  0  0  0  0  0
   39.3240   31.8570   37.9290 C   0  0  1  0  0  0  0  0  0  0  0  0
   38.3210   30.6000   38.0490 C   0  0  1  0  0  0  0  0  0  0  0  0
   39.0380   29.7160   37.3340 O   0  0  0  0  0  0  0  0  0  0  0  0
   40.2410   29.7100   38.0980 C   0  0  0  0  0  0  0  0  0  0  0  0
   40.6490   31.1630   38.0200 C   0  0  1  0  0  0  0  0  0  0  0  0
   39.0840   32.5740   38.6910 H   0  0  0  0  0  0  0  0  0  0  0  0
   37.4070   31.0710   37.7130 H   0  0  0  0  0  0  0  0  0  0  0  0
   40.9430   29.0590   37.5170 H   0  0  0  0  0  0  0  0  0  0  0  0
   40.0330   29.3420   39.0990 H   0  0  0  0  0  0  0  0  0  0  0  0
   41.1970   31.4190   38.9510 H   0  0  0  0  0  0  0  0  0  0  0  0
   39.1670   32.2900   36.6040 O   0  0  0  0  0  0  0  0  0  0  0  0
   39.5470   31.5710   36.0370 H   0  0  0  0  0  0  0  0  0  0  0  0
   41.4190   31.3550   36.8910 O   0  0  0  0  0  0  0  0  0  0  0  0
   42.4380   30.3990   36.9440 C   0  0  0  0  0  3  0  0  0  0  0  0
   43.8580   30.8270   36.7890 C   0  0  0  0  0  2  0  0  0  0  0  0
   43.1940   30.0440   35.6920 C   0  0  0  0  0  2  0  0  0  0  0  0
  1  6  1  6  0  0  0
  1  5  1  0  0  0  0
  1 20  1  0  0  0  0
  1  2  1  0  0  0  0
  2  7  1  6  0  0  0
  2 13  1  0  0  0  0
  2  3  1  0  0  0  0
  4  9  1  0  0  0  0
  4  3  1  0  0  0  0
  4  8  1  0  0  0  0
  5 10  1  6  0  0  0
  5  4  1  0  0  0  0
 11 12  1  0  0  0  0
 11 17  1  0  0  0  0
 12 18  1  0  0  0  0
 13 12  2  0  0  0  0
 14 13  1  0  0  0  0
 15 14  2  0  0  0  0
 15 16  1  0  0  0  0
 16 11  2  0  0  0  0
 19 15  1  0  0  0  0
 20 21  1  0  0  0  0
 22  5  1  0  0  0  0
 23 27  1  0  0  0  0
 23 24  1  0  0  0  0
 23 28  1  1  0  0  0
 24 29  1  6  0  0  0
 24 22  1  0  0  0  0
 25 24  1  0  0  0  0
 25 26  1  0  0  0  0
 26 31  1  0  0  0  0
 27 26  1  0  0  0  0
 27 32  1  1  0  0  0
 30 26  1  0  0  0  0
 33 23  1  0  0  0  0
 34 33  1  0  0  0  0
 35 36  1  0  0  0  0
 35 27  1  0  0  0  0
 37 36  1  0  0  0  0
 38 37  1  0  0  0  0
 38 36  1  0  0  0  0
M  END
>  <minimizedAffinity>
-5.02614546

$$$$

 OpenBabel03242516363D

 38 41  0  0  1  0  0  0  0  0999 V2000
   39.0420   28.4190   41.8840 C   0  0  2  0  0  0  0  0  0  0  0  0
   37.6530   29.0880   41.7130 C   0  0  1  0  0  0  0  0  0  0  0  0
   37.3720   29.3470   43.0230 O   0  0  0  0  0  0  0  0  0  0  0  0
   37.5890   28.1110   43.6660 C   0  0  0  0  0  0  0  0  0  0  0  0
   38.5600   27.3020   42.7830 C   0  0  1  0  0  0  0  0  0  0  0  0
   39.4420   28.0680   40.9310 H   0  0  0  0  0  0  0  0  0  0  0  0
   37.0470   28.2980   41.2220 H   0  0  0  0  0  0  0  0  0  0  0  0
   37.9760   28.2470   44.6870 H   0  0  0  0  0  0  0  0  0  0  0  0
   36.6390   27.5610   43.7070 H   0  0  0  0  0  0  0  0  0  0  0  0
   39.3920   26.8690   43.3620 H   0  0  0  0  0  0  0  0  0  0  0  0
   37.1860   32.3250   39.7740 C   0  0  0  0  0  0  0  0  0  0  0  0
   36.8450   31.2940   40.6500 C   0  0  0  0  0  0  0  0  0  0  0  0
   37.7420   30.2670   40.8450 C   0  0  0  0  0  0  0  0  0  0  0  0
   38.9320   30.3320   40.1510 N   0  0  0  0  0  0  0  0  0  0  0  0
   39.2350   31.3380   39.3130 C   0  0  0  0  0  0  0  0  0  0  0  0
   38.3560   32.3350   39.1280 N   0  0  0  0  0  0  0  0  0  0  0  0
   36.3880   33.0790   39.7070 H   0  0  0  0  0  0  0  0  0  0  0  0
   35.9500   31.1730   41.2210 H   0  0  0  0  0  0  0  0  0  0  0  0
   40.1860   31.3420   38.7900 H   0  0  0  0  0  0  0  0  0  0  0  0
   39.8690   29.1990   42.6450 O   0  0  0  0  0  0  0  0  0  0  0  0
   39.9350   30.1360   42.3390 H   0  0  0  0  0  0  0  0  0  0  0  0
   37.8220   26.3990   42.0780 O   0  0  0  0  0  0  0  0  0  0  0  0
   37.6810   24.0540   41.8770 C   0  0  1  0  0  0  0  0  0  0  0  0
   38.5360   25.3630   41.4810 C   0  0  1  0  0  0  0  0  0  0  0  0
   38.2980   25.3520   40.1590 O   0  0  0  0  0  0  0  0  0  0  0  0
   36.8760   25.4380   40.1710 C   0  0  0  0  0  0  0  0  0  0  0  0
   36.5100   24.2000   40.9540 C   0  0  1  0  0  0  0  0  0  0  0  0
   37.4880   24.0650   42.9330 H   0  0  0  0  0  0  0  0  0  0  0  0
   39.4800   25.1030   41.9420 H   0  0  0  0  0  0  0  0  0  0  0  0
   36.5760   25.3420   39.0960 H   0  0  0  0  0  0  0  0  0  0  0  0
   36.5730   26.3780   40.6250 H   0  0  0  0  0  0  0  0  0  0  0  0
   35.5640   24.4010   41.5000 H   0  0  0  0  0  0  0  0  0  0  0  0
   38.4580   22.9860   41.4050 O   0  0  0  0  0  0  0  0  0  0  0  0
   38.4340   23.0500   40.4150 H   0  0  0  0  0  0  0  0  0  0  0  0
   36.3930   23.1340   40.0840 O   0  0  0  0  0  0  0  0  0  0  0  0
   35.2940   23.4130   39.2670 C   0  0  0  0  0  3  0  0  0  0  0  0
   33.9990   22.7150   39.5110 C   0  0  0  0  0  2  0  0  0  0  0  0
   34.8070   22.3770   38.2910 C   0  0  0  0  0  2  0  0  0  0  0  0
  1  6  1  6  0  0  0
  1 20  1  0  0  0  0
  1  5  1  0  0  0  0
  2  7  1  6  0  0  0
  2  1  1  0  0  0  0
  2  3  1  0  0  0  0
  3  4  1  0  0  0  0
  4  9  1  0  0  0  0
  4  8  1  0  0  0  0
  5 10  1  1  0  0  0
  5  4  1  0  0  0  0
 11 12  1  0  0  0  0
 12 13  2  0  0  0  0
 12 18  1  0  0  0  0
 13  2  1  0  0  0  0
 14 13  1  0  0  0  0
 15 14  2  0  0  0  0
 16 15  1  0  0  0  0
 16 11  2  0  0  0  0
 17 11  1  0  0  0  0
 19 15  1  0  0  0  0
 21 20  1  0  0  0  0
 22  5  1  0  0  0  0
 23 28  1  1  0  0  0
 24 23  1  0  0  0  0
 24 29  1  1  0  0  0
 24 22  1  0  0  0  0
 25 26  1  0  0  0  0
 25 24  1  0  0  0  0
 26 31  1  0  0  0  0
 26 27  1  0  0  0  0
 27 32  1  1  0  0  0
 27 23  1  0  0  0  0
 30 26  1  0  0  0  0
 33 23  1  0  0  0  0
 34 33  1  0  0  0  0
 35 27  1  0  0  0  0
 36 37  1  0  0  0  0
 36 35  1  0  0  0  0
 38 36  1  0  0  0  0
 38 37  1  0  0  0  0
M  END
>  <minimizedAffinity>
-4.93554115

$$$$

 OpenBabel03242516363D

 38 41  0  0  1  0  0  0  0  0999 V2000
   37.0270   28.5280   41.4220 C   0  0  2  0  0  0  0  0  0  0  0  0
   38.2960   27.7170   41.7940 C   0  0  1  0  0  0  0  0  0  0  0  0
   38.2900   27.9090   43.1450 O   0  0  0  0  0  0  0  0  0  0  0  0
   38.1650   29.3060   43.2880 C   0  0  0  0  0  0  0  0  0  0  0  0
   37.5140   29.8400   41.9960 C   0  0  1  0  0  0  0  0  0  0  0  0
   36.8680   28.5580   40.3430 H   0  0  0  0  0  0  0  0  0  0  0  0
   39.1020   28.2260   41.2240 H   0  0  0  0  0  0  0  0  0  0  0  0
   37.5840   29.5720   44.1830 H   0  0  0  0  0  0  0  0  0  0  0  0
   39.1690   29.7460   43.3610 H   0  0  0  0  0  0  0  0  0  0  0  0
   36.6730   30.5220   42.2000 H   0  0  0  0  0  0  0  0  0  0  0  0
   38.5100   24.3110   40.1190 C   0  0  0  0  0  0  0  0  0  0  0  0
   38.7800   25.6670   40.3080 C   0  0  0  0  0  0  0  0  0  0  0  0
   38.1750   26.3220   41.3570 C   0  0  0  0  0  0  0  0  0  0  0  0
   37.3330   25.5820   42.1580 N   0  0  0  0  0  0  0  0  0  0  0  0
   37.0910   24.2750   41.9540 C   0  0  0  0  0  0  0  0  0  0  0  0
   37.6840   23.6430   40.9300 N   0  0  0  0  0  0  0  0  0  0  0  0
   39.0530   23.9070   39.2520 H   0  0  0  0  0  0  0  0  0  0  0  0
   39.4170   26.3060   39.7340 H   0  0  0  0  0  0  0  0  0  0  0  0
   36.4180   23.7370   42.6150 H   0  0  0  0  0  0  0  0  0  0  0  0
   35.9610   28.1420   42.1870 O   0  0  0  0  0  0  0  0  0  0  0  0
   35.7990   27.1680   42.1940 H   0  0  0  0  0  0  0  0  0  0  0  0
   38.5040   30.3670   41.2220 O   0  0  0  0  0  0  0  0  0  0  0  0
   40.6830   31.2690   41.2240 C   0  0  1  0  0  0  0  0  0  0  0  0
   39.1730   31.4660   41.7560 C   0  0  1  0  0  0  0  0  0  0  0  0
   38.8670   32.5690   41.0500 O   0  0  0  0  0  0  0  0  0  0  0  0
   39.0720   32.0730   39.7300 C   0  0  0  0  0  0  0  0  0  0  0  0
   40.5250   31.6650   39.7890 C   0  0  1  0  0  0  0  0  0  0  0  0
   41.0020   30.2660   41.4330 H   0  0  0  0  0  0  0  0  0  0  0  0
   39.3570   31.4460   42.8220 H   0  0  0  0  0  0  0  0  0  0  0  0
   38.9250   32.9630   39.0660 H   0  0  0  0  0  0  0  0  0  0  0  0
   38.3730   31.2630   39.5340 H   0  0  0  0  0  0  0  0  0  0  0  0
   40.6740   30.8100   39.0960 H   0  0  0  0  0  0  0  0  0  0  0  0
   41.4030   32.2890   41.8650 O   0  0  0  0  0  0  0  0  0  0  0  0
   41.0750   33.1390   41.4730 H   0  0  0  0  0  0  0  0  0  0  0  0
   41.3110   32.7500   39.4550 O   0  0  0  0  0  0  0  0  0  0  0  0
   41.1590   32.9360   38.0780 C   0  0  0  0  0  3  0  0  0  0  0  0
   42.0640   32.2180   37.1340 C   0  0  0  0  0  2  0  0  0  0  0  0
   42.1990   33.7040   37.3090 C   0  0  0  0  0  2  0  0  0  0  0  0
  1  6  1  6  0  0  0
  1  2  1  0  0  0  0
  1  5  1  0  0  0  0
  1 20  1  0  0  0  0
  2  7  1  6  0  0  0
  2  3  1  0  0  0  0
  3  4  1  0  0  0  0
  4  9  1  0  0  0  0
  4  8  1  0  0  0  0
  5 10  1  1  0  0  0
  5  4  1  0  0  0  0
 11 12  2  0  0  0  0
 11 16  1  0  0  0  0
 12 13  1  0  0  0  0
 13  2  1  0  0  0  0
 13 14  2  0  0  0  0
 15 14  1  0  0  0  0
 15 19  1  0  0  0  0
 16 15  2  0  0  0  0
 17 11  1  0  0  0  0
 18 12  1  0  0  0  0
 20 21  1  0  0  0  0
 22 24  1  0  0  0  0
 22  5  1  0  0  0  0
 23 28  1  1  0  0  0
 23 24  1  0  0  0  0
 23 33  1  0  0  0  0
 24 29  1  1  0  0  0
 25 24  1  0  0  0  0
 26 27  1  0  0  0  0
 26 25  1  0  0  0  0
 27 32  1  6  0  0  0
 27 23  1  0  0  0  0
 30 26  1  0  0  0  0
 31 26  1  0  0  0  0
 34 33  1  0  0  0  0
 35 27  1  0  0  0  0
 36 35  1  0  0  0  0
 37 38  1  0  0  0  0
 37 36  1  0  0  0  0
 38 36  1  0  0  0  0
M  END
>  <minimizedAffinity>
-4.92986965

$$$$

 OpenBabel03242516363D

 38 41  0  0  1  0  0  0  0  0999 V2000
   37.3900   28.5240   40.2650 C   0  0  2  0  0  0  0  0  0  0  0  0
   38.0970   28.7780   41.6220 C   0  0  1  0  0  0  0  0  0  0  0  0
   37.0480   29.3000   42.3210 O   0  0  0  0  0  0  0  0  0  0  0  0
   36.5500   30.3140   41.4780 C   0  0  0  0  0  0  0  0  0  0  0  0
   36.9780   29.9620   40.0390 C   0  0  1  0  0  0  0  0  0  0  0  0
   38.0840   28.1470   39.5110 H   0  0  0  0  0  0  0  0  0  0  0  0
   38.9150   29.4810   41.3560 H   0  0  0  0  0  0  0  0  0  0  0  0
   35.4590   30.4190   41.5700 H   0  0  0  0  0  0  0  0  0  0  0  0
   37.0320   31.2650   41.7450 H   0  0  0  0  0  0  0  0  0  0  0  0
   36.1420   30.0290   39.3240 H   0  0  0  0  0  0  0  0  0  0  0  0
   39.6570   25.9830   43.6730 C   0  0  0  0  0  0  0  0  0  0  0  0
   39.2150   27.2770   43.3950 C   0  0  0  0  0  0  0  0  0  0  0  0
   38.6570   27.5350   42.1630 C   0  0  0  0  0  0  0  0  0  0  0  0
   38.5730   26.4810   41.2780 N   0  0  0  0  0  0  0  0  0  0  0  0
   39.0060   25.2430   41.5730 C   0  0  0  0  0  0  0  0  0  0  0  0
   39.5490   24.9990   42.7760 N   0  0  0  0  0  0  0  0  0  0  0  0
   40.0810   25.9100   44.6860 H   0  0  0  0  0  0  0  0  0  0  0  0
   39.2450   28.1410   44.0230 H   0  0  0  0  0  0  0  0  0  0  0  0
   38.9170   24.4470   40.8400 H   0  0  0  0  0  0  0  0  0  0  0  0
   36.2350   27.8130   40.4430 O   0  0  0  0  0  0  0  0  0  0  0  0
   36.3460   26.9870   40.9730 H   0  0  0  0  0  0  0  0  0  0  0  0
   38.0600   30.7310   39.7300 O   0  0  0  0  0  0  0  0  0  0  0  0
   39.1140   32.3400   41.0930 C   0  0  1  0  0  0  0  0  0  0  0  0
   37.9410   32.0890   40.0140 C   0  0  1  0  0  0  0  0  0  0  0  0
   38.4560   32.8100   39.0040 O   0  0  0  0  0  0  0  0  0  0  0  0
   39.6990   32.1350   38.8370 C   0  0  0  0  0  0  0  0  0  0  0  0
   40.3190   32.3100   40.2040 C   0  0  1  0  0  0  0  0  0  0  0  0
   39.0460   31.5990   41.8670 H   0  0  0  0  0  0  0  0  0  0  0  0
   37.0880   32.3820   40.6110 H   0  0  0  0  0  0  0  0  0  0  0  0
   40.2460   32.7320   38.0630 H   0  0  0  0  0  0  0  0  0  0  0  0
   39.5160   31.1040   38.5430 H   0  0  0  0  0  0  0  0  0  0  0  0
   40.9710   31.4340   40.4050 H   0  0  0  0  0  0  0  0  0  0  0  0
   38.9220   33.6700   41.4980 O   0  0  0  0  0  0  0  0  0  0  0  0
   39.1420   34.2280   40.7070 H   0  0  0  0  0  0  0  0  0  0  0  0
   41.0190   33.5000   40.2320 O   0  0  0  0  0  0  0  0  0  0  0  0
   42.3620   33.1590   40.4230 C   0  0  0  0  0  3  0  0  0  0  0  0
   42.8740   32.9320   41.8050 C   0  0  0  0  0  2  0  0  0  0  0  0
   43.3030   34.1550   41.0450 C   0  0  0  0  0  2  0  0  0  0  0  0
  1  6  1  6  0  0  0
  1 20  1  0  0  0  0
  1  2  1  0  0  0  0
  2  7  1  6  0  0  0
  2 13  1  0  0  0  0
  2  3  1  0  0  0  0
  4  8  1  0  0  0  0
  4  9  1  0  0  0  0
  4  3  1  0  0  0  0
  5 10  1  6  0  0  0
  5  1  1  0  0  0  0
  5  4  1  0  0  0  0
 11 17  1  0  0  0  0
 12 11  1  0  0  0  0
 12 18  1  0  0  0  0
 13 12  2  0  0  0  0
 14 15  2  0  0  0  0
 14 13  1  0  0  0  0
 15 16  1  0  0  0  0
 16 11  2  0  0  0  0
 19 15  1  0  0  0  0
 20 21  1  0  0  0  0
 22 24  1  0  0  0  0
 22  5  1  0  0  0  0
 23 33  1  0  0  0  0
 23 28  1  1  0  0  0
 24 29  1  1  0  0  0
 24 23  1  0  0  0  0
 25 24  1  0  0  0  0
 26 25  1  0  0  0  0
 26 27  1  0  0  0  0
 27 35  1  0  0  0  0
 27 32  1  1  0  0  0
 27 23  1  0  0  0  0
 30 26  1  0  0  0  0
 31 26  1  0  0  0  0
 34 33  1  0  0  0  0
 35 36  1  0  0  0  0
 36 38  1  0  0  0  0
 36 37  1  0  0  0  0
 38 37  1  0  0  0  0
M  END
>  <minimizedAffinity>
-4.92060804

$$$$
