
     RDKit          3D

 23 24  0  0  0  0  0  0  0  0999 V2000
   45.3112   34.5576   45.0300 C   0  0  0  0  0  0  0  0  0  0  0  0
   45.2624   33.9412   46.2659 C   0  0  0  0  0  0  0  0  0  0  0  0
   46.1645   32.9038   46.4713 C   0  0  0  0  0  0  0  0  0  0  0  0
   47.0006   32.5834   45.4728 N   0  0  0  0  0  0  0  0  0  0  0  0
   47.0220   33.2010   44.2871 C   0  0  0  0  0  0  0  0  0  0  0  0
   46.1598   34.2161   44.0470 N   0  0  0  0  0  0  0  0  0  0  0  0
   43.9627   35.3886   43.2999 C   0  0  0  0  0  0  0  0  0  0  0  0
   44.4095   34.2744   42.8468 O   0  0  0  0  0  0  0  0  0  0  0  0
   44.4583   35.6574   44.6133 N   0  0  0  0  0  0  0  0  0  0  0  0
   44.3031   34.4277   47.1949 N   0  0  0  0  0  0  0  0  0  0  0  0
   46.1139   32.4325   47.4410 H   0  0  0  0  0  0  0  0  0  0  0  0
   47.7508   32.8359   43.5762 H   0  0  0  0  0  0  0  0  0  0  0  0
   44.1994   36.5301   45.1227 H   0  0  0  0  0  0  0  0  0  0  0  0
   44.3597   35.1698   47.9132 H   0  0  0  0  0  0  0  0  0  0  0  0
   43.5487   33.7543   46.8663 H   0  0  0  0  0  0  0  0  0  0  0  0
   43.0445   36.3269   42.6002 C   0  0  0  0  0  0  0  0  0  0  0  0
   43.5918   37.4779   41.8420 C   0  0  0  0  0  0  0  0  0  0  0  0
   43.0335   36.3299   41.0896 C   0  0  0  0  0  0  0  0  0  0  0  0
   42.0938   36.4952   43.1442 H   0  0  0  0  0  0  0  0  0  0  0  0
   44.6563   37.6781   41.7204 H   0  0  0  0  0  0  0  0  0  0  0  0
   42.9900   38.4302   41.8641 H   0  0  0  0  0  0  0  0  0  0  0  0
   43.7140   35.5916   40.6255 H   0  0  0  0  0  0  0  0  0  0  0  0
   42.0316   36.3596   40.6169 H   0  0  0  0  0  0  0  0  0  0  0  0
  1  2  2  0
  2  3  1  0
  2 10  1  0
  4  3  2  0
  5  4  1  0
  6  5  2  0
  6  1  1  0
  7  9  1  0
  8  7  2  0
  9  1  1  0
  3 11  1  0
  5 12  1  0
  9 13  1  0
 10 14  1  0
 10 15  1  0
 16 17  1  0
 17 18  1  0
 18 16  1  0
 16 19  1  0
 17 20  1  0
 17 21  1  0
 18 22  1  0
 18 23  1  0
  7 16  1  0
M  ISO  2  11  14  12  14
M  END
>  <DihAtoms>  (1) 
8,6,15,16

>  <DihDeg>  (1) 
144.60463028043827

$$$$
