
 OpenBabel03252500293D

 22 24  0  0  1  0  0  0  0  0999 V2000
   44.6530   34.1040   42.6340 C   0  0  1  0  0  0  0  0  0  0  0  0
   44.8950   35.5080   42.3980 C   0  0  0  0  0  0  0  0  0  0  0  0
   45.6520   34.5500   41.5660 C   0  0  1  0  0  0  0  0  0  0  0  0
   43.7730   33.5540   42.1920 H   0  0  0  0  0  0  0  0  0  0  0  0
   44.0460   36.0920   41.9650 H   0  0  0  0  0  0  0  0  0  0  0  0
   45.4260   36.1010   43.1690 H   0  0  0  0  0  0  0  0  0  0  0  0
   45.2750   34.4990   40.5030 H   0  0  0  0  0  0  0  0  0  0  0  0
   45.4750   34.1130   45.0050 C   0  0  0  0  0  0  0  0  0  0  0  0
   45.1890   33.3860   43.8080 C   0  0  0  0  0  0  0  0  0  0  0  0
   45.4490   32.0290   43.8080 C   0  0  0  0  0  0  0  0  0  0  0  0
   45.9570   31.4630   44.9280 N   0  0  0  0  0  0  0  0  0  0  0  0
   46.2250   32.1730   46.0630 C   0  0  0  0  0  0  0  0  0  0  0  0
   45.9830   33.5170   46.1090 N   0  0  0  0  0  0  0  0  0  0  0  0
   45.2840   35.1790   45.0460 H   0  0  0  0  0  0  0  0  0  0  0  0
   45.2480   31.4410   42.9220 H   0  0  0  0  0  0  0  0  0  0  0  0
   46.6290   31.5760   46.8780 H   0  0  0  0  0  0  0  0  0  0  0  0
   47.0880   34.2960   41.7460 C   0  0  0  0  0  0  0  0  0  0  0  0
   47.4910   33.7860   40.8100 H   0  0  0  0  0  0  0  0  0  0  0  0
   47.1690   33.4740   42.5340 H   0  0  0  0  0  0  0  0  0  0  0  0
   47.9930   35.3880   42.1570 C   0  0  0  0  0  0  0  0  0  0  0  0
   49.0940   35.9420   41.3760 C   0  0  0  0  0  0  0  0  0  0  0  0
   49.4620   34.8950   42.4000 C   0  0  0  0  0  0  0  0  0  0  0  0
  1  4  1  6  0  0  0
  1  9  1  0  0  0  0
  2  1  1  0  0  0  0
  2  6  1  0  0  0  0
  3  7  1  6  0  0  0
  3 17  1  0  0  0  0
  3  2  1  0  0  0  0
  3  1  1  0  0  0  0
  5  2  1  0  0  0  0
  8 14  1  0  0  0  0
  8 13  1  0  0  0  0
  9  8  2  0  0  0  0
 10  9  1  0  0  0  0
 10 11  2  0  0  0  0
 11 12  1  0  0  0  0
 12 13  2  0  0  0  0
 12 16  1  0  0  0  0
 15 10  1  0  0  0  0
 17 20  1  0  0  0  0
 17 19  1  0  0  0  0
 18 17  1  0  0  0  0
 20 22  1  0  0  0  0
 21 20  1  0  0  0  0
 21 22  1  0  0  0  0
M  END
>  <minimizedAffinity>
-4.13636971

>  <minimizedRMSD>
2.76909733

$$$$
