
 OpenBabel03252503163D

 30 33  0  0  0  0  0  0  0  0999 V2000
   44.7490   35.8620   43.7630 C   0  0  0  0  0  0  0  0  0  0  0  0
   45.2120   34.7140   43.1130 C   0  0  0  0  0  0  0  0  0  0  0  0
   45.4730   33.6380   43.9310 C   0  0  0  0  0  0  0  0  0  0  0  0
   45.2960   33.6840   45.2650 N   0  0  0  0  0  0  0  0  0  0  0  0
   44.8410   34.8270   45.8530 C   0  0  0  0  0  0  0  0  0  0  0  0
   44.5710   35.9100   45.0900 N   0  0  0  0  0  0  0  0  0  0  0  0
   44.5110   36.7690   43.2290 H   0  0  0  0  0  0  0  0  0  0  0  0
   44.7190   34.7970   46.9300 H   0  0  0  0  0  0  0  0  0  0  0  0
   45.9490   32.4350   43.3550 C   0  0  0  0  0  0  0  0  0  0  0  0
   47.1760   31.8820   43.1540 C   0  0  0  0  0  0  0  0  0  0  0  0
   47.3380   30.7090   42.5770 C   0  0  0  0  0  0  0  0  0  0  0  0
   46.2180   30.0640   42.1850 C   0  0  0  0  0  0  0  0  0  0  0  0
   44.8610   31.2030   42.6720 S   0  0  0  0  0  0  0  0  0  0  0  0
   48.0150   32.5110   43.5200 H   0  0  0  0  0  0  0  0  0  0  0  0
   48.2860   30.2180   42.3890 H   0  0  0  0  0  0  0  0  0  0  0  0
   46.1020   29.0480   41.6700 H   0  0  0  0  0  0  0  0  0  0  0  0
   45.3870   34.7090   41.6970 C   0  0  0  0  0  0  0  0  0  0  0  0
   46.5870   34.7670   41.2880 O   0  0  0  0  0  0  0  0  0  0  0  0
   44.1810   34.6390   40.7920 C   0  0  0  0  0  0  0  0  0  0  0  0
   43.0470   35.4230   40.8830 C   0  0  0  0  0  0  0  0  0  0  0  0
   42.2620   35.0020   39.8780 N   0  0  0  0  0  0  0  0  0  0  0  0
   42.8750   34.0130   39.2020 C   0  0  0  0  0  0  0  0  0  0  0  0
   44.0860   33.7760   39.7690 N   0  0  0  0  0  0  0  0  0  0  0  0
   42.4720   33.2400   38.0700 N   0  0  0  0  0  0  0  0  0  0  0  0
   42.8650   36.1820   41.5990 H   0  0  0  0  0  0  0  0  0  0  0  0
   41.6310   32.6280   37.9850 H   0  0  0  0  0  0  0  0  0  0  0  0
   43.0460   33.2490   37.1970 H   0  0  0  0  0  0  0  0  0  0  0  0
   40.9450   35.5010   39.5280 C   0  0  0  0  0  0  0  0  0  0  0  0
   40.1890   36.3070   40.5430 C   0  0  0  0  0  0  0  0  0  0  0  0
   39.7270   34.9380   40.2240 C   0  0  0  0  0  0  0  0  0  0  0  0
  1  6  1  0  0  0  0
  2  1  2  0  0  0  0
  2  3  1  0  0  0  0
  3  4  2  0  0  0  0
  4  5  1  0  0  0  0
  5  8  1  0  0  0  0
  6  5  2  0  0  0  0
  7  1  1  0  0  0  0
  9  3  1  0  0  0  0
 10  9  2  0  0  0  0
 10 14  1  0  0  0  0
 11 10  1  0  0  0  0
 12 11  2  0  0  0  0
 12 13  1  0  0  0  0
 13  9  1  0  0  0  0
 15 11  1  0  0  0  0
 16 12  1  0  0  0  0
 17  2  1  0  0  0  0
 18 17  2  0  0  0  0
 19 20  2  0  0  0  0
 19 17  1  0  0  0  0
 20 25  1  0  0  0  0
 21 20  1  0  0  0  0
 22 23  2  0  0  0  0
 22 21  1  0  0  0  0
 23 19  1  0  0  0  0
 24 22  1  0  0  0  0
 26 24  1  0  0  0  0
 27 24  1  0  0  0  0
 28 21  1  0  0  0  0
 28 30  1  0  0  0  0
 28 29  1  0  0  0  0
 30 29  1  0  0  0  0
M  END
>  <minimizedAffinity>
-5.40840054

>  <minimizedRMSD>
1.84505773

$$$$
