
 OpenBabel03252508503D

 22 24  0  0  0  0  0  0  0  0999 V2000
   45.6850   34.1990   41.1030 C   0  0  0  0  0  0  0  0  0  0  0  0
   46.3400   34.7860   42.1810 C   0  0  0  0  0  0  0  0  0  0  0  0
   47.7070   35.0710   42.0250 C   0  0  0  0  0  0  0  0  0  0  0  0
   48.2990   34.7570   40.8350 N   0  0  0  0  0  0  0  0  0  0  0  0
   47.6130   34.1900   39.8250 C   0  0  0  0  0  0  0  0  0  0  0  0
   46.3000   33.9020   39.9400 N   0  0  0  0  0  0  0  0  0  0  0  0
   48.2320   35.5280   42.8550 H   0  0  0  0  0  0  0  0  0  0  0  0
   48.1350   33.9600   38.8950 H   0  0  0  0  0  0  0  0  0  0  0  0
   45.6170   35.0800   43.4060 C   0  0  0  0  0  0  0  0  0  0  0  0
   45.0500   36.3110   43.6680 C   0  0  0  0  0  0  0  0  0  0  0  0
   44.4790   36.1490   44.9110 C   0  0  0  0  0  0  0  0  0  0  0  0
   44.6840   34.8990   45.3790 N   0  0  0  0  0  0  0  0  0  0  0  0
   45.3730   34.2740   44.4530 N   0  0  0  0  0  0  0  0  0  0  0  0
   45.0540   37.1980   43.0400 H   0  0  0  0  0  0  0  0  0  0  0  0
   43.9340   36.9490   45.4300 H   0  0  0  0  0  0  0  0  0  0  0  0
   44.3550   34.5060   46.3050 H   0  0  0  0  0  0  0  0  0  0  0  0
   44.3330   33.9130   41.2450 O   0  0  0  0  0  0  0  0  0  0  0  0
   43.2950   34.6950   40.8160 C   0  0  0  0  0  0  0  0  0  0  0  0
   42.5180   35.4290   41.5060 O   0  0  0  0  0  0  0  0  0  0  0  0
   42.6630   35.0130   39.4790 C   0  0  0  0  0  3  0  0  0  0  0  0
   42.1840   33.8740   38.6200 C   0  0  0  0  0  2  0  0  0  0  0  0
   41.2280   34.8190   39.2770 C   0  0  0  0  0  2  0  0  0  0  0  0
  1 17  1  0  0  0  0
  1  2  1  0  0  0  0
  2  9  1  0  0  0  0
  3  2  2  0  0  0  0
  3  7  1  0  0  0  0
  4  3  1  0  0  0  0
  5  6  1  0  0  0  0
  5  4  2  0  0  0  0
  6  1  2  0  0  0  0
  8  5  1  0  0  0  0
  9 10  1  0  0  0  0
  9 13  2  0  0  0  0
 10 11  2  0  0  0  0
 11 12  1  0  0  0  0
 11 15  1  0  0  0  0
 12 16  1  0  0  0  0
 13 12  1  0  0  0  0
 14 10  1  0  0  0  0
 18 17  1  0  0  0  0
 18 19  2  0  0  0  0
 20 18  1  0  0  0  0
 21 22  1  0  0  0  0
 21 20  1  0  0  0  0
 22 20  1  0  0  0  0
M  END
>  <minimizedAffinity>
-4.77223969

>  <minimizedRMSD>
0.916624546

$$$$
