
 OpenBabel03252508273D

 19 21  0  0  0  0  0  0  0  0999 V2000
   44.3490   34.4410   41.0670 C   0  0  0  0  0  0  0  0  0  0  0  0
   43.4960   33.4980   41.5730 C   0  0  0  0  0  0  0  0  0  0  0  0
   42.2010   33.7520   41.1880 C   0  0  0  0  0  0  0  0  0  0  0  0
   42.2820   34.8650   40.4400 N   0  0  0  0  0  0  0  0  0  0  0  0
   43.5440   35.2840   40.3590 N   0  0  0  0  0  0  0  0  0  0  0  0
   43.7470   32.6340   42.2030 H   0  0  0  0  0  0  0  0  0  0  0  0
   41.2860   33.1910   41.4220 H   0  0  0  0  0  0  0  0  0  0  0  0
   47.7970   35.0290   42.4450 C   0  0  0  0  0  0  0  0  0  0  0  0
   46.3750   35.0140   42.4030 C   0  0  0  0  0  0  0  0  0  0  0  0
   45.7930   34.5150   41.2490 C   0  0  0  0  0  0  0  0  0  0  0  0
   46.5880   34.0720   40.2350 N   0  0  0  0  0  0  0  0  0  0  0  0
   47.9330   34.0950   40.2990 C   0  0  0  0  0  0  0  0  0  0  0  0
   48.5230   34.5760   41.4100 N   0  0  0  0  0  0  0  0  0  0  0  0
   48.1510   35.4360   43.3830 H   0  0  0  0  0  0  0  0  0  0  0  0
   45.7240   35.3500   43.1710 H   0  0  0  0  0  0  0  0  0  0  0  0
   48.5600   33.7410   39.4930 H   0  0  0  0  0  0  0  0  0  0  0  0
   41.1130   35.4980   39.8170 C   0  0  0  0  0  0  0  0  0  0  0  0
   39.7580   35.0110   40.1900 C   0  0  0  0  0  0  0  0  0  0  0  0
   40.2400   36.3630   40.7040 C   0  0  0  0  0  0  0  0  0  0  0  0
  1 10  1  0  0  0  0
  1  2  1  0  0  0  0
  2  6  1  0  0  0  0
  3  7  1  0  0  0  0
  3  2  2  0  0  0  0
  4  3  1  0  0  0  0
  5  4  1  0  0  0  0
  5  1  2  0  0  0  0
  8 14  1  0  0  0  0
  9  8  1  0  0  0  0
  9 15  1  0  0  0  0
 10  9  2  0  0  0  0
 11 12  2  0  0  0  0
 11 10  1  0  0  0  0
 12 13  1  0  0  0  0
 13  8  2  0  0  0  0
 16 12  1  0  0  0  0
 17 18  1  0  0  0  0
 17  4  1  0  0  0  0
 17 19  1  0  0  0  0
 18 19  1  0  0  0  0
M  END
>  <minimizedAffinity>
-4.18603849

>  <minimizedRMSD>
6.06567669

$$$$
