
 OpenBabel03242510223D

 32 35  0  0  1  0  0  0  0  0999 V2000
   46.3150   32.1630   44.5980 C   0  0  1  0  0  0  0  0  0  0  0  0
   46.4550   31.3740   43.4480 C   0  0  0  0  0  0  0  0  0  0  0  0
   47.6780   32.1550   44.0240 C   0  0  1  0  0  0  0  0  0  0  0  0
   46.1510   31.7390   45.6120 H   0  0  0  0  0  0  0  0  0  0  0  0
   46.1880   31.5910   42.3970 H   0  0  0  0  0  0  0  0  0  0  0  0
   46.5420   30.2520   43.5820 H   0  0  0  0  0  0  0  0  0  0  0  0
   48.4430   31.4750   44.4240 H   0  0  0  0  0  0  0  0  0  0  0  0
   45.0520   33.9710   43.2030 C   0  0  0  0  0  0  0  0  0  0  0  0
   45.5400   33.4880   44.4600 C   0  0  0  0  0  0  0  0  0  0  0  0
   45.3170   34.2710   45.5740 C   0  0  0  0  0  0  0  0  0  0  0  0
   44.6590   35.4400   45.4330 N   0  0  0  0  0  0  0  0  0  0  0  0
   44.2020   35.8870   44.2300 C   0  0  0  0  0  0  0  0  0  0  0  0
   44.4110   35.1170   43.0840 N   0  0  0  0  0  0  0  0  0  0  0  0
   45.2150   33.3390   42.3510 H   0  0  0  0  0  0  0  0  0  0  0  0
   45.6570   33.9680   46.5560 H   0  0  0  0  0  0  0  0  0  0  0  0
   43.6760   36.8240   44.1240 H   0  0  0  0  0  0  0  0  0  0  0  0
   48.0390   33.2660   43.2190 N   0  0  0  0  0  0  0  0  0  0  0  0
   49.2210   33.3240   42.4880 C   0  0  0  0  0  0  0  0  0  0  0  0
   50.3910   32.9760   42.7850 O   0  0  0  0  0  0  0  0  0  0  0  0
   47.4690   34.1330   43.0980 H   0  0  0  0  0  0  0  0  0  0  0  0
   49.1850   33.8880   41.0750 C   0  0  2  0  0  0  0  0  0  0  0  0
   48.6920   35.3740   40.9330 C   0  0  0  0  0  0  0  0  0  0  0  0
   47.9220   34.1950   40.4080 C   0  0  1  0  0  0  0  0  0  0  0  0
   50.0970   33.7560   40.4580 H   0  0  0  0  0  0  0  0  0  0  0  0
   48.3340   35.8150   41.8890 H   0  0  0  0  0  0  0  0  0  0  0  0
   49.1590   36.0010   40.1810 H   0  0  0  0  0  0  0  0  0  0  0  0
   47.0420   33.7550   40.9330 H   0  0  0  0  0  0  0  0  0  0  0  0
   47.8610   34.0350   38.9100 C   0  0  0  0  0  0  0  0  0  0  0  0
   48.4470   34.8150   38.1710 O   0  0  0  0  0  0  0  0  0  0  0  0
   47.0750   32.9130   38.3020 C   0  0  0  0  0  3  0  0  0  0  0  0
   46.3920   31.9180   39.1520 C   0  0  0  0  0  2  0  0  0  0  0  0
   45.5800   33.0230   38.5220 C   0  0  0  0  0  2  0  0  0  0  0  0
  1  4  1  1  0  0  0
  2  6  1  0  0  0  0
  2  3  1  0  0  0  0
  2  1  1  0  0  0  0
  3  7  1  1  0  0  0
  3  1  1  0  0  0  0
  5  2  1  0  0  0  0
  8  9  1  0  0  0  0
  9  1  1  0  0  0  0
  9 10  2  0  0  0  0
 10 15  1  0  0  0  0
 11 10  1  0  0  0  0
 12 11  2  0  0  0  0
 13  8  2  0  0  0  0
 13 12  1  0  0  0  0
 14  8  1  0  0  0  0
 16 12  1  0  0  0  0
 17  3  1  0  0  0  0
 18 19  2  0  0  0  0
 18 17  1  0  0  0  0
 20 17  1  0  0  0  0
 21 24  1  6  0  0  0
 21 18  1  0  0  0  0
 22 21  1  0  0  0  0
 22 25  1  0  0  0  0
 23 22  1  0  0  0  0
 23 27  1  1  0  0  0
 23 21  1  0  0  0  0
 26 22  1  0  0  0  0
 28 23  1  0  0  0  0
 29 28  2  0  0  0  0
 30 32  1  0  0  0  0
 30 28  1  0  0  0  0
 30 31  1  0  0  0  0
 32 31  1  0  0  0  0
M  END
>  <minimizedAffinity>
-4.39614439

>  <minimizedRMSD>
0.252825111

$$$$
