
 OpenBabel03242510223D

 32 35  0  0  1  0  0  0  0  0999 V2000
   46.3150   32.1610   44.5980 C   0  0  1  0  0  0  0  0  0  0  0  0
   46.4570   31.3710   43.4490 C   0  0  0  0  0  0  0  0  0  0  0  0
   47.6790   32.1540   44.0260 C   0  0  1  0  0  0  0  0  0  0  0  0
   46.1510   31.7380   45.6120 H   0  0  0  0  0  0  0  0  0  0  0  0
   46.1910   31.5880   42.3970 H   0  0  0  0  0  0  0  0  0  0  0  0
   46.5440   30.2500   43.5830 H   0  0  0  0  0  0  0  0  0  0  0  0
   48.4440   31.4740   44.4270 H   0  0  0  0  0  0  0  0  0  0  0  0
   45.0500   33.9660   43.2020 C   0  0  0  0  0  0  0  0  0  0  0  0
   45.5410   33.4850   44.4590 C   0  0  0  0  0  0  0  0  0  0  0  0
   45.3190   34.2710   45.5720 C   0  0  0  0  0  0  0  0  0  0  0  0
   44.6610   35.4390   45.4300 N   0  0  0  0  0  0  0  0  0  0  0  0
   44.2010   35.8840   44.2280 C   0  0  0  0  0  0  0  0  0  0  0  0
   44.4090   35.1120   43.0820 N   0  0  0  0  0  0  0  0  0  0  0  0
   45.2120   33.3340   42.3510 H   0  0  0  0  0  0  0  0  0  0  0  0
   45.6610   33.9690   46.5540 H   0  0  0  0  0  0  0  0  0  0  0  0
   43.6750   36.8210   44.1210 H   0  0  0  0  0  0  0  0  0  0  0  0
   48.0400   33.2650   43.2210 N   0  0  0  0  0  0  0  0  0  0  0  0
   49.2210   33.3220   42.4890 C   0  0  0  0  0  0  0  0  0  0  0  0
   50.3910   32.9710   42.7840 O   0  0  0  0  0  0  0  0  0  0  0  0
   47.4720   34.1330   43.1010 H   0  0  0  0  0  0  0  0  0  0  0  0
   49.1850   33.8860   41.0760 C   0  0  2  0  0  0  0  0  0  0  0  0
   48.6910   35.3720   40.9340 C   0  0  0  0  0  0  0  0  0  0  0  0
   47.9210   34.1930   40.4090 C   0  0  1  0  0  0  0  0  0  0  0  0
   50.0960   33.7550   40.4590 H   0  0  0  0  0  0  0  0  0  0  0  0
   48.3330   35.8120   41.8910 H   0  0  0  0  0  0  0  0  0  0  0  0
   49.1570   36.0000   40.1830 H   0  0  0  0  0  0  0  0  0  0  0  0
   47.0410   33.7520   40.9350 H   0  0  0  0  0  0  0  0  0  0  0  0
   47.8590   34.0330   38.9110 C   0  0  0  0  0  0  0  0  0  0  0  0
   48.4450   34.8140   38.1730 O   0  0  0  0  0  0  0  0  0  0  0  0
   47.0740   32.9110   38.3030 C   0  0  0  0  0  3  0  0  0  0  0  0
   46.3830   31.9210   39.1530 C   0  0  0  0  0  2  0  0  0  0  0  0
   45.5780   33.0260   38.5140 C   0  0  0  0  0  2  0  0  0  0  0  0
  1  4  1  1  0  0  0
  2  6  1  0  0  0  0
  2  3  1  0  0  0  0
  2  1  1  0  0  0  0
  3  7  1  1  0  0  0
  3  1  1  0  0  0  0
  5  2  1  0  0  0  0
  8  9  1  0  0  0  0
  9  1  1  0  0  0  0
  9 10  2  0  0  0  0
 10 15  1  0  0  0  0
 11 10  1  0  0  0  0
 12 11  2  0  0  0  0
 13  8  2  0  0  0  0
 13 12  1  0  0  0  0
 14  8  1  0  0  0  0
 16 12  1  0  0  0  0
 17  3  1  0  0  0  0
 18 19  2  0  0  0  0
 18 17  1  0  0  0  0
 20 17  1  0  0  0  0
 21 24  1  6  0  0  0
 21 18  1  0  0  0  0
 22 21  1  0  0  0  0
 22 25  1  0  0  0  0
 23 22  1  0  0  0  0
 23 27  1  1  0  0  0
 23 21  1  0  0  0  0
 26 22  1  0  0  0  0
 28 23  1  0  0  0  0
 29 28  2  0  0  0  0
 30 32  1  0  0  0  0
 30 28  1  0  0  0  0
 30 31  1  0  0  0  0
 32 31  1  0  0  0  0
M  END
>  <minimizedAffinity>
-4.39501524

>  <minimizedRMSD>
0.208543792

$$$$
