REMARK  Name = 
REMARK  3 active torsions:
REMARK  status: ('A' for Active; 'I' for Inactive)
REMARK    1  A    between atoms: N_1  and  C_8
REMARK    2  A    between atoms: C_2  and  C_13
REMARK    3  A    between atoms: C_13  and  C_27
REMARK                            x       y       z     vdW  Elec       q    Type
REMARK                         _______ _______ _______ _____ _____    ______ ____
ROOT
ATOM      1  N   UNL     1      45.611  34.406  41.853  0.00  0.00    +0.000 N 
ATOM      2  C   UNL     1      46.954  34.124  41.406  0.00  0.00    +0.000 C 
ATOM      3  C   UNL     1      47.095  34.023  39.935  0.00  0.00    +0.000 C 
ATOM      4  N   UNL     1      46.048  33.385  39.249  0.00  0.00    +0.000 NA
ATOM      5  C   UNL     1      44.753  33.477  39.776  0.00  0.00    +0.000 C 
ATOM      6  C   UNL     1      44.656  34.593  40.800  0.00  0.00    +0.000 C 
ATOM      7  H   UNL     1      47.247  33.151  41.849  0.00  0.00    +0.000 HD
ATOM      8  H   UNL     1      48.064  33.512  39.704  0.00  0.00    +0.000 HD
ATOM      9  H   UNL     1      47.203  35.057  39.526  0.00  0.00    +0.000 HD
ATOM     10  H   UNL     1      46.321  32.440  38.895  0.00  0.00    +0.000 HD
ATOM     11  H   UNL     1      44.522  32.535  40.337  0.00  0.00    +0.000 HD
ATOM     12  H   UNL     1      43.939  33.608  39.026  0.00  0.00    +0.000 HD
ATOM     13  H   UNL     1      44.758  35.551  40.251  0.00  0.00    +0.000 HD
ATOM     14  H   UNL     1      43.650  34.522  41.266  0.00  0.00    +0.000 HD
ENDROOT
BRANCH   1  16
ATOM     15  C   UNL     1      44.721  35.608  43.693  0.00  0.00    +0.000 A 
ATOM     16  C   UNL     1      45.388  34.465  43.236  0.00  0.00    +0.000 A 
ATOM     17  C   UNL     1      45.763  33.509  44.178  0.00  0.00    +0.000 A 
ATOM     18  N   UNL     1      45.474  33.712  45.490  0.00  0.00    +0.000 NA
ATOM     19  C   UNL     1      44.830  34.825  45.895  0.00  0.00    +0.000 A 
ATOM     20  N   UNL     1      44.459  35.755  45.023  0.00  0.00    +0.000 NA
ATOM     21  H   UNL     1      44.398  36.400  43.003  0.00  0.00    +0.000 HD
ATOM     22  H   UNL     1      46.267  32.654  43.803  0.00  0.00    +0.000 HD
ATOM     23  H   UNL     1      44.568  35.052  46.917  0.00  0.00    +0.000 HD
ENDBRANCH   1  16
BRANCH   2  24
ATOM     24  C   UNL     1      47.852  35.246  41.877  0.00  0.00    +0.000 C 
ATOM     25  H   UNL     1      47.821  35.212  43.001  0.00  0.00    +0.000 HD
ATOM     26  H   UNL     1      47.473  36.198  41.492  0.00  0.00    +0.000 HD
BRANCH  24  27
ATOM     27  C   UNL     1      49.286  35.078  41.478  0.00  0.00    +0.000 C 
ATOM     28  C   UNL     1      49.621  33.653  41.001  0.00  0.00    +0.000 C 
ATOM     29  C   UNL     1      49.690  34.836  40.079  0.00  0.00    +0.000 C 
ENDBRANCH  24  27
ENDBRANCH   2  24
TORSDOF 3
