
 OpenBabel03252509003D

 39 41  0  0  1  0  0  0  0  0999 V2000
   46.5870   34.5580   43.5600 N   0  0  0  0  0  0  0  0  0  0  0  0
   46.1090   35.3570   42.4860 C   0  0  0  0  0  0  0  0  0  0  0  0
   44.6050   35.4390   42.3680 C   0  0  0  0  0  0  0  0  0  0  0  0
   43.8750   35.3930   43.6830 C   0  0  0  0  0  0  0  0  0  0  0  0
   44.8280   35.3600   44.8520 C   0  0  0  0  0  0  0  0  0  0  0  0
   45.7250   34.1070   44.5480 C   0  0  2  0  0  0  0  0  0  0  0  0
   46.4450   36.4040   42.6800 H   0  0  0  0  0  0  0  0  0  0  0  0
   46.4970   35.1100   41.4970 H   0  0  0  0  0  0  0  0  0  0  0  0
   44.2870   34.6270   41.6780 H   0  0  0  0  0  0  0  0  0  0  0  0
   44.3540   36.3830   41.8340 H   0  0  0  0  0  0  0  0  0  0  0  0
   43.2540   34.4830   43.6870 H   0  0  0  0  0  0  0  0  0  0  0  0
   43.2390   36.3050   43.8050 H   0  0  0  0  0  0  0  0  0  0  0  0
   45.4890   36.2260   44.8720 H   0  0  0  0  0  0  0  0  0  0  0  0
   44.2440   35.1810   45.7570 H   0  0  0  0  0  0  0  0  0  0  0  0
   45.0220   33.2890   44.3140 H   0  0  0  0  0  0  0  0  0  0  0  0
   47.7380   33.7670   43.2360 C   0  0  0  0  0  0  0  0  0  0  0  0
   48.4500   34.3990   42.6790 H   0  0  0  0  0  0  0  0  0  0  0  0
   48.1990   33.4400   44.1980 H   0  0  0  0  0  0  0  0  0  0  0  0
   47.3020   32.5490   42.4940 C   0  0  0  0  0  0  0  0  0  0  0  0
   47.4410   31.5990   43.0230 H   0  0  0  0  0  0  0  0  0  0  0  0
   46.2120   32.6070   42.2580 H   0  0  0  0  0  0  0  0  0  0  0  0
   49.8280   31.7680   39.8200 C   0  0  0  0  0  0  0  0  0  0  0  0
   49.1690   31.8120   41.0630 C   0  0  0  0  0  0  0  0  0  0  0  0
   47.9870   32.5120   41.1740 C   0  0  0  0  0  0  0  0  0  0  0  0
   47.5210   33.1230   40.0790 N   0  0  0  0  0  0  0  0  0  0  0  0
   48.1610   33.0750   38.8940 C   0  0  0  0  0  0  0  0  0  0  0  0
   49.3150   32.4000   38.7540 N   0  0  0  0  0  0  0  0  0  0  0  0
   50.7560   31.2190   39.7310 H   0  0  0  0  0  0  0  0  0  0  0  0
   49.6110   31.2900   41.9050 H   0  0  0  0  0  0  0  0  0  0  0  0
   47.7700   33.5740   38.0200 H   0  0  0  0  0  0  0  0  0  0  0  0
   46.3890   33.9410   45.7630 O   0  0  0  0  0  0  0  0  0  0  0  0
   45.7440   31.4010   45.3280 O   0  0  0  0  0  0  0  0  0  0  0  0
   46.2070   32.3960   46.3970 P   0  0  2  0  0  0  0  0  0  0  0  0
   44.9030   32.4870   47.5000 O   0  0  0  0  0  0  0  0  0  0  0  0
   45.0250   33.2540   48.1070 H   0  0  0  0  0  0  0  0  0  0  0  0
   47.5550   31.8790   47.2170 O   0  0  0  0  0  0  0  0  0  0  0  0
   47.3820   30.7990   48.0430 C   0  0  0  0  0  3  0  0  0  0  0  0
   48.3750   29.7060   48.1410 C   0  0  0  0  0  2  0  0  0  0  0  0
   48.3750   30.7460   49.2100 C   0  0  0  0  0  2  0  0  0  0  0  0
  1  6  1  0  0  0  0
  2  7  1  0  0  0  0
  2  1  1  0  0  0  0
  3  2  1  0  0  0  0
  3  4  1  0  0  0  0
  4 11  1  0  0  0  0
  4 12  1  0  0  0  0
  4  5  1  0  0  0  0
  5 13  1  0  0  0  0
  5 14  1  0  0  0  0
  6 15  1  6  0  0  0
  6  5  1  0  0  0  0
  6 31  1  0  0  0  0
  8  2  1  0  0  0  0
  9  3  1  0  0  0  0
 10  3  1  0  0  0  0
 16  1  1  0  0  0  0
 16 18  1  0  0  0  0
 17 16  1  0  0  0  0
 19 20  1  0  0  0  0
 19 16  1  0  0  0  0
 21 19  1  0  0  0  0
 22 23  1  0  0  0  0
 23 24  2  0  0  0  0
 23 29  1  0  0  0  0
 24 19  1  0  0  0  0
 25 24  1  0  0  0  0
 26 25  2  0  0  0  0
 27 26  1  0  0  0  0
 27 22  2  0  0  0  0
 28 22  1  0  0  0  0
 30 26  1  0  0  0  0
 31 33  1  0  0  0  0
 33 32  2  6  0  0  0
 33 36  1  0  0  0  0
 33 34  1  0  0  0  0
 34 35  1  0  0  0  0
 36 37  1  0  0  0  0
 37 38  1  0  0  0  0
 37 39  1  0  0  0  0
 38 39  1  0  0  0  0
M  END
>  <minimizedAffinity>
-4.30849075

>  <minimizedRMSD>
1.70853496

$$$$
