
 OpenBabel03252504373D

 17 18  0  0  0  0  0  0  0  0999 V2000
   38.6330   31.6430   41.0240 C   0  0  0  0  0  0  0  0  0  0  0  0
   37.6220   32.4400   40.4050 C   0  0  0  0  0  0  0  0  0  0  0  0
   38.0100   33.6690   39.8660 C   0  0  0  0  0  0  0  0  0  0  0  0
   39.3200   34.0440   39.9560 N   0  0  0  0  0  0  0  0  0  0  0  0
   40.2430   33.2570   40.5510 C   0  0  0  0  0  0  0  0  0  0  0  0
   39.8860   32.0670   41.0780 N   0  0  0  0  0  0  0  0  0  0  0  0
   36.6120   32.1070   40.3580 H   0  0  0  0  0  0  0  0  0  0  0  0
   37.2560   34.2890   39.3910 H   0  0  0  0  0  0  0  0  0  0  0  0
   41.2480   33.6560   40.5650 H   0  0  0  0  0  0  0  0  0  0  0  0
   38.2100   30.3640   41.5820 C   0  0  0  0  0  3  0  0  0  0  0  0
   38.8860   29.8540   42.6030 C   0  0  0  0  0  3  0  0  0  0  0  0
   38.4920   28.5510   43.2080 C   0  0  0  0  0  0  0  0  0  0  0  0
   38.4620   28.6170   44.3190 H   0  0  0  0  0  0  0  0  0  0  0  0
   39.3160   27.8520   42.9690 H   0  0  0  0  0  0  0  0  0  0  0  0
   37.2050   28.0250   42.6750 C   0  0  0  0  0  3  0  0  0  0  0  0
   37.0730   26.5210   42.5870 C   0  0  0  0  0  2  0  0  0  0  0  0
   36.3520   27.2590   43.6710 C   0  0  0  0  0  2  0  0  0  0  0  0
  1  6  1  0  0  0  0
  1 10  1  0  0  0  0
  2  1  2  0  0  0  0
  3  4  2  0  0  0  0
  3  2  1  0  0  0  0
  4  5  1  0  0  0  0
  5  9  1  0  0  0  0
  5  6  2  0  0  0  0
  7  2  1  0  0  0  0
  8  3  1  0  0  0  0
 10 11  2  0  0  0  0
 11 12  1  0  0  0  0
 12 13  1  0  0  0  0
 14 12  1  0  0  0  0
 15 12  1  0  0  0  0
 15 17  1  0  0  0  0
 16 15  1  0  0  0  0
 16 17  1  0  0  0  0
M  END
>  <minimizedAffinity>
-3.9024682

$$$$

 OpenBabel03252504373D

 17 18  0  0  0  0  0  0  0  0999 V2000
   38.3080   31.6520   40.7960 C   0  0  0  0  0  0  0  0  0  0  0  0
   37.3070   32.4350   40.1460 C   0  0  0  0  0  0  0  0  0  0  0  0
   37.6620   33.7220   39.7310 C   0  0  0  0  0  0  0  0  0  0  0  0
   38.9340   34.1610   39.9650 N   0  0  0  0  0  0  0  0  0  0  0  0
   39.8490   33.3850   40.5840 C   0  0  0  0  0  0  0  0  0  0  0  0
   39.5240   32.1400   40.9920 N   0  0  0  0  0  0  0  0  0  0  0  0
   36.3280   32.0510   39.9840 H   0  0  0  0  0  0  0  0  0  0  0  0
   36.9150   34.3330   39.2350 H   0  0  0  0  0  0  0  0  0  0  0  0
   40.8230   33.8360   40.7170 H   0  0  0  0  0  0  0  0  0  0  0  0
   37.9200   30.3130   41.2220 C   0  0  0  0  0  3  0  0  0  0  0  0
   36.6750   29.9080   41.0100 C   0  0  0  0  0  3  0  0  0  0  0  0
   36.2310   28.5480   41.4250 C   0  0  0  0  0  0  0  0  0  0  0  0
   36.0950   27.8830   40.5430 H   0  0  0  0  0  0  0  0  0  0  0  0
   35.2220   28.6860   41.8590 H   0  0  0  0  0  0  0  0  0  0  0  0
   37.1360   27.9180   42.4270 C   0  0  0  0  0  3  0  0  0  0  0  0
   36.4770   27.3030   43.6410 C   0  0  0  0  0  2  0  0  0  0  0  0
   37.0080   26.4110   42.5630 C   0  0  0  0  0  2  0  0  0  0  0  0
  1  6  1  0  0  0  0
  1 10  1  0  0  0  0
  2  1  2  0  0  0  0
  3  4  2  0  0  0  0
  3  2  1  0  0  0  0
  4  5  1  0  0  0  0
  5  9  1  0  0  0  0
  5  6  2  0  0  0  0
  7  2  1  0  0  0  0
  8  3  1  0  0  0  0
 11 10  2  0  0  0  0
 11 12  1  0  0  0  0
 12 14  1  0  0  0  0
 12 15  1  0  0  0  0
 13 12  1  0  0  0  0
 15 17  1  0  0  0  0
 15 16  1  0  0  0  0
 17 16  1  0  0  0  0
M  END
>  <minimizedAffinity>
-3.85147452

$$$$

 OpenBabel03252504373D

 17 18  0  0  0  0  0  0  0  0999 V2000
   37.6170   26.5790   42.5010 C   0  0  0  0  0  0  0  0  0  0  0  0
   37.1670   25.3150   42.0120 C   0  0  0  0  0  0  0  0  0  0  0  0
   38.0020   24.2120   42.2120 C   0  0  0  0  0  0  0  0  0  0  0  0
   39.1910   24.3940   42.8580 N   0  0  0  0  0  0  0  0  0  0  0  0
   39.5760   25.6090   43.3040 C   0  0  0  0  0  0  0  0  0  0  0  0
   38.7840   26.6860   43.1190 N   0  0  0  0  0  0  0  0  0  0  0  0
   36.2310   25.2190   41.5140 H   0  0  0  0  0  0  0  0  0  0  0  0
   37.6770   23.2420   41.8480 H   0  0  0  0  0  0  0  0  0  0  0  0
   40.5370   25.6350   43.8000 H   0  0  0  0  0  0  0  0  0  0  0  0
   36.7340   27.7190   42.2830 C   0  0  0  0  0  3  0  0  0  0  0  0
   36.5910   28.1930   41.0530 C   0  0  0  0  0  3  0  0  0  0  0  0
   35.6990   29.3550   40.7790 C   0  0  0  0  0  0  0  0  0  0  0  0
   34.7260   29.2480   41.3080 H   0  0  0  0  0  0  0  0  0  0  0  0
   35.4650   29.3000   39.6990 H   0  0  0  0  0  0  0  0  0  0  0  0
   36.3320   30.6650   41.0990 C   0  0  0  0  0  3  0  0  0  0  0  0
   37.7790   30.8340   40.6940 C   0  0  0  0  0  2  0  0  0  0  0  0
   36.7100   31.5150   39.8990 C   0  0  0  0  0  2  0  0  0  0  0  0
  1  6  1  0  0  0  0
  2  3  1  0  0  0  0
  2  1  2  0  0  0  0
  3  4  2  0  0  0  0
  4  5  1  0  0  0  0
  5  9  1  0  0  0  0
  6  5  2  0  0  0  0
  7  2  1  0  0  0  0
  8  3  1  0  0  0  0
 10  1  1  0  0  0  0
 11 10  2  0  0  0  0
 12 11  1  0  0  0  0
 12 15  1  0  0  0  0
 12 13  1  0  0  0  0
 14 12  1  0  0  0  0
 16 15  1  0  0  0  0
 17 16  1  0  0  0  0
 17 15  1  0  0  0  0
M  END
>  <minimizedAffinity>
-3.82325816

$$$$

 OpenBabel03252504373D

 17 18  0  0  0  0  0  0  0  0999 V2000
   37.0680   23.9160   41.1220 C   0  0  0  0  0  0  0  0  0  0  0  0
   36.0000   23.7030   40.1980 C   0  0  0  0  0  0  0  0  0  0  0  0
   36.2230   22.8050   39.1510 C   0  0  0  0  0  0  0  0  0  0  0  0
   37.4350   22.1820   39.0640 N   0  0  0  0  0  0  0  0  0  0  0  0
   38.4170   22.4140   39.9620 C   0  0  0  0  0  0  0  0  0  0  0  0
   38.2200   23.2780   40.9790 N   0  0  0  0  0  0  0  0  0  0  0  0
   35.0710   24.2110   40.3060 H   0  0  0  0  0  0  0  0  0  0  0  0
   35.4230   22.6300   38.4380 H   0  0  0  0  0  0  0  0  0  0  0  0
   39.3340   21.8660   39.7930 H   0  0  0  0  0  0  0  0  0  0  0  0
   36.8190   24.8560   42.2080 C   0  0  0  0  0  3  0  0  0  0  0  0
   37.0190   26.1500   41.9950 C   0  0  0  0  0  3  0  0  0  0  0  0
   36.7760   27.1500   43.0730 C   0  0  0  0  0  0  0  0  0  0  0  0
   36.1560   26.7180   43.8900 H   0  0  0  0  0  0  0  0  0  0  0  0
   36.1570   27.9410   42.6090 H   0  0  0  0  0  0  0  0  0  0  0  0
   38.0320   27.7370   43.6180 C   0  0  0  0  0  3  0  0  0  0  0  0
   39.1140   28.0690   42.6150 C   0  0  0  0  0  2  0  0  0  0  0  0
   38.3060   29.1760   43.2150 C   0  0  0  0  0  2  0  0  0  0  0  0
  1 10  1  0  0  0  0
  2  7  1  0  0  0  0
  2  1  2  0  0  0  0
  3  2  1  0  0  0  0
  4  3  2  0  0  0  0
  4  5  1  0  0  0  0
  5  6  2  0  0  0  0
  6  1  1  0  0  0  0
  8  3  1  0  0  0  0
  9  5  1  0  0  0  0
 11 10  2  0  0  0  0
 11 12  1  0  0  0  0
 12 15  1  0  0  0  0
 12 13  1  0  0  0  0
 14 12  1  0  0  0  0
 16 17  1  0  0  0  0
 16 15  1  0  0  0  0
 17 15  1  0  0  0  0
M  END
>  <minimizedAffinity>
-3.70660424

$$$$

 OpenBabel03252504373D

 17 18  0  0  0  0  0  0  0  0999 V2000
   37.4570   28.6750   42.1720 C   0  0  0  0  0  0  0  0  0  0  0  0
   38.6810   29.0420   42.8090 C   0  0  0  0  0  0  0  0  0  0  0  0
   39.2170   30.2960   42.5030 C   0  0  0  0  0  0  0  0  0  0  0  0
   38.5510   31.0990   41.6210 N   0  0  0  0  0  0  0  0  0  0  0  0
   37.3950   30.7100   41.0420 C   0  0  0  0  0  0  0  0  0  0  0  0
   36.8640   29.5020   41.3250 N   0  0  0  0  0  0  0  0  0  0  0  0
   39.1650   28.3840   43.4910 H   0  0  0  0  0  0  0  0  0  0  0  0
   40.1470   30.5940   42.9770 H   0  0  0  0  0  0  0  0  0  0  0  0
   36.9570   31.4260   40.3600 H   0  0  0  0  0  0  0  0  0  0  0  0
   36.9130   27.3630   42.5020 C   0  0  0  0  0  3  0  0  0  0  0  0
   37.4600   26.2850   41.9560 C   0  0  0  0  0  3  0  0  0  0  0  0
   36.9410   24.9230   42.2630 C   0  0  0  0  0  0  0  0  0  0  0  0
   36.0640   24.9720   42.9470 H   0  0  0  0  0  0  0  0  0  0  0  0
   37.7440   24.4230   42.8370 H   0  0  0  0  0  0  0  0  0  0  0  0
   36.6160   24.1320   41.0430 C   0  0  0  0  0  3  0  0  0  0  0  0
   37.5740   24.2600   39.8800 C   0  0  0  0  0  2  0  0  0  0  0  0
   37.5910   23.0160   40.7120 C   0  0  0  0  0  2  0  0  0  0  0  0
  1 10  1  0  0  0  0
  1  2  1  0  0  0  0
  2  7  1  0  0  0  0
  3  2  2  0  0  0  0
  3  8  1  0  0  0  0
  4  3  1  0  0  0  0
  5  6  1  0  0  0  0
  5  4  2  0  0  0  0
  6  1  2  0  0  0  0
  9  5  1  0  0  0  0
 11 12  1  0  0  0  0
 11 10  2  0  0  0  0
 12 14  1  0  0  0  0
 12 13  1  0  0  0  0
 15 12  1  0  0  0  0
 16 17  1  0  0  0  0
 16 15  1  0  0  0  0
 17 15  1  0  0  0  0
M  END
>  <minimizedAffinity>
-3.56915879

$$$$

 OpenBabel03252504373D

 17 18  0  0  0  0  0  0  0  0999 V2000
   38.0180   30.9240   40.4210 C   0  0  0  0  0  0  0  0  0  0  0  0
   37.5730   32.2810   40.4310 C   0  0  0  0  0  0  0  0  0  0  0  0
   37.2480   32.8620   39.2020 C   0  0  0  0  0  0  0  0  0  0  0  0
   37.3720   32.1140   38.0670 N   0  0  0  0  0  0  0  0  0  0  0  0
   37.7970   30.8330   38.1050 C   0  0  0  0  0  0  0  0  0  0  0  0
   38.1160   30.2550   39.2820 N   0  0  0  0  0  0  0  0  0  0  0  0
   37.4910   32.8260   41.3410 H   0  0  0  0  0  0  0  0  0  0  0  0
   36.9070   33.8930   39.1880 H   0  0  0  0  0  0  0  0  0  0  0  0
   37.8570   30.3380   37.1450 H   0  0  0  0  0  0  0  0  0  0  0  0
   38.3530   30.3340   41.7110 C   0  0  0  0  0  3  0  0  0  0  0  0
   37.5660   29.3890   42.2080 C   0  0  0  0  0  3  0  0  0  0  0  0
   37.8660   28.7550   43.5220 C   0  0  0  0  0  0  0  0  0  0  0  0
   37.1110   29.0400   44.2880 H   0  0  0  0  0  0  0  0  0  0  0  0
   38.8210   29.2040   43.8560 H   0  0  0  0  0  0  0  0  0  0  0  0
   38.0000   27.2740   43.4390 C   0  0  0  0  0  3  0  0  0  0  0  0
   38.8280   26.7320   42.2950 C   0  0  0  0  0  2  0  0  0  0  0  0
   39.3980   26.7310   43.6790 C   0  0  0  0  0  2  0  0  0  0  0  0
  1  2  1  0  0  0  0
  1 10  1  0  0  0  0
  2  7  1  0  0  0  0
  3  2  2  0  0  0  0
  4  5  2  0  0  0  0
  4  3  1  0  0  0  0
  5  6  1  0  0  0  0
  6  1  2  0  0  0  0
  8  3  1  0  0  0  0
  9  5  1  0  0  0  0
 10 11  2  0  0  0  0
 11 12  1  0  0  0  0
 12 14  1  0  0  0  0
 12 13  1  0  0  0  0
 15 12  1  0  0  0  0
 15 17  1  0  0  0  0
 16 15  1  0  0  0  0
 16 17  1  0  0  0  0
M  END
>  <minimizedAffinity>
-3.55262947

$$$$

 OpenBabel03252504373D

 17 18  0  0  0  0  0  0  0  0999 V2000
   37.2770   29.7510   40.2990 C   0  0  0  0  0  0  0  0  0  0  0  0
   36.9860   29.8490   38.9040 C   0  0  0  0  0  0  0  0  0  0  0  0
   36.8760   31.1300   38.3570 C   0  0  0  0  0  0  0  0  0  0  0  0
   37.0510   32.2110   39.1720 N   0  0  0  0  0  0  0  0  0  0  0  0
   37.3260   32.0710   40.4870 C   0  0  0  0  0  0  0  0  0  0  0  0
   37.4350   30.8420   41.0330 N   0  0  0  0  0  0  0  0  0  0  0  0
   36.8580   28.9780   38.3070 H   0  0  0  0  0  0  0  0  0  0  0  0
   36.6550   31.2260   37.2980 H   0  0  0  0  0  0  0  0  0  0  0  0
   37.4430   32.9960   41.0350 H   0  0  0  0  0  0  0  0  0  0  0  0
   37.3880   28.4070   40.8530 C   0  0  0  0  0  3  0  0  0  0  0  0
   36.8110   28.1430   42.0180 C   0  0  0  0  0  3  0  0  0  0  0  0
   36.8950   26.7850   42.6250 C   0  0  0  0  0  0  0  0  0  0  0  0
   35.9130   26.4710   43.0440 H   0  0  0  0  0  0  0  0  0  0  0  0
   37.5750   26.8890   43.4920 H   0  0  0  0  0  0  0  0  0  0  0  0
   37.4210   25.7570   41.6840 C   0  0  0  0  0  3  0  0  0  0  0  0
   38.1530   24.5860   42.3010 C   0  0  0  0  0  2  0  0  0  0  0  0
   36.7640   24.3910   41.7790 C   0  0  0  0  0  2  0  0  0  0  0  0
  1 10  1  0  0  0  0
  1  6  1  0  0  0  0
  2  1  2  0  0  0  0
  3  2  1  0  0  0  0
  3  4  2  0  0  0  0
  4  5  1  0  0  0  0
  5  6  2  0  0  0  0
  5  9  1  0  0  0  0
  7  2  1  0  0  0  0
  8  3  1  0  0  0  0
 10 11  2  0  0  0  0
 11 12  1  0  0  0  0
 12 13  1  0  0  0  0
 12 14  1  0  0  0  0
 15 17  1  0  0  0  0
 15 16  1  0  0  0  0
 15 12  1  0  0  0  0
 17 16  1  0  0  0  0
M  END
>  <minimizedAffinity>
-3.53671765

$$$$

 OpenBabel03252504373D

 17 18  0  0  0  0  0  0  0  0999 V2000
   38.4250   29.9560   41.5810 C   0  0  0  0  0  0  0  0  0  0  0  0
   37.0070   29.9220   41.4090 C   0  0  0  0  0  0  0  0  0  0  0  0
   36.3950   31.0600   40.8760 C   0  0  0  0  0  0  0  0  0  0  0  0
   37.1730   32.1340   40.5490 N   0  0  0  0  0  0  0  0  0  0  0  0
   38.5110   32.1210   40.7290 C   0  0  0  0  0  0  0  0  0  0  0  0
   39.1190   31.0320   41.2430 N   0  0  0  0  0  0  0  0  0  0  0  0
   36.4420   29.0620   41.6770 H   0  0  0  0  0  0  0  0  0  0  0  0
   35.3180   31.0540   40.7370 H   0  0  0  0  0  0  0  0  0  0  0  0
   39.0240   33.0270   40.4360 H   0  0  0  0  0  0  0  0  0  0  0  0
   39.0470   28.7600   42.1380 C   0  0  0  0  0  3  0  0  0  0  0  0
   38.4040   28.0820   43.0790 C   0  0  0  0  0  3  0  0  0  0  0  0
   38.9970   26.8540   43.6790 C   0  0  0  0  0  0  0  0  0  0  0  0
   38.2750   26.3520   44.3620 H   0  0  0  0  0  0  0  0  0  0  0  0
   39.8250   27.2090   44.3210 H   0  0  0  0  0  0  0  0  0  0  0  0
   39.5140   25.8980   42.6610 C   0  0  0  0  0  3  0  0  0  0  0  0
   40.0590   24.5860   43.1790 C   0  0  0  0  0  2  0  0  0  0  0  0
   38.7200   24.6120   42.5130 C   0  0  0  0  0  2  0  0  0  0  0  0
  1 10  1  0  0  0  0
  2  1  1  0  0  0  0
  2  7  1  0  0  0  0
  3  2  2  0  0  0  0
  4  5  2  0  0  0  0
  4  3  1  0  0  0  0
  5  6  1  0  0  0  0
  6  1  2  0  0  0  0
  8  3  1  0  0  0  0
  9  5  1  0  0  0  0
 10 11  2  0  0  0  0
 11 12  1  0  0  0  0
 12 14  1  0  0  0  0
 12 13  1  0  0  0  0
 15 16  1  0  0  0  0
 15 12  1  0  0  0  0
 17 15  1  0  0  0  0
 17 16  1  0  0  0  0
M  END
>  <minimizedAffinity>
-3.52753615

$$$$

 OpenBabel03252504373D

 17 18  0  0  0  0  0  0  0  0999 V2000
   37.1680   29.8160   39.9450 C   0  0  0  0  0  0  0  0  0  0  0  0
   37.0840   30.9470   40.8150 C   0  0  0  0  0  0  0  0  0  0  0  0
   37.0840   32.2140   40.2260 C   0  0  0  0  0  0  0  0  0  0  0  0
   37.1620   32.3080   38.8660 N   0  0  0  0  0  0  0  0  0  0  0  0
   37.2390   31.2110   38.0830 C   0  0  0  0  0  0  0  0  0  0  0  0
   37.2410   29.9790   38.6330 N   0  0  0  0  0  0  0  0  0  0  0  0
   37.0250   30.8250   41.8700 H   0  0  0  0  0  0  0  0  0  0  0  0
   37.0210   33.0860   40.8700 H   0  0  0  0  0  0  0  0  0  0  0  0
   37.2970   31.4060   37.0200 H   0  0  0  0  0  0  0  0  0  0  0  0
   37.1670   28.5020   40.5770 C   0  0  0  0  0  3  0  0  0  0  0  0
   36.8880   28.4110   41.8700 C   0  0  0  0  0  3  0  0  0  0  0  0
   36.8740   27.0910   42.5600 C   0  0  0  0  0  0  0  0  0  0  0  0
   35.8790   26.8860   43.0160 H   0  0  0  0  0  0  0  0  0  0  0  0
   37.5800   27.1910   43.4060 H   0  0  0  0  0  0  0  0  0  0  0  0
   37.2910   25.9660   41.6770 C   0  0  0  0  0  3  0  0  0  0  0  0
   38.2610   24.9670   42.2660 C   0  0  0  0  0  2  0  0  0  0  0  0
   36.8220   24.5890   42.1110 C   0  0  0  0  0  2  0  0  0  0  0  0
  1 10  1  0  0  0  0
  1  2  1  0  0  0  0
  2  7  1  0  0  0  0
  3  2  2  0  0  0  0
  3  8  1  0  0  0  0
  4  3  1  0  0  0  0
  5  6  1  0  0  0  0
  5  4  2  0  0  0  0
  6  1  2  0  0  0  0
  9  5  1  0  0  0  0
 10 11  2  0  0  0  0
 11 12  1  0  0  0  0
 12 13  1  0  0  0  0
 12 14  1  0  0  0  0
 15 17  1  0  0  0  0
 15 16  1  0  0  0  0
 15 12  1  0  0  0  0
 17 16  1  0  0  0  0
M  END
>  <minimizedAffinity>
-3.5091548

$$$$
