
 OpenBabel03252509293D

 15 16  0  0  0  0  0  0  0  0999 V2000
   44.5810   35.7930   44.4500 C   0  0  0  0  0  0  0  0  0  0  0  0
   45.3600   35.9790   43.2940 C   0  0  0  0  0  0  0  0  0  0  0  0
   46.3890   35.0710   43.0760 C   0  0  0  0  0  0  0  0  0  0  0  0
   46.5940   34.0670   43.9650 N   0  0  0  0  0  0  0  0  0  0  0  0
   45.8230   33.9210   45.0650 C   0  0  0  0  0  0  0  0  0  0  0  0
   44.8210   34.7920   45.2930 N   0  0  0  0  0  0  0  0  0  0  0  0
   43.7640   36.4680   44.6770 H   0  0  0  0  0  0  0  0  0  0  0  0
   45.1060   36.8040   42.6690 H   0  0  0  0  0  0  0  0  0  0  0  0
   45.9530   33.1370   45.7960 H   0  0  0  0  0  0  0  0  0  0  0  0
   47.1950   35.2720   41.8710 C   0  0  0  0  0  0  0  0  0  0  0  0
   48.1480   35.7680   42.1340 H   0  0  0  0  0  0  0  0  0  0  0  0
   46.6450   36.0220   41.2440 H   0  0  0  0  0  0  0  0  0  0  0  0
   47.3860   33.9760   41.1410 C   0  0  0  0  0  3  0  0  0  0  0  0
   46.3290   33.6820   40.1000 C   0  0  0  0  0  2  0  0  0  0  0  0
   47.7770   33.9360   39.7150 C   0  0  0  0  0  2  0  0  0  0  0  0
  1  7  1  0  0  0  0
  1  6  1  0  0  0  0
  2  1  2  0  0  0  0
  3  2  1  0  0  0  0
  3  4  2  0  0  0  0
  4  5  1  0  0  0  0
  5  6  2  0  0  0  0
  5  9  1  0  0  0  0
  8  2  1  0  0  0  0
 10 11  1  0  0  0  0
 10  3  1  0  0  0  0
 12 10  1  0  0  0  0
 13 10  1  0  0  0  0
 14 13  1  0  0  0  0
 15 14  1  0  0  0  0
 15 13  1  0  0  0  0
M  END
>  <minimizedAffinity>
-3.38963342

>  <minimizedRMSD>
1.39874911

$$$$
