
 OpenBabel03242510223D

 32 35  0  0  1  0  0  0  0  0999 V2000
   46.3140   32.1340   44.5240 C   0  0  1  0  0  0  0  0  0  0  0  0
   46.4360   31.3690   43.3560 C   0  0  0  0  0  0  0  0  0  0  0  0
   47.6700   32.1300   43.9350 C   0  0  1  0  0  0  0  0  0  0  0  0
   46.1580   31.6890   45.5300 H   0  0  0  0  0  0  0  0  0  0  0  0
   46.1590   31.6110   42.3120 H   0  0  0  0  0  0  0  0  0  0  0  0
   46.5170   30.2440   43.4640 H   0  0  0  0  0  0  0  0  0  0  0  0
   48.4350   31.4360   44.3120 H   0  0  0  0  0  0  0  0  0  0  0  0
   45.0520   33.9820   43.1820 C   0  0  0  0  0  0  0  0  0  0  0  0
   45.5470   33.4660   44.4240 C   0  0  0  0  0  0  0  0  0  0  0  0
   45.3360   34.2240   45.5570 C   0  0  0  0  0  0  0  0  0  0  0  0
   44.6850   35.4000   45.4490 N   0  0  0  0  0  0  0  0  0  0  0  0
   44.2220   35.8790   44.2610 C   0  0  0  0  0  0  0  0  0  0  0  0
   44.4180   35.1350   43.0950 N   0  0  0  0  0  0  0  0  0  0  0  0
   45.2060   33.3710   42.3140 H   0  0  0  0  0  0  0  0  0  0  0  0
   45.6810   33.8950   46.5290 H   0  0  0  0  0  0  0  0  0  0  0  0
   43.7010   36.8210   44.1810 H   0  0  0  0  0  0  0  0  0  0  0  0
   48.0300   33.2560   43.1510 N   0  0  0  0  0  0  0  0  0  0  0  0
   49.2240   33.3400   42.4430 C   0  0  0  0  0  0  0  0  0  0  0  0
   50.3930   33.0040   42.7570 O   0  0  0  0  0  0  0  0  0  0  0  0
   47.4500   34.1160   43.0300 H   0  0  0  0  0  0  0  0  0  0  0  0
   49.2070   33.9200   41.0360 C   0  0  2  0  0  0  0  0  0  0  0  0
   48.6480   35.3830   40.8960 C   0  0  0  0  0  0  0  0  0  0  0  0
   47.9520   34.1770   40.3320 C   0  0  1  0  0  0  0  0  0  0  0  0
   50.1430   33.8400   40.4480 H   0  0  0  0  0  0  0  0  0  0  0  0
   48.2390   35.7940   41.8460 H   0  0  0  0  0  0  0  0  0  0  0  0
   49.1080   36.0420   40.1680 H   0  0  0  0  0  0  0  0  0  0  0  0
   47.0770   33.6880   40.8230 H   0  0  0  0  0  0  0  0  0  0  0  0
   47.9460   34.0340   38.8310 C   0  0  0  0  0  0  0  0  0  0  0  0
   48.5030   34.8600   38.1210 O   0  0  0  0  0  0  0  0  0  0  0  0
   47.2530   32.8730   38.1860 C   0  0  0  0  0  3  0  0  0  0  0  0
   46.2820   32.0540   38.9390 C   0  0  0  0  0  2  0  0  0  0  0  0
   45.7700   33.0890   37.9680 C   0  0  0  0  0  2  0  0  0  0  0  0
  1  4  1  1  0  0  0
  2  6  1  0  0  0  0
  2  3  1  0  0  0  0
  2  1  1  0  0  0  0
  3  7  1  1  0  0  0
  3  1  1  0  0  0  0
  5  2  1  0  0  0  0
  8  9  1  0  0  0  0
  9  1  1  0  0  0  0
  9 10  2  0  0  0  0
 10 15  1  0  0  0  0
 11 10  1  0  0  0  0
 12 11  2  0  0  0  0
 13  8  2  0  0  0  0
 13 12  1  0  0  0  0
 14  8  1  0  0  0  0
 16 12  1  0  0  0  0
 17  3  1  0  0  0  0
 18 19  2  0  0  0  0
 18 17  1  0  0  0  0
 20 17  1  0  0  0  0
 21 24  1  6  0  0  0
 21 18  1  0  0  0  0
 22 21  1  0  0  0  0
 22 25  1  0  0  0  0
 23 27  1  1  0  0  0
 23 22  1  0  0  0  0
 23 21  1  0  0  0  0
 26 22  1  0  0  0  0
 28 23  1  0  0  0  0
 29 28  2  0  0  0  0
 30 28  1  0  0  0  0
 30 31  1  0  0  0  0
 32 30  1  0  0  0  0
 32 31  1  0  0  0  0
M  END
>  <minimizedAffinity>
-4.40051413

>  <minimizedRMSD>
0.324157685

$$$$
