
 OpenBabel03252509313D

 21 22  0  0  0  0  0  0  0  0999 V2000
   46.9250   34.5840   42.1480 C   0  0  0  0  0  0  0  0  0  0  0  0
   46.7720   35.4620   41.4790 H   0  0  0  0  0  0  0  0  0  0  0  0
   46.5110   33.6940   41.6080 H   0  0  0  0  0  0  0  0  0  0  0  0
   45.4490   34.0850   45.5460 C   0  0  0  0  0  0  0  0  0  0  0  0
   46.2200   33.8700   44.3980 C   0  0  0  0  0  0  0  0  0  0  0  0
   46.1310   34.7870   43.3560 C   0  0  0  0  0  0  0  0  0  0  0  0
   45.2860   35.8670   43.4960 N   0  0  0  0  0  0  0  0  0  0  0  0
   44.5570   36.0390   44.6220 C   0  0  0  0  0  0  0  0  0  0  0  0
   44.6340   35.1660   45.6310 N   0  0  0  0  0  0  0  0  0  0  0  0
   45.5910   33.3170   46.2960 H   0  0  0  0  0  0  0  0  0  0  0  0
   46.8780   33.0290   44.2890 H   0  0  0  0  0  0  0  0  0  0  0  0
   43.8890   36.8820   44.7500 H   0  0  0  0  0  0  0  0  0  0  0  0
   48.2700   34.3920   42.4650 O   0  0  0  0  0  0  0  0  0  0  0  0
   48.5550   31.7950   42.6450 O   0  0  0  0  0  0  0  0  0  0  0  0
   48.7600   32.9610   41.7030 P   0  0  2  0  0  0  0  0  0  0  0  0
   50.3590   33.1550   41.2360 O   0  0  0  0  0  0  0  0  0  0  0  0
   50.9340   33.0530   42.0300 H   0  0  0  0  0  0  0  0  0  0  0  0
   47.7670   32.7220   40.3640 O   0  0  0  0  0  0  0  0  0  0  0  0
   48.3870   32.9620   39.1640 C   0  0  0  0  0  3  0  0  0  0  0  0
   48.2430   34.3670   38.6320 C   0  0  0  0  0  2  0  0  0  0  0  0
   47.4040   33.2910   38.0420 C   0  0  0  0  0  2  0  0  0  0  0  0
  1 13  1  0  0  0  0
  1  6  1  0  0  0  0
  2  1  1  0  0  0  0
  3  1  1  0  0  0  0
  4  9  1  0  0  0  0
  4 10  1  0  0  0  0
  5  4  2  0  0  0  0
  6  7  2  0  0  0  0
  6  5  1  0  0  0  0
  7  8  1  0  0  0  0
  8 12  1  0  0  0  0
  8  9  2  0  0  0  0
 11  5  1  0  0  0  0
 15 13  1  0  0  0  0
 15 14  2  1  0  0  0
 16 15  1  0  0  0  0
 16 17  1  0  0  0  0
 18 15  1  0  0  0  0
 19 18  1  0  0  0  0
 20 19  1  0  0  0  0
 21 20  1  0  0  0  0
 21 19  1  0  0  0  0
M  END
>  <minimizedAffinity>
-3.81791639

>  <minimizedRMSD>
2.16872025

$$$$
