
 OpenBabel03242510313D

 32 34  0  0  1  0  0  0  0  0999 V2000
   36.7820   31.4190   39.1180 C   0  0  1  0  0  0  0  0  0  0  0  0
   37.1260   30.3570   38.0450 C   0  0  0  0  0  0  0  0  0  0  0  0
   35.8380   29.6630   37.7120 C   0  0  0  0  0  0  0  0  0  0  0  0
   35.5420   28.8000   38.9260 C   0  0  0  0  0  0  0  0  0  0  0  0
   35.4500   29.5910   40.1310 C   0  0  0  0  0  0  0  0  0  0  0  0
   36.4370   30.7730   40.3640 C   0  0  1  0  0  0  0  0  0  0  0  0
   35.9520   32.0420   38.7350 H   0  0  0  0  0  0  0  0  0  0  0  0
   37.6240   30.8050   37.1730 H   0  0  0  0  0  0  0  0  0  0  0  0
   37.8120   29.6520   38.5610 H   0  0  0  0  0  0  0  0  0  0  0  0
   35.9630   29.0390   36.8170 H   0  0  0  0  0  0  0  0  0  0  0  0
   35.0450   30.4160   37.6410 H   0  0  0  0  0  0  0  0  0  0  0  0
   34.6020   28.2900   38.7270 H   0  0  0  0  0  0  0  0  0  0  0  0
   36.3760   28.0540   38.9490 H   0  0  0  0  0  0  0  0  0  0  0  0
   35.1830   29.0470   41.0050 H   0  0  0  0  0  0  0  0  0  0  0  0
   34.4820   30.2030   39.9510 H   0  0  0  0  0  0  0  0  0  0  0  0
   35.8740   31.2900   41.1380 H   0  0  0  0  0  0  0  0  0  0  0  0
   40.3310   32.9210   39.1100 C   0  0  0  0  0  0  0  0  0  0  0  0
   39.2940   32.0680   38.8020 C   0  0  0  0  0  0  0  0  0  0  0  0
   38.0010   32.2600   39.3230 C   0  0  0  0  0  0  0  0  0  0  0  0
   37.8710   33.3230   40.1280 N   0  0  0  0  0  0  0  0  0  0  0  0
   38.8570   34.1540   40.4360 C   0  0  0  0  0  0  0  0  0  0  0  0
   40.1120   33.9610   39.9260 N   0  0  0  0  0  0  0  0  0  0  0  0
   41.2330   32.6070   38.6170 H   0  0  0  0  0  0  0  0  0  0  0  0
   39.3470   31.1860   38.1500 H   0  0  0  0  0  0  0  0  0  0  0  0
   38.7990   35.0200   41.0780 H   0  0  0  0  0  0  0  0  0  0  0  0
   37.5620   30.1910   40.9470 O   0  0  0  0  0  0  0  0  0  0  0  0
   37.2050   29.6610   42.1840 C   0  0  0  0  0  0  0  0  0  0  0  0
   36.1020   29.3990   41.9600 H   0  0  0  0  0  0  0  0  0  0  0  0
   37.0270   30.4050   42.9810 H   0  0  0  0  0  0  0  0  0  0  0  0
   37.8060   28.3690   42.5730 C   0  0  0  0  0  3  0  0  0  0  0  0
   37.0550   27.5800   43.6750 C   0  0  0  0  0  2  0  0  0  0  0  0
   36.9550   27.0840   42.3000 C   0  0  0  0  0  2  0  0  0  0  0  0
  1  7  1  6  0  0  0
  1 19  1  0  0  0  0
  1  6  1  0  0  0  0
  2  9  1  0  0  0  0
  2  1  1  0  0  0  0
  3  2  1  0  0  0  0
  3  4  1  0  0  0  0
  4 13  1  0  0  0  0
  4  5  1  0  0  0  0
  5  6  1  0  0  0  0
  5 14  1  0  0  0  0
  6 26  1  0  0  0  0
  6 16  1  1  0  0  0
  8  2  1  0  0  0  0
 10  3  1  0  0  0  0
 11  3  1  0  0  0  0
 12  4  1  0  0  0  0
 15  5  1  0  0  0  0
 17 22  1  0  0  0  0
 18 17  2  0  0  0  0
 18 19  1  0  0  0  0
 19 20  2  0  0  0  0
 20 21  1  0  0  0  0
 21 25  1  0  0  0  0
 22 21  2  0  0  0  0
 23 17  1  0  0  0  0
 24 18  1  0  0  0  0
 26 27  1  0  0  0  0
 27 30  1  0  0  0  0
 27 29  1  0  0  0  0
 28 27  1  0  0  0  0
 30 31  1  0  0  0  0
 32 30  1  0  0  0  0
 32 31  1  0  0  0  0
M  END
>  <minimizedAffinity>
-4.84196854

$$$$

 OpenBabel03242510313D

 32 34  0  0  1  0  0  0  0  0999 V2000
   36.8180   31.4400   39.1060 C   0  0  1  0  0  0  0  0  0  0  0  0
   37.2070   30.3670   38.0600 C   0  0  0  0  0  0  0  0  0  0  0  0
   35.9370   29.6530   37.6980 C   0  0  0  0  0  0  0  0  0  0  0  0
   35.6150   28.8040   38.9160 C   0  0  0  0  0  0  0  0  0  0  0  0
   35.4780   29.6100   40.1060 C   0  0  0  0  0  0  0  0  0  0  0  0
   36.4440   30.8070   40.3510 C   0  0  1  0  0  0  0  0  0  0  0  0
   35.9930   32.0470   38.6900 H   0  0  0  0  0  0  0  0  0  0  0  0
   37.7240   30.8090   37.1960 H   0  0  0  0  0  0  0  0  0  0  0  0
   37.8850   29.6780   38.6060 H   0  0  0  0  0  0  0  0  0  0  0  0
   36.0960   29.0180   36.8170 H   0  0  0  0  0  0  0  0  0  0  0  0
   35.1380   30.3950   37.5940 H   0  0  0  0  0  0  0  0  0  0  0  0
   34.6880   28.2790   38.6960 H   0  0  0  0  0  0  0  0  0  0  0  0
   36.4570   28.0680   38.9740 H   0  0  0  0  0  0  0  0  0  0  0  0
   35.1910   29.0750   40.9800 H   0  0  0  0  0  0  0  0  0  0  0  0
   34.5090   30.2080   39.8880 H   0  0  0  0  0  0  0  0  0  0  0  0
   35.8520   31.3290   41.1010 H   0  0  0  0  0  0  0  0  0  0  0  0
   39.3170   34.1450   40.2430 C   0  0  0  0  0  0  0  0  0  0  0  0
   38.1400   33.4340   40.1590 C   0  0  0  0  0  0  0  0  0  0  0  0
   38.0200   32.2990   39.3360 C   0  0  0  0  0  0  0  0  0  0  0  0
   39.1280   31.9770   38.6560 N   0  0  0  0  0  0  0  0  0  0  0  0
   40.2690   32.6490   38.7240 C   0  0  0  0  0  0  0  0  0  0  0  0
   40.3790   33.7520   39.5260 N   0  0  0  0  0  0  0  0  0  0  0  0
   39.2070   34.9720   40.9200 H   0  0  0  0  0  0  0  0  0  0  0  0
   37.2060   33.6540   40.6930 H   0  0  0  0  0  0  0  0  0  0  0  0
   41.1850   32.4280   38.1960 H   0  0  0  0  0  0  0  0  0  0  0  0
   37.5580   30.2470   40.9750 O   0  0  0  0  0  0  0  0  0  0  0  0
   37.1610   29.6830   42.1840 C   0  0  0  0  0  0  0  0  0  0  0  0
   36.0950   29.3460   41.8880 H   0  0  0  0  0  0  0  0  0  0  0  0
   36.8780   30.4060   42.9710 H   0  0  0  0  0  0  0  0  0  0  0  0
   37.8250   28.4330   42.6060 C   0  0  0  0  0  3  0  0  0  0  0  0
   37.0780   27.6010   43.6790 C   0  0  0  0  0  2  0  0  0  0  0  0
   37.0700   27.0960   42.3040 C   0  0  0  0  0  2  0  0  0  0  0  0
  1  7  1  6  0  0  0
  1 19  1  0  0  0  0
  1  6  1  0  0  0  0
  2  9  1  0  0  0  0
  2  1  1  0  0  0  0
  3  2  1  0  0  0  0
  3  4  1  0  0  0  0
  4 13  1  0  0  0  0
  4  5  1  0  0  0  0
  5  6  1  0  0  0  0
  5 14  1  0  0  0  0
  6 26  1  0  0  0  0
  6 16  1  1  0  0  0
  8  2  1  0  0  0  0
 10  3  1  0  0  0  0
 11  3  1  0  0  0  0
 12  4  1  0  0  0  0
 15  5  1  0  0  0  0
 17 23  1  0  0  0  0
 18 17  1  0  0  0  0
 18 24  1  0  0  0  0
 19 18  2  0  0  0  0
 20 21  2  0  0  0  0
 20 19  1  0  0  0  0
 21 22  1  0  0  0  0
 22 17  2  0  0  0  0
 25 21  1  0  0  0  0
 26 27  1  0  0  0  0
 27 30  1  0  0  0  0
 27 29  1  0  0  0  0
 28 27  1  0  0  0  0
 30 31  1  0  0  0  0
 32 30  1  0  0  0  0
 32 31  1  0  0  0  0
M  END
>  <minimizedAffinity>
-4.81536579

$$$$

 OpenBabel03242510313D

 32 34  0  0  1  0  0  0  0  0999 V2000
   36.1980   28.3050   41.4110 C   0  0  1  0  0  0  0  0  0  0  0  0
   37.0020   27.0070   41.6710 C   0  0  0  0  0  0  0  0  0  0  0  0
   37.2210   26.9390   43.1540 C   0  0  0  0  0  0  0  0  0  0  0  0
   38.2560   28.0130   43.4380 C   0  0  0  0  0  0  0  0  0  0  0  0
   37.8050   29.3140   43.0040 C   0  0  0  0  0  0  0  0  0  0  0  0
   37.0270   29.4620   41.6630 C   0  0  1  0  0  0  0  0  0  0  0  0
   35.3010   28.2930   42.0580 H   0  0  0  0  0  0  0  0  0  0  0  0
   36.4930   26.1230   41.2600 H   0  0  0  0  0  0  0  0  0  0  0  0
   37.9710   27.1710   41.1530 H   0  0  0  0  0  0  0  0  0  0  0  0
   37.6050   25.9500   43.4360 H   0  0  0  0  0  0  0  0  0  0  0  0
   36.2930   27.2330   43.6570 H   0  0  0  0  0  0  0  0  0  0  0  0
   38.4310   28.0040   44.5120 H   0  0  0  0  0  0  0  0  0  0  0  0
   39.1760   27.6630   42.9060 H   0  0  0  0  0  0  0  0  0  0  0  0
   38.4640   30.1170   43.2340 H   0  0  0  0  0  0  0  0  0  0  0  0
   36.9340   29.5310   43.7380 H   0  0  0  0  0  0  0  0  0  0  0  0
   36.5950   30.4440   41.8450 H   0  0  0  0  0  0  0  0  0  0  0  0
   34.6350   29.0410   37.9660 C   0  0  0  0  0  0  0  0  0  0  0  0
   34.9420   29.1980   39.2990 C   0  0  0  0  0  0  0  0  0  0  0  0
   35.7910   28.2990   39.9720 C   0  0  0  0  0  0  0  0  0  0  0  0
   36.2640   27.2990   39.2160 N   0  0  0  0  0  0  0  0  0  0  0  0
   35.9790   27.1320   37.9320 C   0  0  0  0  0  0  0  0  0  0  0  0
   35.1530   28.0100   37.2850 N   0  0  0  0  0  0  0  0  0  0  0  0
   33.9760   29.8250   37.6390 H   0  0  0  0  0  0  0  0  0  0  0  0
   34.5830   29.9970   39.9620 H   0  0  0  0  0  0  0  0  0  0  0  0
   36.3350   26.3440   37.2860 H   0  0  0  0  0  0  0  0  0  0  0  0
   38.0150   29.5850   40.6870 O   0  0  0  0  0  0  0  0  0  0  0  0
   38.3490   30.9290   40.5500 C   0  0  0  0  0  0  0  0  0  0  0  0
   38.9220   30.8750   39.5480 H   0  0  0  0  0  0  0  0  0  0  0  0
   39.1860   31.2730   41.1850 H   0  0  0  0  0  0  0  0  0  0  0  0
   37.2530   31.8820   40.2840 C   0  0  0  0  0  3  0  0  0  0  0  0
   37.6860   33.3170   39.8910 C   0  0  0  0  0  2  0  0  0  0  0  0
   37.1560   32.4570   38.8310 C   0  0  0  0  0  2  0  0  0  0  0  0
  1  6  1  0  0  0  0
  1  2  1  0  0  0  0
  1  7  1  1  0  0  0
  2  3  1  0  0  0  0
  3 10  1  0  0  0  0
  3  4  1  0  0  0  0
  3 11  1  0  0  0  0
  4 12  1  0  0  0  0
  5 14  1  0  0  0  0
  5  4  1  0  0  0  0
  5 15  1  0  0  0  0
  6 16  1  1  0  0  0
  6  5  1  0  0  0  0
  8  2  1  0  0  0  0
  9  2  1  0  0  0  0
 13  4  1  0  0  0  0
 17 18  1  0  0  0  0
 18 24  1  0  0  0  0
 18 19  2  0  0  0  0
 19  1  1  0  0  0  0
 20 19  1  0  0  0  0
 21 20  2  0  0  0  0
 22 21  1  0  0  0  0
 22 17  2  0  0  0  0
 23 17  1  0  0  0  0
 25 21  1  0  0  0  0
 26  6  1  0  0  0  0
 27 26  1  0  0  0  0
 27 29  1  0  0  0  0
 28 27  1  0  0  0  0
 30 27  1  0  0  0  0
 31 30  1  0  0  0  0
 32 31  1  0  0  0  0
 32 30  1  0  0  0  0
M  END
>  <minimizedAffinity>
-4.61222601

$$$$

 OpenBabel03242510313D

 32 34  0  0  1  0  0  0  0  0999 V2000
   37.5350   29.2320   42.2130 C   0  0  1  0  0  0  0  0  0  0  0  0
   37.8440   30.4100   41.2560 C   0  0  0  0  0  0  0  0  0  0  0  0
   36.5400   31.1130   41.0210 C   0  0  0  0  0  0  0  0  0  0  0  0
   35.7540   30.1740   40.1220 C   0  0  0  0  0  0  0  0  0  0  0  0
   35.5820   28.8760   40.7300 C   0  0  0  0  0  0  0  0  0  0  0  0
   36.7520   28.2280   41.5280 C   0  0  1  0  0  0  0  0  0  0  0  0
   37.0060   29.6330   43.0970 H   0  0  0  0  0  0  0  0  0  0  0  0
   38.6310   31.0640   41.6570 H   0  0  0  0  0  0  0  0  0  0  0  0
   38.1860   29.9240   40.3180 H   0  0  0  0  0  0  0  0  0  0  0  0
   36.7110   32.0740   40.5180 H   0  0  0  0  0  0  0  0  0  0  0  0
   36.0040   31.1810   41.9740 H   0  0  0  0  0  0  0  0  0  0  0  0
   34.7910   30.6460   39.9400 H   0  0  0  0  0  0  0  0  0  0  0  0
   36.3410   30.1420   39.1690 H   0  0  0  0  0  0  0  0  0  0  0  0
   34.9850   28.1940   40.1710 H   0  0  0  0  0  0  0  0  0  0  0  0
   34.8720   29.1100   41.6160 H   0  0  0  0  0  0  0  0  0  0  0  0
   36.1710   27.4870   42.0750 H   0  0  0  0  0  0  0  0  0  0  0  0
   40.3470   27.0400   43.6780 C   0  0  0  0  0  0  0  0  0  0  0  0
   39.0740   27.4460   43.3440 C   0  0  0  0  0  0  0  0  0  0  0  0
   38.8430   28.6350   42.6250 C   0  0  0  0  0  0  0  0  0  0  0  0
   39.9460   29.3210   42.3020 N   0  0  0  0  0  0  0  0  0  0  0  0
   41.1790   28.9450   42.6150 C   0  0  0  0  0  0  0  0  0  0  0  0
   41.3970   27.7900   43.3140 N   0  0  0  0  0  0  0  0  0  0  0  0
   40.3140   26.1150   44.2230 H   0  0  0  0  0  0  0  0  0  0  0  0
   38.1380   26.9240   43.5840 H   0  0  0  0  0  0  0  0  0  0  0  0
   42.0950   29.4650   42.3770 H   0  0  0  0  0  0  0  0  0  0  0  0
   37.5200   27.5700   40.5690 O   0  0  0  0  0  0  0  0  0  0  0  0
   36.8480   26.4210   40.1630 C   0  0  0  0  0  0  0  0  0  0  0  0
   37.0750   26.4660   39.0310 H   0  0  0  0  0  0  0  0  0  0  0  0
   35.7480   26.5160   40.1020 H   0  0  0  0  0  0  0  0  0  0  0  0
   37.4010   25.1190   40.5870 C   0  0  0  0  0  3  0  0  0  0  0  0
   36.9690   24.6270   41.9910 C   0  0  0  0  0  2  0  0  0  0  0  0
   36.3760   23.9620   40.8290 C   0  0  0  0  0  2  0  0  0  0  0  0
  1 19  1  0  0  0  0
  1  7  1  1  0  0  0
  2  8  1  0  0  0  0
  2  1  1  0  0  0  0
  3  2  1  0  0  0  0
  3 11  1  0  0  0  0
  4  5  1  0  0  0  0
  4  3  1  0  0  0  0
  5  6  1  0  0  0  0
  5 15  1  0  0  0  0
  6 16  1  1  0  0  0
  6  1  1  0  0  0  0
  9  2  1  0  0  0  0
 10  3  1  0  0  0  0
 12  4  1  0  0  0  0
 13  4  1  0  0  0  0
 14  5  1  0  0  0  0
 17 23  1  0  0  0  0
 18 24  1  0  0  0  0
 18 17  1  0  0  0  0
 19 18  2  0  0  0  0
 20 21  2  0  0  0  0
 20 19  1  0  0  0  0
 21 22  1  0  0  0  0
 22 17  2  0  0  0  0
 25 21  1  0  0  0  0
 26  6  1  0  0  0  0
 27 26  1  0  0  0  0
 27 30  1  0  0  0  0
 28 27  1  0  0  0  0
 29 27  1  0  0  0  0
 30 32  1  0  0  0  0
 30 31  1  0  0  0  0
 32 31  1  0  0  0  0
M  END
>  <minimizedAffinity>
-4.53477192

$$$$

 OpenBabel03242510313D

 32 34  0  0  1  0  0  0  0  0999 V2000
   38.1670   29.0030   41.4190 C   0  0  1  0  0  0  0  0  0  0  0  0
   37.6300   29.2880   42.8430 C   0  0  0  0  0  0  0  0  0  0  0  0
   37.8440   28.0300   43.6320 C   0  0  0  0  0  0  0  0  0  0  0  0
   36.8080   27.0590   43.0920 C   0  0  0  0  0  0  0  0  0  0  0  0
   36.9590   26.8540   41.6710 C   0  0  0  0  0  0  0  0  0  0  0  0
   37.3080   28.0560   40.7440 C   0  0  1  0  0  0  0  0  0  0  0  0
   39.2030   28.6270   41.5070 H   0  0  0  0  0  0  0  0  0  0  0  0
   38.1070   30.1730   43.2880 H   0  0  0  0  0  0  0  0  0  0  0  0
   36.5430   29.4650   42.7000 H   0  0  0  0  0  0  0  0  0  0  0  0
   37.6760   28.2180   44.7000 H   0  0  0  0  0  0  0  0  0  0  0  0
   38.8320   27.6270   43.3850 H   0  0  0  0  0  0  0  0  0  0  0  0
   36.9420   26.1240   43.6330 H   0  0  0  0  0  0  0  0  0  0  0  0
   35.8240   27.5150   43.3720 H   0  0  0  0  0  0  0  0  0  0  0  0
   36.2990   26.1350   41.2480 H   0  0  0  0  0  0  0  0  0  0  0  0
   37.9680   26.2850   41.6100 H   0  0  0  0  0  0  0  0  0  0  0  0
   37.6520   27.4870   39.8820 H   0  0  0  0  0  0  0  0  0  0  0  0
   37.3550   32.4940   40.0020 C   0  0  0  0  0  0  0  0  0  0  0  0
   37.2550   31.3720   40.7940 C   0  0  0  0  0  0  0  0  0  0  0  0
   38.1540   30.2960   40.6680 C   0  0  0  0  0  0  0  0  0  0  0  0
   39.0960   30.4580   39.7300 N   0  0  0  0  0  0  0  0  0  0  0  0
   39.2080   31.5300   38.9590 C   0  0  0  0  0  0  0  0  0  0  0  0
   38.3310   32.5720   39.0860 N   0  0  0  0  0  0  0  0  0  0  0  0
   36.5810   33.1980   40.2490 H   0  0  0  0  0  0  0  0  0  0  0  0
   36.5040   31.1890   41.5750 H   0  0  0  0  0  0  0  0  0  0  0  0
   39.9480   31.7030   38.1920 H   0  0  0  0  0  0  0  0  0  0  0  0
   36.0800   28.6360   40.4320 O   0  0  0  0  0  0  0  0  0  0  0  0
   35.6690   28.1790   39.1830 C   0  0  0  0  0  0  0  0  0  0  0  0
   34.6800   27.6670   39.4920 H   0  0  0  0  0  0  0  0  0  0  0  0
   36.1970   27.2800   38.8140 H   0  0  0  0  0  0  0  0  0  0  0  0
   35.2530   29.1870   38.1880 C   0  0  0  0  0  3  0  0  0  0  0  0
   36.3900   29.8020   37.3340 C   0  0  0  0  0  2  0  0  0  0  0  0
   35.5020   28.8380   36.6830 C   0  0  0  0  0  2  0  0  0  0  0  0
  1  7  1  1  0  0  0
  1  2  1  0  0  0  0
  2  8  1  0  0  0  0
  2  3  1  0  0  0  0
  3 10  1  0  0  0  0
  4 13  1  0  0  0  0
  4  3  1  0  0  0  0
  4 12  1  0  0  0  0
  5  4  1  0  0  0  0
  6 16  1  6  0  0  0
  6  1  1  0  0  0  0
  6  5  1  0  0  0  0
  9  2  1  0  0  0  0
 11  3  1  0  0  0  0
 14  5  1  0  0  0  0
 15  5  1  0  0  0  0
 17 23  1  0  0  0  0
 17 18  1  0  0  0  0
 18 24  1  0  0  0  0
 19 18  2  0  0  0  0
 19  1  1  0  0  0  0
 20 19  1  0  0  0  0
 21 22  1  0  0  0  0
 21 20  2  0  0  0  0
 22 17  2  0  0  0  0
 25 21  1  0  0  0  0
 26  6  1  0  0  0  0
 27 28  1  0  0  0  0
 27 26  1  0  0  0  0
 29 27  1  0  0  0  0
 30 27  1  0  0  0  0
 31 30  1  0  0  0  0
 32 31  1  0  0  0  0
 32 30  1  0  0  0  0
M  END
>  <minimizedAffinity>
-4.35233688

$$$$

 OpenBabel03242510313D

 32 34  0  0  1  0  0  0  0  0999 V2000
   38.1190   29.9680   39.3640 C   0  0  1  0  0  0  0  0  0  0  0  0
   36.8410   30.7000   38.8860 C   0  0  0  0  0  0  0  0  0  0  0  0
   37.2400   32.1260   38.6430 C   0  0  0  0  0  0  0  0  0  0  0  0
   37.4370   32.7100   40.0310 C   0  0  0  0  0  0  0  0  0  0  0  0
   38.4300   31.9770   40.7810 C   0  0  0  0  0  0  0  0  0  0  0  0
   38.4880   30.4240   40.6860 C   0  0  1  0  0  0  0  0  0  0  0  0
   38.9220   30.1540   38.6270 H   0  0  0  0  0  0  0  0  0  0  0  0
   36.3970   30.2100   38.0070 H   0  0  0  0  0  0  0  0  0  0  0  0
   36.1480   30.6430   39.7510 H   0  0  0  0  0  0  0  0  0  0  0  0
   36.4410   32.6580   38.1110 H   0  0  0  0  0  0  0  0  0  0  0  0
   38.2130   32.1350   38.1410 H   0  0  0  0  0  0  0  0  0  0  0  0
   37.7420   33.7450   39.8950 H   0  0  0  0  0  0  0  0  0  0  0  0
   36.4190   32.6780   40.4960 H   0  0  0  0  0  0  0  0  0  0  0  0
   38.6550   32.3790   41.7400 H   0  0  0  0  0  0  0  0  0  0  0  0
   39.4060   32.2260   40.2060 H   0  0  0  0  0  0  0  0  0  0  0  0
   39.4940   30.2850   41.0770 H   0  0  0  0  0  0  0  0  0  0  0  0
   36.4220   26.5070   39.3660 C   0  0  0  0  0  0  0  0  0  0  0  0
   36.5590   27.8730   39.2540 C   0  0  0  0  0  0  0  0  0  0  0  0
   37.8050   28.5070   39.4210 C   0  0  0  0  0  0  0  0  0  0  0  0
   38.8240   27.6810   39.6920 N   0  0  0  0  0  0  0  0  0  0  0  0
   38.7110   26.3650   39.8040 C   0  0  0  0  0  0  0  0  0  0  0  0
   37.4970   25.7560   39.6410 N   0  0  0  0  0  0  0  0  0  0  0  0
   35.3990   26.2190   39.2060 H   0  0  0  0  0  0  0  0  0  0  0  0
   35.7590   28.5930   39.0340 H   0  0  0  0  0  0  0  0  0  0  0  0
   39.5020   25.6630   40.0210 H   0  0  0  0  0  0  0  0  0  0  0  0
   37.5750   29.9720   41.6370 O   0  0  0  0  0  0  0  0  0  0  0  0
   38.2690   29.5910   42.7820 C   0  0  0  0  0  0  0  0  0  0  0  0
   38.1720   30.5700   43.3890 H   0  0  0  0  0  0  0  0  0  0  0  0
   39.3700   29.5820   42.6840 H   0  0  0  0  0  0  0  0  0  0  0  0
   37.6480   28.5700   43.6500 C   0  0  0  0  0  3  0  0  0  0  0  0
   36.6860   27.5810   42.9470 C   0  0  0  0  0  2  0  0  0  0  0  0
   38.0010   27.0760   43.3450 C   0  0  0  0  0  2  0  0  0  0  0  0
  1  7  1  6  0  0  0
  1 19  1  0  0  0  0
  1  6  1  0  0  0  0
  2  1  1  0  0  0  0
  2  9  1  0  0  0  0
  3  2  1  0  0  0  0
  3  4  1  0  0  0  0
  4 13  1  0  0  0  0
  4  5  1  0  0  0  0
  5 14  1  0  0  0  0
  6  5  1  0  0  0  0
  6 16  1  1  0  0  0
  6 26  1  0  0  0  0
  8  2  1  0  0  0  0
 10  3  1  0  0  0  0
 11  3  1  0  0  0  0
 12  4  1  0  0  0  0
 15  5  1  0  0  0  0
 17 22  1  0  0  0  0
 18 17  2  0  0  0  0
 18 19  1  0  0  0  0
 19 20  2  0  0  0  0
 20 21  1  0  0  0  0
 21 25  1  0  0  0  0
 22 21  2  0  0  0  0
 23 17  1  0  0  0  0
 24 18  1  0  0  0  0
 26 27  1  0  0  0  0
 27 28  1  0  0  0  0
 27 30  1  0  0  0  0
 29 27  1  0  0  0  0
 31 32  1  0  0  0  0
 31 30  1  0  0  0  0
 32 30  1  0  0  0  0
M  END
>  <minimizedAffinity>
-4.32236004

$$$$

 OpenBabel03242510313D

 32 34  0  0  1  0  0  0  0  0999 V2000
   36.6160   30.4320   40.3870 C   0  0  1  0  0  0  0  0  0  0  0  0
   37.5650   31.6420   40.5650 C   0  0  0  0  0  0  0  0  0  0  0  0
   37.1110   32.6800   39.5820 C   0  0  0  0  0  0  0  0  0  0  0  0
   37.5400   32.1400   38.2280 C   0  0  0  0  0  0  0  0  0  0  0  0
   36.9650   30.8420   37.9680 C   0  0  0  0  0  0  0  0  0  0  0  0
   36.8600   29.7920   39.1140 C   0  0  1  0  0  0  0  0  0  0  0  0
   35.5740   30.7930   40.4720 H   0  0  0  0  0  0  0  0  0  0  0  0
   37.5810   31.9970   41.6060 H   0  0  0  0  0  0  0  0  0  0  0  0
   38.5650   31.2570   40.2730 H   0  0  0  0  0  0  0  0  0  0  0  0
   37.6040   33.6390   39.7870 H   0  0  0  0  0  0  0  0  0  0  0  0
   36.0160   32.7140   39.5920 H   0  0  0  0  0  0  0  0  0  0  0  0
   37.2130   32.8630   37.4840 H   0  0  0  0  0  0  0  0  0  0  0  0
   38.6580   32.1280   38.2730 H   0  0  0  0  0  0  0  0  0  0  0  0
   37.1800   30.4400   37.0070 H   0  0  0  0  0  0  0  0  0  0  0  0
   35.8380   31.0890   37.8530 H   0  0  0  0  0  0  0  0  0  0  0  0
   36.1220   29.1380   38.6540 H   0  0  0  0  0  0  0  0  0  0  0  0
   36.6390   27.4730   42.8580 C   0  0  0  0  0  0  0  0  0  0  0  0
   36.2660   28.2480   41.7820 C   0  0  0  0  0  0  0  0  0  0  0  0
   36.9140   29.4630   41.4870 C   0  0  0  0  0  0  0  0  0  0  0  0
   37.9040   29.7910   42.3260 N   0  0  0  0  0  0  0  0  0  0  0  0
   38.2770   29.0580   43.3660 C   0  0  0  0  0  0  0  0  0  0  0  0
   37.6430   27.8790   43.6480 N   0  0  0  0  0  0  0  0  0  0  0  0
   36.0280   26.5920   42.9140 H   0  0  0  0  0  0  0  0  0  0  0  0
   35.4640   28.0270   41.0650 H   0  0  0  0  0  0  0  0  0  0  0  0
   39.0670   29.2820   44.0680 H   0  0  0  0  0  0  0  0  0  0  0  0
   38.0920   29.1400   39.1160 O   0  0  0  0  0  0  0  0  0  0  0  0
   37.9730   27.9480   38.4070 C   0  0  0  0  0  0  0  0  0  0  0  0
   36.8750   28.0510   38.0590 H   0  0  0  0  0  0  0  0  0  0  0  0
   37.8510   27.0410   39.0270 H   0  0  0  0  0  0  0  0  0  0  0  0
   38.7350   27.8220   37.1480 C   0  0  0  0  0  3  0  0  0  0  0  0
   38.3600   26.6180   36.2480 C   0  0  0  0  0  2  0  0  0  0  0  0
   37.9230   27.9480   35.8160 C   0  0  0  0  0  2  0  0  0  0  0  0
  1  7  1  1  0  0  0
  1  2  1  0  0  0  0
  1 19  1  0  0  0  0
  2  8  1  0  0  0  0
  3 11  1  0  0  0  0
  3 10  1  0  0  0  0
  3  2  1  0  0  0  0
  4 13  1  0  0  0  0
  4  3  1  0  0  0  0
  5  4  1  0  0  0  0
  5  6  1  0  0  0  0
  6 16  1  6  0  0  0
  6 26  1  0  0  0  0
  6  1  1  0  0  0  0
  9  2  1  0  0  0  0
 12  4  1  0  0  0  0
 14  5  1  0  0  0  0
 15  5  1  0  0  0  0
 17 23  1  0  0  0  0
 17 22  1  0  0  0  0
 18 17  2  0  0  0  0
 19 18  1  0  0  0  0
 19 20  2  0  0  0  0
 20 21  1  0  0  0  0
 21 22  2  0  0  0  0
 21 25  1  0  0  0  0
 24 18  1  0  0  0  0
 27 29  1  0  0  0  0
 27 26  1  0  0  0  0
 28 27  1  0  0  0  0
 30 27  1  0  0  0  0
 31 30  1  0  0  0  0
 32 31  1  0  0  0  0
 32 30  1  0  0  0  0
M  END
>  <minimizedAffinity>
-4.29987431

$$$$

 OpenBabel03242510313D

 32 34  0  0  1  0  0  0  0  0999 V2000
   38.0160   26.2880   42.3800 C   0  0  1  0  0  0  0  0  0  0  0  0
   39.3650   26.9720   42.0500 C   0  0  0  0  0  0  0  0  0  0  0  0
   39.6850   27.8560   43.2200 C   0  0  0  0  0  0  0  0  0  0  0  0
   38.7090   29.0140   43.1030 C   0  0  0  0  0  0  0  0  0  0  0  0
   37.3390   28.5570   43.1120 C   0  0  0  0  0  0  0  0  0  0  0  0
   36.9450   27.2590   42.3460 C   0  0  1  0  0  0  0  0  0  0  0  0
   38.1030   25.8080   43.3730 H   0  0  0  0  0  0  0  0  0  0  0  0
   40.1510   26.2350   41.8270 H   0  0  0  0  0  0  0  0  0  0  0  0
   39.1520   27.5920   41.1550 H   0  0  0  0  0  0  0  0  0  0  0  0
   40.7200   28.2170   43.1510 H   0  0  0  0  0  0  0  0  0  0  0  0
   39.4460   27.3150   44.1420 H   0  0  0  0  0  0  0  0  0  0  0  0
   38.9020   29.6730   43.9470 H   0  0  0  0  0  0  0  0  0  0  0  0
   38.9970   29.5290   42.1530 H   0  0  0  0  0  0  0  0  0  0  0  0
   36.6080   29.3300   43.0950 H   0  0  0  0  0  0  0  0  0  0  0  0
   37.2170   28.1650   44.1970 H   0  0  0  0  0  0  0  0  0  0  0  0
   35.9930   27.0750   42.8390 H   0  0  0  0  0  0  0  0  0  0  0  0
   36.6430   23.4010   40.2280 C   0  0  0  0  0  0  0  0  0  0  0  0
   36.7160   24.3220   41.2490 C   0  0  0  0  0  0  0  0  0  0  0  0
   37.7700   25.2520   41.3300 C   0  0  0  0  0  0  0  0  0  0  0  0
   38.6750   25.1650   40.3470 N   0  0  0  0  0  0  0  0  0  0  0  0
   38.6200   24.2850   39.3560 C   0  0  0  0  0  0  0  0  0  0  0  0
   37.5940   23.3840   39.2830 N   0  0  0  0  0  0  0  0  0  0  0  0
   35.7710   22.7840   40.3420 H   0  0  0  0  0  0  0  0  0  0  0  0
   36.0040   24.4350   42.0780 H   0  0  0  0  0  0  0  0  0  0  0  0
   39.3250   24.1780   38.5450 H   0  0  0  0  0  0  0  0  0  0  0  0
   36.6970   27.6760   41.0390 O   0  0  0  0  0  0  0  0  0  0  0  0
   35.7840   28.7270   41.0670 C   0  0  0  0  0  0  0  0  0  0  0  0
   36.1240   29.2390   42.0460 H   0  0  0  0  0  0  0  0  0  0  0  0
   34.7620   28.4530   41.3850 H   0  0  0  0  0  0  0  0  0  0  0  0
   35.9260   29.7820   40.0440 C   0  0  0  0  0  3  0  0  0  0  0  0
   36.4060   31.1620   40.5600 C   0  0  0  0  0  2  0  0  0  0  0  0
   37.3670   30.3490   39.8100 C   0  0  0  0  0  2  0  0  0  0  0  0
  1  7  1  1  0  0  0
  2  1  1  0  0  0  0
  2  3  1  0  0  0  0
  3 11  1  0  0  0  0
  4  5  1  0  0  0  0
  4  3  1  0  0  0  0
  4 12  1  0  0  0  0
  5 15  1  0  0  0  0
  6  1  1  0  0  0  0
  6 16  1  1  0  0  0
  6  5  1  0  0  0  0
  8  2  1  0  0  0  0
  9  2  1  0  0  0  0
 10  3  1  0  0  0  0
 13  4  1  0  0  0  0
 14  5  1  0  0  0  0
 17 23  1  0  0  0  0
 17 18  1  0  0  0  0
 18 19  2  0  0  0  0
 18 24  1  0  0  0  0
 19  1  1  0  0  0  0
 20 19  1  0  0  0  0
 21 20  2  0  0  0  0
 22 21  1  0  0  0  0
 22 17  2  0  0  0  0
 25 21  1  0  0  0  0
 26 27  1  0  0  0  0
 26  6  1  0  0  0  0
 27 29  1  0  0  0  0
 27 28  1  0  0  0  0
 30 31  1  0  0  0  0
 30 27  1  0  0  0  0
 32 30  1  0  0  0  0
 32 31  1  0  0  0  0
M  END
>  <minimizedAffinity>
-4.29536915

$$$$

 OpenBabel03242510313D

 32 34  0  0  1  0  0  0  0  0999 V2000
   36.3120   30.3350   38.5100 C   0  0  1  0  0  0  0  0  0  0  0  0
   36.7940   29.9070   37.1020 C   0  0  0  0  0  0  0  0  0  0  0  0
   35.6440   29.1830   36.4670 C   0  0  0  0  0  0  0  0  0  0  0  0
   35.5800   27.8510   37.1960 C   0  0  0  0  0  0  0  0  0  0  0  0
   35.4040   28.0320   38.6180 C   0  0  0  0  0  0  0  0  0  0  0  0
   36.1620   29.1740   39.3580 C   0  0  1  0  0  0  0  0  0  0  0  0
   35.3610   30.8880   38.3980 H   0  0  0  0  0  0  0  0  0  0  0  0
   37.1510   30.7660   36.5150 H   0  0  0  0  0  0  0  0  0  0  0  0
   37.6270   29.1990   37.2960 H   0  0  0  0  0  0  0  0  0  0  0  0
   35.8370   29.0270   35.3970 H   0  0  0  0  0  0  0  0  0  0  0  0
   34.7210   29.7270   36.6940 H   0  0  0  0  0  0  0  0  0  0  0  0
   34.7440   27.3000   36.7700 H   0  0  0  0  0  0  0  0  0  0  0  0
   36.5390   27.3400   36.9300 H   0  0  0  0  0  0  0  0  0  0  0  0
   35.2900   27.1320   39.1740 H   0  0  0  0  0  0  0  0  0  0  0  0
   34.3300   28.4640   38.6810 H   0  0  0  0  0  0  0  0  0  0  0  0
   35.5530   29.2010   40.2590 H   0  0  0  0  0  0  0  0  0  0  0  0
   38.3740   32.7490   40.6950 C   0  0  0  0  0  0  0  0  0  0  0  0
   37.3360   31.9310   40.3110 C   0  0  0  0  0  0  0  0  0  0  0  0
   37.3600   31.2310   39.0890 C   0  0  0  0  0  0  0  0  0  0  0  0
   38.4600   31.4270   38.3500 N   0  0  0  0  0  0  0  0  0  0  0  0
   39.4690   32.2110   38.7040 C   0  0  0  0  0  0  0  0  0  0  0  0
   39.4390   32.8880   39.8920 N   0  0  0  0  0  0  0  0  0  0  0  0
   38.1680   33.1910   41.6530 H   0  0  0  0  0  0  0  0  0  0  0  0
   36.4150   31.7360   40.8760 H   0  0  0  0  0  0  0  0  0  0  0  0
   40.3720   32.3990   38.1420 H   0  0  0  0  0  0  0  0  0  0  0  0
   37.4050   28.6310   39.6780 O   0  0  0  0  0  0  0  0  0  0  0  0
   37.2640   27.8080   40.7920 C   0  0  0  0  0  0  0  0  0  0  0  0
   38.3770   27.7160   41.0930 H   0  0  0  0  0  0  0  0  0  0  0  0
   37.0780   26.7420   40.5700 H   0  0  0  0  0  0  0  0  0  0  0  0
   36.6180   28.3830   41.9890 C   0  0  0  0  0  3  0  0  0  0  0  0
   36.6210   27.4890   43.2540 C   0  0  0  0  0  2  0  0  0  0  0  0
   37.5330   28.6340   43.2340 C   0  0  0  0  0  2  0  0  0  0  0  0
  1  7  1  6  0  0  0
  1 19  1  0  0  0  0
  1  6  1  0  0  0  0
  2  9  1  0  0  0  0
  2  1  1  0  0  0  0
  3 11  1  0  0  0  0
  3  2  1  0  0  0  0
  3  4  1  0  0  0  0
  4  5  1  0  0  0  0
  5 15  1  0  0  0  0
  5 14  1  0  0  0  0
  5  6  1  0  0  0  0
  6 26  1  0  0  0  0
  6 16  1  1  0  0  0
  8  2  1  0  0  0  0
 10  3  1  0  0  0  0
 12  4  1  0  0  0  0
 13  4  1  0  0  0  0
 17 23  1  0  0  0  0
 18 17  1  0  0  0  0
 18 24  1  0  0  0  0
 19 18  2  0  0  0  0
 20 21  2  0  0  0  0
 20 19  1  0  0  0  0
 21 22  1  0  0  0  0
 22 17  2  0  0  0  0
 25 21  1  0  0  0  0
 26 27  1  0  0  0  0
 27 28  1  0  0  0  0
 27 30  1  0  0  0  0
 29 27  1  0  0  0  0
 30 32  1  0  0  0  0
 30 31  1  0  0  0  0
 32 31  1  0  0  0  0
M  END
>  <minimizedAffinity>
-4.26609612

$$$$
