
 OpenBabel03242514003D

 35 39  0  0  0  0  0  0  0  0999 V2000
   36.8670   29.1480   41.8040 C   0  0  0  0  0  0  0  0  0  0  0  0
   37.8500   28.4650   42.5330 C   0  0  0  0  0  0  0  0  0  0  0  0
   39.1000   29.1130   42.7130 C   0  0  0  0  0  0  0  0  0  0  0  0
   39.2690   30.3330   42.1790 N   0  0  0  0  0  0  0  0  0  0  0  0
   38.3010   30.9700   41.4780 C   0  0  0  0  0  0  0  0  0  0  0  0
   37.1060   30.3480   41.3080 N   0  0  0  0  0  0  0  0  0  0  0  0
   35.9210   28.6330   41.6800 H   0  0  0  0  0  0  0  0  0  0  0  0
   39.8760   28.6260   43.2620 H   0  0  0  0  0  0  0  0  0  0  0  0
   38.4300   32.2930   40.8760 C   0  0  0  0  0  0  0  0  0  0  0  0
   37.4710   32.7900   40.0020 C   0  0  0  0  0  0  0  0  0  0  0  0
   37.8640   34.0540   39.6020 C   0  0  0  0  0  0  0  0  0  0  0  0
   39.0380   34.2900   40.2370 N   0  0  0  0  0  0  0  0  0  0  0  0
   39.3630   33.2270   40.9950 N   0  0  0  0  0  0  0  0  0  0  0  0
   36.5690   32.3060   39.6720 H   0  0  0  0  0  0  0  0  0  0  0  0
   37.3360   34.7100   38.9210 H   0  0  0  0  0  0  0  0  0  0  0  0
   39.8550   35.4710   40.1520 C   0  0  0  0  0  3  0  0  0  0  0  0
   41.1930   35.4480   40.8150 C   0  0  0  0  0  2  0  0  0  0  0  0
   41.1200   35.3680   39.2970 C   0  0  0  0  0  2  0  0  0  0  0  0
   37.7050   27.2070   43.0950 O   0  0  0  0  0  0  0  0  0  0  0  0
   37.9810   26.0170   42.4500 C   0  0  0  0  0  0  0  0  0  0  0  0
   39.1450   25.2940   42.5160 C   0  0  0  0  0  0  0  0  0  0  0  0
   39.2610   24.1200   41.8090 C   0  0  0  0  0  0  0  0  0  0  0  0
   38.2310   23.6260   41.0130 C   0  0  0  0  0  0  0  0  0  0  0  0
   38.4160   22.4820   40.3550 N   0  0  0  0  0  0  0  0  0  0  0  0
   37.4340   21.9700   39.5700 C   0  0  0  0  0  0  0  0  0  0  0  0
   36.2590   22.6770   39.4880 C   0  0  0  0  0  0  0  0  0  0  0  0
   36.0610   23.8770   40.1760 C   0  0  0  0  0  0  0  0  0  0  0  0
   37.0850   24.3660   40.9650 C   0  0  0  0  0  0  0  0  0  0  0  0
   36.9310   25.5580   41.6690 C   0  0  0  0  0  0  0  0  0  0  0  0
   39.9230   25.7090   43.1440 H   0  0  0  0  0  0  0  0  0  0  0  0
   40.1980   23.5710   41.8830 H   0  0  0  0  0  0  0  0  0  0  0  0
   37.6260   21.0390   39.0550 H   0  0  0  0  0  0  0  0  0  0  0  0
   35.4740   22.2560   38.8530 H   0  0  0  0  0  0  0  0  0  0  0  0
   35.1200   24.4020   40.0830 H   0  0  0  0  0  0  0  0  0  0  0  0
   35.9970   26.0510   41.5570 H   0  0  0  0  0  0  0  0  0  0  0  0
  1  2  1  0  0  0  0
  2  3  2  0  0  0  0
  2 19  1  0  0  0  0
  3  8  1  0  0  0  0
  4  3  1  0  0  0  0
  5  4  2  0  0  0  0
  6  5  1  0  0  0  0
  6  1  2  0  0  0  0
  7  1  1  0  0  0  0
  9 13  2  0  0  0  0
  9  5  1  0  0  0  0
 10  9  1  0  0  0  0
 11 10  2  0  0  0  0
 11 12  1  0  0  0  0
 12 13  1  0  0  0  0
 14 10  1  0  0  0  0
 15 11  1  0  0  0  0
 16 12  1  0  0  0  0
 16 17  1  0  0  0  0
 18 16  1  0  0  0  0
 18 17  1  0  0  0  0
 20 21  1  0  0  0  0
 20 19  1  0  0  0  0
 21 30  1  0  0  0  0
 22 31  1  0  0  0  0
 22 21  2  0  0  0  0
 23 22  1  0  0  0  0
 24 23  2  0  0  0  0
 25 24  1  0  0  0  0
 26 25  2  0  0  0  0
 26 27  1  0  0  0  0
 27 28  2  0  0  0  0
 28 23  1  0  0  0  0
 28 29  1  0  0  0  0
 29 20  2  0  0  0  0
 32 25  1  0  0  0  0
 33 26  1  0  0  0  0
 34 27  1  0  0  0  0
 35 29  1  0  0  0  0
M  END
>  <minimizedAffinity>
-6.13284206

$$$$

 OpenBabel03242514003D

 35 39  0  0  0  0  0  0  0  0999 V2000
   38.3640   30.0860   41.7430 C   0  0  0  0  0  0  0  0  0  0  0  0
   36.9970   29.9360   41.4690 C   0  0  0  0  0  0  0  0  0  0  0  0
   36.3550   30.9790   40.7530 C   0  0  0  0  0  0  0  0  0  0  0  0
   37.0860   32.0430   40.3810 N   0  0  0  0  0  0  0  0  0  0  0  0
   38.4060   32.1620   40.6610 C   0  0  0  0  0  0  0  0  0  0  0  0
   39.0180   31.1610   41.3450 N   0  0  0  0  0  0  0  0  0  0  0  0
   38.8320   29.2770   42.2910 H   0  0  0  0  0  0  0  0  0  0  0  0
   35.3140   30.9040   40.5250 H   0  0  0  0  0  0  0  0  0  0  0  0
   39.2470   33.2930   40.2820 C   0  0  0  0  0  0  0  0  0  0  0  0
   38.8120   34.6040   40.4360 C   0  0  0  0  0  0  0  0  0  0  0  0
   39.8160   35.4460   39.9960 C   0  0  0  0  0  0  0  0  0  0  0  0
   40.8240   34.6350   39.5910 N   0  0  0  0  0  0  0  0  0  0  0  0
   40.4670   33.3500   39.7690 N   0  0  0  0  0  0  0  0  0  0  0  0
   37.8680   34.9420   40.8240 H   0  0  0  0  0  0  0  0  0  0  0  0
   39.7920   36.5290   39.9810 H   0  0  0  0  0  0  0  0  0  0  0  0
   42.0960   35.0270   39.0480 C   0  0  0  0  0  3  0  0  0  0  0  0
   43.1500   33.9780   38.9000 C   0  0  0  0  0  2  0  0  0  0  0  0
   42.4400   34.4920   37.6560 C   0  0  0  0  0  2  0  0  0  0  0  0
   36.2180   28.8520   41.8390 O   0  0  0  0  0  0  0  0  0  0  0  0
   36.5760   27.5270   41.6720 C   0  0  0  0  0  0  0  0  0  0  0  0
   36.9930   26.6570   42.6470 C   0  0  0  0  0  0  0  0  0  0  0  0
   37.3150   25.3620   42.3140 C   0  0  0  0  0  0  0  0  0  0  0  0
   37.2360   24.8880   41.0070 C   0  0  0  0  0  0  0  0  0  0  0  0
   37.5650   23.6210   40.7590 N   0  0  0  0  0  0  0  0  0  0  0  0
   37.5010   23.1240   39.4970 C   0  0  0  0  0  0  0  0  0  0  0  0
   37.0870   23.9780   38.5040 C   0  0  0  0  0  0  0  0  0  0  0  0
   36.7410   25.3080   38.7590 C   0  0  0  0  0  0  0  0  0  0  0  0
   36.8200   25.7760   40.0580 C   0  0  0  0  0  0  0  0  0  0  0  0
   36.4850   27.0940   40.3580 C   0  0  0  0  0  0  0  0  0  0  0  0
   37.0410   27.0610   43.6500 H   0  0  0  0  0  0  0  0  0  0  0  0
   37.6410   24.6970   43.1110 H   0  0  0  0  0  0  0  0  0  0  0  0
   37.7760   22.0910   39.3410 H   0  0  0  0  0  0  0  0  0  0  0  0
   37.0390   23.5690   37.4910 H   0  0  0  0  0  0  0  0  0  0  0  0
   36.4200   25.9460   37.9470 H   0  0  0  0  0  0  0  0  0  0  0  0
   36.1740   27.6970   39.5410 H   0  0  0  0  0  0  0  0  0  0  0  0
  1  7  1  0  0  0  0
  2  1  1  0  0  0  0
  2 19  1  0  0  0  0
  3  2  2  0  0  0  0
  4  5  2  0  0  0  0
  4  3  1  0  0  0  0
  5  6  1  0  0  0  0
  6  1  2  0  0  0  0
  8  3  1  0  0  0  0
  9 10  1  0  0  0  0
  9  5  1  0  0  0  0
 10 14  1  0  0  0  0
 11 10  2  0  0  0  0
 12 13  1  0  0  0  0
 12 11  1  0  0  0  0
 13  9  2  0  0  0  0
 15 11  1  0  0  0  0
 16 12  1  0  0  0  0
 17 16  1  0  0  0  0
 18 17  1  0  0  0  0
 18 16  1  0  0  0  0
 20 19  1  0  0  0  0
 20 21  1  0  0  0  0
 21 30  1  0  0  0  0
 22 21  2  0  0  0  0
 22 31  1  0  0  0  0
 23 22  1  0  0  0  0
 24 23  1  0  0  0  0
 25 24  2  0  0  0  0
 26 27  2  0  0  0  0
 26 25  1  0  0  0  0
 27 28  1  0  0  0  0
 28 29  1  0  0  0  0
 28 23  2  0  0  0  0
 29 20  2  0  0  0  0
 32 25  1  0  0  0  0
 33 26  1  0  0  0  0
 34 27  1  0  0  0  0
 35 29  1  0  0  0  0
M  END
>  <minimizedAffinity>
-6.06691313

$$$$

 OpenBabel03242514003D

 35 39  0  0  0  0  0  0  0  0999 V2000
   36.3650   30.1460   39.9430 C   0  0  0  0  0  0  0  0  0  0  0  0
   37.2250   30.9810   40.6690 C   0  0  0  0  0  0  0  0  0  0  0  0
   38.0830   30.3690   41.6200 C   0  0  0  0  0  0  0  0  0  0  0  0
   38.0210   29.0360   41.7710 N   0  0  0  0  0  0  0  0  0  0  0  0
   37.1780   28.2530   41.0560 C   0  0  0  0  0  0  0  0  0  0  0  0
   36.3600   28.8410   40.1460 N   0  0  0  0  0  0  0  0  0  0  0  0
   35.7200   30.6350   39.2230 H   0  0  0  0  0  0  0  0  0  0  0  0
   38.7540   30.9700   42.1940 H   0  0  0  0  0  0  0  0  0  0  0  0
   37.0690   26.8030   41.1790 C   0  0  0  0  0  0  0  0  0  0  0  0
   37.0950   26.1750   42.4190 C   0  0  0  0  0  0  0  0  0  0  0  0
   36.9730   24.8140   42.2170 C   0  0  0  0  0  0  0  0  0  0  0  0
   36.8770   24.6500   40.8750 N   0  0  0  0  0  0  0  0  0  0  0  0
   36.9360   25.8500   40.2680 N   0  0  0  0  0  0  0  0  0  0  0  0
   37.1920   26.6360   43.3860 H   0  0  0  0  0  0  0  0  0  0  0  0
   36.9590   24.0450   42.9800 H   0  0  0  0  0  0  0  0  0  0  0  0
   36.7340   23.4140   40.1530 C   0  0  0  0  0  3  0  0  0  0  0  0
   37.2600   23.3510   38.7570 C   0  0  0  0  0  2  0  0  0  0  0  0
   38.0190   22.6370   39.8640 C   0  0  0  0  0  2  0  0  0  0  0  0
   37.3120   32.3570   40.5350 O   0  0  0  0  0  0  0  0  0  0  0  0
   38.4540   33.0450   40.1720 C   0  0  0  0  0  0  0  0  0  0  0  0
   38.9230   34.2110   40.7230 C   0  0  0  0  0  0  0  0  0  0  0  0
   40.0840   34.7730   40.2450 C   0  0  0  0  0  0  0  0  0  0  0  0
   40.8150   34.2010   39.2070 C   0  0  0  0  0  0  0  0  0  0  0  0
   41.9300   34.8030   38.7960 N   0  0  0  0  0  0  0  0  0  0  0  0
   42.6680   34.2750   37.7860 C   0  0  0  0  0  0  0  0  0  0  0  0
   42.2170   33.1090   37.2180 C   0  0  0  0  0  0  0  0  0  0  0  0
   41.0480   32.4740   37.6470 C   0  0  0  0  0  0  0  0  0  0  0  0
   40.3240   33.0430   38.6780 C   0  0  0  0  0  0  0  0  0  0  0  0
   39.1530   32.4450   39.1370 C   0  0  0  0  0  0  0  0  0  0  0  0
   38.3290   34.6250   41.5270 H   0  0  0  0  0  0  0  0  0  0  0  0
   40.4290   35.6970   40.7040 H   0  0  0  0  0  0  0  0  0  0  0  0
   43.5660   34.7960   37.4840 H   0  0  0  0  0  0  0  0  0  0  0  0
   42.8180   32.6910   36.4060 H   0  0  0  0  0  0  0  0  0  0  0  0
   40.7280   31.5560   37.1720 H   0  0  0  0  0  0  0  0  0  0  0  0
   38.8640   31.5450   38.6510 H   0  0  0  0  0  0  0  0  0  0  0  0
  1  6  2  0  0  0  0
  1  2  1  0  0  0  0
  2  3  2  0  0  0  0
  3  4  1  0  0  0  0
  3  8  1  0  0  0  0
  5  9  1  0  0  0  0
  5  4  2  0  0  0  0
  6  5  1  0  0  0  0
  7  1  1  0  0  0  0
  9 10  1  0  0  0  0
 10 14  1  0  0  0  0
 11 10  2  0  0  0  0
 11 15  1  0  0  0  0
 12 11  1  0  0  0  0
 13 12  1  0  0  0  0
 13  9  2  0  0  0  0
 16 12  1  0  0  0  0
 17 18  1  0  0  0  0
 17 16  1  0  0  0  0
 18 16  1  0  0  0  0
 19  2  1  0  0  0  0
 20 19  1  0  0  0  0
 20 21  1  0  0  0  0
 21 30  1  0  0  0  0
 22 31  1  0  0  0  0
 22 21  2  0  0  0  0
 23 22  1  0  0  0  0
 24 23  1  0  0  0  0
 25 24  2  0  0  0  0
 26 27  2  0  0  0  0
 26 25  1  0  0  0  0
 27 28  1  0  0  0  0
 28 29  1  0  0  0  0
 28 23  2  0  0  0  0
 29 20  2  0  0  0  0
 32 25  1  0  0  0  0
 33 26  1  0  0  0  0
 34 27  1  0  0  0  0
 35 29  1  0  0  0  0
M  END
>  <minimizedAffinity>
-5.81940794

$$$$

 OpenBabel03242514003D

 35 39  0  0  0  0  0  0  0  0999 V2000
   38.2150   30.3000   38.8650 C   0  0  0  0  0  0  0  0  0  0  0  0
   36.9250   30.2500   39.4120 C   0  0  0  0  0  0  0  0  0  0  0  0
   36.5590   31.2770   40.3200 C   0  0  0  0  0  0  0  0  0  0  0  0
   37.4610   32.2320   40.6020 N   0  0  0  0  0  0  0  0  0  0  0  0
   38.7020   32.2550   40.0580 C   0  0  0  0  0  0  0  0  0  0  0  0
   39.0490   31.2710   39.1890 N   0  0  0  0  0  0  0  0  0  0  0  0
   38.4710   29.5050   38.1740 H   0  0  0  0  0  0  0  0  0  0  0  0
   35.5860   31.2750   40.7600 H   0  0  0  0  0  0  0  0  0  0  0  0
   39.7190   33.2650   40.3290 C   0  0  0  0  0  0  0  0  0  0  0  0
   39.4000   34.6160   40.4030 C   0  0  0  0  0  0  0  0  0  0  0  0
   40.5590   35.3200   40.6690 C   0  0  0  0  0  0  0  0  0  0  0  0
   41.5420   34.3900   40.7490 N   0  0  0  0  0  0  0  0  0  0  0  0
   41.0230   33.1660   40.5420 N   0  0  0  0  0  0  0  0  0  0  0  0
   38.4330   35.0690   40.2810 H   0  0  0  0  0  0  0  0  0  0  0  0
   40.6520   36.3930   40.7860 H   0  0  0  0  0  0  0  0  0  0  0  0
   42.9390   34.6150   41.0080 C   0  0  0  0  0  3  0  0  0  0  0  0
   43.3070   35.4730   42.1750 C   0  0  0  0  0  2  0  0  0  0  0  0
   43.5140   33.9680   42.2700 C   0  0  0  0  0  2  0  0  0  0  0  0
   35.9750   29.2800   39.1400 O   0  0  0  0  0  0  0  0  0  0  0  0
   36.1980   27.9170   39.1960 C   0  0  0  0  0  0  0  0  0  0  0  0
   36.0460   27.0150   38.1740 C   0  0  0  0  0  0  0  0  0  0  0  0
   36.3110   25.6830   38.3940 C   0  0  0  0  0  0  0  0  0  0  0  0
   36.7320   25.2030   39.6310 C   0  0  0  0  0  0  0  0  0  0  0  0
   36.9690   23.8990   39.7700 N   0  0  0  0  0  0  0  0  0  0  0  0
   37.3810   23.3950   40.9620 C   0  0  0  0  0  0  0  0  0  0  0  0
   37.5390   24.2800   42.0000 C   0  0  0  0  0  0  0  0  0  0  0  0
   37.2910   25.6480   41.8590 C   0  0  0  0  0  0  0  0  0  0  0  0
   36.8730   26.1220   40.6290 C   0  0  0  0  0  0  0  0  0  0  0  0
   36.6150   27.4790   40.4430 C   0  0  0  0  0  0  0  0  0  0  0  0
   35.7180   27.4250   37.2270 H   0  0  0  0  0  0  0  0  0  0  0  0
   36.1820   24.9940   37.5620 H   0  0  0  0  0  0  0  0  0  0  0  0
   37.5620   22.3310   41.0300 H   0  0  0  0  0  0  0  0  0  0  0  0
   37.8700   23.8640   42.9560 H   0  0  0  0  0  0  0  0  0  0  0  0
   37.4280   26.3100   42.7030 H   0  0  0  0  0  0  0  0  0  0  0  0
   36.7580   28.1040   41.2900 H   0  0  0  0  0  0  0  0  0  0  0  0
  1  6  2  0  0  0  0
  1  2  1  0  0  0  0
  2  3  2  0  0  0  0
  3  4  1  0  0  0  0
  3  8  1  0  0  0  0
  5  9  1  0  0  0  0
  5  4  2  0  0  0  0
  6  5  1  0  0  0  0
  7  1  1  0  0  0  0
  9 10  1  0  0  0  0
  9 13  2  0  0  0  0
 10 11  2  0  0  0  0
 11 12  1  0  0  0  0
 11 15  1  0  0  0  0
 12 16  1  0  0  0  0
 13 12  1  0  0  0  0
 14 10  1  0  0  0  0
 16 17  1  0  0  0  0
 16 18  1  0  0  0  0
 17 18  1  0  0  0  0
 19 20  1  0  0  0  0
 19  2  1  0  0  0  0
 20 29  1  0  0  0  0
 21 22  1  0  0  0  0
 21 20  2  0  0  0  0
 22 23  2  0  0  0  0
 23 24  1  0  0  0  0
 23 28  1  0  0  0  0
 24 25  2  0  0  0  0
 25 32  1  0  0  0  0
 25 26  1  0  0  0  0
 26 33  1  0  0  0  0
 27 26  2  0  0  0  0
 27 34  1  0  0  0  0
 28 27  1  0  0  0  0
 29 28  2  0  0  0  0
 29 35  1  0  0  0  0
 30 21  1  0  0  0  0
 31 22  1  0  0  0  0
M  END
>  <minimizedAffinity>
-5.79896832

$$$$

 OpenBabel03242514003D

 35 39  0  0  0  0  0  0  0  0999 V2000
   37.0310   29.7980   41.9540 C   0  0  0  0  0  0  0  0  0  0  0  0
   36.9700   30.5180   40.7540 C   0  0  0  0  0  0  0  0  0  0  0  0
   36.9260   29.7740   39.5450 C   0  0  0  0  0  0  0  0  0  0  0  0
   36.9470   28.4330   39.6200 N   0  0  0  0  0  0  0  0  0  0  0  0
   37.0070   27.7630   40.7960 C   0  0  0  0  0  0  0  0  0  0  0  0
   37.0480   28.4780   41.9500 N   0  0  0  0  0  0  0  0  0  0  0  0
   37.0630   30.3870   42.8630 H   0  0  0  0  0  0  0  0  0  0  0  0
   36.8800   30.2850   38.6090 H   0  0  0  0  0  0  0  0  0  0  0  0
   37.0320   26.3110   40.9350 C   0  0  0  0  0  0  0  0  0  0  0  0
   37.0470   25.7020   42.1850 C   0  0  0  0  0  0  0  0  0  0  0  0
   37.0690   24.3330   41.9980 C   0  0  0  0  0  0  0  0  0  0  0  0
   37.0660   24.1460   40.6550 N   0  0  0  0  0  0  0  0  0  0  0  0
   37.0450   25.3400   40.0340 N   0  0  0  0  0  0  0  0  0  0  0  0
   37.0430   26.1790   43.1480 H   0  0  0  0  0  0  0  0  0  0  0  0
   37.0860   23.5740   42.7710 H   0  0  0  0  0  0  0  0  0  0  0  0
   37.0850   22.8950   39.9460 C   0  0  0  0  0  3  0  0  0  0  0  0
   38.0190   22.7570   38.7890 C   0  0  0  0  0  2  0  0  0  0  0  0
   38.3480   22.0440   40.0920 C   0  0  0  0  0  2  0  0  0  0  0  0
   36.9470   31.8990   40.6450 O   0  0  0  0  0  0  0  0  0  0  0  0
   38.0670   32.7010   40.5290 C   0  0  0  0  0  0  0  0  0  0  0  0
   38.1110   33.9930   40.0710 C   0  0  0  0  0  0  0  0  0  0  0  0
   39.3140   34.6580   40.0170 C   0  0  0  0  0  0  0  0  0  0  0  0
   40.5100   34.0650   40.4140 C   0  0  0  0  0  0  0  0  0  0  0  0
   41.6370   34.7700   40.3330 N   0  0  0  0  0  0  0  0  0  0  0  0
   42.8220   34.2250   40.7110 C   0  0  0  0  0  0  0  0  0  0  0  0
   42.8020   32.9320   41.1730 C   0  0  0  0  0  0  0  0  0  0  0  0
   41.6220   32.1880   41.2590 C   0  0  0  0  0  0  0  0  0  0  0  0
   40.4360   32.7790   40.8650 C   0  0  0  0  0  0  0  0  0  0  0  0
   39.2360   32.0750   40.9340 C   0  0  0  0  0  0  0  0  0  0  0  0
   37.1620   34.4200   39.7720 H   0  0  0  0  0  0  0  0  0  0  0  0
   39.3140   35.6820   39.6500 H   0  0  0  0  0  0  0  0  0  0  0  0
   43.7120   34.8330   40.6300 H   0  0  0  0  0  0  0  0  0  0  0  0
   43.7610   32.5010   41.4740 H   0  0  0  0  0  0  0  0  0  0  0  0
   41.6520   31.1720   41.6290 H   0  0  0  0  0  0  0  0  0  0  0  0
   39.2960   31.0800   41.3000 H   0  0  0  0  0  0  0  0  0  0  0  0
  1  7  1  0  0  0  0
  2  1  2  0  0  0  0
  3  4  2  0  0  0  0
  3  2  1  0  0  0  0
  4  5  1  0  0  0  0
  5  9  1  0  0  0  0
  5  6  2  0  0  0  0
  6  1  1  0  0  0  0
  8  3  1  0  0  0  0
  9 10  1  0  0  0  0
 10 14  1  0  0  0  0
 11 10  2  0  0  0  0
 11 15  1  0  0  0  0
 12 11  1  0  0  0  0
 13 12  1  0  0  0  0
 13  9  2  0  0  0  0
 16 18  1  0  0  0  0
 16 12  1  0  0  0  0
 17 16  1  0  0  0  0
 17 18  1  0  0  0  0
 19  2  1  0  0  0  0
 20 19  1  0  0  0  0
 20 29  1  0  0  0  0
 21 20  2  0  0  0  0
 22 21  1  0  0  0  0
 22 23  2  0  0  0  0
 23 28  1  0  0  0  0
 24 23  1  0  0  0  0
 24 25  2  0  0  0  0
 25 26  1  0  0  0  0
 26 27  2  0  0  0  0
 26 33  1  0  0  0  0
 27 34  1  0  0  0  0
 28 29  2  0  0  0  0
 28 27  1  0  0  0  0
 29 35  1  0  0  0  0
 30 21  1  0  0  0  0
 31 22  1  0  0  0  0
 32 25  1  0  0  0  0
M  END
>  <minimizedAffinity>
-5.64472961

$$$$

 OpenBabel03242514003D

 35 39  0  0  0  0  0  0  0  0999 V2000
   38.8350   31.9000   41.0520 C   0  0  0  0  0  0  0  0  0  0  0  0
   39.3030   31.9380   39.7320 C   0  0  0  0  0  0  0  0  0  0  0  0
   39.2860   30.7230   38.9960 C   0  0  0  0  0  0  0  0  0  0  0  0
   38.8270   29.6160   39.6020 N   0  0  0  0  0  0  0  0  0  0  0  0
   38.3810   29.6090   40.8810 C   0  0  0  0  0  0  0  0  0  0  0  0
   38.3970   30.7720   41.5820 N   0  0  0  0  0  0  0  0  0  0  0  0
   38.8580   32.8390   41.5930 H   0  0  0  0  0  0  0  0  0  0  0  0
   39.6340   30.7090   37.9870 H   0  0  0  0  0  0  0  0  0  0  0  0
   37.8730   28.4380   41.5880 C   0  0  0  0  0  0  0  0  0  0  0  0
   37.3790   28.5300   42.8840 C   0  0  0  0  0  0  0  0  0  0  0  0
   36.9740   27.2700   43.2830 C   0  0  0  0  0  0  0  0  0  0  0  0
   37.2290   26.4540   42.2310 N   0  0  0  0  0  0  0  0  0  0  0  0
   37.7660   27.1680   41.2260 N   0  0  0  0  0  0  0  0  0  0  0  0
   37.3090   29.4090   43.4990 H   0  0  0  0  0  0  0  0  0  0  0  0
   36.5450   27.0010   44.2400 H   0  0  0  0  0  0  0  0  0  0  0  0
   36.9860   25.0390   42.1440 C   0  0  0  0  0  3  0  0  0  0  0  0
   37.0800   24.3910   40.8020 C   0  0  0  0  0  2  0  0  0  0  0  0
   38.1910   24.1570   41.8130 C   0  0  0  0  0  2  0  0  0  0  0  0
   39.7820   33.0620   39.0810 O   0  0  0  0  0  0  0  0  0  0  0  0
   41.1150   33.3200   38.8250 C   0  0  0  0  0  0  0  0  0  0  0  0
   41.7400   33.2930   37.6030 C   0  0  0  0  0  0  0  0  0  0  0  0
   43.0840   33.5750   37.5180 C   0  0  0  0  0  0  0  0  0  0  0  0
   43.8500   33.8910   38.6370 C   0  0  0  0  0  0  0  0  0  0  0  0
   45.1470   34.1520   38.4770 N   0  0  0  0  0  0  0  0  0  0  0  0
   45.9260   34.4640   39.5450 C   0  0  0  0  0  0  0  0  0  0  0  0
   45.3220   34.4950   40.7780 C   0  0  0  0  0  0  0  0  0  0  0  0
   43.9620   34.2220   40.9500 C   0  0  0  0  0  0  0  0  0  0  0  0
   43.2030   33.9090   39.8380 C   0  0  0  0  0  0  0  0  0  0  0  0
   41.8440   33.6300   39.9630 C   0  0  0  0  0  0  0  0  0  0  0  0
   41.1120   33.0440   36.7580 H   0  0  0  0  0  0  0  0  0  0  0  0
   43.5490   33.5460   36.5350 H   0  0  0  0  0  0  0  0  0  0  0  0
   46.9730   34.6690   39.3700 H   0  0  0  0  0  0  0  0  0  0  0  0
   45.9570   34.7470   41.6320 H   0  0  0  0  0  0  0  0  0  0  0  0
   43.5270   34.2580   41.9390 H   0  0  0  0  0  0  0  0  0  0  0  0
   41.4450   33.6720   40.9460 H   0  0  0  0  0  0  0  0  0  0  0  0
  1  6  1  0  0  0  0
  1  7  1  0  0  0  0
  2  1  2  0  0  0  0
  3  4  2  0  0  0  0
  3  2  1  0  0  0  0
  4  5  1  0  0  0  0
  5  6  2  0  0  0  0
  5  9  1  0  0  0  0
  8  3  1  0  0  0  0
  9 10  1  0  0  0  0
 10 11  2  0  0  0  0
 10 14  1  0  0  0  0
 11 15  1  0  0  0  0
 12 11  1  0  0  0  0
 13  9  2  0  0  0  0
 13 12  1  0  0  0  0
 16 12  1  0  0  0  0
 17 18  1  0  0  0  0
 17 16  1  0  0  0  0
 18 16  1  0  0  0  0
 19  2  1  0  0  0  0
 20 19  1  0  0  0  0
 20 29  1  0  0  0  0
 21 20  2  0  0  0  0
 22 21  1  0  0  0  0
 22 23  2  0  0  0  0
 23 28  1  0  0  0  0
 24 23  1  0  0  0  0
 24 25  2  0  0  0  0
 25 26  1  0  0  0  0
 26 27  2  0  0  0  0
 26 33  1  0  0  0  0
 27 34  1  0  0  0  0
 28 29  2  0  0  0  0
 28 27  1  0  0  0  0
 29 35  1  0  0  0  0
 30 21  1  0  0  0  0
 31 22  1  0  0  0  0
 32 25  1  0  0  0  0
M  END
>  <minimizedAffinity>
-5.57522726

$$$$

 OpenBabel03242514003D

 35 39  0  0  0  0  0  0  0  0999 V2000
   38.7040   31.0180   39.0980 C   0  0  0  0  0  0  0  0  0  0  0  0
   39.5960   31.9760   39.5990 C   0  0  0  0  0  0  0  0  0  0  0  0
   40.0090   31.8420   40.9500 C   0  0  0  0  0  0  0  0  0  0  0  0
   39.5260   30.8130   41.6660 N   0  0  0  0  0  0  0  0  0  0  0  0
   38.6640   29.9020   41.1550 C   0  0  0  0  0  0  0  0  0  0  0  0
   38.2710   30.0330   39.8620 N   0  0  0  0  0  0  0  0  0  0  0  0
   38.4030   31.1420   38.0640 H   0  0  0  0  0  0  0  0  0  0  0  0
   40.6880   32.5500   41.3710 H   0  0  0  0  0  0  0  0  0  0  0  0
   38.1080   28.7680   41.8860 C   0  0  0  0  0  0  0  0  0  0  0  0
   37.8290   28.8460   43.2460 C   0  0  0  0  0  0  0  0  0  0  0  0
   37.3170   27.6290   43.6530 C   0  0  0  0  0  0  0  0  0  0  0  0
   37.2980   26.8500   42.5430 N   0  0  0  0  0  0  0  0  0  0  0  0
   37.7750   27.5460   41.4950 N   0  0  0  0  0  0  0  0  0  0  0  0
   37.9720   29.6890   43.8980 H   0  0  0  0  0  0  0  0  0  0  0  0
   37.0000   27.3620   44.6540 H   0  0  0  0  0  0  0  0  0  0  0  0
   36.8520   25.4870   42.4400 C   0  0  0  0  0  3  0  0  0  0  0  0
   36.9450   24.8160   41.1090 C   0  0  0  0  0  2  0  0  0  0  0  0
   37.9310   24.4290   42.2010 C   0  0  0  0  0  2  0  0  0  0  0  0
   40.1110   33.0460   38.8860 O   0  0  0  0  0  0  0  0  0  0  0  0
   41.4300   33.1720   38.4930 C   0  0  0  0  0  0  0  0  0  0  0  0
   42.2770   34.2150   38.7720 C   0  0  0  0  0  0  0  0  0  0  0  0
   43.5700   34.1880   38.3040 C   0  0  0  0  0  0  0  0  0  0  0  0
   44.0650   33.1310   37.5440 C   0  0  0  0  0  0  0  0  0  0  0  0
   45.3280   33.1750   37.1240 N   0  0  0  0  0  0  0  0  0  0  0  0
   45.8450   32.1620   36.3820 C   0  0  0  0  0  0  0  0  0  0  0  0
   45.0150   31.1080   36.0890 C   0  0  0  0  0  0  0  0  0  0  0  0
   43.6890   31.0580   36.5270 C   0  0  0  0  0  0  0  0  0  0  0  0
   43.2010   32.1080   37.2810 C   0  0  0  0  0  0  0  0  0  0  0  0
   41.8850   32.1000   37.7400 C   0  0  0  0  0  0  0  0  0  0  0  0
   41.8570   35.0170   39.3650 H   0  0  0  0  0  0  0  0  0  0  0  0
   44.2160   35.0300   38.5430 H   0  0  0  0  0  0  0  0  0  0  0  0
   46.8760   32.2380   36.0620 H   0  0  0  0  0  0  0  0  0  0  0  0
   45.4400   30.2970   35.4900 H   0  0  0  0  0  0  0  0  0  0  0  0
   43.0700   30.2080   36.2740 H   0  0  0  0  0  0  0  0  0  0  0  0
   41.3010   31.2540   37.4750 H   0  0  0  0  0  0  0  0  0  0  0  0
  1  2  2  0  0  0  0
  1  6  1  0  0  0  0
  2  3  1  0  0  0  0
  3  8  1  0  0  0  0
  3  4  2  0  0  0  0
  5  4  1  0  0  0  0
  5  9  1  0  0  0  0
  6  5  2  0  0  0  0
  7  1  1  0  0  0  0
  9 10  1  0  0  0  0
 10 11  2  0  0  0  0
 10 14  1  0  0  0  0
 11 15  1  0  0  0  0
 12 11  1  0  0  0  0
 13  9  2  0  0  0  0
 13 12  1  0  0  0  0
 16 12  1  0  0  0  0
 17 18  1  0  0  0  0
 17 16  1  0  0  0  0
 18 16  1  0  0  0  0
 19  2  1  0  0  0  0
 20 21  1  0  0  0  0
 20 19  1  0  0  0  0
 21 30  1  0  0  0  0
 22 31  1  0  0  0  0
 22 21  2  0  0  0  0
 23 22  1  0  0  0  0
 24 23  2  0  0  0  0
 25 24  1  0  0  0  0
 26 25  2  0  0  0  0
 26 27  1  0  0  0  0
 27 28  2  0  0  0  0
 28 23  1  0  0  0  0
 28 29  1  0  0  0  0
 29 20  2  0  0  0  0
 32 25  1  0  0  0  0
 33 26  1  0  0  0  0
 34 27  1  0  0  0  0
 35 29  1  0  0  0  0
M  END
>  <minimizedAffinity>
-5.42076302

$$$$

 OpenBabel03242514003D

 35 39  0  0  0  0  0  0  0  0999 V2000
   36.4110   28.0790   40.7380 C   0  0  0  0  0  0  0  0  0  0  0  0
   36.9020   29.2330   41.3650 C   0  0  0  0  0  0  0  0  0  0  0  0
   36.7860   30.4590   40.6590 C   0  0  0  0  0  0  0  0  0  0  0  0
   36.2180   30.4450   39.4420 N   0  0  0  0  0  0  0  0  0  0  0  0
   35.7530   29.3130   38.8610 C   0  0  0  0  0  0  0  0  0  0  0  0
   35.8650   28.1410   39.5380 N   0  0  0  0  0  0  0  0  0  0  0  0
   36.5110   27.1550   41.2960 H   0  0  0  0  0  0  0  0  0  0  0  0
   37.1480   31.3620   41.1010 H   0  0  0  0  0  0  0  0  0  0  0  0
   35.1290   29.2400   37.5440 C   0  0  0  0  0  0  0  0  0  0  0  0
   35.8900   29.2260   36.3800 C   0  0  0  0  0  0  0  0  0  0  0  0
   35.0280   29.1520   35.3020 C   0  0  0  0  0  0  0  0  0  0  0  0
   33.7810   29.1220   35.8310 N   0  0  0  0  0  0  0  0  0  0  0  0
   33.8590   29.1760   37.1740 N   0  0  0  0  0  0  0  0  0  0  0  0
   36.9610   29.2650   36.2950 H   0  0  0  0  0  0  0  0  0  0  0  0
   35.3030   29.1240   34.2540 H   0  0  0  0  0  0  0  0  0  0  0  0
   32.5320   29.0470   35.1220 C   0  0  0  0  0  3  0  0  0  0  0  0
   31.3150   29.6080   35.7820 C   0  0  0  0  0  2  0  0  0  0  0  0
   31.9450   30.3700   34.6260 C   0  0  0  0  0  2  0  0  0  0  0  0
   37.4910   29.2790   42.6170 O   0  0  0  0  0  0  0  0  0  0  0  0
   38.5280   28.4650   43.0330 C   0  0  0  0  0  0  0  0  0  0  0  0
   38.4210   27.2560   43.6730 C   0  0  0  0  0  0  0  0  0  0  0  0
   39.5580   26.5660   44.0220 C   0  0  0  0  0  0  0  0  0  0  0  0
   40.8350   27.0500   43.7510 C   0  0  0  0  0  0  0  0  0  0  0  0
   41.8910   26.3260   44.1190 N   0  0  0  0  0  0  0  0  0  0  0  0
   43.1520   26.7660   43.8710 C   0  0  0  0  0  0  0  0  0  0  0  0
   43.2830   27.9740   43.2320 C   0  0  0  0  0  0  0  0  0  0  0  0
   42.1790   28.7370   42.8430 C   0  0  0  0  0  0  0  0  0  0  0  0
   40.9120   28.2540   43.1140 C   0  0  0  0  0  0  0  0  0  0  0  0
   39.7820   28.9810   42.7440 C   0  0  0  0  0  0  0  0  0  0  0  0
   37.4130   26.9130   43.8670 H   0  0  0  0  0  0  0  0  0  0  0  0
   39.4390   25.6100   44.5280 H   0  0  0  0  0  0  0  0  0  0  0  0
   43.9800   26.1460   44.1870 H   0  0  0  0  0  0  0  0  0  0  0  0
   44.3020   28.3200   43.0370 H   0  0  0  0  0  0  0  0  0  0  0  0
   42.3270   29.6840   42.3420 H   0  0  0  0  0  0  0  0  0  0  0  0
   39.9590   29.9060   42.2540 H   0  0  0  0  0  0  0  0  0  0  0  0
  1  7  1  0  0  0  0
  1  2  1  0  0  0  0
  2 19  1  0  0  0  0
  3  8  1  0  0  0  0
  3  2  2  0  0  0  0
  4  3  1  0  0  0  0
  5  4  2  0  0  0  0
  5  6  1  0  0  0  0
  6  1  2  0  0  0  0
  9  5  1  0  0  0  0
 10  9  1  0  0  0  0
 11 12  1  0  0  0  0
 11 10  2  0  0  0  0
 12 13  1  0  0  0  0
 13  9  2  0  0  0  0
 14 10  1  0  0  0  0
 15 11  1  0  0  0  0
 16 17  1  0  0  0  0
 16 12  1  0  0  0  0
 18 16  1  0  0  0  0
 18 17  1  0  0  0  0
 19 20  1  0  0  0  0
 20 21  1  0  0  0  0
 21 30  1  0  0  0  0
 21 22  2  0  0  0  0
 22 31  1  0  0  0  0
 23 22  1  0  0  0  0
 23 24  1  0  0  0  0
 25 24  2  0  0  0  0
 25 32  1  0  0  0  0
 26 25  1  0  0  0  0
 27 28  1  0  0  0  0
 27 26  2  0  0  0  0
 28 23  2  0  0  0  0
 29 20  2  0  0  0  0
 29 28  1  0  0  0  0
 33 26  1  0  0  0  0
 34 27  1  0  0  0  0
 35 29  1  0  0  0  0
M  END
>  <minimizedAffinity>
-5.41534424

$$$$

 OpenBabel03242514003D

 35 39  0  0  0  0  0  0  0  0999 V2000
   38.9750   30.2030   38.9930 C   0  0  0  0  0  0  0  0  0  0  0  0
   38.8200   31.4070   39.6930 C   0  0  0  0  0  0  0  0  0  0  0  0
   38.2010   31.3460   40.9700 C   0  0  0  0  0  0  0  0  0  0  0  0
   37.8020   30.1480   41.4290 N   0  0  0  0  0  0  0  0  0  0  0  0
   37.9640   29.0000   40.7290 C   0  0  0  0  0  0  0  0  0  0  0  0
   38.5580   29.0620   39.5090 N   0  0  0  0  0  0  0  0  0  0  0  0
   39.4490   30.2750   38.0210 H   0  0  0  0  0  0  0  0  0  0  0  0
   38.0630   32.2400   41.5360 H   0  0  0  0  0  0  0  0  0  0  0  0
   37.5510   27.6750   41.1790 C   0  0  0  0  0  0  0  0  0  0  0  0
   37.3370   27.3990   42.5250 C   0  0  0  0  0  0  0  0  0  0  0  0
   36.9580   26.0750   42.6390 C   0  0  0  0  0  0  0  0  0  0  0  0
   36.9500   25.5860   41.3750 N   0  0  0  0  0  0  0  0  0  0  0  0
   37.3070   26.5560   40.5140 N   0  0  0  0  0  0  0  0  0  0  0  0
   37.4400   28.0720   43.3570 H   0  0  0  0  0  0  0  0  0  0  0  0
   36.7190   25.5470   43.5540 H   0  0  0  0  0  0  0  0  0  0  0  0
   36.6210   24.2500   40.9580 C   0  0  0  0  0  3  0  0  0  0  0  0
   36.9770   23.8410   39.5650 C   0  0  0  0  0  2  0  0  0  0  0  0
   37.7960   23.2970   40.7260 C   0  0  0  0  0  2  0  0  0  0  0  0
   39.2200   32.6550   39.2460 O   0  0  0  0  0  0  0  0  0  0  0  0
   40.1650   33.4510   39.8660 C   0  0  0  0  0  0  0  0  0  0  0  0
   40.1380   34.8170   39.9890 C   0  0  0  0  0  0  0  0  0  0  0  0
   41.1630   35.4640   40.6400 C   0  0  0  0  0  0  0  0  0  0  0  0
   42.2450   34.7800   41.1880 C   0  0  0  0  0  0  0  0  0  0  0  0
   43.2010   35.4740   41.8040 N   0  0  0  0  0  0  0  0  0  0  0  0
   44.2720   34.8410   42.3500 C   0  0  0  0  0  0  0  0  0  0  0  0
   44.3200   33.4730   42.2390 C   0  0  0  0  0  0  0  0  0  0  0  0
   43.3190   32.7410   41.5940 C   0  0  0  0  0  0  0  0  0  0  0  0
   42.2450   33.4220   41.0510 C   0  0  0  0  0  0  0  0  0  0  0  0
   41.2250   32.7330   40.3990 C   0  0  0  0  0  0  0  0  0  0  0  0
   39.2820   35.3130   39.5510 H   0  0  0  0  0  0  0  0  0  0  0  0
   41.1120   36.5470   40.7210 H   0  0  0  0  0  0  0  0  0  0  0  0
   45.0240   35.4430   42.8410 H   0  0  0  0  0  0  0  0  0  0  0  0
   45.1850   32.9720   42.6820 H   0  0  0  0  0  0  0  0  0  0  0  0
   43.3960   31.6640   41.5290 H   0  0  0  0  0  0  0  0  0  0  0  0
   41.3290   31.6780   40.3500 H   0  0  0  0  0  0  0  0  0  0  0  0
  1  6  2  0  0  0  0
  1  2  1  0  0  0  0
  2  3  2  0  0  0  0
  3  4  1  0  0  0  0
  3  8  1  0  0  0  0
  5  9  1  0  0  0  0
  5  4  2  0  0  0  0
  6  5  1  0  0  0  0
  7  1  1  0  0  0  0
  9 10  1  0  0  0  0
 10 11  2  0  0  0  0
 10 14  1  0  0  0  0
 11 15  1  0  0  0  0
 12 11  1  0  0  0  0
 13  9  2  0  0  0  0
 13 12  1  0  0  0  0
 16 12  1  0  0  0  0
 17 18  1  0  0  0  0
 17 16  1  0  0  0  0
 18 16  1  0  0  0  0
 19  2  1  0  0  0  0
 19 20  1  0  0  0  0
 20 21  2  0  0  0  0
 20 29  1  0  0  0  0
 21 22  1  0  0  0  0
 22 31  1  0  0  0  0
 22 23  2  0  0  0  0
 23 24  1  0  0  0  0
 24 25  2  0  0  0  0
 25 32  1  0  0  0  0
 26 25  1  0  0  0  0
 26 33  1  0  0  0  0
 27 26  2  0  0  0  0
 28 23  1  0  0  0  0
 28 27  1  0  0  0  0
 29 28  2  0  0  0  0
 30 21  1  0  0  0  0
 34 27  1  0  0  0  0
 35 29  1  0  0  0  0
M  END
>  <minimizedAffinity>
-5.30183554

$$$$
