
 OpenBabel03242514553D

 13 14  0  0  0  0  0  0  0  0999 V2000
   45.4690   34.6120   43.9660 C   0  0  0  0  0  0  0  0  0  0  0  0
   46.5290   33.8760   43.4330 C   0  0  0  0  0  0  0  0  0  0  0  0
   47.2020   32.9810   44.2860 C   0  0  0  0  0  0  0  0  0  0  0  0
   46.7770   32.8900   45.5730 N   0  0  0  0  0  0  0  0  0  0  0  0
   45.7490   33.6170   46.0500 C   0  0  0  0  0  0  0  0  0  0  0  0
   45.0800   34.4860   45.2610 N   0  0  0  0  0  0  0  0  0  0  0  0
   46.8560   33.9550   42.4150 H   0  0  0  0  0  0  0  0  0  0  0  0
   48.0180   32.4150   43.8750 H   0  0  0  0  0  0  0  0  0  0  0  0
   45.4660   33.4930   47.0860 H   0  0  0  0  0  0  0  0  0  0  0  0
   44.6880   35.7180   42.7840 S   0  0  0  0  0  0  0  0  0  0  0  0
   43.5400   34.7350   41.7570 C   0  0  0  0  0  0  0  0  0  0  0  0
   43.1570   35.1840   40.4100 C   0  0  0  0  0  0  0  0  0  0  0  0
   42.1940   35.3280   41.5540 C   0  0  0  0  0  0  0  0  0  0  0  0
  1  6  1  0  0  0  0
  2  1  2  0  0  0  0
  2  3  1  0  0  0  0
  3  4  2  0  0  0  0
  4  5  1  0  0  0  0
  5  9  1  0  0  0  0
  6  5  2  0  0  0  0
  7  2  1  0  0  0  0
  8  3  1  0  0  0  0
 10  1  1  0  0  0  0
 11 10  1  0  0  0  0
 12 13  1  0  0  0  0
 12 11  1  0  0  0  0
 13 11  1  0  0  0  0
M  END
>  <minimizedAffinity>
-3.08508658

>  <minimizedRMSD>
0.443730175

$$$$
