
 OpenBabel03252503353D

 16 17  0  0  0  0  0  0  0  0999 V2000
   44.5190   36.1310   44.5980 C   0  0  0  0  0  0  0  0  0  0  0  0
   45.2080   36.0000   43.3650 C   0  0  0  0  0  0  0  0  0  0  0  0
   46.0270   34.8810   43.1880 C   0  0  0  0  0  0  0  0  0  0  0  0
   46.1280   33.9840   44.1850 N   0  0  0  0  0  0  0  0  0  0  0  0
   45.4670   34.1160   45.3600 C   0  0  0  0  0  0  0  0  0  0  0  0
   44.6690   35.1860   45.5550 N   0  0  0  0  0  0  0  0  0  0  0  0
   43.8600   36.9880   44.7960 H   0  0  0  0  0  0  0  0  0  0  0  0
   45.0840   36.7540   42.6050 H   0  0  0  0  0  0  0  0  0  0  0  0
   45.6460   33.3170   46.0640 H   0  0  0  0  0  0  0  0  0  0  0  0
   46.1550   34.0080   40.8600 C   0  0  0  0  0  0  0  0  0  0  0  0
   44.9550   33.6320   41.0540 O   0  0  0  0  0  0  0  0  0  0  0  0
   46.7360   34.7050   41.9760 N   0  0  0  0  0  0  0  0  0  0  0  0
   47.7190   35.0810   41.8470 H   0  0  0  0  0  0  0  0  0  0  0  0
   46.9760   33.8000   39.6400 C   0  0  0  0  0  3  0  0  0  0  0  0
   48.4430   33.4940   39.7600 C   0  0  0  0  0  2  0  0  0  0  0  0
   47.5180   32.3590   39.4850 C   0  0  0  0  0  2  0  0  0  0  0  0
  1  7  1  0  0  0  0
  1  6  1  0  0  0  0
  2  1  2  0  0  0  0
  3  2  1  0  0  0  0
  3  4  2  0  0  0  0
  4  5  1  0  0  0  0
  5  6  2  0  0  0  0
  5  9  1  0  0  0  0
  8  2  1  0  0  0  0
 10 11  2  0  0  0  0
 10 12  1  0  0  0  0
 12  3  1  0  0  0  0
 13 12  1  0  0  0  0
 14 15  1  0  0  0  0
 14 10  1  0  0  0  0
 16 14  1  0  0  0  0
 16 15  1  0  0  0  0
M  END
>  <minimizedAffinity>
-3.57503843

>  <minimizedRMSD>
0.287039101

$$$$
