
 OpenBabel03252508273D

 35 39  0  0  1  0  0  0  0  0999 V2000
   38.3960   29.2740   42.7290 C   0  0  1  0  0  0  0  0  0  0  0  0
   37.3790   28.8000   43.6780 C   0  0  0  0  0  0  0  0  0  0  0  0
   37.8790   27.9530   42.4380 C   0  0  2  0  0  0  0  0  0  0  0  0
   39.3170   29.5060   43.3760 H   0  0  0  0  0  0  0  0  0  0  0  0
   36.3630   29.1820   43.6350 H   0  0  0  0  0  0  0  0  0  0  0  0
   37.6020   28.2640   44.6160 H   0  0  0  0  0  0  0  0  0  0  0  0
   36.9170   27.7600   41.8640 H   0  0  0  0  0  0  0  0  0  0  0  0
   38.5880   26.6920   42.6680 C   0  0  0  0  0  0  0  0  0  0  0  0
   39.6640   26.4790   43.4690 C   0  0  0  0  0  0  0  0  0  0  0  0
   40.3880   25.2950   43.5610 C   0  0  0  0  0  0  0  0  0  0  0  0
   39.9570   24.2370   42.7490 C   0  0  0  0  0  0  0  0  0  0  0  0
   38.8520   24.4270   41.9180 C   0  0  0  0  0  0  0  0  0  0  0  0
   38.4290   23.3310   41.1870 C   0  0  0  0  0  0  0  0  0  0  0  0
   37.2860   23.4560   40.4000 C   0  0  0  0  0  0  0  0  0  0  0  0
   36.5860   24.6440   40.3520 C   0  0  0  0  0  0  0  0  0  0  0  0
   37.0560   25.6970   41.0990 C   0  0  0  0  0  0  0  0  0  0  0  0
   38.1930   25.6320   41.8930 C   0  0  0  0  0  0  0  0  0  0  0  0
   39.9660   27.3260   44.0820 H   0  0  0  0  0  0  0  0  0  0  0  0
   41.2340   25.1990   44.2230 H   0  0  0  0  0  0  0  0  0  0  0  0
   40.5180   23.3300   42.8210 H   0  0  0  0  0  0  0  0  0  0  0  0
   38.9970   22.4120   41.2460 H   0  0  0  0  0  0  0  0  0  0  0  0
   37.0470   22.5300   39.8650 H   0  0  0  0  0  0  0  0  0  0  0  0
   35.7500   24.5390   39.7050 H   0  0  0  0  0  0  0  0  0  0  0  0
   36.3260   26.4450   40.9700 H   0  0  0  0  0  0  0  0  0  0  0  0
   36.6160   31.4960   40.3780 C   0  0  0  0  0  0  0  0  0  0  0  0
   37.6390   32.4370   40.0120 C   0  0  0  0  0  0  0  0  0  0  0  0
   38.9280   32.2730   40.6140 C   0  0  0  0  0  0  0  0  0  0  0  0
   39.1350   31.2680   41.4800 N   0  0  0  0  0  0  0  0  0  0  0  0
   38.1090   30.3970   41.7880 C   0  0  0  0  0  0  0  0  0  0  0  0
   36.8950   30.5090   41.2560 N   0  0  0  0  0  0  0  0  0  0  0  0
   35.6680   31.6650   39.8970 H   0  0  0  0  0  0  0  0  0  0  0  0
   37.4290   33.2330   39.3100 H   0  0  0  0  0  0  0  0  0  0  0  0
   39.9650   33.2470   40.2290 C   0  0  0  0  0  3  0  0  0  0  0  0
   41.3450   32.9900   40.7220 C   0  0  0  0  0  2  0  0  0  0  0  0
   40.9940   32.9080   39.2340 C   0  0  0  0  0  2  0  0  0  0  0  0
  1  4  1  1  0  0  0
  1  2  1  0  0  0  0
  2  6  1  0  0  0  0
  3  7  1  6  0  0  0
  3  8  1  0  0  0  0
  3  1  1  0  0  0  0
  3  2  1  0  0  0  0
  5  2  1  0  0  0  0
  8  9  1  0  0  0  0
  9 10  2  0  0  0  0
  9 18  1  0  0  0  0
 10 19  1  0  0  0  0
 11 20  1  0  0  0  0
 11 10  1  0  0  0  0
 12 11  2  0  0  0  0
 13 21  1  0  0  0  0
 13 12  1  0  0  0  0
 14 13  2  0  0  0  0
 15 14  1  0  0  0  0
 15 16  2  0  0  0  0
 16 17  1  0  0  0  0
 17 12  1  0  0  0  0
 17  8  2  0  0  0  0
 22 14  1  0  0  0  0
 23 15  1  0  0  0  0
 24 16  1  0  0  0  0
 25 30  1  0  0  0  0
 26 25  2  0  0  0  0
 26 27  1  0  0  0  0
 27 28  2  0  0  0  0
 28 29  1  0  0  0  0
 29  1  1  0  0  0  0
 30 29  2  0  0  0  0
 31 25  1  0  0  0  0
 32 26  1  0  0  0  0
 33 27  1  0  0  0  0
 33 34  1  0  0  0  0
 35 33  1  0  0  0  0
 35 34  1  0  0  0  0
M  END
>  <minimizedAffinity>
-6.13620472

$$$$

 OpenBabel03252508273D

 35 39  0  0  1  0  0  0  0  0999 V2000
   38.8740   29.5890   42.5950 C   0  0  1  0  0  0  0  0  0  0  0  0
   37.7010   29.2510   43.4130 C   0  0  0  0  0  0  0  0  0  0  0  0
   38.2670   28.3150   42.2710 C   0  0  2  0  0  0  0  0  0  0  0  0
   39.7230   29.7530   43.3510 H   0  0  0  0  0  0  0  0  0  0  0  0
   36.7430   29.7290   43.2270 H   0  0  0  0  0  0  0  0  0  0  0  0
   37.7450   28.7320   44.3840 H   0  0  0  0  0  0  0  0  0  0  0  0
   37.3720   28.1950   41.5800 H   0  0  0  0  0  0  0  0  0  0  0  0
   38.8090   27.0000   42.6230 C   0  0  0  0  0  0  0  0  0  0  0  0
   39.8340   26.7240   43.4710 C   0  0  0  0  0  0  0  0  0  0  0  0
   40.4030   25.4730   43.6800 C   0  0  0  0  0  0  0  0  0  0  0  0
   39.8600   24.4110   42.9430 C   0  0  0  0  0  0  0  0  0  0  0  0
   38.8040   24.6640   42.0660 C   0  0  0  0  0  0  0  0  0  0  0  0
   38.2630   23.5720   41.4120 C   0  0  0  0  0  0  0  0  0  0  0  0
   37.1610   23.7690   40.5830 C   0  0  0  0  0  0  0  0  0  0  0  0
   36.6150   25.0260   40.4180 C   0  0  0  0  0  0  0  0  0  0  0  0
   37.1980   26.0730   41.0930 C   0  0  0  0  0  0  0  0  0  0  0  0
   38.3010   25.9350   41.9230 C   0  0  0  0  0  0  0  0  0  0  0  0
   40.2260   27.5760   44.0230 H   0  0  0  0  0  0  0  0  0  0  0  0
   41.2160   25.3290   44.3720 H   0  0  0  0  0  0  0  0  0  0  0  0
   40.3020   23.4510   43.1040 H   0  0  0  0  0  0  0  0  0  0  0  0
   38.7110   22.5980   41.5620 H   0  0  0  0  0  0  0  0  0  0  0  0
   36.8190   22.8390   40.1170 H   0  0  0  0  0  0  0  0  0  0  0  0
   35.7860   24.9710   39.7570 H   0  0  0  0  0  0  0  0  0  0  0  0
   36.5690   26.8910   40.8810 H   0  0  0  0  0  0  0  0  0  0  0  0
   39.5240   32.8170   40.9260 C   0  0  0  0  0  0  0  0  0  0  0  0
   38.6640   32.7460   39.7750 C   0  0  0  0  0  0  0  0  0  0  0  0
   37.8860   31.5540   39.6100 C   0  0  0  0  0  0  0  0  0  0  0  0
   37.9830   30.5660   40.5140 N   0  0  0  0  0  0  0  0  0  0  0  0
   38.8270   30.6980   41.5980 C   0  0  0  0  0  0  0  0  0  0  0  0
   39.5700   31.7850   41.7940 N   0  0  0  0  0  0  0  0  0  0  0  0
   40.0840   33.7320   41.0010 H   0  0  0  0  0  0  0  0  0  0  0  0
   38.6170   33.5660   39.0710 H   0  0  0  0  0  0  0  0  0  0  0  0
   37.0110   31.4970   38.4250 C   0  0  0  0  0  3  0  0  0  0  0  0
   37.6380   31.0700   37.1460 C   0  0  0  0  0  2  0  0  0  0  0  0
   36.5890   30.2090   37.8540 C   0  0  0  0  0  2  0  0  0  0  0  0
  1  4  1  1  0  0  0
  1  2  1  0  0  0  0
  2  6  1  0  0  0  0
  3  7  1  6  0  0  0
  3  1  1  0  0  0  0
  3  8  1  0  0  0  0
  3  2  1  0  0  0  0
  5  2  1  0  0  0  0
  8  9  1  0  0  0  0
  9 10  2  0  0  0  0
  9 18  1  0  0  0  0
 10 19  1  0  0  0  0
 11 20  1  0  0  0  0
 11 10  1  0  0  0  0
 12 11  2  0  0  0  0
 13 21  1  0  0  0  0
 13 12  1  0  0  0  0
 14 13  2  0  0  0  0
 15 14  1  0  0  0  0
 15 16  2  0  0  0  0
 16 17  1  0  0  0  0
 17 12  1  0  0  0  0
 17  8  2  0  0  0  0
 22 14  1  0  0  0  0
 23 15  1  0  0  0  0
 24 16  1  0  0  0  0
 25 31  1  0  0  0  0
 25 30  1  0  0  0  0
 26 25  2  0  0  0  0
 27 26  1  0  0  0  0
 27 28  2  0  0  0  0
 28 29  1  0  0  0  0
 29 30  2  0  0  0  0
 29  1  1  0  0  0  0
 32 26  1  0  0  0  0
 33 27  1  0  0  0  0
 34 35  1  0  0  0  0
 34 33  1  0  0  0  0
 35 33  1  0  0  0  0
M  END
>  <minimizedAffinity>
-6.09721899

$$$$

 OpenBabel03252508273D

 35 39  0  0  1  0  0  0  0  0999 V2000
   35.0070   28.9440   38.1050 C   0  0  1  0  0  0  0  0  0  0  0  0
   34.4640   27.5990   37.8720 C   0  0  0  0  0  0  0  0  0  0  0  0
   33.5620   28.8890   38.0300 C   0  0  2  0  0  0  0  0  0  0  0  0
   35.7170   29.1330   37.2210 H   0  0  0  0  0  0  0  0  0  0  0  0
   34.4270   26.8710   38.6780 H   0  0  0  0  0  0  0  0  0  0  0  0
   34.3110   27.1510   36.8760 H   0  0  0  0  0  0  0  0  0  0  0  0
   32.8910   28.6170   38.9060 H   0  0  0  0  0  0  0  0  0  0  0  0
   32.7510   29.3420   36.8970 C   0  0  0  0  0  0  0  0  0  0  0  0
   33.1180   29.4200   35.5920 C   0  0  0  0  0  0  0  0  0  0  0  0
   32.3620   29.9770   34.5660 C   0  0  0  0  0  0  0  0  0  0  0  0
   31.1120   30.4990   34.9260 C   0  0  0  0  0  0  0  0  0  0  0  0
   30.7070   30.4300   36.2600 C   0  0  0  0  0  0  0  0  0  0  0  0
   29.4390   30.9010   36.5510 C   0  0  0  0  0  0  0  0  0  0  0  0
   28.9670   30.7840   37.8560 C   0  0  0  0  0  0  0  0  0  0  0  0
   29.7440   30.2070   38.8410 C   0  0  0  0  0  0  0  0  0  0  0  0
   30.9960   29.7590   38.4920 C   0  0  0  0  0  0  0  0  0  0  0  0
   31.5190   29.8590   37.2100 C   0  0  0  0  0  0  0  0  0  0  0  0
   34.0950   29.0040   35.3550 H   0  0  0  0  0  0  0  0  0  0  0  0
   32.7190   30.0030   33.5490 H   0  0  0  0  0  0  0  0  0  0  0  0
   30.5350   30.9290   34.1350 H   0  0  0  0  0  0  0  0  0  0  0  0
   28.8520   31.3460   35.7570 H   0  0  0  0  0  0  0  0  0  0  0  0
   27.9570   31.1900   37.9710 H   0  0  0  0  0  0  0  0  0  0  0  0
   29.2110   30.2060   39.7600 H   0  0  0  0  0  0  0  0  0  0  0  0
   31.3510   29.2950   39.3670 H   0  0  0  0  0  0  0  0  0  0  0  0
   36.7020   30.8880   40.7460 C   0  0  0  0  0  0  0  0  0  0  0  0
   36.9180   29.8980   41.7660 C   0  0  0  0  0  0  0  0  0  0  0  0
   36.4480   28.5700   41.5010 C   0  0  0  0  0  0  0  0  0  0  0  0
   35.8360   28.3010   40.3370 N   0  0  0  0  0  0  0  0  0  0  0  0
   35.6610   29.2990   39.3990 C   0  0  0  0  0  0  0  0  0  0  0  0
   36.0800   30.5460   39.5990 N   0  0  0  0  0  0  0  0  0  0  0  0
   37.0740   31.8660   40.9960 H   0  0  0  0  0  0  0  0  0  0  0  0
   37.4160   30.1580   42.6900 H   0  0  0  0  0  0  0  0  0  0  0  0
   36.6760   27.5670   42.5560 C   0  0  0  0  0  3  0  0  0  0  0  0
   37.9950   26.8800   42.5570 C   0  0  0  0  0  2  0  0  0  0  0  0
   37.5860   27.8380   43.6790 C   0  0  0  0  0  2  0  0  0  0  0  0
  1  4  1  6  0  0  0
  1 29  1  0  0  0  0
  2  3  1  0  0  0  0
  2  1  1  0  0  0  0
  2  5  1  0  0  0  0
  3  1  1  0  0  0  0
  3  7  1  1  0  0  0
  6  2  1  0  0  0  0
  8 17  1  0  0  0  0
  8  3  1  0  0  0  0
  9  8  2  0  0  0  0
 10 11  2  0  0  0  0
 10  9  1  0  0  0  0
 11 12  1  0  0  0  0
 12 13  2  0  0  0  0
 12 17  1  0  0  0  0
 13 14  1  0  0  0  0
 14 22  1  0  0  0  0
 14 15  2  0  0  0  0
 15 23  1  0  0  0  0
 16 15  1  0  0  0  0
 16 24  1  0  0  0  0
 17 16  2  0  0  0  0
 18  9  1  0  0  0  0
 19 10  1  0  0  0  0
 20 11  1  0  0  0  0
 21 13  1  0  0  0  0
 25 31  1  0  0  0  0
 25 26  1  0  0  0  0
 26 32  1  0  0  0  0
 27 26  2  0  0  0  0
 27 33  1  0  0  0  0
 28 27  1  0  0  0  0
 29 30  1  0  0  0  0
 29 28  2  0  0  0  0
 30 25  2  0  0  0  0
 33 34  1  0  0  0  0
 33 35  1  0  0  0  0
 34 35  1  0  0  0  0
M  END
>  <minimizedAffinity>
-6.00176287

$$$$

 OpenBabel03252508273D

 35 39  0  0  1  0  0  0  0  0999 V2000
   38.7210   28.7310   42.3520 C   0  0  1  0  0  0  0  0  0  0  0  0
   37.5980   28.7740   43.2990 C   0  0  0  0  0  0  0  0  0  0  0  0
   37.4620   28.2670   41.8070 C   0  0  2  0  0  0  0  0  0  0  0  0
   39.5130   28.0730   42.8630 H   0  0  0  0  0  0  0  0  0  0  0  0
   37.1180   29.7170   43.5440 H   0  0  0  0  0  0  0  0  0  0  0  0
   37.3400   27.9620   43.9990 H   0  0  0  0  0  0  0  0  0  0  0  0
   36.6620   28.9540   41.3820 H   0  0  0  0  0  0  0  0  0  0  0  0
   37.1090   26.8680   41.5520 C   0  0  0  0  0  0  0  0  0  0  0  0
   37.2490   25.8100   42.3930 C   0  0  0  0  0  0  0  0  0  0  0  0
   37.0220   24.4770   42.0680 C   0  0  0  0  0  0  0  0  0  0  0  0
   36.6130   24.2180   40.7530 C   0  0  0  0  0  0  0  0  0  0  0  0
   36.4580   25.2850   39.8680 C   0  0  0  0  0  0  0  0  0  0  0  0
   35.9910   24.9820   38.6010 C   0  0  0  0  0  0  0  0  0  0  0  0
   35.7530   26.0250   37.7100 C   0  0  0  0  0  0  0  0  0  0  0  0
   35.9730   27.3360   38.0790 C   0  0  0  0  0  0  0  0  0  0  0  0
   36.4400   27.5750   39.3500 C   0  0  0  0  0  0  0  0  0  0  0  0
   36.7030   26.5740   40.2750 C   0  0  0  0  0  0  0  0  0  0  0  0
   37.5680   26.0550   43.4040 H   0  0  0  0  0  0  0  0  0  0  0  0
   37.1530   23.6890   42.7910 H   0  0  0  0  0  0  0  0  0  0  0  0
   36.4430   23.1910   40.5060 H   0  0  0  0  0  0  0  0  0  0  0  0
   35.8250   23.9440   38.3410 H   0  0  0  0  0  0  0  0  0  0  0  0
   35.3890   25.6680   36.7410 H   0  0  0  0  0  0  0  0  0  0  0  0
   35.7320   27.9800   37.2700 H   0  0  0  0  0  0  0  0  0  0  0  0
   36.4470   28.6260   39.4230 H   0  0  0  0  0  0  0  0  0  0  0  0
   41.0370   31.5700   41.8990 C   0  0  0  0  0  0  0  0  0  0  0  0
   40.3910   32.3310   40.8650 C   0  0  0  0  0  0  0  0  0  0  0  0
   39.1590   31.8170   40.3430 C   0  0  0  0  0  0  0  0  0  0  0  0
   38.6610   30.6680   40.8270 N   0  0  0  0  0  0  0  0  0  0  0  0
   39.3320   29.9860   41.8210 C   0  0  0  0  0  0  0  0  0  0  0  0
   40.4780   30.4220   42.3370 N   0  0  0  0  0  0  0  0  0  0  0  0
   41.9570   32.0010   42.2540 H   0  0  0  0  0  0  0  0  0  0  0  0
   40.8270   33.2530   40.5040 H   0  0  0  0  0  0  0  0  0  0  0  0
   38.5100   32.6090   39.2840 C   0  0  0  0  0  3  0  0  0  0  0  0
   37.2250   32.0860   38.7460 C   0  0  0  0  0  2  0  0  0  0  0  0
   37.2890   33.3850   39.5540 C   0  0  0  0  0  2  0  0  0  0  0  0
  1  4  1  1  0  0  0
  1  2  1  0  0  0  0
  2  5  1  0  0  0  0
  2  6  1  0  0  0  0
  3  7  1  6  0  0  0
  3  1  1  0  0  0  0
  3  2  1  0  0  0  0
  8  3  1  0  0  0  0
  8  9  1  0  0  0  0
  9 18  1  0  0  0  0
 10  9  2  0  0  0  0
 10 19  1  0  0  0  0
 11 10  1  0  0  0  0
 12 17  1  0  0  0  0
 12 11  2  0  0  0  0
 13 12  1  0  0  0  0
 14 15  1  0  0  0  0
 14 13  2  0  0  0  0
 15 16  2  0  0  0  0
 16 24  1  0  0  0  0
 16 17  1  0  0  0  0
 17  8  2  0  0  0  0
 20 11  1  0  0  0  0
 21 13  1  0  0  0  0
 22 14  1  0  0  0  0
 23 15  1  0  0  0  0
 25 31  1  0  0  0  0
 25 30  1  0  0  0  0
 26 25  2  0  0  0  0
 27 28  2  0  0  0  0
 27 26  1  0  0  0  0
 28 29  1  0  0  0  0
 29 30  2  0  0  0  0
 29  1  1  0  0  0  0
 32 26  1  0  0  0  0
 33 35  1  0  0  0  0
 33 27  1  0  0  0  0
 34 33  1  0  0  0  0
 34 35  1  0  0  0  0
M  END
>  <minimizedAffinity>
-5.91821671

$$$$

 OpenBabel03252508273D

 35 39  0  0  1  0  0  0  0  0999 V2000
   33.0280   28.7350   36.9900 C   0  0  1  0  0  0  0  0  0  0  0  0
   34.1300   28.9370   36.0380 C   0  0  0  0  0  0  0  0  0  0  0  0
   34.3000   29.0490   37.6070 C   0  0  2  0  0  0  0  0  0  0  0  0
   32.6350   27.6790   36.7660 H   0  0  0  0  0  0  0  0  0  0  0  0
   34.2050   29.8590   35.4680 H   0  0  0  0  0  0  0  0  0  0  0  0
   34.7710   28.1310   35.6450 H   0  0  0  0  0  0  0  0  0  0  0  0
   34.6980   30.1060   37.7390 H   0  0  0  0  0  0  0  0  0  0  0  0
   35.1650   28.0960   38.3060 C   0  0  0  0  0  0  0  0  0  0  0  0
   35.3920   26.7940   37.9900 C   0  0  0  0  0  0  0  0  0  0  0  0
   36.1190   25.8870   38.7520 C   0  0  0  0  0  0  0  0  0  0  0  0
   36.6610   26.3730   39.9510 C   0  0  0  0  0  0  0  0  0  0  0  0
   36.4460   27.7070   40.2990 C   0  0  0  0  0  0  0  0  0  0  0  0
   37.0560   28.1530   41.4580 C   0  0  0  0  0  0  0  0  0  0  0  0
   36.9290   29.4960   41.8050 C   0  0  0  0  0  0  0  0  0  0  0  0
   36.2140   30.3680   41.0090 C   0  0  0  0  0  0  0  0  0  0  0  0
   35.6290   29.8660   39.8710 C   0  0  0  0  0  0  0  0  0  0  0  0
   35.7160   28.5360   39.4830 C   0  0  0  0  0  0  0  0  0  0  0  0
   34.9540   26.4570   37.0530 H   0  0  0  0  0  0  0  0  0  0  0  0
   36.2580   24.8650   38.4360 H   0  0  0  0  0  0  0  0  0  0  0  0
   37.2170   25.6710   40.5350 H   0  0  0  0  0  0  0  0  0  0  0  0
   37.6130   27.4460   42.0610 H   0  0  0  0  0  0  0  0  0  0  0  0
   37.4490   29.7350   42.7390 H   0  0  0  0  0  0  0  0  0  0  0  0
   36.2360   31.3400   41.4360 H   0  0  0  0  0  0  0  0  0  0  0  0
   35.2240   30.7160   39.3990 H   0  0  0  0  0  0  0  0  0  0  0  0
   30.1270   30.6030   38.3010 C   0  0  0  0  0  0  0  0  0  0  0  0
   29.8050   31.4780   37.2070 C   0  0  0  0  0  0  0  0  0  0  0  0
   30.6290   31.3970   36.0370 C   0  0  0  0  0  0  0  0  0  0  0  0
   31.6500   30.5250   36.0020 N   0  0  0  0  0  0  0  0  0  0  0  0
   31.9050   29.7120   37.0880 C   0  0  0  0  0  0  0  0  0  0  0  0
   31.1690   29.7520   38.1960 N   0  0  0  0  0  0  0  0  0  0  0  0
   29.4780   30.7060   39.1530 H   0  0  0  0  0  0  0  0  0  0  0  0
   28.9730   32.1650   37.2770 H   0  0  0  0  0  0  0  0  0  0  0  0
   30.2860   32.3000   34.9240 C   0  0  0  0  0  3  0  0  0  0  0  0
   31.4000   32.7210   34.0330 C   0  0  0  0  0  2  0  0  0  0  0  0
   30.2660   31.8210   33.5340 C   0  0  0  0  0  2  0  0  0  0  0  0
  1  4  1  1  0  0  0
  1 29  1  0  0  0  0
  1  3  1  0  0  0  0
  2  1  1  0  0  0  0
  2  3  1  0  0  0  0
  3  7  1  1  0  0  0
  3  8  1  0  0  0  0
  5  2  1  0  0  0  0
  6  2  1  0  0  0  0
  8 17  1  0  0  0  0
  9  8  2  0  0  0  0
  9 10  1  0  0  0  0
 10 11  2  0  0  0  0
 11 12  1  0  0  0  0
 11 20  1  0  0  0  0
 12 13  1  0  0  0  0
 13 14  2  0  0  0  0
 13 21  1  0  0  0  0
 14 22  1  0  0  0  0
 15 23  1  0  0  0  0
 15 14  1  0  0  0  0
 16 15  2  0  0  0  0
 17 16  1  0  0  0  0
 17 12  2  0  0  0  0
 18  9  1  0  0  0  0
 19 10  1  0  0  0  0
 24 16  1  0  0  0  0
 25 31  1  0  0  0  0
 26 32  1  0  0  0  0
 26 25  2  0  0  0  0
 27 26  1  0  0  0  0
 28 27  2  0  0  0  0
 28 29  1  0  0  0  0
 29 30  2  0  0  0  0
 30 25  1  0  0  0  0
 33 27  1  0  0  0  0
 34 33  1  0  0  0  0
 35 34  1  0  0  0  0
 35 33  1  0  0  0  0
M  END
>  <minimizedAffinity>
-5.87983704

$$$$

 OpenBabel03252508273D

 35 39  0  0  1  0  0  0  0  0999 V2000
   38.2670   29.5140   41.6480 C   0  0  1  0  0  0  0  0  0  0  0  0
   37.8860   29.2720   43.0470 C   0  0  0  0  0  0  0  0  0  0  0  0
   37.0630   28.7260   41.8110 C   0  0  2  0  0  0  0  0  0  0  0  0
   39.3340   29.0960   41.5570 H   0  0  0  0  0  0  0  0  0  0  0  0
   37.4240   30.0590   43.6360 H   0  0  0  0  0  0  0  0  0  0  0  0
   38.2530   28.4310   43.6580 H   0  0  0  0  0  0  0  0  0  0  0  0
   36.0310   29.1710   41.9820 H   0  0  0  0  0  0  0  0  0  0  0  0
   36.9580   27.2790   41.6000 C   0  0  0  0  0  0  0  0  0  0  0  0
   37.2790   26.2880   42.4720 C   0  0  0  0  0  0  0  0  0  0  0  0
   37.2860   24.9270   42.1880 C   0  0  0  0  0  0  0  0  0  0  0  0
   36.9280   24.5600   40.8830 C   0  0  0  0  0  0  0  0  0  0  0  0
   36.5910   25.5580   39.9680 C   0  0  0  0  0  0  0  0  0  0  0  0
   36.1830   25.1390   38.7140 C   0  0  0  0  0  0  0  0  0  0  0  0
   35.7670   26.0980   37.7920 C   0  0  0  0  0  0  0  0  0  0  0  0
   35.7580   27.4380   38.1210 C   0  0  0  0  0  0  0  0  0  0  0  0
   36.1760   27.7930   39.3820 C   0  0  0  0  0  0  0  0  0  0  0  0
   36.6080   26.8810   40.3350 C   0  0  0  0  0  0  0  0  0  0  0  0
   37.5500   26.6150   43.4730 H   0  0  0  0  0  0  0  0  0  0  0  0
   37.5510   24.1950   42.9340 H   0  0  0  0  0  0  0  0  0  0  0  0
   36.9370   23.5130   40.6690 H   0  0  0  0  0  0  0  0  0  0  0  0
   36.1990   24.0810   38.4850 H   0  0  0  0  0  0  0  0  0  0  0  0
   35.4700   25.6540   36.8360 H   0  0  0  0  0  0  0  0  0  0  0  0
   35.4080   28.0050   37.2940 H   0  0  0  0  0  0  0  0  0  0  0  0
   36.0010   28.8300   39.4230 H   0  0  0  0  0  0  0  0  0  0  0  0
   36.9350   32.4780   39.8970 C   0  0  0  0  0  0  0  0  0  0  0  0
   38.0650   33.3670   39.8960 C   0  0  0  0  0  0  0  0  0  0  0  0
   39.2660   32.9040   40.5260 C   0  0  0  0  0  0  0  0  0  0  0  0
   39.2960   31.6820   41.0820 N   0  0  0  0  0  0  0  0  0  0  0  0
   38.1750   30.8770   41.0470 C   0  0  0  0  0  0  0  0  0  0  0  0
   37.0380   31.2630   40.4750 N   0  0  0  0  0  0  0  0  0  0  0  0
   36.0610   32.8760   39.4120 H   0  0  0  0  0  0  0  0  0  0  0  0
   37.9980   34.3440   39.4360 H   0  0  0  0  0  0  0  0  0  0  0  0
   40.4140   33.8270   40.5170 C   0  0  0  0  0  3  0  0  0  0  0  0
   41.7690   33.2140   40.4670 C   0  0  0  0  0  2  0  0  0  0  0  0
   41.2130   34.0360   39.3000 C   0  0  0  0  0  2  0  0  0  0  0  0
  1  4  1  6  0  0  0
  1  3  1  0  0  0  0
  1  2  1  0  0  0  0
  2  5  1  0  0  0  0
  2  6  1  0  0  0  0
  3  7  1  6  0  0  0
  3  2  1  0  0  0  0
  8  3  1  0  0  0  0
  8  9  1  0  0  0  0
  9 18  1  0  0  0  0
 10  9  2  0  0  0  0
 10 19  1  0  0  0  0
 11 10  1  0  0  0  0
 12 17  1  0  0  0  0
 12 11  2  0  0  0  0
 13 12  1  0  0  0  0
 14 15  1  0  0  0  0
 14 13  2  0  0  0  0
 15 16  2  0  0  0  0
 16 24  1  0  0  0  0
 16 17  1  0  0  0  0
 17  8  2  0  0  0  0
 20 11  1  0  0  0  0
 21 13  1  0  0  0  0
 22 14  1  0  0  0  0
 23 15  1  0  0  0  0
 25 30  1  0  0  0  0
 26 25  2  0  0  0  0
 26 27  1  0  0  0  0
 27 28  2  0  0  0  0
 29 28  1  0  0  0  0
 29  1  1  0  0  0  0
 30 29  2  0  0  0  0
 31 25  1  0  0  0  0
 32 26  1  0  0  0  0
 33 27  1  0  0  0  0
 34 33  1  0  0  0  0
 35 34  1  0  0  0  0
 35 33  1  0  0  0  0
M  END
>  <minimizedAffinity>
-5.8613162

$$$$

 OpenBabel03252508273D

 35 39  0  0  1  0  0  0  0  0999 V2000
   36.5410   26.8870   38.5660 C   0  0  1  0  0  0  0  0  0  0  0  0
   35.2700   26.9310   37.8280 C   0  0  0  0  0  0  0  0  0  0  0  0
   35.8820   28.1770   38.5870 C   0  0  2  0  0  0  0  0  0  0  0  0
   37.3190   26.5460   37.7920 H   0  0  0  0  0  0  0  0  0  0  0  0
   34.3710   26.4910   38.2510 H   0  0  0  0  0  0  0  0  0  0  0  0
   35.1800   27.1520   36.7510 H   0  0  0  0  0  0  0  0  0  0  0  0
   35.0550   28.4560   39.3160 H   0  0  0  0  0  0  0  0  0  0  0  0
   36.2930   29.3550   37.8200 C   0  0  0  0  0  0  0  0  0  0  0  0
   36.4190   29.4660   36.4720 C   0  0  0  0  0  0  0  0  0  0  0  0
   36.9360   30.5620   35.7900 C   0  0  0  0  0  0  0  0  0  0  0  0
   37.3600   31.6420   36.5780 C   0  0  0  0  0  0  0  0  0  0  0  0
   37.2400   31.5570   37.9650 C   0  0  0  0  0  0  0  0  0  0  0  0
   37.6130   32.6740   38.6920 C   0  0  0  0  0  0  0  0  0  0  0  0
   37.4410   32.6600   40.0740 C   0  0  0  0  0  0  0  0  0  0  0  0
   36.9070   31.5570   40.7090 C   0  0  0  0  0  0  0  0  0  0  0  0
   36.5570   30.4770   39.9350 C   0  0  0  0  0  0  0  0  0  0  0  0
   36.7140   30.4340   38.5560 C   0  0  0  0  0  0  0  0  0  0  0  0
   36.0780   28.6070   35.8990 H   0  0  0  0  0  0  0  0  0  0  0  0
   37.0040   30.5790   34.7150 H   0  0  0  0  0  0  0  0  0  0  0  0
   37.7600   32.4820   36.0500 H   0  0  0  0  0  0  0  0  0  0  0  0
   38.0270   33.5250   38.1650 H   0  0  0  0  0  0  0  0  0  0  0  0
   37.7720   33.5920   40.5440 H   0  0  0  0  0  0  0  0  0  0  0  0
   36.8530   31.7390   41.7540 H   0  0  0  0  0  0  0  0  0  0  0  0
   36.1050   29.8130   40.6160 H   0  0  0  0  0  0  0  0  0  0  0  0
   36.5730   24.0660   40.9460 C   0  0  0  0  0  0  0  0  0  0  0  0
   36.8550   24.7210   42.1940 C   0  0  0  0  0  0  0  0  0  0  0  0
   37.0400   26.1410   42.1630 C   0  0  0  0  0  0  0  0  0  0  0  0
   36.9450   26.7990   40.9960 N   0  0  0  0  0  0  0  0  0  0  0  0
   36.6710   26.1090   39.8330 C   0  0  0  0  0  0  0  0  0  0  0  0
   36.4920   24.7910   39.8110 N   0  0  0  0  0  0  0  0  0  0  0  0
   36.4430   23.0010   41.0270 H   0  0  0  0  0  0  0  0  0  0  0  0
   36.9220   24.1520   43.1120 H   0  0  0  0  0  0  0  0  0  0  0  0
   37.3290   26.7970   43.4510 C   0  0  0  0  0  3  0  0  0  0  0  0
   38.7010   27.3410   43.6350 C   0  0  0  0  0  2  0  0  0  0  0  0
   37.4780   28.2580   43.5430 C   0  0  0  0  0  2  0  0  0  0  0  0
  1  4  1  6  0  0  0
  1  3  1  0  0  0  0
  1 29  1  0  0  0  0
  2  5  1  0  0  0  0
  2  1  1  0  0  0  0
  2  3  1  0  0  0  0
  3  7  1  1  0  0  0
  6  2  1  0  0  0  0
  8 17  1  0  0  0  0
  8  3  1  0  0  0  0
  9  8  2  0  0  0  0
 10  9  1  0  0  0  0
 10 11  2  0  0  0  0
 11 12  1  0  0  0  0
 12 17  2  0  0  0  0
 12 13  1  0  0  0  0
 13 14  2  0  0  0  0
 14 22  1  0  0  0  0
 14 15  1  0  0  0  0
 15 23  1  0  0  0  0
 16 24  1  0  0  0  0
 16 15  2  0  0  0  0
 17 16  1  0  0  0  0
 18  9  1  0  0  0  0
 19 10  1  0  0  0  0
 20 11  1  0  0  0  0
 21 13  1  0  0  0  0
 25 31  1  0  0  0  0
 25 26  1  0  0  0  0
 26 32  1  0  0  0  0
 27 26  2  0  0  0  0
 27 33  1  0  0  0  0
 28 27  1  0  0  0  0
 29 28  2  0  0  0  0
 30 29  1  0  0  0  0
 30 25  2  0  0  0  0
 33 35  1  0  0  0  0
 33 34  1  0  0  0  0
 35 34  1  0  0  0  0
M  END
>  <minimizedAffinity>
-5.84669781

$$$$

 OpenBabel03252508273D

 35 39  0  0  1  0  0  0  0  0999 V2000
   35.8000   29.4200   40.6790 C   0  0  1  0  0  0  0  0  0  0  0  0
   36.3480   30.5800   39.9610 C   0  0  0  0  0  0  0  0  0  0  0  0
   35.9790   29.2130   39.2570 C   0  0  2  0  0  0  0  0  0  0  0  0
   34.8440   29.8100   41.1830 H   0  0  0  0  0  0  0  0  0  0  0  0
   37.4030   30.8260   40.0350 H   0  0  0  0  0  0  0  0  0  0  0  0
   35.7400   31.3980   39.5400 H   0  0  0  0  0  0  0  0  0  0  0  0
   36.9630   28.9050   38.7790 H   0  0  0  0  0  0  0  0  0  0  0  0
   34.9060   29.1850   38.2590 C   0  0  0  0  0  0  0  0  0  0  0  0
   33.5660   29.1960   38.4800 C   0  0  0  0  0  0  0  0  0  0  0  0
   32.5800   29.0390   37.5130 C   0  0  0  0  0  0  0  0  0  0  0  0
   33.0240   28.8530   36.1960 C   0  0  0  0  0  0  0  0  0  0  0  0
   34.3950   28.8400   35.9380 C   0  0  0  0  0  0  0  0  0  0  0  0
   34.7790   28.7190   34.6150 C   0  0  0  0  0  0  0  0  0  0  0  0
   36.1350   28.7740   34.3050 C   0  0  0  0  0  0  0  0  0  0  0  0
   37.0810   28.9510   35.2950 C   0  0  0  0  0  0  0  0  0  0  0  0
   36.6390   29.0630   36.5920 C   0  0  0  0  0  0  0  0  0  0  0  0
   35.3010   29.0060   36.9580 C   0  0  0  0  0  0  0  0  0  0  0  0
   33.2640   29.3420   39.5150 H   0  0  0  0  0  0  0  0  0  0  0  0
   31.5320   29.0600   37.7640 H   0  0  0  0  0  0  0  0  0  0  0  0
   32.2630   28.7300   35.4550 H   0  0  0  0  0  0  0  0  0  0  0  0
   34.0140   28.5830   33.8590 H   0  0  0  0  0  0  0  0  0  0  0  0
   36.3220   28.6650   33.2310 H   0  0  0  0  0  0  0  0  0  0  0  0
   38.0500   28.9700   34.8630 H   0  0  0  0  0  0  0  0  0  0  0  0
   37.5140   29.2720   37.1390 H   0  0  0  0  0  0  0  0  0  0  0  0
   38.1450   28.6220   43.4150 C   0  0  0  0  0  0  0  0  0  0  0  0
   38.2060   27.1870   43.3590 C   0  0  0  0  0  0  0  0  0  0  0  0
   37.4070   26.5350   42.3640 C   0  0  0  0  0  0  0  0  0  0  0  0
   36.6460   27.2690   41.5360 N   0  0  0  0  0  0  0  0  0  0  0  0
   36.6340   28.6450   41.6430 C   0  0  0  0  0  0  0  0  0  0  0  0
   37.3580   29.2950   42.5510 N   0  0  0  0  0  0  0  0  0  0  0  0
   38.7640   29.0600   44.1800 H   0  0  0  0  0  0  0  0  0  0  0  0
   38.8330   26.6340   44.0450 H   0  0  0  0  0  0  0  0  0  0  0  0
   37.4790   25.0640   42.3200 C   0  0  0  0  0  3  0  0  0  0  0  0
   36.7380   24.3870   41.2220 C   0  0  0  0  0  2  0  0  0  0  0  0
   38.2670   24.3720   41.2880 C   0  0  0  0  0  2  0  0  0  0  0  0
  1  4  1  1  0  0  0
  1 29  1  0  0  0  0
  2  5  1  0  0  0  0
  2  1  1  0  0  0  0
  3  7  1  6  0  0  0
  3  2  1  0  0  0  0
  3  1  1  0  0  0  0
  6  2  1  0  0  0  0
  8  9  1  0  0  0  0
  8  3  1  0  0  0  0
  9 18  1  0  0  0  0
 10 19  1  0  0  0  0
 10  9  2  0  0  0  0
 11 10  1  0  0  0  0
 12 11  2  0  0  0  0
 12 17  1  0  0  0  0
 13 12  1  0  0  0  0
 14 13  2  0  0  0  0
 14 15  1  0  0  0  0
 15 16  2  0  0  0  0
 16 17  1  0  0  0  0
 16 24  1  0  0  0  0
 17  8  2  0  0  0  0
 20 11  1  0  0  0  0
 21 13  1  0  0  0  0
 22 14  1  0  0  0  0
 23 15  1  0  0  0  0
 25 31  1  0  0  0  0
 26 25  1  0  0  0  0
 26 32  1  0  0  0  0
 27 26  2  0  0  0  0
 28 29  2  0  0  0  0
 28 27  1  0  0  0  0
 29 30  1  0  0  0  0
 30 25  2  0  0  0  0
 33 27  1  0  0  0  0
 34 35  1  0  0  0  0
 34 33  1  0  0  0  0
 35 33  1  0  0  0  0
M  END
>  <minimizedAffinity>
-5.84093285

$$$$

 OpenBabel03252508273D

 35 39  0  0  1  0  0  0  0  0999 V2000
   35.9720   29.4800   39.4090 C   0  0  1  0  0  0  0  0  0  0  0  0
   34.8220   29.2860   40.3040 C   0  0  0  0  0  0  0  0  0  0  0  0
   36.0240   28.2630   40.1930 C   0  0  2  0  0  0  0  0  0  0  0  0
   36.4170   30.4940   39.7160 H   0  0  0  0  0  0  0  0  0  0  0  0
   33.8630   28.9640   39.9080 H   0  0  0  0  0  0  0  0  0  0  0  0
   34.7570   29.6830   41.3310 H   0  0  0  0  0  0  0  0  0  0  0  0
   35.5020   27.2970   39.9000 H   0  0  0  0  0  0  0  0  0  0  0  0
   36.8850   28.0370   41.3570 C   0  0  0  0  0  0  0  0  0  0  0  0
   37.3320   28.9570   42.2500 C   0  0  0  0  0  0  0  0  0  0  0  0
   38.2510   28.7240   43.2670 C   0  0  0  0  0  0  0  0  0  0  0  0
   38.7520   27.4180   43.3660 C   0  0  0  0  0  0  0  0  0  0  0  0
   38.3080   26.4510   42.4630 C   0  0  0  0  0  0  0  0  0  0  0  0
   38.7840   25.1650   42.6450 C   0  0  0  0  0  0  0  0  0  0  0  0
   38.3100   24.1540   41.8120 C   0  0  0  0  0  0  0  0  0  0  0  0
   37.3820   24.4250   40.8270 C   0  0  0  0  0  0  0  0  0  0  0  0
   36.9490   25.7230   40.6930 C   0  0  0  0  0  0  0  0  0  0  0  0
   37.3930   26.7700   41.4890 C   0  0  0  0  0  0  0  0  0  0  0  0
   36.9190   29.9570   42.1380 H   0  0  0  0  0  0  0  0  0  0  0  0
   38.5600   29.5060   43.9410 H   0  0  0  0  0  0  0  0  0  0  0  0
   39.4610   27.2430   44.1470 H   0  0  0  0  0  0  0  0  0  0  0  0
   39.5090   24.9820   43.4280 H   0  0  0  0  0  0  0  0  0  0  0  0
   38.7550   23.1810   42.0440 H   0  0  0  0  0  0  0  0  0  0  0  0
   37.1450   23.5320   40.3050 H   0  0  0  0  0  0  0  0  0  0  0  0
   36.2010   25.6640   39.9540 H   0  0  0  0  0  0  0  0  0  0  0  0
   36.7790   29.4970   35.8070 C   0  0  0  0  0  0  0  0  0  0  0  0
   35.4910   29.2860   35.2030 C   0  0  0  0  0  0  0  0  0  0  0  0
   34.3710   29.1300   36.0830 C   0  0  0  0  0  0  0  0  0  0  0  0
   34.5570   29.1850   37.4120 N   0  0  0  0  0  0  0  0  0  0  0  0
   35.8200   29.3910   37.9270 C   0  0  0  0  0  0  0  0  0  0  0  0
   36.8910   29.5410   37.1510 N   0  0  0  0  0  0  0  0  0  0  0  0
   37.5840   29.6080   35.1010 H   0  0  0  0  0  0  0  0  0  0  0  0
   35.3870   29.2490   34.1270 H   0  0  0  0  0  0  0  0  0  0  0  0
   33.0590   28.9140   35.4480 C   0  0  0  0  0  3  0  0  0  0  0  0
   31.8650   29.3940   36.1950 C   0  0  0  0  0  2  0  0  0  0  0  0
   32.2990   30.0350   34.8730 C   0  0  0  0  0  2  0  0  0  0  0  0
  1  4  1  1  0  0  0
  1  3  1  0  0  0  0
  1  2  1  0  0  0  0
  2  6  1  0  0  0  0
  3  7  1  6  0  0  0
  3  2  1  0  0  0  0
  3  8  1  0  0  0  0
  5  2  1  0  0  0  0
  8 17  2  0  0  0  0
  8  9  1  0  0  0  0
  9 10  2  0  0  0  0
 10 11  1  0  0  0  0
 10 19  1  0  0  0  0
 11 20  1  0  0  0  0
 12 13  1  0  0  0  0
 12 11  2  0  0  0  0
 13 21  1  0  0  0  0
 14 22  1  0  0  0  0
 14 13  2  0  0  0  0
 15 14  1  0  0  0  0
 16 15  2  0  0  0  0
 16 17  1  0  0  0  0
 17 12  1  0  0  0  0
 18  9  1  0  0  0  0
 23 15  1  0  0  0  0
 24 16  1  0  0  0  0
 25 30  1  0  0  0  0
 26 25  2  0  0  0  0
 26 27  1  0  0  0  0
 27 28  2  0  0  0  0
 28 29  1  0  0  0  0
 29  1  1  0  0  0  0
 30 29  2  0  0  0  0
 31 25  1  0  0  0  0
 32 26  1  0  0  0  0
 33 27  1  0  0  0  0
 33 34  1  0  0  0  0
 35 33  1  0  0  0  0
 35 34  1  0  0  0  0
M  END
>  <minimizedAffinity>
-5.79788923

$$$$
