REMARK  Name = 
REMARK  4 active torsions:
REMARK  status: ('A' for Active; 'I' for Inactive)
REMARK    1  A    between atoms: C_2  and  C_14
REMARK    2  A    between atoms: C_3  and  S_16
REMARK    3  A    between atoms: S_16  and  C_18
REMARK    4  A    between atoms: C_22  and  C_37
REMARK                            x       y       z     vdW  Elec       q    Type
REMARK                         _______ _______ _______ _____ _____    ______ ____
ROOT
ATOM      1  C   UNL     1      47.534  32.673  44.268  0.00  0.00    +0.000 A 
ATOM      2  C   UNL     1      46.836  33.646  43.559  0.00  0.00    +0.000 A 
ATOM      3  C   UNL     1      45.781  34.368  44.095  0.00  0.00    +0.000 A 
ATOM      4  C   UNL     1      45.395  34.111  45.413  0.00  0.00    +0.000 A 
ATOM      5  N   UNL     1      44.445  34.600  46.244  0.00  0.00    +0.000 N 
ATOM      6  C   UNL     1      44.530  33.968  47.435  0.00  0.00    +0.000 A 
ATOM      7  N   UNL     1      45.535  33.095  47.321  0.00  0.00    +0.000 NA
ATOM      8  C   UNL     1      46.091  33.153  46.095  0.00  0.00    +0.000 A 
ATOM      9  C   UNL     1      47.148  32.413  45.592  0.00  0.00    +0.000 A 
ATOM     10  H   UNL     1      48.349  32.136  43.806  0.00  0.00    +0.000 HD
ATOM     11  H   UNL     1      43.781  35.350  45.947  0.00  0.00    +0.000 HD
ATOM     12  H   UNL     1      43.891  34.153  48.304  0.00  0.00    +0.000 HD
ATOM     13  H   UNL     1      47.660  31.666  46.183  0.00  0.00    +0.000 HD
ENDROOT
BRANCH   2  18
ATOM     14  C   UNL     1      47.070  33.429  39.902  0.00  0.00    +0.000 A 
ATOM     15  C   UNL     1      47.974  34.439  39.592  0.00  0.00    +0.000 A 
ATOM     16  C   UNL     1      48.499  35.190  40.639  0.00  0.00    +0.000 A 
ATOM     17  N   UNL     1      48.117  34.918  41.930  0.00  0.00    +0.000 NA
ATOM     18  C   UNL     1      47.232  33.922  42.179  0.00  0.00    +0.000 A 
ATOM     19  N   UNL     1      46.691  33.161  41.189  0.00  0.00    +0.000 NA
ATOM     20  H   UNL     1      46.634  32.819  39.127  0.00  0.00    +0.000 HD
ATOM     21  H   UNL     1      48.246  34.617  38.554  0.00  0.00    +0.000 HD
ATOM     22  H   UNL     1      49.200  35.977  40.438  0.00  0.00    +0.000 HD
ENDBRANCH   2  18
BRANCH   3  23
ATOM     23  S   UNL     1      44.915  35.598  43.167  0.00  0.00    +0.000 S 
BRANCH  23  25
ATOM     24  N   UNL     1      42.330  35.619  42.688  0.00  0.00    +0.000 NA
ATOM     25  C   UNL     1      43.512  34.933  42.216  0.00  0.00    +0.000 C 
ATOM     26  C   UNL     1      43.805  35.310  40.758  0.00  0.00    +0.000 C 
ATOM     27  O   UNL     1      42.674  35.296  39.965  0.00  0.00    +0.000 OA
ATOM     28  C   UNL     1      41.545  34.758  40.538  0.00  0.00    +0.000 C 
ATOM     29  C   UNL     1      41.225  35.531  41.783  0.00  0.00    +0.000 C 
ATOM     30  H   UNL     1      42.146  35.294  43.649  0.00  0.00    +0.000 HD
ATOM     31  H   UNL     1      43.428  33.833  42.314  0.00  0.00    +0.000 HD
ATOM     32  H   UNL     1      44.467  34.583  40.301  0.00  0.00    +0.000 HD
ATOM     33  H   UNL     1      44.200  36.346  40.742  0.00  0.00    +0.000 HD
ATOM     34  H   UNL     1      41.759  33.692  40.768  0.00  0.00    +0.000 HD
ATOM     35  H   UNL     1      40.736  34.843  39.810  0.00  0.00    +0.000 HD
ATOM     36  H   UNL     1      41.032  36.587  41.436  0.00  0.00    +0.000 HD
BRANCH  29  37
ATOM     37  C   UNL     1      39.943  35.103  42.447  0.00  0.00    +0.000 C 
ATOM     38  C   UNL     1      39.884  33.987  43.408  0.00  0.00    +0.000 C 
ATOM     39  C   UNL     1      39.606  35.404  43.838  0.00  0.00    +0.000 C 
ENDBRANCH  29  37
ENDBRANCH  23  25
ENDBRANCH   3  23
TORSDOF 4
