
 OpenBabel03242515053D

 33 35  0  0  0  0  0  0  0  0999 V2000
   41.8690   35.2210   41.5190 C   0  0  0  0  0  0  0  0  0  0  0  0
   41.3810   34.2150   41.6070 H   0  0  0  0  0  0  0  0  0  0  0  0
   41.9300   35.6160   42.5630 H   0  0  0  0  0  0  0  0  0  0  0  0
   40.9470   36.0860   40.7250 C   0  0  0  0  0  0  0  0  0  0  0  0
   41.5590   36.7950   40.1290 H   0  0  0  0  0  0  0  0  0  0  0  0
   40.2680   36.7120   41.3530 H   0  0  0  0  0  0  0  0  0  0  0  0
   41.7650   36.2760   37.7940 Cl  0  0  0  0  0  0  0  0  0  0  0  0
   40.4490   35.2960   38.3910 C   0  0  0  0  0  0  0  0  0  0  0  0
   40.1630   35.2850   39.7570 C   0  0  0  0  0  0  0  0  0  0  0  0
   39.1160   34.4910   40.1420 C   0  0  0  0  0  0  0  0  0  0  0  0
   38.3210   33.7060   39.3110 C   0  0  0  0  0  0  0  0  0  0  0  0
   38.6310   33.7380   37.9700 C   0  0  0  0  0  0  0  0  0  0  0  0
   37.6840   32.7770   36.8310 Cl  0  0  0  0  0  0  0  0  0  0  0  0
   39.6810   34.5270   37.5280 C   0  0  0  0  0  0  0  0  0  0  0  0
   38.8570   34.4520   41.1960 H   0  0  0  0  0  0  0  0  0  0  0  0
   37.5140   33.1110   39.7210 H   0  0  0  0  0  0  0  0  0  0  0  0
   39.9430   34.5690   36.4750 H   0  0  0  0  0  0  0  0  0  0  0  0
   43.4900   35.0240   40.7890 S   0  0  0  0  0  0  0  0  0  0  0  0
   44.7760   34.7310   42.0010 C   0  0  0  0  0  0  0  0  0  0  0  0
   46.0730   34.5530   41.5040 C   0  0  0  0  0  0  0  0  0  0  0  0
   47.1010   34.3220   42.4170 C   0  0  0  0  0  0  0  0  0  0  0  0
   46.7860   34.2850   43.7290 N   0  0  0  0  0  0  0  0  0  0  0  0
   45.5320   34.4580   44.1920 C   0  0  0  0  0  0  0  0  0  0  0  0
   44.5450   34.6790   43.3200 N   0  0  0  0  0  0  0  0  0  0  0  0
   46.2870   34.5900   40.4440 H   0  0  0  0  0  0  0  0  0  0  0  0
   45.3280   34.3940   45.6200 C   0  0  0  0  0  0  0  0  0  0  0  0
   44.4560   35.1560   46.1200 O   0  0  0  0  0  0  0  0  0  0  0  0
   46.1430   33.4580   46.3620 N   0  0  0  0  0  0  0  0  0  0  0  0
   45.6280   32.9860   47.1350 H   0  0  0  0  0  0  0  0  0  0  0  0
   47.1470   33.3450   46.0640 H   0  0  0  0  0  0  0  0  0  0  0  0
   48.4850   34.1300   41.9190 C   0  0  0  0  0  3  0  0  0  0  0  0
   48.9610   32.6940   42.0590 C   0  0  0  0  0  2  0  0  0  0  0  0
   48.7830   33.3370   40.7150 C   0  0  0  0  0  2  0  0  0  0  0  0
  1  2  1  0  0  0  0
  1  3  1  0  0  0  0
  4  6  1  0  0  0  0
  4  1  1  0  0  0  0
  5  4  1  0  0  0  0
  7  8  1  0  0  0  0
  8  9  1  0  0  0  0
  9 10  2  0  0  0  0
  9  4  1  0  0  0  0
 10 15  1  0  0  0  0
 11 16  1  0  0  0  0
 11 10  1  0  0  0  0
 12 11  2  0  0  0  0
 13 12  1  0  0  0  0
 14 12  1  0  0  0  0
 14  8  2  0  0  0  0
 17 14  1  0  0  0  0
 18  1  1  0  0  0  0
 18 19  1  0  0  0  0
 19 24  1  0  0  0  0
 20 19  2  0  0  0  0
 20 21  1  0  0  0  0
 21 22  2  0  0  0  0
 22 23  1  0  0  0  0
 23 26  1  0  0  0  0
 24 23  2  0  0  0  0
 25 20  1  0  0  0  0
 26 27  2  0  0  0  0
 26 28  1  0  0  0  0
 28 29  1  0  0  0  0
 30 28  1  0  0  0  0
 31 32  1  0  0  0  0
 31 21  1  0  0  0  0
 33 31  1  0  0  0  0
 33 32  1  0  0  0  0
M  END
>  <minimizedAffinity>
-6.49060202

>  <minimizedRMSD>
0.0522605106

$$$$
