
 OpenBabel03252502173D

 18 19  0  0  0  0  0  0  0  0999 V2000
   38.1800   29.1670   42.5360 C   0  0  0  0  0  0  0  0  0  0  0  0
   37.3500   28.0600   42.2590 C   0  0  0  0  0  0  0  0  0  0  0  0
   37.8880   26.7700   42.3980 C   0  0  0  0  0  0  0  0  0  0  0  0
   39.1760   26.6540   42.7890 N   0  0  0  0  0  0  0  0  0  0  0  0
   39.9420   27.7380   43.0450 C   0  0  0  0  0  0  0  0  0  0  0  0
   39.4570   28.9870   42.9230 N   0  0  0  0  0  0  0  0  0  0  0  0
   37.8520   30.1950   42.4570 H   0  0  0  0  0  0  0  0  0  0  0  0
   40.9380   27.4270   43.3440 H   0  0  0  0  0  0  0  0  0  0  0  0
   36.9940   25.6170   42.1010 C   0  0  0  0  0  3  0  0  0  0  0  0
   36.9700   24.9810   40.7680 C   0  0  0  0  0  2  0  0  0  0  0  0
   37.5530   24.2490   41.9670 C   0  0  0  0  0  2  0  0  0  0  0  0
   36.0500   28.3250   41.8680 O   0  0  0  0  0  0  0  0  0  0  0  0
   36.6970   29.4210   39.5490 O   0  0  0  0  0  0  0  0  0  0  0  0
   35.7030   29.4920   40.6550 P   0  0  0  0  0  0  0  0  0  0  0  0
   34.1550   29.2270   39.9940 O   0  0  0  0  0  0  0  0  0  0  0  0
   34.1620   29.3140   39.0130 H   0  0  0  0  0  0  0  0  0  0  0  0
   35.7220   31.0530   41.3170 O   0  0  0  0  0  0  0  0  0  0  0  0
   34.7860   31.3210   41.5530 H   0  0  0  0  0  0  0  0  0  0  0  0
  1  6  1  0  0  0  0
  2  3  1  0  0  0  0
  2  1  2  0  0  0  0
  3  4  2  0  0  0  0
  4  5  1  0  0  0  0
  5  8  1  0  0  0  0
  6  5  2  0  0  0  0
  7  1  1  0  0  0  0
  9  3  1  0  0  0  0
 10 11  1  0  0  0  0
 10  9  1  0  0  0  0
 11  9  1  0  0  0  0
 12  2  1  0  0  0  0
 13 14  2  0  0  0  0
 14 17  1  0  0  0  0
 14 12  1  0  0  0  0
 15 14  1  0  0  0  0
 16 15  1  0  0  0  0
 17 18  1  0  0  0  0
M  END
>  <minimizedAffinity>
-4.66465282

$$$$

 OpenBabel03252502173D

 18 19  0  0  0  0  0  0  0  0999 V2000
   39.9830   29.8620   39.8570 C   0  0  0  0  0  0  0  0  0  0  0  0
   39.0600   29.8480   40.9240 C   0  0  0  0  0  0  0  0  0  0  0  0
   38.8620   28.6440   41.6210 C   0  0  0  0  0  0  0  0  0  0  0  0
   39.5660   27.5580   41.2310 N   0  0  0  0  0  0  0  0  0  0  0  0
   40.4420   27.6100   40.2040 C   0  0  0  0  0  0  0  0  0  0  0  0
   40.6550   28.7470   39.5170 N   0  0  0  0  0  0  0  0  0  0  0  0
   40.1990   30.7420   39.2660 H   0  0  0  0  0  0  0  0  0  0  0  0
   40.9000   26.6360   40.0560 H   0  0  0  0  0  0  0  0  0  0  0  0
   37.8840   28.6520   42.7430 C   0  0  0  0  0  3  0  0  0  0  0  0
   36.6680   27.8130   42.7150 C   0  0  0  0  0  2  0  0  0  0  0  0
   37.8050   27.5030   43.6780 C   0  0  0  0  0  2  0  0  0  0  0  0
   38.4080   31.0330   41.2150 O   0  0  0  0  0  0  0  0  0  0  0  0
   36.8240   30.7770   39.1120 O   0  0  0  0  0  0  0  0  0  0  0  0
   36.9410   31.4600   40.4290 P   0  0  0  0  0  0  0  0  0  0  0  0
   35.6000   31.0080   41.3800 O   0  0  0  0  0  0  0  0  0  0  0  0
   34.8940   30.5930   40.8330 H   0  0  0  0  0  0  0  0  0  0  0  0
   36.8650   33.1370   40.1930 O   0  0  0  0  0  0  0  0  0  0  0  0
   36.3440   33.5510   40.9420 H   0  0  0  0  0  0  0  0  0  0  0  0
  1  2  1  0  0  0  0
  2 12  1  0  0  0  0
  2  3  2  0  0  0  0
  3  9  1  0  0  0  0
  4  3  1  0  0  0  0
  5  4  2  0  0  0  0
  6  1  2  0  0  0  0
  6  5  1  0  0  0  0
  7  1  1  0  0  0  0
  8  5  1  0  0  0  0
  9 11  1  0  0  0  0
 10  9  1  0  0  0  0
 10 11  1  0  0  0  0
 13 14  2  0  0  0  0
 14 12  1  0  0  0  0
 14 15  1  0  0  0  0
 16 15  1  0  0  0  0
 17 14  1  0  0  0  0
 17 18  1  0  0  0  0
M  END
>  <minimizedAffinity>
-4.46750975

$$$$

 OpenBabel03252502173D

 18 19  0  0  0  0  0  0  0  0999 V2000
   36.1960   30.2850   39.2610 C   0  0  0  0  0  0  0  0  0  0  0  0
   36.8030   30.4050   40.5290 C   0  0  0  0  0  0  0  0  0  0  0  0
   37.1940   29.2320   41.1960 C   0  0  0  0  0  0  0  0  0  0  0  0
   36.9670   28.0460   40.5880 N   0  0  0  0  0  0  0  0  0  0  0  0
   36.3820   27.9710   39.3730 C   0  0  0  0  0  0  0  0  0  0  0  0
   35.9960   29.0750   38.7070 N   0  0  0  0  0  0  0  0  0  0  0  0
   35.8640   31.1330   38.6750 H   0  0  0  0  0  0  0  0  0  0  0  0
   36.2930   26.9330   39.0660 H   0  0  0  0  0  0  0  0  0  0  0  0
   37.8330   29.3810   42.5320 C   0  0  0  0  0  3  0  0  0  0  0  0
   37.4460   28.5290   43.6740 C   0  0  0  0  0  2  0  0  0  0  0  0
   38.8080   28.3720   43.0150 C   0  0  0  0  0  2  0  0  0  0  0  0
   36.9750   31.6820   41.0320 O   0  0  0  0  0  0  0  0  0  0  0  0
   38.9820   32.1770   39.3820 O   0  0  0  0  0  0  0  0  0  0  0  0
   37.9400   32.8420   40.2110 P   0  0  0  0  0  0  0  0  0  0  0  0
   36.9770   33.8000   39.1800 O   0  0  0  0  0  0  0  0  0  0  0  0
   37.4080   33.9320   38.3050 H   0  0  0  0  0  0  0  0  0  0  0  0
   38.6940   33.8770   41.3230 O   0  0  0  0  0  0  0  0  0  0  0  0
   38.1430   34.7080   41.4230 H   0  0  0  0  0  0  0  0  0  0  0  0
  1  2  1  0  0  0  0
  2 12  1  0  0  0  0
  2  3  2  0  0  0  0
  3  9  1  0  0  0  0
  4  3  1  0  0  0  0
  5  4  2  0  0  0  0
  6  1  2  0  0  0  0
  6  5  1  0  0  0  0
  7  1  1  0  0  0  0
  8  5  1  0  0  0  0
  9 11  1  0  0  0  0
  9 10  1  0  0  0  0
 11 10  1  0  0  0  0
 13 14  2  0  0  0  0
 14 12  1  0  0  0  0
 14 17  1  0  0  0  0
 15 14  1  0  0  0  0
 16 15  1  0  0  0  0
 17 18  1  0  0  0  0
M  END
>  <minimizedAffinity>
-4.22578382

$$$$

 OpenBabel03252502173D

 18 19  0  0  0  0  0  0  0  0999 V2000
   37.7110   29.5620   42.2750 C   0  0  0  0  0  0  0  0  0  0  0  0
   36.7900   29.9370   41.2750 C   0  0  0  0  0  0  0  0  0  0  0  0
   36.1770   28.9240   40.5180 C   0  0  0  0  0  0  0  0  0  0  0  0
   36.5020   27.6410   40.7870 N   0  0  0  0  0  0  0  0  0  0  0  0
   37.3900   27.3200   41.7530 C   0  0  0  0  0  0  0  0  0  0  0  0
   37.9950   28.2650   42.4960 N   0  0  0  0  0  0  0  0  0  0  0  0
   38.2300   30.2720   42.9060 H   0  0  0  0  0  0  0  0  0  0  0  0
   37.5080   26.2420   41.8070 H   0  0  0  0  0  0  0  0  0  0  0  0
   35.2080   29.3430   39.4680 C   0  0  0  0  0  3  0  0  0  0  0  0
   35.6320   29.5760   38.0730 C   0  0  0  0  0  2  0  0  0  0  0  0
   34.7630   28.3790   38.4300 C   0  0  0  0  0  2  0  0  0  0  0  0
   36.5500   31.2900   41.1070 O   0  0  0  0  0  0  0  0  0  0  0  0
   38.2980   31.6230   39.1510 O   0  0  0  0  0  0  0  0  0  0  0  0
   37.6920   32.3080   40.3260 P   0  0  0  0  0  0  0  0  0  0  0  0
   36.9420   33.7370   39.7760 O   0  0  0  0  0  0  0  0  0  0  0  0
   37.2380   33.9720   38.8670 H   0  0  0  0  0  0  0  0  0  0  0  0
   38.9220   32.7510   41.4050 O   0  0  0  0  0  0  0  0  0  0  0  0
   38.7040   33.6450   41.8010 H   0  0  0  0  0  0  0  0  0  0  0  0
  1  6  1  0  0  0  0
  1  7  1  0  0  0  0
  2  1  2  0  0  0  0
  3  4  2  0  0  0  0
  3  2  1  0  0  0  0
  4  5  1  0  0  0  0
  5  8  1  0  0  0  0
  5  6  2  0  0  0  0
  9  3  1  0  0  0  0
 10 11  1  0  0  0  0
 10  9  1  0  0  0  0
 11  9  1  0  0  0  0
 12  2  1  0  0  0  0
 13 14  2  0  0  0  0
 14 12  1  0  0  0  0
 14 17  1  0  0  0  0
 15 14  1  0  0  0  0
 16 15  1  0  0  0  0
 17 18  1  0  0  0  0
M  END
>  <minimizedAffinity>
-4.17865896

$$$$

 OpenBabel03252502173D

 18 19  0  0  0  0  0  0  0  0999 V2000
   40.0540   27.9270   42.2450 C   0  0  0  0  0  0  0  0  0  0  0  0
   38.7940   27.4360   41.8410 C   0  0  0  0  0  0  0  0  0  0  0  0
   38.4210   26.1430   42.2440 C   0  0  0  0  0  0  0  0  0  0  0  0
   39.2900   25.4330   42.9980 N   0  0  0  0  0  0  0  0  0  0  0  0
   40.4890   25.9370   43.3650 C   0  0  0  0  0  0  0  0  0  0  0  0
   40.8760   27.1710   42.9960 N   0  0  0  0  0  0  0  0  0  0  0  0
   40.4240   28.9100   41.9830 H   0  0  0  0  0  0  0  0  0  0  0  0
   41.0290   25.2110   43.9640 H   0  0  0  0  0  0  0  0  0  0  0  0
   37.0880   25.6450   41.8070 C   0  0  0  0  0  3  0  0  0  0  0  0
   36.8760   25.0850   40.4570 C   0  0  0  0  0  2  0  0  0  0  0  0
   36.8340   24.1880   41.6840 C   0  0  0  0  0  2  0  0  0  0  0  0
   38.0050   28.2710   41.0710 O   0  0  0  0  0  0  0  0  0  0  0  0
   37.8700   30.8870   41.4430 O   0  0  0  0  0  0  0  0  0  0  0  0
   37.1790   29.6080   41.7650 P   0  0  0  0  0  0  0  0  0  0  0  0
   35.5860   29.7040   41.1660 O   0  0  0  0  0  0  0  0  0  0  0  0
   35.3400   30.6310   40.9430 H   0  0  0  0  0  0  0  0  0  0  0  0
   37.0880   29.4360   43.4490 O   0  0  0  0  0  0  0  0  0  0  0  0
   36.2050   29.0280   43.6900 H   0  0  0  0  0  0  0  0  0  0  0  0
  1  6  1  0  0  0  0
  2  3  1  0  0  0  0
  2  1  2  0  0  0  0
  3  4  2  0  0  0  0
  4  5  1  0  0  0  0
  5  8  1  0  0  0  0
  6  5  2  0  0  0  0
  7  1  1  0  0  0  0
  9  3  1  0  0  0  0
 10 11  1  0  0  0  0
 10  9  1  0  0  0  0
 11  9  1  0  0  0  0
 12 14  1  0  0  0  0
 12  2  1  0  0  0  0
 13 14  2  0  0  0  0
 14 17  1  0  0  0  0
 15 14  1  0  0  0  0
 16 15  1  0  0  0  0
 17 18  1  0  0  0  0
M  END
>  <minimizedAffinity>
-4.10580254

$$$$

 OpenBabel03252502173D

 18 19  0  0  0  0  0  0  0  0999 V2000
   38.3750   31.1270   38.9980 C   0  0  0  0  0  0  0  0  0  0  0  0
   38.7370   30.6360   40.2700 C   0  0  0  0  0  0  0  0  0  0  0  0
   39.6960   31.3470   41.0120 C   0  0  0  0  0  0  0  0  0  0  0  0
   40.2230   32.4660   40.4680 N   0  0  0  0  0  0  0  0  0  0  0  0
   39.8510   32.9060   39.2460 C   0  0  0  0  0  0  0  0  0  0  0  0
   38.9360   32.2490   38.5090 N   0  0  0  0  0  0  0  0  0  0  0  0
   37.6460   30.6470   38.3570 H   0  0  0  0  0  0  0  0  0  0  0  0
   40.3900   33.8150   38.9980 H   0  0  0  0  0  0  0  0  0  0  0  0
   40.0640   30.8110   42.3510 C   0  0  0  0  0  3  0  0  0  0  0  0
   40.9970   29.6760   42.5000 C   0  0  0  0  0  2  0  0  0  0  0  0
   41.4060   31.0780   42.9240 C   0  0  0  0  0  2  0  0  0  0  0  0
   38.1170   29.4780   40.7030 O   0  0  0  0  0  0  0  0  0  0  0  0
   35.7250   28.4410   41.1520 O   0  0  0  0  0  0  0  0  0  0  0  0
   36.6420   29.5320   41.5830 P   0  0  0  0  0  0  0  0  0  0  0  0
   36.9330   29.3490   43.2520 O   0  0  0  0  0  0  0  0  0  0  0  0
   36.2850   28.7350   43.6660 H   0  0  0  0  0  0  0  0  0  0  0  0
   35.8730   31.0260   41.3530 O   0  0  0  0  0  0  0  0  0  0  0  0
   36.1090   31.6370   42.1110 H   0  0  0  0  0  0  0  0  0  0  0  0
  1  2  1  0  0  0  0
  2 12  1  0  0  0  0
  2  3  2  0  0  0  0
  3  9  1  0  0  0  0
  4  3  1  0  0  0  0
  5  4  2  0  0  0  0
  6  1  2  0  0  0  0
  6  5  1  0  0  0  0
  7  1  1  0  0  0  0
  8  5  1  0  0  0  0
  9 10  1  0  0  0  0
  9 11  1  0  0  0  0
 10 11  1  0  0  0  0
 12 14  1  0  0  0  0
 13 14  2  0  0  0  0
 14 15  1  0  0  0  0
 15 16  1  0  0  0  0
 17 14  1  0  0  0  0
 17 18  1  0  0  0  0
M  END
>  <minimizedAffinity>
-4.07768917

$$$$

 OpenBabel03252502173D

 18 19  0  0  0  0  0  0  0  0999 V2000
   38.0370   28.8020   38.7260 C   0  0  0  0  0  0  0  0  0  0  0  0
   37.8950   29.8750   39.6300 C   0  0  0  0  0  0  0  0  0  0  0  0
   37.4750   31.1190   39.1290 C   0  0  0  0  0  0  0  0  0  0  0  0
   37.2300   31.2240   37.8050 N   0  0  0  0  0  0  0  0  0  0  0  0
   37.3770   30.1740   36.9690 C   0  0  0  0  0  0  0  0  0  0  0  0
   37.7770   28.9690   37.4160 N   0  0  0  0  0  0  0  0  0  0  0  0
   38.3540   27.8100   39.0210 H   0  0  0  0  0  0  0  0  0  0  0  0
   37.1300   30.4680   35.9540 H   0  0  0  0  0  0  0  0  0  0  0  0
   37.3320   32.2380   40.1010 C   0  0  0  0  0  3  0  0  0  0  0  0
   38.4820   33.0850   40.4800 C   0  0  0  0  0  2  0  0  0  0  0  0
   37.3500   33.6460   39.6330 C   0  0  0  0  0  2  0  0  0  0  0  0
   38.1800   29.6260   40.9610 O   0  0  0  0  0  0  0  0  0  0  0  0
   37.5170   27.2710   41.9660 O   0  0  0  0  0  0  0  0  0  0  0  0
   37.1150   28.7040   41.9440 P   0  0  0  0  0  0  0  0  0  0  0  0
   37.1290   29.2820   43.5480 O   0  0  0  0  0  0  0  0  0  0  0  0
   37.1590   28.5420   44.1970 H   0  0  0  0  0  0  0  0  0  0  0  0
   35.5250   28.8250   41.3650 O   0  0  0  0  0  0  0  0  0  0  0  0
   35.0440   29.5420   41.8740 H   0  0  0  0  0  0  0  0  0  0  0  0
  1  7  1  0  0  0  0
  1  2  1  0  0  0  0
  2 12  1  0  0  0  0
  3  2  2  0  0  0  0
  3  9  1  0  0  0  0
  4  3  1  0  0  0  0
  5  6  1  0  0  0  0
  5  4  2  0  0  0  0
  6  1  2  0  0  0  0
  8  5  1  0  0  0  0
  9 10  1  0  0  0  0
 11  9  1  0  0  0  0
 11 10  1  0  0  0  0
 12 14  1  0  0  0  0
 14 13  2  0  0  0  0
 14 15  1  0  0  0  0
 15 16  1  0  0  0  0
 17 18  1  0  0  0  0
 17 14  1  0  0  0  0
M  END
>  <minimizedAffinity>
-4.04184866

$$$$

 OpenBabel03252502173D

 18 19  0  0  0  0  0  0  0  0999 V2000
   36.3300   28.1360   38.6400 C   0  0  0  0  0  0  0  0  0  0  0  0
   36.3460   28.6210   39.9650 C   0  0  0  0  0  0  0  0  0  0  0  0
   36.6590   27.7240   41.0000 C   0  0  0  0  0  0  0  0  0  0  0  0
   36.9280   26.4410   40.6740 N   0  0  0  0  0  0  0  0  0  0  0  0
   36.9030   26.0130   39.3930 C   0  0  0  0  0  0  0  0  0  0  0  0
   36.6080   26.8450   38.3780 N   0  0  0  0  0  0  0  0  0  0  0  0
   36.1020   28.7530   37.7810 H   0  0  0  0  0  0  0  0  0  0  0  0
   37.1480   24.9560   39.3490 H   0  0  0  0  0  0  0  0  0  0  0  0
   36.6690   28.2570   42.3900 C   0  0  0  0  0  3  0  0  0  0  0  0
   36.4970   27.3710   43.5600 C   0  0  0  0  0  2  0  0  0  0  0  0
   37.8390   28.0270   43.2730 C   0  0  0  0  0  2  0  0  0  0  0  0
   36.0510   29.9590   40.1550 O   0  0  0  0  0  0  0  0  0  0  0  0
   38.5540   30.8130   40.1100 O   0  0  0  0  0  0  0  0  0  0  0  0
   37.1680   31.1900   39.7190 P   0  0  0  0  0  0  0  0  0  0  0  0
   37.1470   31.4480   38.0340 O   0  0  0  0  0  0  0  0  0  0  0  0
   38.0580   31.5390   37.6720 H   0  0  0  0  0  0  0  0  0  0  0  0
   36.7580   32.6520   40.4710 O   0  0  0  0  0  0  0  0  0  0  0  0
   36.2150   33.2070   39.8370 H   0  0  0  0  0  0  0  0  0  0  0  0
  1  2  1  0  0  0  0
  2 12  1  0  0  0  0
  2  3  2  0  0  0  0
  3  9  1  0  0  0  0
  4  3  1  0  0  0  0
  5  4  2  0  0  0  0
  6  1  2  0  0  0  0
  6  5  1  0  0  0  0
  7  1  1  0  0  0  0
  8  5  1  0  0  0  0
  9 11  1  0  0  0  0
  9 10  1  0  0  0  0
 11 10  1  0  0  0  0
 14 13  2  0  0  0  0
 14 12  1  0  0  0  0
 14 17  1  0  0  0  0
 15 14  1  0  0  0  0
 16 15  1  0  0  0  0
 18 17  1  0  0  0  0
M  END
>  <minimizedAffinity>
-3.96113753

$$$$

 OpenBabel03252502173D

 18 19  0  0  0  0  0  0  0  0999 V2000
   38.0090   28.2020   40.4700 C   0  0  0  0  0  0  0  0  0  0  0  0
   37.1430   28.8000   39.5300 C   0  0  0  0  0  0  0  0  0  0  0  0
   36.1370   28.0080   38.9500 C   0  0  0  0  0  0  0  0  0  0  0  0
   36.0500   26.7130   39.3230 N   0  0  0  0  0  0  0  0  0  0  0  0
   36.8980   26.1740   40.2270 C   0  0  0  0  0  0  0  0  0  0  0  0
   37.8720   26.9050   40.8010 N   0  0  0  0  0  0  0  0  0  0  0  0
   38.8100   28.7340   40.9660 H   0  0  0  0  0  0  0  0  0  0  0  0
   36.6570   25.1280   40.3860 H   0  0  0  0  0  0  0  0  0  0  0  0
   35.2350   28.6600   37.9610 C   0  0  0  0  0  3  0  0  0  0  0  0
   34.1990   27.8940   37.2370 C   0  0  0  0  0  2  0  0  0  0  0  0
   33.8120   28.9150   38.2970 C   0  0  0  0  0  2  0  0  0  0  0  0
   37.3460   30.1380   39.2410 O   0  0  0  0  0  0  0  0  0  0  0  0
   38.2560   31.5230   41.3030 O   0  0  0  0  0  0  0  0  0  0  0  0
   37.0690   31.3570   40.4200 P   0  0  0  0  0  0  0  0  0  0  0  0
   36.7530   32.8540   39.6700 O   0  0  0  0  0  0  0  0  0  0  0  0
   37.2340   33.5890   40.1160 H   0  0  0  0  0  0  0  0  0  0  0  0
   35.7220   30.9610   41.3710 O   0  0  0  0  0  0  0  0  0  0  0  0
   34.9130   31.4220   41.0020 H   0  0  0  0  0  0  0  0  0  0  0  0
  1  6  1  0  0  0  0
  1  7  1  0  0  0  0
  2  1  2  0  0  0  0
  3  4  2  0  0  0  0
  3  2  1  0  0  0  0
  4  5  1  0  0  0  0
  5  8  1  0  0  0  0
  5  6  2  0  0  0  0
  9 11  1  0  0  0  0
  9  3  1  0  0  0  0
 10  9  1  0  0  0  0
 10 11  1  0  0  0  0
 12  2  1  0  0  0  0
 12 14  1  0  0  0  0
 14 13  2  0  0  0  0
 14 17  1  0  0  0  0
 15 16  1  0  0  0  0
 15 14  1  0  0  0  0
 18 17  1  0  0  0  0
M  END
>  <minimizedAffinity>
-3.95368266

$$$$
