
 OpenBabel03252509113D

 25 28  0  0  0  0  0  0  0  0999 V2000
   46.7840   31.2310   43.9860 C   0  0  0  0  0  0  0  0  0  0  0  0
   47.2660   32.3090   43.2470 C   0  0  0  0  0  0  0  0  0  0  0  0
   48.5690   32.3570   42.7340 C   0  0  0  0  0  0  0  0  0  0  0  0
   49.4180   31.2860   42.9690 C   0  0  0  0  0  0  0  0  0  0  0  0
   50.7000   30.9860   42.6550 N   0  0  0  0  0  0  0  0  0  0  0  0
   51.0160   29.7740   43.1700 C   0  0  0  0  0  0  0  0  0  0  0  0
   49.9130   29.3340   43.8040 N   0  0  0  0  0  0  0  0  0  0  0  0
   48.9230   30.2350   43.6990 C   0  0  0  0  0  0  0  0  0  0  0  0
   47.6410   30.1550   44.2200 C   0  0  0  0  0  0  0  0  0  0  0  0
   45.7560   31.2640   44.3560 H   0  0  0  0  0  0  0  0  0  0  0  0
   51.3480   31.5910   42.1120 H   0  0  0  0  0  0  0  0  0  0  0  0
   51.9990   29.3180   43.0470 H   0  0  0  0  0  0  0  0  0  0  0  0
   47.2740   29.3240   44.7880 H   0  0  0  0  0  0  0  0  0  0  0  0
   45.2730   35.3610   43.7250 C   0  0  0  0  0  0  0  0  0  0  0  0
   44.7370   35.5790   42.4570 C   0  0  0  0  0  0  0  0  0  0  0  0
   45.0640   34.6730   41.4420 C   0  0  0  0  0  0  0  0  0  0  0  0
   45.8900   33.6330   41.7670 N   0  0  0  0  0  0  0  0  0  0  0  0
   46.3940   33.4420   42.9900 C   0  0  0  0  0  0  0  0  0  0  0  0
   46.0800   34.3050   43.9510 N   0  0  0  0  0  0  0  0  0  0  0  0
   45.1040   35.9710   44.5800 H   0  0  0  0  0  0  0  0  0  0  0  0
   44.1060   36.4220   42.3240 H   0  0  0  0  0  0  0  0  0  0  0  0
   44.6670   34.8180   40.4650 H   0  0  0  0  0  0  0  0  0  0  0  0
   49.0300   33.5380   41.9650 C   0  0  0  0  0  3  0  0  0  0  0  0
   50.4270   34.0620   42.3930 C   0  0  0  0  0  2  0  0  0  0  0  0
   49.2030   34.8710   42.6110 C   0  0  0  0  0  2  0  0  0  0  0  0
  1  9  1  0  0  0  0
  1 10  1  0  0  0  0
  2  1  2  0  0  0  0
  3  4  2  0  0  0  0
  3  2  1  0  0  0  0
  4  8  1  0  0  0  0
  5  4  1  0  0  0  0
  5  6  1  0  0  0  0
  6  7  2  0  0  0  0
  8  7  1  0  0  0  0
  8  9  2  0  0  0  0
  9 13  1  0  0  0  0
 11  5  1  0  0  0  0
 12  6  1  0  0  0  0
 14 19  1  0  0  0  0
 14 20  1  0  0  0  0
 15 14  2  0  0  0  0
 16 17  2  0  0  0  0
 16 15  1  0  0  0  0
 17 18  1  0  0  0  0
 18  2  1  0  0  0  0
 18 19  2  0  0  0  0
 21 15  1  0  0  0  0
 22 16  1  0  0  0  0
 23 24  1  0  0  0  0
 23 25  1  0  0  0  0
 23  3  1  0  0  0  0
 24 25  1  0  0  0  0
M  END
>  <minimizedAffinity>
-3.93308425

>  <minimizedRMSD>
4.68249226

$$$$
