
 OpenBabel03252508293D

 33 36  0  0  1  0  0  0  0  0999 V2000
   41.5180   33.4180   39.6140 N   0  0  0  0  0  0  0  0  0  0  0  0
   41.6360   33.3160   41.0710 C   0  0  2  0  0  0  0  0  0  0  0  0
   40.4930   33.9400   41.7840 C   0  0  0  0  0  0  0  0  0  0  0  0
   39.4030   34.2960   40.8920 N   0  0  0  0  0  0  0  0  0  0  0  0
   39.7820   35.0250   39.7350 C   0  0  0  0  0  0  0  0  0  0  0  0
   41.2340   34.8530   39.3820 C   0  0  2  0  0  0  0  0  0  0  0  0
   40.6810   32.8560   39.3590 H   0  0  0  0  0  0  0  0  0  0  0  0
   41.7050   32.2230   41.3170 H   0  0  0  0  0  0  0  0  0  0  0  0
   40.6750   34.9150   42.2680 H   0  0  0  0  0  0  0  0  0  0  0  0
   40.0420   33.2020   42.5010 H   0  0  0  0  0  0  0  0  0  0  0  0
   38.7480   33.5040   40.7270 H   0  0  0  0  0  0  0  0  0  0  0  0
   39.1640   34.6750   38.8810 H   0  0  0  0  0  0  0  0  0  0  0  0
   39.5680   36.1160   39.8770 H   0  0  0  0  0  0  0  0  0  0  0  0
   41.8420   35.4290   40.1200 H   0  0  0  0  0  0  0  0  0  0  0  0
   44.9620   34.4040   41.9360 C   0  0  0  0  0  0  0  0  0  0  0  0
   44.1690   35.5410   42.1340 C   0  0  0  0  0  0  0  0  0  0  0  0
   42.8480   35.2460   41.8360 C   0  0  0  0  0  0  0  0  0  0  0  0
   42.8650   33.9670   41.4690 N   0  0  0  0  0  0  0  0  0  0  0  0
   44.0950   33.4770   41.5280 N   0  0  0  0  0  0  0  0  0  0  0  0
   44.6650   36.4590   42.4780 H   0  0  0  0  0  0  0  0  0  0  0  0
   42.2330   36.1240   41.9960 H   0  0  0  0  0  0  0  0  0  0  0  0
   48.6710   35.0150   41.8940 C   0  0  0  0  0  0  0  0  0  0  0  0
   47.2910   35.2000   41.5700 C   0  0  0  0  0  0  0  0  0  0  0  0
   46.4060   34.3340   42.1630 C   0  0  0  0  0  0  0  0  0  0  0  0
   46.8670   33.3770   43.0040 N   0  0  0  0  0  0  0  0  0  0  0  0
   48.1700   33.2150   43.3010 C   0  0  0  0  0  0  0  0  0  0  0  0
   49.0470   34.0400   42.7370 N   0  0  0  0  0  0  0  0  0  0  0  0
   49.3540   35.6860   41.4330 H   0  0  0  0  0  0  0  0  0  0  0  0
   46.9210   35.9510   40.9100 H   0  0  0  0  0  0  0  0  0  0  0  0
   48.5180   32.4430   43.9740 H   0  0  0  0  0  0  0  0  0  0  0  0
   41.5740   35.2200   37.9910 C   0  0  0  0  0  3  0  0  0  0  0  0
   41.5590   36.5760   37.4560 C   0  0  0  0  0  2  0  0  0  0  0  0
   40.3980   35.6750   37.1310 C   0  0  0  0  0  2  0  0  0  0  0  0
  1  2  1  0  0  0  0
  2  8  1  1  0  0  0
  2 18  1  0  0  0  0
  2  3  1  0  0  0  0
  3  9  1  0  0  0  0
  3 10  1  0  0  0  0
  4  3  1  0  0  0  0
  5 13  1  0  0  0  0
  5  4  1  0  0  0  0
  6  1  1  0  0  0  0
  6  5  1  0  0  0  0
  6 14  1  1  0  0  0
  7  1  1  0  0  0  0
 11  4  1  0  0  0  0
 12  5  1  0  0  0  0
 15 16  1  0  0  0  0
 15 24  1  0  0  0  0
 16 20  1  0  0  0  0
 17 21  1  0  0  0  0
 17 16  2  0  0  0  0
 18 19  1  0  0  0  0
 18 17  1  0  0  0  0
 19 15  2  0  0  0  0
 22 27  1  0  0  0  0
 23 22  2  0  0  0  0
 23 24  1  0  0  0  0
 24 25  2  0  0  0  0
 25 26  1  0  0  0  0
 26 30  1  0  0  0  0
 27 26  2  0  0  0  0
 28 22  1  0  0  0  0
 29 23  1  0  0  0  0
 31  6  1  0  0  0  0
 32 31  1  0  0  0  0
 33 32  1  0  0  0  0
 33 31  1  0  0  0  0
M  END
>  <minimizedAffinity>
-4.89198256

>  <minimizedRMSD>
1.12836683

$$$$
