
 OpenBabel03242510063D

 12 13  0  0  0  0  0  0  0  0999 V2000
   38.3000   31.1980   41.0930 C   0  0  0  0  0  0  0  0  0  0  0  0
   37.0990   31.4190   40.3740 C   0  0  0  0  0  0  0  0  0  0  0  0
   36.0480   30.5000   40.5560 C   0  0  0  0  0  0  0  0  0  0  0  0
   36.2460   29.4610   41.4050 N   0  0  0  0  0  0  0  0  0  0  0  0
   37.4120   29.2800   42.0790 C   0  0  0  0  0  0  0  0  0  0  0  0
   38.4160   30.1500   41.9110 N   0  0  0  0  0  0  0  0  0  0  0  0
   39.0780   31.9310   40.9200 H   0  0  0  0  0  0  0  0  0  0  0  0
   36.9090   32.2270   39.6970 H   0  0  0  0  0  0  0  0  0  0  0  0
   35.0930   30.6140   40.0300 H   0  0  0  0  0  0  0  0  0  0  0  0
   37.5630   28.1190   42.9950 C   0  0  0  0  0  3  0  0  0  0  0  0
   36.4230   27.4630   43.6390 C   0  0  0  0  0  2  0  0  0  0  0  0
   37.1690   26.7500   42.5150 C   0  0  0  0  0  2  0  0  0  0  0  0
  1  6  1  0  0  0  0
  2  3  1  0  0  0  0
  2  1  2  0  0  0  0
  3  4  2  0  0  0  0
  4  5  1  0  0  0  0
  5 10  1  0  0  0  0
  6  5  2  0  0  0  0
  7  1  1  0  0  0  0
  8  2  1  0  0  0  0
  9  3  1  0  0  0  0
 10 11  1  0  0  0  0
 12 10  1  0  0  0  0
 12 11  1  0  0  0  0
M  END
>  <minimizedAffinity>
-3.3138361

$$$$

 OpenBabel03242510063D

 12 13  0  0  0  0  0  0  0  0999 V2000
   36.2160   30.6880   40.6380 C   0  0  0  0  0  0  0  0  0  0  0  0
   37.2270   31.5740   40.1870 C   0  0  0  0  0  0  0  0  0  0  0  0
   38.4850   31.5050   40.8150 C   0  0  0  0  0  0  0  0  0  0  0  0
   38.6550   30.5990   41.8110 N   0  0  0  0  0  0  0  0  0  0  0  0
   37.6630   29.7650   42.2170 C   0  0  0  0  0  0  0  0  0  0  0  0
   36.4640   29.8240   41.6240 N   0  0  0  0  0  0  0  0  0  0  0  0
   35.2670   30.7790   40.1250 H   0  0  0  0  0  0  0  0  0  0  0  0
   37.1270   32.2990   39.4060 H   0  0  0  0  0  0  0  0  0  0  0  0
   39.3090   32.1620   40.5140 H   0  0  0  0  0  0  0  0  0  0  0  0
   37.9170   28.7960   43.3150 C   0  0  0  0  0  3  0  0  0  0  0  0
   36.9650   27.7440   43.6800 C   0  0  0  0  0  2  0  0  0  0  0  0
   38.2660   27.3740   42.9730 C   0  0  0  0  0  2  0  0  0  0  0  0
  1  6  1  0  0  0  0
  2  1  2  0  0  0  0
  2  3  1  0  0  0  0
  3  4  2  0  0  0  0
  4  5  1  0  0  0  0
  5 10  1  0  0  0  0
  6  5  2  0  0  0  0
  7  1  1  0  0  0  0
  8  2  1  0  0  0  0
  9  3  1  0  0  0  0
 10 11  1  0  0  0  0
 12 10  1  0  0  0  0
 12 11  1  0  0  0  0
M  END
>  <minimizedAffinity>
-3.30998564

$$$$

 OpenBabel03242510063D

 12 13  0  0  0  0  0  0  0  0999 V2000
   38.6510   29.0330   43.0550 C   0  0  0  0  0  0  0  0  0  0  0  0
   38.0330   27.7710   43.2370 C   0  0  0  0  0  0  0  0  0  0  0  0
   36.8210   27.5320   42.5610 C   0  0  0  0  0  0  0  0  0  0  0  0
   36.3190   28.5200   41.7790 N   0  0  0  0  0  0  0  0  0  0  0  0
   36.9400   29.7190   41.6260 C   0  0  0  0  0  0  0  0  0  0  0  0
   38.0930   29.9530   42.2660 N   0  0  0  0  0  0  0  0  0  0  0  0
   39.5800   29.1680   43.5940 H   0  0  0  0  0  0  0  0  0  0  0  0
   38.4000   26.9710   43.8450 H   0  0  0  0  0  0  0  0  0  0  0  0
   36.2910   26.5780   42.6590 H   0  0  0  0  0  0  0  0  0  0  0  0
   36.3350   30.7590   40.7530 C   0  0  0  0  0  3  0  0  0  0  0  0
   37.0740   31.9370   40.2950 C   0  0  0  0  0  2  0  0  0  0  0  0
   36.7360   30.8260   39.3060 C   0  0  0  0  0  2  0  0  0  0  0  0
  1  2  1  0  0  0  0
  1  7  1  0  0  0  0
  2  8  1  0  0  0  0
  3  9  1  0  0  0  0
  3  2  2  0  0  0  0
  4  3  1  0  0  0  0
  5  4  2  0  0  0  0
  5  6  1  0  0  0  0
  6  1  2  0  0  0  0
 10  5  1  0  0  0  0
 11 10  1  0  0  0  0
 12 11  1  0  0  0  0
 12 10  1  0  0  0  0
M  END
>  <minimizedAffinity>
-3.29983616

$$$$

 OpenBabel03242510063D

 12 13  0  0  0  0  0  0  0  0999 V2000
   36.2800   29.3420   39.3070 C   0  0  0  0  0  0  0  0  0  0  0  0
   36.4220   30.6890   39.7240 C   0  0  0  0  0  0  0  0  0  0  0  0
   36.7950   30.9240   41.0610 C   0  0  0  0  0  0  0  0  0  0  0  0
   36.9950   29.8530   41.8680 N   0  0  0  0  0  0  0  0  0  0  0  0
   36.8510   28.5740   41.4340 C   0  0  0  0  0  0  0  0  0  0  0  0
   36.4960   28.3420   40.1640 N   0  0  0  0  0  0  0  0  0  0  0  0
   35.9930   29.2120   38.2720 H   0  0  0  0  0  0  0  0  0  0  0  0
   36.2710   31.5570   39.1160 H   0  0  0  0  0  0  0  0  0  0  0  0
   36.9210   31.9420   41.4470 H   0  0  0  0  0  0  0  0  0  0  0  0
   37.0860   27.4440   42.3720 C   0  0  0  0  0  3  0  0  0  0  0  0
   37.8590   27.5870   43.6070 C   0  0  0  0  0  2  0  0  0  0  0  0
   36.3450   27.4100   43.6790 C   0  0  0  0  0  2  0  0  0  0  0  0
  1  2  2  0  0  0  0
  1  6  1  0  0  0  0
  2  3  1  0  0  0  0
  3  9  1  0  0  0  0
  3  4  2  0  0  0  0
  5  4  1  0  0  0  0
  5 10  1  0  0  0  0
  6  5  2  0  0  0  0
  7  1  1  0  0  0  0
  8  2  1  0  0  0  0
 10 11  1  0  0  0  0
 10 12  1  0  0  0  0
 11 12  1  0  0  0  0
M  END
>  <minimizedAffinity>
-3.21467495

$$$$

 OpenBabel03242510063D

 12 13  0  0  0  0  0  0  0  0999 V2000
   35.8660   28.3510   40.3250 C   0  0  0  0  0  0  0  0  0  0  0  0
   35.5810   29.6940   39.9760 C   0  0  0  0  0  0  0  0  0  0  0  0
   36.1790   30.7110   40.7440 C   0  0  0  0  0  0  0  0  0  0  0  0
   36.9900   30.3470   41.7690 N   0  0  0  0  0  0  0  0  0  0  0  0
   37.2410   29.0480   42.0760 C   0  0  0  0  0  0  0  0  0  0  0  0
   36.6760   28.0750   41.3490 N   0  0  0  0  0  0  0  0  0  0  0  0
   35.3840   27.6050   39.7060 H   0  0  0  0  0  0  0  0  0  0  0  0
   34.9480   30.0170   39.1760 H   0  0  0  0  0  0  0  0  0  0  0  0
   36.0000   31.7700   40.5260 H   0  0  0  0  0  0  0  0  0  0  0  0
   38.1390   28.7170   43.2130 C   0  0  0  0  0  3  0  0  0  0  0  0
   38.3560   27.3460   43.6800 C   0  0  0  0  0  2  0  0  0  0  0  0
   39.4700   28.0760   42.9350 C   0  0  0  0  0  2  0  0  0  0  0  0
  1  6  1  0  0  0  0
  2  1  2  0  0  0  0
  2  3  1  0  0  0  0
  3  4  2  0  0  0  0
  4  5  1  0  0  0  0
  5 10  1  0  0  0  0
  6  5  2  0  0  0  0
  7  1  1  0  0  0  0
  8  2  1  0  0  0  0
  9  3  1  0  0  0  0
 10 11  1  0  0  0  0
 12 10  1  0  0  0  0
 12 11  1  0  0  0  0
M  END
>  <minimizedAffinity>
-3.1945312

$$$$

 OpenBabel03242510063D

 12 13  0  0  0  0  0  0  0  0999 V2000
   39.4700   27.9700   43.0100 C   0  0  0  0  0  0  0  0  0  0  0  0
   38.6960   29.1560   42.9650 C   0  0  0  0  0  0  0  0  0  0  0  0
   37.3220   29.0310   42.6830 C   0  0  0  0  0  0  0  0  0  0  0  0
   36.8220   27.7870   42.4720 N   0  0  0  0  0  0  0  0  0  0  0  0
   37.5940   26.6710   42.5240 C   0  0  0  0  0  0  0  0  0  0  0  0
   38.9020   26.7820   42.7920 N   0  0  0  0  0  0  0  0  0  0  0  0
   40.5190   28.1170   43.2310 H   0  0  0  0  0  0  0  0  0  0  0  0
   39.0560   30.1510   43.1260 H   0  0  0  0  0  0  0  0  0  0  0  0
   36.6680   29.9090   42.6330 H   0  0  0  0  0  0  0  0  0  0  0  0
   36.9830   25.3380   42.2820 C   0  0  0  0  0  3  0  0  0  0  0  0
   36.9190   24.7240   40.9540 C   0  0  0  0  0  2  0  0  0  0  0  0
   37.8760   24.1620   42.0010 C   0  0  0  0  0  2  0  0  0  0  0  0
  1  7  1  0  0  0  0
  2  1  1  0  0  0  0
  2  8  1  0  0  0  0
  3  2  2  0  0  0  0
  4  5  2  0  0  0  0
  4  3  1  0  0  0  0
  5  6  1  0  0  0  0
  6  1  2  0  0  0  0
  9  3  1  0  0  0  0
 10  5  1  0  0  0  0
 11 12  1  0  0  0  0
 11 10  1  0  0  0  0
 12 10  1  0  0  0  0
M  END
>  <minimizedAffinity>
-3.18219137

$$$$

 OpenBabel03242510063D

 12 13  0  0  0  0  0  0  0  0999 V2000
   40.1150   25.5580   43.6520 C   0  0  0  0  0  0  0  0  0  0  0  0
   39.7650   24.3980   42.9190 C   0  0  0  0  0  0  0  0  0  0  0  0
   38.5370   24.4040   42.2300 C   0  0  0  0  0  0  0  0  0  0  0  0
   37.7650   25.5170   42.3090 N   0  0  0  0  0  0  0  0  0  0  0  0
   38.1330   26.6130   43.0220 C   0  0  0  0  0  0  0  0  0  0  0  0
   39.3000   26.6140   43.6790 N   0  0  0  0  0  0  0  0  0  0  0  0
   41.0670   25.5050   44.1640 H   0  0  0  0  0  0  0  0  0  0  0  0
   40.3490   23.5040   42.8350 H   0  0  0  0  0  0  0  0  0  0  0  0
   38.2070   23.5390   41.6440 H   0  0  0  0  0  0  0  0  0  0  0  0
   37.2390   27.8000   43.0670 C   0  0  0  0  0  3  0  0  0  0  0  0
   37.5640   29.0630   42.4000 C   0  0  0  0  0  2  0  0  0  0  0  0
   36.4560   28.1750   41.8390 C   0  0  0  0  0  2  0  0  0  0  0  0
  1  6  1  0  0  0  0
  1  7  1  0  0  0  0
  2  1  2  0  0  0  0
  3  4  2  0  0  0  0
  3  2  1  0  0  0  0
  4  5  1  0  0  0  0
  5 10  1  0  0  0  0
  5  6  2  0  0  0  0
  8  2  1  0  0  0  0
  9  3  1  0  0  0  0
 11 10  1  0  0  0  0
 12 11  1  0  0  0  0
 12 10  1  0  0  0  0
M  END
>  <minimizedAffinity>
-3.171278

$$$$

 OpenBabel03242510063D

 12 13  0  0  0  0  0  0  0  0999 V2000
   37.4040   29.3140   42.5160 C   0  0  0  0  0  0  0  0  0  0  0  0
   38.7420   29.5610   42.9120 C   0  0  0  0  0  0  0  0  0  0  0  0
   39.4390   30.5940   42.2560 C   0  0  0  0  0  0  0  0  0  0  0  0
   38.7910   31.2880   41.2870 N   0  0  0  0  0  0  0  0  0  0  0  0
   37.5060   31.0230   40.9320 C   0  0  0  0  0  0  0  0  0  0  0  0
   36.8370   30.0420   41.5530 N   0  0  0  0  0  0  0  0  0  0  0  0
   36.9110   28.5110   43.0490 H   0  0  0  0  0  0  0  0  0  0  0  0
   39.2830   29.0350   43.6710 H   0  0  0  0  0  0  0  0  0  0  0  0
   40.4760   30.8360   42.5150 H   0  0  0  0  0  0  0  0  0  0  0  0
   36.8560   31.8220   39.8610 C   0  0  0  0  0  3  0  0  0  0  0  0
   37.3090   33.1630   39.4860 C   0  0  0  0  0  2  0  0  0  0  0  0
   37.5570   31.9890   38.5420 C   0  0  0  0  0  2  0  0  0  0  0  0
  1  2  1  0  0  0  0
  1  7  1  0  0  0  0
  2  8  1  0  0  0  0
  3  9  1  0  0  0  0
  3  2  2  0  0  0  0
  4  3  1  0  0  0  0
  5  4  2  0  0  0  0
  5  6  1  0  0  0  0
  6  1  2  0  0  0  0
 10  5  1  0  0  0  0
 11 10  1  0  0  0  0
 12 11  1  0  0  0  0
 12 10  1  0  0  0  0
M  END
>  <minimizedAffinity>
-3.16721749

$$$$

 OpenBabel03242510063D

 12 13  0  0  0  0  0  0  0  0999 V2000
   36.2890   27.4650   38.9690 C   0  0  0  0  0  0  0  0  0  0  0  0
   35.5340   28.6610   38.8800 C   0  0  0  0  0  0  0  0  0  0  0  0
   35.2740   29.3600   40.0750 C   0  0  0  0  0  0  0  0  0  0  0  0
   35.7590   28.8500   41.2340 N   0  0  0  0  0  0  0  0  0  0  0  0
   36.4790   27.6990   41.2820 C   0  0  0  0  0  0  0  0  0  0  0  0
   36.7310   27.0280   40.1500 N   0  0  0  0  0  0  0  0  0  0  0  0
   36.4630   26.9630   38.0250 H   0  0  0  0  0  0  0  0  0  0  0  0
   35.1380   29.0910   37.9850 H   0  0  0  0  0  0  0  0  0  0  0  0
   34.6970   30.2920   40.0750 H   0  0  0  0  0  0  0  0  0  0  0  0
   36.9810   27.1940   42.5870 C   0  0  0  0  0  3  0  0  0  0  0  0
   38.3810   27.3170   42.9990 C   0  0  0  0  0  2  0  0  0  0  0  0
   37.3150   28.1770   43.6730 C   0  0  0  0  0  2  0  0  0  0  0  0
  1  6  1  0  0  0  0
  2  1  2  0  0  0  0
  2  3  1  0  0  0  0
  3  9  1  0  0  0  0
  3  4  2  0  0  0  0
  4  5  1  0  0  0  0
  5 10  1  0  0  0  0
  6  5  2  0  0  0  0
  7  1  1  0  0  0  0
  8  2  1  0  0  0  0
 10 11  1  0  0  0  0
 10 12  1  0  0  0  0
 11 12  1  0  0  0  0
M  END
>  <minimizedAffinity>
-3.02517462

$$$$
