
 OpenBabel03252505383D

 15 16  0  0  0  0  0  0  0  0999 V2000
   45.5330   34.1530   44.4070 C   0  0  0  0  0  0  0  0  0  0  0  0
   46.4870   33.5960   43.5340 C   0  0  0  0  0  0  0  0  0  0  0  0
   47.3730   32.6630   44.0590 C   0  0  0  0  0  0  0  0  0  0  0  0
   47.2750   32.3380   45.3750 N   0  0  0  0  0  0  0  0  0  0  0  0
   46.3490   32.8930   46.1790 C   0  0  0  0  0  0  0  0  0  0  0  0
   45.4820   33.7990   45.6880 N   0  0  0  0  0  0  0  0  0  0  0  0
   46.4960   33.9050   42.5140 H   0  0  0  0  0  0  0  0  0  0  0  0
   48.1250   32.2080   43.4200 H   0  0  0  0  0  0  0  0  0  0  0  0
   46.4110   32.4000   47.5910 C   0  0  0  0  0  0  0  0  0  0  0  0
   45.3760   32.9000   48.3500 F   0  0  0  0  0  0  0  0  0  0  0  0
   47.6220   32.7480   48.1680 F   0  0  0  0  0  0  0  0  0  0  0  0
   46.3850   30.9990   47.5800 F   0  0  0  0  0  0  0  0  0  0  0  0
   44.5710   35.1560   43.8710 C   0  0  0  0  0  0  0  0  0  0  0  0
   44.8350   36.5900   44.3270 C   0  0  0  0  0  0  0  0  0  0  0  0
   45.0190   36.1820   42.8990 C   0  0  0  0  0  0  0  0  0  0  0  0
  1  6  1  0  0  0  0
  2  3  1  0  0  0  0
  2  1  2  0  0  0  0
  3  4  2  0  0  0  0
  4  5  1  0  0  0  0
  5  9  1  0  0  0  0
  6  5  2  0  0  0  0
  7  2  1  0  0  0  0
  8  3  1  0  0  0  0
  9 11  1  0  0  0  0
  9 10  1  0  0  0  0
 12  9  1  0  0  0  0
 13 14  1  0  0  0  0
 13  1  1  0  0  0  0
 15 13  1  0  0  0  0
 15 14  1  0  0  0  0
M  END
>  <minimizedAffinity>
-3.96599698

>  <minimizedRMSD>
2.02577448

$$$$
