
 OpenBabel03242515203D

 33 35  0  0  0  0  0  0  0  0999 V2000
   46.5320   32.0280   47.4420 C   0  0  0  0  0  0  0  0  0  0  0  0
   47.1450   31.1700   47.1750 H   0  0  0  0  0  0  0  0  0  0  0  0
   47.0760   32.5800   48.2550 H   0  0  0  0  0  0  0  0  0  0  0  0
   45.1220   34.6000   45.1740 C   0  0  0  0  0  0  0  0  0  0  0  0
   45.9790   34.4920   44.0420 C   0  0  0  0  0  0  0  0  0  0  0  0
   46.9720   33.5510   44.1340 C   0  0  0  0  0  0  0  0  0  0  0  0
   47.0430   32.8280   45.2720 N   0  0  0  0  0  0  0  0  0  0  0  0
   46.2430   32.9350   46.3230 C   0  0  0  0  0  0  0  0  0  0  0  0
   45.2840   33.8240   46.2650 N   0  0  0  0  0  0  0  0  0  0  0  0
   44.3000   35.2970   45.2330 H   0  0  0  0  0  0  0  0  0  0  0  0
   47.8770   33.4020   43.0030 C   0  0  0  0  0  0  0  0  0  0  0  0
   48.7810   32.3630   43.2260 F   0  0  0  0  0  0  0  0  0  0  0  0
   48.7000   34.5440   43.0110 F   0  0  0  0  0  0  0  0  0  0  0  0
   47.2410   33.2230   41.8250 F   0  0  0  0  0  0  0  0  0  0  0  0
   45.7240   35.3840   42.8820 C   0  0  0  0  0  0  0  0  0  0  0  0
   45.0730   36.7180   43.0980 C   0  0  0  0  0  0  0  0  0  0  0  0
   44.3430   35.6070   42.3990 C   0  0  0  0  0  0  0  0  0  0  0  0
   45.2810   31.4690   48.0910 C   0  0  0  0  0  0  0  0  0  0  0  0
   44.4250   32.0490   47.6470 H   0  0  0  0  0  0  0  0  0  0  0  0
   45.2330   31.6590   49.1740 H   0  0  0  0  0  0  0  0  0  0  0  0
   45.0750   30.0560   47.7610 C   0  0  0  0  0  0  0  0  0  0  0  0
   45.0680   29.4410   46.5500 C   0  0  0  0  0  0  0  0  0  0  0  0
   44.8320   28.1080   46.7810 C   0  0  0  0  0  0  0  0  0  0  0  0
   44.7010   27.9350   48.0930 N   0  0  0  0  0  0  0  0  0  0  0  0
   44.8490   29.1150   48.6690 N   0  0  0  0  0  0  0  0  0  0  0  0
   45.2270   29.9560   45.6030 H   0  0  0  0  0  0  0  0  0  0  0  0
   44.4380   26.6850   48.8220 C   0  0  0  0  0  0  0  0  0  0  0  0
   44.0990   26.9620   50.1500 F   0  0  0  0  0  0  0  0  0  0  0  0
   45.5300   25.8470   48.7070 F   0  0  0  0  0  0  0  0  0  0  0  0
   43.3450   26.0680   48.2390 F   0  0  0  0  0  0  0  0  0  0  0  0
   44.7420   27.0740   45.7550 C   0  0  0  0  0  0  0  0  0  0  0  0
   43.6870   26.8110   45.1160 O   0  0  0  0  0  0  0  0  0  0  0  0
   45.5980   26.4800   45.5000 H   0  0  0  0  0  0  0  0  0  0  0  0
  1 18  1  0  0  0  0
  1  3  1  0  0  0  0
  2  1  1  0  0  0  0
  4 10  1  0  0  0  0
  4  9  1  0  0  0  0
  5  6  1  0  0  0  0
  5  4  2  0  0  0  0
  6  7  2  0  0  0  0
  7  8  1  0  0  0  0
  8  1  1  0  0  0  0
  9  8  2  0  0  0  0
 11 13  1  0  0  0  0
 11 12  1  0  0  0  0
 11  6  1  0  0  0  0
 14 11  1  0  0  0  0
 15 16  1  0  0  0  0
 15  5  1  0  0  0  0
 17 15  1  0  0  0  0
 17 16  1  0  0  0  0
 18 20  1  0  0  0  0
 19 18  1  0  0  0  0
 21 18  1  0  0  0  0
 21 25  2  0  0  0  0
 22 23  2  0  0  0  0
 22 21  1  0  0  0  0
 23 24  1  0  0  0  0
 24 25  1  0  0  0  0
 24 27  1  0  0  0  0
 26 22  1  0  0  0  0
 27 28  1  0  0  0  0
 29 27  1  0  0  0  0
 30 27  1  0  0  0  0
 31 23  1  0  0  0  0
 32 31  2  0  0  0  0
 33 31  1  0  0  0  0
M  END
>  <minimizedAffinity>
-5.42844725

>  <minimizedRMSD>
1.40926659

$$$$
