
 OpenBabel03252509253D

 21 23  0  0  1  0  0  0  0  0999 V2000
   37.5640   32.2570   38.0920 C   0  0  0  0  0  0  0  0  0  0  0  0
   37.0510   31.8150   39.3300 C   0  0  0  0  0  0  0  0  0  0  0  0
   36.6480   30.5090   39.3680 C   0  0  0  0  0  0  0  0  0  0  0  0
   36.7460   29.6950   38.2460 N   0  0  0  0  0  0  0  0  0  0  0  0
   37.2390   30.1620   37.0930 C   0  0  0  0  0  0  0  0  0  0  0  0
   37.6530   31.4600   37.0180 N   0  0  0  0  0  0  0  0  0  0  0  0
   37.8940   33.2860   38.0240 H   0  0  0  0  0  0  0  0  0  0  0  0
   37.2490   29.4110   36.3180 H   0  0  0  0  0  0  0  0  0  0  0  0
   36.1730   29.9260   40.6760 C   0  0  1  0  0  0  0  0  0  0  0  0
   35.0160   28.9260   40.4260 C   0  0  0  0  0  0  0  0  0  0  0  0
   36.4290   28.5620   40.9610 C   0  0  2  0  0  0  0  0  0  0  0  0
   35.9370   30.6740   41.4530 H   0  0  0  0  0  0  0  0  0  0  0  0
   34.2090   28.9710   41.1510 H   0  0  0  0  0  0  0  0  0  0  0  0
   34.7730   28.6270   39.4110 H   0  0  0  0  0  0  0  0  0  0  0  0
   37.0150   27.9510   40.2410 H   0  0  0  0  0  0  0  0  0  0  0  0
   36.5070   28.1040   42.3950 C   0  0  0  0  0  3  0  0  0  0  0  0
   36.9410   26.7380   42.7450 C   0  0  0  0  0  2  0  0  0  0  0  0
   37.9310   27.8470   42.9250 C   0  0  0  0  0  2  0  0  0  0  0  0
   36.9250   32.6750   40.4550 N   0  0  0  0  0  0  0  0  0  0  0  0
   37.3000   32.6140   41.3950 H   0  0  0  0  0  0  0  0  0  0  0  0
   36.3570   33.5630   40.3940 H   0  0  0  0  0  0  0  0  0  0  0  0
  1  2  1  0  0  0  0
  2  3  2  0  0  0  0
  2 19  1  0  0  0  0
  3  9  1  0  0  0  0
  4  3  1  0  0  0  0
  5  4  2  0  0  0  0
  6  5  1  0  0  0  0
  6  1  2  0  0  0  0
  7  1  1  0  0  0  0
  8  5  1  0  0  0  0
  9 11  1  0  0  0  0
  9 12  1  1  0  0  0
 10  9  1  0  0  0  0
 10 11  1  0  0  0  0
 10 13  1  0  0  0  0
 11 15  1  6  0  0  0
 11 16  1  0  0  0  0
 14 10  1  0  0  0  0
 16 17  1  0  0  0  0
 16 18  1  0  0  0  0
 17 18  1  0  0  0  0
 19 20  1  0  0  0  0
 21 19  1  0  0  0  0
M  END
>  <minimizedAffinity>
-4.451056

$$$$

 OpenBabel03252509253D

 21 23  0  0  1  0  0  0  0  0999 V2000
   35.2840   29.2850   39.3260 C   0  0  0  0  0  0  0  0  0  0  0  0
   35.8940   29.3430   40.5970 C   0  0  0  0  0  0  0  0  0  0  0  0
   36.5450   28.2070   40.9910 C   0  0  0  0  0  0  0  0  0  0  0  0
   36.5850   27.0830   40.1740 N   0  0  0  0  0  0  0  0  0  0  0  0
   35.9900   27.0780   38.9750 C   0  0  0  0  0  0  0  0  0  0  0  0
   35.3320   28.1940   38.5480 N   0  0  0  0  0  0  0  0  0  0  0  0
   34.7600   30.1670   38.9800 H   0  0  0  0  0  0  0  0  0  0  0  0
   36.1100   26.1360   38.4630 H   0  0  0  0  0  0  0  0  0  0  0  0
   37.3030   28.2110   42.2950 C   0  0  1  0  0  0  0  0  0  0  0  0
   36.5720   27.3300   43.3400 C   0  0  0  0  0  0  0  0  0  0  0  0
   37.9640   27.0310   42.7170 C   0  0  2  0  0  0  0  0  0  0  0  0
   37.5540   29.2160   42.6770 H   0  0  0  0  0  0  0  0  0  0  0  0
   36.5590   27.7350   44.3480 H   0  0  0  0  0  0  0  0  0  0  0  0
   35.7400   26.7060   43.0310 H   0  0  0  0  0  0  0  0  0  0  0  0
   37.9550   26.1320   42.0620 H   0  0  0  0  0  0  0  0  0  0  0  0
   39.1500   27.1330   43.6410 C   0  0  0  0  0  3  0  0  0  0  0  0
   40.1890   26.0860   43.6800 C   0  0  0  0  0  2  0  0  0  0  0  0
   40.5080   27.3520   42.9450 C   0  0  0  0  0  2  0  0  0  0  0  0
   35.8080   30.4900   41.4330 N   0  0  0  0  0  0  0  0  0  0  0  0
   36.5240   31.0760   41.8490 H   0  0  0  0  0  0  0  0  0  0  0  0
   34.8700   30.8750   41.7270 H   0  0  0  0  0  0  0  0  0  0  0  0
  1  2  1  0  0  0  0
  2  3  2  0  0  0  0
  2 19  1  0  0  0  0
  3  9  1  0  0  0  0
  4  3  1  0  0  0  0
  5  4  2  0  0  0  0
  6  5  1  0  0  0  0
  6  1  2  0  0  0  0
  7  1  1  0  0  0  0
  8  5  1  0  0  0  0
  9 12  1  1  0  0  0
  9 11  1  0  0  0  0
  9 10  1  0  0  0  0
 10 13  1  0  0  0  0
 11 15  1  6  0  0  0
 11 10  1  0  0  0  0
 11 16  1  0  0  0  0
 14 10  1  0  0  0  0
 16 17  1  0  0  0  0
 18 16  1  0  0  0  0
 18 17  1  0  0  0  0
 19 21  1  0  0  0  0
 19 20  1  0  0  0  0
M  END
>  <minimizedAffinity>
-4.44832039

$$$$

 OpenBabel03252509253D

 21 23  0  0  1  0  0  0  0  0999 V2000
   37.4160   32.5540   40.2290 C   0  0  0  0  0  0  0  0  0  0  0  0
   36.8580   31.2760   40.4370 C   0  0  0  0  0  0  0  0  0  0  0  0
   37.4250   30.2600   39.7190 C   0  0  0  0  0  0  0  0  0  0  0  0
   38.4790   30.5010   38.8460 N   0  0  0  0  0  0  0  0  0  0  0  0
   38.9740   31.7340   38.6830 C   0  0  0  0  0  0  0  0  0  0  0  0
   38.4340   32.7720   39.3840 N   0  0  0  0  0  0  0  0  0  0  0  0
   36.9920   33.3840   40.7820 H   0  0  0  0  0  0  0  0  0  0  0  0
   39.7860   31.7570   37.9730 H   0  0  0  0  0  0  0  0  0  0  0  0
   36.9530   28.8460   39.9490 C   0  0  1  0  0  0  0  0  0  0  0  0
   37.9820   27.8400   39.3740 C   0  0  0  0  0  0  0  0  0  0  0  0
   37.6400   28.0270   40.8780 C   0  0  2  0  0  0  0  0  0  0  0  0
   35.9190   28.6470   39.6130 H   0  0  0  0  0  0  0  0  0  0  0  0
   37.5480   26.9800   38.8720 H   0  0  0  0  0  0  0  0  0  0  0  0
   38.9490   28.1950   39.0320 H   0  0  0  0  0  0  0  0  0  0  0  0
   38.4870   28.4490   41.4600 H   0  0  0  0  0  0  0  0  0  0  0  0
   36.9110   26.8910   41.5490 C   0  0  0  0  0  3  0  0  0  0  0  0
   37.6140   25.9380   42.4290 C   0  0  0  0  0  2  0  0  0  0  0  0
   36.7870   27.0030   43.0810 C   0  0  0  0  0  2  0  0  0  0  0  0
   35.7540   31.0580   41.3070 N   0  0  0  0  0  0  0  0  0  0  0  0
   35.6430   30.4570   42.1170 H   0  0  0  0  0  0  0  0  0  0  0  0
   34.8420   31.5700   41.1610 H   0  0  0  0  0  0  0  0  0  0  0  0
  1  2  1  0  0  0  0
  1  7  1  0  0  0  0
  2 19  1  0  0  0  0
  3  9  1  0  0  0  0
  3  2  2  0  0  0  0
  4  3  1  0  0  0  0
  5  4  2  0  0  0  0
  5  6  1  0  0  0  0
  6  1  2  0  0  0  0
  8  5  1  0  0  0  0
  9 12  1  6  0  0  0
  9 11  1  0  0  0  0
 10  9  1  0  0  0  0
 10 11  1  0  0  0  0
 11 15  1  1  0  0  0
 11 16  1  0  0  0  0
 13 10  1  0  0  0  0
 14 10  1  0  0  0  0
 16 17  1  0  0  0  0
 16 18  1  0  0  0  0
 17 18  1  0  0  0  0
 19 20  1  0  0  0  0
 21 19  1  0  0  0  0
M  END
>  <minimizedAffinity>
-4.18690205

$$$$

 OpenBabel03252509253D

 21 23  0  0  1  0  0  0  0  0999 V2000
   38.5720   31.4310   41.0440 C   0  0  0  0  0  0  0  0  0  0  0  0
   38.8380   30.2150   41.7070 C   0  0  0  0  0  0  0  0  0  0  0  0
   37.7550   29.4040   41.9080 C   0  0  0  0  0  0  0  0  0  0  0  0
   36.4880   29.7810   41.4780 N   0  0  0  0  0  0  0  0  0  0  0  0
   36.2880   30.9460   40.8530 C   0  0  0  0  0  0  0  0  0  0  0  0
   37.3440   31.7800   40.6340 N   0  0  0  0  0  0  0  0  0  0  0  0
   39.4060   32.0990   40.8670 H   0  0  0  0  0  0  0  0  0  0  0  0
   35.2530   31.0930   40.5830 H   0  0  0  0  0  0  0  0  0  0  0  0
   37.9610   28.0440   42.5270 C   0  0  1  0  0  0  0  0  0  0  0  0
   36.7820   27.7030   43.4720 C   0  0  0  0  0  0  0  0  0  0  0  0
   37.1190   26.9720   42.1430 C   0  0  2  0  0  0  0  0  0  0  0  0
   38.9490   27.9000   42.9990 H   0  0  0  0  0  0  0  0  0  0  0  0
   37.0660   27.2060   44.3950 H   0  0  0  0  0  0  0  0  0  0  0  0
   35.9010   28.3380   43.4850 H   0  0  0  0  0  0  0  0  0  0  0  0
   36.3480   27.1330   41.3590 H   0  0  0  0  0  0  0  0  0  0  0  0
   37.6180   25.5550   42.2630 C   0  0  0  0  0  3  0  0  0  0  0  0
   36.8040   24.4100   41.8090 C   0  0  0  0  0  2  0  0  0  0  0  0
   37.9310   24.8540   40.9270 C   0  0  0  0  0  2  0  0  0  0  0  0
   40.1360   29.8670   42.1720 N   0  0  0  0  0  0  0  0  0  0  0  0
   40.7300   29.0680   41.9760 H   0  0  0  0  0  0  0  0  0  0  0  0
   40.6530   30.4930   42.8470 H   0  0  0  0  0  0  0  0  0  0  0  0
  1  2  1  0  0  0  0
  2  3  2  0  0  0  0
  2 19  1  0  0  0  0
  3  9  1  0  0  0  0
  4  3  1  0  0  0  0
  5  4  2  0  0  0  0
  6  5  1  0  0  0  0
  6  1  2  0  0  0  0
  7  1  1  0  0  0  0
  8  5  1  0  0  0  0
  9 12  1  1  0  0  0
  9 10  1  0  0  0  0
 10 14  1  0  0  0  0
 10 13  1  0  0  0  0
 11 15  1  6  0  0  0
 11 16  1  0  0  0  0
 11  9  1  0  0  0  0
 11 10  1  0  0  0  0
 17 16  1  0  0  0  0
 18 17  1  0  0  0  0
 18 16  1  0  0  0  0
 19 21  1  0  0  0  0
 20 19  1  0  0  0  0
M  END
>  <minimizedAffinity>
-4.18442726

$$$$

 OpenBabel03252509253D

 21 23  0  0  1  0  0  0  0  0999 V2000
   39.3870   33.7630   39.9960 C   0  0  0  0  0  0  0  0  0  0  0  0
   38.3020   32.8880   40.2160 C   0  0  0  0  0  0  0  0  0  0  0  0
   38.6350   31.6250   40.6180 C   0  0  0  0  0  0  0  0  0  0  0  0
   39.9640   31.2530   40.7890 N   0  0  0  0  0  0  0  0  0  0  0  0
   40.9580   32.1200   40.5660 C   0  0  0  0  0  0  0  0  0  0  0  0
   40.6640   33.3900   40.1660 N   0  0  0  0  0  0  0  0  0  0  0  0
   39.1610   34.7730   39.6770 H   0  0  0  0  0  0  0  0  0  0  0  0
   41.9290   31.6820   40.7410 H   0  0  0  0  0  0  0  0  0  0  0  0
   37.5360   30.6520   40.9660 C   0  0  1  0  0  0  0  0  0  0  0  0
   37.4430   29.5440   39.8860 C   0  0  0  0  0  0  0  0  0  0  0  0
   37.8750   29.3350   41.3650 C   0  0  2  0  0  0  0  0  0  0  0  0
   36.5610   31.1210   41.1890 H   0  0  0  0  0  0  0  0  0  0  0  0
   36.4320   29.2490   39.6220 H   0  0  0  0  0  0  0  0  0  0  0  0
   38.2120   29.4680   39.1240 H   0  0  0  0  0  0  0  0  0  0  0  0
   38.9450   29.0490   41.4620 H   0  0  0  0  0  0  0  0  0  0  0  0
   36.9270   28.5560   42.2390 C   0  0  0  0  0  3  0  0  0  0  0  0
   37.2460   27.1900   42.6970 C   0  0  0  0  0  2  0  0  0  0  0  0
   37.4150   28.3070   43.6790 C   0  0  0  0  0  2  0  0  0  0  0  0
   36.9510   33.2780   40.0000 N   0  0  0  0  0  0  0  0  0  0  0  0
   36.1470   33.2900   40.6170 H   0  0  0  0  0  0  0  0  0  0  0  0
   36.6370   33.6330   39.0560 H   0  0  0  0  0  0  0  0  0  0  0  0
  1  6  2  0  0  0  0
  1  2  1  0  0  0  0
  2  3  2  0  0  0  0
  3  4  1  0  0  0  0
  3  9  1  0  0  0  0
  5  8  1  0  0  0  0
  5  4  2  0  0  0  0
  6  5  1  0  0  0  0
  7  1  1  0  0  0  0
  9 12  1  1  0  0  0
  9 11  1  0  0  0  0
 10  9  1  0  0  0  0
 10 11  1  0  0  0  0
 11 15  1  1  0  0  0
 11 16  1  0  0  0  0
 13 10  1  0  0  0  0
 14 10  1  0  0  0  0
 16 17  1  0  0  0  0
 16 18  1  0  0  0  0
 17 18  1  0  0  0  0
 19  2  1  0  0  0  0
 19 20  1  0  0  0  0
 21 19  1  0  0  0  0
M  END
>  <minimizedAffinity>
-4.13718033

$$$$

 OpenBabel03252509253D

 21 23  0  0  1  0  0  0  0  0999 V2000
   37.9280   31.4250   40.6730 C   0  0  0  0  0  0  0  0  0  0  0  0
   38.4750   30.6800   41.7390 C   0  0  0  0  0  0  0  0  0  0  0  0
   37.7520   29.5870   42.1270 C   0  0  0  0  0  0  0  0  0  0  0  0
   36.5580   29.2570   41.4960 N   0  0  0  0  0  0  0  0  0  0  0  0
   36.0800   29.9960   40.4890 C   0  0  0  0  0  0  0  0  0  0  0  0
   36.7760   31.0940   40.0740 N   0  0  0  0  0  0  0  0  0  0  0  0
   38.4750   32.2980   40.3380 H   0  0  0  0  0  0  0  0  0  0  0  0
   35.1470   29.6120   40.1060 H   0  0  0  0  0  0  0  0  0  0  0  0
   38.3080   28.6800   43.1960 C   0  0  1  0  0  0  0  0  0  0  0  0
   37.2240   27.6750   43.6610 C   0  0  0  0  0  0  0  0  0  0  0  0
   38.5310   27.3130   42.9000 C   0  0  2  0  0  0  0  0  0  0  0  0
   38.7970   29.2070   44.0350 H   0  0  0  0  0  0  0  0  0  0  0  0
   37.2070   27.4850   44.7300 H   0  0  0  0  0  0  0  0  0  0  0  0
   36.2900   27.6000   43.1140 H   0  0  0  0  0  0  0  0  0  0  0  0
   38.3370   26.9350   41.8730 H   0  0  0  0  0  0  0  0  0  0  0  0
   39.5690   26.5440   43.6760 C   0  0  0  0  0  3  0  0  0  0  0  0
   39.9530   25.1700   43.2970 C   0  0  0  0  0  2  0  0  0  0  0  0
   40.8880   26.2790   42.9240 C   0  0  0  0  0  2  0  0  0  0  0  0
   39.6800   31.0580   42.3950 N   0  0  0  0  0  0  0  0  0  0  0  0
   40.5530   30.5620   42.5370 H   0  0  0  0  0  0  0  0  0  0  0  0
   39.7740   32.0080   42.8450 H   0  0  0  0  0  0  0  0  0  0  0  0
  1  2  1  0  0  0  0
  2  3  2  0  0  0  0
  2 19  1  0  0  0  0
  3  9  1  0  0  0  0
  4  3  1  0  0  0  0
  5  4  2  0  0  0  0
  6  5  1  0  0  0  0
  6  1  2  0  0  0  0
  7  1  1  0  0  0  0
  8  5  1  0  0  0  0
  9 10  1  0  0  0  0
  9 12  1  1  0  0  0
 10 13  1  0  0  0  0
 11 15  1  6  0  0  0
 11  9  1  0  0  0  0
 11 10  1  0  0  0  0
 11 16  1  0  0  0  0
 14 10  1  0  0  0  0
 17 16  1  0  0  0  0
 18 17  1  0  0  0  0
 18 16  1  0  0  0  0
 19 20  1  0  0  0  0
 19 21  1  0  0  0  0
M  END
>  <minimizedAffinity>
-4.08451653

$$$$

 OpenBabel03252509253D

 21 23  0  0  1  0  0  0  0  0999 V2000
   39.2500   24.3400   42.3860 C   0  0  0  0  0  0  0  0  0  0  0  0
   38.0800   25.1130   42.2340 C   0  0  0  0  0  0  0  0  0  0  0  0
   38.0980   26.3360   42.8450 C   0  0  0  0  0  0  0  0  0  0  0  0
   39.2090   26.7620   43.5630 N   0  0  0  0  0  0  0  0  0  0  0  0
   40.2960   25.9910   43.6780 C   0  0  0  0  0  0  0  0  0  0  0  0
   40.3150   24.7650   43.0810 N   0  0  0  0  0  0  0  0  0  0  0  0
   39.2720   23.3650   41.9140 H   0  0  0  0  0  0  0  0  0  0  0  0
   41.0710   26.4600   44.2650 H   0  0  0  0  0  0  0  0  0  0  0  0
   36.9260   27.2660   42.6590 C   0  0  1  0  0  0  0  0  0  0  0  0
   37.2770   28.6800   43.1890 C   0  0  0  0  0  0  0  0  0  0  0  0
   37.0120   28.3090   41.7030 C   0  0  2  0  0  0  0  0  0  0  0  0
   35.9680   26.8830   43.0530 H   0  0  0  0  0  0  0  0  0  0  0  0
   36.4740   29.1790   43.7240 H   0  0  0  0  0  0  0  0  0  0  0  0
   38.2990   28.9100   43.4730 H   0  0  0  0  0  0  0  0  0  0  0  0
   37.9220   28.4000   41.0710 H   0  0  0  0  0  0  0  0  0  0  0  0
   35.7520   28.8580   41.0870 C   0  0  0  0  0  3  0  0  0  0  0  0
   35.7840   30.0070   40.1610 C   0  0  0  0  0  2  0  0  0  0  0  0
   35.6150   28.6420   39.5670 C   0  0  0  0  0  2  0  0  0  0  0  0
   36.9400   24.6410   41.5270 N   0  0  0  0  0  0  0  0  0  0  0  0
   36.4380   25.0180   40.7300 H   0  0  0  0  0  0  0  0  0  0  0  0
   36.4620   23.7440   41.8110 H   0  0  0  0  0  0  0  0  0  0  0  0
  1  6  1  0  0  0  0
  2  1  2  0  0  0  0
  2  3  1  0  0  0  0
  3  4  2  0  0  0  0
  4  5  1  0  0  0  0
  5  8  1  0  0  0  0
  6  5  2  0  0  0  0
  7  1  1  0  0  0  0
  9  3  1  0  0  0  0
  9 12  1  1  0  0  0
  9 10  1  0  0  0  0
 10 14  1  0  0  0  0
 10 13  1  0  0  0  0
 11 15  1  6  0  0  0
 11  9  1  0  0  0  0
 11 10  1  0  0  0  0
 16 11  1  0  0  0  0
 17 16  1  0  0  0  0
 18 17  1  0  0  0  0
 18 16  1  0  0  0  0
 19 21  1  0  0  0  0
 19  2  1  0  0  0  0
 20 19  1  0  0  0  0
M  END
>  <minimizedAffinity>
-4.07811737

$$$$

 OpenBabel03252509253D

 21 23  0  0  1  0  0  0  0  0999 V2000
   41.0750   29.0980   42.2700 C   0  0  0  0  0  0  0  0  0  0  0  0
   40.3520   27.9350   42.6090 C   0  0  0  0  0  0  0  0  0  0  0  0
   39.0470   28.1340   42.9640 C   0  0  0  0  0  0  0  0  0  0  0  0
   38.4960   29.4100   42.9830 N   0  0  0  0  0  0  0  0  0  0  0  0
   39.2230   30.4830   42.6520 C   0  0  0  0  0  0  0  0  0  0  0  0
   40.5290   30.3230   42.2910 N   0  0  0  0  0  0  0  0  0  0  0  0
   42.1120   28.9790   41.9820 H   0  0  0  0  0  0  0  0  0  0  0  0
   38.6550   31.3980   42.7160 H   0  0  0  0  0  0  0  0  0  0  0  0
   38.1750   26.9380   43.2530 C   0  0  1  0  0  0  0  0  0  0  0  0
   36.6790   27.3380   43.1770 C   0  0  0  0  0  0  0  0  0  0  0  0
   37.4090   26.3690   42.2060 C   0  0  2  0  0  0  0  0  0  0  0  0
   38.4310   26.3970   44.1810 H   0  0  0  0  0  0  0  0  0  0  0  0
   36.0480   26.8910   43.9400 H   0  0  0  0  0  0  0  0  0  0  0  0
   36.4010   28.3150   42.7950 H   0  0  0  0  0  0  0  0  0  0  0  0
   37.4950   26.7790   41.1770 H   0  0  0  0  0  0  0  0  0  0  0  0
   37.0120   24.9170   42.2810 C   0  0  0  0  0  3  0  0  0  0  0  0
   36.5550   24.1800   41.0860 C   0  0  0  0  0  2  0  0  0  0  0  0
   37.9570   23.9390   41.5550 C   0  0  0  0  0  2  0  0  0  0  0  0
   40.9470   26.6430   42.6200 N   0  0  0  0  0  0  0  0  0  0  0  0
   40.7100   25.7890   42.1280 H   0  0  0  0  0  0  0  0  0  0  0  0
   41.7940   26.4440   43.2180 H   0  0  0  0  0  0  0  0  0  0  0  0
  1  6  2  0  0  0  0
  1  2  1  0  0  0  0
  2 19  1  0  0  0  0
  2  3  2  0  0  0  0
  3  4  1  0  0  0  0
  3  9  1  0  0  0  0
  5  8  1  0  0  0  0
  5  4  2  0  0  0  0
  6  5  1  0  0  0  0
  7  1  1  0  0  0  0
  9 12  1  1  0  0  0
 10  9  1  0  0  0  0
 10 13  1  0  0  0  0
 11 15  1  6  0  0  0
 11 16  1  0  0  0  0
 11 10  1  0  0  0  0
 11  9  1  0  0  0  0
 14 10  1  0  0  0  0
 17 18  1  0  0  0  0
 17 16  1  0  0  0  0
 18 16  1  0  0  0  0
 19 21  1  0  0  0  0
 20 19  1  0  0  0  0
M  END
>  <minimizedAffinity>
-4.04706621

$$$$

 OpenBabel03252509253D

 21 23  0  0  1  0  0  0  0  0999 V2000
   38.8900   30.8630   41.5640 C   0  0  0  0  0  0  0  0  0  0  0  0
   38.1430   29.7320   41.9540 C   0  0  0  0  0  0  0  0  0  0  0  0
   37.5410   29.0430   40.9380 C   0  0  0  0  0  0  0  0  0  0  0  0
   37.6730   29.4540   39.6170 N   0  0  0  0  0  0  0  0  0  0  0  0
   38.3930   30.5350   39.2970 C   0  0  0  0  0  0  0  0  0  0  0  0
   39.0090   31.2470   40.2840 N   0  0  0  0  0  0  0  0  0  0  0  0
   39.3820   31.4330   42.3420 H   0  0  0  0  0  0  0  0  0  0  0  0
   38.3980   30.7240   38.2350 H   0  0  0  0  0  0  0  0  0  0  0  0
   36.7990   27.7680   41.2550 C   0  0  1  0  0  0  0  0  0  0  0  0
   36.4670   27.0060   39.9470 C   0  0  0  0  0  0  0  0  0  0  0  0
   37.4430   26.5220   41.0560 C   0  0  2  0  0  0  0  0  0  0  0  0
   35.9220   27.9000   41.9130 H   0  0  0  0  0  0  0  0  0  0  0  0
   35.4820   26.5490   39.9230 H   0  0  0  0  0  0  0  0  0  0  0  0
   36.8990   27.3340   39.0070 H   0  0  0  0  0  0  0  0  0  0  0  0
   38.5010   26.4990   40.7140 H   0  0  0  0  0  0  0  0  0  0  0  0
   37.0080   25.3240   41.8590 C   0  0  0  0  0  3  0  0  0  0  0  0
   37.0140   23.9660   41.2820 C   0  0  0  0  0  2  0  0  0  0  0  0
   38.1300   24.3280   42.2130 C   0  0  0  0  0  2  0  0  0  0  0  0
   37.9910   29.3510   43.3160 N   0  0  0  0  0  0  0  0  0  0  0  0
   38.2130   28.4900   43.8030 H   0  0  0  0  0  0  0  0  0  0  0  0
   37.5820   30.0220   44.0210 H   0  0  0  0  0  0  0  0  0  0  0  0
  1  2  1  0  0  0  0
  1  7  1  0  0  0  0
  2 19  1  0  0  0  0
  3  9  1  0  0  0  0
  3  2  2  0  0  0  0
  4  3  1  0  0  0  0
  5  4  2  0  0  0  0
  5  6  1  0  0  0  0
  6  1  2  0  0  0  0
  8  5  1  0  0  0  0
  9 12  1  1  0  0  0
 10 11  1  0  0  0  0
 10  9  1  0  0  0  0
 11 15  1  6  0  0  0
 11  9  1  0  0  0  0
 11 16  1  0  0  0  0
 13 10  1  0  0  0  0
 14 10  1  0  0  0  0
 16 18  1  0  0  0  0
 17 16  1  0  0  0  0
 17 18  1  0  0  0  0
 19 20  1  0  0  0  0
 19 21  1  0  0  0  0
M  END
>  <minimizedAffinity>
-3.79970717

$$$$
