
 OpenBabel03252507383D

 32 36  0  0  0  0  0  0  0  0999 V2000
   45.3590   34.8070   43.2570 C   0  0  0  0  0  0  0  0  0  0  0  0
   46.0420   33.7270   43.8750 C   0  0  0  0  0  0  0  0  0  0  0  0
   45.9140   33.5900   45.2430 C   0  0  0  0  0  0  0  0  0  0  0  0
   45.1530   34.4760   45.9200 N   0  0  0  0  0  0  0  0  0  0  0  0
   44.5070   35.5010   45.3130 C   0  0  0  0  0  0  0  0  0  0  0  0
   44.6140   35.6560   44.0010 N   0  0  0  0  0  0  0  0  0  0  0  0
   46.6450   33.0250   43.3420 H   0  0  0  0  0  0  0  0  0  0  0  0
   43.9280   36.1480   45.9560 H   0  0  0  0  0  0  0  0  0  0  0  0
   46.8620   32.7940   47.3390 C   0  0  0  0  0  0  0  0  0  0  0  0
   46.5590   32.5290   46.0140 C   0  0  0  0  0  0  0  0  0  0  0  0
   46.8810   31.2930   45.5140 C   0  0  0  0  0  0  0  0  0  0  0  0
   47.4880   30.3210   46.2790 C   0  0  0  0  0  0  0  0  0  0  0  0
   47.8880   29.0600   46.0010 N   0  0  0  0  0  0  0  0  0  0  0  0
   48.4420   28.5400   47.1590 C   0  0  0  0  0  0  0  0  0  0  0  0
   48.3670   29.4900   48.1070 N   0  0  0  0  0  0  0  0  0  0  0  0
   47.7900   30.5780   47.5860 C   0  0  0  0  0  0  0  0  0  0  0  0
   47.4750   31.8170   48.1180 C   0  0  0  0  0  0  0  0  0  0  0  0
   46.6500   33.7360   47.8290 H   0  0  0  0  0  0  0  0  0  0  0  0
   46.6420   31.1000   44.4870 H   0  0  0  0  0  0  0  0  0  0  0  0
   47.7600   28.6310   45.0400 H   0  0  0  0  0  0  0  0  0  0  0  0
   48.8150   27.5240   47.1010 H   0  0  0  0  0  0  0  0  0  0  0  0
   47.7250   31.9980   49.1600 H   0  0  0  0  0  0  0  0  0  0  0  0
   45.4850   34.9500   41.8750 O   0  0  0  0  0  0  0  0  0  0  0  0
   44.3610   34.8250   41.0630 C   0  0  0  0  0  0  0  0  0  0  0  0
   44.6910   33.7390   40.3360 C   0  0  0  0  0  0  0  0  0  0  0  0
   43.1640   33.5380   39.2110 S   0  0  0  0  0  0  0  0  0  0  0  0
   42.3930   35.0600   40.0360 C   0  0  0  0  0  0  0  0  0  0  0  0
   43.1860   35.3180   40.7520 N   0  0  0  0  0  0  0  0  0  0  0  0
   45.3290   32.8010   39.9280 H   0  0  0  0  0  0  0  0  0  0  0  0
   41.0330   35.5880   39.6420 C   0  0  0  0  0  0  0  0  0  0  0  0
   39.8280   34.9830   40.2710 C   0  0  0  0  0  0  0  0  0  0  0  0
   40.2420   36.3410   40.6390 C   0  0  0  0  0  0  0  0  0  0  0  0
  1  2  2  0  0  0  0
  1  6  1  0  0  0  0
  2  3  1  0  0  0  0
  3  4  2  0  0  0  0
  3 10  1  0  0  0  0
  5  4  1  0  0  0  0
  5  8  1  0  0  0  0
  6  5  2  0  0  0  0
  7  2  1  0  0  0  0
  9 18  1  0  0  0  0
  9 17  1  0  0  0  0
 10  9  2  0  0  0  0
 11 10  1  0  0  0  0
 11 12  2  0  0  0  0
 12 16  1  0  0  0  0
 13 12  1  0  0  0  0
 13 14  1  0  0  0  0
 14 15  2  0  0  0  0
 16 15  1  0  0  0  0
 16 17  2  0  0  0  0
 17 22  1  0  0  0  0
 19 11  1  0  0  0  0
 20 13  1  0  0  0  0
 21 14  1  0  0  0  0
 23  1  1  0  0  0  0
 24 23  1  0  0  0  0
 25 24  2  0  0  0  0
 26 27  1  0  0  0  0
 26 25  1  0  0  0  0
 27 28  2  0  0  0  0
 28 24  1  0  0  0  0
 29 25  1  0  0  0  0
 30 27  1  0  0  0  0
 30 31  1  0  0  0  0
 30 32  1  0  0  0  0
 31 32  1  0  0  0  0
M  END
>  <minimizedAffinity>
-6.29104996

>  <minimizedRMSD>
0.519810319

$$$$
