
 OpenBabel03252509183D

 35 38  0  0  1  0  0  0  0  0999 V2000
   47.7840   29.7550   48.1430 C   0  0  1  0  0  0  0  0  0  0  0  0
   47.7580   28.6510   47.1410 C   0  0  0  0  0  0  0  0  0  0  0  0
   49.0510   27.9280   46.9580 C   0  0  0  0  0  0  0  0  0  0  0  0
   49.7740   27.6570   48.2520 C   0  0  0  0  0  0  0  0  0  0  0  0
   49.7700   28.8380   49.1940 C   0  0  0  0  0  0  0  0  0  0  0  0
   49.2620   30.0760   48.4570 C   0  0  2  0  0  0  0  0  0  0  0  0
   47.3870   29.4200   49.1290 H   0  0  0  0  0  0  0  0  0  0  0  0
   46.9700   27.9220   47.4290 H   0  0  0  0  0  0  0  0  0  0  0  0
   47.4480   29.0120   46.1170 H   0  0  0  0  0  0  0  0  0  0  0  0
   48.7940   26.9260   46.5310 H   0  0  0  0  0  0  0  0  0  0  0  0
   49.6590   28.4470   46.1980 H   0  0  0  0  0  0  0  0  0  0  0  0
   50.8500   27.4680   47.9830 H   0  0  0  0  0  0  0  0  0  0  0  0
   49.4220   26.7240   48.7340 H   0  0  0  0  0  0  0  0  0  0  0  0
   50.7420   29.0160   49.6680 H   0  0  0  0  0  0  0  0  0  0  0  0
   49.0170   28.6270   49.9990 H   0  0  0  0  0  0  0  0  0  0  0  0
   49.8260   30.2770   47.5440 H   0  0  0  0  0  0  0  0  0  0  0  0
   46.0450   32.9880   46.3140 C   0  0  0  0  0  0  0  0  0  0  0  0
   45.5280   32.7520   47.5970 C   0  0  0  0  0  0  0  0  0  0  0  0
   46.0230   31.7190   48.2990 C   0  0  0  0  0  0  0  0  0  0  0  0
   47.0330   30.9070   47.7430 C   0  0  0  0  0  0  0  0  0  0  0  0
   47.3010   31.6640   46.1060 S   0  0  0  0  0  0  0  0  0  0  0  0
   44.7540   33.3750   48.0200 H   0  0  0  0  0  0  0  0  0  0  0  0
   45.7570   31.3820   49.2890 H   0  0  0  0  0  0  0  0  0  0  0  0
   44.4320   35.9590   44.7590 C   0  0  0  0  0  0  0  0  0  0  0  0
   45.0490   35.9230   43.4810 C   0  0  0  0  0  0  0  0  0  0  0  0
   45.9830   34.8900   43.2130 C   0  0  0  0  0  0  0  0  0  0  0  0
   46.2260   33.9950   44.2070 N   0  0  0  0  0  0  0  0  0  0  0  0
   45.6080   34.0710   45.4200 C   0  0  0  0  0  0  0  0  0  0  0  0
   44.7120   35.0500   45.6990 N   0  0  0  0  0  0  0  0  0  0  0  0
   43.7240   36.7330   44.9770 H   0  0  0  0  0  0  0  0  0  0  0  0
   44.8220   36.6590   42.7210 H   0  0  0  0  0  0  0  0  0  0  0  0
   46.4600   34.8380   42.2650 H   0  0  0  0  0  0  0  0  0  0  0  0
   49.2620   31.2250   49.4420 C   0  0  0  0  0  3  0  0  0  0  0  0
   50.0920   31.0520   50.6610 C   0  0  0  0  0  2  0  0  0  0  0  0
   50.5120   32.0120   49.5600 C   0  0  0  0  0  2  0  0  0  0  0  0
  1  6  1  0  0  0  0
  1  7  1  1  0  0  0
  2  8  1  0  0  0  0
  2  1  1  0  0  0  0
  3  2  1  0  0  0  0
  3  4  1  0  0  0  0
  4 13  1  0  0  0  0
  4  5  1  0  0  0  0
  5 14  1  0  0  0  0
  5 15  1  0  0  0  0
  6 16  1  6  0  0  0
  6  5  1  0  0  0  0
  6 33  1  0  0  0  0
  9  2  1  0  0  0  0
 10  3  1  0  0  0  0
 11  3  1  0  0  0  0
 12  4  1  0  0  0  0
 17 18  2  0  0  0  0
 18 22  1  0  0  0  0
 18 19  1  0  0  0  0
 19 23  1  0  0  0  0
 20  1  1  0  0  0  0
 20 19  2  0  0  0  0
 21 17  1  0  0  0  0
 21 20  1  0  0  0  0
 24 30  1  0  0  0  0
 24 29  1  0  0  0  0
 25 24  2  0  0  0  0
 26 25  1  0  0  0  0
 26 27  2  0  0  0  0
 27 28  1  0  0  0  0
 28 29  2  0  0  0  0
 28 17  1  0  0  0  0
 31 25  1  0  0  0  0
 32 26  1  0  0  0  0
 33 35  1  0  0  0  0
 33 34  1  0  0  0  0
 35 34  1  0  0  0  0
M  END
>  <minimizedAffinity>
-5.22754526

>  <minimizedRMSD>
1.28127229

$$$$
