
 OpenBabel03252509183D

 35 38  0  0  1  0  0  0  0  0999 V2000
   48.2510   30.2330   47.4040 C   0  0  1  0  0  0  0  0  0  0  0  0
   48.0140   30.9580   48.6850 C   0  0  0  0  0  0  0  0  0  0  0  0
   48.9620   30.6230   49.7890 C   0  0  0  0  0  0  0  0  0  0  0  0
   50.3920   30.4950   49.3330 C   0  0  0  0  0  0  0  0  0  0  0  0
   50.5370   29.7260   48.0400 C   0  0  0  0  0  0  0  0  0  0  0  0
   49.2090   29.0560   47.6940 C   0  0  2  0  0  0  0  0  0  0  0  0
   48.8320   30.8550   46.6850 H   0  0  0  0  0  0  0  0  0  0  0  0
   48.0510   32.0520   48.4930 H   0  0  0  0  0  0  0  0  0  0  0  0
   46.9760   30.7760   49.0920 H   0  0  0  0  0  0  0  0  0  0  0  0
   48.9390   31.4880   50.4980 H   0  0  0  0  0  0  0  0  0  0  0  0
   48.5830   29.7500   50.3480 H   0  0  0  0  0  0  0  0  0  0  0  0
   50.9270   29.8960   50.1210 H   0  0  0  0  0  0  0  0  0  0  0  0
   50.9060   31.4760   49.3080 H   0  0  0  0  0  0  0  0  0  0  0  0
   51.3650   29.0080   48.0560 H   0  0  0  0  0  0  0  0  0  0  0  0
   50.7300   30.4710   47.2230 H   0  0  0  0  0  0  0  0  0  0  0  0
   48.8340   28.4320   48.5070 H   0  0  0  0  0  0  0  0  0  0  0  0
   44.6670   28.6480   46.1940 C   0  0  0  0  0  0  0  0  0  0  0  0
   45.2240   29.5110   45.2380 C   0  0  0  0  0  0  0  0  0  0  0  0
   46.4040   30.0910   45.5200 C   0  0  0  0  0  0  0  0  0  0  0  0
   47.0450   29.8250   46.7470 C   0  0  0  0  0  0  0  0  0  0  0  0
   45.8930   28.6700   47.5610 S   0  0  0  0  0  0  0  0  0  0  0  0
   44.7310   29.7120   44.3000 H   0  0  0  0  0  0  0  0  0  0  0  0
   46.9830   30.7750   44.9200 H   0  0  0  0  0  0  0  0  0  0  0  0
   41.2050   27.5930   45.3300 C   0  0  0  0  0  0  0  0  0  0  0  0
   41.1710   26.3320   45.9800 C   0  0  0  0  0  0  0  0  0  0  0  0
   42.3280   25.9040   46.6800 C   0  0  0  0  0  0  0  0  0  0  0  0
   43.4010   26.7380   46.6810 N   0  0  0  0  0  0  0  0  0  0  0  0
   43.3860   27.9420   46.0400 C   0  0  0  0  0  0  0  0  0  0  0  0
   42.2920   28.3720   45.3650 N   0  0  0  0  0  0  0  0  0  0  0  0
   40.3390   27.9310   44.7970 H   0  0  0  0  0  0  0  0  0  0  0  0
   40.2920   25.7030   45.9520 H   0  0  0  0  0  0  0  0  0  0  0  0
   42.3320   24.9650   47.1770 H   0  0  0  0  0  0  0  0  0  0  0  0
   49.3990   28.3140   46.3890 C   0  0  0  0  0  3  0  0  0  0  0  0
   50.3500   28.9140   45.4190 C   0  0  0  0  0  2  0  0  0  0  0  0
   50.7050   27.6460   46.1780 C   0  0  0  0  0  2  0  0  0  0  0  0
  1  7  1  6  0  0  0
  1  6  1  0  0  0  0
  1  2  1  0  0  0  0
  2  9  1  0  0  0  0
  2  3  1  0  0  0  0
  3 11  1  0  0  0  0
  3 10  1  0  0  0  0
  4  3  1  0  0  0  0
  4 12  1  0  0  0  0
  5 14  1  0  0  0  0
  5  4  1  0  0  0  0
  6  5  1  0  0  0  0
  6 16  1  1  0  0  0
  8  2  1  0  0  0  0
 13  4  1  0  0  0  0
 15  5  1  0  0  0  0
 17 21  1  0  0  0  0
 18 19  1  0  0  0  0
 18 17  2  0  0  0  0
 19 20  2  0  0  0  0
 20  1  1  0  0  0  0
 20 21  1  0  0  0  0
 22 18  1  0  0  0  0
 23 19  1  0  0  0  0
 24 29  2  0  0  0  0
 24 25  1  0  0  0  0
 25 26  2  0  0  0  0
 26 27  1  0  0  0  0
 26 32  1  0  0  0  0
 28 17  1  0  0  0  0
 28 27  2  0  0  0  0
 29 28  1  0  0  0  0
 30 24  1  0  0  0  0
 31 25  1  0  0  0  0
 33  6  1  0  0  0  0
 34 35  1  0  0  0  0
 34 33  1  0  0  0  0
 35 33  1  0  0  0  0
M  END
>  <minimizedAffinity>
-3.63366318

>  <minimizedRMSD>
5.73104286

$$$$
