
 OpenBabel03242518223D

 33 36  0  0  0  0  0  0  0  0999 V2000
   38.2900   28.6410   42.4830 C   0  0  0  0  0  0  0  0  0  0  0  0
   37.4640   28.1760   43.4770 C   0  0  0  0  0  0  0  0  0  0  0  0
   36.8260   27.0410   43.0330 C   0  0  0  0  0  0  0  0  0  0  0  0
   37.3100   26.8550   41.7380 C   0  0  0  0  0  0  0  0  0  0  0  0
   38.1470   27.8100   41.4840 O   0  0  0  0  0  0  0  0  0  0  0  0
   37.3180   28.6220   44.4720 H   0  0  0  0  0  0  0  0  0  0  0  0
   36.1180   26.4570   43.5930 H   0  0  0  0  0  0  0  0  0  0  0  0
   36.9140   25.7610   40.8540 C   0  0  0  0  0  0  0  0  0  0  0  0
   36.9310   24.4610   41.3070 C   0  0  0  0  0  0  0  0  0  0  0  0
   36.5660   23.3830   40.5170 C   0  0  0  0  0  0  0  0  0  0  0  0
   36.1810   23.7320   39.2200 C   0  0  0  0  0  0  0  0  0  0  0  0
   36.1590   25.0120   38.7560 C   0  0  0  0  0  0  0  0  0  0  0  0
   36.5280   26.0140   39.5840 N   0  0  0  0  0  0  0  0  0  0  0  0
   37.2330   24.1950   42.3230 H   0  0  0  0  0  0  0  0  0  0  0  0
   36.5760   22.3590   40.8600 H   0  0  0  0  0  0  0  0  0  0  0  0
   35.8770   22.9680   38.5170 H   0  0  0  0  0  0  0  0  0  0  0  0
   35.8650   25.3010   37.7620 H   0  0  0  0  0  0  0  0  0  0  0  0
   39.1560   29.8620   42.5860 C   0  0  0  0  0  0  0  0  0  0  0  0
   40.1640   29.5680   42.2670 H   0  0  0  0  0  0  0  0  0  0  0  0
   39.2070   30.1720   43.6370 H   0  0  0  0  0  0  0  0  0  0  0  0
   36.9080   31.8450   40.4630 C   0  0  0  0  0  0  0  0  0  0  0  0
   37.6890   32.9460   40.0990 C   0  0  0  0  0  0  0  0  0  0  0  0
   38.9740   32.9900   40.5890 C   0  0  0  0  0  0  0  0  0  0  0  0
   39.4300   31.9950   41.3840 N   0  0  0  0  0  0  0  0  0  0  0  0
   38.6460   30.9490   41.7120 C   0  0  0  0  0  0  0  0  0  0  0  0
   37.3830   30.8880   41.2410 N   0  0  0  0  0  0  0  0  0  0  0  0
   35.8850   31.7450   40.1130 H   0  0  0  0  0  0  0  0  0  0  0  0
   37.0990   33.9210   39.2640 N   0  0  0  0  0  0  0  0  0  0  0  0
   36.5820   34.7500   39.6570 H   0  0  0  0  0  0  0  0  0  0  0  0
   37.3130   33.5980   38.3020 H   0  0  0  0  0  0  0  0  0  0  0  0
   39.8190   34.1610   40.2080 C   0  0  0  0  0  3  0  0  0  0  0  0
   41.2700   34.1540   40.5190 C   0  0  0  0  0  2  0  0  0  0  0  0
   40.8740   33.9430   39.1020 C   0  0  0  0  0  2  0  0  0  0  0  0
  1 18  1  0  0  0  0
  1  2  2  0  0  0  0
  2  6  1  0  0  0  0
  3  2  1  0  0  0  0
  3  7  1  0  0  0  0
  4  3  2  0  0  0  0
  5  4  1  0  0  0  0
  5  1  1  0  0  0  0
  8  9  1  0  0  0  0
  8  4  1  0  0  0  0
  9 14  1  0  0  0  0
 10 15  1  0  0  0  0
 10  9  2  0  0  0  0
 11 10  1  0  0  0  0
 12 11  2  0  0  0  0
 12 13  1  0  0  0  0
 13  8  2  0  0  0  0
 16 11  1  0  0  0  0
 17 12  1  0  0  0  0
 18 20  1  0  0  0  0
 19 18  1  0  0  0  0
 21 26  1  0  0  0  0
 22 21  2  0  0  0  0
 22 23  1  0  0  0  0
 23 24  2  0  0  0  0
 24 25  1  0  0  0  0
 25 18  1  0  0  0  0
 26 25  2  0  0  0  0
 27 21  1  0  0  0  0
 28 29  1  0  0  0  0
 28 22  1  0  0  0  0
 30 28  1  0  0  0  0
 31 32  1  0  0  0  0
 31 23  1  0  0  0  0
 33 31  1  0  0  0  0
 33 32  1  0  0  0  0
M  END
>  <minimizedAffinity>
-5.95359659

$$$$

 OpenBabel03242518223D

 33 36  0  0  0  0  0  0  0  0999 V2000
   38.9300   29.4800   42.5160 C   0  0  0  0  0  0  0  0  0  0  0  0
   37.9230   29.2430   43.4210 C   0  0  0  0  0  0  0  0  0  0  0  0
   37.5030   27.9400   43.2900 C   0  0  0  0  0  0  0  0  0  0  0  0
   38.3020   27.4180   42.2740 C   0  0  0  0  0  0  0  0  0  0  0  0
   39.1000   28.3550   41.8720 O   0  0  0  0  0  0  0  0  0  0  0  0
   37.5040   29.9620   44.1410 H   0  0  0  0  0  0  0  0  0  0  0  0
   36.7260   27.4690   43.8660 H   0  0  0  0  0  0  0  0  0  0  0  0
   38.2200   26.0460   41.7770 C   0  0  0  0  0  0  0  0  0  0  0  0
   37.0420   25.3410   41.8750 C   0  0  0  0  0  0  0  0  0  0  0  0
   36.9030   24.0390   41.4210 C   0  0  0  0  0  0  0  0  0  0  0  0
   38.0650   23.5050   40.8580 C   0  0  0  0  0  0  0  0  0  0  0  0
   39.2390   24.1880   40.7550 C   0  0  0  0  0  0  0  0  0  0  0  0
   39.3000   25.4560   41.2180 N   0  0  0  0  0  0  0  0  0  0  0  0
   36.1360   25.7640   42.3160 H   0  0  0  0  0  0  0  0  0  0  0  0
   35.9850   23.4750   41.4920 H   0  0  0  0  0  0  0  0  0  0  0  0
   38.0700   22.4940   40.4720 H   0  0  0  0  0  0  0  0  0  0  0  0
   40.1430   23.7960   40.3240 H   0  0  0  0  0  0  0  0  0  0  0  0
   39.6480   30.7870   42.3520 C   0  0  0  0  0  0  0  0  0  0  0  0
   40.6660   30.6440   42.7340 H   0  0  0  0  0  0  0  0  0  0  0  0
   39.1520   31.5440   42.9730 H   0  0  0  0  0  0  0  0  0  0  0  0
   40.9150   32.0130   39.1300 C   0  0  0  0  0  0  0  0  0  0  0  0
   39.8000   31.9360   38.2880 C   0  0  0  0  0  0  0  0  0  0  0  0
   38.6320   31.4650   38.8430 C   0  0  0  0  0  0  0  0  0  0  0  0
   38.5980   31.1000   40.1450 N   0  0  0  0  0  0  0  0  0  0  0  0
   39.6950   31.1890   40.9230 C   0  0  0  0  0  0  0  0  0  0  0  0
   40.8500   31.6490   40.3980 N   0  0  0  0  0  0  0  0  0  0  0  0
   41.8700   32.3750   38.7600 H   0  0  0  0  0  0  0  0  0  0  0  0
   39.9610   32.3450   36.9470 N   0  0  0  0  0  0  0  0  0  0  0  0
   40.2490   31.6700   36.1910 H   0  0  0  0  0  0  0  0  0  0  0  0
   39.7390   33.3570   36.9580 H   0  0  0  0  0  0  0  0  0  0  0  0
   37.4330   31.3770   37.9560 C   0  0  0  0  0  3  0  0  0  0  0  0
   37.2590   30.2020   37.0670 C   0  0  0  0  0  2  0  0  0  0  0  0
   36.3960   30.2790   38.2740 C   0  0  0  0  0  2  0  0  0  0  0  0
  1  2  2  0  0  0  0
  2  6  1  0  0  0  0
  3  2  1  0  0  0  0
  3  7  1  0  0  0  0
  4  3  2  0  0  0  0
  5  4  1  0  0  0  0
  5  1  1  0  0  0  0
  8  9  1  0  0  0  0
  8  4  1  0  0  0  0
  9 14  1  0  0  0  0
 10 15  1  0  0  0  0
 10  9  2  0  0  0  0
 11 10  1  0  0  0  0
 12 11  2  0  0  0  0
 12 13  1  0  0  0  0
 13  8  2  0  0  0  0
 16 11  1  0  0  0  0
 17 12  1  0  0  0  0
 18  1  1  0  0  0  0
 18 19  1  0  0  0  0
 18 20  1  0  0  0  0
 21 26  1  0  0  0  0
 22 23  1  0  0  0  0
 22 21  2  0  0  0  0
 23 24  2  0  0  0  0
 24 25  1  0  0  0  0
 25 18  1  0  0  0  0
 26 25  2  0  0  0  0
 27 21  1  0  0  0  0
 28 30  1  0  0  0  0
 28 22  1  0  0  0  0
 29 28  1  0  0  0  0
 31 33  1  0  0  0  0
 31 23  1  0  0  0  0
 32 31  1  0  0  0  0
 32 33  1  0  0  0  0
M  END
>  <minimizedAffinity>
-5.87838125

$$$$

 OpenBabel03242518223D

 33 36  0  0  0  0  0  0  0  0999 V2000
   36.9470   29.2540   41.7470 C   0  0  0  0  0  0  0  0  0  0  0  0
   37.5300   29.0390   42.9730 C   0  0  0  0  0  0  0  0  0  0  0  0
   37.8880   27.7140   43.0700 C   0  0  0  0  0  0  0  0  0  0  0  0
   37.4930   27.1570   41.8540 C   0  0  0  0  0  0  0  0  0  0  0  0
   36.9590   28.0960   41.1400 O   0  0  0  0  0  0  0  0  0  0  0  0
   37.6950   29.7860   43.7630 H   0  0  0  0  0  0  0  0  0  0  0  0
   38.3640   27.2510   43.9160 H   0  0  0  0  0  0  0  0  0  0  0  0
   37.6680   25.7530   41.4890 C   0  0  0  0  0  0  0  0  0  0  0  0
   36.7040   25.1000   40.7550 C   0  0  0  0  0  0  0  0  0  0  0  0
   36.8140   23.7710   40.3790 C   0  0  0  0  0  0  0  0  0  0  0  0
   37.9910   23.1530   40.8120 C   0  0  0  0  0  0  0  0  0  0  0  0
   38.9540   23.7840   41.5380 C   0  0  0  0  0  0  0  0  0  0  0  0
   38.7780   25.0820   41.8680 N   0  0  0  0  0  0  0  0  0  0  0  0
   35.7860   25.5890   40.4200 H   0  0  0  0  0  0  0  0  0  0  0  0
   36.0650   23.2470   39.8050 H   0  0  0  0  0  0  0  0  0  0  0  0
   38.1800   22.1140   40.5740 H   0  0  0  0  0  0  0  0  0  0  0  0
   39.8660   23.3270   41.8790 H   0  0  0  0  0  0  0  0  0  0  0  0
   36.4240   30.5740   41.2650 C   0  0  0  0  0  0  0  0  0  0  0  0
   36.6260   31.3070   42.0560 H   0  0  0  0  0  0  0  0  0  0  0  0
   35.3360   30.5000   41.1380 H   0  0  0  0  0  0  0  0  0  0  0  0
   38.7210   32.2630   38.9500 C   0  0  0  0  0  0  0  0  0  0  0  0
   38.3580   31.7550   37.6990 C   0  0  0  0  0  0  0  0  0  0  0  0
   37.3290   30.8410   37.6720 C   0  0  0  0  0  0  0  0  0  0  0  0
   36.7200   30.4730   38.8210 N   0  0  0  0  0  0  0  0  0  0  0  0
   37.1000   30.9850   40.0090 C   0  0  0  0  0  0  0  0  0  0  0  0
   38.1060   31.8830   40.0560 N   0  0  0  0  0  0  0  0  0  0  0  0
   39.5250   32.9880   39.0460 H   0  0  0  0  0  0  0  0  0  0  0  0
   39.0710   32.2170   36.5710 N   0  0  0  0  0  0  0  0  0  0  0  0
   39.9370   31.7300   36.2240 H   0  0  0  0  0  0  0  0  0  0  0  0
   38.5420   33.0520   36.2570 H   0  0  0  0  0  0  0  0  0  0  0  0
   36.9310   30.2900   36.3420 C   0  0  0  0  0  3  0  0  0  0  0  0
   37.2010   28.8650   36.0240 C   0  0  0  0  0  2  0  0  0  0  0  0
   35.7950   29.2440   36.3220 C   0  0  0  0  0  2  0  0  0  0  0  0
  1  2  2  0  0  0  0
  2  3  1  0  0  0  0
  2  6  1  0  0  0  0
  3  7  1  0  0  0  0
  4  3  2  0  0  0  0
  5  1  1  0  0  0  0
  5  4  1  0  0  0  0
  8  4  1  0  0  0  0
  8 13  1  0  0  0  0
  9  8  2  0  0  0  0
 10  9  1  0  0  0  0
 10 11  2  0  0  0  0
 11 12  1  0  0  0  0
 12 13  2  0  0  0  0
 12 17  1  0  0  0  0
 14  9  1  0  0  0  0
 15 10  1  0  0  0  0
 16 11  1  0  0  0  0
 18  1  1  0  0  0  0
 18 19  1  0  0  0  0
 20 18  1  0  0  0  0
 21 27  1  0  0  0  0
 21 26  1  0  0  0  0
 22 21  2  0  0  0  0
 23 22  1  0  0  0  0
 23 24  2  0  0  0  0
 24 25  1  0  0  0  0
 25 26  2  0  0  0  0
 25 18  1  0  0  0  0
 28 22  1  0  0  0  0
 29 28  1  0  0  0  0
 30 28  1  0  0  0  0
 31 23  1  0  0  0  0
 32 33  1  0  0  0  0
 32 31  1  0  0  0  0
 33 31  1  0  0  0  0
M  END
>  <minimizedAffinity>
-5.67232037

$$$$

 OpenBabel03242518223D

 33 36  0  0  0  0  0  0  0  0999 V2000
   36.8680   29.3900   41.6530 C   0  0  0  0  0  0  0  0  0  0  0  0
   37.4220   29.2210   42.8990 C   0  0  0  0  0  0  0  0  0  0  0  0
   37.7610   27.8970   43.0610 C   0  0  0  0  0  0  0  0  0  0  0  0
   37.3860   27.2930   41.8610 C   0  0  0  0  0  0  0  0  0  0  0  0
   36.8790   28.2070   41.0960 O   0  0  0  0  0  0  0  0  0  0  0  0
   37.5790   30.0000   43.6600 H   0  0  0  0  0  0  0  0  0  0  0  0
   38.2150   27.4660   43.9360 H   0  0  0  0  0  0  0  0  0  0  0  0
   37.5520   25.8730   41.5610 C   0  0  0  0  0  0  0  0  0  0  0  0
   36.6950   25.2420   40.6860 C   0  0  0  0  0  0  0  0  0  0  0  0
   36.8030   23.9000   40.3620 C   0  0  0  0  0  0  0  0  0  0  0  0
   37.8570   23.2420   41.0020 C   0  0  0  0  0  0  0  0  0  0  0  0
   38.7130   23.8500   41.8700 C   0  0  0  0  0  0  0  0  0  0  0  0
   38.5470   25.1650   42.1380 N   0  0  0  0  0  0  0  0  0  0  0  0
   35.8730   25.7630   40.1890 H   0  0  0  0  0  0  0  0  0  0  0  0
   36.1380   23.3940   39.6790 H   0  0  0  0  0  0  0  0  0  0  0  0
   38.0330   22.1900   40.8220 H   0  0  0  0  0  0  0  0  0  0  0  0
   39.5300   23.3630   42.3720 H   0  0  0  0  0  0  0  0  0  0  0  0
   36.3710   30.6930   41.1030 C   0  0  0  0  0  0  0  0  0  0  0  0
   36.4350   31.4290   41.9150 H   0  0  0  0  0  0  0  0  0  0  0  0
   35.3150   30.5820   40.8250 H   0  0  0  0  0  0  0  0  0  0  0  0
   37.5240   31.2400   37.6590 C   0  0  0  0  0  0  0  0  0  0  0  0
   38.7220   31.9430   37.8210 C   0  0  0  0  0  0  0  0  0  0  0  0
   39.1130   32.2180   39.1120 C   0  0  0  0  0  0  0  0  0  0  0  0
   38.3500   31.8110   40.1530 N   0  0  0  0  0  0  0  0  0  0  0  0
   37.2010   31.1350   39.9540 C   0  0  0  0  0  0  0  0  0  0  0  0
   36.8010   30.8560   38.6960 N   0  0  0  0  0  0  0  0  0  0  0  0
   37.1530   30.9900   36.6690 H   0  0  0  0  0  0  0  0  0  0  0  0
   39.4290   32.3130   36.6570 N   0  0  0  0  0  0  0  0  0  0  0  0
   39.2600   33.2340   36.1740 H   0  0  0  0  0  0  0  0  0  0  0  0
   40.0590   31.5120   36.4730 H   0  0  0  0  0  0  0  0  0  0  0  0
   40.3910   32.9680   39.3010 C   0  0  0  0  0  3  0  0  0  0  0  0
   41.0540   32.9690   40.6290 C   0  0  0  0  0  2  0  0  0  0  0  0
   41.6670   32.1380   39.5600 C   0  0  0  0  0  2  0  0  0  0  0  0
  1  2  2  0  0  0  0
  2  3  1  0  0  0  0
  2  6  1  0  0  0  0
  3  7  1  0  0  0  0
  4  3  2  0  0  0  0
  5  1  1  0  0  0  0
  5  4  1  0  0  0  0
  8  4  1  0  0  0  0
  8 13  1  0  0  0  0
  9  8  2  0  0  0  0
 10  9  1  0  0  0  0
 10 11  2  0  0  0  0
 11 12  1  0  0  0  0
 12 13  2  0  0  0  0
 12 17  1  0  0  0  0
 14  9  1  0  0  0  0
 15 10  1  0  0  0  0
 16 11  1  0  0  0  0
 18  1  1  0  0  0  0
 18 19  1  0  0  0  0
 20 18  1  0  0  0  0
 21 22  2  0  0  0  0
 21 26  1  0  0  0  0
 22 23  1  0  0  0  0
 23 31  1  0  0  0  0
 23 24  2  0  0  0  0
 25 24  1  0  0  0  0
 25 18  1  0  0  0  0
 26 25  2  0  0  0  0
 27 21  1  0  0  0  0
 28 22  1  0  0  0  0
 29 28  1  0  0  0  0
 30 28  1  0  0  0  0
 31 33  1  0  0  0  0
 31 32  1  0  0  0  0
 33 32  1  0  0  0  0
M  END
>  <minimizedAffinity>
-5.63338137

$$$$

 OpenBabel03242518223D

 33 36  0  0  0  0  0  0  0  0999 V2000
   38.5580   32.6420   40.3960 C   0  0  0  0  0  0  0  0  0  0  0  0
   37.2650   32.5970   39.9340 C   0  0  0  0  0  0  0  0  0  0  0  0
   36.6790   31.4280   40.3590 C   0  0  0  0  0  0  0  0  0  0  0  0
   37.6770   30.7860   41.0920 C   0  0  0  0  0  0  0  0  0  0  0  0
   38.7310   31.5360   41.0730 O   0  0  0  0  0  0  0  0  0  0  0  0
   36.7600   33.3580   39.3210 H   0  0  0  0  0  0  0  0  0  0  0  0
   35.6700   31.1170   40.1510 H   0  0  0  0  0  0  0  0  0  0  0  0
   37.5190   29.4900   41.7500 C   0  0  0  0  0  0  0  0  0  0  0  0
   37.0530   28.4040   41.0430 C   0  0  0  0  0  0  0  0  0  0  0  0
   36.8830   27.1520   41.6110 C   0  0  0  0  0  0  0  0  0  0  0  0
   37.2260   27.0900   42.9650 C   0  0  0  0  0  0  0  0  0  0  0  0
   37.6870   28.1530   43.6780 C   0  0  0  0  0  0  0  0  0  0  0  0
   37.8290   29.3450   43.0570 N   0  0  0  0  0  0  0  0  0  0  0  0
   36.7870   28.4600   39.9850 H   0  0  0  0  0  0  0  0  0  0  0  0
   36.5180   26.2930   41.0690 H   0  0  0  0  0  0  0  0  0  0  0  0
   37.1310   26.1590   43.5080 H   0  0  0  0  0  0  0  0  0  0  0  0
   37.9570   28.1260   44.7190 H   0  0  0  0  0  0  0  0  0  0  0  0
   39.5240   33.7600   40.1410 C   0  0  0  0  0  0  0  0  0  0  0  0
   39.9420   34.0510   41.1130 H   0  0  0  0  0  0  0  0  0  0  0  0
   38.9730   34.6180   39.7350 H   0  0  0  0  0  0  0  0  0  0  0  0
   41.2700   32.1920   37.3160 C   0  0  0  0  0  0  0  0  0  0  0  0
   42.6130   32.5070   37.5440 C   0  0  0  0  0  0  0  0  0  0  0  0
   42.8960   33.2540   38.6650 C   0  0  0  0  0  0  0  0  0  0  0  0
   41.8970   33.6470   39.4870 N   0  0  0  0  0  0  0  0  0  0  0  0
   40.6140   33.3230   39.2320 C   0  0  0  0  0  0  0  0  0  0  0  0
   40.3160   32.5910   38.1380 N   0  0  0  0  0  0  0  0  0  0  0  0
   40.9730   31.6060   36.4500 H   0  0  0  0  0  0  0  0  0  0  0  0
   43.5650   32.0390   36.6120 N   0  0  0  0  0  0  0  0  0  0  0  0
   43.8470   32.6080   35.7730 H   0  0  0  0  0  0  0  0  0  0  0  0
   43.8420   31.1080   36.9740 H   0  0  0  0  0  0  0  0  0  0  0  0
   44.3270   33.5980   38.9220 C   0  0  0  0  0  3  0  0  0  0  0  0
   44.7240   34.1610   40.2370 C   0  0  0  0  0  2  0  0  0  0  0  0
   45.0840   32.7460   39.9630 C   0  0  0  0  0  2  0  0  0  0  0  0
  1  5  1  0  0  0  0
  2  3  1  0  0  0  0
  2  1  2  0  0  0  0
  3  4  2  0  0  0  0
  4  8  1  0  0  0  0
  5  4  1  0  0  0  0
  6  2  1  0  0  0  0
  7  3  1  0  0  0  0
  8 13  1  0  0  0  0
  9 10  1  0  0  0  0
  9  8  2  0  0  0  0
 10 11  2  0  0  0  0
 11 16  1  0  0  0  0
 11 12  1  0  0  0  0
 12 17  1  0  0  0  0
 13 12  2  0  0  0  0
 14  9  1  0  0  0  0
 15 10  1  0  0  0  0
 18  1  1  0  0  0  0
 18 19  1  0  0  0  0
 20 18  1  0  0  0  0
 21 22  2  0  0  0  0
 21 26  1  0  0  0  0
 22 23  1  0  0  0  0
 23 31  1  0  0  0  0
 23 24  2  0  0  0  0
 25 24  1  0  0  0  0
 25 18  1  0  0  0  0
 26 25  2  0  0  0  0
 27 21  1  0  0  0  0
 28 30  1  0  0  0  0
 28 22  1  0  0  0  0
 29 28  1  0  0  0  0
 31 33  1  0  0  0  0
 31 32  1  0  0  0  0
 33 32  1  0  0  0  0
M  END
>  <minimizedAffinity>
-5.49975157

$$$$

 OpenBabel03242518223D

 33 36  0  0  0  0  0  0  0  0999 V2000
   36.9490   29.1420   41.8240 C   0  0  0  0  0  0  0  0  0  0  0  0
   36.2600   27.9720   42.0350 C   0  0  0  0  0  0  0  0  0  0  0  0
   37.1450   26.9960   42.4290 C   0  0  0  0  0  0  0  0  0  0  0  0
   38.3840   27.6380   42.4440 C   0  0  0  0  0  0  0  0  0  0  0  0
   38.2010   28.8680   42.0850 O   0  0  0  0  0  0  0  0  0  0  0  0
   35.1770   27.8160   41.9140 H   0  0  0  0  0  0  0  0  0  0  0  0
   36.8950   25.9770   42.6650 H   0  0  0  0  0  0  0  0  0  0  0  0
   39.6460   26.9950   42.8060 C   0  0  0  0  0  0  0  0  0  0  0  0
   40.6850   27.7410   43.3160 C   0  0  0  0  0  0  0  0  0  0  0  0
   41.9020   27.1880   43.6780 C   0  0  0  0  0  0  0  0  0  0  0  0
   41.9830   25.8070   43.4770 C   0  0  0  0  0  0  0  0  0  0  0  0
   40.9660   25.0550   42.9730 C   0  0  0  0  0  0  0  0  0  0  0  0
   39.8050   25.6630   42.6430 N   0  0  0  0  0  0  0  0  0  0  0  0
   40.6150   28.8200   43.4710 H   0  0  0  0  0  0  0  0  0  0  0  0
   42.7250   27.7610   44.0780 H   0  0  0  0  0  0  0  0  0  0  0  0
   42.8900   25.2720   43.7250 H   0  0  0  0  0  0  0  0  0  0  0  0
   41.0080   23.9920   42.8120 H   0  0  0  0  0  0  0  0  0  0  0  0
   36.3320   30.4360   41.3840 C   0  0  0  0  0  0  0  0  0  0  0  0
   36.5490   31.1760   42.1640 H   0  0  0  0  0  0  0  0  0  0  0  0
   35.2440   30.3080   41.3270 H   0  0  0  0  0  0  0  0  0  0  0  0
   38.1020   32.4630   38.8840 C   0  0  0  0  0  0  0  0  0  0  0  0
   37.9670   31.7220   37.7060 C   0  0  0  0  0  0  0  0  0  0  0  0
   37.2700   30.5390   37.7900 C   0  0  0  0  0  0  0  0  0  0  0  0
   36.7520   30.1400   38.9740 N   0  0  0  0  0  0  0  0  0  0  0  0
   36.9040   30.8830   40.0890 C   0  0  0  0  0  0  0  0  0  0  0  0
   37.5850   32.0470   40.0260 N   0  0  0  0  0  0  0  0  0  0  0  0
   38.6400   33.4070   38.8920 H   0  0  0  0  0  0  0  0  0  0  0  0
   38.5530   32.2440   36.5320 N   0  0  0  0  0  0  0  0  0  0  0  0
   39.5420   32.0100   36.2540 H   0  0  0  0  0  0  0  0  0  0  0  0
   37.8090   32.8300   36.1120 H   0  0  0  0  0  0  0  0  0  0  0  0
   37.1180   29.7370   36.5390 C   0  0  0  0  0  3  0  0  0  0  0  0
   36.6710   28.3240   36.6200 C   0  0  0  0  0  2  0  0  0  0  0  0
   35.6860   29.3240   36.1330 C   0  0  0  0  0  2  0  0  0  0  0  0
  1  2  2  0  0  0  0
  1  5  1  0  0  0  0
  2  3  1  0  0  0  0
  3  4  2  0  0  0  0
  3  7  1  0  0  0  0
  4  8  1  0  0  0  0
  5  4  1  0  0  0  0
  6  2  1  0  0  0  0
  8  9  1  0  0  0  0
  9 14  1  0  0  0  0
  9 10  2  0  0  0  0
 10 15  1  0  0  0  0
 11 10  1  0  0  0  0
 11 16  1  0  0  0  0
 12 11  2  0  0  0  0
 13  8  2  0  0  0  0
 13 12  1  0  0  0  0
 17 12  1  0  0  0  0
 18  1  1  0  0  0  0
 18 19  1  0  0  0  0
 20 18  1  0  0  0  0
 21 27  1  0  0  0  0
 21 26  1  0  0  0  0
 22 23  1  0  0  0  0
 22 21  2  0  0  0  0
 23 24  2  0  0  0  0
 24 25  1  0  0  0  0
 25 18  1  0  0  0  0
 26 25  2  0  0  0  0
 28 22  1  0  0  0  0
 29 28  1  0  0  0  0
 30 28  1  0  0  0  0
 31 32  1  0  0  0  0
 31 23  1  0  0  0  0
 33 31  1  0  0  0  0
 33 32  1  0  0  0  0
M  END
>  <minimizedAffinity>
-5.48062515

$$$$

 OpenBabel03242518223D

 33 36  0  0  0  0  0  0  0  0999 V2000
   36.2800   29.4480   38.1110 C   0  0  0  0  0  0  0  0  0  0  0  0
   36.6480   29.8430   36.8470 C   0  0  0  0  0  0  0  0  0  0  0  0
   37.4970   30.9200   36.9450 C   0  0  0  0  0  0  0  0  0  0  0  0
   37.6160   31.1440   38.3170 C   0  0  0  0  0  0  0  0  0  0  0  0
   36.8900   30.2640   38.9290 O   0  0  0  0  0  0  0  0  0  0  0  0
   36.3290   29.3880   35.8970 H   0  0  0  0  0  0  0  0  0  0  0  0
   37.9480   31.4440   36.1210 H   0  0  0  0  0  0  0  0  0  0  0  0
   38.4270   32.2010   38.9170 C   0  0  0  0  0  0  0  0  0  0  0  0
   37.8480   33.1370   39.7450 C   0  0  0  0  0  0  0  0  0  0  0  0
   38.5650   34.1610   40.3430 C   0  0  0  0  0  0  0  0  0  0  0  0
   39.9270   34.1600   40.0300 C   0  0  0  0  0  0  0  0  0  0  0  0
   40.5150   33.2440   39.2130 C   0  0  0  0  0  0  0  0  0  0  0  0
   39.7530   32.2710   38.6650 N   0  0  0  0  0  0  0  0  0  0  0  0
   36.7820   33.1310   39.9860 H   0  0  0  0  0  0  0  0  0  0  0  0
   38.1230   34.9000   40.9930 H   0  0  0  0  0  0  0  0  0  0  0  0
   40.5810   34.9170   40.4420 H   0  0  0  0  0  0  0  0  0  0  0  0
   41.5610   33.2250   38.9600 H   0  0  0  0  0  0  0  0  0  0  0  0
   35.3600   28.3040   38.4190 C   0  0  0  0  0  0  0  0  0  0  0  0
   35.0640   27.8620   37.4600 H   0  0  0  0  0  0  0  0  0  0  0  0
   34.4590   28.6960   38.9080 H   0  0  0  0  0  0  0  0  0  0  0  0
   36.8490   25.1230   39.4930 C   0  0  0  0  0  0  0  0  0  0  0  0
   37.3030   25.3930   40.7880 C   0  0  0  0  0  0  0  0  0  0  0  0
   37.0890   26.6650   41.2700 C   0  0  0  0  0  0  0  0  0  0  0  0
   36.4660   27.5860   40.5000 N   0  0  0  0  0  0  0  0  0  0  0  0
   36.0430   27.2860   39.2560 C   0  0  0  0  0  0  0  0  0  0  0  0
   36.2430   26.0440   38.7660 N   0  0  0  0  0  0  0  0  0  0  0  0
   36.9840   24.1410   39.0480 H   0  0  0  0  0  0  0  0  0  0  0  0
   37.9400   24.3480   41.4920 N   0  0  0  0  0  0  0  0  0  0  0  0
   38.9810   24.1990   41.4410 H   0  0  0  0  0  0  0  0  0  0  0  0
   37.1690   23.8650   41.9880 H   0  0  0  0  0  0  0  0  0  0  0  0
   37.5690   26.9680   42.6520 C   0  0  0  0  0  3  0  0  0  0  0  0
   37.5440   28.3660   43.1490 C   0  0  0  0  0  2  0  0  0  0  0  0
   36.5150   27.4340   43.6800 C   0  0  0  0  0  2  0  0  0  0  0  0
  1 18  1  0  0  0  0
  1  5  1  0  0  0  0
  2  3  1  0  0  0  0
  2  1  2  0  0  0  0
  3  4  2  0  0  0  0
  4  8  1  0  0  0  0
  4  5  1  0  0  0  0
  6  2  1  0  0  0  0
  7  3  1  0  0  0  0
  8  9  1  0  0  0  0
  9 14  1  0  0  0  0
  9 10  2  0  0  0  0
 10 15  1  0  0  0  0
 11 10  1  0  0  0  0
 11 16  1  0  0  0  0
 12 11  2  0  0  0  0
 13  8  2  0  0  0  0
 13 12  1  0  0  0  0
 17 12  1  0  0  0  0
 18 20  1  0  0  0  0
 18 25  1  0  0  0  0
 19 18  1  0  0  0  0
 21 22  1  0  0  0  0
 22 23  2  0  0  0  0
 22 28  1  0  0  0  0
 23 31  1  0  0  0  0
 24 23  1  0  0  0  0
 25 24  2  0  0  0  0
 26 25  1  0  0  0  0
 26 21  2  0  0  0  0
 27 21  1  0  0  0  0
 28 30  1  0  0  0  0
 29 28  1  0  0  0  0
 31 32  1  0  0  0  0
 31 33  1  0  0  0  0
 32 33  1  0  0  0  0
M  END
>  <minimizedAffinity>
-5.4586091

$$$$

 OpenBabel03242518223D

 33 36  0  0  0  0  0  0  0  0999 V2000
   37.5700   29.4080   42.5570 C   0  0  0  0  0  0  0  0  0  0  0  0
   36.7470   29.7440   41.5100 C   0  0  0  0  0  0  0  0  0  0  0  0
   37.3280   30.7660   40.7960 C   0  0  0  0  0  0  0  0  0  0  0  0
   38.5270   31.0180   41.4630 C   0  0  0  0  0  0  0  0  0  0  0  0
   38.6040   30.2030   42.4660 O   0  0  0  0  0  0  0  0  0  0  0  0
   35.7770   29.2860   41.2630 H   0  0  0  0  0  0  0  0  0  0  0  0
   36.9150   31.2370   39.9210 H   0  0  0  0  0  0  0  0  0  0  0  0
   39.4980   32.0350   41.0660 C   0  0  0  0  0  0  0  0  0  0  0  0
   40.8470   31.8050   41.2180 C   0  0  0  0  0  0  0  0  0  0  0  0
   41.8140   32.7300   40.8600 C   0  0  0  0  0  0  0  0  0  0  0  0
   41.2990   33.9170   40.3320 C   0  0  0  0  0  0  0  0  0  0  0  0
   39.9690   34.1610   40.1760 C   0  0  0  0  0  0  0  0  0  0  0  0
   39.0820   33.2110   40.5470 N   0  0  0  0  0  0  0  0  0  0  0  0
   41.2430   30.8740   41.6310 H   0  0  0  0  0  0  0  0  0  0  0  0
   42.8750   32.5620   40.9740 H   0  0  0  0  0  0  0  0  0  0  0  0
   41.9660   34.7090   40.0200 H   0  0  0  0  0  0  0  0  0  0  0  0
   39.5520   35.0670   39.7720 H   0  0  0  0  0  0  0  0  0  0  0  0
   37.2830   28.3350   43.5660 C   0  0  0  0  0  0  0  0  0  0  0  0
   36.2010   28.3470   43.7480 H   0  0  0  0  0  0  0  0  0  0  0  0
   37.7910   28.5870   44.5060 H   0  0  0  0  0  0  0  0  0  0  0  0
   37.1520   25.0530   41.9230 C   0  0  0  0  0  0  0  0  0  0  0  0
   38.4400   24.5420   42.1060 C   0  0  0  0  0  0  0  0  0  0  0  0
   39.3330   25.3350   42.7910 C   0  0  0  0  0  0  0  0  0  0  0  0
   38.9480   26.5470   43.2520 N   0  0  0  0  0  0  0  0  0  0  0  0
   37.6960   27.0040   43.0550 C   0  0  0  0  0  0  0  0  0  0  0  0
   36.8060   26.2410   42.3860 N   0  0  0  0  0  0  0  0  0  0  0  0
   36.3950   24.4820   41.3910 H   0  0  0  0  0  0  0  0  0  0  0  0
   38.7210   23.2640   41.5760 N   0  0  0  0  0  0  0  0  0  0  0  0
   39.0950   23.1370   40.6000 H   0  0  0  0  0  0  0  0  0  0  0  0
   38.4780   22.6090   42.3420 H   0  0  0  0  0  0  0  0  0  0  0  0
   40.7140   24.8020   42.9940 C   0  0  0  0  0  3  0  0  0  0  0  0
   41.8030   25.2090   42.0720 C   0  0  0  0  0  2  0  0  0  0  0  0
   41.8010   25.8060   43.4330 C   0  0  0  0  0  2  0  0  0  0  0  0
  1 18  1  0  0  0  0
  2  1  2  0  0  0  0
  3  4  2  0  0  0  0
  3  2  1  0  0  0  0
  4  5  1  0  0  0  0
  5  1  1  0  0  0  0
  6  2  1  0  0  0  0
  7  3  1  0  0  0  0
  8  9  1  0  0  0  0
  8  4  1  0  0  0  0
  9 14  1  0  0  0  0
 10 15  1  0  0  0  0
 10  9  2  0  0  0  0
 11 10  1  0  0  0  0
 12 11  2  0  0  0  0
 12 13  1  0  0  0  0
 13  8  2  0  0  0  0
 16 11  1  0  0  0  0
 17 12  1  0  0  0  0
 18 19  1  0  0  0  0
 18 20  1  0  0  0  0
 21 22  2  0  0  0  0
 21 26  1  0  0  0  0
 22 23  1  0  0  0  0
 23 31  1  0  0  0  0
 23 24  2  0  0  0  0
 25 24  1  0  0  0  0
 25 18  1  0  0  0  0
 26 25  2  0  0  0  0
 27 21  1  0  0  0  0
 28 22  1  0  0  0  0
 28 30  1  0  0  0  0
 29 28  1  0  0  0  0
 31 33  1  0  0  0  0
 32 31  1  0  0  0  0
 32 33  1  0  0  0  0
M  END
>  <minimizedAffinity>
-5.38503933

$$$$

 OpenBabel03242518223D

 33 36  0  0  0  0  0  0  0  0999 V2000
   36.7690   28.4140   41.9800 C   0  0  0  0  0  0  0  0  0  0  0  0
   35.7410   28.6120   41.0900 C   0  0  0  0  0  0  0  0  0  0  0  0
   35.9080   29.8350   40.4810 C   0  0  0  0  0  0  0  0  0  0  0  0
   37.0750   30.3480   41.0470 C   0  0  0  0  0  0  0  0  0  0  0  0
   37.5190   29.4820   41.9010 O   0  0  0  0  0  0  0  0  0  0  0  0
   34.9090   27.9230   40.8820 H   0  0  0  0  0  0  0  0  0  0  0  0
   35.2580   30.2620   39.7380 H   0  0  0  0  0  0  0  0  0  0  0  0
   37.6600   31.6430   40.7080 C   0  0  0  0  0  0  0  0  0  0  0  0
   36.9710   32.5300   39.9120 C   0  0  0  0  0  0  0  0  0  0  0  0
   37.4740   33.7720   39.5580 C   0  0  0  0  0  0  0  0  0  0  0  0
   38.7420   34.0430   40.0790 C   0  0  0  0  0  0  0  0  0  0  0  0
   39.4370   33.1770   40.8660 C   0  0  0  0  0  0  0  0  0  0  0  0
   38.8830   31.9830   41.1720 N   0  0  0  0  0  0  0  0  0  0  0  0
   35.9800   32.3120   39.5080 H   0  0  0  0  0  0  0  0  0  0  0  0
   36.9440   34.4760   38.9340 H   0  0  0  0  0  0  0  0  0  0  0  0
   39.2290   34.9850   39.8640 H   0  0  0  0  0  0  0  0  0  0  0  0
   40.4130   33.3670   41.2780 H   0  0  0  0  0  0  0  0  0  0  0  0
   36.9380   27.1960   42.8390 C   0  0  0  0  0  0  0  0  0  0  0  0
   35.9490   26.9470   43.2420 H   0  0  0  0  0  0  0  0  0  0  0  0
   37.5980   27.4440   43.6800 H   0  0  0  0  0  0  0  0  0  0  0  0
   37.2720   23.8400   41.3830 C   0  0  0  0  0  0  0  0  0  0  0  0
   38.4150   23.9410   40.5840 C   0  0  0  0  0  0  0  0  0  0  0  0
   39.0520   25.1610   40.5590 C   0  0  0  0  0  0  0  0  0  0  0  0
   38.5680   26.1940   41.2860 N   0  0  0  0  0  0  0  0  0  0  0  0
   37.4620   26.0560   42.0440 C   0  0  0  0  0  0  0  0  0  0  0  0
   36.8230   24.8670   42.0820 N   0  0  0  0  0  0  0  0  0  0  0  0
   36.7180   22.9080   41.4500 H   0  0  0  0  0  0  0  0  0  0  0  0
   38.8210   22.7920   39.8710 N   0  0  0  0  0  0  0  0  0  0  0  0
   38.4780   22.5940   38.8950 H   0  0  0  0  0  0  0  0  0  0  0  0
   39.4600   22.2990   40.5210 H   0  0  0  0  0  0  0  0  0  0  0  0
   40.2750   25.2840   39.7100 C   0  0  0  0  0  3  0  0  0  0  0  0
   41.1330   26.4890   39.8250 C   0  0  0  0  0  2  0  0  0  0  0  0
   41.6420   25.2300   40.4260 C   0  0  0  0  0  2  0  0  0  0  0  0
  1 18  1  0  0  0  0
  2  1  2  0  0  0  0
  3  4  2  0  0  0  0
  3  2  1  0  0  0  0
  4  5  1  0  0  0  0
  5  1  1  0  0  0  0
  6  2  1  0  0  0  0
  7  3  1  0  0  0  0
  8  4  1  0  0  0  0
  8 13  1  0  0  0  0
  9  8  2  0  0  0  0
 10  9  1  0  0  0  0
 10 11  2  0  0  0  0
 11 12  1  0  0  0  0
 12 13  2  0  0  0  0
 12 17  1  0  0  0  0
 14  9  1  0  0  0  0
 15 10  1  0  0  0  0
 16 11  1  0  0  0  0
 18 19  1  0  0  0  0
 18 20  1  0  0  0  0
 21 27  1  0  0  0  0
 21 26  1  0  0  0  0
 22 21  2  0  0  0  0
 23 22  1  0  0  0  0
 23 24  2  0  0  0  0
 24 25  1  0  0  0  0
 25 26  2  0  0  0  0
 25 18  1  0  0  0  0
 28 30  1  0  0  0  0
 28 22  1  0  0  0  0
 29 28  1  0  0  0  0
 31 32  1  0  0  0  0
 31 33  1  0  0  0  0
 31 23  1  0  0  0  0
 32 33  1  0  0  0  0
M  END
>  <minimizedAffinity>
-5.3597436

$$$$
