
 OpenBabel03242511293D

 28 31  0  0  0  0  0  0  0  0999 V2000
   44.6390   33.3450   41.1030 Cl  0  0  0  0  0  0  0  0  0  0  0  0
   46.2140   34.0410   40.9140 C   0  0  0  0  0  0  0  0  0  0  0  0
   46.7970   34.7300   41.9620 C   0  0  0  0  0  0  0  0  0  0  0  0
   48.0590   35.3100   41.8640 C   0  0  0  0  0  0  0  0  0  0  0  0
   48.6930   35.1480   40.6440 C   0  0  0  0  0  0  0  0  0  0  0  0
   48.1260   34.4750   39.6190 C   0  0  0  0  0  0  0  0  0  0  0  0
   46.8770   33.9070   39.7280 C   0  0  0  0  0  0  0  0  0  0  0  0
   48.4460   35.8280   42.7170 H   0  0  0  0  0  0  0  0  0  0  0  0
   49.6740   35.6040   40.5810 H   0  0  0  0  0  0  0  0  0  0  0  0
   48.7180   34.4170   38.7130 H   0  0  0  0  0  0  0  0  0  0  0  0
   45.5260   34.0410   45.3630 C   0  0  0  0  0  0  0  0  0  0  0  0
   44.6800   35.1220   45.5870 C   0  0  0  0  0  0  0  0  0  0  0  0
   44.5420   36.0720   44.6010 C   0  0  0  0  0  0  0  0  0  0  0  0
   45.2340   35.9280   43.4360 N   0  0  0  0  0  0  0  0  0  0  0  0
   46.0660   34.8590   43.2230 C   0  0  0  0  0  0  0  0  0  0  0  0
   46.1890   33.9400   44.1990 N   0  0  0  0  0  0  0  0  0  0  0  0
   45.6190   33.3080   46.1520 H   0  0  0  0  0  0  0  0  0  0  0  0
   44.1450   35.2180   46.5080 H   0  0  0  0  0  0  0  0  0  0  0  0
   43.8960   36.9300   44.7280 H   0  0  0  0  0  0  0  0  0  0  0  0
   46.4090   33.2150   38.5250 C   0  0  0  0  0  0  0  0  0  0  0  0
   47.0380   33.4720   37.3170 C   0  0  0  0  0  0  0  0  0  0  0  0
   46.1050   32.3820   36.1350 S   0  0  0  0  0  0  0  0  0  0  0  0
   45.0090   31.7690   37.5530 C   0  0  0  0  0  0  0  0  0  0  0  0
   45.4430   32.3500   38.4090 N   0  0  0  0  0  0  0  0  0  0  0  0
   47.8680   34.1300   37.0630 H   0  0  0  0  0  0  0  0  0  0  0  0
   43.9190   30.7730   37.3340 C   0  0  0  0  0  0  0  0  0  0  0  0
   43.2320   30.6890   36.0270 C   0  0  0  0  0  0  0  0  0  0  0  0
   42.5180   31.2360   37.2030 C   0  0  0  0  0  0  0  0  0  0  0  0
  2  1  1  0  0  0  0
  2  3  1  0  0  0  0
  3 15  1  0  0  0  0
  4  3  2  0  0  0  0
  4  8  1  0  0  0  0
  5  4  1  0  0  0  0
  6  7  1  0  0  0  0
  6  5  2  0  0  0  0
  7  2  2  0  0  0  0
  9  5  1  0  0  0  0
 10  6  1  0  0  0  0
 11 12  1  0  0  0  0
 11 17  1  0  0  0  0
 12 18  1  0  0  0  0
 13 19  1  0  0  0  0
 13 12  2  0  0  0  0
 14 13  1  0  0  0  0
 15 14  2  0  0  0  0
 15 16  1  0  0  0  0
 16 11  2  0  0  0  0
 20  7  1  0  0  0  0
 21 20  2  0  0  0  0
 22 21  1  0  0  0  0
 22 23  1  0  0  0  0
 23 24  2  0  0  0  0
 24 20  1  0  0  0  0
 25 21  1  0  0  0  0
 26 23  1  0  0  0  0
 27 28  1  0  0  0  0
 27 26  1  0  0  0  0
 28 26  1  0  0  0  0
M  END
>  <minimizedAffinity>
-5.67193842

>  <minimizedRMSD>
0.974999249

$$$$
