
 OpenBabel03252505233D

 34 37  0  0  1  0  0  0  0  0999 V2000
   38.9050   31.0790   39.0970 F   0  0  0  0  0  0  0  0  0  0  0  0
   39.5000   31.0340   40.3080 C   0  0  0  0  0  0  0  0  0  0  0  0
   40.7460   31.5830   40.4540 C   0  0  0  0  0  0  0  0  0  0  0  0
   41.3360   31.5320   41.6930 C   0  0  0  0  0  0  0  0  0  0  0  0
   40.6640   30.9370   42.7380 C   0  0  0  0  0  0  0  0  0  0  0  0
   39.4160   30.3830   42.6020 C   0  0  0  0  0  0  0  0  0  0  0  0
   38.8250   30.4430   41.3290 C   0  0  0  0  0  0  0  0  0  0  0  0
   42.3180   31.9790   41.7610 H   0  0  0  0  0  0  0  0  0  0  0  0
   41.2090   30.9430   43.6870 H   0  0  0  0  0  0  0  0  0  0  0  0
   38.9820   29.9450   43.4770 H   0  0  0  0  0  0  0  0  0  0  0  0
   37.5230   29.8630   41.2440 N   0  0  0  0  0  0  0  0  0  0  0  0
   36.2240   30.5110   41.2240 C   0  0  0  0  0  0  0  0  0  0  0  0
   35.5280   29.7960   40.0770 C   0  0  0  0  0  0  0  0  0  0  0  0
   36.3000   28.5110   39.8940 C   0  0  0  0  0  0  0  0  0  0  0  0
   37.1540   28.4640   41.1270 C   0  0  2  0  0  0  0  0  0  0  0  0
   35.7220   30.3390   42.1850 H   0  0  0  0  0  0  0  0  0  0  0  0
   36.3160   31.6020   41.0190 H   0  0  0  0  0  0  0  0  0  0  0  0
   35.5330   30.4340   39.1630 H   0  0  0  0  0  0  0  0  0  0  0  0
   34.4770   29.5900   40.4190 H   0  0  0  0  0  0  0  0  0  0  0  0
   36.9470   28.6450   39.0020 H   0  0  0  0  0  0  0  0  0  0  0  0
   35.6080   27.6470   39.7950 H   0  0  0  0  0  0  0  0  0  0  0  0
   38.0760   27.8940   40.8500 H   0  0  0  0  0  0  0  0  0  0  0  0
   36.4270   27.8780   42.2760 C   0  0  0  0  0  3  0  0  0  0  0  0
   37.1050   26.5710   42.7960 C   0  0  0  0  0  2  0  0  0  0  0  0
   37.0150   27.8060   43.6360 C   0  0  0  0  0  2  0  0  0  0  0  0
   42.6760   31.9780   37.3580 C   0  0  0  0  0  0  0  0  0  0  0  0
   42.6410   33.3920   37.1610 C   0  0  0  0  0  0  0  0  0  0  0  0
   41.9470   34.1610   38.1120 C   0  0  0  0  0  0  0  0  0  0  0  0
   41.3510   33.5250   39.1600 N   0  0  0  0  0  0  0  0  0  0  0  0
   41.4060   32.1990   39.3110 C   0  0  0  0  0  0  0  0  0  0  0  0
   42.0640   31.4190   38.4160 N   0  0  0  0  0  0  0  0  0  0  0  0
   43.1800   31.2960   36.6880 H   0  0  0  0  0  0  0  0  0  0  0  0
   43.1440   33.7760   36.3040 H   0  0  0  0  0  0  0  0  0  0  0  0
   41.9200   35.2180   37.9680 H   0  0  0  0  0  0  0  0  0  0  0  0
  1  2  1  0  0  0  0
  2  3  2  0  0  0  0
  2  7  1  0  0  0  0
  3  4  1  0  0  0  0
  4  8  1  0  0  0  0
  4  5  2  0  0  0  0
  5  9  1  0  0  0  0
  6  5  1  0  0  0  0
  6 10  1  0  0  0  0
  7  6  2  0  0  0  0
 11  7  1  0  0  0  0
 12 11  1  0  0  0  0
 12 16  1  0  0  0  0
 13 19  1  0  0  0  0
 13 12  1  0  0  0  0
 14 13  1  0  0  0  0
 14 15  1  0  0  0  0
 15 22  1  6  0  0  0
 15 11  1  0  0  0  0
 15 23  1  0  0  0  0
 17 12  1  0  0  0  0
 18 13  1  0  0  0  0
 20 14  1  0  0  0  0
 21 14  1  0  0  0  0
 23 24  1  0  0  0  0
 23 25  1  0  0  0  0
 24 25  1  0  0  0  0
 26 31  1  0  0  0  0
 27 26  2  0  0  0  0
 27 28  1  0  0  0  0
 28 29  2  0  0  0  0
 29 30  1  0  0  0  0
 30  3  1  0  0  0  0
 31 30  2  0  0  0  0
 32 26  1  0  0  0  0
 33 27  1  0  0  0  0
 34 28  1  0  0  0  0
M  END
>  <minimizedAffinity>
-5.2688756

$$$$

 OpenBabel03252505233D

 34 37  0  0  1  0  0  0  0  0999 V2000
   39.7680   30.4000   41.1250 F   0  0  0  0  0  0  0  0  0  0  0  0
   38.6240   30.3280   40.4140 C   0  0  0  0  0  0  0  0  0  0  0  0
   38.4690   31.1460   39.3260 C   0  0  0  0  0  0  0  0  0  0  0  0
   37.3000   31.0570   38.6100 C   0  0  0  0  0  0  0  0  0  0  0  0
   36.3320   30.1610   39.0040 C   0  0  0  0  0  0  0  0  0  0  0  0
   36.4770   29.3380   40.0920 C   0  0  0  0  0  0  0  0  0  0  0  0
   37.6770   29.4390   40.8150 C   0  0  0  0  0  0  0  0  0  0  0  0
   37.2230   31.7210   37.7600 H   0  0  0  0  0  0  0  0  0  0  0  0
   35.4360   30.1590   38.3750 H   0  0  0  0  0  0  0  0  0  0  0  0
   35.6640   28.6770   40.3130 H   0  0  0  0  0  0  0  0  0  0  0  0
   37.7830   28.5540   41.9300 N   0  0  0  0  0  0  0  0  0  0  0  0
   37.4530   28.7850   43.3250 C   0  0  0  0  0  0  0  0  0  0  0  0
   36.6670   27.5330   43.6780 C   0  0  0  0  0  0  0  0  0  0  0  0
   37.0480   26.5230   42.6210 C   0  0  0  0  0  0  0  0  0  0  0  0
   38.2270   27.1730   41.9590 C   0  0  2  0  0  0  0  0  0  0  0  0
   38.3820   28.8680   43.9050 H   0  0  0  0  0  0  0  0  0  0  0  0
   36.8280   29.6980   43.4500 H   0  0  0  0  0  0  0  0  0  0  0  0
   35.5740   27.7520   43.6880 H   0  0  0  0  0  0  0  0  0  0  0  0
   37.0220   27.2070   44.6930 H   0  0  0  0  0  0  0  0  0  0  0  0
   36.2040   26.4700   41.9030 H   0  0  0  0  0  0  0  0  0  0  0  0
   37.2800   25.5390   43.0830 H   0  0  0  0  0  0  0  0  0  0  0  0
   38.2400   26.8000   40.9040 H   0  0  0  0  0  0  0  0  0  0  0  0
   39.4860   26.9020   42.6900 C   0  0  0  0  0  3  0  0  0  0  0  0
   40.5290   26.1460   41.8060 C   0  0  0  0  0  2  0  0  0  0  0  0
   40.7760   27.5320   42.3140 C   0  0  0  0  0  2  0  0  0  0  0  0
   41.3190   32.6370   37.5610 C   0  0  0  0  0  0  0  0  0  0  0  0
   41.5250   33.8480   38.2900 C   0  0  0  0  0  0  0  0  0  0  0  0
   40.6640   34.1040   39.3730 C   0  0  0  0  0  0  0  0  0  0  0  0
   39.6910   33.1960   39.6660 N   0  0  0  0  0  0  0  0  0  0  0  0
   39.5300   32.0740   38.9590 C   0  0  0  0  0  0  0  0  0  0  0  0
   40.3370   31.7880   37.9070 N   0  0  0  0  0  0  0  0  0  0  0  0
   41.9230   32.3440   36.7130 H   0  0  0  0  0  0  0  0  0  0  0  0
   42.3180   34.4810   37.9690 H   0  0  0  0  0  0  0  0  0  0  0  0
   40.8160   35.0080   39.9210 H   0  0  0  0  0  0  0  0  0  0  0  0
  2  7  1  0  0  0  0
  2  1  1  0  0  0  0
  3  2  2  0  0  0  0
  4  5  2  0  0  0  0
  4  3  1  0  0  0  0
  5  6  1  0  0  0  0
  6 10  1  0  0  0  0
  6  7  2  0  0  0  0
  7 11  1  0  0  0  0
  8  4  1  0  0  0  0
  9  5  1  0  0  0  0
 11 15  1  0  0  0  0
 11 12  1  0  0  0  0
 12 17  1  0  0  0  0
 12 13  1  0  0  0  0
 12 16  1  0  0  0  0
 13 18  1  0  0  0  0
 13 19  1  0  0  0  0
 14 21  1  0  0  0  0
 14 13  1  0  0  0  0
 15 22  1  6  0  0  0
 15 14  1  0  0  0  0
 15 23  1  0  0  0  0
 20 14  1  0  0  0  0
 24 25  1  0  0  0  0
 24 23  1  0  0  0  0
 25 23  1  0  0  0  0
 26 31  2  0  0  0  0
 26 27  1  0  0  0  0
 27 28  2  0  0  0  0
 28 29  1  0  0  0  0
 28 34  1  0  0  0  0
 30  3  1  0  0  0  0
 30 29  2  0  0  0  0
 31 30  1  0  0  0  0
 32 26  1  0  0  0  0
 33 27  1  0  0  0  0
M  END
>  <minimizedAffinity>
-5.22534323

$$$$

 OpenBabel03252505233D

 34 37  0  0  1  0  0  0  0  0999 V2000
   37.5230   27.5740   39.4450 F   0  0  0  0  0  0  0  0  0  0  0  0
   37.4810   27.7720   40.7790 C   0  0  0  0  0  0  0  0  0  0  0  0
   37.5570   26.6870   41.6110 C   0  0  0  0  0  0  0  0  0  0  0  0
   37.5170   26.9050   42.9670 C   0  0  0  0  0  0  0  0  0  0  0  0
   37.4020   28.1930   43.4410 C   0  0  0  0  0  0  0  0  0  0  0  0
   37.3240   29.2860   42.6160 C   0  0  0  0  0  0  0  0  0  0  0  0
   37.3670   29.0480   41.2320 C   0  0  0  0  0  0  0  0  0  0  0  0
   37.5810   26.0190   43.5840 H   0  0  0  0  0  0  0  0  0  0  0  0
   37.3780   28.2710   44.5330 H   0  0  0  0  0  0  0  0  0  0  0  0
   37.2370   30.2440   43.0870 H   0  0  0  0  0  0  0  0  0  0  0  0
   37.2940   30.2190   40.4190 N   0  0  0  0  0  0  0  0  0  0  0  0
   36.6320   31.4840   40.6800 C   0  0  0  0  0  0  0  0  0  0  0  0
   37.7010   32.4910   40.2910 C   0  0  0  0  0  0  0  0  0  0  0  0
   38.6530   31.7250   39.4030 C   0  0  0  0  0  0  0  0  0  0  0  0
   37.8910   30.4640   39.1190 C   0  0  2  0  0  0  0  0  0  0  0  0
   35.7390   31.5600   40.0440 H   0  0  0  0  0  0  0  0  0  0  0  0
   36.3580   31.5870   41.7550 H   0  0  0  0  0  0  0  0  0  0  0  0
   38.1980   32.9000   41.2010 H   0  0  0  0  0  0  0  0  0  0  0  0
   37.1810   33.3050   39.7160 H   0  0  0  0  0  0  0  0  0  0  0  0
   39.5470   31.4860   40.0150 H   0  0  0  0  0  0  0  0  0  0  0  0
   38.9010   32.3120   38.4930 H   0  0  0  0  0  0  0  0  0  0  0  0
   38.6550   29.6670   38.9420 H   0  0  0  0  0  0  0  0  0  0  0  0
   36.9520   30.6340   37.9860 C   0  0  0  0  0  3  0  0  0  0  0  0
   37.1780   29.5670   36.8680 C   0  0  0  0  0  2  0  0  0  0  0  0
   35.9100   29.6290   37.6590 C   0  0  0  0  0  2  0  0  0  0  0  0
   39.0290   23.6170   40.2420 C   0  0  0  0  0  0  0  0  0  0  0  0
   37.8740   22.8170   39.9880 C   0  0  0  0  0  0  0  0  0  0  0  0
   36.6200   23.3730   40.3010 C   0  0  0  0  0  0  0  0  0  0  0  0
   36.5740   24.6300   40.8250 N   0  0  0  0  0  0  0  0  0  0  0  0
   37.6780   25.3480   41.0490 C   0  0  0  0  0  0  0  0  0  0  0  0
   38.9070   24.8500   40.7620 N   0  0  0  0  0  0  0  0  0  0  0  0
   40.0380   23.2860   40.0380 H   0  0  0  0  0  0  0  0  0  0  0  0
   38.0330   21.8480   39.5760 H   0  0  0  0  0  0  0  0  0  0  0  0
   35.7540   22.7780   40.1120 H   0  0  0  0  0  0  0  0  0  0  0  0
  1  2  1  0  0  0  0
  2  7  2  0  0  0  0
  2  3  1  0  0  0  0
  3  4  2  0  0  0  0
  4  5  1  0  0  0  0
  4  8  1  0  0  0  0
  5  9  1  0  0  0  0
  6 10  1  0  0  0  0
  6  5  2  0  0  0  0
  7  6  1  0  0  0  0
 11 12  1  0  0  0  0
 11  7  1  0  0  0  0
 12 17  1  0  0  0  0
 13 12  1  0  0  0  0
 13 18  1  0  0  0  0
 14 20  1  0  0  0  0
 14 13  1  0  0  0  0
 15 22  1  6  0  0  0
 15 14  1  0  0  0  0
 15 11  1  0  0  0  0
 16 12  1  0  0  0  0
 19 13  1  0  0  0  0
 21 14  1  0  0  0  0
 23 15  1  0  0  0  0
 24 25  1  0  0  0  0
 24 23  1  0  0  0  0
 25 23  1  0  0  0  0
 26 31  1  0  0  0  0
 27 26  2  0  0  0  0
 27 28  1  0  0  0  0
 28 29  2  0  0  0  0
 29 30  1  0  0  0  0
 30  3  1  0  0  0  0
 31 30  2  0  0  0  0
 32 26  1  0  0  0  0
 33 27  1  0  0  0  0
 34 28  1  0  0  0  0
M  END
>  <minimizedAffinity>
-5.14782858

$$$$

 OpenBabel03252505233D

 34 37  0  0  1  0  0  0  0  0999 V2000
   38.1800   28.2980   39.8020 F   0  0  0  0  0  0  0  0  0  0  0  0
   37.8540   28.1010   41.0960 C   0  0  0  0  0  0  0  0  0  0  0  0
   37.8170   29.1790   41.9410 C   0  0  0  0  0  0  0  0  0  0  0  0
   37.4790   28.9620   43.2540 C   0  0  0  0  0  0  0  0  0  0  0  0
   37.1930   27.6820   43.6770 C   0  0  0  0  0  0  0  0  0  0  0  0
   37.2290   26.5970   42.8390 C   0  0  0  0  0  0  0  0  0  0  0  0
   37.5750   26.8330   41.4990 C   0  0  0  0  0  0  0  0  0  0  0  0
   37.4620   29.8420   43.8830 H   0  0  0  0  0  0  0  0  0  0  0  0
   36.9350   27.6050   44.7370 H   0  0  0  0  0  0  0  0  0  0  0  0
   36.9900   25.6450   43.2690 H   0  0  0  0  0  0  0  0  0  0  0  0
   37.5870   25.6720   40.6670 N   0  0  0  0  0  0  0  0  0  0  0  0
   38.6800   24.7680   40.3600 C   0  0  0  0  0  0  0  0  0  0  0  0
   38.0300   23.4070   40.5460 C   0  0  0  0  0  0  0  0  0  0  0  0
   36.5450   23.6680   40.4550 C   0  0  0  0  0  0  0  0  0  0  0  0
   36.4930   25.0720   39.9260 C   0  0  2  0  0  0  0  0  0  0  0  0
   39.0040   24.9350   39.3240 H   0  0  0  0  0  0  0  0  0  0  0  0
   39.5320   24.9050   41.0650 H   0  0  0  0  0  0  0  0  0  0  0  0
   38.3290   22.9650   41.5250 H   0  0  0  0  0  0  0  0  0  0  0  0
   38.3800   22.7660   39.6910 H   0  0  0  0  0  0  0  0  0  0  0  0
   36.1480   23.6490   41.4900 H   0  0  0  0  0  0  0  0  0  0  0  0
   36.0550   22.9220   39.7940 H   0  0  0  0  0  0  0  0  0  0  0  0
   35.5410   25.5170   40.3080 H   0  0  0  0  0  0  0  0  0  0  0  0
   36.6020   25.1060   38.4500 C   0  0  0  0  0  3  0  0  0  0  0  0
   35.3380   25.7330   37.7800 C   0  0  0  0  0  2  0  0  0  0  0  0
   36.6850   26.3770   37.6870 C   0  0  0  0  0  2  0  0  0  0  0  0
   37.4460   32.4560   40.3320 C   0  0  0  0  0  0  0  0  0  0  0  0
   38.7500   33.0170   40.4890 C   0  0  0  0  0  0  0  0  0  0  0  0
   39.7150   32.2360   41.1500 C   0  0  0  0  0  0  0  0  0  0  0  0
   39.3610   30.9990   41.6000 N   0  0  0  0  0  0  0  0  0  0  0  0
   38.1290   30.5080   41.4340 C   0  0  0  0  0  0  0  0  0  0  0  0
   37.1680   31.2290   40.8030 N   0  0  0  0  0  0  0  0  0  0  0  0
   36.6320   32.9710   39.8400 H   0  0  0  0  0  0  0  0  0  0  0  0
   38.9100   33.9930   40.0950 H   0  0  0  0  0  0  0  0  0  0  0  0
   40.6910   32.6520   41.2680 H   0  0  0  0  0  0  0  0  0  0  0  0
  1  2  1  0  0  0  0
  2  7  2  0  0  0  0
  2  3  1  0  0  0  0
  3  4  2  0  0  0  0
  4  5  1  0  0  0  0
  4  8  1  0  0  0  0
  5  9  1  0  0  0  0
  6 10  1  0  0  0  0
  6  5  2  0  0  0  0
  7  6  1  0  0  0  0
 11  7  1  0  0  0  0
 12 13  1  0  0  0  0
 12 11  1  0  0  0  0
 12 17  1  0  0  0  0
 13 18  1  0  0  0  0
 14 13  1  0  0  0  0
 14 20  1  0  0  0  0
 15 22  1  1  0  0  0
 15 14  1  0  0  0  0
 15 11  1  0  0  0  0
 16 12  1  0  0  0  0
 19 13  1  0  0  0  0
 21 14  1  0  0  0  0
 23 15  1  0  0  0  0
 24 23  1  0  0  0  0
 25 24  1  0  0  0  0
 25 23  1  0  0  0  0
 26 27  2  0  0  0  0
 26 31  1  0  0  0  0
 27 28  1  0  0  0  0
 28 34  1  0  0  0  0
 28 29  2  0  0  0  0
 30 29  1  0  0  0  0
 30  3  1  0  0  0  0
 31 30  2  0  0  0  0
 32 26  1  0  0  0  0
 33 27  1  0  0  0  0
M  END
>  <minimizedAffinity>
-5.12766075

$$$$

 OpenBabel03252505233D

 34 37  0  0  1  0  0  0  0  0999 V2000
   37.5340   27.6340   38.9210 F   0  0  0  0  0  0  0  0  0  0  0  0
   37.2100   28.7260   39.6450 C   0  0  0  0  0  0  0  0  0  0  0  0
   36.4430   29.7010   39.0650 C   0  0  0  0  0  0  0  0  0  0  0  0
   36.1180   30.8040   39.8170 C   0  0  0  0  0  0  0  0  0  0  0  0
   36.5700   30.8950   41.1150 C   0  0  0  0  0  0  0  0  0  0  0  0
   37.3390   29.9240   41.7040 C   0  0  0  0  0  0  0  0  0  0  0  0
   37.6630   28.8010   40.9250 C   0  0  0  0  0  0  0  0  0  0  0  0
   35.5110   31.5460   39.3170 H   0  0  0  0  0  0  0  0  0  0  0  0
   36.2630   31.8060   41.6360 H   0  0  0  0  0  0  0  0  0  0  0  0
   37.6380   30.0920   42.7190 H   0  0  0  0  0  0  0  0  0  0  0  0
   38.4550   27.8170   41.5890 N   0  0  0  0  0  0  0  0  0  0  0  0
   39.8920   27.6090   41.5500 C   0  0  0  0  0  0  0  0  0  0  0  0
   40.2280   27.4310   43.0220 C   0  0  0  0  0  0  0  0  0  0  0  0
   38.9170   27.0690   43.6800 C   0  0  0  0  0  0  0  0  0  0  0  0
   38.0330   26.7730   42.5040 C   0  0  2  0  0  0  0  0  0  0  0  0
   40.1090   26.7060   40.9640 H   0  0  0  0  0  0  0  0  0  0  0  0
   40.4200   28.4920   41.1230 H   0  0  0  0  0  0  0  0  0  0  0  0
   40.6700   28.3670   43.4340 H   0  0  0  0  0  0  0  0  0  0  0  0
   40.9580   26.5790   43.0830 H   0  0  0  0  0  0  0  0  0  0  0  0
   38.5510   27.9790   44.1970 H   0  0  0  0  0  0  0  0  0  0  0  0
   39.0480   26.2080   44.3690 H   0  0  0  0  0  0  0  0  0  0  0  0
   36.9890   27.0100   42.8280 H   0  0  0  0  0  0  0  0  0  0  0  0
   38.1960   25.3790   42.0320 C   0  0  0  0  0  3  0  0  0  0  0  0
   36.8570   24.5770   42.0930 C   0  0  0  0  0  2  0  0  0  0  0  0
   37.5440   24.8750   40.7980 C   0  0  0  0  0  2  0  0  0  0  0  0
   36.4230   29.7520   35.3960 C   0  0  0  0  0  0  0  0  0  0  0  0
   35.1210   29.2460   35.0960 C   0  0  0  0  0  0  0  0  0  0  0  0
   34.2940   28.9030   36.1800 C   0  0  0  0  0  0  0  0  0  0  0  0
   34.7710   29.0700   37.4460 N   0  0  0  0  0  0  0  0  0  0  0  0
   35.9950   29.5480   37.6870 C   0  0  0  0  0  0  0  0  0  0  0  0
   36.8260   29.8890   36.6700 N   0  0  0  0  0  0  0  0  0  0  0  0
   37.1370   30.0440   34.6380 H   0  0  0  0  0  0  0  0  0  0  0  0
   34.8590   29.1580   34.0680 H   0  0  0  0  0  0  0  0  0  0  0  0
   33.3210   28.5250   35.9590 H   0  0  0  0  0  0  0  0  0  0  0  0
  1  2  1  0  0  0  0
  2  7  1  0  0  0  0
  3  2  2  0  0  0  0
  3  4  1  0  0  0  0
  4  5  2  0  0  0  0
  5  9  1  0  0  0  0
  5  6  1  0  0  0  0
  6 10  1  0  0  0  0
  7 11  1  0  0  0  0
  7  6  2  0  0  0  0
  8  4  1  0  0  0  0
 11 15  1  0  0  0  0
 12 11  1  0  0  0  0
 12 13  1  0  0  0  0
 13 19  1  0  0  0  0
 13 18  1  0  0  0  0
 13 14  1  0  0  0  0
 14 20  1  0  0  0  0
 14 21  1  0  0  0  0
 15 22  1  1  0  0  0
 15 14  1  0  0  0  0
 16 12  1  0  0  0  0
 17 12  1  0  0  0  0
 23 24  1  0  0  0  0
 23 15  1  0  0  0  0
 25 23  1  0  0  0  0
 25 24  1  0  0  0  0
 26 31  1  0  0  0  0
 27 26  2  0  0  0  0
 27 28  1  0  0  0  0
 28 29  2  0  0  0  0
 29 30  1  0  0  0  0
 30  3  1  0  0  0  0
 31 30  2  0  0  0  0
 32 26  1  0  0  0  0
 33 27  1  0  0  0  0
 34 28  1  0  0  0  0
M  END
>  <minimizedAffinity>
-5.10004807

$$$$

 OpenBabel03252505233D

 34 37  0  0  1  0  0  0  0  0999 V2000
   38.8380   27.5840   40.0910 F   0  0  0  0  0  0  0  0  0  0  0  0
   38.2340   27.7530   41.2860 C   0  0  0  0  0  0  0  0  0  0  0  0
   37.5390   26.7050   41.8300 C   0  0  0  0  0  0  0  0  0  0  0  0
   36.9330   26.8920   43.0480 C   0  0  0  0  0  0  0  0  0  0  0  0
   37.0410   28.1130   43.6770 C   0  0  0  0  0  0  0  0  0  0  0  0
   37.7340   29.1680   43.1400 C   0  0  0  0  0  0  0  0  0  0  0  0
   38.3490   28.9630   41.8940 C   0  0  0  0  0  0  0  0  0  0  0  0
   36.3970   26.0380   43.4380 H   0  0  0  0  0  0  0  0  0  0  0  0
   36.5270   28.1700   44.6420 H   0  0  0  0  0  0  0  0  0  0  0  0
   37.7560   30.0740   43.7110 H   0  0  0  0  0  0  0  0  0  0  0  0
   39.0660   30.0880   41.3860 N   0  0  0  0  0  0  0  0  0  0  0  0
   39.9480   31.0100   42.0790 C   0  0  0  0  0  0  0  0  0  0  0  0
   41.1360   31.0860   41.1350 C   0  0  0  0  0  0  0  0  0  0  0  0
   40.6080   30.6040   39.8040 C   0  0  0  0  0  0  0  0  0  0  0  0
   39.1240   30.5930   40.0270 C   0  0  2  0  0  0  0  0  0  0  0  0
   39.4410   31.9790   42.1860 H   0  0  0  0  0  0  0  0  0  0  0  0
   40.2520   30.6130   43.0740 H   0  0  0  0  0  0  0  0  0  0  0  0
   41.9750   30.4590   41.5170 H   0  0  0  0  0  0  0  0  0  0  0  0
   41.4340   32.1690   41.0820 H   0  0  0  0  0  0  0  0  0  0  0  0
   40.9690   29.5630   39.6700 H   0  0  0  0  0  0  0  0  0  0  0  0
   40.9330   31.2790   38.9840 H   0  0  0  0  0  0  0  0  0  0  0  0
   38.7110   29.8010   39.3540 H   0  0  0  0  0  0  0  0  0  0  0  0
   38.5250   31.9270   39.7950 C   0  0  0  0  0  3  0  0  0  0  0  0
   37.4280   31.8950   38.6840 C   0  0  0  0  0  2  0  0  0  0  0  0
   37.1050   32.2270   40.1070 C   0  0  0  0  0  2  0  0  0  0  0  0
   36.4470   24.1070   39.4800 C   0  0  0  0  0  0  0  0  0  0  0  0
   37.3380   23.0330   39.7840 C   0  0  0  0  0  0  0  0  0  0  0  0
   38.2900   23.2500   40.7970 C   0  0  0  0  0  0  0  0  0  0  0  0
   38.3120   24.4570   41.4280 N   0  0  0  0  0  0  0  0  0  0  0  0
   37.4610   25.4380   41.1160 C   0  0  0  0  0  0  0  0  0  0  0  0
   36.5280   25.2720   40.1440 N   0  0  0  0  0  0  0  0  0  0  0  0
   35.6800   24.0470   38.7200 H   0  0  0  0  0  0  0  0  0  0  0  0
   37.2270   22.1350   39.2230 H   0  0  0  0  0  0  0  0  0  0  0  0
   38.9570   22.4490   41.0270 H   0  0  0  0  0  0  0  0  0  0  0  0
  1  2  1  0  0  0  0
  2  3  2  0  0  0  0
  2  7  1  0  0  0  0
  3  4  1  0  0  0  0
  4  8  1  0  0  0  0
  4  5  2  0  0  0  0
  5  9  1  0  0  0  0
  6  5  1  0  0  0  0
  6 10  1  0  0  0  0
  7  6  2  0  0  0  0
 11  7  1  0  0  0  0
 11 12  1  0  0  0  0
 12 16  1  0  0  0  0
 12 17  1  0  0  0  0
 13 18  1  0  0  0  0
 13 12  1  0  0  0  0
 14 15  1  0  0  0  0
 14 13  1  0  0  0  0
 15 22  1  6  0  0  0
 15 11  1  0  0  0  0
 19 13  1  0  0  0  0
 20 14  1  0  0  0  0
 21 14  1  0  0  0  0
 23 15  1  0  0  0  0
 23 25  1  0  0  0  0
 24 23  1  0  0  0  0
 24 25  1  0  0  0  0
 26 27  2  0  0  0  0
 26 31  1  0  0  0  0
 27 28  1  0  0  0  0
 28 34  1  0  0  0  0
 28 29  2  0  0  0  0
 30 29  1  0  0  0  0
 30  3  1  0  0  0  0
 31 30  2  0  0  0  0
 32 26  1  0  0  0  0
 33 27  1  0  0  0  0
M  END
>  <minimizedAffinity>
-5.03043222

$$$$

 OpenBabel03252505233D

 34 37  0  0  1  0  0  0  0  0999 V2000
   38.2080   29.7290   39.3130 F   0  0  0  0  0  0  0  0  0  0  0  0
   38.3070   29.4160   40.6220 C   0  0  0  0  0  0  0  0  0  0  0  0
   38.7830   30.3600   41.4930 C   0  0  0  0  0  0  0  0  0  0  0  0
   38.8740   30.0280   42.8230 C   0  0  0  0  0  0  0  0  0  0  0  0
   38.4890   28.7700   43.2340 C   0  0  0  0  0  0  0  0  0  0  0  0
   38.0110   27.8190   42.3690 C   0  0  0  0  0  0  0  0  0  0  0  0
   37.9240   28.1720   41.0120 C   0  0  0  0  0  0  0  0  0  0  0  0
   39.2540   30.8040   43.4730 H   0  0  0  0  0  0  0  0  0  0  0  0
   38.5950   28.5950   44.3090 H   0  0  0  0  0  0  0  0  0  0  0  0
   37.7390   26.8720   42.7910 H   0  0  0  0  0  0  0  0  0  0  0  0
   37.4110   27.1510   40.1570 N   0  0  0  0  0  0  0  0  0  0  0  0
   36.2290   27.1610   39.3130 C   0  0  0  0  0  0  0  0  0  0  0  0
   36.7640   26.5970   38.0070 C   0  0  0  0  0  0  0  0  0  0  0  0
   38.0390   25.8800   38.3860 C   0  0  0  0  0  0  0  0  0  0  0  0
   37.9540   25.8330   39.8840 C   0  0  2  0  0  0  0  0  0  0  0  0
   35.4630   26.5140   39.7610 H   0  0  0  0  0  0  0  0  0  0  0  0
   35.8380   28.1940   39.1730 H   0  0  0  0  0  0  0  0  0  0  0  0
   36.9360   27.4170   37.2730 H   0  0  0  0  0  0  0  0  0  0  0  0
   35.9920   25.8730   37.6300 H   0  0  0  0  0  0  0  0  0  0  0  0
   38.8820   26.5340   38.0840 H   0  0  0  0  0  0  0  0  0  0  0  0
   38.0820   24.8770   37.9090 H   0  0  0  0  0  0  0  0  0  0  0  0
   39.0080   25.8180   40.2580 H   0  0  0  0  0  0  0  0  0  0  0  0
   37.1510   24.6810   40.3520 C   0  0  0  0  0  3  0  0  0  0  0  0
   37.9840   23.7070   41.2460 C   0  0  0  0  0  2  0  0  0  0  0  0
   36.8170   24.4730   41.7830 C   0  0  0  0  0  2  0  0  0  0  0  0
   40.8600   33.1580   40.3440 C   0  0  0  0  0  0  0  0  0  0  0  0
   39.8830   34.1610   40.0610 C   0  0  0  0  0  0  0  0  0  0  0  0
   38.5340   33.8300   40.2790 C   0  0  0  0  0  0  0  0  0  0  0  0
   38.2320   32.5850   40.7450 N   0  0  0  0  0  0  0  0  0  0  0  0
   39.1750   31.6730   40.9980 C   0  0  0  0  0  0  0  0  0  0  0  0
   40.4880   31.9500   40.8000 N   0  0  0  0  0  0  0  0  0  0  0  0
   41.9230   33.3080   40.2110 H   0  0  0  0  0  0  0  0  0  0  0  0
   40.2380   35.0980   39.7010 H   0  0  0  0  0  0  0  0  0  0  0  0
   37.8010   34.5770   40.0690 H   0  0  0  0  0  0  0  0  0  0  0  0
  1  2  1  0  0  0  0
  2  7  2  0  0  0  0
  2  3  1  0  0  0  0
  3  4  2  0  0  0  0
  4  5  1  0  0  0  0
  4  8  1  0  0  0  0
  5  9  1  0  0  0  0
  6 10  1  0  0  0  0
  6  5  2  0  0  0  0
  7  6  1  0  0  0  0
 11  7  1  0  0  0  0
 12 16  1  0  0  0  0
 12 11  1  0  0  0  0
 13 14  1  0  0  0  0
 13 12  1  0  0  0  0
 14 15  1  0  0  0  0
 15 11  1  0  0  0  0
 15 22  1  1  0  0  0
 15 23  1  0  0  0  0
 17 12  1  0  0  0  0
 18 13  1  0  0  0  0
 19 13  1  0  0  0  0
 20 14  1  0  0  0  0
 21 14  1  0  0  0  0
 23 24  1  0  0  0  0
 23 25  1  0  0  0  0
 24 25  1  0  0  0  0
 26 31  1  0  0  0  0
 27 28  1  0  0  0  0
 27 26  2  0  0  0  0
 28 29  2  0  0  0  0
 29 30  1  0  0  0  0
 30  3  1  0  0  0  0
 31 30  2  0  0  0  0
 32 26  1  0  0  0  0
 33 27  1  0  0  0  0
 34 28  1  0  0  0  0
M  END
>  <minimizedAffinity>
-5.02280998

$$$$

 OpenBabel03252505233D

 34 37  0  0  1  0  0  0  0  0999 V2000
   40.0990   30.0200   40.6750 F   0  0  0  0  0  0  0  0  0  0  0  0
   39.1010   30.8850   40.3970 C   0  0  0  0  0  0  0  0  0  0  0  0
   37.8350   30.5960   40.8340 C   0  0  0  0  0  0  0  0  0  0  0  0
   36.8310   31.4880   40.5480 C   0  0  0  0  0  0  0  0  0  0  0  0
   37.1240   32.6310   39.8370 C   0  0  0  0  0  0  0  0  0  0  0  0
   38.3880   32.9290   39.3950 C   0  0  0  0  0  0  0  0  0  0  0  0
   39.4060   32.0080   39.6950 C   0  0  0  0  0  0  0  0  0  0  0  0
   35.8500   31.2190   40.9130 H   0  0  0  0  0  0  0  0  0  0  0  0
   36.2640   33.2830   39.6560 H   0  0  0  0  0  0  0  0  0  0  0  0
   38.5090   33.8440   38.8510 H   0  0  0  0  0  0  0  0  0  0  0  0
   40.7030   32.3710   39.2230 N   0  0  0  0  0  0  0  0  0  0  0  0
   41.4870   31.7930   38.1450 C   0  0  0  0  0  0  0  0  0  0  0  0
   41.9630   33.0290   37.4000 C   0  0  0  0  0  0  0  0  0  0  0  0
   41.8190   34.1610   38.3900 C   0  0  0  0  0  0  0  0  0  0  0  0
   41.5750   33.4360   39.6810 C   0  0  2  0  0  0  0  0  0  0  0  0
   42.3210   31.2220   38.5750 H   0  0  0  0  0  0  0  0  0  0  0  0
   40.8620   31.1450   37.4890 H   0  0  0  0  0  0  0  0  0  0  0  0
   41.3540   33.1840   36.4790 H   0  0  0  0  0  0  0  0  0  0  0  0
   43.0430   32.8530   37.1440 H   0  0  0  0  0  0  0  0  0  0  0  0
   40.9080   34.7270   38.1060 H   0  0  0  0  0  0  0  0  0  0  0  0
   42.7320   34.7950   38.3980 H   0  0  0  0  0  0  0  0  0  0  0  0
   40.9630   34.1240   40.3170 H   0  0  0  0  0  0  0  0  0  0  0  0
   42.8420   33.0190   40.3230 C   0  0  0  0  0  3  0  0  0  0  0  0
   43.0170   33.6480   41.7420 C   0  0  0  0  0  2  0  0  0  0  0  0
   42.8750   32.1720   41.5420 C   0  0  0  0  0  2  0  0  0  0  0  0
   36.9910   27.1080   41.5990 C   0  0  0  0  0  0  0  0  0  0  0  0
   37.1290   27.0700   43.0200 C   0  0  0  0  0  0  0  0  0  0  0  0
   37.5110   28.2600   43.6650 C   0  0  0  0  0  0  0  0  0  0  0  0
   37.7280   29.3740   42.9100 N   0  0  0  0  0  0  0  0  0  0  0  0
   37.5880   29.3700   41.5810 C   0  0  0  0  0  0  0  0  0  0  0  0
   37.2220   28.2440   40.9190 N   0  0  0  0  0  0  0  0  0  0  0  0
   36.7030   26.2510   41.0060 H   0  0  0  0  0  0  0  0  0  0  0  0
   36.9340   26.1420   43.5030 H   0  0  0  0  0  0  0  0  0  0  0  0
   37.6150   28.2350   44.7270 H   0  0  0  0  0  0  0  0  0  0  0  0
  2  1  1  0  0  0  0
  2  3  1  0  0  0  0
  3 30  1  0  0  0  0
  4  3  2  0  0  0  0
  4  8  1  0  0  0  0
  5  4  1  0  0  0  0
  6  7  1  0  0  0  0
  6  5  2  0  0  0  0
  7  2  2  0  0  0  0
  9  5  1  0  0  0  0
 10  6  1  0  0  0  0
 11 15  1  0  0  0  0
 11  7  1  0  0  0  0
 12 16  1  0  0  0  0
 12 11  1  0  0  0  0
 13 12  1  0  0  0  0
 13 14  1  0  0  0  0
 14 21  1  0  0  0  0
 14 15  1  0  0  0  0
 15 22  1  1  0  0  0
 15 23  1  0  0  0  0
 17 12  1  0  0  0  0
 18 13  1  0  0  0  0
 19 13  1  0  0  0  0
 20 14  1  0  0  0  0
 23 25  1  0  0  0  0
 23 24  1  0  0  0  0
 25 24  1  0  0  0  0
 26 27  1  0  0  0  0
 27 33  1  0  0  0  0
 27 28  2  0  0  0  0
 28 34  1  0  0  0  0
 29 28  1  0  0  0  0
 30 29  2  0  0  0  0
 31 30  1  0  0  0  0
 31 26  2  0  0  0  0
 32 26  1  0  0  0  0
M  END
>  <minimizedAffinity>
-4.99950647

$$$$

 OpenBabel03252505233D

 34 37  0  0  1  0  0  0  0  0999 V2000
   36.5030   27.8910   39.4790 F   0  0  0  0  0  0  0  0  0  0  0  0
   36.8440   29.1860   39.6400 C   0  0  0  0  0  0  0  0  0  0  0  0
   36.6180   30.0630   38.6120 C   0  0  0  0  0  0  0  0  0  0  0  0
   36.9670   31.3790   38.7940 C   0  0  0  0  0  0  0  0  0  0  0  0
   37.5280   31.7710   39.9890 C   0  0  0  0  0  0  0  0  0  0  0  0
   37.7590   30.9010   41.0240 C   0  0  0  0  0  0  0  0  0  0  0  0
   37.3970   29.5580   40.8250 C   0  0  0  0  0  0  0  0  0  0  0  0
   36.7700   32.0330   37.9560 H   0  0  0  0  0  0  0  0  0  0  0  0
   37.7730   32.8360   40.0440 H   0  0  0  0  0  0  0  0  0  0  0  0
   38.1990   31.3090   41.9120 H   0  0  0  0  0  0  0  0  0  0  0  0
   37.6470   28.6970   41.9360 N   0  0  0  0  0  0  0  0  0  0  0  0
   37.1080   28.7480   43.2830 C   0  0  0  0  0  0  0  0  0  0  0  0
   36.7170   27.3000   43.5250 C   0  0  0  0  0  0  0  0  0  0  0  0
   37.5100   26.5080   42.5120 C   0  0  0  0  0  0  0  0  0  0  0  0
   38.4930   27.5200   42.0040 C   0  0  2  0  0  0  0  0  0  0  0  0
   37.8940   29.0860   43.9720 H   0  0  0  0  0  0  0  0  0  0  0  0
   36.2200   29.4180   43.3410 H   0  0  0  0  0  0  0  0  0  0  0  0
   35.6170   27.1700   43.4050 H   0  0  0  0  0  0  0  0  0  0  0  0
   37.0400   27.0510   44.5730 H   0  0  0  0  0  0  0  0  0  0  0  0
   36.8100   26.2310   41.6960 H   0  0  0  0  0  0  0  0  0  0  0  0
   37.9840   25.6230   42.9880 H   0  0  0  0  0  0  0  0  0  0  0  0
   38.7400   27.2200   40.9550 H   0  0  0  0  0  0  0  0  0  0  0  0
   39.6840   27.6160   42.8790 C   0  0  0  0  0  3  0  0  0  0  0  0
   41.0100   27.3430   42.1000 C   0  0  0  0  0  2  0  0  0  0  0  0
   40.7110   28.6740   42.7130 C   0  0  0  0  0  2  0  0  0  0  0  0
   34.1490   28.8090   36.2060 C   0  0  0  0  0  0  0  0  0  0  0  0
   34.9240   28.6930   35.0120 C   0  0  0  0  0  0  0  0  0  0  0  0
   36.2810   29.0550   35.0850 C   0  0  0  0  0  0  0  0  0  0  0  0
   36.7800   29.4920   36.2750 N   0  0  0  0  0  0  0  0  0  0  0  0
   36.0220   29.5870   37.3710 C   0  0  0  0  0  0  0  0  0  0  0  0
   34.7080   29.2490   37.3450 N   0  0  0  0  0  0  0  0  0  0  0  0
   33.0980   28.5580   36.2590 H   0  0  0  0  0  0  0  0  0  0  0  0
   34.4260   28.3390   34.1400 H   0  0  0  0  0  0  0  0  0  0  0  0
   36.8640   28.9690   34.1940 H   0  0  0  0  0  0  0  0  0  0  0  0
  1  2  1  0  0  0  0
  2  7  1  0  0  0  0
  3  4  1  0  0  0  0
  3  2  2  0  0  0  0
  4  5  2  0  0  0  0
  5  9  1  0  0  0  0
  5  6  1  0  0  0  0
  6 10  1  0  0  0  0
  7  6  2  0  0  0  0
  7 11  1  0  0  0  0
  8  4  1  0  0  0  0
 11 15  1  0  0  0  0
 11 12  1  0  0  0  0
 12 17  1  0  0  0  0
 12 13  1  0  0  0  0
 12 16  1  0  0  0  0
 13 19  1  0  0  0  0
 14 21  1  0  0  0  0
 14 13  1  0  0  0  0
 15 22  1  6  0  0  0
 15 14  1  0  0  0  0
 15 23  1  0  0  0  0
 18 13  1  0  0  0  0
 20 14  1  0  0  0  0
 24 25  1  0  0  0  0
 24 23  1  0  0  0  0
 25 23  1  0  0  0  0
 26 32  1  0  0  0  0
 26 31  1  0  0  0  0
 27 28  1  0  0  0  0
 27 26  2  0  0  0  0
 28 29  2  0  0  0  0
 29 30  1  0  0  0  0
 30  3  1  0  0  0  0
 31 30  2  0  0  0  0
 33 27  1  0  0  0  0
 34 28  1  0  0  0  0
M  END
>  <minimizedAffinity>
-4.99648619

$$$$
