
 OpenBabel03242520043D

 33 36  0  0  1  0  0  0  0  0999 V2000
   36.5600   31.9370   40.6810 N   0  0  0  0  0  0  0  0  0  0  0  0
   36.1730   30.6190   41.0340 C   0  0  1  0  0  0  0  0  0  0  0  0
   35.7760   29.8820   39.7840 C   0  0  0  0  0  0  0  0  0  0  0  0
   36.9990   29.7760   38.9980 N   0  0  0  0  0  0  0  0  0  0  0  0
   37.4380   31.0650   38.5320 C   0  0  0  0  0  0  0  0  0  0  0  0
   37.3450   32.1650   39.5430 C   0  0  2  0  0  0  0  0  0  0  0  0
   36.9510   32.4720   41.4840 H   0  0  0  0  0  0  0  0  0  0  0  0
   35.2920   30.6730   41.6910 H   0  0  0  0  0  0  0  0  0  0  0  0
   35.4540   28.8640   40.0490 H   0  0  0  0  0  0  0  0  0  0  0  0
   34.9630   30.3900   39.2270 H   0  0  0  0  0  0  0  0  0  0  0  0
   36.8660   29.1680   38.1760 H   0  0  0  0  0  0  0  0  0  0  0  0
   36.8370   31.2810   37.6070 H   0  0  0  0  0  0  0  0  0  0  0  0
   38.4790   30.9190   38.1350 H   0  0  0  0  0  0  0  0  0  0  0  0
   36.8850   33.0430   39.0130 H   0  0  0  0  0  0  0  0  0  0  0  0
   38.3470   28.1240   42.3080 C   0  0  0  0  0  0  0  0  0  0  0  0
   38.9990   29.2590   42.7640 C   0  0  0  0  0  0  0  0  0  0  0  0
   38.2860   30.3370   42.3560 C   0  0  0  0  0  0  0  0  0  0  0  0
   37.2180   29.8690   41.6650 N   0  0  0  0  0  0  0  0  0  0  0  0
   37.2790   28.5460   41.6500 N   0  0  0  0  0  0  0  0  0  0  0  0
   39.9210   29.2060   43.3450 H   0  0  0  0  0  0  0  0  0  0  0  0
   38.5350   31.3710   42.5550 H   0  0  0  0  0  0  0  0  0  0  0  0
   38.4280   24.4450   42.3210 C   0  0  0  0  0  0  0  0  0  0  0  0
   39.6410   24.1610   42.9630 C   0  0  0  0  0  0  0  0  0  0  0  0
   40.4130   25.2420   43.3820 C   0  0  0  0  0  0  0  0  0  0  0  0
   39.9490   26.5010   43.1450 N   0  0  0  0  0  0  0  0  0  0  0  0
   38.7790   26.7370   42.5260 C   0  0  0  0  0  0  0  0  0  0  0  0
   38.0030   25.7130   42.1050 N   0  0  0  0  0  0  0  0  0  0  0  0
   37.7830   23.6280   41.9710 H   0  0  0  0  0  0  0  0  0  0  0  0
   39.9610   23.1400   43.1250 H   0  0  0  0  0  0  0  0  0  0  0  0
   41.3670   25.0830   43.8870 H   0  0  0  0  0  0  0  0  0  0  0  0
   38.7680   32.6270   39.8280 C   0  0  0  0  0  3  0  0  0  0  0  0
   38.9300   34.1420   39.7080 C   0  0  0  0  0  2  0  0  0  0  0  0
   39.1010   33.4320   41.0140 C   0  0  0  0  0  2  0  0  0  0  0  0
  1  2  1  0  0  0  0
  1  7  1  0  0  0  0
  2 18  1  0  0  0  0
  2  8  1  1  0  0  0
  3  9  1  0  0  0  0
  3  2  1  0  0  0  0
  4  3  1  0  0  0  0
  5  4  1  0  0  0  0
  5  6  1  0  0  0  0
  6 14  1  6  0  0  0
  6 31  1  0  0  0  0
  6  1  1  0  0  0  0
 10  3  1  0  0  0  0
 11  4  1  0  0  0  0
 12  5  1  0  0  0  0
 13  5  1  0  0  0  0
 15 26  1  0  0  0  0
 15 16  1  0  0  0  0
 16 20  1  0  0  0  0
 17 21  1  0  0  0  0
 17 16  2  0  0  0  0
 18 17  1  0  0  0  0
 19 18  1  0  0  0  0
 19 15  2  0  0  0  0
 22 23  1  0  0  0  0
 23 29  1  0  0  0  0
 23 24  2  0  0  0  0
 24 30  1  0  0  0  0
 25 24  1  0  0  0  0
 26 25  2  0  0  0  0
 27 22  2  0  0  0  0
 27 26  1  0  0  0  0
 28 22  1  0  0  0  0
 31 33  1  0  0  0  0
 32 31  1  0  0  0  0
 32 33  1  0  0  0  0
M  END
>  <minimizedAffinity>
-5.18435621

$$$$

 OpenBabel03242520043D

 33 36  0  0  1  0  0  0  0  0999 V2000
   39.2600   32.2490   38.4970 N   0  0  0  0  0  0  0  0  0  0  0  0
   39.7070   32.6970   39.7660 C   0  0  1  0  0  0  0  0  0  0  0  0
   38.8760   33.8820   40.1780 C   0  0  0  0  0  0  0  0  0  0  0  0
   37.5270   33.3590   40.3570 N   0  0  0  0  0  0  0  0  0  0  0  0
   36.9560   32.9380   39.1040 C   0  0  0  0  0  0  0  0  0  0  0  0
   37.8900   32.1850   38.2080 C   0  0  2  0  0  0  0  0  0  0  0  0
   39.7180   31.3640   38.1960 H   0  0  0  0  0  0  0  0  0  0  0  0
   40.7520   33.0290   39.6760 H   0  0  0  0  0  0  0  0  0  0  0  0
   39.2280   34.2500   41.1540 H   0  0  0  0  0  0  0  0  0  0  0  0
   38.9110   34.7080   39.4400 H   0  0  0  0  0  0  0  0  0  0  0  0
   36.9010   34.0660   40.7700 H   0  0  0  0  0  0  0  0  0  0  0  0
   36.5550   33.8690   38.6190 H   0  0  0  0  0  0  0  0  0  0  0  0
   36.0270   32.3590   39.3580 H   0  0  0  0  0  0  0  0  0  0  0  0
   37.7620   32.6210   37.1800 H   0  0  0  0  0  0  0  0  0  0  0  0
   38.9220   29.8780   41.7680 C   0  0  0  0  0  0  0  0  0  0  0  0
   39.7650   30.5540   42.6360 C   0  0  0  0  0  0  0  0  0  0  0  0
   40.1710   31.6900   42.0160 C   0  0  0  0  0  0  0  0  0  0  0  0
   39.5870   31.7050   40.7930 N   0  0  0  0  0  0  0  0  0  0  0  0
   38.8470   30.6130   40.6700 N   0  0  0  0  0  0  0  0  0  0  0  0
   40.0070   30.1720   43.6280 H   0  0  0  0  0  0  0  0  0  0  0  0
   40.8360   32.4340   42.4330 H   0  0  0  0  0  0  0  0  0  0  0  0
   36.6900   27.3290   43.2050 C   0  0  0  0  0  0  0  0  0  0  0  0
   37.0440   26.1700   42.5020 C   0  0  0  0  0  0  0  0  0  0  0  0
   38.0490   26.2840   41.5430 C   0  0  0  0  0  0  0  0  0  0  0  0
   38.6210   27.5040   41.3460 N   0  0  0  0  0  0  0  0  0  0  0  0
   38.2550   28.5970   42.0390 C   0  0  0  0  0  0  0  0  0  0  0  0
   37.2850   28.5240   42.9770 N   0  0  0  0  0  0  0  0  0  0  0  0
   35.9040   27.2930   43.9710 H   0  0  0  0  0  0  0  0  0  0  0  0
   36.5550   25.2260   42.7010 H   0  0  0  0  0  0  0  0  0  0  0  0
   38.3670   25.4150   40.9650 H   0  0  0  0  0  0  0  0  0  0  0  0
   37.3300   30.7750   38.0690 C   0  0  0  0  0  3  0  0  0  0  0  0
   37.0150   30.4090   36.6190 C   0  0  0  0  0  2  0  0  0  0  0  0
   38.0820   29.7040   37.3970 C   0  0  0  0  0  2  0  0  0  0  0  0
  1  2  1  0  0  0  0
  2  8  1  6  0  0  0
  2  3  1  0  0  0  0
  2 18  1  0  0  0  0
  3  4  1  0  0  0  0
  3  9  1  0  0  0  0
  4 11  1  0  0  0  0
  5 13  1  0  0  0  0
  5  4  1  0  0  0  0
  6 14  1  6  0  0  0
  6  1  1  0  0  0  0
  6  5  1  0  0  0  0
  7  1  1  0  0  0  0
 10  3  1  0  0  0  0
 12  5  1  0  0  0  0
 15 26  1  0  0  0  0
 15 16  1  0  0  0  0
 16 20  1  0  0  0  0
 17 21  1  0  0  0  0
 17 16  2  0  0  0  0
 18 17  1  0  0  0  0
 19 18  1  0  0  0  0
 19 15  2  0  0  0  0
 22 28  1  0  0  0  0
 23 29  1  0  0  0  0
 23 22  2  0  0  0  0
 24 23  1  0  0  0  0
 25 24  2  0  0  0  0
 25 26  1  0  0  0  0
 26 27  2  0  0  0  0
 27 22  1  0  0  0  0
 30 24  1  0  0  0  0
 31  6  1  0  0  0  0
 32 33  1  0  0  0  0
 32 31  1  0  0  0  0
 33 31  1  0  0  0  0
M  END
>  <minimizedAffinity>
-5.13536501

$$$$

 OpenBabel03242520043D

 33 36  0  0  1  0  0  0  0  0999 V2000
   36.9370   26.0390   42.5530 N   0  0  0  0  0  0  0  0  0  0  0  0
   37.0790   27.3570   43.0570 C   0  0  1  0  0  0  0  0  0  0  0  0
   38.4420   27.4910   43.6790 C   0  0  0  0  0  0  0  0  0  0  0  0
   39.3820   27.3490   42.5750 N   0  0  0  0  0  0  0  0  0  0  0  0
   39.3620   26.0140   42.0350 C   0  0  0  0  0  0  0  0  0  0  0  0
   37.9970   25.4190   41.8790 C   0  0  2  0  0  0  0  0  0  0  0  0
   36.0580   25.9060   42.0120 H   0  0  0  0  0  0  0  0  0  0  0  0
   36.3280   27.5170   43.8450 H   0  0  0  0  0  0  0  0  0  0  0  0
   38.5550   28.5040   44.0920 H   0  0  0  0  0  0  0  0  0  0  0  0
   38.6220   26.7470   44.4810 H   0  0  0  0  0  0  0  0  0  0  0  0
   40.3470   27.5570   42.8720 H   0  0  0  0  0  0  0  0  0  0  0  0
   40.0230   25.4000   42.7060 H   0  0  0  0  0  0  0  0  0  0  0  0
   39.9380   26.0540   41.0710 H   0  0  0  0  0  0  0  0  0  0  0  0
   38.0610   24.3720   42.2840 H   0  0  0  0  0  0  0  0  0  0  0  0
   37.3050   30.2660   41.0410 C   0  0  0  0  0  0  0  0  0  0  0  0
   36.4350   29.5110   40.2680 C   0  0  0  0  0  0  0  0  0  0  0  0
   36.2320   28.3320   40.9070 C   0  0  0  0  0  0  0  0  0  0  0  0
   36.9630   28.3670   42.0470 N   0  0  0  0  0  0  0  0  0  0  0  0
   37.5940   29.5310   42.1030 N   0  0  0  0  0  0  0  0  0  0  0  0
   36.0310   29.8760   39.3230 H   0  0  0  0  0  0  0  0  0  0  0  0
   35.6010   27.5260   40.5580 H   0  0  0  0  0  0  0  0  0  0  0  0
   39.4290   33.2640   40.8460 C   0  0  0  0  0  0  0  0  0  0  0  0
   38.6520   34.1490   40.0870 C   0  0  0  0  0  0  0  0  0  0  0  0
   37.4060   33.7000   39.6540 C   0  0  0  0  0  0  0  0  0  0  0  0
   37.0200   32.4370   39.9900 N   0  0  0  0  0  0  0  0  0  0  0  0
   37.7930   31.6140   40.7210 C   0  0  0  0  0  0  0  0  0  0  0  0
   39.0070   32.0150   41.1580 N   0  0  0  0  0  0  0  0  0  0  0  0
   40.4180   33.5700   41.2110 H   0  0  0  0  0  0  0  0  0  0  0  0
   39.0090   35.1430   39.8500 H   0  0  0  0  0  0  0  0  0  0  0  0
   36.7570   34.3450   39.0610 H   0  0  0  0  0  0  0  0  0  0  0  0
   37.7740   25.2110   40.3860 C   0  0  0  0  0  3  0  0  0  0  0  0
   37.5340   23.7450   40.0270 C   0  0  0  0  0  2  0  0  0  0  0  0
   36.4720   24.7840   39.8480 C   0  0  0  0  0  2  0  0  0  0  0  0
  1  2  1  0  0  0  0
  2  3  1  0  0  0  0
  2  8  1  1  0  0  0
  3  9  1  0  0  0  0
  3 10  1  0  0  0  0
  4 11  1  0  0  0  0
  4  3  1  0  0  0  0
  5  4  1  0  0  0  0
  5 12  1  0  0  0  0
  6  5  1  0  0  0  0
  6 14  1  1  0  0  0
  6  1  1  0  0  0  0
  7  1  1  0  0  0  0
 13  5  1  0  0  0  0
 15 19  2  0  0  0  0
 16 17  2  0  0  0  0
 16 15  1  0  0  0  0
 17 18  1  0  0  0  0
 18 19  1  0  0  0  0
 18  2  1  0  0  0  0
 20 16  1  0  0  0  0
 21 17  1  0  0  0  0
 22 27  1  0  0  0  0
 22 28  1  0  0  0  0
 23 22  2  0  0  0  0
 24 25  2  0  0  0  0
 24 23  1  0  0  0  0
 25 26  1  0  0  0  0
 26 15  1  0  0  0  0
 26 27  2  0  0  0  0
 29 23  1  0  0  0  0
 30 24  1  0  0  0  0
 31  6  1  0  0  0  0
 32 31  1  0  0  0  0
 33 32  1  0  0  0  0
 33 31  1  0  0  0  0
M  END
>  <minimizedAffinity>
-5.02961779

$$$$

 OpenBabel03242520043D

 33 36  0  0  1  0  0  0  0  0999 V2000
   36.8090   29.1700   42.8340 N   0  0  0  0  0  0  0  0  0  0  0  0
   38.0640   28.9610   43.4600 C   0  0  1  0  0  0  0  0  0  0  0  0
   38.2530   27.4850   43.6790 C   0  0  0  0  0  0  0  0  0  0  0  0
   38.3370   26.9080   42.3430 N   0  0  0  0  0  0  0  0  0  0  0  0
   37.0820   27.0110   41.6460 C   0  0  0  0  0  0  0  0  0  0  0  0
   36.3810   28.3240   41.8030 C   0  0  2  0  0  0  0  0  0  0  0  0
   36.6580   30.1610   42.5540 H   0  0  0  0  0  0  0  0  0  0  0  0
   38.0540   29.4520   44.4450 H   0  0  0  0  0  0  0  0  0  0  0  0
   39.2160   27.3120   44.1830 H   0  0  0  0  0  0  0  0  0  0  0  0
   37.4390   27.0330   44.2800 H   0  0  0  0  0  0  0  0  0  0  0  0
   38.6000   25.9120   42.3780 H   0  0  0  0  0  0  0  0  0  0  0  0
   36.4580   26.1470   42.0040 H   0  0  0  0  0  0  0  0  0  0  0  0
   37.2930   26.7500   40.5730 H   0  0  0  0  0  0  0  0  0  0  0  0
   35.3040   28.0830   42.0180 H   0  0  0  0  0  0  0  0  0  0  0  0
   40.2700   30.6730   41.2740 C   0  0  0  0  0  0  0  0  0  0  0  0
   41.1300   29.7010   41.7610 C   0  0  0  0  0  0  0  0  0  0  0  0
   40.4330   28.9340   42.6360 C   0  0  0  0  0  0  0  0  0  0  0  0
   39.1720   29.4290   42.6820 N   0  0  0  0  0  0  0  0  0  0  0  0
   39.1010   30.4670   41.8600 N   0  0  0  0  0  0  0  0  0  0  0  0
   42.1710   29.6330   41.4430 H   0  0  0  0  0  0  0  0  0  0  0  0
   40.8250   28.0880   43.1850 H   0  0  0  0  0  0  0  0  0  0  0  0
   40.8600   33.9590   39.7260 C   0  0  0  0  0  0  0  0  0  0  0  0
   41.2720   33.6250   38.4290 C   0  0  0  0  0  0  0  0  0  0  0  0
   41.3390   32.2710   38.1070 C   0  0  0  0  0  0  0  0  0  0  0  0
   41.0050   31.3590   39.0620 N   0  0  0  0  0  0  0  0  0  0  0  0
   40.6140   31.7170   40.2990 C   0  0  0  0  0  0  0  0  0  0  0  0
   40.5360   33.0200   40.6470 N   0  0  0  0  0  0  0  0  0  0  0  0
   40.7900   35.0120   40.0300 H   0  0  0  0  0  0  0  0  0  0  0  0
   41.5250   34.3910   37.7090 H   0  0  0  0  0  0  0  0  0  0  0  0
   41.6530   31.9500   37.1120 H   0  0  0  0  0  0  0  0  0  0  0  0
   36.3330   28.9680   40.4230 C   0  0  0  0  0  3  0  0  0  0  0  0
   34.9050   29.2410   39.9510 C   0  0  0  0  0  2  0  0  0  0  0  0
   35.8690   30.3510   40.2270 C   0  0  0  0  0  2  0  0  0  0  0  0
  1  2  1  0  0  0  0
  2  3  1  0  0  0  0
  2  8  1  1  0  0  0
  3  9  1  0  0  0  0
  3 10  1  0  0  0  0
  4 11  1  0  0  0  0
  4  3  1  0  0  0  0
  5  6  1  0  0  0  0
  5 12  1  0  0  0  0
  5  4  1  0  0  0  0
  6 14  1  1  0  0  0
  6  1  1  0  0  0  0
  7  1  1  0  0  0  0
 13  5  1  0  0  0  0
 15 16  1  0  0  0  0
 15 19  2  0  0  0  0
 16 17  2  0  0  0  0
 17 18  1  0  0  0  0
 17 21  1  0  0  0  0
 18  2  1  0  0  0  0
 19 18  1  0  0  0  0
 20 16  1  0  0  0  0
 22 28  1  0  0  0  0
 22 27  1  0  0  0  0
 23 22  2  0  0  0  0
 24 23  1  0  0  0  0
 24 25  2  0  0  0  0
 25 26  1  0  0  0  0
 26 27  2  0  0  0  0
 26 15  1  0  0  0  0
 29 23  1  0  0  0  0
 30 24  1  0  0  0  0
 31  6  1  0  0  0  0
 32 33  1  0  0  0  0
 32 31  1  0  0  0  0
 33 31  1  0  0  0  0
M  END
>  <minimizedAffinity>
-5.01097965

$$$$

 OpenBabel03242520043D

 33 36  0  0  1  0  0  0  0  0999 V2000
   36.7320   30.2200   42.1960 N   0  0  0  0  0  0  0  0  0  0  0  0
   36.3860   30.9150   41.0100 C   0  0  1  0  0  0  0  0  0  0  0  0
   37.6150   31.5980   40.4750 C   0  0  0  0  0  0  0  0  0  0  0  0
   38.5170   30.5190   40.0940 N   0  0  0  0  0  0  0  0  0  0  0  0
   38.9820   29.7910   41.2460 C   0  0  0  0  0  0  0  0  0  0  0  0
   37.9320   29.5010   42.2730 C   0  0  2  0  0  0  0  0  0  0  0  0
   35.9540   29.6340   42.5630 H   0  0  0  0  0  0  0  0  0  0  0  0
   35.6450   31.6900   41.2580 H   0  0  0  0  0  0  0  0  0  0  0  0
   37.3520   32.1570   39.5650 H   0  0  0  0  0  0  0  0  0  0  0  0
   38.0740   32.2890   41.2100 H   0  0  0  0  0  0  0  0  0  0  0  0
   39.3410   30.8780   39.5910 H   0  0  0  0  0  0  0  0  0  0  0  0
   39.8370   30.3880   41.6640 H   0  0  0  0  0  0  0  0  0  0  0  0
   39.4820   28.8640   40.8530 H   0  0  0  0  0  0  0  0  0  0  0  0
   38.3880   29.7510   43.2700 H   0  0  0  0  0  0  0  0  0  0  0  0
   35.5890   29.2740   37.9690 C   0  0  0  0  0  0  0  0  0  0  0  0
   34.8480   28.5030   38.8520 C   0  0  0  0  0  0  0  0  0  0  0  0
   35.0400   29.0040   40.0970 C   0  0  0  0  0  0  0  0  0  0  0  0
   35.8820   30.0590   39.9760 N   0  0  0  0  0  0  0  0  0  0  0  0
   36.1950   30.1980   38.6960 N   0  0  0  0  0  0  0  0  0  0  0  0
   34.2420   27.6590   38.5210 H   0  0  0  0  0  0  0  0  0  0  0  0
   34.5970   28.6210   41.0070 H   0  0  0  0  0  0  0  0  0  0  0  0
   36.5960   29.5970   34.4440 C   0  0  0  0  0  0  0  0  0  0  0  0
   35.7700   28.6700   33.7960 C   0  0  0  0  0  0  0  0  0  0  0  0
   34.8770   27.9470   34.5840 C   0  0  0  0  0  0  0  0  0  0  0  0
   34.8600   28.1800   35.9250 N   0  0  0  0  0  0  0  0  0  0  0  0
   35.6690   29.0790   36.5150 C   0  0  0  0  0  0  0  0  0  0  0  0
   36.5470   29.7990   35.7830 N   0  0  0  0  0  0  0  0  0  0  0  0
   37.3180   30.1930   33.8690 H   0  0  0  0  0  0  0  0  0  0  0  0
   35.8260   28.5250   32.7250 H   0  0  0  0  0  0  0  0  0  0  0  0
   34.2080   27.2110   34.1340 H   0  0  0  0  0  0  0  0  0  0  0  0
   37.7700   27.9870   42.3260 C   0  0  0  0  0  3  0  0  0  0  0  0
   38.1680   27.4000   43.6800 C   0  0  0  0  0  2  0  0  0  0  0  0
   36.7590   27.3430   43.1790 C   0  0  0  0  0  2  0  0  0  0  0  0
  1  6  1  0  0  0  0
  1  7  1  0  0  0  0
  2  8  1  1  0  0  0
  2  1  1  0  0  0  0
  3  2  1  0  0  0  0
  3 10  1  0  0  0  0
  4  3  1  0  0  0  0
  4  5  1  0  0  0  0
  5 12  1  0  0  0  0
  5  6  1  0  0  0  0
  6 31  1  0  0  0  0
  6 14  1  1  0  0  0
  9  3  1  0  0  0  0
 11  4  1  0  0  0  0
 13  5  1  0  0  0  0
 15 19  2  0  0  0  0
 15 16  1  0  0  0  0
 16 17  2  0  0  0  0
 17 21  1  0  0  0  0
 18 17  1  0  0  0  0
 18  2  1  0  0  0  0
 19 18  1  0  0  0  0
 20 16  1  0  0  0  0
 22 27  1  0  0  0  0
 23 22  2  0  0  0  0
 23 24  1  0  0  0  0
 24 25  2  0  0  0  0
 25 26  1  0  0  0  0
 26 15  1  0  0  0  0
 27 26  2  0  0  0  0
 28 22  1  0  0  0  0
 29 23  1  0  0  0  0
 30 24  1  0  0  0  0
 31 33  1  0  0  0  0
 31 32  1  0  0  0  0
 33 32  1  0  0  0  0
M  END
>  <minimizedAffinity>
-4.96373463

$$$$

 OpenBabel03242520043D

 33 36  0  0  1  0  0  0  0  0999 V2000
   39.4480   25.9470   43.4600 N   0  0  0  0  0  0  0  0  0  0  0  0
   40.0280   27.2320   43.6100 C   0  0  1  0  0  0  0  0  0  0  0  0
   41.3770   27.2320   42.9430 C   0  0  0  0  0  0  0  0  0  0  0  0
   41.1020   27.0470   41.5240 N   0  0  0  0  0  0  0  0  0  0  0  0
   40.5690   25.7360   41.2590 C   0  0  0  0  0  0  0  0  0  0  0  0
   39.5450   25.2620   42.2420 C   0  0  2  0  0  0  0  0  0  0  0  0
   38.4660   25.9050   43.8030 H   0  0  0  0  0  0  0  0  0  0  0  0
   40.1780   27.4300   44.6820 H   0  0  0  0  0  0  0  0  0  0  0  0
   41.8450   28.2200   43.0710 H   0  0  0  0  0  0  0  0  0  0  0  0
   42.0530   26.4510   43.3450 H   0  0  0  0  0  0  0  0  0  0  0  0
   41.9550   27.1640   40.9570 H   0  0  0  0  0  0  0  0  0  0  0  0
   41.4570   25.0480   41.1990 H   0  0  0  0  0  0  0  0  0  0  0  0
   40.1890   25.7570   40.2010 H   0  0  0  0  0  0  0  0  0  0  0  0
   39.8180   24.2010   42.4960 H   0  0  0  0  0  0  0  0  0  0  0  0
   38.8360   30.1510   41.9860 C   0  0  0  0  0  0  0  0  0  0  0  0
   37.6290   29.5340   42.2760 C   0  0  0  0  0  0  0  0  0  0  0  0
   37.9030   28.3700   42.9160 C   0  0  0  0  0  0  0  0  0  0  0  0
   39.2520   28.2790   43.0150 N   0  0  0  0  0  0  0  0  0  0  0  0
   39.7840   29.3540   42.4520 N   0  0  0  0  0  0  0  0  0  0  0  0
   36.6690   29.9750   42.0030 H   0  0  0  0  0  0  0  0  0  0  0  0
   37.1710   27.6590   43.2750 H   0  0  0  0  0  0  0  0  0  0  0  0
   40.3500   33.1710   40.5270 C   0  0  0  0  0  0  0  0  0  0  0  0
   39.2460   33.8470   39.9930 C   0  0  0  0  0  0  0  0  0  0  0  0
   37.9950   33.2540   40.1440 C   0  0  0  0  0  0  0  0  0  0  0  0
   37.9190   32.0600   40.7960 N   0  0  0  0  0  0  0  0  0  0  0  0
   39.0010   31.4370   41.2960 C   0  0  0  0  0  0  0  0  0  0  0  0
   40.2300   31.9830   41.1680 N   0  0  0  0  0  0  0  0  0  0  0  0
   41.3580   33.5960   40.4340 H   0  0  0  0  0  0  0  0  0  0  0  0
   39.3650   34.7950   39.4840 H   0  0  0  0  0  0  0  0  0  0  0  0
   37.0990   33.7350   39.7490 H   0  0  0  0  0  0  0  0  0  0  0  0
   38.2330   25.1190   41.4800 C   0  0  0  0  0  3  0  0  0  0  0  0
   37.7390   23.6740   41.4270 C   0  0  0  0  0  2  0  0  0  0  0  0
   36.9810   24.7390   42.1540 C   0  0  0  0  0  2  0  0  0  0  0  0
  1  2  1  0  0  0  0
  1  7  1  0  0  0  0
  2  8  1  1  0  0  0
  3  9  1  0  0  0  0
  3 10  1  0  0  0  0
  3  2  1  0  0  0  0
  4  3  1  0  0  0  0
  5  4  1  0  0  0  0
  5  6  1  0  0  0  0
  6 14  1  1  0  0  0
  6  1  1  0  0  0  0
 11  4  1  0  0  0  0
 12  5  1  0  0  0  0
 13  5  1  0  0  0  0
 15 16  1  0  0  0  0
 15 19  2  0  0  0  0
 16 17  2  0  0  0  0
 17 18  1  0  0  0  0
 17 21  1  0  0  0  0
 18  2  1  0  0  0  0
 19 18  1  0  0  0  0
 20 16  1  0  0  0  0
 22 27  1  0  0  0  0
 23 24  1  0  0  0  0
 23 22  2  0  0  0  0
 24 25  2  0  0  0  0
 25 26  1  0  0  0  0
 26 15  1  0  0  0  0
 27 26  2  0  0  0  0
 28 22  1  0  0  0  0
 29 23  1  0  0  0  0
 30 24  1  0  0  0  0
 31 33  1  0  0  0  0
 31  6  1  0  0  0  0
 32 31  1  0  0  0  0
 32 33  1  0  0  0  0
M  END
>  <minimizedAffinity>
-4.86920786

$$$$

 OpenBabel03242520043D

 33 36  0  0  1  0  0  0  0  0999 V2000
   39.1630   31.1570   38.9560 N   0  0  0  0  0  0  0  0  0  0  0  0
   39.4080   31.2790   40.3480 C   0  0  1  0  0  0  0  0  0  0  0  0
   38.7390   32.5310   40.8470 C   0  0  0  0  0  0  0  0  0  0  0  0
   37.3110   32.2940   40.6800 N   0  0  0  0  0  0  0  0  0  0  0  0
   36.9490   32.2230   39.2880 C   0  0  0  0  0  0  0  0  0  0  0  0
   37.8970   31.4440   38.4310 C   0  0  2  0  0  0  0  0  0  0  0  0
   39.5050   30.2560   38.5630 H   0  0  0  0  0  0  0  0  0  0  0  0
   40.4910   31.3840   40.5090 H   0  0  0  0  0  0  0  0  0  0  0  0
   38.9390   32.6450   41.9230 H   0  0  0  0  0  0  0  0  0  0  0  0
   39.0790   33.4400   40.3120 H   0  0  0  0  0  0  0  0  0  0  0  0
   36.7520   33.0430   41.1160 H   0  0  0  0  0  0  0  0  0  0  0  0
   36.8360   33.2870   38.9430 H   0  0  0  0  0  0  0  0  0  0  0  0
   35.8980   31.8280   39.2540 H   0  0  0  0  0  0  0  0  0  0  0  0
   38.0700   32.0630   37.5080 H   0  0  0  0  0  0  0  0  0  0  0  0
   38.0770   28.2050   41.5110 C   0  0  0  0  0  0  0  0  0  0  0  0
   38.2140   28.8720   42.7180 C   0  0  0  0  0  0  0  0  0  0  0  0
   38.7240   30.1010   42.4550 C   0  0  0  0  0  0  0  0  0  0  0  0
   38.8950   30.1810   41.1130 N   0  0  0  0  0  0  0  0  0  0  0  0
   38.5020   29.0360   40.5730 N   0  0  0  0  0  0  0  0  0  0  0  0
   37.9350   28.4180   43.6700 H   0  0  0  0  0  0  0  0  0  0  0  0
   38.9470   30.8630   43.1900 H   0  0  0  0  0  0  0  0  0  0  0  0
   37.0860   24.7240   42.1800 C   0  0  0  0  0  0  0  0  0  0  0  0
   36.5740   24.3020   40.9460 C   0  0  0  0  0  0  0  0  0  0  0  0
   36.5790   25.2230   39.9010 C   0  0  0  0  0  0  0  0  0  0  0  0
   37.0750   26.4690   40.1370 N   0  0  0  0  0  0  0  0  0  0  0  0
   37.5590   26.8410   41.3360 C   0  0  0  0  0  0  0  0  0  0  0  0
   37.5710   25.9750   42.3720 N   0  0  0  0  0  0  0  0  0  0  0  0
   37.1050   24.0360   43.0350 H   0  0  0  0  0  0  0  0  0  0  0  0
   36.1930   23.2980   40.8140 H   0  0  0  0  0  0  0  0  0  0  0  0
   36.1930   24.9500   38.9170 H   0  0  0  0  0  0  0  0  0  0  0  0
   37.1300   30.2350   37.9100 C   0  0  0  0  0  3  0  0  0  0  0  0
   36.9490   30.2630   36.3920 C   0  0  0  0  0  2  0  0  0  0  0  0
   37.7720   29.2120   37.0690 C   0  0  0  0  0  2  0  0  0  0  0  0
  1  2  1  0  0  0  0
  2  8  1  1  0  0  0
  2  3  1  0  0  0  0
  2 18  1  0  0  0  0
  3  9  1  0  0  0  0
  4  3  1  0  0  0  0
  4 11  1  0  0  0  0
  5  4  1  0  0  0  0
  6 14  1  6  0  0  0
  6  1  1  0  0  0  0
  6  5  1  0  0  0  0
  7  1  1  0  0  0  0
 10  3  1  0  0  0  0
 12  5  1  0  0  0  0
 13  5  1  0  0  0  0
 15 16  1  0  0  0  0
 16 20  1  0  0  0  0
 17 16  2  0  0  0  0
 17 21  1  0  0  0  0
 18 17  1  0  0  0  0
 19 18  1  0  0  0  0
 19 15  2  0  0  0  0
 22 27  1  0  0  0  0
 22 28  1  0  0  0  0
 23 22  2  0  0  0  0
 24 25  2  0  0  0  0
 24 23  1  0  0  0  0
 25 26  1  0  0  0  0
 26 15  1  0  0  0  0
 26 27  2  0  0  0  0
 29 23  1  0  0  0  0
 30 24  1  0  0  0  0
 31  6  1  0  0  0  0
 32 33  1  0  0  0  0
 32 31  1  0  0  0  0
 33 31  1  0  0  0  0
M  END
>  <minimizedAffinity>
-4.85539627

$$$$

 OpenBabel03242520043D

 33 36  0  0  1  0  0  0  0  0999 V2000
   38.9050   25.4160   42.7550 N   0  0  0  0  0  0  0  0  0  0  0  0
   39.3040   26.7500   43.0220 C   0  0  1  0  0  0  0  0  0  0  0  0
   40.6890   26.9580   42.4720 C   0  0  0  0  0  0  0  0  0  0  0  0
   40.5490   26.8320   41.0270 N   0  0  0  0  0  0  0  0  0  0  0  0
   40.2090   25.4850   40.6470 C   0  0  0  0  0  0  0  0  0  0  0  0
   39.1810   24.8280   41.5140 C   0  0  2  0  0  0  0  0  0  0  0  0
   37.9130   25.2320   43.0120 H   0  0  0  0  0  0  0  0  0  0  0  0
   39.3450   26.8960   44.1120 H   0  0  0  0  0  0  0  0  0  0  0  0
   41.0170   27.9850   42.6910 H   0  0  0  0  0  0  0  0  0  0  0  0
   41.4260   26.2420   42.8860 H   0  0  0  0  0  0  0  0  0  0  0  0
   41.4210   27.0890   40.5400 H   0  0  0  0  0  0  0  0  0  0  0  0
   41.1780   24.9160   40.6250 H   0  0  0  0  0  0  0  0  0  0  0  0
   39.9110   25.5280   39.5640 H   0  0  0  0  0  0  0  0  0  0  0  0
   39.5660   23.7940   41.7320 H   0  0  0  0  0  0  0  0  0  0  0  0
   37.8720   29.6130   41.4950 C   0  0  0  0  0  0  0  0  0  0  0  0
   36.7450   28.8120   41.5960 C   0  0  0  0  0  0  0  0  0  0  0  0
   37.1190   27.6440   42.1750 C   0  0  0  0  0  0  0  0  0  0  0  0
   38.4480   27.7300   42.4210 N   0  0  0  0  0  0  0  0  0  0  0  0
   38.8740   28.9150   42.0060 N   0  0  0  0  0  0  0  0  0  0  0  0
   35.7650   29.1410   41.2480 H   0  0  0  0  0  0  0  0  0  0  0  0
   36.4650   26.8090   42.3920 H   0  0  0  0  0  0  0  0  0  0  0  0
   37.0760   32.5990   39.4980 C   0  0  0  0  0  0  0  0  0  0  0  0
   38.0550   33.5160   39.9010 C   0  0  0  0  0  0  0  0  0  0  0  0
   38.9770   33.0910   40.8560 C   0  0  0  0  0  0  0  0  0  0  0  0
   38.8730   31.8210   41.3380 N   0  0  0  0  0  0  0  0  0  0  0  0
   37.9180   30.9670   40.9280 C   0  0  0  0  0  0  0  0  0  0  0  0
   37.0070   31.3440   40.0030 N   0  0  0  0  0  0  0  0  0  0  0  0
   36.3260   32.8850   38.7490 H   0  0  0  0  0  0  0  0  0  0  0  0
   38.0910   34.5140   39.4840 H   0  0  0  0  0  0  0  0  0  0  0  0
   39.7630   33.7610   41.2080 H   0  0  0  0  0  0  0  0  0  0  0  0
   37.9600   24.5750   40.6380 C   0  0  0  0  0  3  0  0  0  0  0  0
   37.5680   23.0980   40.5890 C   0  0  0  0  0  2  0  0  0  0  0  0
   36.6770   24.1300   41.2050 C   0  0  0  0  0  2  0  0  0  0  0  0
  1  7  1  0  0  0  0
  1  2  1  0  0  0  0
  2  8  1  1  0  0  0
  3  9  1  0  0  0  0
  3 10  1  0  0  0  0
  3  2  1  0  0  0  0
  4  3  1  0  0  0  0
  5  4  1  0  0  0  0
  5  6  1  0  0  0  0
  6 14  1  1  0  0  0
  6  1  1  0  0  0  0
 11  4  1  0  0  0  0
 12  5  1  0  0  0  0
 13  5  1  0  0  0  0
 15 16  1  0  0  0  0
 15 19  2  0  0  0  0
 16 17  2  0  0  0  0
 17 21  1  0  0  0  0
 17 18  1  0  0  0  0
 18  2  1  0  0  0  0
 19 18  1  0  0  0  0
 20 16  1  0  0  0  0
 22 23  2  0  0  0  0
 22 27  1  0  0  0  0
 23 24  1  0  0  0  0
 24 30  1  0  0  0  0
 24 25  2  0  0  0  0
 26 25  1  0  0  0  0
 26 15  1  0  0  0  0
 27 26  2  0  0  0  0
 28 22  1  0  0  0  0
 29 23  1  0  0  0  0
 31 33  1  0  0  0  0
 31  6  1  0  0  0  0
 32 31  1  0  0  0  0
 32 33  1  0  0  0  0
M  END
>  <minimizedAffinity>
-4.74372244

$$$$

 OpenBabel03242520043D

 33 36  0  0  1  0  0  0  0  0999 V2000
   36.6810   27.5640   42.2740 N   0  0  0  0  0  0  0  0  0  0  0  0
   37.0590   28.9300   42.2090 C   0  0  1  0  0  0  0  0  0  0  0  0
   38.0830   29.1980   43.2780 C   0  0  0  0  0  0  0  0  0  0  0  0
   39.2480   28.4100   42.8980 N   0  0  0  0  0  0  0  0  0  0  0  0
   38.9840   26.9980   42.9970 C   0  0  0  0  0  0  0  0  0  0  0  0
   37.6470   26.5700   42.4810 C   0  0  2  0  0  0  0  0  0  0  0  0
   36.0550   27.2810   41.4920 H   0  0  0  0  0  0  0  0  0  0  0  0
   36.1760   29.5510   42.4200 H   0  0  0  0  0  0  0  0  0  0  0  0
   38.3680   30.2600   43.2500 H   0  0  0  0  0  0  0  0  0  0  0  0
   37.7180   28.9430   44.2930 H   0  0  0  0  0  0  0  0  0  0  0  0
   40.0600   28.6250   43.4960 H   0  0  0  0  0  0  0  0  0  0  0  0
   39.1310   26.7320   44.0800 H   0  0  0  0  0  0  0  0  0  0  0  0
   39.8410   26.4790   42.4860 H   0  0  0  0  0  0  0  0  0  0  0  0
   37.2200   25.8700   43.2500 H   0  0  0  0  0  0  0  0  0  0  0  0
   38.8500   30.4290   39.5410 C   0  0  0  0  0  0  0  0  0  0  0  0
   38.2120   29.4100   38.8510 C   0  0  0  0  0  0  0  0  0  0  0  0
   37.4620   28.7150   39.7420 C   0  0  0  0  0  0  0  0  0  0  0  0
   37.6390   29.3000   40.9520 N   0  0  0  0  0  0  0  0  0  0  0  0
   38.4720   30.3200   40.8040 N   0  0  0  0  0  0  0  0  0  0  0  0
   38.3440   29.2610   37.7790 H   0  0  0  0  0  0  0  0  0  0  0  0
   36.8440   27.8570   39.5140 H   0  0  0  0  0  0  0  0  0  0  0  0
   40.8330   33.4880   39.0350 C   0  0  0  0  0  0  0  0  0  0  0  0
   41.4790   33.2440   37.8170 C   0  0  0  0  0  0  0  0  0  0  0  0
   41.2220   32.0290   37.1860 C   0  0  0  0  0  0  0  0  0  0  0  0
   40.3650   31.1560   37.7860 N   0  0  0  0  0  0  0  0  0  0  0  0
   39.7610   31.4230   38.9580 C   0  0  0  0  0  0  0  0  0  0  0  0
   39.9870   32.5920   39.5980 N   0  0  0  0  0  0  0  0  0  0  0  0
   41.0020   34.4310   39.5730 H   0  0  0  0  0  0  0  0  0  0  0  0
   42.1510   33.9750   37.3850 H   0  0  0  0  0  0  0  0  0  0  0  0
   41.6960   31.7840   36.2350 H   0  0  0  0  0  0  0  0  0  0  0  0
   37.9040   25.6660   41.2810 C   0  0  0  0  0  3  0  0  0  0  0  0
   37.3940   24.2420   41.4990 C   0  0  0  0  0  2  0  0  0  0  0  0
   36.8050   25.1390   40.4570 C   0  0  0  0  0  2  0  0  0  0  0  0
  1  6  1  0  0  0  0
  2  1  1  0  0  0  0
  2  8  1  1  0  0  0
  2  3  1  0  0  0  0
  3 10  1  0  0  0  0
  4  5  1  0  0  0  0
  4  3  1  0  0  0  0
  4 11  1  0  0  0  0
  5 12  1  0  0  0  0
  6  5  1  0  0  0  0
  6 14  1  1  0  0  0
  7  1  1  0  0  0  0
  9  3  1  0  0  0  0
 13  5  1  0  0  0  0
 15 19  2  0  0  0  0
 16 15  1  0  0  0  0
 16 17  2  0  0  0  0
 17 18  1  0  0  0  0
 18  2  1  0  0  0  0
 19 18  1  0  0  0  0
 20 16  1  0  0  0  0
 21 17  1  0  0  0  0
 22 28  1  0  0  0  0
 22 27  1  0  0  0  0
 23 22  2  0  0  0  0
 24 25  2  0  0  0  0
 24 23  1  0  0  0  0
 25 26  1  0  0  0  0
 26 15  1  0  0  0  0
 26 27  2  0  0  0  0
 29 23  1  0  0  0  0
 30 24  1  0  0  0  0
 31 32  1  0  0  0  0
 31  6  1  0  0  0  0
 33 31  1  0  0  0  0
 33 32  1  0  0  0  0
M  END
>  <minimizedAffinity>
-4.7070899

$$$$
