
     RDKit          3D

 27 29  0  0  0  0  0  0  0  0999 V2000
   45.5246   34.1478   44.4171 C   0  0  0  0  0  0  0  0  0  0  0  0
   46.5009   33.6023   43.5428 C   0  0  0  0  0  0  0  0  0  0  0  0
   47.3948   32.6735   44.0591 C   0  0  0  0  0  0  0  0  0  0  0  0
   47.2831   32.3418   45.3704 N   0  0  0  0  0  0  0  0  0  0  0  0
   46.3356   32.8865   46.1738 C   0  0  0  0  0  0  0  0  0  0  0  0
   45.4531   33.7953   45.6864 N   0  0  0  0  0  0  0  0  0  0  0  0
   46.3978   32.3882   47.5877 C   0  0  0  0  0  0  0  0  0  0  0  0
   45.3914   32.9189   48.3572 F   0  0  0  0  0  0  0  0  0  0  0  0
   47.6222   32.7473   48.1580 F   0  0  0  0  0  0  0  0  0  0  0  0
   46.3812   30.9983   47.5745 F   0  0  0  0  0  0  0  0  0  0  0  0
   44.5715   35.1555   43.8755 C   0  0  1  0  0  0  0  0  0  0  0  0
   44.8630   36.6004   44.3251 C   0  0  0  0  0  0  0  0  0  0  0  0
   44.9988   36.1611   42.9004 C   0  0  2  0  0  0  0  0  0  0  0  0
   46.5593   33.8938   42.4965 H   0  0  0  0  0  0  0  0  0  0  0  0
   48.1467   32.2312   43.4515 H   0  0  0  0  0  0  0  0  0  0  0  0
   43.5122   34.8226   44.0452 H   0  0  0  0  0  0  0  0  0  0  0  0
   45.7241   36.7537   44.9838 H   0  0  0  0  0  0  0  0  0  0  0  0
   43.9507   37.1661   44.5948 H   0  0  0  0  0  0  0  0  0  0  0  0
   46.0524   36.0624   42.5639 H   0  0  0  0  0  0  0  0  0  0  0  0
   44.0663   36.7078   41.8497 C   0  0  0  0  0  0  0  0  0  0  0  0
   44.1812   36.2786   40.4165 C   0  0  0  0  0  0  0  0  0  0  0  0
   42.9658   35.9078   41.2698 C   0  0  0  0  0  0  0  0  0  0  0  0
   43.8439   37.8082   41.9438 H   0  0  0  0  0  0  0  0  0  0  0  0
   44.8449   35.4599   40.1127 H   0  0  0  0  0  0  0  0  0  0  0  0
   44.0207   37.0131   39.5906 H   0  0  0  0  0  0  0  0  0  0  0  0
   42.0221   36.4179   40.9689 H   0  0  0  0  0  0  0  0  0  0  0  0
   42.8174   34.8322   41.4684 H   0  0  0  0  0  0  0  0  0  0  0  0
  1  6  2  0
  2  3  2  0
  2  1  1  0
  3  4  1  0
  4  5  2  0
  5  7  1  0
  6  5  1  0
  7  9  1  0
  7  8  1  0
 10  7  1  0
 11 12  1  0
 11  1  1  0
 13 11  1  0
 13 12  1  0
  2 14  1  0
  3 15  1  0
 11 16  1  6
 12 17  1  0
 12 18  1  0
 13 19  1  6
 20 21  1  0
 21 22  1  0
 22 20  1  0
 20 23  1  0
 21 24  1  0
 21 25  1  0
 22 26  1  0
 22 27  1  0
 13 20  1  0
M  ISO  6  14  14  15  14  16  13  17  13  18  13  19  13
M  END
>  <DihAtoms>  (1) 
10,12,19,20

>  <DihDeg>  (1) 
-59.99865272034262

$$$$
