
 OpenBabel03242515053D

 33 35  0  0  0  0  0  0  0  0999 V2000
   41.5410   35.2270   41.6930 C   0  0  0  0  0  0  0  0  0  0  0  0
   40.7790   34.4890   42.0570 H   0  0  0  0  0  0  0  0  0  0  0  0
   41.8190   35.8360   42.5880 H   0  0  0  0  0  0  0  0  0  0  0  0
   40.8590   36.1060   40.6990 C   0  0  0  0  0  0  0  0  0  0  0  0
   41.6350   36.6660   40.1370 H   0  0  0  0  0  0  0  0  0  0  0  0
   40.1940   36.8750   41.1620 H   0  0  0  0  0  0  0  0  0  0  0  0
   41.8200   36.2450   37.8090 Cl  0  0  0  0  0  0  0  0  0  0  0  0
   40.4600   35.2950   38.3540 C   0  0  0  0  0  0  0  0  0  0  0  0
   40.1080   35.3070   39.7040 C   0  0  0  0  0  0  0  0  0  0  0  0
   39.0300   34.5360   40.0470 C   0  0  0  0  0  0  0  0  0  0  0  0
   38.2620   33.7540   39.1880 C   0  0  0  0  0  0  0  0  0  0  0  0
   38.6360   33.7640   37.8640 C   0  0  0  0  0  0  0  0  0  0  0  0
   37.7280   32.8050   36.6920 Cl  0  0  0  0  0  0  0  0  0  0  0  0
   39.7210   34.5280   37.4630 C   0  0  0  0  0  0  0  0  0  0  0  0
   38.7200   34.5150   41.0880 H   0  0  0  0  0  0  0  0  0  0  0  0
   37.4250   33.1790   39.5660 H   0  0  0  0  0  0  0  0  0  0  0  0
   40.0340   34.5520   36.4240 H   0  0  0  0  0  0  0  0  0  0  0  0
   42.9470   34.3390   41.0340 S   0  0  0  0  0  0  0  0  0  0  0  0
   44.4030   34.4560   42.0720 C   0  0  0  0  0  0  0  0  0  0  0  0
   45.6170   34.7020   41.4200 C   0  0  0  0  0  0  0  0  0  0  0  0
   46.7710   34.7990   42.1940 C   0  0  0  0  0  0  0  0  0  0  0  0
   46.6520   34.6490   43.5310 N   0  0  0  0  0  0  0  0  0  0  0  0
   45.4770   34.4110   44.1450 C   0  0  0  0  0  0  0  0  0  0  0  0
   44.3680   34.3180   43.4050 N   0  0  0  0  0  0  0  0  0  0  0  0
   45.6730   34.8170   40.3450 H   0  0  0  0  0  0  0  0  0  0  0  0
   45.4840   34.2700   45.5820 C   0  0  0  0  0  0  0  0  0  0  0  0
   44.5530   34.8240   46.2270 O   0  0  0  0  0  0  0  0  0  0  0  0
   46.5630   33.5030   46.1640 N   0  0  0  0  0  0  0  0  0  0  0  0
   46.2610   32.9160   46.9690 H   0  0  0  0  0  0  0  0  0  0  0  0
   47.5190   33.6060   45.7340 H   0  0  0  0  0  0  0  0  0  0  0  0
   48.0720   35.0600   41.5300 C   0  0  0  0  0  3  0  0  0  0  0  0
   48.8310   33.7820   41.2090 C   0  0  0  0  0  2  0  0  0  0  0  0
   48.3250   34.6910   40.1270 C   0  0  0  0  0  2  0  0  0  0  0  0
  1  2  1  0  0  0  0
  1  3  1  0  0  0  0
  4  6  1  0  0  0  0
  4  1  1  0  0  0  0
  5  4  1  0  0  0  0
  7  8  1  0  0  0  0
  8  9  1  0  0  0  0
  9 10  2  0  0  0  0
  9  4  1  0  0  0  0
 10 15  1  0  0  0  0
 11 16  1  0  0  0  0
 11 10  1  0  0  0  0
 12 11  2  0  0  0  0
 13 12  1  0  0  0  0
 14 12  1  0  0  0  0
 14  8  2  0  0  0  0
 17 14  1  0  0  0  0
 18  1  1  0  0  0  0
 18 19  1  0  0  0  0
 19 24  1  0  0  0  0
 20 19  2  0  0  0  0
 20 21  1  0  0  0  0
 21 22  2  0  0  0  0
 22 23  1  0  0  0  0
 23 26  1  0  0  0  0
 24 23  2  0  0  0  0
 25 20  1  0  0  0  0
 26 28  1  0  0  0  0
 26 27  2  0  0  0  0
 28 29  1  0  0  0  0
 30 28  1  0  0  0  0
 31 21  1  0  0  0  0
 32 31  1  0  0  0  0
 33 32  1  0  0  0  0
 33 31  1  0  0  0  0
M  END
>  <minimizedAffinity>
-6.73259592

>  <minimizedRMSD>
0.494689643

$$$$
