
 OpenBabel03242516403D

 20 21  0  0  0  0  0  0  0  0999 V2000
   36.9490   32.0230   39.6760 C   0  0  0  0  0  0  0  0  0  0  0  0
   36.5020   31.0660   40.5970 C   0  0  0  0  0  0  0  0  0  0  0  0
   36.3540   29.7480   40.1780 C   0  0  0  0  0  0  0  0  0  0  0  0
   36.6550   29.4860   38.8940 N   0  0  0  0  0  0  0  0  0  0  0  0
   37.0820   30.4110   38.0220 C   0  0  0  0  0  0  0  0  0  0  0  0
   37.2310   31.6940   38.4170 N   0  0  0  0  0  0  0  0  0  0  0  0
   37.1050   33.3740   40.1060 N   0  0  0  0  0  0  0  0  0  0  0  0
   36.2800   31.3670   41.6180 H   0  0  0  0  0  0  0  0  0  0  0  0
   37.3060   30.1440   37.0170 H   0  0  0  0  0  0  0  0  0  0  0  0
   36.3610   33.9450   40.5890 H   0  0  0  0  0  0  0  0  0  0  0  0
   38.0740   33.7280   39.8760 H   0  0  0  0  0  0  0  0  0  0  0  0
   35.8790   28.7310   41.1580 C   0  0  0  0  0  0  0  0  0  0  0  0
   36.0240   29.1280   42.2050 H   0  0  0  0  0  0  0  0  0  0  0  0
   34.8130   28.5720   41.0310 H   0  0  0  0  0  0  0  0  0  0  0  0
   36.7410   27.5100   41.0250 C   0  0  0  0  0  0  0  0  0  0  0  0
   36.1870   26.7190   40.5010 H   0  0  0  0  0  0  0  0  0  0  0  0
   37.6700   27.8250   40.4870 H   0  0  0  0  0  0  0  0  0  0  0  0
   37.1580   27.0420   42.4200 C   0  0  0  0  0  3  0  0  0  0  0  0
   37.7290   28.0740   43.3350 C   0  0  0  0  0  2  0  0  0  0  0  0
   36.3840   27.4200   43.6060 C   0  0  0  0  0  2  0  0  0  0  0  0
  1  7  1  0  0  0  0
  1  2  1  0  0  0  0
  2  8  1  0  0  0  0
  3  2  2  0  0  0  0
  3 12  1  0  0  0  0
  4  3  1  0  0  0  0
  5  6  1  0  0  0  0
  5  4  2  0  0  0  0
  6  1  2  0  0  0  0
  7 10  1  0  0  0  0
  9  5  1  0  0  0  0
 11  7  1  0  0  0  0
 12 13  1  0  0  0  0
 14 12  1  0  0  0  0
 15 12  1  0  0  0  0
 15 18  1  0  0  0  0
 16 15  1  0  0  0  0
 17 15  1  0  0  0  0
 18 19  1  0  0  0  0
 18 20  1  0  0  0  0
 19 20  1  0  0  0  0
M  END
>  <minimizedAffinity>
-4.32612753

$$$$

 OpenBabel03242516403D

 20 21  0  0  0  0  0  0  0  0999 V2000
   37.7130   32.7570   39.8180 C   0  0  0  0  0  0  0  0  0  0  0  0
   37.0850   31.8010   40.6280 C   0  0  0  0  0  0  0  0  0  0  0  0
   37.8050   30.6800   41.0260 C   0  0  0  0  0  0  0  0  0  0  0  0
   39.0760   30.5950   40.5920 N   0  0  0  0  0  0  0  0  0  0  0  0
   39.6650   31.5160   39.8160 C   0  0  0  0  0  0  0  0  0  0  0  0
   38.9760   32.6100   39.4240 N   0  0  0  0  0  0  0  0  0  0  0  0
   36.9750   33.9090   39.4130 N   0  0  0  0  0  0  0  0  0  0  0  0
   36.0520   31.9510   40.9320 H   0  0  0  0  0  0  0  0  0  0  0  0
   40.6750   31.3940   39.5040 H   0  0  0  0  0  0  0  0  0  0  0  0
   36.0300   33.8890   38.9430 H   0  0  0  0  0  0  0  0  0  0  0  0
   37.5050   34.7920   39.6500 H   0  0  0  0  0  0  0  0  0  0  0  0
   37.1390   29.6650   41.8890 C   0  0  0  0  0  0  0  0  0  0  0  0
   36.2300   30.1290   42.3740 H   0  0  0  0  0  0  0  0  0  0  0  0
   36.7780   28.8450   41.2750 H   0  0  0  0  0  0  0  0  0  0  0  0
   38.0840   29.2880   42.9910 C   0  0  0  0  0  0  0  0  0  0  0  0
   39.1210   29.4270   42.6540 H   0  0  0  0  0  0  0  0  0  0  0  0
   37.8220   29.9210   43.8750 H   0  0  0  0  0  0  0  0  0  0  0  0
   37.8360   27.8300   43.3820 C   0  0  0  0  0  3  0  0  0  0  0  0
   36.4250   27.4440   43.6780 C   0  0  0  0  0  2  0  0  0  0  0  0
   37.1640   26.9060   42.4640 C   0  0  0  0  0  2  0  0  0  0  0  0
  1  2  1  0  0  0  0
  2  8  1  0  0  0  0
  2  3  2  0  0  0  0
  3 12  1  0  0  0  0
  4  3  1  0  0  0  0
  5  4  2  0  0  0  0
  6  5  1  0  0  0  0
  6  1  2  0  0  0  0
  7 11  1  0  0  0  0
  7  1  1  0  0  0  0
  9  5  1  0  0  0  0
 10  7  1  0  0  0  0
 12 13  1  0  0  0  0
 12 15  1  0  0  0  0
 14 12  1  0  0  0  0
 15 18  1  0  0  0  0
 15 17  1  0  0  0  0
 16 15  1  0  0  0  0
 18 19  1  0  0  0  0
 20 18  1  0  0  0  0
 20 19  1  0  0  0  0
M  END
>  <minimizedAffinity>
-4.19304752

$$$$

 OpenBabel03242516403D

 20 21  0  0  0  0  0  0  0  0999 V2000
   36.9990   30.4190   41.5070 C   0  0  0  0  0  0  0  0  0  0  0  0
   37.0270   29.1930   42.1860 C   0  0  0  0  0  0  0  0  0  0  0  0
   38.2570   28.6130   42.4780 C   0  0  0  0  0  0  0  0  0  0  0  0
   39.3500   29.2860   42.0750 N   0  0  0  0  0  0  0  0  0  0  0  0
   39.3110   30.4580   41.4260 C   0  0  0  0  0  0  0  0  0  0  0  0
   38.1220   31.0320   41.1380 N   0  0  0  0  0  0  0  0  0  0  0  0
   35.7370   31.0150   41.2120 N   0  0  0  0  0  0  0  0  0  0  0  0
   36.0920   28.7180   42.4740 H   0  0  0  0  0  0  0  0  0  0  0  0
   40.2110   30.9450   41.1330 H   0  0  0  0  0  0  0  0  0  0  0  0
   34.9420   30.5330   40.7150 H   0  0  0  0  0  0  0  0  0  0  0  0
   35.7060   32.0120   41.5620 H   0  0  0  0  0  0  0  0  0  0  0  0
   38.2860   27.3110   43.2010 C   0  0  0  0  0  0  0  0  0  0  0  0
   39.1930   26.7250   42.8740 H   0  0  0  0  0  0  0  0  0  0  0  0
   38.3970   27.4880   44.2660 H   0  0  0  0  0  0  0  0  0  0  0  0
   37.0780   26.5190   42.7950 C   0  0  0  0  0  0  0  0  0  0  0  0
   36.6780   25.9800   43.6650 H   0  0  0  0  0  0  0  0  0  0  0  0
   36.3470   27.2440   42.3550 H   0  0  0  0  0  0  0  0  0  0  0  0
   37.4740   25.5400   41.6880 C   0  0  0  0  0  3  0  0  0  0  0  0
   38.1810   24.2960   42.1120 C   0  0  0  0  0  2  0  0  0  0  0  0
   36.7790   24.2610   41.5270 C   0  0  0  0  0  2  0  0  0  0  0  0
  1  2  1  0  0  0  0
  2  8  1  0  0  0  0
  2  3  2  0  0  0  0
  3 12  1  0  0  0  0
  4  3  1  0  0  0  0
  5  4  2  0  0  0  0
  6  5  1  0  0  0  0
  6  1  2  0  0  0  0
  7  1  1  0  0  0  0
  7 11  1  0  0  0  0
  9  5  1  0  0  0  0
 10  7  1  0  0  0  0
 12 14  1  0  0  0  0
 13 12  1  0  0  0  0
 15 12  1  0  0  0  0
 15 16  1  0  0  0  0
 17 15  1  0  0  0  0
 18 19  1  0  0  0  0
 18 15  1  0  0  0  0
 20 18  1  0  0  0  0
 20 19  1  0  0  0  0
M  END
>  <minimizedAffinity>
-4.18498182

$$$$

 OpenBabel03242516403D

 20 21  0  0  0  0  0  0  0  0999 V2000
   37.3750   32.1160   40.5090 C   0  0  0  0  0  0  0  0  0  0  0  0
   36.5230   31.0080   40.6010 C   0  0  0  0  0  0  0  0  0  0  0  0
   36.9980   29.8410   41.1900 C   0  0  0  0  0  0  0  0  0  0  0  0
   38.2680   29.8640   41.6330 N   0  0  0  0  0  0  0  0  0  0  0  0
   39.0740   30.9310   41.5390 C   0  0  0  0  0  0  0  0  0  0  0  0
   38.6240   32.0700   40.9700 N   0  0  0  0  0  0  0  0  0  0  0  0
   36.8860   33.3150   39.9080 N   0  0  0  0  0  0  0  0  0  0  0  0
   35.5090   31.0770   40.2150 H   0  0  0  0  0  0  0  0  0  0  0  0
   40.0710   30.8900   41.9090 H   0  0  0  0  0  0  0  0  0  0  0  0
   36.4340   33.3740   38.9570 H   0  0  0  0  0  0  0  0  0  0  0  0
   37.0360   34.1400   40.5510 H   0  0  0  0  0  0  0  0  0  0  0  0
   36.0910   28.6630   41.2890 C   0  0  0  0  0  0  0  0  0  0  0  0
   35.0800   29.0030   41.6590 H   0  0  0  0  0  0  0  0  0  0  0  0
   35.9340   28.2400   40.3010 H   0  0  0  0  0  0  0  0  0  0  0  0
   36.6470   27.7250   42.3200 C   0  0  0  0  0  0  0  0  0  0  0  0
   37.4580   28.2200   42.8720 H   0  0  0  0  0  0  0  0  0  0  0  0
   35.7920   27.4200   42.9750 H   0  0  0  0  0  0  0  0  0  0  0  0
   37.1590   26.4660   41.6200 C   0  0  0  0  0  3  0  0  0  0  0  0
   38.3270   25.7760   42.2440 C   0  0  0  0  0  2  0  0  0  0  0  0
   36.9480   25.1380   42.2040 C   0  0  0  0  0  2  0  0  0  0  0  0
  1  2  2  0  0  0  0
  1  6  1  0  0  0  0
  2  3  1  0  0  0  0
  3 12  1  0  0  0  0
  3  4  2  0  0  0  0
  5  4  1  0  0  0  0
  5  9  1  0  0  0  0
  6  5  2  0  0  0  0
  7  1  1  0  0  0  0
  7 11  1  0  0  0  0
  8  2  1  0  0  0  0
 10  7  1  0  0  0  0
 12 13  1  0  0  0  0
 12 15  1  0  0  0  0
 14 12  1  0  0  0  0
 15 16  1  0  0  0  0
 15 17  1  0  0  0  0
 18 20  1  0  0  0  0
 18 19  1  0  0  0  0
 18 15  1  0  0  0  0
 20 19  1  0  0  0  0
M  END
>  <minimizedAffinity>
-4.1600976

$$$$

 OpenBabel03242516403D

 20 21  0  0  0  0  0  0  0  0999 V2000
   39.2310   31.1570   41.8300 C   0  0  0  0  0  0  0  0  0  0  0  0
   39.0930   30.0560   42.6860 C   0  0  0  0  0  0  0  0  0  0  0  0
   37.9020   29.3390   42.6730 C   0  0  0  0  0  0  0  0  0  0  0  0
   36.9510   29.7660   41.8230 N   0  0  0  0  0  0  0  0  0  0  0  0
   37.0940   30.8220   41.0090 C   0  0  0  0  0  0  0  0  0  0  0  0
   38.2470   31.5260   41.0120 N   0  0  0  0  0  0  0  0  0  0  0  0
   40.4550   31.8910   41.8410 N   0  0  0  0  0  0  0  0  0  0  0  0
   39.9150   29.7810   43.3430 H   0  0  0  0  0  0  0  0  0  0  0  0
   36.3050   31.1130   40.3570 H   0  0  0  0  0  0  0  0  0  0  0  0
   40.9110   32.2930   42.7030 H   0  0  0  0  0  0  0  0  0  0  0  0
   40.8460   31.9750   40.8630 H   0  0  0  0  0  0  0  0  0  0  0  0
   37.7570   28.1680   43.5820 C   0  0  0  0  0  0  0  0  0  0  0  0
   38.6980   27.5460   43.5410 H   0  0  0  0  0  0  0  0  0  0  0  0
   37.6570   28.5120   44.6080 H   0  0  0  0  0  0  0  0  0  0  0  0
   36.6370   27.3100   43.0710 C   0  0  0  0  0  0  0  0  0  0  0  0
   36.1750   26.7660   43.9070 H   0  0  0  0  0  0  0  0  0  0  0  0
   35.9230   27.9890   42.5420 H   0  0  0  0  0  0  0  0  0  0  0  0
   37.1930   26.3320   42.0350 C   0  0  0  0  0  3  0  0  0  0  0  0
   38.3740   25.5160   42.4450 C   0  0  0  0  0  2  0  0  0  0  0  0
   37.0140   24.8860   42.1880 C   0  0  0  0  0  2  0  0  0  0  0  0
  1  7  1  0  0  0  0
  1  2  1  0  0  0  0
  2  8  1  0  0  0  0
  3  2  2  0  0  0  0
  3 12  1  0  0  0  0
  4  3  1  0  0  0  0
  5  6  1  0  0  0  0
  5  4  2  0  0  0  0
  6  1  2  0  0  0  0
  7 10  1  0  0  0  0
  9  5  1  0  0  0  0
 11  7  1  0  0  0  0
 12 14  1  0  0  0  0
 13 12  1  0  0  0  0
 15 12  1  0  0  0  0
 15 16  1  0  0  0  0
 17 15  1  0  0  0  0
 18 20  1  0  0  0  0
 18 19  1  0  0  0  0
 18 15  1  0  0  0  0
 20 19  1  0  0  0  0
M  END
>  <minimizedAffinity>
-4.11970711

$$$$

 OpenBabel03242516403D

 20 21  0  0  0  0  0  0  0  0999 V2000
   37.2790   31.2040   38.0450 C   0  0  0  0  0  0  0  0  0  0  0  0
   36.5610   30.1700   38.6620 C   0  0  0  0  0  0  0  0  0  0  0  0
   36.2100   30.3020   40.0010 C   0  0  0  0  0  0  0  0  0  0  0  0
   36.5950   31.4340   40.6160 N   0  0  0  0  0  0  0  0  0  0  0  0
   37.2820   32.4160   40.0150 C   0  0  0  0  0  0  0  0  0  0  0  0
   37.6280   32.3000   38.7150 N   0  0  0  0  0  0  0  0  0  0  0  0
   37.6370   31.0700   36.6700 N   0  0  0  0  0  0  0  0  0  0  0  0
   36.2920   29.2870   38.0870 H   0  0  0  0  0  0  0  0  0  0  0  0
   37.5580   33.2910   40.5540 H   0  0  0  0  0  0  0  0  0  0  0  0
   38.1460   30.2450   36.2550 H   0  0  0  0  0  0  0  0  0  0  0  0
   37.3180   31.9150   36.1200 H   0  0  0  0  0  0  0  0  0  0  0  0
   35.4460   29.2030   40.6550 C   0  0  0  0  0  0  0  0  0  0  0  0
   34.9960   29.5850   41.6180 H   0  0  0  0  0  0  0  0  0  0  0  0
   34.6160   28.9080   40.0210 H   0  0  0  0  0  0  0  0  0  0  0  0
   36.4080   28.1110   41.0200 C   0  0  0  0  0  0  0  0  0  0  0  0
   35.9100   27.1350   40.9370 H   0  0  0  0  0  0  0  0  0  0  0  0
   37.2890   28.2140   40.3380 H   0  0  0  0  0  0  0  0  0  0  0  0
   36.9050   28.3440   42.4480 C   0  0  0  0  0  3  0  0  0  0  0  0
   36.4990   27.3390   43.4740 C   0  0  0  0  0  2  0  0  0  0  0  0
   37.9460   27.4930   43.0330 C   0  0  0  0  0  2  0  0  0  0  0  0
  1  2  2  0  0  0  0
  1  6  1  0  0  0  0
  2  3  1  0  0  0  0
  3  4  2  0  0  0  0
  3 12  1  0  0  0  0
  5  9  1  0  0  0  0
  5  4  1  0  0  0  0
  6  5  2  0  0  0  0
  7  1  1  0  0  0  0
  8  2  1  0  0  0  0
 10  7  1  0  0  0  0
 11  7  1  0  0  0  0
 12 15  1  0  0  0  0
 12 13  1  0  0  0  0
 14 12  1  0  0  0  0
 15 18  1  0  0  0  0
 16 15  1  0  0  0  0
 17 15  1  0  0  0  0
 18 20  1  0  0  0  0
 18 19  1  0  0  0  0
 20 19  1  0  0  0  0
M  END
>  <minimizedAffinity>
-4.08961821

$$$$

 OpenBabel03242516403D

 20 21  0  0  0  0  0  0  0  0999 V2000
   38.3800   24.4020   42.1900 C   0  0  0  0  0  0  0  0  0  0  0  0
   37.4200   25.4240   42.1760 C   0  0  0  0  0  0  0  0  0  0  0  0
   37.6980   26.6150   42.8380 C   0  0  0  0  0  0  0  0  0  0  0  0
   38.8900   26.6970   43.4560 N   0  0  0  0  0  0  0  0  0  0  0  0
   39.7990   25.7120   43.4620 C   0  0  0  0  0  0  0  0  0  0  0  0
   39.5420   24.5510   42.8220 N   0  0  0  0  0  0  0  0  0  0  0  0
   38.0960   23.1810   41.5070 N   0  0  0  0  0  0  0  0  0  0  0  0
   36.4810   25.2710   41.6510 H   0  0  0  0  0  0  0  0  0  0  0  0
   40.7270   25.8360   43.9680 H   0  0  0  0  0  0  0  0  0  0  0  0
   37.2290   22.5970   41.6480 H   0  0  0  0  0  0  0  0  0  0  0  0
   38.8760   22.9420   40.8350 H   0  0  0  0  0  0  0  0  0  0  0  0
   36.6790   27.7010   42.8230 C   0  0  0  0  0  0  0  0  0  0  0  0
   35.9880   27.5510   41.9420 H   0  0  0  0  0  0  0  0  0  0  0  0
   36.0620   27.6360   43.7150 H   0  0  0  0  0  0  0  0  0  0  0  0
   37.3850   29.0080   42.6130 C   0  0  0  0  0  0  0  0  0  0  0  0
   37.0660   29.7300   43.3770 H   0  0  0  0  0  0  0  0  0  0  0  0
   38.4830   28.7930   42.6440 H   0  0  0  0  0  0  0  0  0  0  0  0
   37.0610   29.5280   41.2110 C   0  0  0  0  0  3  0  0  0  0  0  0
   35.6590   29.3470   40.7330 C   0  0  0  0  0  2  0  0  0  0  0  0
   36.2340   30.7240   41.0220 C   0  0  0  0  0  2  0  0  0  0  0  0
  1  6  1  0  0  0  0
  2  1  2  0  0  0  0
  2  3  1  0  0  0  0
  3  4  2  0  0  0  0
  4  5  1  0  0  0  0
  5  9  1  0  0  0  0
  6  5  2  0  0  0  0
  7 10  1  0  0  0  0
  7  1  1  0  0  0  0
  8  2  1  0  0  0  0
 11  7  1  0  0  0  0
 12  3  1  0  0  0  0
 12 14  1  0  0  0  0
 13 12  1  0  0  0  0
 15 17  1  0  0  0  0
 15 12  1  0  0  0  0
 15 16  1  0  0  0  0
 18 15  1  0  0  0  0
 19 20  1  0  0  0  0
 19 18  1  0  0  0  0
 20 18  1  0  0  0  0
M  END
>  <minimizedAffinity>
-4.05386257

$$$$

 OpenBabel03242516403D

 20 21  0  0  0  0  0  0  0  0999 V2000
   36.6710   29.7550   41.5770 C   0  0  0  0  0  0  0  0  0  0  0  0
   36.3630   28.4560   41.1480 C   0  0  0  0  0  0  0  0  0  0  0  0
   37.2660   27.4310   41.4040 C   0  0  0  0  0  0  0  0  0  0  0  0
   38.3930   27.7700   42.0580 N   0  0  0  0  0  0  0  0  0  0  0  0
   38.6760   29.0160   42.4630 C   0  0  0  0  0  0  0  0  0  0  0  0
   37.8060   30.0200   42.2200 N   0  0  0  0  0  0  0  0  0  0  0  0
   35.7420   30.8060   41.3170 N   0  0  0  0  0  0  0  0  0  0  0  0
   35.4280   28.2720   40.6250 H   0  0  0  0  0  0  0  0  0  0  0  0
   39.5850   29.2240   42.9770 H   0  0  0  0  0  0  0  0  0  0  0  0
   35.3390   31.0360   40.3690 H   0  0  0  0  0  0  0  0  0  0  0  0
   35.5090   31.3250   42.2080 H   0  0  0  0  0  0  0  0  0  0  0  0
   36.9380   26.0510   40.9490 C   0  0  0  0  0  0  0  0  0  0  0  0
   35.8840   26.0350   40.5440 H   0  0  0  0  0  0  0  0  0  0  0  0
   37.5910   25.7730   40.1270 H   0  0  0  0  0  0  0  0  0  0  0  0
   36.9670   25.1410   42.1420 C   0  0  0  0  0  0  0  0  0  0  0  0
   37.1960   25.7220   43.0460 H   0  0  0  0  0  0  0  0  0  0  0  0
   35.9710   24.6340   42.1870 H   0  0  0  0  0  0  0  0  0  0  0  0
   38.0230   24.0580   41.9150 C   0  0  0  0  0  3  0  0  0  0  0  0
   37.8210   23.1570   40.7420 C   0  0  0  0  0  2  0  0  0  0  0  0
   38.9710   24.1500   40.8010 C   0  0  0  0  0  2  0  0  0  0  0  0
  1  6  1  0  0  0  0
  2  3  1  0  0  0  0
  2  1  2  0  0  0  0
  3  4  2  0  0  0  0
  4  5  1  0  0  0  0
  5  9  1  0  0  0  0
  6  5  2  0  0  0  0
  7  1  1  0  0  0  0
  7 11  1  0  0  0  0
  8  2  1  0  0  0  0
 10  7  1  0  0  0  0
 12  3  1  0  0  0  0
 12 15  1  0  0  0  0
 13 12  1  0  0  0  0
 14 12  1  0  0  0  0
 15 17  1  0  0  0  0
 15 16  1  0  0  0  0
 18 15  1  0  0  0  0
 19 20  1  0  0  0  0
 19 18  1  0  0  0  0
 20 18  1  0  0  0  0
M  END
>  <minimizedAffinity>
-4.03324986

$$$$

 OpenBabel03242516403D

 20 21  0  0  0  0  0  0  0  0999 V2000
   37.6870   31.2890   37.1700 C   0  0  0  0  0  0  0  0  0  0  0  0
   37.3590   31.3150   38.5320 C   0  0  0  0  0  0  0  0  0  0  0  0
   36.4230   30.4070   39.0160 C   0  0  0  0  0  0  0  0  0  0  0  0
   35.8910   29.5560   38.1200 N   0  0  0  0  0  0  0  0  0  0  0  0
   36.2130   29.5420   36.8190 C   0  0  0  0  0  0  0  0  0  0  0  0
   37.1210   30.4180   36.3370 N   0  0  0  0  0  0  0  0  0  0  0  0
   38.6510   32.2180   36.6750 N   0  0  0  0  0  0  0  0  0  0  0  0
   37.8390   32.0390   39.1860 H   0  0  0  0  0  0  0  0  0  0  0  0
   35.7580   28.8430   36.1570 H   0  0  0  0  0  0  0  0  0  0  0  0
   38.6110   33.2630   36.8160 H   0  0  0  0  0  0  0  0  0  0  0  0
   39.4150   31.7140   36.1460 H   0  0  0  0  0  0  0  0  0  0  0  0
   36.0760   30.4340   40.4640 C   0  0  0  0  0  0  0  0  0  0  0  0
   37.0090   30.6370   41.0670 H   0  0  0  0  0  0  0  0  0  0  0  0
   35.3940   31.2570   40.6600 H   0  0  0  0  0  0  0  0  0  0  0  0
   35.5830   29.0720   40.8570 C   0  0  0  0  0  0  0  0  0  0  0  0
   34.7500   29.1700   41.5660 H   0  0  0  0  0  0  0  0  0  0  0  0
   35.2960   28.5460   39.9120 H   0  0  0  0  0  0  0  0  0  0  0  0
   36.7370   28.2890   41.4850 C   0  0  0  0  0  3  0  0  0  0  0  0
   37.4390   28.9310   42.6350 C   0  0  0  0  0  2  0  0  0  0  0  0
   36.6010   27.6740   42.8080 C   0  0  0  0  0  2  0  0  0  0  0  0
  1  2  1  0  0  0  0
  2  3  2  0  0  0  0
  2  8  1  0  0  0  0
  3 12  1  0  0  0  0
  4  3  1  0  0  0  0
  5  4  2  0  0  0  0
  6  5  1  0  0  0  0
  6  1  2  0  0  0  0
  7 10  1  0  0  0  0
  7  1  1  0  0  0  0
  9  5  1  0  0  0  0
 11  7  1  0  0  0  0
 12 14  1  0  0  0  0
 12 15  1  0  0  0  0
 12 13  1  0  0  0  0
 15 18  1  0  0  0  0
 15 16  1  0  0  0  0
 17 15  1  0  0  0  0
 18 19  1  0  0  0  0
 18 20  1  0  0  0  0
 19 20  1  0  0  0  0
M  END
>  <minimizedAffinity>
-3.97791123

$$$$
