
 OpenBabel03242522033D

 29 31  0  0  1  0  0  0  0  0999 V2000
   47.5970   33.4540   43.2310 N   0  0  0  0  0  0  0  0  0  0  0  0
   47.2360   32.5610   42.1370 C   0  0  0  0  0  0  0  0  0  0  0  0
   48.4490   32.1560   41.3330 C   0  0  0  0  0  0  0  0  0  0  0  0
   49.2450   33.2450   40.8910 N   0  0  0  0  0  0  0  0  0  0  0  0
   49.3850   34.3290   41.7900 C   0  0  2  0  0  0  0  0  0  0  0  0
   48.8190   34.2080   43.1480 C   0  0  0  0  0  0  0  0  0  0  0  0
   46.5470   33.0890   41.4440 H   0  0  0  0  0  0  0  0  0  0  0  0
   46.7880   31.6570   42.5860 H   0  0  0  0  0  0  0  0  0  0  0  0
   48.1170   31.5250   40.5060 H   0  0  0  0  0  0  0  0  0  0  0  0
   49.0900   31.5310   42.0140 H   0  0  0  0  0  0  0  0  0  0  0  0
   50.1490   32.8730   40.5410 H   0  0  0  0  0  0  0  0  0  0  0  0
   50.4740   34.5550   41.8930 H   0  0  0  0  0  0  0  0  0  0  0  0
   49.5650   33.7240   43.8130 H   0  0  0  0  0  0  0  0  0  0  0  0
   48.6830   35.2490   43.5560 H   0  0  0  0  0  0  0  0  0  0  0  0
   44.9610   34.5280   45.6570 C   0  0  0  0  0  0  0  0  0  0  0  0
   45.7120   34.5100   44.4690 C   0  0  0  0  0  0  0  0  0  0  0  0
   46.7580   33.5850   44.3690 C   0  0  0  0  0  0  0  0  0  0  0  0
   46.9690   32.7680   45.4320 N   0  0  0  0  0  0  0  0  0  0  0  0
   46.2240   32.8150   46.5590 C   0  0  0  0  0  0  0  0  0  0  0  0
   45.2080   33.7110   46.6660 N   0  0  0  0  0  0  0  0  0  0  0  0
   44.1520   35.2380   45.7450 H   0  0  0  0  0  0  0  0  0  0  0  0
   45.5340   35.1580   43.6410 H   0  0  0  0  0  0  0  0  0  0  0  0
   46.5140   31.8890   47.6860 C   0  0  0  0  0  0  0  0  0  0  0  0
   45.5500   30.7580   47.9890 C   0  0  0  0  0  0  0  0  0  0  0  0
   45.5990   31.9550   48.8780 C   0  0  0  0  0  0  0  0  0  0  0  0
   48.7490   35.5600   41.1530 C   0  0  0  0  0  0  0  0  0  0  0  0
   49.5440   36.6870   41.4020 F   0  0  0  0  0  0  0  0  0  0  0  0
   47.5680   35.7810   41.8350 F   0  0  0  0  0  0  0  0  0  0  0  0
   48.5830   35.4530   39.8100 F   0  0  0  0  0  0  0  0  0  0  0  0
  1 17  1  0  0  0  0
  2  8  1  0  0  0  0
  2  1  1  0  0  0  0
  3 10  1  0  0  0  0
  3  2  1  0  0  0  0
  4  3  1  0  0  0  0
  4  5  1  0  0  0  0
  5 12  1  1  0  0  0
  5  6  1  0  0  0  0
  6  1  1  0  0  0  0
  6 14  1  0  0  0  0
  6 13  1  0  0  0  0
  7  2  1  0  0  0  0
  9  3  1  0  0  0  0
 11  4  1  0  0  0  0
 15 21  1  0  0  0  0
 15 20  1  0  0  0  0
 16 15  2  0  0  0  0
 17 16  1  0  0  0  0
 17 18  2  0  0  0  0
 18 19  1  0  0  0  0
 19 20  2  0  0  0  0
 19 23  1  0  0  0  0
 22 16  1  0  0  0  0
 23 24  1  0  0  0  0
 23 25  1  0  0  0  0
 24 25  1  0  0  0  0
 26 27  1  0  0  0  0
 26  5  1  0  0  0  0
 26 28  1  0  0  0  0
 29 26  1  0  0  0  0
M  END
>  <minimizedAffinity>
-5.8207922

>  <minimizedRMSD>
0.301328421

$$$$
