
 OpenBabel03252506103D

 24 26  0  0  0  0  0  0  0  0999 V2000
   45.1470   33.3670   41.1080 F   0  0  0  0  0  0  0  0  0  0  0  0
   46.3260   33.9960   40.9590 C   0  0  0  0  0  0  0  0  0  0  0  0
   46.8320   34.7480   41.9950 C   0  0  0  0  0  0  0  0  0  0  0  0
   48.0360   35.4240   41.9160 C   0  0  0  0  0  0  0  0  0  0  0  0
   48.7890   35.3550   40.7480 C   0  0  0  0  0  0  0  0  0  0  0  0
   48.2430   34.5870   39.7310 C   0  0  0  0  0  0  0  0  0  0  0  0
   47.0520   33.9100   39.7880 C   0  0  0  0  0  0  0  0  0  0  0  0
   48.3930   36.0030   42.7570 H   0  0  0  0  0  0  0  0  0  0  0  0
   49.7350   35.8600   40.6290 H   0  0  0  0  0  0  0  0  0  0  0  0
   48.8420   34.5410   38.8240 H   0  0  0  0  0  0  0  0  0  0  0  0
   45.4830   33.9970   45.3360 C   0  0  0  0  0  0  0  0  0  0  0  0
   44.6550   35.1190   45.5750 C   0  0  0  0  0  0  0  0  0  0  0  0
   44.5670   36.1240   44.5830 C   0  0  0  0  0  0  0  0  0  0  0  0
   45.3020   35.9340   43.4500 N   0  0  0  0  0  0  0  0  0  0  0  0
   46.0770   34.8580   43.2570 C   0  0  0  0  0  0  0  0  0  0  0  0
   46.1620   33.9050   44.1910 N   0  0  0  0  0  0  0  0  0  0  0  0
   44.1010   35.1960   46.5050 H   0  0  0  0  0  0  0  0  0  0  0  0
   43.9470   36.9870   44.7370 H   0  0  0  0  0  0  0  0  0  0  0  0
   45.5700   32.9870   46.3300 N   0  0  0  0  0  0  0  0  0  0  0  0
   44.7160   32.6400   46.8230 H   0  0  0  0  0  0  0  0  0  0  0  0
   46.3940   32.4670   46.7090 H   0  0  0  0  0  0  0  0  0  0  0  0
   46.5390   33.1110   38.6570 C   0  0  0  0  0  0  0  0  0  0  0  0
   47.4190   32.1870   37.9090 C   0  0  0  0  0  0  0  0  0  0  0  0
   46.9290   33.4630   37.2920 C   0  0  0  0  0  0  0  0  0  0  0  0
  2  1  1  0  0  0  0
  2  3  1  0  0  0  0
  3 15  1  0  0  0  0
  4  3  2  0  0  0  0
  4  8  1  0  0  0  0
  5  4  1  0  0  0  0
  6  7  1  0  0  0  0
  6  5  2  0  0  0  0
  7  2  2  0  0  0  0
  9  5  1  0  0  0  0
 10  6  1  0  0  0  0
 11 12  1  0  0  0  0
 11 19  1  0  0  0  0
 12 17  1  0  0  0  0
 13 18  1  0  0  0  0
 13 12  2  0  0  0  0
 14 13  1  0  0  0  0
 15 14  2  0  0  0  0
 15 16  1  0  0  0  0
 16 11  2  0  0  0  0
 19 21  1  0  0  0  0
 19 20  1  0  0  0  0
 22  7  1  0  0  0  0
 23 22  1  0  0  0  0
 24 23  1  0  0  0  0
 24 22  1  0  0  0  0
M  END
>  <minimizedAffinity>
-5.68580627

>  <minimizedRMSD>
0.254477561

$$$$
