
 OpenBabel03242518373D

 29 32  0  0  1  0  0  0  0  0999 V2000
   37.2730   29.1340   39.4490 C   0  0  0  0  0  0  0  0  0  0  0  0
   35.9140   28.9680   39.7240 C   0  0  0  0  0  0  0  0  0  0  0  0
   35.7590   28.6420   41.0460 C   0  0  0  0  0  0  0  0  0  0  0  0
   37.0360   28.6190   41.5400 C   0  0  0  0  0  0  0  0  0  0  0  0
   37.9100   28.9080   40.5950 O   0  0  0  0  0  0  0  0  0  0  0  0
   35.1740   29.0950   38.9550 H   0  0  0  0  0  0  0  0  0  0  0  0
   34.8200   28.4550   41.5370 H   0  0  0  0  0  0  0  0  0  0  0  0
   37.4020   28.3180   42.9370 C   0  0  2  0  0  0  0  0  0  0  0  0
   38.7900   27.9360   43.2580 C   0  0  0  0  0  0  0  0  0  0  0  0
   37.7830   26.8410   43.1680 C   0  0  2  0  0  0  0  0  0  0  0  0
   36.7760   28.7620   43.7590 H   0  0  0  0  0  0  0  0  0  0  0  0
   39.2450   28.1550   44.2350 H   0  0  0  0  0  0  0  0  0  0  0  0
   39.5060   28.0180   42.4060 H   0  0  0  0  0  0  0  0  0  0  0  0
   37.4240   26.4310   44.1310 H   0  0  0  0  0  0  0  0  0  0  0  0
   37.7710   25.9040   41.9910 C   0  0  0  0  0  3  0  0  0  0  0  0
   38.2750   24.4680   42.2960 C   0  0  0  0  0  2  0  0  0  0  0  0
   36.8530   24.7440   41.9760 C   0  0  0  0  0  2  0  0  0  0  0  0
   37.9660   29.4700   38.2650 O   0  0  0  0  0  0  0  0  0  0  0  0
   37.7690   30.7570   37.7080 C   0  0  0  0  0  0  0  0  0  0  0  0
   37.2220   30.8140   36.5710 O   0  0  0  0  0  0  0  0  0  0  0  0
   38.2160   31.8500   38.5030 C   0  0  0  0  0  0  0  0  0  0  0  0
   37.2280   32.6690   38.9700 C   0  0  0  0  0  0  0  0  0  0  0  0
   37.5760   33.7630   39.7590 C   0  0  0  0  0  0  0  0  0  0  0  0
   38.8910   33.9610   40.0270 N   0  0  0  0  0  0  0  0  0  0  0  0
   39.8260   33.1300   39.5470 C   0  0  0  0  0  0  0  0  0  0  0  0
   39.4810   32.0880   38.7930 N   0  0  0  0  0  0  0  0  0  0  0  0
   36.1510   32.5730   38.7970 H   0  0  0  0  0  0  0  0  0  0  0  0
   36.8320   34.4500   40.1590 H   0  0  0  0  0  0  0  0  0  0  0  0
   40.8670   33.3370   39.7940 H   0  0  0  0  0  0  0  0  0  0  0  0
  1  2  2  0  0  0  0
  1  5  1  0  0  0  0
  2  3  1  0  0  0  0
  3  7  1  0  0  0  0
  3  4  2  0  0  0  0
  4  8  1  0  0  0  0
  5  4  1  0  0  0  0
  6  2  1  0  0  0  0
  8 10  1  0  0  0  0
  8  9  1  0  0  0  0
  8 11  1  1  0  0  0
  9 12  1  0  0  0  0
 10  9  1  0  0  0  0
 10 14  1  1  0  0  0
 13  9  1  0  0  0  0
 15 16  1  0  0  0  0
 15 10  1  0  0  0  0
 17 15  1  0  0  0  0
 17 16  1  0  0  0  0
 18  1  1  0  0  0  0
 19 18  1  0  0  0  0
 19 21  1  0  0  0  0
 20 19  2  0  0  0  0
 21 26  2  0  0  0  0
 21 22  1  0  0  0  0
 22 23  2  0  0  0  0
 23 24  1  0  0  0  0
 23 28  1  0  0  0  0
 25 29  1  0  0  0  0
 25 24  2  0  0  0  0
 26 25  1  0  0  0  0
 27 22  1  0  0  0  0
M  END
>  <minimizedAffinity>
-5.10859203

$$$$

 OpenBabel03242518373D

 29 32  0  0  1  0  0  0  0  0999 V2000
   36.2780   28.7140   40.9920 C   0  0  0  0  0  0  0  0  0  0  0  0
   35.2290   29.1750   40.1940 C   0  0  0  0  0  0  0  0  0  0  0  0
   35.7460   29.7760   39.0750 C   0  0  0  0  0  0  0  0  0  0  0  0
   37.1030   29.6630   39.2290 C   0  0  0  0  0  0  0  0  0  0  0  0
   37.3980   29.0410   40.3530 O   0  0  0  0  0  0  0  0  0  0  0  0
   34.2050   29.0350   40.4880 H   0  0  0  0  0  0  0  0  0  0  0  0
   35.1700   30.2230   38.2840 H   0  0  0  0  0  0  0  0  0  0  0  0
   38.1100   30.1610   38.2730 C   0  0  2  0  0  0  0  0  0  0  0  0
   39.4760   30.4540   38.7450 C   0  0  0  0  0  0  0  0  0  0  0  0
   38.5580   31.6110   38.5510 C   0  0  2  0  0  0  0  0  0  0  0  0
   37.9700   29.9290   37.1810 H   0  0  0  0  0  0  0  0  0  0  0  0
   40.3540   30.3600   38.0880 H   0  0  0  0  0  0  0  0  0  0  0  0
   39.6800   30.1560   39.8010 H   0  0  0  0  0  0  0  0  0  0  0  0
   38.7210   32.2130   37.6380 H   0  0  0  0  0  0  0  0  0  0  0  0
   37.9690   32.3290   39.7360 C   0  0  0  0  0  3  0  0  0  0  0  0
   38.5630   33.7380   40.0040 C   0  0  0  0  0  2  0  0  0  0  0  0
   37.1670   33.5560   39.5350 C   0  0  0  0  0  2  0  0  0  0  0  0
   36.2970   28.0330   42.2290 O   0  0  0  0  0  0  0  0  0  0  0  0
   37.5060   28.0050   42.9680 C   0  0  0  0  0  0  0  0  0  0  0  0
   37.8420   29.0690   43.5580 O   0  0  0  0  0  0  0  0  0  0  0  0
   38.2070   26.7660   42.9580 C   0  0  0  0  0  0  0  0  0  0  0  0
   39.3940   26.7670   43.6350 C   0  0  0  0  0  0  0  0  0  0  0  0
   40.1460   25.5960   43.6780 C   0  0  0  0  0  0  0  0  0  0  0  0
   39.6580   24.5030   43.0410 N   0  0  0  0  0  0  0  0  0  0  0  0
   38.4870   24.5490   42.3900 C   0  0  0  0  0  0  0  0  0  0  0  0
   37.7770   25.6750   42.3550 N   0  0  0  0  0  0  0  0  0  0  0  0
   39.8500   27.6070   44.1710 H   0  0  0  0  0  0  0  0  0  0  0  0
   41.0990   25.5380   44.2010 H   0  0  0  0  0  0  0  0  0  0  0  0
   38.1430   23.6410   41.8960 H   0  0  0  0  0  0  0  0  0  0  0  0
  1 18  1  0  0  0  0
  2  6  1  0  0  0  0
  2  1  2  0  0  0  0
  3  4  2  0  0  0  0
  3  2  1  0  0  0  0
  4  5  1  0  0  0  0
  5  1  1  0  0  0  0
  7  3  1  0  0  0  0
  8 11  1  6  0  0  0
  8 10  1  0  0  0  0
  8  9  1  0  0  0  0
  8  4  1  0  0  0  0
  9 13  1  0  0  0  0
 10 14  1  6  0  0  0
 10  9  1  0  0  0  0
 10 15  1  0  0  0  0
 12  9  1  0  0  0  0
 15 16  1  0  0  0  0
 17 15  1  0  0  0  0
 17 16  1  0  0  0  0
 18 19  1  0  0  0  0
 19 20  2  0  0  0  0
 21 19  1  0  0  0  0
 21 22  1  0  0  0  0
 22 23  2  0  0  0  0
 22 27  1  0  0  0  0
 23 28  1  0  0  0  0
 24 23  1  0  0  0  0
 25 24  2  0  0  0  0
 26 25  1  0  0  0  0
 26 21  2  0  0  0  0
 29 25  1  0  0  0  0
M  END
>  <minimizedAffinity>
-5.08228636

$$$$

 OpenBabel03242518373D

 29 32  0  0  1  0  0  0  0  0999 V2000
   40.0430   30.2020   42.5470 C   0  0  0  0  0  0  0  0  0  0  0  0
   40.6550   28.9700   42.3070 C   0  0  0  0  0  0  0  0  0  0  0  0
   39.7860   27.9630   42.6370 C   0  0  0  0  0  0  0  0  0  0  0  0
   38.6640   28.6160   43.0730 C   0  0  0  0  0  0  0  0  0  0  0  0
   38.8290   29.9230   43.0150 O   0  0  0  0  0  0  0  0  0  0  0  0
   41.6570   28.9150   41.9200 H   0  0  0  0  0  0  0  0  0  0  0  0
   39.9910   26.9100   42.5540 H   0  0  0  0  0  0  0  0  0  0  0  0
   37.4280   27.9610   43.5420 C   0  0  2  0  0  0  0  0  0  0  0  0
   36.9720   26.7200   42.8870 C   0  0  0  0  0  0  0  0  0  0  0  0
   36.2870   27.9860   42.5040 C   0  0  2  0  0  0  0  0  0  0  0  0
   37.0900   28.1530   44.5960 H   0  0  0  0  0  0  0  0  0  0  0  0
   36.3980   25.9520   43.4270 H   0  0  0  0  0  0  0  0  0  0  0  0
   37.6840   26.2970   42.1390 H   0  0  0  0  0  0  0  0  0  0  0  0
   35.2850   28.1490   42.9430 H   0  0  0  0  0  0  0  0  0  0  0  0
   36.5480   28.6240   41.1660 C   0  0  0  0  0  3  0  0  0  0  0  0
   35.2790   28.8860   40.3110 C   0  0  0  0  0  2  0  0  0  0  0  0
   36.0690   29.9980   40.8940 C   0  0  0  0  0  2  0  0  0  0  0  0
   40.4900   31.5310   42.3770 O   0  0  0  0  0  0  0  0  0  0  0  0
   40.6950   32.0130   41.0610 C   0  0  0  0  0  0  0  0  0  0  0  0
   41.8910   32.1720   40.6890 O   0  0  0  0  0  0  0  0  0  0  0  0
   39.5170   32.2630   40.3030 C   0  0  0  0  0  0  0  0  0  0  0  0
   39.3820   31.5060   39.1750 C   0  0  0  0  0  0  0  0  0  0  0  0
   38.2570   31.6840   38.3740 C   0  0  0  0  0  0  0  0  0  0  0  0
   37.3430   32.6090   38.7590 N   0  0  0  0  0  0  0  0  0  0  0  0
   37.5170   33.3290   39.8750 C   0  0  0  0  0  0  0  0  0  0  0  0
   38.5970   33.1500   40.6330 N   0  0  0  0  0  0  0  0  0  0  0  0
   40.0750   30.7440   38.8010 H   0  0  0  0  0  0  0  0  0  0  0  0
   38.0960   31.1100   37.4630 H   0  0  0  0  0  0  0  0  0  0  0  0
   36.7510   34.0580   40.1370 H   0  0  0  0  0  0  0  0  0  0  0  0
  1  5  1  0  0  0  0
  2  1  2  0  0  0  0
  2  3  1  0  0  0  0
  3  4  2  0  0  0  0
  4  8  1  0  0  0  0
  5  4  1  0  0  0  0
  6  2  1  0  0  0  0
  7  3  1  0  0  0  0
  8 11  1  1  0  0  0
  9 12  1  0  0  0  0
  9  8  1  0  0  0  0
 10  9  1  0  0  0  0
 10 14  1  1  0  0  0
 10  8  1  0  0  0  0
 13  9  1  0  0  0  0
 15 10  1  0  0  0  0
 16 17  1  0  0  0  0
 16 15  1  0  0  0  0
 17 15  1  0  0  0  0
 18  1  1  0  0  0  0
 19 18  1  0  0  0  0
 20 19  2  0  0  0  0
 21 26  1  0  0  0  0
 21 19  1  0  0  0  0
 22 21  2  0  0  0  0
 23 24  2  0  0  0  0
 23 22  1  0  0  0  0
 24 25  1  0  0  0  0
 25 29  1  0  0  0  0
 25 26  2  0  0  0  0
 27 22  1  0  0  0  0
 28 23  1  0  0  0  0
M  END
>  <minimizedAffinity>
-4.9838109

$$$$

 OpenBabel03242518373D

 29 32  0  0  1  0  0  0  0  0999 V2000
   38.4160   29.1850   41.8250 C   0  0  0  0  0  0  0  0  0  0  0  0
   37.4920   29.0980   42.8670 C   0  0  0  0  0  0  0  0  0  0  0  0
   37.8240   28.0430   43.6770 C   0  0  0  0  0  0  0  0  0  0  0  0
   38.9470   27.5150   43.0980 C   0  0  0  0  0  0  0  0  0  0  0  0
   39.2810   28.1910   42.0170 O   0  0  0  0  0  0  0  0  0  0  0  0
   36.6770   29.7950   42.9450 H   0  0  0  0  0  0  0  0  0  0  0  0
   37.2860   27.7400   44.5580 H   0  0  0  0  0  0  0  0  0  0  0  0
   39.6960   26.3490   43.6060 C   0  0  2  0  0  0  0  0  0  0  0  0
   40.6590   25.6650   42.7230 C   0  0  0  0  0  0  0  0  0  0  0  0
   39.3250   25.0260   42.9030 C   0  0  2  0  0  0  0  0  0  0  0  0
   39.8400   26.2510   44.7170 H   0  0  0  0  0  0  0  0  0  0  0  0
   41.5480   25.1500   43.1160 H   0  0  0  0  0  0  0  0  0  0  0  0
   40.8370   26.1700   41.7440 H   0  0  0  0  0  0  0  0  0  0  0  0
   39.2920   24.1530   43.5810 H   0  0  0  0  0  0  0  0  0  0  0  0
   38.3020   25.0630   41.7990 C   0  0  0  0  0  3  0  0  0  0  0  0
   37.8360   23.6700   41.2980 C   0  0  0  0  0  2  0  0  0  0  0  0
   36.9280   24.5730   42.0460 C   0  0  0  0  0  2  0  0  0  0  0  0
   38.5350   30.0760   40.7360 O   0  0  0  0  0  0  0  0  0  0  0  0
   37.4070   30.8500   40.3680 C   0  0  0  0  0  0  0  0  0  0  0  0
   37.3840   32.0510   40.7560 O   0  0  0  0  0  0  0  0  0  0  0  0
   36.4200   30.1750   39.5950 C   0  0  0  0  0  0  0  0  0  0  0  0
   36.7060   30.0600   38.2640 C   0  0  0  0  0  0  0  0  0  0  0  0
   35.7950   29.4120   37.4330 C   0  0  0  0  0  0  0  0  0  0  0  0
   34.6600   28.9240   37.9920 N   0  0  0  0  0  0  0  0  0  0  0  0
   34.4230   29.0600   39.3040 C   0  0  0  0  0  0  0  0  0  0  0  0
   35.3010   29.6820   40.0880 N   0  0  0  0  0  0  0  0  0  0  0  0
   37.5970   30.4270   37.7440 H   0  0  0  0  0  0  0  0  0  0  0  0
   35.9690   29.2910   36.3650 H   0  0  0  0  0  0  0  0  0  0  0  0
   33.4950   28.6480   39.6990 H   0  0  0  0  0  0  0  0  0  0  0  0
  1  5  1  0  0  0  0
  1  2  2  0  0  0  0
  2  6  1  0  0  0  0
  2  3  1  0  0  0  0
  3  7  1  0  0  0  0
  4  8  1  0  0  0  0
  4  3  2  0  0  0  0
  5  4  1  0  0  0  0
  8 11  1  1  0  0  0
  9 10  1  0  0  0  0
  9 12  1  0  0  0  0
  9  8  1  0  0  0  0
 10 14  1  1  0  0  0
 10  8  1  0  0  0  0
 13  9  1  0  0  0  0
 15 17  1  0  0  0  0
 15 10  1  0  0  0  0
 16 15  1  0  0  0  0
 16 17  1  0  0  0  0
 18  1  1  0  0  0  0
 19 18  1  0  0  0  0
 19 20  2  0  0  0  0
 21 26  1  0  0  0  0
 21 19  1  0  0  0  0
 22 21  2  0  0  0  0
 23 24  2  0  0  0  0
 23 22  1  0  0  0  0
 24 25  1  0  0  0  0
 25 29  1  0  0  0  0
 25 26  2  0  0  0  0
 27 22  1  0  0  0  0
 28 23  1  0  0  0  0
M  END
>  <minimizedAffinity>
-4.97118759

$$$$

 OpenBabel03242518373D

 29 32  0  0  1  0  0  0  0  0999 V2000
   37.4050   29.0760   42.3410 C   0  0  0  0  0  0  0  0  0  0  0  0
   37.4910   28.5770   43.6420 C   0  0  0  0  0  0  0  0  0  0  0  0
   38.3760   27.5300   43.6640 C   0  0  0  0  0  0  0  0  0  0  0  0
   38.8040   27.4230   42.3680 C   0  0  0  0  0  0  0  0  0  0  0  0
   38.2270   28.3320   41.6060 O   0  0  0  0  0  0  0  0  0  0  0  0
   36.9170   29.0090   44.4410 H   0  0  0  0  0  0  0  0  0  0  0  0
   38.6400   26.9550   44.5340 H   0  0  0  0  0  0  0  0  0  0  0  0
   39.7790   26.4320   41.8750 C   0  0  2  0  0  0  0  0  0  0  0  0
   39.9170   26.2100   40.4230 C   0  0  0  0  0  0  0  0  0  0  0  0
   39.1250   25.2110   41.1950 C   0  0  2  0  0  0  0  0  0  0  0  0
   40.6550   26.1740   42.5300 H   0  0  0  0  0  0  0  0  0  0  0  0
   40.8670   25.8930   39.9680 H   0  0  0  0  0  0  0  0  0  0  0  0
   39.3340   26.9160   39.7840 H   0  0  0  0  0  0  0  0  0  0  0  0
   39.6330   24.2520   41.4120 H   0  0  0  0  0  0  0  0  0  0  0  0
   37.6250   25.1700   41.0830 C   0  0  0  0  0  3  0  0  0  0  0  0
   37.0360   23.7770   40.7320 C   0  0  0  0  0  2  0  0  0  0  0  0
   36.8290   24.3990   42.0630 C   0  0  0  0  0  2  0  0  0  0  0  0
   36.6550   30.1340   41.7800 O   0  0  0  0  0  0  0  0  0  0  0  0
   35.9970   29.9160   40.5440 C   0  0  0  0  0  0  0  0  0  0  0  0
   34.9770   29.1730   40.5610 O   0  0  0  0  0  0  0  0  0  0  0  0
   36.5700   30.5680   39.4160 C   0  0  0  0  0  0  0  0  0  0  0  0
   36.7020   29.7900   38.3020 C   0  0  0  0  0  0  0  0  0  0  0  0
   37.2520   30.3480   37.1510 C   0  0  0  0  0  0  0  0  0  0  0  0
   37.6320   31.6490   37.1950 N   0  0  0  0  0  0  0  0  0  0  0  0
   37.4830   32.3750   38.3110 C   0  0  0  0  0  0  0  0  0  0  0  0
   36.9560   31.8300   39.4060 N   0  0  0  0  0  0  0  0  0  0  0  0
   36.4190   28.7370   38.1920 H   0  0  0  0  0  0  0  0  0  0  0  0
   37.3820   29.7760   36.2340 H   0  0  0  0  0  0  0  0  0  0  0  0
   37.8050   33.4150   38.2890 H   0  0  0  0  0  0  0  0  0  0  0  0
  1  2  2  0  0  0  0
  2  3  1  0  0  0  0
  2  6  1  0  0  0  0
  3  7  1  0  0  0  0
  4  3  2  0  0  0  0
  5  1  1  0  0  0  0
  5  4  1  0  0  0  0
  8  4  1  0  0  0  0
  8 11  1  1  0  0  0
  9 10  1  0  0  0  0
  9  8  1  0  0  0  0
 10 14  1  1  0  0  0
 10  8  1  0  0  0  0
 12  9  1  0  0  0  0
 13  9  1  0  0  0  0
 15 10  1  0  0  0  0
 15 17  1  0  0  0  0
 16 15  1  0  0  0  0
 16 17  1  0  0  0  0
 18  1  1  0  0  0  0
 19 20  2  0  0  0  0
 19 18  1  0  0  0  0
 21 19  1  0  0  0  0
 22 21  2  0  0  0  0
 23 24  2  0  0  0  0
 23 22  1  0  0  0  0
 24 25  1  0  0  0  0
 25 26  2  0  0  0  0
 26 21  1  0  0  0  0
 27 22  1  0  0  0  0
 28 23  1  0  0  0  0
 29 25  1  0  0  0  0
M  END
>  <minimizedAffinity>
-4.95020437

$$$$

 OpenBabel03242518373D

 29 32  0  0  1  0  0  0  0  0999 V2000
   37.4130   28.7440   42.3870 C   0  0  0  0  0  0  0  0  0  0  0  0
   38.6650   28.2930   42.8090 C   0  0  0  0  0  0  0  0  0  0  0  0
   38.6510   26.9240   42.8780 C   0  0  0  0  0  0  0  0  0  0  0  0
   37.3820   26.5810   42.4950 C   0  0  0  0  0  0  0  0  0  0  0  0
   36.6700   27.6540   42.2110 O   0  0  0  0  0  0  0  0  0  0  0  0
   39.4600   28.9840   43.0240 H   0  0  0  0  0  0  0  0  0  0  0  0
   39.4800   26.3060   43.1750 H   0  0  0  0  0  0  0  0  0  0  0  0
   36.8670   25.2020   42.4010 C   0  0  2  0  0  0  0  0  0  0  0  0
   37.7660   24.1200   41.9580 C   0  0  0  0  0  0  0  0  0  0  0  0
   36.8070   24.6640   40.9560 C   0  0  2  0  0  0  0  0  0  0  0  0
   35.9780   24.9210   43.0300 H   0  0  0  0  0  0  0  0  0  0  0  0
   37.6420   23.0810   42.2980 H   0  0  0  0  0  0  0  0  0  0  0  0
   38.8340   24.4210   41.8340 H   0  0  0  0  0  0  0  0  0  0  0  0
   35.9180   24.0410   40.7470 H   0  0  0  0  0  0  0  0  0  0  0  0
   37.2860   25.5530   39.8400 C   0  0  0  0  0  3  0  0  0  0  0  0
   36.9870   25.0220   38.4120 C   0  0  0  0  0  2  0  0  0  0  0  0
   36.3080   26.2240   38.9550 C   0  0  0  0  0  2  0  0  0  0  0  0
   36.9030   30.0400   42.1520 O   0  0  0  0  0  0  0  0  0  0  0  0
   37.0040   30.5810   40.8470 C   0  0  0  0  0  0  0  0  0  0  0  0
   36.2700   30.0690   39.9560 O   0  0  0  0  0  0  0  0  0  0  0  0
   37.9300   31.6500   40.6900 C   0  0  0  0  0  0  0  0  0  0  0  0
   37.4120   32.7910   40.1480 C   0  0  0  0  0  0  0  0  0  0  0  0
   38.2490   33.8890   39.9600 C   0  0  0  0  0  0  0  0  0  0  0  0
   39.5480   33.7680   40.3280 N   0  0  0  0  0  0  0  0  0  0  0  0
   40.0130   32.6270   40.8570 C   0  0  0  0  0  0  0  0  0  0  0  0
   39.2030   31.5850   41.0320 N   0  0  0  0  0  0  0  0  0  0  0  0
   36.3780   32.9620   39.8270 H   0  0  0  0  0  0  0  0  0  0  0  0
   37.8920   34.8240   39.5320 H   0  0  0  0  0  0  0  0  0  0  0  0
   41.0650   32.5860   41.1360 H   0  0  0  0  0  0  0  0  0  0  0  0
  1  2  2  0  0  0  0
  2  3  1  0  0  0  0
  2  6  1  0  0  0  0
  3  7  1  0  0  0  0
  4  3  2  0  0  0  0
  5  1  1  0  0  0  0
  5  4  1  0  0  0  0
  8  4  1  0  0  0  0
  8 11  1  1  0  0  0
  9 12  1  0  0  0  0
  9  8  1  0  0  0  0
 10 14  1  6  0  0  0
 10  9  1  0  0  0  0
 10  8  1  0  0  0  0
 13  9  1  0  0  0  0
 15 10  1  0  0  0  0
 16 17  1  0  0  0  0
 16 15  1  0  0  0  0
 17 15  1  0  0  0  0
 18  1  1  0  0  0  0
 19 18  1  0  0  0  0
 20 19  2  0  0  0  0
 21 19  1  0  0  0  0
 21 26  1  0  0  0  0
 22 21  2  0  0  0  0
 23 22  1  0  0  0  0
 23 24  2  0  0  0  0
 24 25  1  0  0  0  0
 25 26  2  0  0  0  0
 25 29  1  0  0  0  0
 27 22  1  0  0  0  0
 28 23  1  0  0  0  0
M  END
>  <minimizedAffinity>
-4.94951057

$$$$

 OpenBabel03242518373D

 29 32  0  0  1  0  0  0  0  0999 V2000
   39.3660   29.0150   42.6730 C   0  0  0  0  0  0  0  0  0  0  0  0
   38.1180   28.7260   43.2280 C   0  0  0  0  0  0  0  0  0  0  0  0
   38.1140   27.4320   43.6800 C   0  0  0  0  0  0  0  0  0  0  0  0
   39.3690   26.9680   43.3820 C   0  0  0  0  0  0  0  0  0  0  0  0
   40.0880   27.9040   42.7940 O   0  0  0  0  0  0  0  0  0  0  0  0
   37.3390   29.4660   43.2560 H   0  0  0  0  0  0  0  0  0  0  0  0
   37.2840   26.9390   44.1540 H   0  0  0  0  0  0  0  0  0  0  0  0
   39.8640   25.6110   43.6780 C   0  0  2  0  0  0  0  0  0  0  0  0
   40.7600   24.9400   42.7170 C   0  0  0  0  0  0  0  0  0  0  0  0
   39.3260   24.5360   42.7100 C   0  0  2  0  0  0  0  0  0  0  0  0
   39.9030   25.2780   44.7510 H   0  0  0  0  0  0  0  0  0  0  0  0
   41.5140   24.2060   43.0360 H   0  0  0  0  0  0  0  0  0  0  0  0
   41.0970   25.5800   41.8670 H   0  0  0  0  0  0  0  0  0  0  0  0
   39.0910   23.5710   43.1970 H   0  0  0  0  0  0  0  0  0  0  0  0
   38.4130   24.9680   41.5940 C   0  0  0  0  0  3  0  0  0  0  0  0
   37.8400   23.8080   40.7360 C   0  0  0  0  0  2  0  0  0  0  0  0
   36.9770   24.6150   41.6320 C   0  0  0  0  0  2  0  0  0  0  0  0
   39.8910   30.1840   42.0780 O   0  0  0  0  0  0  0  0  0  0  0  0
   39.7720   30.3420   40.6760 C   0  0  0  0  0  0  0  0  0  0  0  0
   40.4350   29.5480   39.9510 O   0  0  0  0  0  0  0  0  0  0  0  0
   38.9080   31.3870   40.2420 C   0  0  0  0  0  0  0  0  0  0  0  0
   38.0910   31.0670   39.1960 C   0  0  0  0  0  0  0  0  0  0  0  0
   37.2120   32.0310   38.7070 C   0  0  0  0  0  0  0  0  0  0  0  0
   37.2120   33.2500   39.3020 N   0  0  0  0  0  0  0  0  0  0  0  0
   38.0320   33.5190   40.3270 C   0  0  0  0  0  0  0  0  0  0  0  0
   38.8680   32.5890   40.7840 N   0  0  0  0  0  0  0  0  0  0  0  0
   38.0360   30.1090   38.6670 H   0  0  0  0  0  0  0  0  0  0  0  0
   36.5380   31.8330   37.8760 H   0  0  0  0  0  0  0  0  0  0  0  0
   37.9890   34.5140   40.7660 H   0  0  0  0  0  0  0  0  0  0  0  0
  1  5  1  0  0  0  0
  1  2  2  0  0  0  0
  2  6  1  0  0  0  0
  2  3  1  0  0  0  0
  3  7  1  0  0  0  0
  4  8  1  0  0  0  0
  4  3  2  0  0  0  0
  5  4  1  0  0  0  0
  8 11  1  1  0  0  0
  9 12  1  0  0  0  0
  9  8  1  0  0  0  0
 10  9  1  0  0  0  0
 10 14  1  1  0  0  0
 10  8  1  0  0  0  0
 13  9  1  0  0  0  0
 15 17  1  0  0  0  0
 15 10  1  0  0  0  0
 16 15  1  0  0  0  0
 16 17  1  0  0  0  0
 18  1  1  0  0  0  0
 19 18  1  0  0  0  0
 20 19  2  0  0  0  0
 21 19  1  0  0  0  0
 21 26  1  0  0  0  0
 22 21  2  0  0  0  0
 23 22  1  0  0  0  0
 23 24  2  0  0  0  0
 24 25  1  0  0  0  0
 25 29  1  0  0  0  0
 25 26  2  0  0  0  0
 27 22  1  0  0  0  0
 28 23  1  0  0  0  0
M  END
>  <minimizedAffinity>
-4.93101215

$$$$

 OpenBabel03242518373D

 29 32  0  0  1  0  0  0  0  0999 V2000
   37.7940   28.5700   39.3320 C   0  0  0  0  0  0  0  0  0  0  0  0
   37.0900   27.3810   39.1320 C   0  0  0  0  0  0  0  0  0  0  0  0
   36.6050   26.9380   40.3360 C   0  0  0  0  0  0  0  0  0  0  0  0
   37.0320   27.8770   41.2370 C   0  0  0  0  0  0  0  0  0  0  0  0
   37.7250   28.8240   40.6360 O   0  0  0  0  0  0  0  0  0  0  0  0
   36.9940   26.9520   38.1520 H   0  0  0  0  0  0  0  0  0  0  0  0
   36.0250   26.0450   40.4830 H   0  0  0  0  0  0  0  0  0  0  0  0
   36.7570   27.8490   42.6860 C   0  0  2  0  0  0  0  0  0  0  0  0
   37.5620   28.6900   43.5930 C   0  0  0  0  0  0  0  0  0  0  0  0
   37.9060   27.2420   43.5180 C   0  0  2  0  0  0  0  0  0  0  0  0
   35.7330   27.5390   43.0290 H   0  0  0  0  0  0  0  0  0  0  0  0
   37.1560   29.0870   44.5350 H   0  0  0  0  0  0  0  0  0  0  0  0
   38.2630   29.3920   43.0820 H   0  0  0  0  0  0  0  0  0  0  0  0
   37.5650   26.6170   44.3640 H   0  0  0  0  0  0  0  0  0  0  0  0
   39.1480   26.7850   42.8000 C   0  0  0  0  0  3  0  0  0  0  0  0
   40.1550   25.9970   43.6790 C   0  0  0  0  0  2  0  0  0  0  0  0
   39.3930   25.3420   42.5880 C   0  0  0  0  0  2  0  0  0  0  0  0
   38.4780   29.4270   38.4410 O   0  0  0  0  0  0  0  0  0  0  0  0
   37.8450   30.6290   38.0370 C   0  0  0  0  0  0  0  0  0  0  0  0
   36.9650   30.5390   37.1360 O   0  0  0  0  0  0  0  0  0  0  0  0
   38.2790   31.8100   38.7020 C   0  0  0  0  0  0  0  0  0  0  0  0
   37.2780   32.6270   39.1440 C   0  0  0  0  0  0  0  0  0  0  0  0
   37.6120   33.8050   39.8080 C   0  0  0  0  0  0  0  0  0  0  0  0
   38.9280   34.0830   39.9840 N   0  0  0  0  0  0  0  0  0  0  0  0
   39.8760   33.2500   39.5340 C   0  0  0  0  0  0  0  0  0  0  0  0
   39.5440   32.1270   38.9000 N   0  0  0  0  0  0  0  0  0  0  0  0
   36.1990   32.4690   39.0380 H   0  0  0  0  0  0  0  0  0  0  0  0
   36.8580   34.4950   40.1810 H   0  0  0  0  0  0  0  0  0  0  0  0
   40.9170   33.5240   39.7040 H   0  0  0  0  0  0  0  0  0  0  0  0
  1  5  1  0  0  0  0
  2  1  2  0  0  0  0
  2  3  1  0  0  0  0
  3  7  1  0  0  0  0
  3  4  2  0  0  0  0
  4  8  1  0  0  0  0
  5  4  1  0  0  0  0
  6  2  1  0  0  0  0
  8 11  1  1  0  0  0
  8 10  1  0  0  0  0
  8  9  1  0  0  0  0
  9 12  1  0  0  0  0
 10  9  1  0  0  0  0
 10 14  1  1  0  0  0
 13  9  1  0  0  0  0
 15 10  1  0  0  0  0
 15 16  1  0  0  0  0
 17 15  1  0  0  0  0
 17 16  1  0  0  0  0
 18  1  1  0  0  0  0
 19 18  1  0  0  0  0
 19 21  1  0  0  0  0
 20 19  2  0  0  0  0
 21 26  2  0  0  0  0
 21 22  1  0  0  0  0
 22 23  2  0  0  0  0
 23 24  1  0  0  0  0
 23 28  1  0  0  0  0
 25 29  1  0  0  0  0
 25 24  2  0  0  0  0
 26 25  1  0  0  0  0
 27 22  1  0  0  0  0
M  END
>  <minimizedAffinity>
-4.90409613

$$$$

 OpenBabel03242518373D

 29 32  0  0  1  0  0  0  0  0999 V2000
   37.5230   29.6610   40.4140 C   0  0  0  0  0  0  0  0  0  0  0  0
   36.2410   29.1840   40.6910 C   0  0  0  0  0  0  0  0  0  0  0  0
   36.2750   28.4410   41.8430 C   0  0  0  0  0  0  0  0  0  0  0  0
   37.5870   28.4880   42.2340 C   0  0  0  0  0  0  0  0  0  0  0  0
   38.3040   29.2030   41.3910 O   0  0  0  0  0  0  0  0  0  0  0  0
   35.4130   29.4130   40.0450 H   0  0  0  0  0  0  0  0  0  0  0  0
   35.4310   27.9500   42.2940 H   0  0  0  0  0  0  0  0  0  0  0  0
   38.1370   27.8350   43.4370 C   0  0  2  0  0  0  0  0  0  0  0  0
   39.5230   27.3290   43.4190 C   0  0  0  0  0  0  0  0  0  0  0  0
   38.4290   26.3320   43.2430 C   0  0  2  0  0  0  0  0  0  0  0  0
   37.6840   28.0860   44.4350 H   0  0  0  0  0  0  0  0  0  0  0  0
   40.1390   27.2810   44.3280 H   0  0  0  0  0  0  0  0  0  0  0  0
   40.1040   27.5920   42.5030 H   0  0  0  0  0  0  0  0  0  0  0  0
   38.1910   25.7110   44.1260 H   0  0  0  0  0  0  0  0  0  0  0  0
   38.1610   25.7180   41.8950 C   0  0  0  0  0  3  0  0  0  0  0  0
   38.3870   24.1850   41.8220 C   0  0  0  0  0  2  0  0  0  0  0  0
   37.0320   24.7780   41.7200 C   0  0  0  0  0  2  0  0  0  0  0  0
   38.0300   30.4640   39.3690 O   0  0  0  0  0  0  0  0  0  0  0  0
   38.0540   31.8690   39.5450 C   0  0  0  0  0  0  0  0  0  0  0  0
   37.0330   32.3990   40.0670 O   0  0  0  0  0  0  0  0  0  0  0  0
   39.2380   32.5270   39.1100 C   0  0  0  0  0  0  0  0  0  0  0  0
   39.8400   31.9750   38.0160 C   0  0  0  0  0  0  0  0  0  0  0  0
   41.0040   32.5570   37.5210 C   0  0  0  0  0  0  0  0  0  0  0  0
   41.4870   33.6530   38.1570 N   0  0  0  0  0  0  0  0  0  0  0  0
   40.8620   34.1610   39.2280 C   0  0  0  0  0  0  0  0  0  0  0  0
   39.7500   33.5960   39.6920 N   0  0  0  0  0  0  0  0  0  0  0  0
   39.5100   31.0950   37.4520 H   0  0  0  0  0  0  0  0  0  0  0  0
   41.5270   32.1600   36.6520 H   0  0  0  0  0  0  0  0  0  0  0  0
   41.2940   35.0430   39.6990 H   0  0  0  0  0  0  0  0  0  0  0  0
  1  2  2  0  0  0  0
  1  5  1  0  0  0  0
  2  3  1  0  0  0  0
  3  4  2  0  0  0  0
  3  7  1  0  0  0  0
  4  8  1  0  0  0  0
  5  4  1  0  0  0  0
  6  2  1  0  0  0  0
  8 11  1  1  0  0  0
  9  8  1  0  0  0  0
  9 12  1  0  0  0  0
 10  9  1  0  0  0  0
 10  8  1  0  0  0  0
 10 14  1  1  0  0  0
 13  9  1  0  0  0  0
 15 10  1  0  0  0  0
 16 15  1  0  0  0  0
 17 16  1  0  0  0  0
 17 15  1  0  0  0  0
 18 19  1  0  0  0  0
 18  1  1  0  0  0  0
 19 20  2  0  0  0  0
 21 19  1  0  0  0  0
 21 26  1  0  0  0  0
 22 21  2  0  0  0  0
 23 22  1  0  0  0  0
 23 24  2  0  0  0  0
 24 25  1  0  0  0  0
 25 26  2  0  0  0  0
 25 29  1  0  0  0  0
 27 22  1  0  0  0  0
 28 23  1  0  0  0  0
M  END
>  <minimizedAffinity>
-4.83149529

$$$$
