
 OpenBabel03252508363D

 25 27  0  0  0  0  0  0  0  0999 V2000
   37.9170   30.2850   41.4070 C   0  0  0  0  0  0  0  0  0  0  0  0
   37.6240   31.0720   40.3240 C   0  0  0  0  0  0  0  0  0  0  0  0
   36.4510   30.8280   39.6600 C   0  0  0  0  0  0  0  0  0  0  0  0
   35.5660   29.8340   40.0360 C   0  0  0  0  0  0  0  0  0  0  0  0
   35.8890   29.0590   41.1310 C   0  0  0  0  0  0  0  0  0  0  0  0
   37.0520   29.2750   41.8170 C   0  0  0  0  0  0  0  0  0  0  0  0
   36.2560   31.4780   38.8030 H   0  0  0  0  0  0  0  0  0  0  0  0
   34.6700   29.7530   39.4170 H   0  0  0  0  0  0  0  0  0  0  0  0
   35.1580   28.3000   41.3740 H   0  0  0  0  0  0  0  0  0  0  0  0
   40.2870   33.0250   38.4830 C   0  0  0  0  0  0  0  0  0  0  0  0
   39.3620   32.0160   38.7930 C   0  0  0  0  0  0  0  0  0  0  0  0
   38.5940   32.1030   39.9740 C   0  0  0  0  0  0  0  0  0  0  0  0
   38.8230   33.1900   40.7300 N   0  0  0  0  0  0  0  0  0  0  0  0
   39.7000   34.1430   40.4350 C   0  0  0  0  0  0  0  0  0  0  0  0
   40.4350   34.0590   39.3040 N   0  0  0  0  0  0  0  0  0  0  0  0
   41.0290   32.8850   37.2880 N   0  0  0  0  0  0  0  0  0  0  0  0
   39.1940   31.1420   38.1610 H   0  0  0  0  0  0  0  0  0  0  0  0
   39.8880   35.0210   41.0440 H   0  0  0  0  0  0  0  0  0  0  0  0
   42.0710   32.9490   37.3990 H   0  0  0  0  0  0  0  0  0  0  0  0
   40.5050   32.7320   36.4110 H   0  0  0  0  0  0  0  0  0  0  0  0
   37.3730   28.4240   42.9910 C   0  0  0  0  0  3  0  0  0  0  0  0
   37.8170   27.0130   42.5760 C   0  0  0  0  0  2  0  0  0  0  0  0
   36.5310   27.2640   43.3430 C   0  0  0  0  0  2  0  0  0  0  0  0
   40.1120   30.6520   42.7680 N   0  0  0  0  0  0  0  0  0  0  0  0
   39.1200   30.4740   42.1530 C   0  0  0  0  0  0  0  0  0  0  0  0
  1  6  1  0  0  0  0
  1 25  1  0  0  0  0
  2  1  2  0  0  0  0
  3  4  2  0  0  0  0
  3  2  1  0  0  0  0
  4  5  1  0  0  0  0
  5  9  1  0  0  0  0
  5  6  2  0  0  0  0
  6 21  1  0  0  0  0
  7  3  1  0  0  0  0
  8  4  1  0  0  0  0
 10 11  2  0  0  0  0
 10 15  1  0  0  0  0
 11 12  1  0  0  0  0
 12  2  1  0  0  0  0
 12 13  2  0  0  0  0
 14 13  1  0  0  0  0
 14 18  1  0  0  0  0
 15 14  2  0  0  0  0
 16 19  1  0  0  0  0
 16 10  1  0  0  0  0
 17 11  1  0  0  0  0
 20 16  1  0  0  0  0
 21 23  1  0  0  0  0
 22 21  1  0  0  0  0
 22 23  1  0  0  0  0
 25 24  3  0  0  0  0
M  END
>  <minimizedAffinity>
-5.29165745

$$$$

 OpenBabel03252508363D

 25 27  0  0  0  0  0  0  0  0999 V2000
   38.0420   28.0040   41.1860 C   0  0  0  0  0  0  0  0  0  0  0  0
   37.8840   29.0740   42.0290 C   0  0  0  0  0  0  0  0  0  0  0  0
   37.3100   28.8420   43.2510 C   0  0  0  0  0  0  0  0  0  0  0  0
   36.8900   27.5900   43.6590 C   0  0  0  0  0  0  0  0  0  0  0  0
   37.0640   26.5320   42.7890 C   0  0  0  0  0  0  0  0  0  0  0  0
   37.6340   26.7280   41.5620 C   0  0  0  0  0  0  0  0  0  0  0  0
   37.2020   29.7220   43.8900 H   0  0  0  0  0  0  0  0  0  0  0  0
   36.4500   27.5510   44.6580 H   0  0  0  0  0  0  0  0  0  0  0  0
   36.7160   25.5810   43.1660 H   0  0  0  0  0  0  0  0  0  0  0  0
   37.9240   32.5310   40.4960 C   0  0  0  0  0  0  0  0  0  0  0  0
   37.4510   31.2900   40.9530 C   0  0  0  0  0  0  0  0  0  0  0  0
   38.3440   30.3710   41.5440 C   0  0  0  0  0  0  0  0  0  0  0  0
   39.6210   30.7790   41.6240 N   0  0  0  0  0  0  0  0  0  0  0  0
   40.0670   31.9530   41.1910 C   0  0  0  0  0  0  0  0  0  0  0  0
   39.2120   32.8330   40.6240 N   0  0  0  0  0  0  0  0  0  0  0  0
   36.9850   33.4110   39.9110 N   0  0  0  0  0  0  0  0  0  0  0  0
   36.4070   30.9820   40.8760 H   0  0  0  0  0  0  0  0  0  0  0  0
   41.0970   32.2860   41.2530 H   0  0  0  0  0  0  0  0  0  0  0  0
   37.2400   33.7640   38.9560 H   0  0  0  0  0  0  0  0  0  0  0  0
   36.1360   33.6390   40.4530 H   0  0  0  0  0  0  0  0  0  0  0  0
   37.8060   25.5710   40.6470 C   0  0  0  0  0  3  0  0  0  0  0  0
   36.5220   25.2600   39.8630 C   0  0  0  0  0  2  0  0  0  0  0  0
   37.0990   24.2980   40.8880 C   0  0  0  0  0  2  0  0  0  0  0  0
   39.1040   28.3040   38.8220 N   0  0  0  0  0  0  0  0  0  0  0  0
   38.6320   28.1620   39.8960 C   0  0  0  0  0  0  0  0  0  0  0  0
  1  6  2  0  0  0  0
  1  2  1  0  0  0  0
  2  3  2  0  0  0  0
  3  4  1  0  0  0  0
  3  7  1  0  0  0  0
  4  8  1  0  0  0  0
  5  9  1  0  0  0  0
  5  4  2  0  0  0  0
  6  5  1  0  0  0  0
 10 15  2  0  0  0  0
 10 11  1  0  0  0  0
 11 12  2  0  0  0  0
 12 13  1  0  0  0  0
 12  2  1  0  0  0  0
 14 18  1  0  0  0  0
 14 13  2  0  0  0  0
 15 14  1  0  0  0  0
 16 20  1  0  0  0  0
 16 10  1  0  0  0  0
 17 11  1  0  0  0  0
 19 16  1  0  0  0  0
 21 23  1  0  0  0  0
 21  6  1  0  0  0  0
 22 21  1  0  0  0  0
 22 23  1  0  0  0  0
 24 25  3  0  0  0  0
 25  1  1  0  0  0  0
M  END
>  <minimizedAffinity>
-5.15245533

$$$$

 OpenBabel03252508363D

 25 27  0  0  0  0  0  0  0  0999 V2000
   36.5400   28.5300   40.0040 C   0  0  0  0  0  0  0  0  0  0  0  0
   36.2300   29.6080   39.2150 C   0  0  0  0  0  0  0  0  0  0  0  0
   36.3790   30.8570   39.7580 C   0  0  0  0  0  0  0  0  0  0  0  0
   36.8240   31.0670   41.0500 C   0  0  0  0  0  0  0  0  0  0  0  0
   37.1290   29.9620   41.8190 C   0  0  0  0  0  0  0  0  0  0  0  0
   36.9910   28.7010   41.3090 C   0  0  0  0  0  0  0  0  0  0  0  0
   36.1210   31.6870   39.0960 H   0  0  0  0  0  0  0  0  0  0  0  0
   36.8960   32.1140   41.3510 H   0  0  0  0  0  0  0  0  0  0  0  0
   37.4710   30.1920   42.8180 H   0  0  0  0  0  0  0  0  0  0  0  0
   36.1860   28.9900   35.4850 C   0  0  0  0  0  0  0  0  0  0  0  0
   36.6640   29.2640   36.7770 C   0  0  0  0  0  0  0  0  0  0  0  0
   35.7650   29.3260   37.8620 C   0  0  0  0  0  0  0  0  0  0  0  0
   34.4750   29.1070   37.5540 N   0  0  0  0  0  0  0  0  0  0  0  0
   34.0250   28.8480   36.3310 C   0  0  0  0  0  0  0  0  0  0  0  0
   34.8870   28.7890   35.2920 N   0  0  0  0  0  0  0  0  0  0  0  0
   37.1320   28.9410   34.4360 N   0  0  0  0  0  0  0  0  0  0  0  0
   37.7180   29.4390   37.0010 H   0  0  0  0  0  0  0  0  0  0  0  0
   32.9850   28.6700   36.0790 H   0  0  0  0  0  0  0  0  0  0  0  0
   36.9190   29.5570   33.6140 H   0  0  0  0  0  0  0  0  0  0  0  0
   37.9480   28.3160   34.5520 H   0  0  0  0  0  0  0  0  0  0  0  0
   37.3260   27.5320   42.1600 C   0  0  0  0  0  3  0  0  0  0  0  0
   36.3490   27.3750   43.3350 C   0  0  0  0  0  2  0  0  0  0  0  0
   37.8160   27.7100   43.5410 C   0  0  0  0  0  2  0  0  0  0  0  0
   36.2990   26.0990   39.0880 N   0  0  0  0  0  0  0  0  0  0  0  0
   36.4110   27.1960   39.5130 C   0  0  0  0  0  0  0  0  0  0  0  0
  1  6  1  0  0  0  0
  2  3  1  0  0  0  0
  2  1  2  0  0  0  0
  3  4  2  0  0  0  0
  4  8  1  0  0  0  0
  4  5  1  0  0  0  0
  5  9  1  0  0  0  0
  6  5  2  0  0  0  0
  6 21  1  0  0  0  0
  7  3  1  0  0  0  0
 10 11  1  0  0  0  0
 11 17  1  0  0  0  0
 11 12  2  0  0  0  0
 12  2  1  0  0  0  0
 13 12  1  0  0  0  0
 14 13  2  0  0  0  0
 15 10  2  0  0  0  0
 15 14  1  0  0  0  0
 16 20  1  0  0  0  0
 16 10  1  0  0  0  0
 18 14  1  0  0  0  0
 19 16  1  0  0  0  0
 21 22  1  0  0  0  0
 21 23  1  0  0  0  0
 22 23  1  0  0  0  0
 24 25  3  0  0  0  0
 25  1  1  0  0  0  0
M  END
>  <minimizedAffinity>
-5.00472832

$$$$

 OpenBabel03252508363D

 25 27  0  0  0  0  0  0  0  0999 V2000
   38.4240   29.6330   41.5880 C   0  0  0  0  0  0  0  0  0  0  0  0
   39.6190   30.3050   41.5750 C   0  0  0  0  0  0  0  0  0  0  0  0
   40.6790   29.7300   42.2260 C   0  0  0  0  0  0  0  0  0  0  0  0
   40.5890   28.5190   42.8850 C   0  0  0  0  0  0  0  0  0  0  0  0
   39.3730   27.8660   42.8800 C   0  0  0  0  0  0  0  0  0  0  0  0
   38.2940   28.4110   42.2400 C   0  0  0  0  0  0  0  0  0  0  0  0
   41.6110   30.2990   42.1900 H   0  0  0  0  0  0  0  0  0  0  0  0
   41.5120   28.1800   43.3600 H   0  0  0  0  0  0  0  0  0  0  0  0
   39.3670   26.9250   43.4120 H   0  0  0  0  0  0  0  0  0  0  0  0
   40.2160   32.9180   38.9080 C   0  0  0  0  0  0  0  0  0  0  0  0
   40.1960   31.6780   39.5660 C   0  0  0  0  0  0  0  0  0  0  0  0
   39.6540   31.5790   40.8640 C   0  0  0  0  0  0  0  0  0  0  0  0
   39.1820   32.7260   41.3810 N   0  0  0  0  0  0  0  0  0  0  0  0
   39.2010   33.8980   40.7560 C   0  0  0  0  0  0  0  0  0  0  0  0
   39.7210   33.9930   39.5130 N   0  0  0  0  0  0  0  0  0  0  0  0
   40.7720   32.9590   37.6090 N   0  0  0  0  0  0  0  0  0  0  0  0
   40.5870   30.7600   39.1240 H   0  0  0  0  0  0  0  0  0  0  0  0
   38.8210   34.8270   41.1700 H   0  0  0  0  0  0  0  0  0  0  0  0
   41.5260   33.6750   37.4690 H   0  0  0  0  0  0  0  0  0  0  0  0
   40.4040   32.2960   36.9070 H   0  0  0  0  0  0  0  0  0  0  0  0
   36.9990   27.6860   42.2530 C   0  0  0  0  0  3  0  0  0  0  0  0
   36.4580   27.4970   43.6790 C   0  0  0  0  0  2  0  0  0  0  0  0
   36.8920   26.3260   42.8160 C   0  0  0  0  0  2  0  0  0  0  0  0
   36.3170   30.6180   40.4060 N   0  0  0  0  0  0  0  0  0  0  0  0
   37.2720   30.1640   40.9330 C   0  0  0  0  0  0  0  0  0  0  0  0
  1  6  1  0  0  0  0
  2  1  2  0  0  0  0
  2  3  1  0  0  0  0
  3  4  2  0  0  0  0
  4  8  1  0  0  0  0
  5  4  1  0  0  0  0
  5  9  1  0  0  0  0
  6 21  1  0  0  0  0
  6  5  2  0  0  0  0
  7  3  1  0  0  0  0
 10 15  2  0  0  0  0
 10 11  1  0  0  0  0
 11 12  2  0  0  0  0
 12 13  1  0  0  0  0
 12  2  1  0  0  0  0
 14 18  1  0  0  0  0
 14 13  2  0  0  0  0
 15 14  1  0  0  0  0
 16 10  1  0  0  0  0
 17 11  1  0  0  0  0
 19 16  1  0  0  0  0
 20 16  1  0  0  0  0
 21 23  1  0  0  0  0
 21 22  1  0  0  0  0
 23 22  1  0  0  0  0
 24 25  3  0  0  0  0
 25  1  1  0  0  0  0
M  END
>  <minimizedAffinity>
-4.92791224

$$$$

 OpenBabel03252508363D

 25 27  0  0  0  0  0  0  0  0999 V2000
   37.5860   28.2050   40.7460 C   0  0  0  0  0  0  0  0  0  0  0  0
   37.5610   28.8740   39.5490 C   0  0  0  0  0  0  0  0  0  0  0  0
   37.0440   28.2170   38.4640 C   0  0  0  0  0  0  0  0  0  0  0  0
   36.5550   26.9260   38.5290 C   0  0  0  0  0  0  0  0  0  0  0  0
   36.5930   26.2790   39.7470 C   0  0  0  0  0  0  0  0  0  0  0  0
   37.1020   26.9050   40.8510 C   0  0  0  0  0  0  0  0  0  0  0  0
   37.0440   28.7870   37.5310 H   0  0  0  0  0  0  0  0  0  0  0  0
   36.1730   26.5270   37.5870 H   0  0  0  0  0  0  0  0  0  0  0  0
   36.1960   25.2730   39.7330 H   0  0  0  0  0  0  0  0  0  0  0  0
   37.7790   32.6480   39.6340 C   0  0  0  0  0  0  0  0  0  0  0  0
   37.2390   31.3520   39.6450 C   0  0  0  0  0  0  0  0  0  0  0  0
   38.0920   30.2330   39.5410 C   0  0  0  0  0  0  0  0  0  0  0  0
   39.4010   30.5140   39.4370 N   0  0  0  0  0  0  0  0  0  0  0  0
   39.9100   31.7410   39.4260 C   0  0  0  0  0  0  0  0  0  0  0  0
   39.0930   32.8130   39.5260 N   0  0  0  0  0  0  0  0  0  0  0  0
   36.8780   33.7320   39.7400 N   0  0  0  0  0  0  0  0  0  0  0  0
   36.1700   31.1500   39.7300 H   0  0  0  0  0  0  0  0  0  0  0  0
   40.9670   31.9730   39.3420 H   0  0  0  0  0  0  0  0  0  0  0  0
   36.9620   34.4580   38.9870 H   0  0  0  0  0  0  0  0  0  0  0  0
   36.2160   33.7310   40.5340 H   0  0  0  0  0  0  0  0  0  0  0  0
   37.1300   26.1830   42.1480 C   0  0  0  0  0  3  0  0  0  0  0  0
   38.3280   25.2250   42.2490 C   0  0  0  0  0  2  0  0  0  0  0  0
   36.8940   24.7270   42.2150 C   0  0  0  0  0  2  0  0  0  0  0  0
   38.5430   29.3450   42.8880 N   0  0  0  0  0  0  0  0  0  0  0  0
   38.1080   28.8190   41.9240 C   0  0  0  0  0  0  0  0  0  0  0  0
  1  6  1  0  0  0  0
  1 25  1  0  0  0  0
  2  1  2  0  0  0  0
  3  4  2  0  0  0  0
  3  2  1  0  0  0  0
  4  5  1  0  0  0  0
  5  6  2  0  0  0  0
  6 21  1  0  0  0  0
  7  3  1  0  0  0  0
  8  4  1  0  0  0  0
  9  5  1  0  0  0  0
 10 11  1  0  0  0  0
 10 16  1  0  0  0  0
 11 17  1  0  0  0  0
 12  2  1  0  0  0  0
 12 11  2  0  0  0  0
 13 12  1  0  0  0  0
 14 13  2  0  0  0  0
 14 15  1  0  0  0  0
 15 10  2  0  0  0  0
 16 20  1  0  0  0  0
 18 14  1  0  0  0  0
 19 16  1  0  0  0  0
 21 23  1  0  0  0  0
 21 22  1  0  0  0  0
 23 22  1  0  0  0  0
 25 24  3  0  0  0  0
M  END
>  <minimizedAffinity>
-4.88602591

$$$$

 OpenBabel03252508363D

 25 27  0  0  0  0  0  0  0  0999 V2000
   36.8230   25.9210   39.8600 C   0  0  0  0  0  0  0  0  0  0  0  0
   37.1610   26.5070   41.0530 C   0  0  0  0  0  0  0  0  0  0  0  0
   37.2010   25.7070   42.1640 C   0  0  0  0  0  0  0  0  0  0  0  0
   36.9190   24.3540   42.1290 C   0  0  0  0  0  0  0  0  0  0  0  0
   36.5830   23.7940   40.9130 C   0  0  0  0  0  0  0  0  0  0  0  0
   36.5330   24.5630   39.7830 C   0  0  0  0  0  0  0  0  0  0  0  0
   37.4740   26.2140   43.0930 H   0  0  0  0  0  0  0  0  0  0  0  0
   36.9900   23.8400   43.0890 H   0  0  0  0  0  0  0  0  0  0  0  0
   36.3730   22.7340   40.9500 H   0  0  0  0  0  0  0  0  0  0  0  0
   36.7290   30.2620   41.1610 C   0  0  0  0  0  0  0  0  0  0  0  0
   36.4210   28.8920   41.1870 C   0  0  0  0  0  0  0  0  0  0  0  0
   37.4480   27.9370   41.0300 C   0  0  0  0  0  0  0  0  0  0  0  0
   38.6820   28.4400   40.8640 N   0  0  0  0  0  0  0  0  0  0  0  0
   38.9710   29.7370   40.8390 C   0  0  0  0  0  0  0  0  0  0  0  0
   37.9870   30.6510   40.9890 N   0  0  0  0  0  0  0  0  0  0  0  0
   35.6610   31.1730   41.3230 N   0  0  0  0  0  0  0  0  0  0  0  0
   35.4090   28.5080   41.3240 H   0  0  0  0  0  0  0  0  0  0  0  0
   39.9660   30.1470   40.7050 H   0  0  0  0  0  0  0  0  0  0  0  0
   35.5800   31.9030   40.5730 H   0  0  0  0  0  0  0  0  0  0  0  0
   35.0500   31.0580   42.1480 H   0  0  0  0  0  0  0  0  0  0  0  0
   36.1670   23.9320   38.4900 C   0  0  0  0  0  3  0  0  0  0  0  0
   34.6550   23.6840   38.3770 C   0  0  0  0  0  2  0  0  0  0  0  0
   35.6600   22.5470   38.4340 C   0  0  0  0  0  2  0  0  0  0  0  0
   36.6840   27.3170   37.6600 N   0  0  0  0  0  0  0  0  0  0  0  0
   36.7590   26.6850   38.6560 C   0  0  0  0  0  0  0  0  0  0  0  0
  1  2  1  0  0  0  0
  2  3  2  0  0  0  0
  3  7  1  0  0  0  0
  4  3  1  0  0  0  0
  4  8  1  0  0  0  0
  5  9  1  0  0  0  0
  5  4  2  0  0  0  0
  6  1  2  0  0  0  0
  6  5  1  0  0  0  0
 10 11  1  0  0  0  0
 10 16  1  0  0  0  0
 11 17  1  0  0  0  0
 12  2  1  0  0  0  0
 12 11  2  0  0  0  0
 13 12  1  0  0  0  0
 14 13  2  0  0  0  0
 14 15  1  0  0  0  0
 15 10  2  0  0  0  0
 16 20  1  0  0  0  0
 18 14  1  0  0  0  0
 19 16  1  0  0  0  0
 21  6  1  0  0  0  0
 22 23  1  0  0  0  0
 22 21  1  0  0  0  0
 23 21  1  0  0  0  0
 24 25  3  0  0  0  0
 25  1  1  0  0  0  0
M  END
>  <minimizedAffinity>
-4.84890699

$$$$

 OpenBabel03252508363D

 25 27  0  0  0  0  0  0  0  0999 V2000
   36.4470   28.4590   40.1050 C   0  0  0  0  0  0  0  0  0  0  0  0
   35.9680   29.4940   39.3440 C   0  0  0  0  0  0  0  0  0  0  0  0
   36.0930   30.7630   39.8460 C   0  0  0  0  0  0  0  0  0  0  0  0
   36.6740   31.0340   41.0700 C   0  0  0  0  0  0  0  0  0  0  0  0
   37.1480   29.9710   41.8130 C   0  0  0  0  0  0  0  0  0  0  0  0
   37.0390   28.6920   41.3420 C   0  0  0  0  0  0  0  0  0  0  0  0
   35.6980   31.5570   39.2070 H   0  0  0  0  0  0  0  0  0  0  0  0
   36.7070   32.0900   41.3440 H   0  0  0  0  0  0  0  0  0  0  0  0
   37.5900   30.2480   42.7590 H   0  0  0  0  0  0  0  0  0  0  0  0
   33.4500   28.4670   36.7170 C   0  0  0  0  0  0  0  0  0  0  0  0
   34.0020   28.7950   37.9650 C   0  0  0  0  0  0  0  0  0  0  0  0
   35.3650   29.1480   38.0620 C   0  0  0  0  0  0  0  0  0  0  0  0
   36.0450   29.1420   36.9030 N   0  0  0  0  0  0  0  0  0  0  0  0
   35.5200   28.8310   35.7230 C   0  0  0  0  0  0  0  0  0  0  0  0
   34.2150   28.4920   35.6310 N   0  0  0  0  0  0  0  0  0  0  0  0
   32.0800   28.1200   36.6800 N   0  0  0  0  0  0  0  0  0  0  0  0
   33.4280   28.7930   38.8940 H   0  0  0  0  0  0  0  0  0  0  0  0
   36.0660   28.8240   34.7850 H   0  0  0  0  0  0  0  0  0  0  0  0
   31.8650   27.2020   36.2200 H   0  0  0  0  0  0  0  0  0  0  0  0
   31.4050   28.7800   37.1000 H   0  0  0  0  0  0  0  0  0  0  0  0
   37.5570   27.5690   42.1640 C   0  0  0  0  0  3  0  0  0  0  0  0
   36.6010   27.2040   43.3100 C   0  0  0  0  0  2  0  0  0  0  0  0
   37.9830   27.7810   43.5620 C   0  0  0  0  0  2  0  0  0  0  0  0
   36.2900   25.9950   39.2640 N   0  0  0  0  0  0  0  0  0  0  0  0
   36.3560   27.1080   39.6540 C   0  0  0  0  0  0  0  0  0  0  0  0
  1  6  1  0  0  0  0
  2  3  1  0  0  0  0
  2  1  2  0  0  0  0
  3  4  2  0  0  0  0
  4  8  1  0  0  0  0
  4  5  1  0  0  0  0
  5  9  1  0  0  0  0
  6  5  2  0  0  0  0
  6 21  1  0  0  0  0
  7  3  1  0  0  0  0
 10 11  1  0  0  0  0
 11 12  2  0  0  0  0
 11 17  1  0  0  0  0
 12  2  1  0  0  0  0
 13 12  1  0  0  0  0
 14 13  2  0  0  0  0
 15 14  1  0  0  0  0
 15 10  2  0  0  0  0
 16 10  1  0  0  0  0
 16 20  1  0  0  0  0
 18 14  1  0  0  0  0
 19 16  1  0  0  0  0
 21 22  1  0  0  0  0
 21 23  1  0  0  0  0
 22 23  1  0  0  0  0
 24 25  3  0  0  0  0
 25  1  1  0  0  0  0
M  END
>  <minimizedAffinity>
-4.70903206

$$$$

 OpenBabel03252508363D

 25 27  0  0  0  0  0  0  0  0999 V2000
   38.9570   26.5890   41.1440 C   0  0  0  0  0  0  0  0  0  0  0  0
   37.5970   26.4140   41.1510 C   0  0  0  0  0  0  0  0  0  0  0  0
   37.1070   25.2650   41.7140 C   0  0  0  0  0  0  0  0  0  0  0  0
   37.9190   24.2920   42.2660 C   0  0  0  0  0  0  0  0  0  0  0  0
   39.2840   24.4970   42.2450 C   0  0  0  0  0  0  0  0  0  0  0  0
   39.8070   25.6320   41.6910 C   0  0  0  0  0  0  0  0  0  0  0  0
   36.0190   25.1660   41.6980 H   0  0  0  0  0  0  0  0  0  0  0  0
   37.3930   23.4290   42.6800 H   0  0  0  0  0  0  0  0  0  0  0  0
   39.8640   23.7020   42.6920 H   0  0  0  0  0  0  0  0  0  0  0  0
   35.8000   29.6980   40.6210 C   0  0  0  0  0  0  0  0  0  0  0  0
   36.5800   28.6970   41.2220 C   0  0  0  0  0  0  0  0  0  0  0  0
   36.7910   27.4720   40.5540 C   0  0  0  0  0  0  0  0  0  0  0  0
   36.2030   27.3640   39.3510 N   0  0  0  0  0  0  0  0  0  0  0  0
   35.4640   28.3120   38.7840 C   0  0  0  0  0  0  0  0  0  0  0  0
   35.2630   29.4850   39.4240 N   0  0  0  0  0  0  0  0  0  0  0  0
   35.6220   30.9040   41.3360 N   0  0  0  0  0  0  0  0  0  0  0  0
   37.0480   28.8100   42.2020 H   0  0  0  0  0  0  0  0  0  0  0  0
   34.9880   28.2280   37.8130 H   0  0  0  0  0  0  0  0  0  0  0  0
   34.6240   31.2000   41.4700 H   0  0  0  0  0  0  0  0  0  0  0  0
   36.4670   31.3960   41.6680 H   0  0  0  0  0  0  0  0  0  0  0  0
   41.2790   25.8250   41.6820 C   0  0  0  0  0  3  0  0  0  0  0  0
   41.9610   25.1150   42.8630 C   0  0  0  0  0  2  0  0  0  0  0  0
   41.9490   26.6280   42.7250 C   0  0  0  0  0  2  0  0  0  0  0  0
   40.0330   28.7360   40.1260 N   0  0  0  0  0  0  0  0  0  0  0  0
   39.5470   27.7580   40.5770 C   0  0  0  0  0  0  0  0  0  0  0  0
  1  2  2  0  0  0  0
  1  6  1  0  0  0  0
  2  3  1  0  0  0  0
  3  4  2  0  0  0  0
  4  8  1  0  0  0  0
  5  4  1  0  0  0  0
  5  9  1  0  0  0  0
  6  5  2  0  0  0  0
  7  3  1  0  0  0  0
 10 11  1  0  0  0  0
 10 16  1  0  0  0  0
 11 17  1  0  0  0  0
 12  2  1  0  0  0  0
 12 11  2  0  0  0  0
 13 12  1  0  0  0  0
 14 13  2  0  0  0  0
 14 15  1  0  0  0  0
 15 10  2  0  0  0  0
 16 19  1  0  0  0  0
 16 20  1  0  0  0  0
 18 14  1  0  0  0  0
 21  6  1  0  0  0  0
 21 23  1  0  0  0  0
 21 22  1  0  0  0  0
 23 22  1  0  0  0  0
 24 25  3  0  0  0  0
 25  1  1  0  0  0  0
M  END
>  <minimizedAffinity>
-4.70870447

$$$$

 OpenBabel03252508363D

 25 27  0  0  0  0  0  0  0  0999 V2000
   38.5010   26.2180   40.8630 C   0  0  0  0  0  0  0  0  0  0  0  0
   38.7790   27.1560   41.8240 C   0  0  0  0  0  0  0  0  0  0  0  0
   39.2860   26.7130   43.0170 C   0  0  0  0  0  0  0  0  0  0  0  0
   39.5250   25.3780   43.2840 C   0  0  0  0  0  0  0  0  0  0  0  0
   39.2360   24.4580   42.2970 C   0  0  0  0  0  0  0  0  0  0  0  0
   38.7290   24.8650   41.0940 C   0  0  0  0  0  0  0  0  0  0  0  0
   39.4920   27.4940   43.7540 H   0  0  0  0  0  0  0  0  0  0  0  0
   39.9310   25.1690   44.2760 H   0  0  0  0  0  0  0  0  0  0  0  0
   39.4440   23.4320   42.5660 H   0  0  0  0  0  0  0  0  0  0  0  0
   36.9740   30.4300   41.2570 C   0  0  0  0  0  0  0  0  0  0  0  0
   37.2050   29.0860   41.5890 C   0  0  0  0  0  0  0  0  0  0  0  0
   38.5060   28.5490   41.4870 C   0  0  0  0  0  0  0  0  0  0  0  0
   39.4510   29.4060   41.0650 N   0  0  0  0  0  0  0  0  0  0  0  0
   39.2300   30.6780   40.7520 C   0  0  0  0  0  0  0  0  0  0  0  0
   37.9840   31.1910   40.8490 N   0  0  0  0  0  0  0  0  0  0  0  0
   35.6510   30.9140   41.3770 N   0  0  0  0  0  0  0  0  0  0  0  0
   36.4190   28.4090   41.9290 H   0  0  0  0  0  0  0  0  0  0  0  0
   39.9910   31.3730   40.4110 H   0  0  0  0  0  0  0  0  0  0  0  0
   35.2650   31.3750   40.5170 H   0  0  0  0  0  0  0  0  0  0  0  0
   35.1700   30.7810   42.2820 H   0  0  0  0  0  0  0  0  0  0  0  0
   38.4270   23.8520   40.0520 C   0  0  0  0  0  3  0  0  0  0  0  0
   37.0330   23.2310   40.2370 C   0  0  0  0  0  2  0  0  0  0  0  0
   38.3070   22.4200   40.3930 C   0  0  0  0  0  2  0  0  0  0  0  0
   37.5240   26.9280   38.5510 N   0  0  0  0  0  0  0  0  0  0  0  0
   37.9710   26.5970   39.5940 C   0  0  0  0  0  0  0  0  0  0  0  0
  1  6  2  0  0  0  0
  1  2  1  0  0  0  0
  2  3  2  0  0  0  0
  3  4  1  0  0  0  0
  3  7  1  0  0  0  0
  4  8  1  0  0  0  0
  5  9  1  0  0  0  0
  5  4  2  0  0  0  0
  6  5  1  0  0  0  0
 10 16  1  0  0  0  0
 10 11  1  0  0  0  0
 11 17  1  0  0  0  0
 12 11  2  0  0  0  0
 12  2  1  0  0  0  0
 13 12  1  0  0  0  0
 14 15  1  0  0  0  0
 14 13  2  0  0  0  0
 15 10  2  0  0  0  0
 16 20  1  0  0  0  0
 18 14  1  0  0  0  0
 19 16  1  0  0  0  0
 21 22  1  0  0  0  0
 21 23  1  0  0  0  0
 21  6  1  0  0  0  0
 22 23  1  0  0  0  0
 24 25  3  0  0  0  0
 25  1  1  0  0  0  0
M  END
>  <minimizedAffinity>
-4.68291473

$$$$
