
 OpenBabel03242518363D

 29 32  0  0  1  0  0  0  0  0999 V2000
   47.2750   33.6350   39.8150 C   0  0  0  0  0  0  0  0  0  0  0  0
   48.2120   34.1710   38.9300 C   0  0  0  0  0  0  0  0  0  0  0  0
   47.7490   34.0350   37.6470 C   0  0  0  0  0  0  0  0  0  0  0  0
   46.5360   33.4160   37.7910 C   0  0  0  0  0  0  0  0  0  0  0  0
   46.2720   33.1880   39.0620 O   0  0  0  0  0  0  0  0  0  0  0  0
   49.1290   34.6030   39.2880 H   0  0  0  0  0  0  0  0  0  0  0  0
   48.2640   34.3600   36.7600 H   0  0  0  0  0  0  0  0  0  0  0  0
   45.6320   33.0510   36.6830 C   0  0  2  0  0  0  0  0  0  0  0  0
   44.6390   31.9780   36.8800 C   0  0  0  0  0  0  0  0  0  0  0  0
   45.8800   31.6310   36.1300 C   0  0  2  0  0  0  0  0  0  0  0  0
   45.4240   33.8190   35.8890 H   0  0  0  0  0  0  0  0  0  0  0  0
   43.6790   31.9660   36.3450 H   0  0  0  0  0  0  0  0  0  0  0  0
   44.5700   31.5910   37.9250 H   0  0  0  0  0  0  0  0  0  0  0  0
   45.7780   31.5540   35.0310 H   0  0  0  0  0  0  0  0  0  0  0  0
   46.9520   30.7900   36.7690 C   0  0  0  0  0  0  0  0  0  0  0  0
   47.2310   29.4400   36.0550 C   0  0  0  0  0  0  0  0  0  0  0  0
   48.2230   30.5420   36.0540 C   0  0  0  0  0  0  0  0  0  0  0  0
   47.2570   33.5230   41.2230 O   0  0  0  0  0  0  0  0  0  0  0  0
   47.3490   34.7070   41.9960 C   0  0  0  0  0  0  0  0  0  0  0  0
   48.1950   35.5690   41.6280 O   0  0  0  0  0  0  0  0  0  0  0  0
   46.4680   34.7870   43.1110 C   0  0  0  0  0  0  0  0  0  0  0  0
   45.5880   35.8310   43.0800 C   0  0  0  0  0  0  0  0  0  0  0  0
   44.6870   35.9840   44.1310 C   0  0  0  0  0  0  0  0  0  0  0  0
   44.7290   35.0810   45.1420 N   0  0  0  0  0  0  0  0  0  0  0  0
   45.6100   34.0710   45.1290 C   0  0  0  0  0  0  0  0  0  0  0  0
   46.4670   33.9350   44.1190 N   0  0  0  0  0  0  0  0  0  0  0  0
   45.4950   36.5960   42.3020 H   0  0  0  0  0  0  0  0  0  0  0  0
   43.9630   36.7970   44.1610 H   0  0  0  0  0  0  0  0  0  0  0  0
   45.5990   33.3750   45.9670 H   0  0  0  0  0  0  0  0  0  0  0  0
  1 18  1  0  0  0  0
  2  6  1  0  0  0  0
  2  1  2  0  0  0  0
  3  4  2  0  0  0  0
  3  2  1  0  0  0  0
  4  5  1  0  0  0  0
  5  1  1  0  0  0  0
  7  3  1  0  0  0  0
  8 11  1  6  0  0  0
  8  9  1  0  0  0  0
  8  4  1  0  0  0  0
  9 13  1  0  0  0  0
 10 14  1  6  0  0  0
 10  8  1  0  0  0  0
 10 15  1  0  0  0  0
 10  9  1  0  0  0  0
 12  9  1  0  0  0  0
 16 15  1  0  0  0  0
 17 16  1  0  0  0  0
 17 15  1  0  0  0  0
 18 19  1  0  0  0  0
 19 21  1  0  0  0  0
 20 19  2  0  0  0  0
 21 26  1  0  0  0  0
 22 21  2  0  0  0  0
 22 23  1  0  0  0  0
 23 28  1  0  0  0  0
 23 24  2  0  0  0  0
 25 24  1  0  0  0  0
 25 29  1  0  0  0  0
 26 25  2  0  0  0  0
 27 22  1  0  0  0  0
M  END
>  <minimizedAffinity>
-4.33123732

>  <minimizedRMSD>
0.105909646

$$$$
