
 OpenBabel03252509213D

 19 21  0  0  0  0  0  0  0  0999 V2000
   44.9360   34.2720   43.9740 C   0  0  0  0  0  0  0  0  0  0  0  0
   45.5390   34.7370   42.7790 C   0  0  0  0  0  0  0  0  0  0  0  0
   46.8980   34.4430   42.6600 C   0  0  0  0  0  0  0  0  0  0  0  0
   47.5730   33.7510   43.6480 N   0  0  0  0  0  0  0  0  0  0  0  0
   46.9380   33.3370   44.7590 C   0  0  0  0  0  0  0  0  0  0  0  0
   45.6310   33.6000   44.9130 N   0  0  0  0  0  0  0  0  0  0  0  0
   43.8970   34.4750   44.1090 H   0  0  0  0  0  0  0  0  0  0  0  0
   47.6200   32.8160   45.4140 H   0  0  0  0  0  0  0  0  0  0  0  0
   47.5710   34.8390   41.3660 C   0  0  0  0  0  0  0  0  0  0  0  0
   48.8350   35.6660   41.6340 C   0  0  0  0  0  0  0  0  0  0  0  0
   48.8310   34.2170   41.0500 C   0  0  0  0  0  0  0  0  0  0  0  0
   46.9080   35.4400   40.7260 H   0  0  0  0  0  0  0  0  0  0  0  0
   49.1060   36.4680   40.9380 H   0  0  0  0  0  0  0  0  0  0  0  0
   49.1640   35.7650   42.6680 H   0  0  0  0  0  0  0  0  0  0  0  0
   49.1480   34.1880   39.9710 H   0  0  0  0  0  0  0  0  0  0  0  0
   49.3420   33.4850   41.6870 H   0  0  0  0  0  0  0  0  0  0  0  0
   44.8230   35.4720   41.7270 C   0  0  0  0  0  3  0  0  0  0  0  0
   44.0590   34.5810   40.7690 C   0  0  0  0  0  2  0  0  0  0  0  0
   43.3410   35.5220   41.6990 C   0  0  0  0  0  2  0  0  0  0  0  0
  1  7  1  0  0  0  0
  1  6  1  0  0  0  0
  2  1  2  0  0  0  0
  3  2  1  0  0  0  0
  3  4  2  0  0  0  0
  4  5  1  0  0  0  0
  5  6  2  0  0  0  0
  5  8  1  0  0  0  0
  9 10  1  0  0  0  0
  9  3  1  0  0  0  0
 10 14  1  0  0  0  0
 11  9  1  0  0  0  0
 11 10  1  0  0  0  0
 11 16  1  0  0  0  0
 12  9  1  0  0  0  0
 13 10  1  0  0  0  0
 15 11  1  0  0  0  0
 17  2  1  0  0  0  0
 18 19  1  0  0  0  0
 18 17  1  0  0  0  0
 19 17  1  0  0  0  0
M  END
>  <minimizedAffinity>
-3.86524177

>  <minimizedRMSD>
1.34088588

$$$$
