
 OpenBabel03252509243D

 21 23  0  0  1  0  0  0  0  0999 V2000
   44.5340   35.6040   45.0200 C   0  0  0  0  0  0  0  0  0  0  0  0
   45.0940   35.6800   43.7270 C   0  0  0  0  0  0  0  0  0  0  0  0
   46.0300   34.7290   43.4330 C   0  0  0  0  0  0  0  0  0  0  0  0
   46.3890   33.7630   44.3670 N   0  0  0  0  0  0  0  0  0  0  0  0
   45.8290   33.7330   45.5810 C   0  0  0  0  0  0  0  0  0  0  0  0
   44.8890   34.6660   45.9090 N   0  0  0  0  0  0  0  0  0  0  0  0
   43.7870   36.3410   45.2880 H   0  0  0  0  0  0  0  0  0  0  0  0
   46.2120   32.9280   46.1880 H   0  0  0  0  0  0  0  0  0  0  0  0
   46.6140   34.6780   42.0430 C   0  0  1  0  0  0  0  0  0  0  0  0
   48.0290   35.3110   42.0350 C   0  0  0  0  0  0  0  0  0  0  0  0
   47.7040   33.8120   41.7780 C   0  0  2  0  0  0  0  0  0  0  0  0
   45.9550   35.0830   41.2540 H   0  0  0  0  0  0  0  0  0  0  0  0
   48.2490   35.9230   41.1660 H   0  0  0  0  0  0  0  0  0  0  0  0
   48.5100   35.5650   42.9730 H   0  0  0  0  0  0  0  0  0  0  0  0
   48.0850   33.1480   42.5840 H   0  0  0  0  0  0  0  0  0  0  0  0
   47.9270   33.3060   40.3770 C   0  0  0  0  0  0  0  0  0  0  0  0
   46.9160   33.4960   39.3190 C   0  0  0  0  0  0  0  0  0  0  0  0
   48.1110   34.3980   39.3060 C   0  0  0  0  0  0  0  0  0  0  0  0
   44.7390   36.7000   42.8010 N   0  0  0  0  0  0  0  0  0  0  0  0
   44.3600   36.6530   41.8610 H   0  0  0  0  0  0  0  0  0  0  0  0
   44.8570   37.7190   43.0490 H   0  0  0  0  0  0  0  0  0  0  0  0
  1  7  1  0  0  0  0
  1  6  1  0  0  0  0
  2  1  2  0  0  0  0
  3  2  1  0  0  0  0
  3  4  2  0  0  0  0
  4  5  1  0  0  0  0
  5  6  2  0  0  0  0
  5  8  1  0  0  0  0
  9 12  1  6  0  0  0
  9  3  1  0  0  0  0
 10  9  1  0  0  0  0
 10 14  1  0  0  0  0
 11 10  1  0  0  0  0
 11  9  1  0  0  0  0
 11 15  1  1  0  0  0
 13 10  1  0  0  0  0
 16 11  1  0  0  0  0
 17 16  1  0  0  0  0
 18 17  1  0  0  0  0
 18 16  1  0  0  0  0
 19 21  1  0  0  0  0
 19  2  1  0  0  0  0
 20 19  1  0  0  0  0
M  END
>  <minimizedAffinity>
-4.47439671

>  <minimizedRMSD>
0.497384548

$$$$
