
 OpenBabel03252509213D

 19 21  0  0  0  0  0  0  0  0999 V2000
   45.1690   34.4960   44.9080 C   0  0  0  0  0  0  0  0  0  0  0  0
   45.9670   34.5170   43.7370 C   0  0  0  0  0  0  0  0  0  0  0  0
   47.0740   33.6690   43.7720 C   0  0  0  0  0  0  0  0  0  0  0  0
   47.3440   32.8830   44.8770 N   0  0  0  0  0  0  0  0  0  0  0  0
   46.5430   32.9110   45.9570 C   0  0  0  0  0  0  0  0  0  0  0  0
   45.4670   33.7140   45.9640 N   0  0  0  0  0  0  0  0  0  0  0  0
   44.3110   35.1300   44.9270 H   0  0  0  0  0  0  0  0  0  0  0  0
   46.9070   32.2350   46.7170 H   0  0  0  0  0  0  0  0  0  0  0  0
   47.9110   33.5870   42.5160 C   0  0  0  0  0  0  0  0  0  0  0  0
   49.2250   34.3630   42.6780 C   0  0  0  0  0  0  0  0  0  0  0  0
   49.1210   32.8070   42.5680 C   0  0  0  0  0  0  0  0  0  0  0  0
   47.3830   34.0020   41.6440 H   0  0  0  0  0  0  0  0  0  0  0  0
   49.6480   34.8820   41.8120 H   0  0  0  0  0  0  0  0  0  0  0  0
   49.4590   34.7580   43.6660 H   0  0  0  0  0  0  0  0  0  0  0  0
   49.5380   32.4170   41.5980 H   0  0  0  0  0  0  0  0  0  0  0  0
   49.4840   32.2790   43.4570 H   0  0  0  0  0  0  0  0  0  0  0  0
   45.6820   35.3510   42.5610 C   0  0  0  0  0  3  0  0  0  0  0  0
   44.7020   34.7240   41.5900 C   0  0  0  0  0  2  0  0  0  0  0  0
   44.3470   35.9680   42.3630 C   0  0  0  0  0  2  0  0  0  0  0  0
  1  7  1  0  0  0  0
  1  6  1  0  0  0  0
  2  3  1  0  0  0  0
  2  1  2  0  0  0  0
  3  4  2  0  0  0  0
  4  5  1  0  0  0  0
  5  6  2  0  0  0  0
  5  8  1  0  0  0  0
  9 11  1  0  0  0  0
  9 10  1  0  0  0  0
  9  3  1  0  0  0  0
 10 14  1  0  0  0  0
 11 10  1  0  0  0  0
 11 16  1  0  0  0  0
 12  9  1  0  0  0  0
 13 10  1  0  0  0  0
 15 11  1  0  0  0  0
 17  2  1  0  0  0  0
 18 19  1  0  0  0  0
 18 17  1  0  0  0  0
 19 17  1  0  0  0  0
M  END
>  <minimizedAffinity>
-3.67969656

>  <minimizedRMSD>
1.67137432

$$$$
