
 OpenBabel03242512393D

 28 31  0  0  0  0  0  0  0  0999 V2000
   34.6380   29.0920   39.2920 C   0  0  0  0  0  0  0  0  0  0  0  0
   35.9100   29.6150   39.5650 C   0  0  0  0  0  0  0  0  0  0  0  0
   36.7370   29.8920   38.5070 C   0  0  0  0  0  0  0  0  0  0  0  0
   36.3960   29.6860   37.1780 C   0  0  0  0  0  0  0  0  0  0  0  0
   37.0340   29.8840   36.0110 N   0  0  0  0  0  0  0  0  0  0  0  0
   36.2430   29.5170   35.0020 C   0  0  0  0  0  0  0  0  0  0  0  0
   35.0540   29.0680   35.5470 C   0  0  0  0  0  0  0  0  0  0  0  0
   35.1290   29.1650   36.9260 C   0  0  0  0  0  0  0  0  0  0  0  0
   34.2830   28.8800   37.9620 C   0  0  0  0  0  0  0  0  0  0  0  0
   34.0010   28.8790   40.1220 H   0  0  0  0  0  0  0  0  0  0  0  0
   37.7540   30.3040   38.6160 H   0  0  0  0  0  0  0  0  0  0  0  0
   37.9930   30.2610   35.8850 H   0  0  0  0  0  0  0  0  0  0  0  0
   36.3950   29.5250   33.9260 H   0  0  0  0  0  0  0  0  0  0  0  0
   34.1420   28.6790   35.0730 H   0  0  0  0  0  0  0  0  0  0  0  0
   33.3160   28.4810   37.7350 H   0  0  0  0  0  0  0  0  0  0  0  0
   36.3910   29.8890   40.9230 C   0  0  0  0  0  0  0  0  0  0  0  0
   36.1300   31.0640   41.3150 O   0  0  0  0  0  0  0  0  0  0  0  0
   37.0800   28.8790   41.6730 C   0  0  0  0  0  0  0  0  0  0  0  0
   38.1560   29.3240   42.4520 C   0  0  0  0  0  0  0  0  0  0  0  0
   38.8350   28.3390   43.1910 C   0  0  0  0  0  0  0  0  0  0  0  0
   38.4110   27.0450   43.1040 N   0  0  0  0  0  0  0  0  0  0  0  0
   37.3630   26.6850   42.3320 C   0  0  0  0  0  0  0  0  0  0  0  0
   36.7000   27.6150   41.6170 N   0  0  0  0  0  0  0  0  0  0  0  0
   38.5020   30.3430   42.5300 H   0  0  0  0  0  0  0  0  0  0  0  0
   39.6720   28.6110   43.8120 H   0  0  0  0  0  0  0  0  0  0  0  0
   36.9040   25.2650   42.2410 C   0  0  0  0  0  3  0  0  0  0  0  0
   37.9050   24.1720   42.1900 C   0  0  0  0  0  2  0  0  0  0  0  0
   37.1410   24.5280   40.9430 C   0  0  0  0  0  2  0  0  0  0  0  0
  1  2  1  0  0  0  0
  1 10  1  0  0  0  0
  2 16  1  0  0  0  0
  3 11  1  0  0  0  0
  3  2  2  0  0  0  0
  4  3  1  0  0  0  0
  5  4  1  0  0  0  0
  6  7  2  0  0  0  0
  6  5  1  0  0  0  0
  7  8  1  0  0  0  0
  8  4  2  0  0  0  0
  8  9  1  0  0  0  0
  9  1  2  0  0  0  0
 12  5  1  0  0  0  0
 13  6  1  0  0  0  0
 14  7  1  0  0  0  0
 15  9  1  0  0  0  0
 16 17  2  0  0  0  0
 16 18  1  0  0  0  0
 18 19  1  0  0  0  0
 19 24  1  0  0  0  0
 19 20  2  0  0  0  0
 20 25  1  0  0  0  0
 21 20  1  0  0  0  0
 22 21  2  0  0  0  0
 23 18  2  0  0  0  0
 23 22  1  0  0  0  0
 26 22  1  0  0  0  0
 27 26  1  0  0  0  0
 28 27  1  0  0  0  0
 28 26  1  0  0  0  0
M  END
>  <minimizedAffinity>
-5.75356817

$$$$

 OpenBabel03242512393D

 28 31  0  0  0  0  0  0  0  0999 V2000
   36.7460   29.8270   38.4160 C   0  0  0  0  0  0  0  0  0  0  0  0
   35.9220   29.6230   39.5320 C   0  0  0  0  0  0  0  0  0  0  0  0
   34.6490   29.1580   39.3220 C   0  0  0  0  0  0  0  0  0  0  0  0
   34.1220   28.8750   38.0710 C   0  0  0  0  0  0  0  0  0  0  0  0
   32.9310   28.4190   37.6430 N   0  0  0  0  0  0  0  0  0  0  0  0
   32.9430   28.3170   36.3130 C   0  0  0  0  0  0  0  0  0  0  0  0
   34.1900   28.7230   35.8760 C   0  0  0  0  0  0  0  0  0  0  0  0
   34.9540   29.0830   36.9730 C   0  0  0  0  0  0  0  0  0  0  0  0
   36.2280   29.5450   37.1530 C   0  0  0  0  0  0  0  0  0  0  0  0
   37.7350   30.1900   38.5890 H   0  0  0  0  0  0  0  0  0  0  0  0
   33.9250   28.9670   40.1310 H   0  0  0  0  0  0  0  0  0  0  0  0
   32.1120   28.1760   38.2330 H   0  0  0  0  0  0  0  0  0  0  0  0
   32.1830   27.9910   35.6070 H   0  0  0  0  0  0  0  0  0  0  0  0
   34.6160   28.7930   34.8650 H   0  0  0  0  0  0  0  0  0  0  0  0
   36.8430   29.6960   36.2900 H   0  0  0  0  0  0  0  0  0  0  0  0
   36.3590   29.8740   40.9090 C   0  0  0  0  0  0  0  0  0  0  0  0
   36.0530   31.0300   41.3250 O   0  0  0  0  0  0  0  0  0  0  0  0
   37.0580   28.8650   41.6510 C   0  0  0  0  0  0  0  0  0  0  0  0
   38.1410   29.3120   42.4200 C   0  0  0  0  0  0  0  0  0  0  0  0
   38.8300   28.3280   43.1510 C   0  0  0  0  0  0  0  0  0  0  0  0
   38.4100   27.0320   43.0650 N   0  0  0  0  0  0  0  0  0  0  0  0
   37.3550   26.6710   42.3030 C   0  0  0  0  0  0  0  0  0  0  0  0
   36.6820   27.6000   41.5960 N   0  0  0  0  0  0  0  0  0  0  0  0
   38.4850   30.3320   42.4960 H   0  0  0  0  0  0  0  0  0  0  0  0
   39.6730   28.6010   43.7640 H   0  0  0  0  0  0  0  0  0  0  0  0
   36.8990   25.2500   42.2150 C   0  0  0  0  0  3  0  0  0  0  0  0
   37.9030   24.1580   42.1670 C   0  0  0  0  0  2  0  0  0  0  0  0
   37.1400   24.5110   40.9180 C   0  0  0  0  0  2  0  0  0  0  0  0
  1 10  1  0  0  0  0
  1  2  1  0  0  0  0
  2 16  1  0  0  0  0
  3  2  2  0  0  0  0
  3 11  1  0  0  0  0
  4  3  1  0  0  0  0
  5  4  1  0  0  0  0
  5 12  1  0  0  0  0
  6  5  1  0  0  0  0
  7  6  2  0  0  0  0
  7  8  1  0  0  0  0
  8  9  1  0  0  0  0
  8  4  2  0  0  0  0
  9  1  2  0  0  0  0
 13  6  1  0  0  0  0
 14  7  1  0  0  0  0
 15  9  1  0  0  0  0
 16 17  2  0  0  0  0
 16 18  1  0  0  0  0
 18 19  1  0  0  0  0
 19 24  1  0  0  0  0
 19 20  2  0  0  0  0
 20 25  1  0  0  0  0
 21 20  1  0  0  0  0
 22 21  2  0  0  0  0
 23 18  2  0  0  0  0
 23 22  1  0  0  0  0
 26 22  1  0  0  0  0
 27 26  1  0  0  0  0
 28 27  1  0  0  0  0
 28 26  1  0  0  0  0
M  END
>  <minimizedAffinity>
-5.62081194

$$$$

 OpenBabel03242512393D

 28 31  0  0  0  0  0  0  0  0999 V2000
   36.6590   26.6530   40.2150 C   0  0  0  0  0  0  0  0  0  0  0  0
   37.0500   26.5640   41.5590 C   0  0  0  0  0  0  0  0  0  0  0  0
   37.5320   25.3650   42.0150 C   0  0  0  0  0  0  0  0  0  0  0  0
   37.6590   24.2280   41.2310 C   0  0  0  0  0  0  0  0  0  0  0  0
   38.0980   22.9790   41.4640 N   0  0  0  0  0  0  0  0  0  0  0  0
   38.0120   22.2580   40.3450 C   0  0  0  0  0  0  0  0  0  0  0  0
   37.4980   23.0800   39.3590 C   0  0  0  0  0  0  0  0  0  0  0  0
   37.2650   24.3350   39.8980 C   0  0  0  0  0  0  0  0  0  0  0  0
   36.7810   25.5190   39.4160 C   0  0  0  0  0  0  0  0  0  0  0  0
   36.2840   27.5910   39.8680 H   0  0  0  0  0  0  0  0  0  0  0  0
   37.8640   25.1920   43.0520 H   0  0  0  0  0  0  0  0  0  0  0  0
   38.4540   22.6040   42.3650 H   0  0  0  0  0  0  0  0  0  0  0  0
   38.2660   21.2230   40.1310 H   0  0  0  0  0  0  0  0  0  0  0  0
   37.2690   22.8880   38.3010 H   0  0  0  0  0  0  0  0  0  0  0  0
   36.4870   25.5680   38.3880 H   0  0  0  0  0  0  0  0  0  0  0  0
   36.9770   27.6930   42.4920 C   0  0  0  0  0  0  0  0  0  0  0  0
   36.2480   27.4580   43.5000 O   0  0  0  0  0  0  0  0  0  0  0  0
   37.6870   28.9110   42.2260 C   0  0  0  0  0  0  0  0  0  0  0  0
   38.9160   29.0570   42.8830 C   0  0  0  0  0  0  0  0  0  0  0  0
   39.6180   30.2490   42.6250 C   0  0  0  0  0  0  0  0  0  0  0  0
   39.0690   31.1620   41.7730 N   0  0  0  0  0  0  0  0  0  0  0  0
   37.8780   30.9550   41.1720 C   0  0  0  0  0  0  0  0  0  0  0  0
   37.1900   29.8200   41.4060 N   0  0  0  0  0  0  0  0  0  0  0  0
   39.3610   28.3440   43.5590 H   0  0  0  0  0  0  0  0  0  0  0  0
   40.5700   30.4270   43.0960 H   0  0  0  0  0  0  0  0  0  0  0  0
   37.2820   31.9600   40.2390 C   0  0  0  0  0  3  0  0  0  0  0  0
   36.9100   31.5530   38.8620 C   0  0  0  0  0  2  0  0  0  0  0  0
   38.1220   32.4210   39.0690 C   0  0  0  0  0  2  0  0  0  0  0  0
  1  2  1  0  0  0  0
  2  3  2  0  0  0  0
  2 16  1  0  0  0  0
  3 11  1  0  0  0  0
  4  5  1  0  0  0  0
  4  3  1  0  0  0  0
  5 12  1  0  0  0  0
  6  5  1  0  0  0  0
  7  8  1  0  0  0  0
  7  6  2  0  0  0  0
  8  4  2  0  0  0  0
  9  8  1  0  0  0  0
  9  1  2  0  0  0  0
 10  1  1  0  0  0  0
 13  6  1  0  0  0  0
 14  7  1  0  0  0  0
 15  9  1  0  0  0  0
 16 17  2  0  0  0  0
 18 16  1  0  0  0  0
 18 19  1  0  0  0  0
 19 24  1  0  0  0  0
 20 19  2  0  0  0  0
 20 25  1  0  0  0  0
 21 20  1  0  0  0  0
 22 23  1  0  0  0  0
 22 21  2  0  0  0  0
 23 18  2  0  0  0  0
 26 22  1  0  0  0  0
 27 28  1  0  0  0  0
 27 26  1  0  0  0  0
 28 26  1  0  0  0  0
M  END
>  <minimizedAffinity>
-5.52290297

$$$$

 OpenBabel03242512393D

 28 31  0  0  0  0  0  0  0  0999 V2000
   35.7950   28.7740   40.8840 C   0  0  0  0  0  0  0  0  0  0  0  0
   36.7930   28.5230   41.8350 C   0  0  0  0  0  0  0  0  0  0  0  0
   37.7870   29.4550   41.9930 C   0  0  0  0  0  0  0  0  0  0  0  0
   37.8680   30.6350   41.2700 C   0  0  0  0  0  0  0  0  0  0  0  0
   38.7310   31.6670   41.2640 N   0  0  0  0  0  0  0  0  0  0  0  0
   38.3430   32.5690   40.3610 C   0  0  0  0  0  0  0  0  0  0  0  0
   37.1870   32.0940   39.7690 C   0  0  0  0  0  0  0  0  0  0  0  0
   36.8680   30.8690   40.3290 C   0  0  0  0  0  0  0  0  0  0  0  0
   35.8640   29.9570   40.1500 C   0  0  0  0  0  0  0  0  0  0  0  0
   35.0260   28.0430   40.7670 H   0  0  0  0  0  0  0  0  0  0  0  0
   38.6160   29.3500   42.7120 H   0  0  0  0  0  0  0  0  0  0  0  0
   39.5770   31.7710   41.8570 H   0  0  0  0  0  0  0  0  0  0  0  0
   38.7700   33.5230   40.0640 H   0  0  0  0  0  0  0  0  0  0  0  0
   36.5470   32.5210   38.9840 H   0  0  0  0  0  0  0  0  0  0  0  0
   35.1110   30.1650   39.4190 H   0  0  0  0  0  0  0  0  0  0  0  0
   36.8200   27.3190   42.6720 C   0  0  0  0  0  0  0  0  0  0  0  0
   36.0570   27.3980   43.6800 O   0  0  0  0  0  0  0  0  0  0  0  0
   37.6500   26.2030   42.3230 C   0  0  0  0  0  0  0  0  0  0  0  0
   37.0490   25.2210   41.5240 C   0  0  0  0  0  0  0  0  0  0  0  0
   37.8580   24.1240   41.1770 C   0  0  0  0  0  0  0  0  0  0  0  0
   39.1440   24.0880   41.6310 N   0  0  0  0  0  0  0  0  0  0  0  0
   39.6600   25.0710   42.3990 C   0  0  0  0  0  0  0  0  0  0  0  0
   38.9010   26.1300   42.7420 N   0  0  0  0  0  0  0  0  0  0  0  0
   36.0340   25.2370   41.1590 H   0  0  0  0  0  0  0  0  0  0  0  0
   37.4610   23.3330   40.5640 H   0  0  0  0  0  0  0  0  0  0  0  0
   41.0710   25.0250   42.8930 C   0  0  0  0  0  3  0  0  0  0  0  0
   41.7960   26.2910   43.1610 C   0  0  0  0  0  2  0  0  0  0  0  0
   42.1630   25.4760   41.9500 C   0  0  0  0  0  2  0  0  0  0  0  0
  1  2  1  0  0  0  0
  2  3  2  0  0  0  0
  2 16  1  0  0  0  0
  3 11  1  0  0  0  0
  4  3  1  0  0  0  0
  5  4  1  0  0  0  0
  5 12  1  0  0  0  0
  6  5  1  0  0  0  0
  7  8  1  0  0  0  0
  7  6  2  0  0  0  0
  8  4  2  0  0  0  0
  9  8  1  0  0  0  0
  9  1  2  0  0  0  0
 10  1  1  0  0  0  0
 13  6  1  0  0  0  0
 14  7  1  0  0  0  0
 15  9  1  0  0  0  0
 16 17  2  0  0  0  0
 18 16  1  0  0  0  0
 18 23  1  0  0  0  0
 19 18  2  0  0  0  0
 20 19  1  0  0  0  0
 20 21  2  0  0  0  0
 21 22  1  0  0  0  0
 22 23  2  0  0  0  0
 22 26  1  0  0  0  0
 24 19  1  0  0  0  0
 25 20  1  0  0  0  0
 26 27  1  0  0  0  0
 28 26  1  0  0  0  0
 28 27  1  0  0  0  0
M  END
>  <minimizedAffinity>
-5.4670949

$$$$

 OpenBabel03242512393D

 28 31  0  0  0  0  0  0  0  0999 V2000
   35.5130   29.6990   38.9850 C   0  0  0  0  0  0  0  0  0  0  0  0
   36.6230   30.5240   38.7570 C   0  0  0  0  0  0  0  0  0  0  0  0
   37.1780   30.5320   37.5030 C   0  0  0  0  0  0  0  0  0  0  0  0
   36.7100   29.7730   36.4410 C   0  0  0  0  0  0  0  0  0  0  0  0
   37.0890   29.6310   35.1590 N   0  0  0  0  0  0  0  0  0  0  0  0
   36.2840   28.7610   34.5480 C   0  0  0  0  0  0  0  0  0  0  0  0
   35.3550   28.3310   35.4770 C   0  0  0  0  0  0  0  0  0  0  0  0
   35.6060   28.9590   36.6860 C   0  0  0  0  0  0  0  0  0  0  0  0
   35.0320   28.9310   37.9260 C   0  0  0  0  0  0  0  0  0  0  0  0
   35.0870   29.6980   39.9640 H   0  0  0  0  0  0  0  0  0  0  0  0
   38.0520   31.1430   37.2240 H   0  0  0  0  0  0  0  0  0  0  0  0
   37.8820   30.1110   34.6890 H   0  0  0  0  0  0  0  0  0  0  0  0
   36.2660   28.3870   33.5270 H   0  0  0  0  0  0  0  0  0  0  0  0
   34.5200   27.6210   35.3920 H   0  0  0  0  0  0  0  0  0  0  0  0
   34.1850   28.2950   38.0820 H   0  0  0  0  0  0  0  0  0  0  0  0
   37.2100   31.3830   39.7910 C   0  0  0  0  0  0  0  0  0  0  0  0
   36.9400   32.6090   39.6310 O   0  0  0  0  0  0  0  0  0  0  0  0
   38.0010   30.8210   40.8470 C   0  0  0  0  0  0  0  0  0  0  0  0
   39.0870   31.5950   41.2760 C   0  0  0  0  0  0  0  0  0  0  0  0
   39.8660   31.0500   42.3130 C   0  0  0  0  0  0  0  0  0  0  0  0
   39.5210   29.8320   42.8210 N   0  0  0  0  0  0  0  0  0  0  0  0
   38.4580   29.1380   42.3600 C   0  0  0  0  0  0  0  0  0  0  0  0
   37.7000   29.6440   41.3680 N   0  0  0  0  0  0  0  0  0  0  0  0
   39.3710   32.5580   40.8820 H   0  0  0  0  0  0  0  0  0  0  0  0
   40.7160   31.5920   42.6910 H   0  0  0  0  0  0  0  0  0  0  0  0
   38.0850   27.8040   42.9230 C   0  0  0  0  0  3  0  0  0  0  0  0
   36.9540   27.0480   42.3320 C   0  0  0  0  0  2  0  0  0  0  0  0
   36.7820   27.6960   43.6800 C   0  0  0  0  0  2  0  0  0  0  0  0
  1 10  1  0  0  0  0
  2  1  1  0  0  0  0
  2 16  1  0  0  0  0
  3  2  2  0  0  0  0
  4  8  2  0  0  0  0
  4  3  1  0  0  0  0
  5  4  1  0  0  0  0
  6  5  1  0  0  0  0
  6  7  2  0  0  0  0
  7  8  1  0  0  0  0
  8  9  1  0  0  0  0
  9 15  1  0  0  0  0
  9  1  2  0  0  0  0
 11  3  1  0  0  0  0
 12  5  1  0  0  0  0
 13  6  1  0  0  0  0
 14  7  1  0  0  0  0
 16 18  1  0  0  0  0
 17 16  2  0  0  0  0
 18 19  2  0  0  0  0
 18 23  1  0  0  0  0
 19 20  1  0  0  0  0
 20 25  1  0  0  0  0
 20 21  2  0  0  0  0
 22 21  1  0  0  0  0
 22 26  1  0  0  0  0
 23 22  2  0  0  0  0
 24 19  1  0  0  0  0
 26 28  1  0  0  0  0
 27 26  1  0  0  0  0
 27 28  1  0  0  0  0
M  END
>  <minimizedAffinity>
-5.42446518

$$$$

 OpenBabel03242512393D

 28 31  0  0  0  0  0  0  0  0999 V2000
   35.8230   28.8020   40.8980 C   0  0  0  0  0  0  0  0  0  0  0  0
   36.8570   28.6410   41.8310 C   0  0  0  0  0  0  0  0  0  0  0  0
   37.8040   29.6290   41.9260 C   0  0  0  0  0  0  0  0  0  0  0  0
   37.8050   30.7820   41.1560 C   0  0  0  0  0  0  0  0  0  0  0  0
   38.6120   31.8550   41.0860 N   0  0  0  0  0  0  0  0  0  0  0  0
   38.1540   32.7000   40.1600 C   0  0  0  0  0  0  0  0  0  0  0  0
   37.0100   32.1430   39.6190 C   0  0  0  0  0  0  0  0  0  0  0  0
   36.7700   30.9250   40.2340 C   0  0  0  0  0  0  0  0  0  0  0  0
   35.8120   29.9570   40.1180 C   0  0  0  0  0  0  0  0  0  0  0  0
   35.0910   28.0290   40.8310 H   0  0  0  0  0  0  0  0  0  0  0  0
   38.6560   29.5960   42.6260 H   0  0  0  0  0  0  0  0  0  0  0  0
   39.4660   32.0270   41.6520 H   0  0  0  0  0  0  0  0  0  0  0  0
   38.5230   33.6620   39.8150 H   0  0  0  0  0  0  0  0  0  0  0  0
   36.3290   32.5040   38.8350 H   0  0  0  0  0  0  0  0  0  0  0  0
   35.0300   30.0970   39.4000 H   0  0  0  0  0  0  0  0  0  0  0  0
   36.9680   27.4750   42.7130 C   0  0  0  0  0  0  0  0  0  0  0  0
   36.1500   27.5030   43.6790 O   0  0  0  0  0  0  0  0  0  0  0  0
   37.9290   26.4440   42.4460 C   0  0  0  0  0  0  0  0  0  0  0  0
   39.0170   26.3810   43.3260 C   0  0  0  0  0  0  0  0  0  0  0  0
   39.9630   25.3710   43.0710 C   0  0  0  0  0  0  0  0  0  0  0  0
   39.7620   24.5380   42.0080 N   0  0  0  0  0  0  0  0  0  0  0  0
   38.6880   24.6560   41.2000 C   0  0  0  0  0  0  0  0  0  0  0  0
   37.7710   25.6170   41.4280 N   0  0  0  0  0  0  0  0  0  0  0  0
   39.1880   27.0320   44.1690 H   0  0  0  0  0  0  0  0  0  0  0  0
   40.8240   25.2650   43.7080 H   0  0  0  0  0  0  0  0  0  0  0  0
   38.4750   23.7400   40.0370 C   0  0  0  0  0  3  0  0  0  0  0  0
   37.1040   23.2750   39.7100 C   0  0  0  0  0  2  0  0  0  0  0  0
   38.0800   22.3100   40.3280 C   0  0  0  0  0  2  0  0  0  0  0  0
  1  2  1  0  0  0  0
  2  3  2  0  0  0  0
  2 16  1  0  0  0  0
  3 11  1  0  0  0  0
  4  3  1  0  0  0  0
  5  4  1  0  0  0  0
  5 12  1  0  0  0  0
  6  5  1  0  0  0  0
  7  6  2  0  0  0  0
  7  8  1  0  0  0  0
  8  4  2  0  0  0  0
  9  8  1  0  0  0  0
  9  1  2  0  0  0  0
 10  1  1  0  0  0  0
 13  6  1  0  0  0  0
 14  7  1  0  0  0  0
 15  9  1  0  0  0  0
 16 17  2  0  0  0  0
 18 16  1  0  0  0  0
 18 19  1  0  0  0  0
 19 24  1  0  0  0  0
 20 19  2  0  0  0  0
 20 25  1  0  0  0  0
 21 20  1  0  0  0  0
 22 23  1  0  0  0  0
 22 21  2  0  0  0  0
 23 18  2  0  0  0  0
 26 28  1  0  0  0  0
 26 22  1  0  0  0  0
 27 26  1  0  0  0  0
 27 28  1  0  0  0  0
M  END
>  <minimizedAffinity>
-5.41663313

$$$$

 OpenBabel03242512393D

 28 31  0  0  0  0  0  0  0  0999 V2000
   37.2910   28.6620   42.9400 C   0  0  0  0  0  0  0  0  0  0  0  0
   37.0860   29.0710   41.6150 C   0  0  0  0  0  0  0  0  0  0  0  0
   36.9190   28.1050   40.6570 C   0  0  0  0  0  0  0  0  0  0  0  0
   36.9400   26.7420   40.9150 C   0  0  0  0  0  0  0  0  0  0  0  0
   36.7990   25.6470   40.1480 N   0  0  0  0  0  0  0  0  0  0  0  0
   36.9010   24.5540   40.9060 C   0  0  0  0  0  0  0  0  0  0  0  0
   37.1150   24.9690   42.2080 C   0  0  0  0  0  0  0  0  0  0  0  0
   37.1450   26.3540   42.2370 C   0  0  0  0  0  0  0  0  0  0  0  0
   37.3140   27.2960   43.2140 C   0  0  0  0  0  0  0  0  0  0  0  0
   37.4210   29.4210   43.6800 H   0  0  0  0  0  0  0  0  0  0  0  0
   36.7540   28.3230   39.5890 H   0  0  0  0  0  0  0  0  0  0  0  0
   36.6360   25.6240   39.1230 H   0  0  0  0  0  0  0  0  0  0  0  0
   36.8430   23.4970   40.6610 H   0  0  0  0  0  0  0  0  0  0  0  0
   37.2540   24.3990   43.1370 H   0  0  0  0  0  0  0  0  0  0  0  0
   37.4700   26.9650   44.2200 H   0  0  0  0  0  0  0  0  0  0  0  0
   37.0330   30.4790   41.2100 C   0  0  0  0  0  0  0  0  0  0  0  0
   35.8540   30.8940   41.0080 O   0  0  0  0  0  0  0  0  0  0  0  0
   38.2360   31.2490   41.0750 C   0  0  0  0  0  0  0  0  0  0  0  0
   38.0880   32.5190   40.5020 C   0  0  0  0  0  0  0  0  0  0  0  0
   39.2640   33.2790   40.3680 C   0  0  0  0  0  0  0  0  0  0  0  0
   40.4430   32.7430   40.7950 N   0  0  0  0  0  0  0  0  0  0  0  0
   40.5140   31.5100   41.3410 C   0  0  0  0  0  0  0  0  0  0  0  0
   39.3980   30.7660   41.4770 N   0  0  0  0  0  0  0  0  0  0  0  0
   37.1620   32.9540   40.1600 H   0  0  0  0  0  0  0  0  0  0  0  0
   39.2230   34.2650   39.9360 H   0  0  0  0  0  0  0  0  0  0  0  0
   41.8100   30.9290   41.8070 C   0  0  0  0  0  3  0  0  0  0  0  0
   41.8050   29.8170   42.7890 C   0  0  0  0  0  2  0  0  0  0  0  0
   42.2280   31.1910   43.2350 C   0  0  0  0  0  2  0  0  0  0  0  0
  1  9  1  0  0  0  0
  1 10  1  0  0  0  0
  2  1  2  0  0  0  0
  3  4  2  0  0  0  0
  3  2  1  0  0  0  0
  4  8  1  0  0  0  0
  5  6  1  0  0  0  0
  5  4  1  0  0  0  0
  6  7  2  0  0  0  0
  7  8  1  0  0  0  0
  7 14  1  0  0  0  0
  8  9  2  0  0  0  0
  9 15  1  0  0  0  0
 11  3  1  0  0  0  0
 12  5  1  0  0  0  0
 13  6  1  0  0  0  0
 16  2  1  0  0  0  0
 17 16  2  0  0  0  0
 18 16  1  0  0  0  0
 18 23  1  0  0  0  0
 19 18  2  0  0  0  0
 20 19  1  0  0  0  0
 20 21  2  0  0  0  0
 21 22  1  0  0  0  0
 22 23  2  0  0  0  0
 22 26  1  0  0  0  0
 24 19  1  0  0  0  0
 25 20  1  0  0  0  0
 26 27  1  0  0  0  0
 26 28  1  0  0  0  0
 27 28  1  0  0  0  0
M  END
>  <minimizedAffinity>
-5.34609032

$$$$

 OpenBabel03242512393D

 28 31  0  0  0  0  0  0  0  0999 V2000
   36.9740   25.7020   42.5390 C   0  0  0  0  0  0  0  0  0  0  0  0
   37.8890   26.5680   41.9240 C   0  0  0  0  0  0  0  0  0  0  0  0
   38.6770   26.0700   40.9190 C   0  0  0  0  0  0  0  0  0  0  0  0
   38.6270   24.7600   40.4680 C   0  0  0  0  0  0  0  0  0  0  0  0
   39.2880   24.0750   39.5180 N   0  0  0  0  0  0  0  0  0  0  0  0
   38.8490   22.8160   39.4860 C   0  0  0  0  0  0  0  0  0  0  0  0
   37.8690   22.6930   40.4540 C   0  0  0  0  0  0  0  0  0  0  0  0
   37.7120   23.9130   41.0900 C   0  0  0  0  0  0  0  0  0  0  0  0
   36.9130   24.3830   42.0950 C   0  0  0  0  0  0  0  0  0  0  0  0
   36.3640   26.0980   43.3210 H   0  0  0  0  0  0  0  0  0  0  0  0
   39.4260   26.6690   40.3750 H   0  0  0  0  0  0  0  0  0  0  0  0
   40.0310   24.4430   38.8920 H   0  0  0  0  0  0  0  0  0  0  0  0
   39.1300   21.9690   38.8670 H   0  0  0  0  0  0  0  0  0  0  0  0
   37.2550   21.8340   40.7580 H   0  0  0  0  0  0  0  0  0  0  0  0
   36.2200   23.7070   42.5540 H   0  0  0  0  0  0  0  0  0  0  0  0
   38.0350   27.9790   42.2990 C   0  0  0  0  0  0  0  0  0  0  0  0
   38.8120   28.1530   43.2830 O   0  0  0  0  0  0  0  0  0  0  0  0
   37.3390   29.0040   41.5770 C   0  0  0  0  0  0  0  0  0  0  0  0
   36.0720   28.6550   41.0900 C   0  0  0  0  0  0  0  0  0  0  0  0
   35.3830   29.6570   40.3820 C   0  0  0  0  0  0  0  0  0  0  0  0
   35.9800   30.8740   40.2200 N   0  0  0  0  0  0  0  0  0  0  0  0
   37.2060   31.1420   40.7180 C   0  0  0  0  0  0  0  0  0  0  0  0
   37.8810   30.1960   41.3990 N   0  0  0  0  0  0  0  0  0  0  0  0
   35.5900   27.6980   41.2100 H   0  0  0  0  0  0  0  0  0  0  0  0
   34.4050   29.4580   39.9790 H   0  0  0  0  0  0  0  0  0  0  0  0
   37.8520   32.4780   40.5370 C   0  0  0  0  0  3  0  0  0  0  0  0
   37.3640   33.3930   39.4760 C   0  0  0  0  0  2  0  0  0  0  0  0
   38.6860   32.6960   39.2960 C   0  0  0  0  0  2  0  0  0  0  0  0
  1 10  1  0  0  0  0
  2 16  1  0  0  0  0
  2  1  2  0  0  0  0
  3  2  1  0  0  0  0
  4  3  2  0  0  0  0
  4  8  1  0  0  0  0
  5  4  1  0  0  0  0
  6  5  1  0  0  0  0
  6  7  2  0  0  0  0
  7 14  1  0  0  0  0
  7  8  1  0  0  0  0
  8  9  2  0  0  0  0
  9  1  1  0  0  0  0
  9 15  1  0  0  0  0
 11  3  1  0  0  0  0
 12  5  1  0  0  0  0
 13  6  1  0  0  0  0
 16 17  2  0  0  0  0
 18 16  1  0  0  0  0
 19 24  1  0  0  0  0
 19 18  2  0  0  0  0
 20 19  1  0  0  0  0
 21 20  2  0  0  0  0
 21 22  1  0  0  0  0
 22 23  2  0  0  0  0
 23 18  1  0  0  0  0
 25 20  1  0  0  0  0
 26 22  1  0  0  0  0
 27 26  1  0  0  0  0
 28 27  1  0  0  0  0
 28 26  1  0  0  0  0
M  END
>  <minimizedAffinity>
-5.32222462

$$$$

 OpenBabel03242512393D

 28 31  0  0  0  0  0  0  0  0999 V2000
   37.4910   28.3850   39.2030 C   0  0  0  0  0  0  0  0  0  0  0  0
   37.3160   29.6990   39.6560 C   0  0  0  0  0  0  0  0  0  0  0  0
   37.0720   29.8980   40.9900 C   0  0  0  0  0  0  0  0  0  0  0  0
   36.9870   28.8780   41.9260 C   0  0  0  0  0  0  0  0  0  0  0  0
   36.7650   28.8450   43.2510 N   0  0  0  0  0  0  0  0  0  0  0  0
   36.7880   27.5810   43.6780 C   0  0  0  0  0  0  0  0  0  0  0  0
   37.0360   26.7770   42.5810 C   0  0  0  0  0  0  0  0  0  0  0  0
   37.1650   27.5770   41.4580 C   0  0  0  0  0  0  0  0  0  0  0  0
   37.4100   27.3490   40.1320 C   0  0  0  0  0  0  0  0  0  0  0  0
   37.6800   28.2390   38.1620 H   0  0  0  0  0  0  0  0  0  0  0  0
   36.9180   30.8910   41.4440 H   0  0  0  0  0  0  0  0  0  0  0  0
   36.5970   29.6600   43.8730 H   0  0  0  0  0  0  0  0  0  0  0  0
   36.6540   27.1500   44.6660 H   0  0  0  0  0  0  0  0  0  0  0  0
   37.1340   25.6850   42.4900 H   0  0  0  0  0  0  0  0  0  0  0  0
   37.5410   26.3390   39.8040 H   0  0  0  0  0  0  0  0  0  0  0  0
   37.3890   30.8690   38.7730 C   0  0  0  0  0  0  0  0  0  0  0  0
   36.6490   30.7680   37.7520 O   0  0  0  0  0  0  0  0  0  0  0  0
   38.2370   31.9790   39.0990 C   0  0  0  0  0  0  0  0  0  0  0  0
   37.6070   33.0680   39.7160 C   0  0  0  0  0  0  0  0  0  0  0  0
   38.4330   34.1600   40.0400 C   0  0  0  0  0  0  0  0  0  0  0  0
   39.7620   34.0890   39.7380 N   0  0  0  0  0  0  0  0  0  0  0  0
   40.3040   33.0060   39.1420 C   0  0  0  0  0  0  0  0  0  0  0  0
   39.5290   31.9500   38.8240 N   0  0  0  0  0  0  0  0  0  0  0  0
   36.5580   33.1370   39.9600 H   0  0  0  0  0  0  0  0  0  0  0  0
   38.0150   35.0300   40.5160 H   0  0  0  0  0  0  0  0  0  0  0  0
   41.7610   32.9350   38.8140 C   0  0  0  0  0  3  0  0  0  0  0  0
   42.5930   34.1610   38.8990 C   0  0  0  0  0  2  0  0  0  0  0  0
   42.2330   33.6080   37.5460 C   0  0  0  0  0  2  0  0  0  0  0  0
  1  2  2  0  0  0  0
  1  9  1  0  0  0  0
  2  3  1  0  0  0  0
  3 11  1  0  0  0  0
  3  4  2  0  0  0  0
  4  5  1  0  0  0  0
  5  6  1  0  0  0  0
  5 12  1  0  0  0  0
  6 13  1  0  0  0  0
  7  6  2  0  0  0  0
  8  4  1  0  0  0  0
  8  7  1  0  0  0  0
  9  8  2  0  0  0  0
 10  1  1  0  0  0  0
 14  7  1  0  0  0  0
 15  9  1  0  0  0  0
 16 18  1  0  0  0  0
 16  2  1  0  0  0  0
 17 16  2  0  0  0  0
 18 19  1  0  0  0  0
 19 24  1  0  0  0  0
 19 20  2  0  0  0  0
 20 25  1  0  0  0  0
 21 20  1  0  0  0  0
 22 21  2  0  0  0  0
 23 18  2  0  0  0  0
 23 22  1  0  0  0  0
 26 27  1  0  0  0  0
 26 22  1  0  0  0  0
 28 26  1  0  0  0  0
 28 27  1  0  0  0  0
M  END
>  <minimizedAffinity>
-5.28599024

$$$$
