
 OpenBabel03252508393D

 35 38  0  0  0  0  0  0  0  0999 V2000
   45.1230   33.9550   40.7240 C   0  0  0  0  0  0  0  0  0  0  0  0
   44.0790   33.6310   39.9120 C   0  0  0  0  0  0  0  0  0  0  0  0
   44.3760   33.1170   38.6760 C   0  0  0  0  0  0  0  0  0  0  0  0
   45.6580   32.9180   38.2290 C   0  0  0  0  0  0  0  0  0  0  0  0
   46.6870   33.2550   39.0710 C   0  0  0  0  0  0  0  0  0  0  0  0
   46.4420   33.7750   40.3240 C   0  0  0  0  0  0  0  0  0  0  0  0
   43.5520   32.8570   38.0260 H   0  0  0  0  0  0  0  0  0  0  0  0
   45.8410   32.5030   37.2320 H   0  0  0  0  0  0  0  0  0  0  0  0
   47.7110   33.1000   38.7250 H   0  0  0  0  0  0  0  0  0  0  0  0
   40.8020   35.2750   40.8000 C   0  0  0  0  0  0  0  0  0  0  0  0
   42.1080   35.1070   40.2830 C   0  0  0  0  0  0  0  0  0  0  0  0
   42.7370   33.8580   40.4250 C   0  0  0  0  0  0  0  0  0  0  0  0
   42.0260   32.9060   41.0560 N   0  0  0  0  0  0  0  0  0  0  0  0
   40.7940   33.0890   41.5340 C   0  0  0  0  0  0  0  0  0  0  0  0
   40.1850   34.2800   41.4040 N   0  0  0  0  0  0  0  0  0  0  0  0
   40.2080   36.5460   40.6360 N   0  0  0  0  0  0  0  0  0  0  0  0
   42.6830   35.8600   39.7790 H   0  0  0  0  0  0  0  0  0  0  0  0
   40.2540   32.2970   42.0370 H   0  0  0  0  0  0  0  0  0  0  0  0
   39.8040   36.5560   39.6620 H   0  0  0  0  0  0  0  0  0  0  0  0
   40.4030   36.9780   41.5450 H   0  0  0  0  0  0  0  0  0  0  0  0
   47.6010   34.1010   41.1430 C   0  0  0  0  0  0  0  0  0  0  0  0
   48.1260   35.3600   40.9400 C   0  0  0  0  0  0  0  0  0  0  0  0
   49.2390   35.8400   41.6400 C   0  0  0  0  0  0  0  0  0  0  0  0
   49.8200   34.9930   42.5720 C   0  0  0  0  0  0  0  0  0  0  0  0
   49.3080   33.7430   42.7820 C   0  0  0  0  0  0  0  0  0  0  0  0
   48.2050   33.2930   42.0750 C   0  0  0  0  0  0  0  0  0  0  0  0
   47.7310   36.0780   40.2340 H   0  0  0  0  0  0  0  0  0  0  0  0
   49.6490   36.8270   41.4810 H   0  0  0  0  0  0  0  0  0  0  0  0
   50.6890   35.2820   43.1640 H   0  0  0  0  0  0  0  0  0  0  0  0
   49.7250   33.0610   43.4890 H   0  0  0  0  0  0  0  0  0  0  0  0
   47.5600   31.9460   42.2200 C   0  0  0  0  0  3  0  0  0  0  0  0
   48.0310   30.9550   43.1910 C   0  0  0  0  0  2  0  0  0  0  0  0
   46.7880   31.7220   43.5370 C   0  0  0  0  0  2  0  0  0  0  0  0
   44.7240   34.9400   43.1100 N   0  0  0  0  0  0  0  0  0  0  0  0
   44.9000   34.5020   42.0400 C   0  0  0  0  0  0  0  0  0  0  0  0
  1 35  1  0  0  0  0
  2 12  1  0  0  0  0
  2  1  2  0  0  0  0
  3  2  1  0  0  0  0
  4  3  2  0  0  0  0
  4  5  1  0  0  0  0
  5  6  2  0  0  0  0
  6  1  1  0  0  0  0
  6 21  1  0  0  0  0
  7  3  1  0  0  0  0
  8  4  1  0  0  0  0
  9  5  1  0  0  0  0
 10 15  1  0  0  0  0
 11 12  1  0  0  0  0
 11 10  2  0  0  0  0
 12 13  2  0  0  0  0
 13 14  1  0  0  0  0
 14 18  1  0  0  0  0
 15 14  2  0  0  0  0
 16 10  1  0  0  0  0
 16 20  1  0  0  0  0
 17 11  1  0  0  0  0
 19 16  1  0  0  0  0
 21 26  1  0  0  0  0
 22 21  2  0  0  0  0
 22 23  1  0  0  0  0
 23 24  2  0  0  0  0
 24 25  1  0  0  0  0
 24 29  1  0  0  0  0
 25 30  1  0  0  0  0
 26 31  1  0  0  0  0
 26 25  2  0  0  0  0
 27 22  1  0  0  0  0
 28 23  1  0  0  0  0
 31 32  1  0  0  0  0
 31 33  1  0  0  0  0
 32 33  1  0  0  0  0
 35 34  3  0  0  0  0
M  END
>  <minimizedAffinity>
-5.91833305

>  <minimizedRMSD>
0.133722588

$$$$
