
 OpenBabel03252506493D

 23 25  0  0  0  0  0  0  0  0999 V2000
   37.5110   28.2550   43.5200 S   0  0  0  0  0  0  0  0  0  0  0  0
   35.8270   29.3020   41.0090 Cl  0  0  0  0  0  0  0  0  0  0  0  0
   37.3420   30.0910   41.3780 C   0  0  0  0  0  0  0  0  0  0  0  0
   38.0070   29.5890   42.4660 C   0  0  0  0  0  0  0  0  0  0  0  0
   39.2260   30.1780   42.8130 C   0  0  0  0  0  0  0  0  0  0  0  0
   39.7130   31.2350   42.0540 C   0  0  0  0  0  0  0  0  0  0  0  0
   39.0500   31.7430   40.9620 C   0  0  0  0  0  0  0  0  0  0  0  0
   37.8350   31.1390   40.6340 C   0  0  0  0  0  0  0  0  0  0  0  0
   36.8820   31.6910   39.2570 Cl  0  0  0  0  0  0  0  0  0  0  0  0
   39.8250   29.8550   43.6510 H   0  0  0  0  0  0  0  0  0  0  0  0
   40.6510   31.7120   42.2950 H   0  0  0  0  0  0  0  0  0  0  0  0
   39.3790   32.5510   40.3450 H   0  0  0  0  0  0  0  0  0  0  0  0
   38.3040   26.7020   43.1200 C   0  0  0  0  0  0  0  0  0  0  0  0
   39.5790   26.5330   43.6790 C   0  0  0  0  0  0  0  0  0  0  0  0
   40.2580   25.3270   43.4000 C   0  0  0  0  0  0  0  0  0  0  0  0
   39.6500   24.4110   42.6190 N   0  0  0  0  0  0  0  0  0  0  0  0
   38.4210   24.6120   42.0990 C   0  0  0  0  0  0  0  0  0  0  0  0
   37.7280   25.7590   42.3410 N   0  0  0  0  0  0  0  0  0  0  0  0
   40.0420   27.2820   44.3020 H   0  0  0  0  0  0  0  0  0  0  0  0
   41.2440   25.1430   43.8070 H   0  0  0  0  0  0  0  0  0  0  0  0
   37.7260   23.6120   41.2290 C   0  0  0  0  0  3  0  0  0  0  0  0
   36.3440   23.9420   40.7160 C   0  0  0  0  0  2  0  0  0  0  0  0
   37.5810   23.8780   39.7760 C   0  0  0  0  0  2  0  0  0  0  0  0
  2  3  1  0  0  0  0
  3  4  1  0  0  0  0
  4  5  2  0  0  0  0
  4  1  1  0  0  0  0
  5 10  1  0  0  0  0
  6 11  1  0  0  0  0
  6  5  1  0  0  0  0
  7  6  2  0  0  0  0
  8  7  1  0  0  0  0
  8  3  2  0  0  0  0
  9  8  1  0  0  0  0
 12  7  1  0  0  0  0
 13  1  1  0  0  0  0
 13 14  1  0  0  0  0
 14 19  1  0  0  0  0
 15 14  2  0  0  0  0
 15 20  1  0  0  0  0
 16 15  1  0  0  0  0
 17 18  1  0  0  0  0
 17 16  2  0  0  0  0
 18 13  2  0  0  0  0
 21 17  1  0  0  0  0
 22 21  1  0  0  0  0
 23 22  1  0  0  0  0
 23 21  1  0  0  0  0
M  END
>  <minimizedAffinity>
-5.21618128

$$$$

 OpenBabel03252506493D

 23 25  0  0  0  0  0  0  0  0999 V2000
   36.6590   27.7860   42.8500 S   0  0  0  0  0  0  0  0  0  0  0  0
   39.8150   27.7370   43.3810 Cl  0  0  0  0  0  0  0  0  0  0  0  0
   39.0540   26.2860   42.7720 C   0  0  0  0  0  0  0  0  0  0  0  0
   37.7020   26.3820   42.5690 C   0  0  0  0  0  0  0  0  0  0  0  0
   37.0360   25.2540   42.0830 C   0  0  0  0  0  0  0  0  0  0  0  0
   37.7560   24.0940   41.8270 C   0  0  0  0  0  0  0  0  0  0  0  0
   39.1120   23.9920   42.0300 C   0  0  0  0  0  0  0  0  0  0  0  0
   39.7570   25.1310   42.5150 C   0  0  0  0  0  0  0  0  0  0  0  0
   41.4930   25.1380   42.8190 Cl  0  0  0  0  0  0  0  0  0  0  0  0
   35.9740   25.2280   41.8900 H   0  0  0  0  0  0  0  0  0  0  0  0
   37.2710   23.2060   41.4510 H   0  0  0  0  0  0  0  0  0  0  0  0
   39.7120   23.1270   41.8490 H   0  0  0  0  0  0  0  0  0  0  0  0
   36.5800   28.9000   41.4530 C   0  0  0  0  0  0  0  0  0  0  0  0
   35.9300   28.3810   40.3240 C   0  0  0  0  0  0  0  0  0  0  0  0
   35.8350   29.2130   39.1870 C   0  0  0  0  0  0  0  0  0  0  0  0
   36.3670   30.4500   39.2480 N   0  0  0  0  0  0  0  0  0  0  0  0
   36.9850   30.9140   40.3530 C   0  0  0  0  0  0  0  0  0  0  0  0
   37.1010   30.1480   41.4740 N   0  0  0  0  0  0  0  0  0  0  0  0
   35.5120   27.3870   40.3020 H   0  0  0  0  0  0  0  0  0  0  0  0
   35.3430   28.8630   38.2880 H   0  0  0  0  0  0  0  0  0  0  0  0
   37.5840   32.2820   40.4460 C   0  0  0  0  0  3  0  0  0  0  0  0
   38.6520   32.6680   39.4500 C   0  0  0  0  0  2  0  0  0  0  0  0
   37.2350   33.3060   39.4310 C   0  0  0  0  0  2  0  0  0  0  0  0
  3  2  1  0  0  0  0
  4  3  1  0  0  0  0
  4  1  1  0  0  0  0
  5  4  2  0  0  0  0
  6  7  2  0  0  0  0
  6  5  1  0  0  0  0
  7  8  1  0  0  0  0
  8  3  2  0  0  0  0
  8  9  1  0  0  0  0
 10  5  1  0  0  0  0
 11  6  1  0  0  0  0
 12  7  1  0  0  0  0
 13 18  1  0  0  0  0
 13  1  1  0  0  0  0
 14 13  2  0  0  0  0
 15 16  2  0  0  0  0
 15 14  1  0  0  0  0
 16 17  1  0  0  0  0
 17 21  1  0  0  0  0
 17 18  2  0  0  0  0
 19 14  1  0  0  0  0
 20 15  1  0  0  0  0
 22 21  1  0  0  0  0
 23 22  1  0  0  0  0
 23 21  1  0  0  0  0
M  END
>  <minimizedAffinity>
-5.05570984

$$$$

 OpenBabel03252506493D

 23 25  0  0  0  0  0  0  0  0999 V2000
   38.1160   29.4220   39.5230 S   0  0  0  0  0  0  0  0  0  0  0  0
   40.9150   30.7630   40.3010 Cl  0  0  0  0  0  0  0  0  0  0  0  0
   39.5340   31.8070   40.0640 C   0  0  0  0  0  0  0  0  0  0  0  0
   38.3700   31.1620   39.7330 C   0  0  0  0  0  0  0  0  0  0  0  0
   37.2290   31.9420   39.5300 C   0  0  0  0  0  0  0  0  0  0  0  0
   37.3120   33.3220   39.6690 C   0  0  0  0  0  0  0  0  0  0  0  0
   38.4770   33.9740   39.9990 C   0  0  0  0  0  0  0  0  0  0  0  0
   39.6040   33.1740   40.1970 C   0  0  0  0  0  0  0  0  0  0  0  0
   41.1610   33.8810   40.6260 Cl  0  0  0  0  0  0  0  0  0  0  0  0
   36.2660   31.5300   39.2680 H   0  0  0  0  0  0  0  0  0  0  0  0
   36.4490   33.9530   39.5180 H   0  0  0  0  0  0  0  0  0  0  0  0
   38.5950   35.0290   40.1180 H   0  0  0  0  0  0  0  0  0  0  0  0
   37.7840   28.5630   41.0570 C   0  0  0  0  0  0  0  0  0  0  0  0
   37.8820   29.3580   42.2080 C   0  0  0  0  0  0  0  0  0  0  0  0
   37.6310   28.7380   43.4520 C   0  0  0  0  0  0  0  0  0  0  0  0
   37.3140   27.4280   43.4660 N   0  0  0  0  0  0  0  0  0  0  0  0
   37.2300   26.6970   42.3360 C   0  0  0  0  0  0  0  0  0  0  0  0
   37.4630   27.2510   41.1140 N   0  0  0  0  0  0  0  0  0  0  0  0
   38.1370   30.4060   42.1680 H   0  0  0  0  0  0  0  0  0  0  0  0
   37.6920   29.3050   44.3720 H   0  0  0  0  0  0  0  0  0  0  0  0
   36.8810   25.2410   42.3250 C   0  0  0  0  0  3  0  0  0  0  0  0
   36.8290   24.5230   40.9980 C   0  0  0  0  0  2  0  0  0  0  0  0
   37.9360   24.2350   42.0500 C   0  0  0  0  0  2  0  0  0  0  0  0
  1  4  1  0  0  0  0
  1 13  1  0  0  0  0
  3  8  1  0  0  0  0
  3  2  1  0  0  0  0
  4  3  2  0  0  0  0
  5  6  2  0  0  0  0
  5  4  1  0  0  0  0
  6  7  1  0  0  0  0
  7 12  1  0  0  0  0
  7  8  2  0  0  0  0
  8  9  1  0  0  0  0
 10  5  1  0  0  0  0
 11  6  1  0  0  0  0
 13 18  2  0  0  0  0
 13 14  1  0  0  0  0
 14 15  2  0  0  0  0
 15 16  1  0  0  0  0
 15 20  1  0  0  0  0
 17 16  2  0  0  0  0
 18 17  1  0  0  0  0
 19 14  1  0  0  0  0
 21 17  1  0  0  0  0
 22 23  1  0  0  0  0
 22 21  1  0  0  0  0
 23 21  1  0  0  0  0
M  END
>  <minimizedAffinity>
-5.02607012

$$$$

 OpenBabel03252506493D

 23 25  0  0  0  0  0  0  0  0999 V2000
   36.8370   30.0500   39.7340 S   0  0  0  0  0  0  0  0  0  0  0  0
   36.3870   26.8820   39.6970 Cl  0  0  0  0  0  0  0  0  0  0  0  0
   36.9640   27.6200   41.1730 C   0  0  0  0  0  0  0  0  0  0  0  0
   37.1320   28.9790   41.1130 C   0  0  0  0  0  0  0  0  0  0  0  0
   37.5920   29.6280   42.2620 C   0  0  0  0  0  0  0  0  0  0  0  0
   37.8570   28.8850   43.4060 C   0  0  0  0  0  0  0  0  0  0  0  0
   37.6910   27.5220   43.4710 C   0  0  0  0  0  0  0  0  0  0  0  0
   37.2310   26.8950   42.3120 C   0  0  0  0  0  0  0  0  0  0  0  0
   36.9720   25.1520   42.2570 Cl  0  0  0  0  0  0  0  0  0  0  0  0
   37.7570   30.6940   42.3170 H   0  0  0  0  0  0  0  0  0  0  0  0
   38.2140   29.3570   44.3090 H   0  0  0  0  0  0  0  0  0  0  0  0
   37.8790   26.9050   44.3220 H   0  0  0  0  0  0  0  0  0  0  0  0
   37.9540   31.4450   39.6680 C   0  0  0  0  0  0  0  0  0  0  0  0
   37.4330   32.6400   40.1850 C   0  0  0  0  0  0  0  0  0  0  0  0
   38.2660   33.7790   40.1610 C   0  0  0  0  0  0  0  0  0  0  0  0
   39.5070   33.6580   39.6470 N   0  0  0  0  0  0  0  0  0  0  0  0
   39.9730   32.4910   39.1590 C   0  0  0  0  0  0  0  0  0  0  0  0
   39.2050   31.3650   39.1610 N   0  0  0  0  0  0  0  0  0  0  0  0
   36.4350   32.7090   40.5900 H   0  0  0  0  0  0  0  0  0  0  0  0
   37.9150   34.7270   40.5480 H   0  0  0  0  0  0  0  0  0  0  0  0
   41.3450   32.3310   38.5840 C   0  0  0  0  0  3  0  0  0  0  0  0
   41.4760   31.9830   37.1200 C   0  0  0  0  0  2  0  0  0  0  0  0
   41.8880   33.3740   37.6780 C   0  0  0  0  0  2  0  0  0  0  0  0
  1  4  1  0  0  0  0
  2  3  1  0  0  0  0
  3  8  1  0  0  0  0
  4  3  2  0  0  0  0
  4  5  1  0  0  0  0
  5 10  1  0  0  0  0
  5  6  2  0  0  0  0
  6  7  1  0  0  0  0
  6 11  1  0  0  0  0
  7 12  1  0  0  0  0
  8  7  2  0  0  0  0
  9  8  1  0  0  0  0
 13  1  1  0  0  0  0
 13 14  1  0  0  0  0
 14 19  1  0  0  0  0
 15 14  2  0  0  0  0
 15 20  1  0  0  0  0
 16 15  1  0  0  0  0
 17 18  1  0  0  0  0
 17 16  2  0  0  0  0
 18 13  2  0  0  0  0
 21 17  1  0  0  0  0
 22 23  1  0  0  0  0
 22 21  1  0  0  0  0
 23 21  1  0  0  0  0
M  END
>  <minimizedAffinity>
-4.98607397

$$$$

 OpenBabel03252506493D

 23 25  0  0  0  0  0  0  0  0999 V2000
   38.0230   28.8510   43.2890 S   0  0  0  0  0  0  0  0  0  0  0  0
   36.7410   26.5320   41.4950 Cl  0  0  0  0  0  0  0  0  0  0  0  0
   38.2730   26.2230   42.2770 C   0  0  0  0  0  0  0  0  0  0  0  0
   38.7600   27.2620   43.0280 C   0  0  0  0  0  0  0  0  0  0  0  0
   39.9820   27.0770   43.6790 C   0  0  0  0  0  0  0  0  0  0  0  0
   40.6510   25.8660   43.5450 C   0  0  0  0  0  0  0  0  0  0  0  0
   40.1680   24.8220   42.7920 C   0  0  0  0  0  0  0  0  0  0  0  0
   38.9450   25.0290   42.1510 C   0  0  0  0  0  0  0  0  0  0  0  0
   38.2110   23.7730   41.1550 Cl  0  0  0  0  0  0  0  0  0  0  0  0
   40.4490   27.8320   44.2940 H   0  0  0  0  0  0  0  0  0  0  0  0
   41.5970   25.6920   44.0340 H   0  0  0  0  0  0  0  0  0  0  0  0
   40.6390   23.8730   42.6560 H   0  0  0  0  0  0  0  0  0  0  0  0
   38.4080   30.0310   42.0000 C   0  0  0  0  0  0  0  0  0  0  0  0
   39.5560   30.8010   42.2330 C   0  0  0  0  0  0  0  0  0  0  0  0
   39.9130   31.7520   41.2520 C   0  0  0  0  0  0  0  0  0  0  0  0
   39.1390   31.8660   40.1540 N   0  0  0  0  0  0  0  0  0  0  0  0
   38.0410   31.1060   39.9670 C   0  0  0  0  0  0  0  0  0  0  0  0
   37.6570   30.1770   40.8850 N   0  0  0  0  0  0  0  0  0  0  0  0
   40.1590   30.6890   43.1210 H   0  0  0  0  0  0  0  0  0  0  0  0
   40.7900   32.3730   41.3800 H   0  0  0  0  0  0  0  0  0  0  0  0
   37.1650   31.2150   38.7580 C   0  0  0  0  0  3  0  0  0  0  0  0
   37.5620   30.4610   37.5110 C   0  0  0  0  0  2  0  0  0  0  0  0
   36.3200   30.0620   38.3580 C   0  0  0  0  0  2  0  0  0  0  0  0
  2  3  1  0  0  0  0
  3  4  1  0  0  0  0
  4  1  1  0  0  0  0
  4  5  2  0  0  0  0
  5 10  1  0  0  0  0
  6  5  1  0  0  0  0
  6 11  1  0  0  0  0
  7  6  2  0  0  0  0
  8  3  2  0  0  0  0
  8  7  1  0  0  0  0
  9  8  1  0  0  0  0
 12  7  1  0  0  0  0
 13 14  1  0  0  0  0
 13  1  1  0  0  0  0
 14 19  1  0  0  0  0
 15 20  1  0  0  0  0
 15 14  2  0  0  0  0
 16 15  1  0  0  0  0
 17 16  2  0  0  0  0
 17 18  1  0  0  0  0
 18 13  2  0  0  0  0
 21 17  1  0  0  0  0
 22 23  1  0  0  0  0
 22 21  1  0  0  0  0
 23 21  1  0  0  0  0
M  END
>  <minimizedAffinity>
-4.83328152

$$$$

 OpenBabel03252506493D

 23 25  0  0  0  0  0  0  0  0999 V2000
   35.5200   29.2160   40.4060 S   0  0  0  0  0  0  0  0  0  0  0  0
   36.5630   26.2160   40.0100 Cl  0  0  0  0  0  0  0  0  0  0  0  0
   37.1760   27.1350   41.3650 C   0  0  0  0  0  0  0  0  0  0  0  0
   36.6850   28.4110   41.4700 C   0  0  0  0  0  0  0  0  0  0  0  0
   37.1380   29.1970   42.5320 C   0  0  0  0  0  0  0  0  0  0  0  0
   38.0550   28.6660   43.4310 C   0  0  0  0  0  0  0  0  0  0  0  0
   38.5520   27.3880   43.3300 C   0  0  0  0  0  0  0  0  0  0  0  0
   38.0850   26.6210   42.2610 C   0  0  0  0  0  0  0  0  0  0  0  0
   38.6390   24.9660   42.0140 Cl  0  0  0  0  0  0  0  0  0  0  0  0
   36.8110   30.2120   42.7020 H   0  0  0  0  0  0  0  0  0  0  0  0
   38.4250   29.2470   44.2620 H   0  0  0  0  0  0  0  0  0  0  0  0
   39.2560   26.9320   43.9920 H   0  0  0  0  0  0  0  0  0  0  0  0
   36.2690   29.9300   38.9470 C   0  0  0  0  0  0  0  0  0  0  0  0
   36.9860   31.1130   39.1740 C   0  0  0  0  0  0  0  0  0  0  0  0
   37.6010   31.7260   38.0610 C   0  0  0  0  0  0  0  0  0  0  0  0
   37.4670   31.1470   36.8500 N   0  0  0  0  0  0  0  0  0  0  0  0
   36.7670   30.0080   36.6720 C   0  0  0  0  0  0  0  0  0  0  0  0
   36.1570   29.3810   37.7160 N   0  0  0  0  0  0  0  0  0  0  0  0
   37.0790   31.5550   40.1540 H   0  0  0  0  0  0  0  0  0  0  0  0
   38.1680   32.6410   38.1790 H   0  0  0  0  0  0  0  0  0  0  0  0
   36.6030   29.3460   35.3400 C   0  0  0  0  0  3  0  0  0  0  0  0
   35.2050   29.1250   34.8140 C   0  0  0  0  0  2  0  0  0  0  0  0
   36.1770   30.1510   34.1680 C   0  0  0  0  0  2  0  0  0  0  0  0
  1  4  1  0  0  0  0
  2  3  1  0  0  0  0
  3  4  2  0  0  0  0
  3  8  1  0  0  0  0
  4  5  1  0  0  0  0
  5 10  1  0  0  0  0
  5  6  2  0  0  0  0
  6 11  1  0  0  0  0
  7  6  1  0  0  0  0
  7 12  1  0  0  0  0
  8  7  2  0  0  0  0
  9  8  1  0  0  0  0
 13 14  1  0  0  0  0
 13  1  1  0  0  0  0
 14 19  1  0  0  0  0
 15 20  1  0  0  0  0
 15 14  2  0  0  0  0
 16 15  1  0  0  0  0
 17 16  2  0  0  0  0
 17 18  1  0  0  0  0
 18 13  2  0  0  0  0
 21 17  1  0  0  0  0
 22 21  1  0  0  0  0
 23 22  1  0  0  0  0
 23 21  1  0  0  0  0
M  END
>  <minimizedAffinity>
-4.79468775

$$$$

 OpenBabel03252506493D

 23 25  0  0  0  0  0  0  0  0999 V2000
   35.8350   29.3550   40.5950 S   0  0  0  0  0  0  0  0  0  0  0  0
   36.4860   26.3030   39.8890 Cl  0  0  0  0  0  0  0  0  0  0  0  0
   37.1450   26.9710   41.3640 C   0  0  0  0  0  0  0  0  0  0  0  0
   36.8240   28.2830   41.5990 C   0  0  0  0  0  0  0  0  0  0  0  0
   37.3210   28.8750   42.7630 C   0  0  0  0  0  0  0  0  0  0  0  0
   38.1110   28.1260   43.6260 C   0  0  0  0  0  0  0  0  0  0  0  0
   38.4360   26.8100   43.3940 C   0  0  0  0  0  0  0  0  0  0  0  0
   37.9280   26.2390   42.2260 C   0  0  0  0  0  0  0  0  0  0  0  0
   38.2680   24.5610   41.8070 Cl  0  0  0  0  0  0  0  0  0  0  0  0
   37.1250   29.9010   43.0380 H   0  0  0  0  0  0  0  0  0  0  0  0
   38.5100   28.5540   44.5330 H   0  0  0  0  0  0  0  0  0  0  0  0
   39.0370   26.1900   44.0240 H   0  0  0  0  0  0  0  0  0  0  0  0
   36.7960   30.3470   39.4580 C   0  0  0  0  0  0  0  0  0  0  0  0
   36.6030   30.0410   38.1030 C   0  0  0  0  0  0  0  0  0  0  0  0
   37.3330   30.7890   37.1550 C   0  0  0  0  0  0  0  0  0  0  0  0
   38.1700   31.7490   37.5990 N   0  0  0  0  0  0  0  0  0  0  0  0
   38.3280   32.0150   38.9110 C   0  0  0  0  0  0  0  0  0  0  0  0
   37.6450   31.3190   39.8620 N   0  0  0  0  0  0  0  0  0  0  0  0
   35.9260   29.2670   37.7760 H   0  0  0  0  0  0  0  0  0  0  0  0
   37.2220   30.5950   36.0960 H   0  0  0  0  0  0  0  0  0  0  0  0
   39.2500   33.0740   39.4280 C   0  0  0  0  0  3  0  0  0  0  0  0
   38.8810   33.7880   40.7070 C   0  0  0  0  0  2  0  0  0  0  0  0
   40.0810   32.8030   40.6280 C   0  0  0  0  0  2  0  0  0  0  0  0
  1  4  1  0  0  0  0
  2  3  1  0  0  0  0
  3  4  2  0  0  0  0
  3  8  1  0  0  0  0
  4  5  1  0  0  0  0
  5 10  1  0  0  0  0
  5  6  2  0  0  0  0
  6 11  1  0  0  0  0
  7  6  1  0  0  0  0
  7 12  1  0  0  0  0
  8  7  2  0  0  0  0
  9  8  1  0  0  0  0
 13 18  1  0  0  0  0
 13  1  1  0  0  0  0
 14 13  2  0  0  0  0
 15 16  2  0  0  0  0
 15 14  1  0  0  0  0
 16 17  1  0  0  0  0
 17 21  1  0  0  0  0
 17 18  2  0  0  0  0
 19 14  1  0  0  0  0
 20 15  1  0  0  0  0
 21 23  1  0  0  0  0
 21 22  1  0  0  0  0
 23 22  1  0  0  0  0
M  END
>  <minimizedAffinity>
-4.7701745

$$$$

 OpenBabel03252506493D

 23 25  0  0  0  0  0  0  0  0999 V2000
   37.6470   28.7500   43.3020 S   0  0  0  0  0  0  0  0  0  0  0  0
   39.7690   30.9470   42.3500 Cl  0  0  0  0  0  0  0  0  0  0  0  0
   38.3130   30.7380   41.4070 C   0  0  0  0  0  0  0  0  0  0  0  0
   37.4510   29.7800   41.8750 C   0  0  0  0  0  0  0  0  0  0  0  0
   36.2680   29.5660   41.1640 C   0  0  0  0  0  0  0  0  0  0  0  0
   36.0100   30.3200   40.0260 C   0  0  0  0  0  0  0  0  0  0  0  0
   36.8710   31.2810   39.5510 C   0  0  0  0  0  0  0  0  0  0  0  0
   38.0460   31.4780   40.2780 C   0  0  0  0  0  0  0  0  0  0  0  0
   39.2370   32.6800   39.7810 Cl  0  0  0  0  0  0  0  0  0  0  0  0
   35.5260   28.8360   41.4510 H   0  0  0  0  0  0  0  0  0  0  0  0
   35.1060   30.1780   39.4540 H   0  0  0  0  0  0  0  0  0  0  0  0
   36.7210   31.8870   38.6840 H   0  0  0  0  0  0  0  0  0  0  0  0
   38.1460   27.0780   42.9060 C   0  0  0  0  0  0  0  0  0  0  0  0
   37.1110   26.2460   42.4570 C   0  0  0  0  0  0  0  0  0  0  0  0
   37.4410   24.9140   42.1290 C   0  0  0  0  0  0  0  0  0  0  0  0
   38.7230   24.5160   42.2630 N   0  0  0  0  0  0  0  0  0  0  0  0
   39.6910   25.3470   42.6980 C   0  0  0  0  0  0  0  0  0  0  0  0
   39.4200   26.6410   43.0270 N   0  0  0  0  0  0  0  0  0  0  0  0
   36.0930   26.5900   42.3590 H   0  0  0  0  0  0  0  0  0  0  0  0
   36.6810   24.2280   41.7770 H   0  0  0  0  0  0  0  0  0  0  0  0
   41.1200   24.9300   42.8560 C   0  0  0  0  0  3  0  0  0  0  0  0
   42.1760   25.6680   42.0680 C   0  0  0  0  0  2  0  0  0  0  0  0
   42.0580   25.7960   43.6130 C   0  0  0  0  0  2  0  0  0  0  0  0
  3  4  1  0  0  0  0
  3  2  1  0  0  0  0
  4  1  1  0  0  0  0
  5 10  1  0  0  0  0
  5  4  2  0  0  0  0
  6  5  1  0  0  0  0
  7  6  2  0  0  0  0
  7  8  1  0  0  0  0
  8  3  2  0  0  0  0
  9  8  1  0  0  0  0
 11  6  1  0  0  0  0
 12  7  1  0  0  0  0
 13 18  1  0  0  0  0
 13  1  1  0  0  0  0
 14 13  2  0  0  0  0
 15 16  2  0  0  0  0
 15 14  1  0  0  0  0
 16 17  1  0  0  0  0
 17 21  1  0  0  0  0
 17 18  2  0  0  0  0
 19 14  1  0  0  0  0
 20 15  1  0  0  0  0
 21 23  1  0  0  0  0
 22 21  1  0  0  0  0
 22 23  1  0  0  0  0
M  END
>  <minimizedAffinity>
-4.75349951

$$$$

 OpenBabel03252506493D

 23 25  0  0  0  0  0  0  0  0999 V2000
   40.6940   28.6810   41.5160 S   0  0  0  0  0  0  0  0  0  0  0  0
   39.5040   25.7950   40.8160 Cl  0  0  0  0  0  0  0  0  0  0  0  0
   38.6190   26.8070   41.9330 C   0  0  0  0  0  0  0  0  0  0  0  0
   39.1890   28.0280   42.1840 C   0  0  0  0  0  0  0  0  0  0  0  0
   38.5290   28.8850   43.0690 C   0  0  0  0  0  0  0  0  0  0  0  0
   37.3370   28.4750   43.6540 C   0  0  0  0  0  0  0  0  0  0  0  0
   36.7620   27.2510   43.4070 C   0  0  0  0  0  0  0  0  0  0  0  0
   37.4380   26.4120   42.5190 C   0  0  0  0  0  0  0  0  0  0  0  0
   36.8100   24.8160   42.1120 Cl  0  0  0  0  0  0  0  0  0  0  0  0
   38.8960   29.8650   43.3320 H   0  0  0  0  0  0  0  0  0  0  0  0
   36.8030   29.1120   44.3420 H   0  0  0  0  0  0  0  0  0  0  0  0
   35.8500   26.8870   43.8280 H   0  0  0  0  0  0  0  0  0  0  0  0
   40.4310   29.8680   40.2030 C   0  0  0  0  0  0  0  0  0  0  0  0
   41.5690   30.1580   39.4370 C   0  0  0  0  0  0  0  0  0  0  0  0
   41.4260   31.0880   38.3850 C   0  0  0  0  0  0  0  0  0  0  0  0
   40.2140   31.6420   38.1740 N   0  0  0  0  0  0  0  0  0  0  0  0
   39.1430   31.3360   38.9340 C   0  0  0  0  0  0  0  0  0  0  0  0
   39.2320   30.4450   39.9600 N   0  0  0  0  0  0  0  0  0  0  0  0
   42.5270   29.7000   39.6270 H   0  0  0  0  0  0  0  0  0  0  0  0
   42.2720   31.3480   37.7610 H   0  0  0  0  0  0  0  0  0  0  0  0
   37.7890   31.9370   38.7210 C   0  0  0  0  0  3  0  0  0  0  0  0
   36.7500   31.7730   39.8050 C   0  0  0  0  0  2  0  0  0  0  0  0
   37.3960   33.1500   39.4810 C   0  0  0  0  0  2  0  0  0  0  0  0
  1  4  1  0  0  0  0
  2  3  1  0  0  0  0
  3  4  2  0  0  0  0
  3  8  1  0  0  0  0
  4  5  1  0  0  0  0
  5 10  1  0  0  0  0
  5  6  2  0  0  0  0
  6 11  1  0  0  0  0
  7  6  1  0  0  0  0
  7 12  1  0  0  0  0
  8  7  2  0  0  0  0
  9  8  1  0  0  0  0
 13  1  1  0  0  0  0
 14 19  1  0  0  0  0
 14 13  2  0  0  0  0
 15 14  1  0  0  0  0
 16 15  2  0  0  0  0
 16 17  1  0  0  0  0
 17 18  2  0  0  0  0
 18 13  1  0  0  0  0
 20 15  1  0  0  0  0
 21 17  1  0  0  0  0
 21 23  1  0  0  0  0
 21 22  1  0  0  0  0
 23 22  1  0  0  0  0
M  END
>  <minimizedAffinity>
-4.74056721

$$$$
