
     RDKit          3D

 38 40  0  0  0  0  0  0  0  0999 V2000
   41.8710   35.2468   41.5178 C   0  0  0  0  0  0  0  0  0  0  0  0
   40.9407   36.1035   40.7243 C   0  0  0  0  0  0  0  0  0  0  0  0
   41.7645   36.2735   37.7932 Cl  0  0  0  0  0  0  0  0  0  0  0  0
   40.4486   35.2955   38.3945 C   0  0  0  0  0  0  0  0  0  0  0  0
   40.1599   35.2944   39.7598 C   0  0  0  0  0  0  0  0  0  0  0  0
   39.1136   34.5014   40.1486 C   0  0  0  0  0  0  0  0  0  0  0  0
   38.3221   33.7075   39.3223 C   0  0  0  0  0  0  0  0  0  0  0  0
   38.6336   33.7315   37.9817 C   0  0  0  0  0  0  0  0  0  0  0  0
   37.6911   32.7602   36.8478 Cl  0  0  0  0  0  0  0  0  0  0  0  0
   39.6843   34.5183   37.5360 C   0  0  0  0  0  0  0  0  0  0  0  0
   43.4934   35.0631   40.7866 S   0  0  0  0  0  0  0  0  0  0  0  0
   44.7756   34.7357   41.9936 C   0  0  0  0  0  0  0  0  0  0  0  0
   46.0645   34.5193   41.4924 C   0  0  0  0  0  0  0  0  0  0  0  0
   47.0888   34.2614   42.4014 C   0  0  0  0  0  0  0  0  0  0  0  0
   46.7785   34.2350   43.7153 N   0  0  0  0  0  0  0  0  0  0  0  0
   45.5331   34.4452   44.1833 C   0  0  0  0  0  0  0  0  0  0  0  0
   44.5486   34.6928   43.3143 N   0  0  0  0  0  0  0  0  0  0  0  0
   45.3329   34.3900   45.6116 C   0  0  0  0  0  0  0  0  0  0  0  0
   44.4733   35.1656   46.1111 O   0  0  0  0  0  0  0  0  0  0  0  0
   46.1376   33.4462   46.3554 N   0  0  0  0  0  0  0  0  0  0  0  0
   41.3918   34.2368   41.6070 H   0  0  0  0  0  0  0  0  0  0  0  0
   41.9301   35.6435   42.5613 H   0  0  0  0  0  0  0  0  0  0  0  0
   41.5475   36.8136   40.1243 H   0  0  0  0  0  0  0  0  0  0  0  0
   40.2592   36.7257   41.3513 H   0  0  0  0  0  0  0  0  0  0  0  0
   38.8530   34.4695   41.2027 H   0  0  0  0  0  0  0  0  0  0  0  0
   37.5153   33.1155   39.7354 H   0  0  0  0  0  0  0  0  0  0  0  0
   39.9479   34.5527   36.4825 H   0  0  0  0  0  0  0  0  0  0  0  0
   46.2754   34.5483   40.4314 H   0  0  0  0  0  0  0  0  0  0  0  0
   45.6189   32.9850   47.1314 H   0  0  0  0  0  0  0  0  0  0  0  0
   47.1395   33.3175   46.0532 H   0  0  0  0  0  0  0  0  0  0  0  0
   48.4651   34.0282   41.8976 C   0  0  0  0  0  0  0  0  0  0  0  0
   48.8793   32.5675   41.9852 C   0  0  0  0  0  0  0  0  0  0  0  0
   48.7321   33.2674   40.6663 C   0  0  0  0  0  0  0  0  0  0  0  0
   49.1999   34.7618   42.2854 H   0  0  0  0  0  0  0  0  0  0  0  0
   48.1196   31.8004   42.2076 H   0  0  0  0  0  0  0  0  0  0  0  0
   49.9129   32.3691   42.3880 H   0  0  0  0  0  0  0  0  0  0  0  0
   49.6825   33.5444   40.1323 H   0  0  0  0  0  0  0  0  0  0  0  0
   47.9214   32.9770   39.9744 H   0  0  0  0  0  0  0  0  0  0  0  0
  2  1  1  0
  3  4  1  0
  4  5  2  0
  5  6  1  0
  5  2  1  0
  7  6  2  0
  8  7  1  0
  9  8  1  0
 10  8  2  0
 10  4  1  0
 11  1  1  0
 11 12  1  0
 12 17  1  0
 13 12  2  0
 13 14  1  0
 14 15  2  0
 15 16  1  0
 16 18  1  0
 17 16  2  0
 18 19  2  0
 18 20  1  0
  1 21  1  0
  1 22  1  0
  2 23  1  0
  2 24  1  0
  6 25  1  0
  7 26  1  0
 10 27  1  0
 13 28  1  0
 20 29  1  0
 20 30  1  0
 31 32  1  0
 32 33  1  0
 33 31  1  0
 31 34  1  0
 32 35  1  0
 32 36  1  0
 33 37  1  0
 33 38  1  0
 14 31  1  0
M  ISO  8  21   8  22   8  23   8  24   8  25  14  26  14  27  14  28  14
M  END
>  <DihAtoms>  (1) 
12,13,30,31

>  <DihDeg>  (1) 
133.5787674672339

$$$$
