
 OpenBabel03252506473D

 36 39  0  0  1  0  0  0  0  0999 V2000
   49.0690   33.3950   40.9240 N   0  0  1  0  0  0  0  0  0  0  0  0
   50.1420   32.6210   41.5050 C   0  0  0  0  0  0  0  0  0  0  0  0
   50.4360   31.3590   40.7500 C   0  0  0  0  0  0  0  0  0  0  0  0
   49.2460   30.4120   40.9260 C   0  0  0  0  0  0  0  0  0  0  0  0
   47.9540   31.1850   40.9190 C   0  0  0  0  0  0  0  0  0  0  0  0
   48.1690   32.5180   40.2330 C   0  0  2  0  0  0  0  0  0  0  0  0
   51.0840   33.2020   41.6310 H   0  0  0  0  0  0  0  0  0  0  0  0
   49.7990   32.2980   42.5210 H   0  0  0  0  0  0  0  0  0  0  0  0
   50.6710   31.5320   39.6930 H   0  0  0  0  0  0  0  0  0  0  0  0
   51.3130   30.8870   41.2090 H   0  0  0  0  0  0  0  0  0  0  0  0
   49.4130   29.8680   41.8710 H   0  0  0  0  0  0  0  0  0  0  0  0
   49.3060   29.6820   40.0790 H   0  0  0  0  0  0  0  0  0  0  0  0
   47.7530   31.4410   42.0000 H   0  0  0  0  0  0  0  0  0  0  0  0
   47.1060   30.6820   40.4660 H   0  0  0  0  0  0  0  0  0  0  0  0
   47.1780   33.0200   40.2450 H   0  0  0  0  0  0  0  0  0  0  0  0
   47.1630   34.8600   41.8770 C   0  0  1  0  0  0  0  0  0  0  0  0
   48.4330   35.6220   41.8180 C   0  0  0  0  0  0  0  0  0  0  0  0
   48.4670   34.1550   41.9630 C   0  0  2  0  0  0  0  0  0  0  0  0
   46.5750   34.8060   40.9220 H   0  0  0  0  0  0  0  0  0  0  0  0
   48.7270   36.0480   40.8370 H   0  0  0  0  0  0  0  0  0  0  0  0
   48.7260   36.2670   42.6650 H   0  0  0  0  0  0  0  0  0  0  0  0
   48.6790   33.7450   42.9920 H   0  0  0  0  0  0  0  0  0  0  0  0
   45.4320   36.0630   43.2260 C   0  0  0  0  0  0  0  0  0  0  0  0
   46.3070   34.9850   43.0560 C   0  0  0  0  0  0  0  0  0  0  0  0
   46.3220   34.0040   44.0740 C   0  0  0  0  0  0  0  0  0  0  0  0
   45.5010   34.1590   45.1360 N   0  0  0  0  0  0  0  0  0  0  0  0
   44.6720   35.2040   45.2710 C   0  0  0  0  0  0  0  0  0  0  0  0
   44.6280   36.1710   44.3120 N   0  0  0  0  0  0  0  0  0  0  0  0
   45.3850   36.8450   42.4670 H   0  0  0  0  0  0  0  0  0  0  0  0
   46.9920   33.1340   43.9940 H   0  0  0  0  0  0  0  0  0  0  0  0
   44.0920   35.1610   46.1840 H   0  0  0  0  0  0  0  0  0  0  0  0
   48.5290   32.3090   38.8550 N   0  0  0  0  0  0  0  0  0  0  0  0
   49.5550   32.5720   38.7720 H   0  0  0  0  0  0  0  0  0  0  0  0
   47.7420   33.1720   38.0210 C   0  0  0  0  0  0  0  0  0  0  0  0
   48.5390   34.3090   37.3750 C   0  0  0  0  0  0  0  0  0  0  0  0
   47.8590   33.2400   36.5610 C   0  0  0  0  0  0  0  0  0  0  0  0
  1  2  1  1  0  0  0
  1 18  1  0  0  0  0
  2  7  1  0  0  0  0
  2  8  1  0  0  0  0
  3  4  1  0  0  0  0
  3 10  1  0  0  0  0
  3  2  1  0  0  0  0
  4 11  1  0  0  0  0
  5  4  1  0  0  0  0
  5 13  1  0  0  0  0
  6 15  1  6  0  0  0
  6  5  1  0  0  0  0
  6  1  1  0  0  0  0
  9  3  1  0  0  0  0
 12  4  1  0  0  0  0
 14  5  1  0  0  0  0
 16 19  1  6  0  0  0
 16 18  1  0  0  0  0
 16 24  1  0  0  0  0
 17 16  1  0  0  0  0
 17 18  1  0  0  0  0
 17 21  1  0  0  0  0
 18 22  1  1  0  0  0
 20 17  1  0  0  0  0
 23 28  1  0  0  0  0
 24 23  2  0  0  0  0
 24 25  1  0  0  0  0
 25 26  2  0  0  0  0
 26 27  1  0  0  0  0
 27 31  1  0  0  0  0
 28 27  2  0  0  0  0
 29 23  1  0  0  0  0
 30 25  1  0  0  0  0
 32  6  1  0  0  0  0
 33 32  1  0  0  0  0
 34 32  1  0  0  0  0
 35 34  1  0  0  0  0
 36 35  1  0  0  0  0
 36 34  1  0  0  0  0
M  END
>  <minimizedAffinity>
-4.75954962

>  <minimizedRMSD>
2.18524551

$$$$
