REMARK  Name = 
REMARK  4 active torsions:
REMARK  status: ('A' for Active; 'I' for Inactive)
REMARK    1  A    between atoms: C_1  and  C_21
REMARK    2  A    between atoms: C_2  and  C_9
REMARK    3  A    between atoms: C_6  and  C_14
REMARK    4  A    between atoms: C_19  and  C_33
REMARK                            x       y       z     vdW  Elec       q    Type
REMARK                         _______ _______ _______ _____ _____    ______ ____
ROOT
ATOM      1  C   UNL     1      45.125  33.941  40.698  0.00  0.00    +0.000 A 
ATOM      2  C   UNL     1      44.081  33.638  39.879  0.00  0.00    +0.000 A 
ATOM      3  C   UNL     1      44.377  33.157  38.629  0.00  0.00    +0.000 A 
ATOM      4  C   UNL     1      45.659  32.970  38.176  0.00  0.00    +0.000 A 
ATOM      5  C   UNL     1      46.688  33.285  39.026  0.00  0.00    +0.000 A 
ATOM      6  C   UNL     1      46.444  33.772  40.292  0.00  0.00    +0.000 A 
ATOM      7  H   UNL     1      43.552  32.914  37.974  0.00  0.00    +0.000 HD
ATOM      8  H   UNL     1      45.841  32.582  37.169  0.00  0.00    +0.000 HD
ATOM      9  H   UNL     1      47.712  33.140  38.675  0.00  0.00    +0.000 HD
ENDROOT
BRANCH   2  12
ATOM     10  C   UNL     1      40.794  35.250  40.791  0.00  0.00    +0.000 A 
ATOM     11  C   UNL     1      42.100  35.096  40.267  0.00  0.00    +0.000 A 
ATOM     12  C   UNL     1      42.739  33.851  40.399  0.00  0.00    +0.000 A 
ATOM     13  N   UNL     1      42.038  32.889  41.026  0.00  0.00    +0.000 NA
ATOM     14  C   UNL     1      40.807  33.059  41.511  0.00  0.00    +0.000 A 
ATOM     15  N   UNL     1      40.188  34.246  41.391  0.00  0.00    +0.000 NA
ATOM     16  N   UNL     1      40.190  36.517  40.638  0.00  0.00    +0.000 N 
ATOM     17  H   UNL     1      42.667  35.857  39.766  0.00  0.00    +0.000 HD
ATOM     18  H   UNL     1      40.275  32.260  42.010  0.00  0.00    +0.000 HD
ATOM     19  H   UNL     1      39.782  36.530  39.665  0.00  0.00    +0.000 HD
ATOM     20  H   UNL     1      40.385  36.945  41.549  0.00  0.00    +0.000 HD
ENDBRANCH   2  12
BRANCH   6  21
ATOM     21  C   UNL     1      47.604  34.077  41.119  0.00  0.00    +0.000 A 
ATOM     22  C   UNL     1      48.135  35.337  40.941  0.00  0.00    +0.000 A 
ATOM     23  C   UNL     1      49.249  35.798  41.651  0.00  0.00    +0.000 A 
ATOM     24  C   UNL     1      49.825  34.931  42.567  0.00  0.00    +0.000 A 
ATOM     25  C   UNL     1      49.307  33.679  42.752  0.00  0.00    +0.000 A 
ATOM     26  C   UNL     1      48.203  33.248  42.035  0.00  0.00    +0.000 A 
ATOM     27  H   UNL     1      47.744  36.070  40.248  0.00  0.00    +0.000 HD
ATOM     28  H   UNL     1      49.664  36.786  41.511  0.00  0.00    +0.000 HD
ATOM     29  H   UNL     1      50.695  35.204  43.165  0.00  0.00    +0.000 HD
ATOM     30  H   UNL     1      49.720  32.982  43.446  0.00  0.00    +0.000 HD
BRANCH  26  31
ATOM     31  C   UNL     1      47.552  31.902  42.154  0.00  0.00    +0.000 C 
ATOM     32  C   UNL     1      48.148  30.692  41.584  0.00  0.00    +0.000 C 
ATOM     33  C   UNL     1      48.280  30.894  43.066  0.00  0.00    +0.000 C 
ENDBRANCH  26  31
ENDBRANCH   6  21
BRANCH   1  35
ATOM     34  N   UNL     1      44.728  34.863  43.109  0.00  0.00    +0.000 NA
ATOM     35  C   UNL     1      44.903  34.453  42.028  0.00  0.00    +0.000 C 
ENDBRANCH   1  35
TORSDOF 4
