
 OpenBabel03242515053D

 33 35  0  0  0  0  0  0  0  0999 V2000
   41.9720   35.1340   41.5310 C   0  0  0  0  0  0  0  0  0  0  0  0
   41.4780   34.1290   41.5850 H   0  0  0  0  0  0  0  0  0  0  0  0
   42.0470   35.4890   42.5880 H   0  0  0  0  0  0  0  0  0  0  0  0
   41.0490   36.0350   40.7800 C   0  0  0  0  0  0  0  0  0  0  0  0
   41.6610   36.7530   40.1950 H   0  0  0  0  0  0  0  0  0  0  0  0
   40.3890   36.6500   41.4370 H   0  0  0  0  0  0  0  0  0  0  0  0
   41.8630   36.2490   37.8490 Cl  0  0  0  0  0  0  0  0  0  0  0  0
   40.5200   35.2990   38.4350 C   0  0  0  0  0  0  0  0  0  0  0  0
   40.2380   35.2750   39.8010 C   0  0  0  0  0  0  0  0  0  0  0  0
   39.1690   34.5060   40.1770 C   0  0  0  0  0  0  0  0  0  0  0  0
   38.3480   33.7590   39.3360 C   0  0  0  0  0  0  0  0  0  0  0  0
   38.6540   33.8040   37.9950 C   0  0  0  0  0  0  0  0  0  0  0  0
   37.6750   32.8920   36.8430 Cl  0  0  0  0  0  0  0  0  0  0  0  0
   39.7270   34.5680   37.5620 C   0  0  0  0  0  0  0  0  0  0  0  0
   38.9120   34.4570   41.2310 H   0  0  0  0  0  0  0  0  0  0  0  0
   37.5240   33.1830   39.7390 H   0  0  0  0  0  0  0  0  0  0  0  0
   39.9860   34.6200   36.5090 H   0  0  0  0  0  0  0  0  0  0  0  0
   43.5850   34.9540   40.7780 S   0  0  0  0  0  0  0  0  0  0  0  0
   44.8890   34.6590   41.9710 C   0  0  0  0  0  0  0  0  0  0  0  0
   46.1790   34.4810   41.4550 C   0  0  0  0  0  0  0  0  0  0  0  0
   47.2190   34.2490   42.3520 C   0  0  0  0  0  0  0  0  0  0  0  0
   46.9230   34.2080   43.6690 N   0  0  0  0  0  0  0  0  0  0  0  0
   45.6770   34.3800   44.1510 C   0  0  0  0  0  0  0  0  0  0  0  0
   44.6770   34.6030   43.2930 N   0  0  0  0  0  0  0  0  0  0  0  0
   46.3770   34.5210   40.3920 H   0  0  0  0  0  0  0  0  0  0  0  0
   45.4930   34.3130   45.5810 C   0  0  0  0  0  0  0  0  0  0  0  0
   44.5350   34.9670   46.0780 O   0  0  0  0  0  0  0  0  0  0  0  0
   46.4260   33.4990   46.3290 N   0  0  0  0  0  0  0  0  0  0  0  0
   45.9800   32.9790   47.1130 H   0  0  0  0  0  0  0  0  0  0  0  0
   47.4330   33.5090   46.0220 H   0  0  0  0  0  0  0  0  0  0  0  0
   48.5960   34.0580   41.8340 C   0  0  0  0  0  3  0  0  0  0  0  0
   49.1210   32.6520   42.0750 C   0  0  0  0  0  2  0  0  0  0  0  0
   48.8900   33.1800   40.6900 C   0  0  0  0  0  2  0  0  0  0  0  0
  1  2  1  0  0  0  0
  1  3  1  0  0  0  0
  4  6  1  0  0  0  0
  4  1  1  0  0  0  0
  5  4  1  0  0  0  0
  7  8  1  0  0  0  0
  8  9  1  0  0  0  0
  9 10  2  0  0  0  0
  9  4  1  0  0  0  0
 10 15  1  0  0  0  0
 11 16  1  0  0  0  0
 11 10  1  0  0  0  0
 12 11  2  0  0  0  0
 13 12  1  0  0  0  0
 14 12  1  0  0  0  0
 14  8  2  0  0  0  0
 17 14  1  0  0  0  0
 18  1  1  0  0  0  0
 18 19  1  0  0  0  0
 19 24  1  0  0  0  0
 20 19  2  0  0  0  0
 20 21  1  0  0  0  0
 21 22  2  0  0  0  0
 22 23  1  0  0  0  0
 23 26  1  0  0  0  0
 24 23  2  0  0  0  0
 25 20  1  0  0  0  0
 26 27  2  0  0  0  0
 26 28  1  0  0  0  0
 28 29  1  0  0  0  0
 30 28  1  0  0  0  0
 31 32  1  0  0  0  0
 31 21  1  0  0  0  0
 33 31  1  0  0  0  0
 33 32  1  0  0  0  0
M  END
>  <minimizedAffinity>
-6.55017424

>  <minimizedRMSD>
0.293790072

$$$$
