
 OpenBabel03252509113D

 25 28  0  0  0  0  0  0  0  0999 V2000
   47.6000   31.8000   44.1960 C   0  0  0  0  0  0  0  0  0  0  0  0
   47.1290   33.0760   43.8960 C   0  0  0  0  0  0  0  0  0  0  0  0
   46.2850   33.7950   44.7530 C   0  0  0  0  0  0  0  0  0  0  0  0
   45.8990   33.2150   45.9520 C   0  0  0  0  0  0  0  0  0  0  0  0
   45.1160   33.5820   46.9930 N   0  0  0  0  0  0  0  0  0  0  0  0
   45.0910   32.5850   47.9090 C   0  0  0  0  0  0  0  0  0  0  0  0
   45.8700   31.6020   47.4200 N   0  0  0  0  0  0  0  0  0  0  0  0
   46.3750   31.9580   46.2270 C   0  0  0  0  0  0  0  0  0  0  0  0
   47.2110   31.2190   45.4040 C   0  0  0  0  0  0  0  0  0  0  0  0
   48.2560   31.2990   43.4790 H   0  0  0  0  0  0  0  0  0  0  0  0
   44.6020   34.4820   47.0760 H   0  0  0  0  0  0  0  0  0  0  0  0
   44.5240   32.6510   48.8380 H   0  0  0  0  0  0  0  0  0  0  0  0
   47.5720   30.2380   45.6380 H   0  0  0  0  0  0  0  0  0  0  0  0
   47.2650   33.9750   40.3350 C   0  0  0  0  0  0  0  0  0  0  0  0
   48.2890   34.9180   40.2950 C   0  0  0  0  0  0  0  0  0  0  0  0
   48.9310   35.2410   41.4960 C   0  0  0  0  0  0  0  0  0  0  0  0
   48.5050   34.6050   42.6290 N   0  0  0  0  0  0  0  0  0  0  0  0
   47.5190   33.7030   42.6460 C   0  0  0  0  0  0  0  0  0  0  0  0
   46.9120   33.3990   41.5020 N   0  0  0  0  0  0  0  0  0  0  0  0
   46.6990   33.6420   39.4970 H   0  0  0  0  0  0  0  0  0  0  0  0
   48.5340   35.3450   39.3550 H   0  0  0  0  0  0  0  0  0  0  0  0
   49.7170   35.9590   41.4920 H   0  0  0  0  0  0  0  0  0  0  0  0
   45.8050   35.1460   44.3740 C   0  0  0  0  0  0  0  0  0  0  0  0
   44.4480   35.5360   45.0190 C   0  0  0  0  0  0  0  0  0  0  0  0
   44.5720   35.3350   43.5550 C   0  0  0  0  0  0  0  0  0  0  0  0
  1  9  1  0  0  0  0
  2  1  2  0  0  0  0
  2  3  1  0  0  0  0
  3  4  2  0  0  0  0
  4  8  1  0  0  0  0
  4  5  1  0  0  0  0
  5 11  1  0  0  0  0
  5  6  1  0  0  0  0
  6 12  1  0  0  0  0
  7  6  2  0  0  0  0
  8  7  1  0  0  0  0
  9 13  1  0  0  0  0
  9  8  2  0  0  0  0
 10  1  1  0  0  0  0
 14 19  1  0  0  0  0
 15 14  2  0  0  0  0
 15 16  1  0  0  0  0
 16 17  2  0  0  0  0
 17 18  1  0  0  0  0
 18  2  1  0  0  0  0
 19 18  2  0  0  0  0
 20 14  1  0  0  0  0
 21 15  1  0  0  0  0
 22 16  1  0  0  0  0
 23  3  1  0  0  0  0
 23 24  1  0  0  0  0
 25 23  1  0  0  0  0
 25 24  1  0  0  0  0
M  END
>  <minimizedAffinity>
-5.27186108

>  <minimizedRMSD>
1.59920716

$$$$
