
 OpenBabel03242522233D

 22 24  0  0  0  0  0  0  0  0999 V2000
   44.7880   32.9340   41.4780 Cl  0  0  0  0  0  0  0  0  0  0  0  0
   46.2600   33.8250   41.1320 C   0  0  0  0  0  0  0  0  0  0  0  0
   46.8470   34.5920   42.1230 C   0  0  0  0  0  0  0  0  0  0  0  0
   47.9980   35.2750   41.8140 C   0  0  0  0  0  0  0  0  0  0  0  0
   48.5710   35.2150   40.5610 C   0  0  0  0  0  0  0  0  0  0  0  0
   47.9380   34.4260   39.5950 C   0  0  0  0  0  0  0  0  0  0  0  0
   48.6350   34.3260   37.9950 Cl  0  0  0  0  0  0  0  0  0  0  0  0
   46.7750   33.7170   39.8540 C   0  0  0  0  0  0  0  0  0  0  0  0
   48.4620   35.8800   42.5950 H   0  0  0  0  0  0  0  0  0  0  0  0
   49.4670   35.7700   40.3820 H   0  0  0  0  0  0  0  0  0  0  0  0
   46.3230   33.1200   39.0720 H   0  0  0  0  0  0  0  0  0  0  0  0
   44.5420   35.5310   44.9770 C   0  0  0  0  0  0  0  0  0  0  0  0
   45.1690   35.5170   43.7200 C   0  0  0  0  0  0  0  0  0  0  0  0
   46.1930   34.6130   43.4220 C   0  0  0  0  0  0  0  0  0  0  0  0
   46.5340   33.7590   44.4260 N   0  0  0  0  0  0  0  0  0  0  0  0
   45.9300   33.7790   45.6240 C   0  0  0  0  0  0  0  0  0  0  0  0
   44.9500   34.6550   45.8880 N   0  0  0  0  0  0  0  0  0  0  0  0
   43.7510   36.2440   45.1750 H   0  0  0  0  0  0  0  0  0  0  0  0
   44.8440   36.2210   42.9820 H   0  0  0  0  0  0  0  0  0  0  0  0
   46.4200   32.7760   46.6170 C   0  0  0  0  0  0  0  0  0  0  0  0
   45.4870   32.4900   47.7320 C   0  0  0  0  0  0  0  0  0  0  0  0
   45.7560   31.4540   46.7140 C   0  0  0  0  0  0  0  0  0  0  0  0
  2  1  1  0  0  0  0
  2  3  1  0  0  0  0
  3 14  1  0  0  0  0
  4  3  2  0  0  0  0
  4  9  1  0  0  0  0
  5  4  1  0  0  0  0
  6  8  1  0  0  0  0
  6  5  2  0  0  0  0
  7  6  1  0  0  0  0
  8  2  2  0  0  0  0
 10  5  1  0  0  0  0
 11  8  1  0  0  0  0
 12 18  1  0  0  0  0
 12 17  1  0  0  0  0
 13 12  2  0  0  0  0
 14 13  1  0  0  0  0
 14 15  2  0  0  0  0
 15 16  1  0  0  0  0
 16 17  2  0  0  0  0
 16 20  1  0  0  0  0
 19 13  1  0  0  0  0
 20 22  1  0  0  0  0
 20 21  1  0  0  0  0
 22 21  1  0  0  0  0
M  END
>  <minimizedAffinity>
-5.71687841

>  <minimizedRMSD>
0.443071663

$$$$
