
 OpenBabel03252504423D

 39 42  0  0  0  0  0  0  0  0999 V2000
   46.3100   32.1110   48.0080 C   0  0  0  0  0  0  0  0  0  0  0  0
   45.8420   31.5400   49.1540 C   0  0  0  0  0  0  0  0  0  0  0  0
   46.8530   30.8410   49.6710 N   0  0  0  0  0  0  0  0  0  0  0  0
   47.9450   30.9420   48.9050 C   0  0  0  0  0  0  0  0  0  0  0  0
   47.5920   31.7440   47.8600 N   0  0  0  0  0  0  0  0  0  0  0  0
   49.2500   30.3900   49.0350 N   0  0  0  0  0  0  0  0  0  0  0  0
   50.2370   31.1780   49.8110 C   0  0  0  0  0  0  0  0  0  0  0  0
   50.3390   30.4470   51.1490 C   0  0  0  0  0  0  0  0  0  0  0  0
   50.5310   28.9710   50.9250 C   0  0  0  0  0  0  0  0  0  0  0  0
   50.9450   28.7180   49.4830 C   0  0  0  0  0  0  0  0  0  0  0  0
   49.8450   29.1850   48.5550 C   0  0  0  0  0  0  0  0  0  0  0  0
   44.8370   31.6380   49.5640 H   0  0  0  0  0  0  0  0  0  0  0  0
   46.8390   30.2760   50.5530 H   0  0  0  0  0  0  0  0  0  0  0  0
   51.1960   31.2250   49.2860 H   0  0  0  0  0  0  0  0  0  0  0  0
   49.8430   32.1880   50.0390 H   0  0  0  0  0  0  0  0  0  0  0  0
   49.4150   30.5940   51.7110 H   0  0  0  0  0  0  0  0  0  0  0  0
   51.2250   30.8520   51.6990 H   0  0  0  0  0  0  0  0  0  0  0  0
   49.5890   28.4030   51.0680 H   0  0  0  0  0  0  0  0  0  0  0  0
   51.3140   28.5250   51.5890 H   0  0  0  0  0  0  0  0  0  0  0  0
   51.1330   27.6400   49.3400 H   0  0  0  0  0  0  0  0  0  0  0  0
   51.8740   29.2960   49.3150 H   0  0  0  0  0  0  0  0  0  0  0  0
   50.2310   29.2920   47.5180 H   0  0  0  0  0  0  0  0  0  0  0  0
   49.0800   28.3570   48.5760 H   0  0  0  0  0  0  0  0  0  0  0  0
   45.5440   32.9930   47.0790 C   0  0  0  0  0  0  0  0  0  0  0  0
   45.3990   33.9870   47.5630 H   0  0  0  0  0  0  0  0  0  0  0  0
   44.5400   32.5490   46.8760 H   0  0  0  0  0  0  0  0  0  0  0  0
   45.8440   33.9550   44.8280 C   0  0  0  0  0  3  0  0  0  0  0  0
   46.2800   33.1980   45.8150 C   0  0  0  0  0  3  0  0  0  0  0  0
   46.6770   34.0620   43.6350 C   0  0  0  0  0  0  0  0  0  0  0  0
   46.3970   35.0140   42.6150 C   0  0  0  0  0  0  0  0  0  0  0  0
   47.2340   35.0440   41.5200 C   0  0  0  0  0  0  0  0  0  0  0  0
   48.2730   34.1880   41.4450 N   0  0  0  0  0  0  0  0  0  0  0  0
   48.5180   33.2950   42.4240 C   0  0  0  0  0  0  0  0  0  0  0  0
   47.7470   33.2280   43.4890 N   0  0  0  0  0  0  0  0  0  0  0  0
   45.5450   35.6570   42.7610 H   0  0  0  0  0  0  0  0  0  0  0  0
   46.9960   35.7760   40.7630 H   0  0  0  0  0  0  0  0  0  0  0  0
   49.6760   32.3730   42.2950 C   0  0  0  0  0  3  0  0  0  0  0  0
   51.0570   32.9460   42.1420 C   0  0  0  0  0  2  0  0  0  0  0  0
   50.3880   32.1970   41.0190 C   0  0  0  0  0  2  0  0  0  0  0  0
  1  2  2  0  0  0  0
  2 12  1  0  0  0  0
  2  3  1  0  0  0  0
  3 13  1  0  0  0  0
  4  6  1  0  0  0  0
  4  3  1  0  0  0  0
  5  1  1  0  0  0  0
  5  4  2  0  0  0  0
  6  7  1  0  0  0  0
  7 15  1  0  0  0  0
  7  8  1  0  0  0  0
  8 17  1  0  0  0  0
  8 16  1  0  0  0  0
  9 18  1  0  0  0  0
  9  8  1  0  0  0  0
  9 19  1  0  0  0  0
 10  9  1  0  0  0  0
 11 23  1  0  0  0  0
 11  6  1  0  0  0  0
 11 10  1  0  0  0  0
 14  7  1  0  0  0  0
 20 10  1  0  0  0  0
 21 10  1  0  0  0  0
 22 11  1  0  0  0  0
 24 25  1  0  0  0  0
 24  1  1  0  0  0  0
 26 24  1  0  0  0  0
 27 28  2  0  0  0  0
 28 24  1  0  0  0  0
 29 27  1  0  0  0  0
 30 35  1  0  0  0  0
 30 29  2  0  0  0  0
 31 30  1  0  0  0  0
 32 31  2  0  0  0  0
 32 33  1  0  0  0  0
 33 34  2  0  0  0  0
 34 29  1  0  0  0  0
 36 31  1  0  0  0  0
 37 33  1  0  0  0  0
 38 37  1  0  0  0  0
 39 38  1  0  0  0  0
 39 37  1  0  0  0  0
M  END
>  <minimizedAffinity>
-5.87515163

>  <minimizedRMSD>
0.444638282

$$$$
