
 OpenBabel03252505463D

 22 24  0  0  1  0  0  0  0  0999 V2000
   42.7350   34.3450   40.8370 C   0  0  1  0  0  0  0  0  0  0  0  0
   41.9300   35.6140   40.4050 C   0  0  1  0  0  0  0  0  0  0  0  0
   42.4690   34.5830   39.4540 C   0  0  0  0  0  0  0  0  0  0  0  0
   42.1230   33.6040   41.4100 H   0  0  0  0  0  0  0  0  0  0  0  0
   42.4090   36.5850   40.4950 H   0  0  0  0  0  0  0  0  0  0  0  0
   43.2480   34.9680   38.7580 H   0  0  0  0  0  0  0  0  0  0  0  0
   41.7380   33.9210   38.9220 H   0  0  0  0  0  0  0  0  0  0  0  0
   43.9920   34.7100   41.5130 C   0  0  0  0  0  0  0  0  0  0  0  0
   43.9280   35.4700   42.7150 C   0  0  0  0  0  0  0  0  0  0  0  0
   45.0970   35.8260   43.3930 C   0  0  0  0  0  0  0  0  0  0  0  0
   46.2710   35.4040   42.8370 N   0  0  0  0  0  0  0  0  0  0  0  0
   46.2890   34.6740   41.6810 C   0  0  0  0  0  0  0  0  0  0  0  0
   45.1790   34.3410   41.0430 N   0  0  0  0  0  0  0  0  0  0  0  0
   42.9670   35.7790   43.1110 H   0  0  0  0  0  0  0  0  0  0  0  0
   45.0710   36.3950   44.2960 H   0  0  0  0  0  0  0  0  0  0  0  0
   47.6170   34.2420   41.1260 C   0  0  0  0  0  0  0  0  0  0  0  0
   47.9920   34.5800   39.7420 C   0  0  0  0  0  0  0  0  0  0  0  0
   48.6610   35.3200   40.9120 C   0  0  0  0  0  0  0  0  0  0  0  0
   40.4460   35.5090   40.6710 C   0  0  0  0  0  0  0  0  0  0  0  0
   39.8340   36.7420   40.7320 F   0  0  0  0  0  0  0  0  0  0  0  0
   39.8590   34.8090   39.6060 F   0  0  0  0  0  0  0  0  0  0  0  0
   40.2030   34.7620   41.8030 F   0  0  0  0  0  0  0  0  0  0  0  0
  1  4  1  1  0  0  0
  1  8  1  0  0  0  0
  2  5  1  1  0  0  0
  2 19  1  0  0  0  0
  2  1  1  0  0  0  0
  3  2  1  0  0  0  0
  3  1  1  0  0  0  0
  6  3  1  0  0  0  0
  7  3  1  0  0  0  0
  8  9  1  0  0  0  0
  9 14  1  0  0  0  0
  9 10  2  0  0  0  0
 10 15  1  0  0  0  0
 11 10  1  0  0  0  0
 12 11  2  0  0  0  0
 13  8  2  0  0  0  0
 13 12  1  0  0  0  0
 16 12  1  0  0  0  0
 17 18  1  0  0  0  0
 17 16  1  0  0  0  0
 18 16  1  0  0  0  0
 19 20  1  0  0  0  0
 19 22  1  0  0  0  0
 21 19  1  0  0  0  0
M  END
>  <minimizedAffinity>
-5.30855465

>  <minimizedRMSD>
5.91468525

$$$$
