
 OpenBabel03252503023D

 27 28  0  0  0  0  0  0  0  0999 V2000
   43.5790   35.5240   41.7460 C   0  0  0  0  0  0  0  0  0  0  0  0
   42.8680   36.0900   41.1180 H   0  0  0  0  0  0  0  0  0  0  0  0
   44.6060   35.8470   41.4770 H   0  0  0  0  0  0  0  0  0  0  0  0
   43.3190   35.7020   43.1710 N   0  0  0  0  0  0  0  0  0  0  0  0
   42.8270   34.8920   43.6040 H   0  0  0  0  0  0  0  0  0  0  0  0
   44.7490   35.9510   44.0930 S   0  0  0  0  0  0  0  0  0  0  0  0
   45.9460   35.3480   43.4450 O   0  0  0  0  0  0  0  0  0  0  0  0
   45.9720   34.5880   42.8330 H   0  0  0  0  0  0  0  0  0  0  0  0
   44.9190   37.4590   44.1800 O   0  0  0  0  0  0  0  0  0  0  0  0
   45.3350   37.9380   43.4230 H   0  0  0  0  0  0  0  0  0  0  0  0
   44.5470   35.3850   45.6350 O   0  0  0  0  0  0  0  0  0  0  0  0
   45.2300   34.2070   45.8710 C   0  0  0  0  0  0  0  0  0  0  0  0
   44.6360   33.5070   46.4920 H   0  0  0  0  0  0  0  0  0  0  0  0
   45.4200   33.6780   44.8960 H   0  0  0  0  0  0  0  0  0  0  0  0
   46.2010   34.3530   46.4070 H   0  0  0  0  0  0  0  0  0  0  0  0
   43.4210   33.7750   41.3980 S   0  0  0  0  0  0  0  0  0  0  0  0
   41.1050   32.3590   40.8510 C   0  0  0  0  0  0  0  0  0  0  0  0
   41.8500   33.4770   40.5530 C   0  0  0  0  0  0  0  0  0  0  0  0
   41.4170   34.4130   39.5930 C   0  0  0  0  0  0  0  0  0  0  0  0
   40.2300   34.1350   38.9940 N   0  0  0  0  0  0  0  0  0  0  0  0
   39.5250   33.0340   39.3070 C   0  0  0  0  0  0  0  0  0  0  0  0
   39.9340   32.1510   40.2120 N   0  0  0  0  0  0  0  0  0  0  0  0
   41.4800   31.6740   41.5920 H   0  0  0  0  0  0  0  0  0  0  0  0
   41.9930   35.2960   39.3510 H   0  0  0  0  0  0  0  0  0  0  0  0
   38.2270   32.8010   38.6000 C   0  0  0  0  0  0  0  0  0  0  0  0
   38.0530   33.5270   37.3010 C   0  0  0  0  0  0  0  0  0  0  0  0
   38.2940   32.0620   37.2620 C   0  0  0  0  0  0  0  0  0  0  0  0
  1  4  1  0  0  0  0
  2  1  1  0  0  0  0
  3  1  1  0  0  0  0
  4  5  1  0  0  0  0
  4  6  1  0  0  0  0
  6  9  1  0  0  0  0
  6 11  1  0  0  0  0
  7  6  1  0  0  0  0
  8  7  1  0  0  0  0
 10  9  1  0  0  0  0
 11 12  1  0  0  0  0
 12 15  1  0  0  0  0
 12 13  1  0  0  0  0
 14 12  1  0  0  0  0
 16  1  1  0  0  0  0
 17 23  1  0  0  0  0
 18 17  1  0  0  0  0
 18 16  1  0  0  0  0
 19 18  2  0  0  0  0
 20 21  2  0  0  0  0
 20 19  1  0  0  0  0
 21 22  1  0  0  0  0
 22 17  2  0  0  0  0
 24 19  1  0  0  0  0
 25 21  1  0  0  0  0
 26 25  1  0  0  0  0
 27 26  1  0  0  0  0
 27 25  1  0  0  0  0
M  END
>  <minimizedAffinity>
-4.82142448

>  <minimizedRMSD>
1.10365725

$$$$
