REMARK  Name = 
REMARK  3 active torsions:
REMARK  status: ('A' for Active; 'I' for Inactive)
REMARK    1  A    between atoms: C_1  and  C_8
REMARK    2  A    between atoms: N_4  and  C_13
REMARK    3  A    between atoms: C_17  and  C_31
REMARK                            x       y       z     vdW  Elec       q    Type
REMARK                         _______ _______ _______ _____ _____    ______ ____
ROOT
ATOM      1  N   UNL     1      42.345  33.723  39.655  0.00  0.00    +0.000 NA
ATOM      2  C   UNL     1      42.219  33.938  41.099  0.00  0.00    +0.000 C 
ATOM      3  C   UNL     1      41.166  34.926  41.443  0.00  0.00    +0.000 C 
ATOM      4  N   UNL     1      40.336  35.279  40.304  0.00  0.00    +0.000 NA
ATOM      5  C   UNL     1      41.044  35.630  39.126  0.00  0.00    +0.000 C 
ATOM      6  C   UNL     1      42.449  35.093  39.102  0.00  0.00    +0.000 C 
ATOM      7  H   UNL     1      41.445  33.298  39.354  0.00  0.00    +0.000 HD
ATOM      8  H   UNL     1      41.989  32.940  41.559  0.00  0.00    +0.000 HD
ATOM      9  H   UNL     1      41.502  35.929  41.757  0.00  0.00    +0.000 HD
ATOM     10  H   UNL     1      40.451  34.479  42.186  0.00  0.00    +0.000 HD
ATOM     11  H   UNL     1      39.543  34.619  40.169  0.00  0.00    +0.000 HD
ATOM     12  H   UNL     1      40.493  35.225  38.250  0.00  0.00    +0.000 HD
ATOM     13  H   UNL     1      41.078  36.745  39.011  0.00  0.00    +0.000 HD
ATOM     14  H   UNL     1      43.061  35.689  39.820  0.00  0.00    +0.000 HD
ENDROOT
BRANCH   2  18
ATOM     15  C   UNL     1      45.632  34.623  42.035  0.00  0.00    +0.000 A 
ATOM     16  C   UNL     1      44.901  35.656  42.634  0.00  0.00    +0.000 A 
ATOM     17  C   UNL     1      43.554  35.499  42.348  0.00  0.00    +0.000 A 
ATOM     18  N   UNL     1      43.496  34.402  41.598  0.00  0.00    +0.000 N 
ATOM     19  N   UNL     1      44.705  33.892  41.416  0.00  0.00    +0.000 NA
ATOM     20  H   UNL     1      45.454  36.407  43.214  0.00  0.00    +0.000 HD
ATOM     21  H   UNL     1      42.986  36.295  42.817  0.00  0.00    +0.000 HD
BRANCH  15  24
ATOM     22  C   UNL     1      49.354  35.150  41.985  0.00  0.00    +0.000 A 
ATOM     23  C   UNL     1      47.967  35.461  41.836  0.00  0.00    +0.000 A 
ATOM     24  C   UNL     1      47.083  34.453  42.131  0.00  0.00    +0.000 A 
ATOM     25  N   UNL     1      47.552  33.249  42.538  0.00  0.00    +0.000 NA
ATOM     26  C   UNL     1      48.862  32.970  42.674  0.00  0.00    +0.000 A 
ATOM     27  N   UNL     1      49.738  33.930  42.393  0.00  0.00    +0.000 NA
ATOM     28  H   UNL     1      50.036  35.932  41.755  0.00  0.00    +0.000 HD
ATOM     29  H   UNL     1      47.591  36.406  41.517  0.00  0.00    +0.000 HD
ATOM     30  H   UNL     1      49.216  32.001  42.999  0.00  0.00    +0.000 HD
ENDBRANCH  15  24
ENDBRANCH   2  18
BRANCH   6  31
ATOM     31  C   UNL     1      43.067  35.054  37.760  0.00  0.00    +0.000 C 
ATOM     32  C   UNL     1      43.322  36.219  36.922  0.00  0.00    +0.000 C 
ATOM     33  C   UNL     1      42.126  35.364  36.599  0.00  0.00    +0.000 C 
ENDBRANCH   6  31
TORSDOF 3
