
 OpenBabel03252504363D

 36 38  0  0  0  0  0  0  0  0999 V2000
   37.0750   29.3650   41.8570 C   0  0  0  0  0  3  0  0  0  0  0  0
   36.3610   30.0030   40.9430 C   0  0  0  0  0  3  0  0  0  0  0  0
   36.5950   31.4390   40.5180 C   0  0  0  0  0  0  0  0  0  0  0  0
   35.8400   32.1090   40.9860 H   0  0  0  0  0  0  0  0  0  0  0  0
   36.4780   31.4460   39.4100 H   0  0  0  0  0  0  0  0  0  0  0  0
   37.8930   31.7650   40.8370 O   0  0  0  0  0  0  0  0  0  0  0  0
   37.1670   33.9170   39.4440 O   0  0  0  0  0  0  0  0  0  0  0  0
   38.3100   33.2570   40.1970 P   0  0  1  0  0  0  0  0  0  0  0  0
   38.7180   34.3250   41.4690 O   0  0  0  0  0  0  0  0  0  0  0  0
   38.8800   33.7980   42.2990 H   0  0  0  0  0  0  0  0  0  0  0  0
   39.6580   33.1540   39.2080 O   0  0  0  0  0  0  0  0  0  0  0  0
   40.7430   33.8530   39.7300 C   0  0  0  0  0  0  0  0  0  0  0  0
   41.7640   34.3480   38.7320 C   0  0  0  0  0  0  0  0  0  0  0  0
   42.0780   33.1790   39.6590 C   0  0  0  0  0  0  0  0  0  0  0  0
   40.4980   34.4870   40.5870 H   0  0  0  0  0  0  0  0  0  0  0  0
   41.5940   34.1480   37.6700 H   0  0  0  0  0  0  0  0  0  0  0  0
   42.2500   35.3000   39.0280 H   0  0  0  0  0  0  0  0  0  0  0  0
   42.7930   33.3190   40.4950 H   0  0  0  0  0  0  0  0  0  0  0  0
   42.1670   32.2030   39.1190 H   0  0  0  0  0  0  0  0  0  0  0  0
   36.7040   28.0590   42.0980 O   0  0  0  0  0  0  0  0  0  0  0  0
   36.9280   27.2750   43.1790 C   0  0  0  0  0  0  0  0  0  0  0  0
   36.1810   26.4130   43.0860 H   0  0  0  0  0  0  0  0  0  0  0  0
   36.8170   27.6520   44.1840 H   0  0  0  0  0  0  0  0  0  0  0  0
   39.3420   27.1200   43.6730 C   0  0  0  0  0  0  0  0  0  0  0  0
   38.2350   26.5150   43.0870 C   0  0  0  0  0  0  0  0  0  0  0  0
   38.3970   25.3000   42.4640 C   0  0  0  0  0  0  0  0  0  0  0  0
   39.6360   24.7980   42.4770 N   0  0  0  0  0  0  0  0  0  0  0  0
   40.6740   25.3740   43.0310 C   0  0  0  0  0  0  0  0  0  0  0  0
   40.5720   26.5940   43.6720 N   0  0  0  0  0  0  0  0  0  0  0  0
   41.9400   24.7320   42.9620 N   0  0  0  0  0  0  0  0  0  0  0  0
   39.2560   28.0760   44.1750 H   0  0  0  0  0  0  0  0  0  0  0  0
   42.5260   24.8000   42.0850 H   0  0  0  0  0  0  0  0  0  0  0  0
   42.4100   24.1710   43.6820 H   0  0  0  0  0  0  0  0  0  0  0  0
   37.2040   24.7020   41.8630 C   0  0  0  0  0  3  0  0  0  0  0  0
   37.1900   23.5940   40.9030 C   0  0  0  0  0  2  0  0  0  0  0  0
   37.1540   24.9340   40.3240 C   0  0  0  0  0  2  0  0  0  0  0  0
  1 20  1  0  0  0  0
  2  1  2  0  0  0  0
  3  6  1  0  0  0  0
  3  2  1  0  0  0  0
  3  4  1  0  0  0  0
  5  3  1  0  0  0  0
  8  7  2  6  0  0  0
  8  6  1  0  0  0  0
  8  9  1  0  0  0  0
  9 10  1  0  0  0  0
 11 12  1  0  0  0  0
 11  8  1  0  0  0  0
 12 15  1  0  0  0  0
 13 17  1  0  0  0  0
 13 14  1  0  0  0  0
 13 12  1  0  0  0  0
 14 12  1  0  0  0  0
 14 18  1  0  0  0  0
 16 13  1  0  0  0  0
 19 14  1  0  0  0  0
 20 21  1  0  0  0  0
 21 23  1  0  0  0  0
 22 21  1  0  0  0  0
 24 31  1  0  0  0  0
 25 21  1  0  0  0  0
 25 24  2  0  0  0  0
 26 27  2  0  0  0  0
 26 25  1  0  0  0  0
 27 28  1  0  0  0  0
 28 29  2  0  0  0  0
 29 24  1  0  0  0  0
 30 28  1  0  0  0  0
 30 33  1  0  0  0  0
 32 30  1  0  0  0  0
 34 26  1  0  0  0  0
 35 34  1  0  0  0  0
 36 35  1  0  0  0  0
 36 34  1  0  0  0  0
M  END
>  <minimizedAffinity>
-5.37992811

$$$$

 OpenBabel03252504363D

 36 38  0  0  0  0  0  0  0  0999 V2000
   34.9080   29.0820   36.7260 C   0  0  0  0  0  3  0  0  0  0  0  0
   35.2650   29.0730   38.0010 C   0  0  0  0  0  3  0  0  0  0  0  0
   36.6370   29.4670   38.5120 C   0  0  0  0  0  0  0  0  0  0  0  0
   37.4130   29.2440   37.7460 H   0  0  0  0  0  0  0  0  0  0  0  0
   36.8080   28.8450   39.4210 H   0  0  0  0  0  0  0  0  0  0  0  0
   36.5860   30.7930   38.8740 O   0  0  0  0  0  0  0  0  0  0  0  0
   37.7600   32.2720   40.7530 O   0  0  0  0  0  0  0  0  0  0  0  0
   36.9920   30.9880   40.4880 P   0  0  1  0  0  0  0  0  0  0  0  0
   35.5630   31.0900   41.4230 O   0  0  0  0  0  0  0  0  0  0  0  0
   34.7940   30.7590   40.8820 H   0  0  0  0  0  0  0  0  0  0  0  0
   37.8550   29.6780   41.0750 O   0  0  0  0  0  0  0  0  0  0  0  0
   37.4570   29.3250   42.3620 C   0  0  0  0  0  0  0  0  0  0  0  0
   38.2490   28.2240   43.0300 C   0  0  0  0  0  0  0  0  0  0  0  0
   36.8300   27.9750   42.5290 C   0  0  0  0  0  0  0  0  0  0  0  0
   37.1120   30.1650   42.9710 H   0  0  0  0  0  0  0  0  0  0  0  0
   39.0870   27.7800   42.4840 H   0  0  0  0  0  0  0  0  0  0  0  0
   38.3240   28.3350   44.1300 H   0  0  0  0  0  0  0  0  0  0  0  0
   36.0040   27.8560   43.2580 H   0  0  0  0  0  0  0  0  0  0  0  0
   36.7910   27.2820   41.6520 H   0  0  0  0  0  0  0  0  0  0  0  0
   33.6110   28.6930   36.4680 O   0  0  0  0  0  0  0  0  0  0  0  0
   32.6740   29.2590   35.6710 C   0  0  0  0  0  0  0  0  0  0  0  0
   32.0200   28.3910   35.3130 H   0  0  0  0  0  0  0  0  0  0  0  0
   32.9440   29.8070   34.7820 H   0  0  0  0  0  0  0  0  0  0  0  0
   31.3780   29.6240   37.7390 C   0  0  0  0  0  0  0  0  0  0  0  0
   31.6560   30.0660   36.4500 C   0  0  0  0  0  0  0  0  0  0  0  0
   30.9960   31.1720   35.9710 C   0  0  0  0  0  0  0  0  0  0  0  0
   30.1210   31.7370   36.8090 N   0  0  0  0  0  0  0  0  0  0  0  0
   29.8630   31.3160   38.0220 C   0  0  0  0  0  0  0  0  0  0  0  0
   30.4960   30.2110   38.5570 N   0  0  0  0  0  0  0  0  0  0  0  0
   28.8990   32.0080   38.8050 N   0  0  0  0  0  0  0  0  0  0  0  0
   31.8780   28.7580   38.1530 H   0  0  0  0  0  0  0  0  0  0  0  0
   27.8670   31.8330   38.6570 H   0  0  0  0  0  0  0  0  0  0  0  0
   29.0580   32.7030   39.5440 H   0  0  0  0  0  0  0  0  0  0  0  0
   31.3230   31.5990   34.6100 C   0  0  0  0  0  3  0  0  0  0  0  0
   30.5420   32.5320   33.7920 C   0  0  0  0  0  2  0  0  0  0  0  0
   30.2590   31.1150   33.5800 C   0  0  0  0  0  2  0  0  0  0  0  0
  1  2  2  0  0  0  0
  2  3  1  0  0  0  0
  3  6  1  0  0  0  0
  3  5  1  0  0  0  0
  4  3  1  0  0  0  0
  6  8  1  0  0  0  0
  8  7  2  1  0  0  0
  8 11  1  0  0  0  0
  8  9  1  0  0  0  0
 10  9  1  0  0  0  0
 11 12  1  0  0  0  0
 12 14  1  0  0  0  0
 12 15  1  0  0  0  0
 12 13  1  0  0  0  0
 13 17  1  0  0  0  0
 14 13  1  0  0  0  0
 14 18  1  0  0  0  0
 16 13  1  0  0  0  0
 19 14  1  0  0  0  0
 20  1  1  0  0  0  0
 21 25  1  0  0  0  0
 21 20  1  0  0  0  0
 22 21  1  0  0  0  0
 23 21  1  0  0  0  0
 24 31  1  0  0  0  0
 24 29  1  0  0  0  0
 25 24  2  0  0  0  0
 26 25  1  0  0  0  0
 26 27  2  0  0  0  0
 27 28  1  0  0  0  0
 28 29  2  0  0  0  0
 28 30  1  0  0  0  0
 30 33  1  0  0  0  0
 32 30  1  0  0  0  0
 34 26  1  0  0  0  0
 35 34  1  0  0  0  0
 36 35  1  0  0  0  0
 36 34  1  0  0  0  0
M  END
>  <minimizedAffinity>
-5.30316162

$$$$

 OpenBabel03252504363D

 36 38  0  0  0  0  0  0  0  0999 V2000
   37.9450   29.0310   42.0760 C   0  0  0  0  0  3  0  0  0  0  0  0
   37.7470   28.2010   43.0890 C   0  0  0  0  0  3  0  0  0  0  0  0
   38.5910   26.9740   43.3710 C   0  0  0  0  0  0  0  0  0  0  0  0
   37.9460   26.0710   43.4480 H   0  0  0  0  0  0  0  0  0  0  0  0
   39.0910   27.1720   44.3480 H   0  0  0  0  0  0  0  0  0  0  0  0
   39.5460   26.8850   42.3850 O   0  0  0  0  0  0  0  0  0  0  0  0
   40.4920   25.1340   40.6140 O   0  0  0  0  0  0  0  0  0  0  0  0
   39.8360   25.2860   41.9750 P   0  0  1  0  0  0  0  0  0  0  0  0
   40.9220   24.5990   43.1040 O   0  0  0  0  0  0  0  0  0  0  0  0
   40.9660   25.1820   43.9110 H   0  0  0  0  0  0  0  0  0  0  0  0
   38.4370   24.3650   42.0380 O   0  0  0  0  0  0  0  0  0  0  0  0
   37.8140   24.2780   40.7960 C   0  0  0  0  0  0  0  0  0  0  0  0
   36.9280   25.4400   40.4080 C   0  0  0  0  0  0  0  0  0  0  0  0
   36.3280   24.0920   40.7970 C   0  0  0  0  0  0  0  0  0  0  0  0
   38.4220   23.8020   40.0210 H   0  0  0  0  0  0  0  0  0  0  0  0
   36.8340   26.2790   41.1040 H   0  0  0  0  0  0  0  0  0  0  0  0
   36.9100   25.6420   39.3180 H   0  0  0  0  0  0  0  0  0  0  0  0
   35.8690   23.4510   40.0180 H   0  0  0  0  0  0  0  0  0  0  0  0
   35.7770   24.1220   41.7700 H   0  0  0  0  0  0  0  0  0  0  0  0
   37.0690   30.0920   41.9970 O   0  0  0  0  0  0  0  0  0  0  0  0
   36.0910   30.3490   41.0950 C   0  0  0  0  0  0  0  0  0  0  0  0
   35.6140   31.3300   41.4400 H   0  0  0  0  0  0  0  0  0  0  0  0
   35.2720   29.6650   40.9390 H   0  0  0  0  0  0  0  0  0  0  0  0
   37.2760   32.0040   39.7000 C   0  0  0  0  0  0  0  0  0  0  0  0
   36.6370   30.7690   39.7470 C   0  0  0  0  0  0  0  0  0  0  0  0
   36.5320   30.0330   38.5910 C   0  0  0  0  0  0  0  0  0  0  0  0
   37.0660   30.5850   37.4970 N   0  0  0  0  0  0  0  0  0  0  0  0
   37.6660   31.7490   37.4590 C   0  0  0  0  0  0  0  0  0  0  0  0
   37.8030   32.5330   38.5890 N   0  0  0  0  0  0  0  0  0  0  0  0
   38.1820   32.2230   36.2220 N   0  0  0  0  0  0  0  0  0  0  0  0
   37.3800   32.6140   40.5890 H   0  0  0  0  0  0  0  0  0  0  0  0
   37.5390   32.6710   35.5120 H   0  0  0  0  0  0  0  0  0  0  0  0
   39.1510   32.1970   35.8840 H   0  0  0  0  0  0  0  0  0  0  0  0
   35.8530   28.7410   38.6900 C   0  0  0  0  0  3  0  0  0  0  0  0
   35.4060   27.9170   37.5630 C   0  0  0  0  0  2  0  0  0  0  0  0
   34.3990   28.8080   38.1350 C   0  0  0  0  0  2  0  0  0  0  0  0
  1  2  2  0  0  0  0
  2  3  1  0  0  0  0
  3  4  1  0  0  0  0
  3  5  1  0  0  0  0
  6  3  1  0  0  0  0
  8  7  2  6  0  0  0
  8 11  1  0  0  0  0
  8  6  1  0  0  0  0
  8  9  1  0  0  0  0
  9 10  1  0  0  0  0
 12 14  1  0  0  0  0
 12 11  1  0  0  0  0
 13 12  1  0  0  0  0
 13 14  1  0  0  0  0
 13 16  1  0  0  0  0
 14 19  1  0  0  0  0
 15 12  1  0  0  0  0
 17 13  1  0  0  0  0
 18 14  1  0  0  0  0
 20  1  1  0  0  0  0
 21 22  1  0  0  0  0
 21 20  1  0  0  0  0
 23 21  1  0  0  0  0
 24 25  1  0  0  0  0
 24 31  1  0  0  0  0
 25 21  1  0  0  0  0
 26 34  1  0  0  0  0
 26 25  2  0  0  0  0
 27 26  1  0  0  0  0
 28 27  2  0  0  0  0
 28 29  1  0  0  0  0
 29 24  2  0  0  0  0
 30 28  1  0  0  0  0
 32 30  1  0  0  0  0
 33 30  1  0  0  0  0
 35 36  1  0  0  0  0
 35 34  1  0  0  0  0
 36 34  1  0  0  0  0
M  END
>  <minimizedAffinity>
-4.87541533

$$$$

 OpenBabel03252504363D

 36 38  0  0  0  0  0  0  0  0999 V2000
   36.6200   28.1420   41.0460 C   0  0  0  0  0  3  0  0  0  0  0  0
   36.6730   27.8040   42.3250 C   0  0  0  0  0  3  0  0  0  0  0  0
   37.3940   26.5820   42.8600 C   0  0  0  0  0  0  0  0  0  0  0  0
   36.6910   25.7220   42.9390 H   0  0  0  0  0  0  0  0  0  0  0  0
   37.7600   26.8700   43.8730 H   0  0  0  0  0  0  0  0  0  0  0  0
   38.4720   26.3370   42.0420 O   0  0  0  0  0  0  0  0  0  0  0  0
   39.5780   24.3850   40.6050 O   0  0  0  0  0  0  0  0  0  0  0  0
   38.6620   24.6930   41.7780 P   0  0  1  0  0  0  0  0  0  0  0  0
   39.3920   23.9790   43.1500 O   0  0  0  0  0  0  0  0  0  0  0  0
   39.3250   24.6080   43.9200 H   0  0  0  0  0  0  0  0  0  0  0  0
   37.1890   23.9240   41.5660 O   0  0  0  0  0  0  0  0  0  0  0  0
   36.9460   23.6200   40.2290 C   0  0  0  0  0  0  0  0  0  0  0  0
   36.3340   24.7200   39.3920 C   0  0  0  0  0  0  0  0  0  0  0  0
   35.5130   23.5050   39.8110 C   0  0  0  0  0  0  0  0  0  0  0  0
   37.7000   22.9720   39.7720 H   0  0  0  0  0  0  0  0  0  0  0  0
   36.1310   25.6840   39.8680 H   0  0  0  0  0  0  0  0  0  0  0  0
   36.6540   24.7020   38.3310 H   0  0  0  0  0  0  0  0  0  0  0  0
   35.2360   22.7430   39.0550 H   0  0  0  0  0  0  0  0  0  0  0  0
   34.7100   23.7530   40.5500 H   0  0  0  0  0  0  0  0  0  0  0  0
   35.9170   29.2950   40.7650 O   0  0  0  0  0  0  0  0  0  0  0  0
   36.2700   30.5920   40.9290 C   0  0  0  0  0  0  0  0  0  0  0  0
   36.8830   30.6170   41.8960 H   0  0  0  0  0  0  0  0  0  0  0  0
   35.5310   31.3710   41.0310 H   0  0  0  0  0  0  0  0  0  0  0  0
   36.8710   31.2670   38.6320 C   0  0  0  0  0  0  0  0  0  0  0  0
   37.3170   31.0420   39.9310 C   0  0  0  0  0  0  0  0  0  0  0  0
   38.6490   31.2250   40.2160 C   0  0  0  0  0  0  0  0  0  0  0  0
   39.4170   31.6120   39.1920 N   0  0  0  0  0  0  0  0  0  0  0  0
   38.9910   31.8220   37.9710 C   0  0  0  0  0  0  0  0  0  0  0  0
   37.6630   31.6550   37.6260 N   0  0  0  0  0  0  0  0  0  0  0  0
   39.9200   32.2210   36.9730 N   0  0  0  0  0  0  0  0  0  0  0  0
   35.8300   31.1350   38.3680 H   0  0  0  0  0  0  0  0  0  0  0  0
   40.5390   31.5050   36.5010 H   0  0  0  0  0  0  0  0  0  0  0  0
   40.1000   33.1650   36.6110 H   0  0  0  0  0  0  0  0  0  0  0  0
   39.0690   30.9780   41.5950 C   0  0  0  0  0  3  0  0  0  0  0  0
   40.4530   30.9490   42.0790 C   0  0  0  0  0  2  0  0  0  0  0  0
   39.8800   29.6530   41.7230 C   0  0  0  0  0  2  0  0  0  0  0  0
  1  2  2  0  0  0  0
  2  3  1  0  0  0  0
  3  4  1  0  0  0  0
  3  5  1  0  0  0  0
  6  3  1  0  0  0  0
  8  7  2  6  0  0  0
  8  6  1  0  0  0  0
  8  9  1  0  0  0  0
  9 10  1  0  0  0  0
 11  8  1  0  0  0  0
 12 11  1  0  0  0  0
 13 14  1  0  0  0  0
 13 16  1  0  0  0  0
 13 12  1  0  0  0  0
 14 12  1  0  0  0  0
 14 19  1  0  0  0  0
 15 12  1  0  0  0  0
 17 13  1  0  0  0  0
 18 14  1  0  0  0  0
 20 21  1  0  0  0  0
 20  1  1  0  0  0  0
 21 23  1  0  0  0  0
 21 22  1  0  0  0  0
 24 25  1  0  0  0  0
 25 26  2  0  0  0  0
 25 21  1  0  0  0  0
 26 34  1  0  0  0  0
 27 26  1  0  0  0  0
 28 27  2  0  0  0  0
 29 28  1  0  0  0  0
 29 24  2  0  0  0  0
 30 28  1  0  0  0  0
 31 24  1  0  0  0  0
 32 30  1  0  0  0  0
 33 30  1  0  0  0  0
 34 36  1  0  0  0  0
 34 35  1  0  0  0  0
 36 35  1  0  0  0  0
M  END
>  <minimizedAffinity>
-4.84391356

$$$$

 OpenBabel03252504363D

 36 38  0  0  0  0  0  0  0  0999 V2000
   36.9480   29.7680   41.4230 C   0  0  0  0  0  3  0  0  0  0  0  0
   37.4750   30.9070   41.0030 C   0  0  0  0  0  3  0  0  0  0  0  0
   37.0040   31.6710   39.7810 C   0  0  0  0  0  0  0  0  0  0  0  0
   36.2470   32.4340   40.0690 H   0  0  0  0  0  0  0  0  0  0  0  0
   36.5440   30.9100   39.1100 H   0  0  0  0  0  0  0  0  0  0  0  0
   38.1130   32.2030   39.1650 O   0  0  0  0  0  0  0  0  0  0  0  0
   37.4020   30.5840   37.1730 O   0  0  0  0  0  0  0  0  0  0  0  0
   38.5760   31.2680   37.8530 P   0  0  1  0  0  0  0  0  0  0  0  0
   39.2910   32.2710   36.6670 O   0  0  0  0  0  0  0  0  0  0  0  0
   39.5280   33.1470   37.0790 H   0  0  0  0  0  0  0  0  0  0  0  0
   39.7300   30.1310   38.2770 O   0  0  0  0  0  0  0  0  0  0  0  0
   39.1820   28.8590   38.4190 C   0  0  0  0  0  0  0  0  0  0  0  0
   39.6370   28.0640   39.6210 C   0  0  0  0  0  0  0  0  0  0  0  0
   40.1060   27.6980   38.2160 C   0  0  0  0  0  0  0  0  0  0  0  0
   38.1360   28.7830   38.1060 H   0  0  0  0  0  0  0  0  0  0  0  0
   40.3490   28.5250   40.3110 H   0  0  0  0  0  0  0  0  0  0  0  0
   38.8600   27.3850   40.0260 H   0  0  0  0  0  0  0  0  0  0  0  0
   39.7160   26.7830   37.7280 H   0  0  0  0  0  0  0  0  0  0  0  0
   41.1960   27.8930   38.0540 H   0  0  0  0  0  0  0  0  0  0  0  0
   37.5160   29.2340   42.5600 O   0  0  0  0  0  0  0  0  0  0  0  0
   37.2790   28.0520   43.1790 C   0  0  0  0  0  0  0  0  0  0  0  0
   36.5120   27.5160   42.5200 H   0  0  0  0  0  0  0  0  0  0  0  0
   36.8850   28.0090   44.1820 H   0  0  0  0  0  0  0  0  0  0  0  0
   39.6740   27.5680   43.5280 C   0  0  0  0  0  0  0  0  0  0  0  0
   38.4480   27.0940   43.0730 C   0  0  0  0  0  0  0  0  0  0  0  0
   38.3790   25.8230   42.5570 C   0  0  0  0  0  0  0  0  0  0  0  0
   39.5270   25.1380   42.5360 N   0  0  0  0  0  0  0  0  0  0  0  0
   40.6780   25.5900   42.9660 C   0  0  0  0  0  0  0  0  0  0  0  0
   40.8090   26.8600   43.4960 N   0  0  0  0  0  0  0  0  0  0  0  0
   41.8270   24.7570   42.8740 N   0  0  0  0  0  0  0  0  0  0  0  0
   39.7700   28.5640   43.9430 H   0  0  0  0  0  0  0  0  0  0  0  0
   42.3460   24.6620   41.9580 H   0  0  0  0  0  0  0  0  0  0  0  0
   42.2630   24.1910   43.6120 H   0  0  0  0  0  0  0  0  0  0  0  0
   37.0670   25.3690   42.0930 C   0  0  0  0  0  3  0  0  0  0  0  0
   36.8100   24.1760   41.2800 C   0  0  0  0  0  2  0  0  0  0  0  0
   36.9510   25.4270   40.5400 C   0  0  0  0  0  2  0  0  0  0  0  0
  1 20  1  0  0  0  0
  2  1  2  0  0  0  0
  3  4  1  0  0  0  0
  3  2  1  0  0  0  0
  5  3  1  0  0  0  0
  6  3  1  0  0  0  0
  8  7  2  6  0  0  0
  8 11  1  0  0  0  0
  8  6  1  0  0  0  0
  9 10  1  0  0  0  0
  9  8  1  0  0  0  0
 11 12  1  0  0  0  0
 12 13  1  0  0  0  0
 13 17  1  0  0  0  0
 13 16  1  0  0  0  0
 14 12  1  0  0  0  0
 14 13  1  0  0  0  0
 15 12  1  0  0  0  0
 18 14  1  0  0  0  0
 19 14  1  0  0  0  0
 20 21  1  0  0  0  0
 21 23  1  0  0  0  0
 22 21  1  0  0  0  0
 24 31  1  0  0  0  0
 25 21  1  0  0  0  0
 25 24  2  0  0  0  0
 26 25  1  0  0  0  0
 27 26  2  0  0  0  0
 27 28  1  0  0  0  0
 28 29  2  0  0  0  0
 29 24  1  0  0  0  0
 30 28  1  0  0  0  0
 30 33  1  0  0  0  0
 32 30  1  0  0  0  0
 34 26  1  0  0  0  0
 35 34  1  0  0  0  0
 36 35  1  0  0  0  0
 36 34  1  0  0  0  0
M  END
>  <minimizedAffinity>
-4.8011899

$$$$

 OpenBabel03252504363D

 36 38  0  0  0  0  0  0  0  0999 V2000
   37.4600   29.9390   41.1100 C   0  0  0  0  0  3  0  0  0  0  0  0
   36.6530   30.9030   40.6930 C   0  0  0  0  0  3  0  0  0  0  0  0
   37.0440   31.9800   39.7000 C   0  0  0  0  0  0  0  0  0  0  0  0
   37.8970   32.5770   40.0940 H   0  0  0  0  0  0  0  0  0  0  0  0
   36.1430   32.6260   39.5900 H   0  0  0  0  0  0  0  0  0  0  0  0
   37.3100   31.3670   38.4980 O   0  0  0  0  0  0  0  0  0  0  0  0
   39.6990   30.3210   37.9520 O   0  0  0  0  0  0  0  0  0  0  0  0
   38.9040   31.6130   38.0410 P   0  0  1  0  0  0  0  0  0  0  0  0
   38.9450   32.3030   36.4770 O   0  0  0  0  0  0  0  0  0  0  0  0
   38.0410   32.6590   36.2530 H   0  0  0  0  0  0  0  0  0  0  0  0
   39.6830   32.6910   39.0600 O   0  0  0  0  0  0  0  0  0  0  0  0
   40.7740   32.1100   39.7000 C   0  0  0  0  0  0  0  0  0  0  0  0
   40.6160   31.8400   41.1790 C   0  0  0  0  0  0  0  0  0  0  0  0
   41.5180   32.9640   40.6790 C   0  0  0  0  0  0  0  0  0  0  0  0
   41.3160   31.3810   39.0900 H   0  0  0  0  0  0  0  0  0  0  0  0
   39.6670   32.0990   41.6580 H   0  0  0  0  0  0  0  0  0  0  0  0
   41.1680   30.9450   41.5300 H   0  0  0  0  0  0  0  0  0  0  0  0
   42.6190   32.8590   40.7520 H   0  0  0  0  0  0  0  0  0  0  0  0
   41.1230   33.9830   40.9210 H   0  0  0  0  0  0  0  0  0  0  0  0
   36.9110   29.0530   42.0120 O   0  0  0  0  0  0  0  0  0  0  0  0
   37.4320   28.5360   43.1510 C   0  0  0  0  0  0  0  0  0  0  0  0
   36.6640   27.7660   43.5090 H   0  0  0  0  0  0  0  0  0  0  0  0
   37.6460   29.1560   44.0080 H   0  0  0  0  0  0  0  0  0  0  0  0
   39.8770   28.2050   43.0850 C   0  0  0  0  0  0  0  0  0  0  0  0
   38.6220   27.6360   42.8920 C   0  0  0  0  0  0  0  0  0  0  0  0
   38.5440   26.3290   42.4740 C   0  0  0  0  0  0  0  0  0  0  0  0
   39.7120   25.7060   42.2860 N   0  0  0  0  0  0  0  0  0  0  0  0
   40.8900   26.2480   42.4690 C   0  0  0  0  0  0  0  0  0  0  0  0
   41.0310   27.5570   42.8880 N   0  0  0  0  0  0  0  0  0  0  0  0
   42.0550   25.4720   42.2200 N   0  0  0  0  0  0  0  0  0  0  0  0
   39.9800   29.2310   43.4140 H   0  0  0  0  0  0  0  0  0  0  0  0
   42.4070   25.3390   41.2320 H   0  0  0  0  0  0  0  0  0  0  0  0
   42.6530   24.9840   42.8980 H   0  0  0  0  0  0  0  0  0  0  0  0
   37.2030   25.7740   42.2860 C   0  0  0  0  0  3  0  0  0  0  0  0
   36.8910   24.4450   41.7520 C   0  0  0  0  0  2  0  0  0  0  0  0
   36.8820   25.5350   40.7810 C   0  0  0  0  0  2  0  0  0  0  0  0
  1 20  1  0  0  0  0
  2  1  2  0  0  0  0
  3  4  1  0  0  0  0
  3  2  1  0  0  0  0
  5  3  1  0  0  0  0
  6  3  1  0  0  0  0
  8  7  2  6  0  0  0
  8  6  1  0  0  0  0
  8 11  1  0  0  0  0
  9  8  1  0  0  0  0
 10  9  1  0  0  0  0
 11 12  1  0  0  0  0
 12 14  1  0  0  0  0
 12 13  1  0  0  0  0
 13 17  1  0  0  0  0
 13 16  1  0  0  0  0
 14 18  1  0  0  0  0
 14 19  1  0  0  0  0
 14 13  1  0  0  0  0
 15 12  1  0  0  0  0
 20 21  1  0  0  0  0
 21 22  1  0  0  0  0
 21 23  1  0  0  0  0
 24 31  1  0  0  0  0
 25 24  1  0  0  0  0
 25 21  1  0  0  0  0
 26 25  2  0  0  0  0
 27 28  2  0  0  0  0
 27 26  1  0  0  0  0
 28 29  1  0  0  0  0
 29 24  2  0  0  0  0
 30 28  1  0  0  0  0
 30 33  1  0  0  0  0
 32 30  1  0  0  0  0
 34 26  1  0  0  0  0
 35 34  1  0  0  0  0
 36 35  1  0  0  0  0
 36 34  1  0  0  0  0
M  END
>  <minimizedAffinity>
-4.72701693

$$$$

 OpenBabel03252504363D

 36 38  0  0  0  0  0  0  0  0999 V2000
   40.5450   29.2920   42.4710 C   0  0  0  0  0  3  0  0  0  0  0  0
   41.3370   28.2900   42.1220 C   0  0  0  0  0  3  0  0  0  0  0  0
   41.3060   26.9110   42.7530 C   0  0  0  0  0  0  0  0  0  0  0  0
   40.6460   26.9110   43.6490 H   0  0  0  0  0  0  0  0  0  0  0  0
   42.3580   26.6960   43.0520 H   0  0  0  0  0  0  0  0  0  0  0  0
   40.9200   26.0150   41.7840 O   0  0  0  0  0  0  0  0  0  0  0  0
   38.7170   24.7170   41.0320 O   0  0  0  0  0  0  0  0  0  0  0  0
   39.5060   25.2290   42.2250 P   0  0  1  0  0  0  0  0  0  0  0  0
   39.8910   23.8530   43.1640 O   0  0  0  0  0  0  0  0  0  0  0  0
   40.8340   23.9270   43.4810 H   0  0  0  0  0  0  0  0  0  0  0  0
   38.5280   26.2000   43.1790 O   0  0  0  0  0  0  0  0  0  0  0  0
   37.3170   26.4910   42.5570 C   0  0  0  0  0  0  0  0  0  0  0  0
   37.2350   27.8170   41.8360 C   0  0  0  0  0  0  0  0  0  0  0  0
   36.4990   27.5950   43.1540 C   0  0  0  0  0  0  0  0  0  0  0  0
   36.8190   25.6230   42.1140 H   0  0  0  0  0  0  0  0  0  0  0  0
   38.1200   28.4610   41.8280 H   0  0  0  0  0  0  0  0  0  0  0  0
   36.5760   27.8000   40.9450 H   0  0  0  0  0  0  0  0  0  0  0  0
   35.3950   27.5010   43.1550 H   0  0  0  0  0  0  0  0  0  0  0  0
   36.9250   28.1910   43.9990 H   0  0  0  0  0  0  0  0  0  0  0  0
   40.7270   30.4660   41.7720 O   0  0  0  0  0  0  0  0  0  0  0  0
   39.8310   31.2280   41.1010 C   0  0  0  0  0  0  0  0  0  0  0  0
   39.6320   32.1270   41.7800 H   0  0  0  0  0  0  0  0  0  0  0  0
   38.8600   30.8480   40.8250 H   0  0  0  0  0  0  0  0  0  0  0  0
   41.6540   32.5680   40.1140 C   0  0  0  0  0  0  0  0  0  0  0  0
   40.4410   31.9220   39.9000 C   0  0  0  0  0  0  0  0  0  0  0  0
   39.8780   31.9670   38.6470 C   0  0  0  0  0  0  0  0  0  0  0  0
   40.5650   32.6440   37.7230 N   0  0  0  0  0  0  0  0  0  0  0  0
   41.7080   33.2510   37.9300 C   0  0  0  0  0  0  0  0  0  0  0  0
   42.3210   33.2400   39.1680 N   0  0  0  0  0  0  0  0  0  0  0  0
   42.3270   33.9470   36.8570 N   0  0  0  0  0  0  0  0  0  0  0  0
   42.1310   32.5550   41.0860 H   0  0  0  0  0  0  0  0  0  0  0  0
   42.0020   34.9170   36.5910 H   0  0  0  0  0  0  0  0  0  0  0  0
   43.0970   33.6330   36.2540 H   0  0  0  0  0  0  0  0  0  0  0  0
   38.6020   31.2720   38.4710 C   0  0  0  0  0  3  0  0  0  0  0  0
   37.6980   31.4150   37.3260 C   0  0  0  0  0  2  0  0  0  0  0  0
   37.3990   32.2620   38.4780 C   0  0  0  0  0  2  0  0  0  0  0  0
  2  1  2  0  0  0  0
  2  3  1  0  0  0  0
  3  5  1  0  0  0  0
  3  4  1  0  0  0  0
  6  8  1  0  0  0  0
  6  3  1  0  0  0  0
  8  7  2  6  0  0  0
  8  9  1  0  0  0  0
  8 11  1  0  0  0  0
  9 10  1  0  0  0  0
 12 14  1  0  0  0  0
 12 11  1  0  0  0  0
 13 12  1  0  0  0  0
 13 14  1  0  0  0  0
 14 18  1  0  0  0  0
 14 19  1  0  0  0  0
 15 12  1  0  0  0  0
 16 13  1  0  0  0  0
 17 13  1  0  0  0  0
 20  1  1  0  0  0  0
 21 20  1  0  0  0  0
 21 22  1  0  0  0  0
 23 21  1  0  0  0  0
 24 31  1  0  0  0  0
 25 24  1  0  0  0  0
 25 21  1  0  0  0  0
 26 25  2  0  0  0  0
 27 28  2  0  0  0  0
 27 26  1  0  0  0  0
 28 29  1  0  0  0  0
 29 24  2  0  0  0  0
 30 28  1  0  0  0  0
 32 30  1  0  0  0  0
 33 30  1  0  0  0  0
 34 36  1  0  0  0  0
 34 26  1  0  0  0  0
 35 34  1  0  0  0  0
 35 36  1  0  0  0  0
M  END
>  <minimizedAffinity>
-4.61558867

$$$$

 OpenBabel03252504363D

 36 38  0  0  0  0  0  0  0  0999 V2000
   36.3550   30.6420   40.8910 C   0  0  0  0  0  3  0  0  0  0  0  0
   37.3550   31.4830   40.6800 C   0  0  0  0  0  3  0  0  0  0  0  0
   37.3330   32.6080   39.6650 C   0  0  0  0  0  0  0  0  0  0  0  0
   36.9170   33.5340   40.1220 H   0  0  0  0  0  0  0  0  0  0  0  0
   36.6670   32.2570   38.8430 H   0  0  0  0  0  0  0  0  0  0  0  0
   38.6100   32.7610   39.1780 O   0  0  0  0  0  0  0  0  0  0  0  0
   37.6240   31.3980   37.1110 O   0  0  0  0  0  0  0  0  0  0  0  0
   38.8880   31.7240   37.8900 P   0  0  1  0  0  0  0  0  0  0  0  0
   39.9490   32.4740   36.7780 O   0  0  0  0  0  0  0  0  0  0  0  0
   40.3930   33.2480   37.2220 H   0  0  0  0  0  0  0  0  0  0  0  0
   39.6330   30.3070   38.3830 O   0  0  0  0  0  0  0  0  0  0  0  0
   38.8860   29.1810   38.0500 C   0  0  0  0  0  0  0  0  0  0  0  0
   38.8860   28.0550   39.0580 C   0  0  0  0  0  0  0  0  0  0  0  0
   39.6500   27.9300   37.7430 C   0  0  0  0  0  0  0  0  0  0  0  0
   37.9610   29.4000   37.5090 H   0  0  0  0  0  0  0  0  0  0  0  0
   39.4510   28.1860   39.9850 H   0  0  0  0  0  0  0  0  0  0  0  0
   37.9380   27.4800   39.0820 H   0  0  0  0  0  0  0  0  0  0  0  0
   39.2720   27.2530   36.9510 H   0  0  0  0  0  0  0  0  0  0  0  0
   40.7600   27.9240   37.8810 H   0  0  0  0  0  0  0  0  0  0  0  0
   36.5720   29.6900   41.8630 O   0  0  0  0  0  0  0  0  0  0  0  0
   37.6930   29.4030   42.5670 C   0  0  0  0  0  0  0  0  0  0  0  0
   37.4040   29.5480   43.6650 H   0  0  0  0  0  0  0  0  0  0  0  0
   38.6050   29.9620   42.4290 H   0  0  0  0  0  0  0  0  0  0  0  0
   36.9500   27.0570   42.3770 C   0  0  0  0  0  0  0  0  0  0  0  0
   38.0220   27.9250   42.5630 C   0  0  0  0  0  0  0  0  0  0  0  0
   39.2790   27.3980   42.7400 C   0  0  0  0  0  0  0  0  0  0  0  0
   39.3600   26.0640   42.7190 N   0  0  0  0  0  0  0  0  0  0  0  0
   38.3470   25.2520   42.5440 C   0  0  0  0  0  0  0  0  0  0  0  0
   37.0610   25.7240   42.3600 N   0  0  0  0  0  0  0  0  0  0  0  0
   38.5740   23.8490   42.5540 N   0  0  0  0  0  0  0  0  0  0  0  0
   35.9450   27.4330   42.2330 H   0  0  0  0  0  0  0  0  0  0  0  0
   38.6720   23.3300   43.4700 H   0  0  0  0  0  0  0  0  0  0  0  0
   38.6660   23.2120   41.7530 H   0  0  0  0  0  0  0  0  0  0  0  0
   40.3740   28.3500   42.9300 C   0  0  0  0  0  3  0  0  0  0  0  0
   41.1640   28.9720   41.8640 C   0  0  0  0  0  2  0  0  0  0  0  0
   41.7370   27.7650   42.4540 C   0  0  0  0  0  2  0  0  0  0  0  0
  1 20  1  0  0  0  0
  2  1  2  0  0  0  0
  3  4  1  0  0  0  0
  3  2  1  0  0  0  0
  5  3  1  0  0  0  0
  6  3  1  0  0  0  0
  8  7  2  6  0  0  0
  8 11  1  0  0  0  0
  8  6  1  0  0  0  0
  9 10  1  0  0  0  0
  9  8  1  0  0  0  0
 12 11  1  0  0  0  0
 12 13  1  0  0  0  0
 13 17  1  0  0  0  0
 13 16  1  0  0  0  0
 14 19  1  0  0  0  0
 14 12  1  0  0  0  0
 14 13  1  0  0  0  0
 15 12  1  0  0  0  0
 18 14  1  0  0  0  0
 20 21  1  0  0  0  0
 21 22  1  0  0  0  0
 23 21  1  0  0  0  0
 24 25  1  0  0  0  0
 25 21  1  0  0  0  0
 25 26  2  0  0  0  0
 26 34  1  0  0  0  0
 27 26  1  0  0  0  0
 28 30  1  0  0  0  0
 28 27  2  0  0  0  0
 29 24  2  0  0  0  0
 29 28  1  0  0  0  0
 30 32  1  0  0  0  0
 31 24  1  0  0  0  0
 33 30  1  0  0  0  0
 35 36  1  0  0  0  0
 35 34  1  0  0  0  0
 36 34  1  0  0  0  0
M  END
>  <minimizedAffinity>
-4.60435057

$$$$

 OpenBabel03252504363D

 36 38  0  0  0  0  0  0  0  0999 V2000
   36.6040   28.3250   41.2900 C   0  0  0  0  0  3  0  0  0  0  0  0
   36.9430   28.2450   42.5670 C   0  0  0  0  0  3  0  0  0  0  0  0
   37.6640   27.0670   43.1920 C   0  0  0  0  0  0  0  0  0  0  0  0
   37.4330   27.0040   44.2790 H   0  0  0  0  0  0  0  0  0  0  0  0
   38.7500   27.2670   43.0440 H   0  0  0  0  0  0  0  0  0  0  0  0
   37.3130   25.9380   42.4890 O   0  0  0  0  0  0  0  0  0  0  0  0
   39.6030   24.8960   43.3670 O   0  0  0  0  0  0  0  0  0  0  0  0
   38.6560   24.9820   42.1820 P   0  0  1  0  0  0  0  0  0  0  0  0
   38.1500   23.3800   41.8630 O   0  0  0  0  0  0  0  0  0  0  0  0
   37.1730   23.3790   41.6660 H   0  0  0  0  0  0  0  0  0  0  0  0
   39.4900   25.5000   40.8240 O   0  0  0  0  0  0  0  0  0  0  0  0
   40.8440   25.1870   40.8930 C   0  0  0  0  0  0  0  0  0  0  0  0
   41.8070   26.2930   40.5260 C   0  0  0  0  0  0  0  0  0  0  0  0
   41.5850   25.1060   39.5940 C   0  0  0  0  0  0  0  0  0  0  0  0
   41.1090   24.5140   41.7140 H   0  0  0  0  0  0  0  0  0  0  0  0
   41.3980   27.2680   40.2450 H   0  0  0  0  0  0  0  0  0  0  0  0
   42.7640   26.2540   41.0840 H   0  0  0  0  0  0  0  0  0  0  0  0
   42.3810   24.3430   39.4800 H   0  0  0  0  0  0  0  0  0  0  0  0
   41.0570   25.3840   38.6490 H   0  0  0  0  0  0  0  0  0  0  0  0
   35.9570   29.4830   40.9180 O   0  0  0  0  0  0  0  0  0  0  0  0
   36.3450   30.7750   41.0410 C   0  0  0  0  0  0  0  0  0  0  0  0
   36.9900   30.8070   41.9850 H   0  0  0  0  0  0  0  0  0  0  0  0
   35.6270   31.5730   41.1500 H   0  0  0  0  0  0  0  0  0  0  0  0
   36.8860   31.3640   38.7050 C   0  0  0  0  0  0  0  0  0  0  0  0
   37.3660   31.1800   39.9980 C   0  0  0  0  0  0  0  0  0  0  0  0
   38.7080   31.3580   40.2380 C   0  0  0  0  0  0  0  0  0  0  0  0
   39.4490   31.7010   39.1800 N   0  0  0  0  0  0  0  0  0  0  0  0
   38.9910   31.8720   37.9650 C   0  0  0  0  0  0  0  0  0  0  0  0
   37.6520   31.7080   37.6640 N   0  0  0  0  0  0  0  0  0  0  0  0
   39.8950   32.2270   36.9270 N   0  0  0  0  0  0  0  0  0  0  0  0
   35.8360   31.2340   38.4760 H   0  0  0  0  0  0  0  0  0  0  0  0
   40.4930   31.4880   36.4640 H   0  0  0  0  0  0  0  0  0  0  0  0
   40.0730   33.1560   36.5270 H   0  0  0  0  0  0  0  0  0  0  0  0
   39.1650   31.1540   41.6130 C   0  0  0  0  0  3  0  0  0  0  0  0
   40.5510   31.2590   42.0810 C   0  0  0  0  0  2  0  0  0  0  0  0
   40.1000   29.9140   41.7330 C   0  0  0  0  0  2  0  0  0  0  0  0
  1  2  2  0  0  0  0
  2  3  1  0  0  0  0
  3  4  1  0  0  0  0
  5  3  1  0  0  0  0
  6  3  1  0  0  0  0
  8  6  1  0  0  0  0
  8  7  2  1  0  0  0
  9  8  1  0  0  0  0
 10  9  1  0  0  0  0
 11 12  1  0  0  0  0
 11  8  1  0  0  0  0
 12 15  1  0  0  0  0
 13 12  1  0  0  0  0
 13 17  1  0  0  0  0
 14 13  1  0  0  0  0
 14 12  1  0  0  0  0
 16 13  1  0  0  0  0
 18 14  1  0  0  0  0
 19 14  1  0  0  0  0
 20 21  1  0  0  0  0
 20  1  1  0  0  0  0
 21 23  1  0  0  0  0
 21 22  1  0  0  0  0
 24 25  1  0  0  0  0
 25 26  2  0  0  0  0
 25 21  1  0  0  0  0
 26 34  1  0  0  0  0
 27 26  1  0  0  0  0
 28 27  2  0  0  0  0
 29 28  1  0  0  0  0
 29 24  2  0  0  0  0
 30 28  1  0  0  0  0
 31 24  1  0  0  0  0
 32 30  1  0  0  0  0
 33 30  1  0  0  0  0
 34 36  1  0  0  0  0
 34 35  1  0  0  0  0
 36 35  1  0  0  0  0
M  END
>  <minimizedAffinity>
-4.59472942

$$$$
