
 OpenBabel03252504353D

 36 38  0  0  0  0  0  0  0  0999 V2000
   44.7760   34.8330   41.5900 C   0  0  0  0  0  0  0  0  0  0  0  0
   44.4180   35.2050   42.8090 C   0  0  0  0  0  0  0  0  0  0  0  0
   45.3500   35.2470   44.0030 C   0  0  0  0  0  0  0  0  0  0  0  0
   45.3300   36.2550   44.4740 H   0  0  0  0  0  0  0  0  0  0  0  0
   46.3660   35.0350   43.5980 H   0  0  0  0  0  0  0  0  0  0  0  0
   44.9840   34.2330   44.8580 O   0  0  0  0  0  0  0  0  0  0  0  0
   45.6540   32.0180   43.5370 O   0  0  0  0  0  0  0  0  0  0  0  0
   46.0150   32.9200   44.7050 P   0  0  1  0  0  0  0  0  0  0  0  0
   47.6020   33.4780   44.3990 O   0  0  0  0  0  0  0  0  0  0  0  0
   47.6580   34.4470   44.6260 H   0  0  0  0  0  0  0  0  0  0  0  0
   46.0880   32.0200   46.1160 O   0  0  0  0  0  0  0  0  0  0  0  0
   46.5100   32.7840   47.2010 C   0  0  0  0  0  0  0  0  0  0  0  0
   47.5330   32.1460   48.1130 C   0  0  0  0  0  0  0  0  0  0  0  0
   46.0850   32.3200   48.5600 C   0  0  0  0  0  0  0  0  0  0  0  0
   46.5910   33.8550   46.9920 H   0  0  0  0  0  0  0  0  0  0  0  0
   47.8920   31.1420   47.8700 H   0  0  0  0  0  0  0  0  0  0  0  0
   48.2350   32.8710   48.5700 H   0  0  0  0  0  0  0  0  0  0  0  0
   45.8370   33.0780   49.3300 H   0  0  0  0  0  0  0  0  0  0  0  0
   45.5370   31.3500   48.6560 H   0  0  0  0  0  0  0  0  0  0  0  0
   43.7790   34.8690   40.6390 O   0  0  0  0  0  0  0  0  0  0  0  0
   42.6720   35.6470   40.5670 C   0  0  0  0  0  0  0  0  0  0  0  0
   42.6580   36.0500   39.4960 H   0  0  0  0  0  0  0  0  0  0  0  0
   42.5420   36.5070   41.2050 H   0  0  0  0  0  0  0  0  0  0  0  0
   40.8970   34.4770   41.8210 C   0  0  0  0  0  0  0  0  0  0  0  0
   41.3910   34.8390   40.5710 C   0  0  0  0  0  0  0  0  0  0  0  0
   40.7080   34.4390   39.4480 C   0  0  0  0  0  0  0  0  0  0  0  0
   39.6030   33.7180   39.6620 N   0  0  0  0  0  0  0  0  0  0  0  0
   39.1440   33.3800   40.8410 C   0  0  0  0  0  0  0  0  0  0  0  0
   39.7860   33.7540   42.0060 N   0  0  0  0  0  0  0  0  0  0  0  0
   37.9590   32.5990   40.9240 N   0  0  0  0  0  0  0  0  0  0  0  0
   41.4050   34.7730   42.7300 H   0  0  0  0  0  0  0  0  0  0  0  0
   37.9970   31.5530   40.7760 H   0  0  0  0  0  0  0  0  0  0  0  0
   37.0010   32.9130   41.1190 H   0  0  0  0  0  0  0  0  0  0  0  0
   41.2660   34.8460   38.1570 C   0  0  0  0  0  0  0  0  0  0  0  0
   41.3170   36.2160   37.6370 C   0  0  0  0  0  0  0  0  0  0  0  0
   40.1700   35.4190   37.2090 C   0  0  0  0  0  0  0  0  0  0  0  0
  1  2  2  0  0  0  0
  2  3  1  0  0  0  0
  3  4  1  0  0  0  0
  3  6  1  0  0  0  0
  5  3  1  0  0  0  0
  8  7  2  6  0  0  0
  8  6  1  0  0  0  0
  8 11  1  0  0  0  0
  9 10  1  0  0  0  0
  9  8  1  0  0  0  0
 11 12  1  0  0  0  0
 12 13  1  0  0  0  0
 12 14  1  0  0  0  0
 13 14  1  0  0  0  0
 13 17  1  0  0  0  0
 14 19  1  0  0  0  0
 14 18  1  0  0  0  0
 15 12  1  0  0  0  0
 16 13  1  0  0  0  0
 20  1  1  0  0  0  0
 21 25  1  0  0  0  0
 21 20  1  0  0  0  0
 21 23  1  0  0  0  0
 22 21  1  0  0  0  0
 24 29  1  0  0  0  0
 24 31  1  0  0  0  0
 25 24  2  0  0  0  0
 26 27  2  0  0  0  0
 26 25  1  0  0  0  0
 27 28  1  0  0  0  0
 28 30  1  0  0  0  0
 28 29  2  0  0  0  0
 30 33  1  0  0  0  0
 32 30  1  0  0  0  0
 34 26  1  0  0  0  0
 35 34  1  0  0  0  0
 36 35  1  0  0  0  0
 36 34  1  0  0  0  0
M  END
>  <minimizedAffinity>
-5.16342926

>  <minimizedRMSD>
1.24467337

$$$$
