
 OpenBabel03252505013D

 26 28  0  0  1  0  0  0  0  0999 V2000
   46.1920   33.7490   43.2940 C   0  0  2  0  0  0  0  0  0  0  0  0
   45.6050   34.7960   42.4210 C   0  0  0  0  0  0  0  0  0  0  0  0
   45.3030   36.0920   43.0960 C   0  0  0  0  0  0  0  0  0  0  0  0
   44.3320   35.7230   44.2060 C   0  0  0  0  0  0  0  0  0  0  0  0
   45.0110   34.9180   45.2580 C   0  0  0  0  0  0  0  0  0  0  0  0
   45.9840   33.9080   44.7360 C   0  0  0  0  0  0  0  0  0  0  0  0
   45.7590   32.7450   43.0000 H   0  0  0  0  0  0  0  0  0  0  0  0
   46.2300   34.9750   41.5040 H   0  0  0  0  0  0  0  0  0  0  0  0
   44.6370   34.4200   42.0110 H   0  0  0  0  0  0  0  0  0  0  0  0
   44.7830   36.7640   42.4190 H   0  0  0  0  0  0  0  0  0  0  0  0
   46.2370   36.4980   43.5480 H   0  0  0  0  0  0  0  0  0  0  0  0
   43.5090   35.1440   43.7460 H   0  0  0  0  0  0  0  0  0  0  0  0
   44.0120   36.6450   44.6850 H   0  0  0  0  0  0  0  0  0  0  0  0
   44.8790   35.0090   46.3310 H   0  0  0  0  0  0  0  0  0  0  0  0
   49.6960   34.7090   42.6170 C   0  0  0  0  0  0  0  0  0  0  0  0
   50.3000   33.4540   42.3580 C   0  0  0  0  0  0  0  0  0  0  0  0
   49.4890   32.3030   42.4180 C   0  0  0  0  0  0  0  0  0  0  0  0
   48.1820   32.4650   42.7170 N   0  0  0  0  0  0  0  0  0  0  0  0
   47.6270   33.6660   42.9590 C   0  0  0  0  0  0  0  0  0  0  0  0
   48.3710   34.7850   42.9120 N   0  0  0  0  0  0  0  0  0  0  0  0
   50.3170   35.5930   42.5720 H   0  0  0  0  0  0  0  0  0  0  0  0
   51.3490   33.4300   42.1290 H   0  0  0  0  0  0  0  0  0  0  0  0
   49.9460   31.3410   42.2200 H   0  0  0  0  0  0  0  0  0  0  0  0
   46.6650   33.1360   45.7690 C   0  0  0  0  0  0  0  0  0  0  0  0
   45.8920   32.4710   46.8750 C   0  0  0  0  0  0  0  0  0  0  0  0
   46.5850   31.6430   45.8660 C   0  0  0  0  0  0  0  0  0  0  0  0
  1  7  1  6  0  0  0
  1  6  1  0  0  0  0
  2  3  1  0  0  0  0
  2  1  1  0  0  0  0
  3 11  1  0  0  0  0
  3  4  1  0  0  0  0
  4 13  1  0  0  0  0
  4  5  1  0  0  0  0
  5 14  1  0  0  0  0
  6  5  2  0  0  0  0
  6 24  1  0  0  0  0
  8  2  1  0  0  0  0
  9  2  1  0  0  0  0
 10  3  1  0  0  0  0
 12  4  1  0  0  0  0
 15 20  1  0  0  0  0
 16 17  1  0  0  0  0
 16 15  2  0  0  0  0
 17 18  2  0  0  0  0
 18 19  1  0  0  0  0
 19  1  1  0  0  0  0
 20 19  2  0  0  0  0
 21 15  1  0  0  0  0
 22 16  1  0  0  0  0
 23 17  1  0  0  0  0
 24 26  1  0  0  0  0
 24 25  1  0  0  0  0
 26 25  1  0  0  0  0
M  END
>  <minimizedAffinity>
-4.70419455

>  <minimizedRMSD>
4.57089138

$$$$
