
 OpenBabel03242511063D

 21 23  0  0  1  0  0  0  0  0999 V2000
   37.8060   28.3920   43.3080 C   0  0  1  0  0  0  0  0  0  0  0  0
   38.6920   29.5650   43.0150 C   0  0  0  0  0  0  0  0  0  0  0  0
   37.4680   29.2170   42.1420 C   0  0  2  0  0  0  0  0  0  0  0  0
   37.1820   28.4680   44.2160 H   0  0  0  0  0  0  0  0  0  0  0  0
   38.5900   30.4240   43.6770 H   0  0  0  0  0  0  0  0  0  0  0  0
   39.6820   29.3070   42.6240 H   0  0  0  0  0  0  0  0  0  0  0  0
   37.6880   28.7270   41.1640 H   0  0  0  0  0  0  0  0  0  0  0  0
   38.0910   24.8510   42.2280 C   0  0  0  0  0  0  0  0  0  0  0  0
   39.3540   24.4830   42.8140 C   0  0  0  0  0  0  0  0  0  0  0  0
   40.0680   25.4750   43.5560 C   0  0  0  0  0  0  0  0  0  0  0  0
   39.5410   26.6990   43.6790 N   0  0  0  0  0  0  0  0  0  0  0  0
   38.3390   27.0130   43.1080 C   0  0  0  0  0  0  0  0  0  0  0  0
   37.6280   26.0930   42.3920 N   0  0  0  0  0  0  0  0  0  0  0  0
   37.5820   24.0800   41.6770 H   0  0  0  0  0  0  0  0  0  0  0  0
   39.7340   23.4810   42.6850 H   0  0  0  0  0  0  0  0  0  0  0  0
   41.0080   25.1510   43.9760 H   0  0  0  0  0  0  0  0  0  0  0  0
   36.4220   30.1810   42.1380 N   0  0  0  0  0  0  0  0  0  0  0  0
   36.7140   31.0030   42.7080 H   0  0  0  0  0  0  0  0  0  0  0  0
   36.1250   30.5590   40.7650 C   0  0  0  0  0  3  0  0  0  0  0  0
   36.8810   31.6150   40.0880 C   0  0  0  0  0  2  0  0  0  0  0  0
   37.0610   30.1610   39.6690 C   0  0  0  0  0  2  0  0  0  0  0  0
  1  4  1  1  0  0  0
  2  1  1  0  0  0  0
  2  5  1  0  0  0  0
  3  7  1  6  0  0  0
  3  2  1  0  0  0  0
  3  1  1  0  0  0  0
  6  2  1  0  0  0  0
  8 13  2  0  0  0  0
  8  9  1  0  0  0  0
  9 10  2  0  0  0  0
 10 11  1  0  0  0  0
 10 16  1  0  0  0  0
 12  1  1  0  0  0  0
 12 11  2  0  0  0  0
 13 12  1  0  0  0  0
 14  8  1  0  0  0  0
 15  9  1  0  0  0  0
 17  3  1  0  0  0  0
 17 18  1  0  0  0  0
 19 17  1  0  0  0  0
 20 19  1  0  0  0  0
 21 20  1  0  0  0  0
 21 19  1  0  0  0  0
M  END
>  <minimizedAffinity>
-4.27686548

$$$$

 OpenBabel03242511063D

 21 23  0  0  1  0  0  0  0  0999 V2000
   37.9120   28.4370   43.2910 C   0  0  1  0  0  0  0  0  0  0  0  0
   38.8130   29.5760   42.9160 C   0  0  0  0  0  0  0  0  0  0  0  0
   37.5460   29.2250   42.1080 C   0  0  2  0  0  0  0  0  0  0  0  0
   37.3290   28.5650   44.2200 H   0  0  0  0  0  0  0  0  0  0  0  0
   38.7600   30.4610   43.5470 H   0  0  0  0  0  0  0  0  0  0  0  0
   39.7800   29.2770   42.4960 H   0  0  0  0  0  0  0  0  0  0  0  0
   37.7140   28.6930   41.1420 H   0  0  0  0  0  0  0  0  0  0  0  0
   40.0510   25.4100   43.5050 C   0  0  0  0  0  0  0  0  0  0  0  0
   39.2730   24.4670   42.7430 C   0  0  0  0  0  0  0  0  0  0  0  0
   38.0310   24.9090   42.1890 C   0  0  0  0  0  0  0  0  0  0  0  0
   37.6400   26.1710   42.3950 N   0  0  0  0  0  0  0  0  0  0  0  0
   38.4040   27.0390   43.1240 C   0  0  0  0  0  0  0  0  0  0  0  0
   39.5960   26.6540   43.6700 N   0  0  0  0  0  0  0  0  0  0  0  0
   40.9790   25.0440   43.9070 H   0  0  0  0  0  0  0  0  0  0  0  0
   39.6360   23.4590   42.6060 H   0  0  0  0  0  0  0  0  0  0  0  0
   37.4860   24.1650   41.6260 H   0  0  0  0  0  0  0  0  0  0  0  0
   36.5250   30.2150   42.1090 N   0  0  0  0  0  0  0  0  0  0  0  0
   36.9420   31.1350   42.3610 H   0  0  0  0  0  0  0  0  0  0  0  0
   35.8950   30.2530   40.7980 C   0  0  0  0  0  3  0  0  0  0  0  0
   36.4260   29.4700   39.6790 C   0  0  0  0  0  2  0  0  0  0  0  0
   35.1020   29.0770   40.3230 C   0  0  0  0  0  2  0  0  0  0  0  0
  1  4  1  1  0  0  0
  2  1  1  0  0  0  0
  2  5  1  0  0  0  0
  3  7  1  6  0  0  0
  3 17  1  0  0  0  0
  3  2  1  0  0  0  0
  3  1  1  0  0  0  0
  6  2  1  0  0  0  0
  8 13  1  0  0  0  0
  8 14  1  0  0  0  0
  9  8  2  0  0  0  0
 10 11  2  0  0  0  0
 10  9  1  0  0  0  0
 11 12  1  0  0  0  0
 12  1  1  0  0  0  0
 12 13  2  0  0  0  0
 15  9  1  0  0  0  0
 16 10  1  0  0  0  0
 17 18  1  0  0  0  0
 19 17  1  0  0  0  0
 20 21  1  0  0  0  0
 20 19  1  0  0  0  0
 21 19  1  0  0  0  0
M  END
>  <minimizedAffinity>
-4.23037624

$$$$

 OpenBabel03242511063D

 21 23  0  0  1  0  0  0  0  0999 V2000
   38.4230   28.8980   42.8860 C   0  0  1  0  0  0  0  0  0  0  0  0
   37.3390   28.2320   43.6800 C   0  0  0  0  0  0  0  0  0  0  0  0
   38.0460   27.5330   42.5000 C   0  0  2  0  0  0  0  0  0  0  0  0
   39.3810   29.0600   43.4120 H   0  0  0  0  0  0  0  0  0  0  0  0
   37.6090   27.8960   44.6790 H   0  0  0  0  0  0  0  0  0  0  0  0
   36.3320   28.6270   43.5040 H   0  0  0  0  0  0  0  0  0  0  0  0
   37.4680   27.4780   41.5470 H   0  0  0  0  0  0  0  0  0  0  0  0
   38.6820   32.0350   40.9170 C   0  0  0  0  0  0  0  0  0  0  0  0
   37.3470   32.1420   40.3900 C   0  0  0  0  0  0  0  0  0  0  0  0
   36.4040   31.1220   40.7270 C   0  0  0  0  0  0  0  0  0  0  0  0
   36.7930   30.1120   41.5140 N   0  0  0  0  0  0  0  0  0  0  0  0
   38.0710   30.0420   41.9960 C   0  0  0  0  0  0  0  0  0  0  0  0
   38.9990   30.9980   41.6960 N   0  0  0  0  0  0  0  0  0  0  0  0
   39.3640   32.8210   40.6440 H   0  0  0  0  0  0  0  0  0  0  0  0
   37.0840   32.9790   39.7600 H   0  0  0  0  0  0  0  0  0  0  0  0
   35.4170   31.2470   40.3080 H   0  0  0  0  0  0  0  0  0  0  0  0
   38.8100   26.3820   42.8370 N   0  0  0  0  0  0  0  0  0  0  0  0
   38.7060   26.1890   43.8560 H   0  0  0  0  0  0  0  0  0  0  0  0
   38.3620   25.2570   42.0310 C   0  0  0  0  0  3  0  0  0  0  0  0
   36.9820   24.7720   42.1060 C   0  0  0  0  0  2  0  0  0  0  0  0
   37.4660   25.4980   40.8580 C   0  0  0  0  0  2  0  0  0  0  0  0
  1  4  1  1  0  0  0
  1  2  1  0  0  0  0
  2  5  1  0  0  0  0
  3  7  1  6  0  0  0
  3 17  1  0  0  0  0
  3  1  1  0  0  0  0
  3  2  1  0  0  0  0
  6  2  1  0  0  0  0
  8 13  1  0  0  0  0
  9 10  1  0  0  0  0
  9  8  2  0  0  0  0
 10 11  2  0  0  0  0
 11 12  1  0  0  0  0
 12  1  1  0  0  0  0
 13 12  2  0  0  0  0
 14  8  1  0  0  0  0
 15  9  1  0  0  0  0
 16 10  1  0  0  0  0
 17 18  1  0  0  0  0
 19 20  1  0  0  0  0
 19 17  1  0  0  0  0
 21 19  1  0  0  0  0
 21 20  1  0  0  0  0
M  END
>  <minimizedAffinity>
-3.99405169

$$$$

 OpenBabel03242511063D

 21 23  0  0  1  0  0  0  0  0999 V2000
   37.8580   28.2790   42.7740 C   0  0  1  0  0  0  0  0  0  0  0  0
   36.7010   27.7160   43.5430 C   0  0  0  0  0  0  0  0  0  0  0  0
   37.2990   27.0030   42.3130 C   0  0  2  0  0  0  0  0  0  0  0  0
   38.8330   28.2800   43.2940 H   0  0  0  0  0  0  0  0  0  0  0  0
   36.9310   27.2870   44.5170 H   0  0  0  0  0  0  0  0  0  0  0  0
   35.7540   28.2510   43.4070 H   0  0  0  0  0  0  0  0  0  0  0  0
   36.7130   27.0820   41.3680 H   0  0  0  0  0  0  0  0  0  0  0  0
   38.4810   31.5350   41.1000 C   0  0  0  0  0  0  0  0  0  0  0  0
   37.2030   31.7780   40.4840 C   0  0  0  0  0  0  0  0  0  0  0  0
   36.1710   30.8040   40.6620 C   0  0  0  0  0  0  0  0  0  0  0  0
   36.4280   29.7110   41.3880 N   0  0  0  0  0  0  0  0  0  0  0  0
   37.6550   29.5120   41.9580 C   0  0  0  0  0  0  0  0  0  0  0  0
   38.6650   30.4190   41.8110 N   0  0  0  0  0  0  0  0  0  0  0  0
   39.2330   32.2880   40.9460 H   0  0  0  0  0  0  0  0  0  0  0  0
   37.0480   32.6780   39.9080 H   0  0  0  0  0  0  0  0  0  0  0  0
   35.2320   31.0330   40.1810 H   0  0  0  0  0  0  0  0  0  0  0  0
   37.9060   25.7420   42.5700 N   0  0  0  0  0  0  0  0  0  0  0  0
   37.5480   25.0450   41.8840 H   0  0  0  0  0  0  0  0  0  0  0  0
   39.3520   25.8800   42.4880 C   0  0  0  0  0  3  0  0  0  0  0  0
   40.1960   25.7370   43.6770 C   0  0  0  0  0  2  0  0  0  0  0  0
   40.2180   24.6660   42.5940 C   0  0  0  0  0  2  0  0  0  0  0  0
  1  4  1  1  0  0  0
  1  2  1  0  0  0  0
  2  5  1  0  0  0  0
  3  7  1  6  0  0  0
  3 17  1  0  0  0  0
  3  1  1  0  0  0  0
  3  2  1  0  0  0  0
  6  2  1  0  0  0  0
  8 13  1  0  0  0  0
  9 10  1  0  0  0  0
  9  8  2  0  0  0  0
 10 11  2  0  0  0  0
 11 12  1  0  0  0  0
 12  1  1  0  0  0  0
 13 12  2  0  0  0  0
 14  8  1  0  0  0  0
 15  9  1  0  0  0  0
 16 10  1  0  0  0  0
 18 17  1  0  0  0  0
 19 17  1  0  0  0  0
 19 21  1  0  0  0  0
 19 20  1  0  0  0  0
 21 20  1  0  0  0  0
M  END
>  <minimizedAffinity>
-3.90470839

$$$$

 OpenBabel03242511063D

 21 23  0  0  1  0  0  0  0  0999 V2000
   37.6210   28.6610   43.0620 C   0  0  1  0  0  0  0  0  0  0  0  0
   36.7840   27.4710   43.4260 C   0  0  0  0  0  0  0  0  0  0  0  0
   38.1990   27.3320   42.8260 C   0  0  2  0  0  0  0  0  0  0  0  0
   37.9990   29.2660   43.9050 H   0  0  0  0  0  0  0  0  0  0  0  0
   36.6820   27.2600   44.4890 H   0  0  0  0  0  0  0  0  0  0  0  0
   35.9320   27.2870   42.7620 H   0  0  0  0  0  0  0  0  0  0  0  0
   38.2470   27.0460   41.7490 H   0  0  0  0  0  0  0  0  0  0  0  0
   35.7000   29.9780   40.1700 C   0  0  0  0  0  0  0  0  0  0  0  0
   36.5430   31.0670   39.7500 C   0  0  0  0  0  0  0  0  0  0  0  0
   37.7440   31.3130   40.4860 C   0  0  0  0  0  0  0  0  0  0  0  0
   38.0380   30.5310   41.5300 N   0  0  0  0  0  0  0  0  0  0  0  0
   37.2130   29.5050   41.9010 C   0  0  0  0  0  0  0  0  0  0  0  0
   36.0590   29.2380   41.2230 N   0  0  0  0  0  0  0  0  0  0  0  0
   34.8060   29.8210   39.5930 H   0  0  0  0  0  0  0  0  0  0  0  0
   36.2590   31.6680   38.9000 H   0  0  0  0  0  0  0  0  0  0  0  0
   38.3420   32.1400   40.1320 H   0  0  0  0  0  0  0  0  0  0  0  0
   39.1710   26.7360   43.6770 N   0  0  0  0  0  0  0  0  0  0  0  0
   38.6890   26.2970   44.4890 H   0  0  0  0  0  0  0  0  0  0  0  0
   39.9380   25.7610   42.9170 C   0  0  0  0  0  3  0  0  0  0  0  0
   39.6720   24.3260   43.0390 C   0  0  0  0  0  2  0  0  0  0  0  0
   39.3040   25.0620   41.7570 C   0  0  0  0  0  2  0  0  0  0  0  0
  1  2  1  0  0  0  0
  1  4  1  1  0  0  0
  2  5  1  0  0  0  0
  3  7  1  6  0  0  0
  3  1  1  0  0  0  0
  3  2  1  0  0  0  0
  3 17  1  0  0  0  0
  6  2  1  0  0  0  0
  8 13  1  0  0  0  0
  9  8  2  0  0  0  0
  9 10  1  0  0  0  0
 10 11  2  0  0  0  0
 11 12  1  0  0  0  0
 12  1  1  0  0  0  0
 13 12  2  0  0  0  0
 14  8  1  0  0  0  0
 15  9  1  0  0  0  0
 16 10  1  0  0  0  0
 17 18  1  0  0  0  0
 19 20  1  0  0  0  0
 19 17  1  0  0  0  0
 21 19  1  0  0  0  0
 21 20  1  0  0  0  0
M  END
>  <minimizedAffinity>
-3.89411139

$$$$

 OpenBabel03242511063D

 21 23  0  0  1  0  0  0  0  0999 V2000
   38.1280   28.2800   42.6200 C   0  0  1  0  0  0  0  0  0  0  0  0
   37.1960   27.7730   43.6800 C   0  0  0  0  0  0  0  0  0  0  0  0
   37.4060   27.0320   42.3430 C   0  0  2  0  0  0  0  0  0  0  0  0
   39.2050   28.2330   42.8580 H   0  0  0  0  0  0  0  0  0  0  0  0
   37.6600   27.3330   44.5610 H   0  0  0  0  0  0  0  0  0  0  0  0
   36.2740   28.3540   43.7970 H   0  0  0  0  0  0  0  0  0  0  0  0
   36.5910   27.1400   41.5900 H   0  0  0  0  0  0  0  0  0  0  0  0
   36.1670   30.8300   40.7660 C   0  0  0  0  0  0  0  0  0  0  0  0
   37.1880   31.8000   40.4660 C   0  0  0  0  0  0  0  0  0  0  0  0
   38.5190   31.5430   40.9220 C   0  0  0  0  0  0  0  0  0  0  0  0
   38.7650   30.4200   41.6050 N   0  0  0  0  0  0  0  0  0  0  0  0
   37.7700   29.5210   41.8730 C   0  0  0  0  0  0  0  0  0  0  0  0
   36.4880   29.7310   41.4540 N   0  0  0  0  0  0  0  0  0  0  0  0
   35.1780   31.0560   40.4080 H   0  0  0  0  0  0  0  0  0  0  0  0
   36.9350   32.6910   39.9110 H   0  0  0  0  0  0  0  0  0  0  0  0
   39.2470   32.2990   40.6720 H   0  0  0  0  0  0  0  0  0  0  0  0
   37.9990   25.7430   42.4440 N   0  0  0  0  0  0  0  0  0  0  0  0
   38.2300   25.5500   43.4410 H   0  0  0  0  0  0  0  0  0  0  0  0
   37.0820   24.7510   41.9050 C   0  0  0  0  0  3  0  0  0  0  0  0
   36.6820   24.7740   40.4960 C   0  0  0  0  0  2  0  0  0  0  0  0
   37.6020   23.6730   41.0080 C   0  0  0  0  0  2  0  0  0  0  0  0
  1  4  1  1  0  0  0
  1  2  1  0  0  0  0
  2  6  1  0  0  0  0
  2  5  1  0  0  0  0
  3  7  1  6  0  0  0
  3 17  1  0  0  0  0
  3  1  1  0  0  0  0
  3  2  1  0  0  0  0
  8 13  1  0  0  0  0
  9  8  2  0  0  0  0
  9 10  1  0  0  0  0
 10 11  2  0  0  0  0
 11 12  1  0  0  0  0
 12  1  1  0  0  0  0
 13 12  2  0  0  0  0
 14  8  1  0  0  0  0
 15  9  1  0  0  0  0
 16 10  1  0  0  0  0
 17 18  1  0  0  0  0
 19 17  1  0  0  0  0
 20 21  1  0  0  0  0
 20 19  1  0  0  0  0
 21 19  1  0  0  0  0
M  END
>  <minimizedAffinity>
-3.88012242

$$$$

 OpenBabel03242511063D

 21 23  0  0  1  0  0  0  0  0999 V2000
   36.8880   27.1800   42.2410 C   0  0  1  0  0  0  0  0  0  0  0  0
   36.4040   27.2980   43.6550 C   0  0  0  0  0  0  0  0  0  0  0  0
   37.6230   28.0860   43.1320 C   0  0  2  0  0  0  0  0  0  0  0  0
   36.2310   27.6090   41.4650 H   0  0  0  0  0  0  0  0  0  0  0  0
   35.4850   27.8630   43.8050 H   0  0  0  0  0  0  0  0  0  0  0  0
   36.5990   26.4220   44.2840 H   0  0  0  0  0  0  0  0  0  0  0  0
   38.6230   27.7020   43.4410 H   0  0  0  0  0  0  0  0  0  0  0  0
   37.3260   23.6510   41.1730 C   0  0  0  0  0  0  0  0  0  0  0  0
   38.7570   23.5800   41.0290 C   0  0  0  0  0  0  0  0  0  0  0  0
   39.5210   24.7580   41.2980 C   0  0  0  0  0  0  0  0  0  0  0  0
   38.8850   25.8740   41.6720 N   0  0  0  0  0  0  0  0  0  0  0  0
   37.5240   25.9050   41.7980 C   0  0  0  0  0  0  0  0  0  0  0  0
   36.7600   24.8000   41.5490 N   0  0  0  0  0  0  0  0  0  0  0  0
   36.7830   22.7460   40.9630 H   0  0  0  0  0  0  0  0  0  0  0  0
   39.2200   22.6540   40.7250 H   0  0  0  0  0  0  0  0  0  0  0  0
   40.5890   24.6540   41.1760 H   0  0  0  0  0  0  0  0  0  0  0  0
   37.4750   29.5010   43.1080 N   0  0  0  0  0  0  0  0  0  0  0  0
   37.5720   29.8700   44.0770 H   0  0  0  0  0  0  0  0  0  0  0  0
   38.4710   30.0710   42.2150 C   0  0  0  0  0  3  0  0  0  0  0  0
   39.6400   30.7820   42.7370 C   0  0  0  0  0  2  0  0  0  0  0  0
   39.8090   29.4160   42.0840 C   0  0  0  0  0  2  0  0  0  0  0  0
  1  4  1  6  0  0  0
  1  3  1  0  0  0  0
  1  2  1  0  0  0  0
  2  5  1  0  0  0  0
  2  6  1  0  0  0  0
  3  7  1  1  0  0  0
  3  2  1  0  0  0  0
  8 13  1  0  0  0  0
  9  8  2  0  0  0  0
  9 10  1  0  0  0  0
 10 11  2  0  0  0  0
 11 12  1  0  0  0  0
 12  1  1  0  0  0  0
 13 12  2  0  0  0  0
 14  8  1  0  0  0  0
 15  9  1  0  0  0  0
 16 10  1  0  0  0  0
 17  3  1  0  0  0  0
 17 18  1  0  0  0  0
 19 20  1  0  0  0  0
 19 17  1  0  0  0  0
 21 19  1  0  0  0  0
 21 20  1  0  0  0  0
M  END
>  <minimizedAffinity>
-3.8763504

$$$$

 OpenBabel03242511063D

 21 23  0  0  1  0  0  0  0  0999 V2000
   39.4420   30.1780   41.5220 C   0  0  1  0  0  0  0  0  0  0  0  0
   39.9100   30.4210   42.9250 C   0  0  0  0  0  0  0  0  0  0  0  0
   38.7760   29.4290   42.5940 C   0  0  2  0  0  0  0  0  0  0  0  0
   40.1480   29.6480   40.8580 H   0  0  0  0  0  0  0  0  0  0  0  0
   40.8730   29.9900   43.1940 H   0  0  0  0  0  0  0  0  0  0  0  0
   39.6270   31.3940   43.3430 H   0  0  0  0  0  0  0  0  0  0  0  0
   37.7400   29.7800   42.8130 H   0  0  0  0  0  0  0  0  0  0  0  0
   38.3990   33.5390   40.3380 C   0  0  0  0  0  0  0  0  0  0  0  0
   37.2760   33.2030   39.5020 C   0  0  0  0  0  0  0  0  0  0  0  0
   36.9230   31.8230   39.3700 C   0  0  0  0  0  0  0  0  0  0  0  0
   37.6420   30.9030   40.0220 N   0  0  0  0  0  0  0  0  0  0  0  0
   38.7030   31.2600   40.8070 C   0  0  0  0  0  0  0  0  0  0  0  0
   39.0710   32.5660   40.9580 N   0  0  0  0  0  0  0  0  0  0  0  0
   38.6360   34.5860   40.4150 H   0  0  0  0  0  0  0  0  0  0  0  0
   36.7290   33.9850   38.9980 H   0  0  0  0  0  0  0  0  0  0  0  0
   36.0750   31.6230   38.7330 H   0  0  0  0  0  0  0  0  0  0  0  0
   39.0500   28.0640   42.8860 N   0  0  0  0  0  0  0  0  0  0  0  0
   39.4980   27.9990   43.8240 H   0  0  0  0  0  0  0  0  0  0  0  0
   37.8100   27.3050   42.8300 C   0  0  0  0  0  3  0  0  0  0  0  0
   36.6660   27.6590   43.6750 C   0  0  0  0  0  2  0  0  0  0  0  0
   36.6070   27.9010   42.1720 C   0  0  0  0  0  2  0  0  0  0  0  0
  1  4  1  6  0  0  0
  1  3  1  0  0  0  0
  1  2  1  0  0  0  0
  2  5  1  0  0  0  0
  2  6  1  0  0  0  0
  3  7  1  1  0  0  0
  3 17  1  0  0  0  0
  3  2  1  0  0  0  0
  8 14  1  0  0  0  0
  8 13  1  0  0  0  0
  9  8  2  0  0  0  0
 10  9  1  0  0  0  0
 10 11  2  0  0  0  0
 11 12  1  0  0  0  0
 12 13  2  0  0  0  0
 12  1  1  0  0  0  0
 15  9  1  0  0  0  0
 16 10  1  0  0  0  0
 17 18  1  0  0  0  0
 19 17  1  0  0  0  0
 19 20  1  0  0  0  0
 21 19  1  0  0  0  0
 21 20  1  0  0  0  0
M  END
>  <minimizedAffinity>
-3.79776478

$$$$

 OpenBabel03242511063D

 21 23  0  0  1  0  0  0  0  0999 V2000
   36.6530   29.0210   39.8900 C   0  0  1  0  0  0  0  0  0  0  0  0
   35.2540   29.5090   39.6590 C   0  0  0  0  0  0  0  0  0  0  0  0
   36.4650   30.4640   39.6960 C   0  0  2  0  0  0  0  0  0  0  0  0
   37.1010   28.4250   39.0760 H   0  0  0  0  0  0  0  0  0  0  0  0
   34.8260   29.3010   38.6790 H   0  0  0  0  0  0  0  0  0  0  0  0
   34.6040   29.4800   40.5410 H   0  0  0  0  0  0  0  0  0  0  0  0
   36.5860   31.0630   40.6290 H   0  0  0  0  0  0  0  0  0  0  0  0
   37.8420   28.8800   43.4050 C   0  0  0  0  0  0  0  0  0  0  0  0
   37.7320   27.4710   43.6780 C   0  0  0  0  0  0  0  0  0  0  0  0
   37.2420   26.6180   42.6400 C   0  0  0  0  0  0  0  0  0  0  0  0
   36.9070   27.1550   41.4620 N   0  0  0  0  0  0  0  0  0  0  0  0
   37.0240   28.4990   41.2380 C   0  0  0  0  0  0  0  0  0  0  0  0
   37.4870   29.3450   42.2040 N   0  0  0  0  0  0  0  0  0  0  0  0
   38.2140   29.4910   44.2080 H   0  0  0  0  0  0  0  0  0  0  0  0
   38.0170   27.0880   44.6470 H   0  0  0  0  0  0  0  0  0  0  0  0
   37.1790   25.5700   42.8940 H   0  0  0  0  0  0  0  0  0  0  0  0
   36.7540   31.1360   38.4760 N   0  0  0  0  0  0  0  0  0  0  0  0
   35.8630   31.4530   38.0420 H   0  0  0  0  0  0  0  0  0  0  0  0
   37.6460   32.2540   38.7460 C   0  0  0  0  0  3  0  0  0  0  0  0
   37.1830   33.4310   39.4860 C   0  0  0  0  0  2  0  0  0  0  0  0
   38.1690   32.4650   40.1310 C   0  0  0  0  0  2  0  0  0  0  0  0
  1  4  1  6  0  0  0
  1 12  1  0  0  0  0
  2  3  1  0  0  0  0
  2  1  1  0  0  0  0
  2  6  1  0  0  0  0
  3  1  1  0  0  0  0
  3  7  1  1  0  0  0
  5  2  1  0  0  0  0
  8  9  1  0  0  0  0
  8 14  1  0  0  0  0
  9 15  1  0  0  0  0
 10 16  1  0  0  0  0
 10  9  2  0  0  0  0
 11 10  1  0  0  0  0
 12 11  2  0  0  0  0
 12 13  1  0  0  0  0
 13  8  2  0  0  0  0
 17 19  1  0  0  0  0
 17  3  1  0  0  0  0
 18 17  1  0  0  0  0
 19 20  1  0  0  0  0
 19 21  1  0  0  0  0
 20 21  1  0  0  0  0
M  END
>  <minimizedAffinity>
-3.76659298

$$$$
