
 OpenBabel03252507403D

 13 14  0  0  0  0  0  0  0  0999 V2000
   46.0480   34.3400   43.0470 C   0  0  0  0  0  0  0  0  0  0  0  0
   45.8770   34.4490   41.6600 C   0  0  0  0  0  0  0  0  0  0  0  0
   47.0050   34.4050   40.8490 C   0  0  0  0  0  0  0  0  0  0  0  0
   48.2270   34.2580   41.4430 N   0  0  0  0  0  0  0  0  0  0  0  0
   48.3530   34.1560   42.7870 C   0  0  0  0  0  0  0  0  0  0  0  0
   47.2840   34.1950   43.5930 N   0  0  0  0  0  0  0  0  0  0  0  0
   46.9320   34.4850   39.7750 H   0  0  0  0  0  0  0  0  0  0  0  0
   49.3380   34.0410   43.2130 H   0  0  0  0  0  0  0  0  0  0  0  0
   44.8660   34.3830   43.9490 C   0  0  0  0  0  0  0  0  0  0  0  0
   45.2450   34.5010   45.4040 C   0  0  0  0  0  0  0  0  0  0  0  0
   44.6260   35.6470   44.6910 C   0  0  0  0  0  0  0  0  0  0  0  0
   44.2440   34.6400   40.9520 S   0  0  0  0  0  0  0  0  0  0  0  0
   44.1870   33.7920   39.8260 H   0  0  0  0  0  0  0  0  0  0  0  0
  1  6  1  0  0  0  0
  1  9  1  0  0  0  0
  2  1  2  0  0  0  0
  3  4  2  0  0  0  0
  3  2  1  0  0  0  0
  4  5  1  0  0  0  0
  5  8  1  0  0  0  0
  5  6  2  0  0  0  0
  7  3  1  0  0  0  0
  9 11  1  0  0  0  0
  9 10  1  0  0  0  0
 11 10  1  0  0  0  0
 12  2  1  0  0  0  0
 13 12  1  0  0  0  0
M  END
>  <minimizedAffinity>
-3.2306869

>  <minimizedRMSD>
3.18378091

$$$$
