
 OpenBabel03252507263D

 21 23  0  0  0  0  0  0  0  0999 V2000
   45.6910   33.6360   45.4630 C   0  0  0  0  0  0  0  0  0  0  0  0
   44.8220   34.6740   45.8110 C   0  0  0  0  0  0  0  0  0  0  0  0
   44.6480   35.7060   44.8890 C   0  0  0  0  0  0  0  0  0  0  0  0
   45.3320   35.6490   43.6990 N   0  0  0  0  0  0  0  0  0  0  0  0
   46.1510   34.6300   43.4180 C   0  0  0  0  0  0  0  0  0  0  0  0
   46.3400   33.6300   44.2760 N   0  0  0  0  0  0  0  0  0  0  0  0
   44.3280   34.6500   46.7500 H   0  0  0  0  0  0  0  0  0  0  0  0
   43.9860   36.5310   45.1150 H   0  0  0  0  0  0  0  0  0  0  0  0
   46.8540   34.6220   42.1340 C   0  0  0  0  0  0  0  0  0  0  0  0
   48.0210   35.3640   41.9840 C   0  0  0  0  0  0  0  0  0  0  0  0
   48.7600   35.4270   40.8170 C   0  0  0  0  0  0  0  0  0  0  0  0
   48.2420   34.6720   39.7680 C   0  0  0  0  0  0  0  0  0  0  0  0
   47.0790   33.9270   39.9070 C   0  0  0  0  0  0  0  0  0  0  0  0
   46.3960   33.9090   41.0890 N   0  0  0  0  0  0  0  0  0  0  0  0
   48.3480   35.9200   42.8530 H   0  0  0  0  0  0  0  0  0  0  0  0
   49.6620   36.0180   40.7450 H   0  0  0  0  0  0  0  0  0  0  0  0
   48.7620   34.6710   38.8300 H   0  0  0  0  0  0  0  0  0  0  0  0
   46.7060   33.3480   39.0580 H   0  0  0  0  0  0  0  0  0  0  0  0
   45.9530   32.4750   46.3780 C   0  0  0  0  0  0  0  0  0  0  0  0
   46.9260   32.5960   47.4660 C   0  0  0  0  0  0  0  0  0  0  0  0
   45.4760   32.6970   47.8110 C   0  0  0  0  0  0  0  0  0  0  0  0
  1  2  1  0  0  0  0
  1 19  1  0  0  0  0
  2  7  1  0  0  0  0
  3  8  1  0  0  0  0
  3  2  2  0  0  0  0
  4  3  1  0  0  0  0
  5  4  2  0  0  0  0
  5  6  1  0  0  0  0
  6  1  2  0  0  0  0
  9  5  1  0  0  0  0
 10  9  1  0  0  0  0
 10 15  1  0  0  0  0
 11 10  2  0  0  0  0
 12 13  2  0  0  0  0
 12 11  1  0  0  0  0
 13 14  1  0  0  0  0
 14  9  2  0  0  0  0
 16 11  1  0  0  0  0
 17 12  1  0  0  0  0
 18 13  1  0  0  0  0
 19 20  1  0  0  0  0
 19 21  1  0  0  0  0
 20 21  1  0  0  0  0
M  END
>  <minimizedAffinity>
-5.27985048

>  <minimizedRMSD>
0.351097077

$$$$
