
 OpenBabel03242511503D

 19 21  0  0  1  0  0  0  0  0999 V2000
   36.9510   27.1450   42.5880 C   0  0  1  0  0  0  0  0  0  0  0  0
   37.5430   26.0400   41.8300 C   0  0  1  0  0  0  0  0  0  0  0  0
   38.3780   26.7320   42.8360 C   0  0  0  0  0  0  0  0  0  0  0  0
   36.2630   27.0030   43.4310 H   0  0  0  0  0  0  0  0  0  0  0  0
   37.8600   26.2470   40.7680 H   0  0  0  0  0  0  0  0  0  0  0  0
   38.5760   26.2790   43.8140 H   0  0  0  0  0  0  0  0  0  0  0  0
   39.1250   27.4610   42.5050 H   0  0  0  0  0  0  0  0  0  0  0  0
   35.7090   28.5410   40.8750 C   0  0  0  0  0  0  0  0  0  0  0  0
   36.6970   28.4480   41.8920 C   0  0  0  0  0  0  0  0  0  0  0  0
   37.4290   29.5900   42.2200 C   0  0  0  0  0  0  0  0  0  0  0  0
   37.1470   30.7320   41.5360 N   0  0  0  0  0  0  0  0  0  0  0  0
   36.2130   30.7960   40.5820 C   0  0  0  0  0  0  0  0  0  0  0  0
   35.4810   29.6970   40.2400 N   0  0  0  0  0  0  0  0  0  0  0  0
   35.1810   27.6030   40.6760 H   0  0  0  0  0  0  0  0  0  0  0  0
   38.1780   29.5670   42.9760 H   0  0  0  0  0  0  0  0  0  0  0  0
   36.0010   31.7170   40.0470 H   0  0  0  0  0  0  0  0  0  0  0  0
   36.9510   24.6970   42.0430 C   0  0  0  0  0  3  0  0  0  0  0  0
   36.4020   24.0430   40.7380 C   0  0  0  0  0  2  0  0  0  0  0  0
   37.6560   23.5600   41.3260 C   0  0  0  0  0  2  0  0  0  0  0  0
  1  3  1  0  0  0  0
  1  4  1  1  0  0  0
  2  5  1  6  0  0  0
  2 17  1  0  0  0  0
  2  1  1  0  0  0  0
  2  3  1  0  0  0  0
  3  6  1  0  0  0  0
  7  3  1  0  0  0  0
  8  9  1  0  0  0  0
  9 10  2  0  0  0  0
  9  1  1  0  0  0  0
 10 15  1  0  0  0  0
 11 10  1  0  0  0  0
 12 11  2  0  0  0  0
 13 12  1  0  0  0  0
 13  8  2  0  0  0  0
 14  8  1  0  0  0  0
 16 12  1  0  0  0  0
 18 19  1  0  0  0  0
 18 17  1  0  0  0  0
 19 17  1  0  0  0  0
M  END
>  <minimizedAffinity>
-4.19171286

$$$$

 OpenBabel03242511503D

 19 21  0  0  1  0  0  0  0  0999 V2000
   36.4590   27.8610   42.0040 C   0  0  1  0  0  0  0  0  0  0  0  0
   37.3560   26.7830   42.4280 C   0  0  1  0  0  0  0  0  0  0  0  0
   36.5450   27.4710   43.4560 C   0  0  0  0  0  0  0  0  0  0  0  0
   35.4880   27.6880   41.5230 H   0  0  0  0  0  0  0  0  0  0  0  0
   38.4570   27.0180   42.4970 H   0  0  0  0  0  0  0  0  0  0  0  0
   35.6460   27.0020   43.8730 H   0  0  0  0  0  0  0  0  0  0  0  0
   37.0160   28.2220   44.1000 H   0  0  0  0  0  0  0  0  0  0  0  0
   36.2130   30.2340   41.1450 C   0  0  0  0  0  0  0  0  0  0  0  0
   37.0510   29.1720   41.5810 C   0  0  0  0  0  0  0  0  0  0  0  0
   38.4310   29.3720   41.5970 C   0  0  0  0  0  0  0  0  0  0  0  0
   38.8920   30.5860   41.1890 N   0  0  0  0  0  0  0  0  0  0  0  0
   38.0850   31.5710   40.7830 C   0  0  0  0  0  0  0  0  0  0  0  0
   36.7320   31.4050   40.7560 N   0  0  0  0  0  0  0  0  0  0  0  0
   35.1440   29.9960   41.1620 H   0  0  0  0  0  0  0  0  0  0  0  0
   39.0970   28.6060   41.9170 H   0  0  0  0  0  0  0  0  0  0  0  0
   38.4720   32.5330   40.4600 H   0  0  0  0  0  0  0  0  0  0  0  0
   37.0490   25.4250   41.9180 C   0  0  0  0  0  3  0  0  0  0  0  0
   38.1170   24.8760   40.9220 C   0  0  0  0  0  2  0  0  0  0  0  0
   38.0580   24.3520   42.2910 C   0  0  0  0  0  2  0  0  0  0  0  0
  1  4  1  6  0  0  0
  1  2  1  0  0  0  0
  1  3  1  0  0  0  0
  2  5  1  1  0  0  0
  2  3  1  0  0  0  0
  3  6  1  0  0  0  0
  3  7  1  0  0  0  0
  8 14  1  0  0  0  0
  8  9  1  0  0  0  0
  9 10  2  0  0  0  0
  9  1  1  0  0  0  0
 10 15  1  0  0  0  0
 11 10  1  0  0  0  0
 12 11  2  0  0  0  0
 13 12  1  0  0  0  0
 13  8  2  0  0  0  0
 16 12  1  0  0  0  0
 17 19  1  0  0  0  0
 17  2  1  0  0  0  0
 18 17  1  0  0  0  0
 18 19  1  0  0  0  0
M  END
>  <minimizedAffinity>
-4.01284742

$$$$

 OpenBabel03242511503D

 19 21  0  0  1  0  0  0  0  0999 V2000
   36.8340   29.1960   40.3100 C   0  0  1  0  0  0  0  0  0  0  0  0
   36.3440   28.8380   41.6430 C   0  0  1  0  0  0  0  0  0  0  0  0
   35.3780   28.8740   40.5230 C   0  0  0  0  0  0  0  0  0  0  0  0
   37.3820   28.5040   39.6580 H   0  0  0  0  0  0  0  0  0  0  0  0
   36.1970   29.6730   42.3870 H   0  0  0  0  0  0  0  0  0  0  0  0
   35.0240   27.9500   40.0520 H   0  0  0  0  0  0  0  0  0  0  0  0
   34.7050   29.7320   40.4220 H   0  0  0  0  0  0  0  0  0  0  0  0
   36.9300   31.2150   38.7800 C   0  0  0  0  0  0  0  0  0  0  0  0
   37.2170   30.6190   40.0370 C   0  0  0  0  0  0  0  0  0  0  0  0
   37.8710   31.3820   41.0050 C   0  0  0  0  0  0  0  0  0  0  0  0
   38.1960   32.6630   40.6790 N   0  0  0  0  0  0  0  0  0  0  0  0
   37.9160   33.2030   39.4890 C   0  0  0  0  0  0  0  0  0  0  0  0
   37.2770   32.4820   38.5230 N   0  0  0  0  0  0  0  0  0  0  0  0
   36.4170   30.5510   38.0760 H   0  0  0  0  0  0  0  0  0  0  0  0
   38.1060   30.9770   41.9620 H   0  0  0  0  0  0  0  0  0  0  0  0
   38.1830   34.2270   39.2460 H   0  0  0  0  0  0  0  0  0  0  0  0
   36.8710   27.5800   42.2280 C   0  0  0  0  0  3  0  0  0  0  0  0
   37.7630   27.8040   43.4870 C   0  0  0  0  0  2  0  0  0  0  0  0
   36.4010   27.2790   43.6400 C   0  0  0  0  0  2  0  0  0  0  0  0
  1  4  1  6  0  0  0
  1  3  1  0  0  0  0
  1  2  1  0  0  0  0
  2 17  1  0  0  0  0
  2  5  1  1  0  0  0
  3  2  1  0  0  0  0
  6  3  1  0  0  0  0
  7  3  1  0  0  0  0
  8  9  1  0  0  0  0
  9  1  1  0  0  0  0
  9 10  2  0  0  0  0
 10 15  1  0  0  0  0
 11 10  1  0  0  0  0
 12 11  2  0  0  0  0
 13  8  2  0  0  0  0
 13 12  1  0  0  0  0
 14  8  1  0  0  0  0
 16 12  1  0  0  0  0
 17 18  1  0  0  0  0
 17 19  1  0  0  0  0
 18 19  1  0  0  0  0
M  END
>  <minimizedAffinity>
-3.9420886

$$$$

 OpenBabel03242511503D

 19 21  0  0  1  0  0  0  0  0999 V2000
   36.6290   27.9150   42.1230 C   0  0  1  0  0  0  0  0  0  0  0  0
   37.4880   26.7370   41.9870 C   0  0  1  0  0  0  0  0  0  0  0  0
   37.8250   27.7390   43.0210 C   0  0  0  0  0  0  0  0  0  0  0  0
   35.6530   27.9000   42.6240 H   0  0  0  0  0  0  0  0  0  0  0  0
   38.2180   26.7190   41.1270 H   0  0  0  0  0  0  0  0  0  0  0  0
   37.6000   27.5580   44.0780 H   0  0  0  0  0  0  0  0  0  0  0  0
   38.6390   28.4490   42.8370 H   0  0  0  0  0  0  0  0  0  0  0  0
   37.0690   28.6520   39.7370 C   0  0  0  0  0  0  0  0  0  0  0  0
   36.6810   28.9760   41.0650 C   0  0  0  0  0  0  0  0  0  0  0  0
   36.3610   30.3010   41.3640 C   0  0  0  0  0  0  0  0  0  0  0  0
   36.4420   31.2080   40.3530 N   0  0  0  0  0  0  0  0  0  0  0  0
   36.8090   30.8800   39.1110 C   0  0  0  0  0  0  0  0  0  0  0  0
   37.1280   29.5940   38.7880 N   0  0  0  0  0  0  0  0  0  0  0  0
   37.3040   27.5940   39.5850 H   0  0  0  0  0  0  0  0  0  0  0  0
   36.0640   30.5890   42.3450 H   0  0  0  0  0  0  0  0  0  0  0  0
   36.8680   31.6180   38.3160 H   0  0  0  0  0  0  0  0  0  0  0  0
   36.8680   25.4240   42.2920 C   0  0  0  0  0  3  0  0  0  0  0  0
   36.8380   24.4490   41.0740 C   0  0  0  0  0  2  0  0  0  0  0  0
   37.7940   24.2270   42.1650 C   0  0  0  0  0  2  0  0  0  0  0  0
  1  4  1  1  0  0  0
  1  3  1  0  0  0  0
  2  5  1  6  0  0  0
  2  1  1  0  0  0  0
  2 17  1  0  0  0  0
  2  3  1  0  0  0  0
  3  6  1  0  0  0  0
  7  3  1  0  0  0  0
  8  9  1  0  0  0  0
  9 10  2  0  0  0  0
  9  1  1  0  0  0  0
 10 15  1  0  0  0  0
 11 10  1  0  0  0  0
 12 11  2  0  0  0  0
 13 12  1  0  0  0  0
 13  8  2  0  0  0  0
 14  8  1  0  0  0  0
 16 12  1  0  0  0  0
 18 19  1  0  0  0  0
 18 17  1  0  0  0  0
 19 17  1  0  0  0  0
M  END
>  <minimizedAffinity>
-3.88158727

$$$$

 OpenBabel03242511503D

 19 21  0  0  1  0  0  0  0  0999 V2000
   37.2200   29.7490   40.4490 C   0  0  1  0  0  0  0  0  0  0  0  0
   36.9670   29.2410   41.7990 C   0  0  1  0  0  0  0  0  0  0  0  0
   35.8210   29.3920   40.8760 C   0  0  0  0  0  0  0  0  0  0  0  0
   37.6400   29.1390   39.6400 H   0  0  0  0  0  0  0  0  0  0  0  0
   36.9610   29.9870   42.6450 H   0  0  0  0  0  0  0  0  0  0  0  0
   35.3810   28.5220   40.3750 H   0  0  0  0  0  0  0  0  0  0  0  0
   35.1490   30.2500   40.9890 H   0  0  0  0  0  0  0  0  0  0  0  0
   38.5580   31.8070   41.0850 C   0  0  0  0  0  0  0  0  0  0  0  0
   37.5650   31.1980   40.2720 C   0  0  0  0  0  0  0  0  0  0  0  0
   36.9120   31.9760   39.3160 C   0  0  0  0  0  0  0  0  0  0  0  0
   37.2720   33.2850   39.2230 N   0  0  0  0  0  0  0  0  0  0  0  0
   38.2100   33.8380   39.9980 C   0  0  0  0  0  0  0  0  0  0  0  0
   38.8650   33.1020   40.9410 N   0  0  0  0  0  0  0  0  0  0  0  0
   39.0210   31.1300   41.8100 H   0  0  0  0  0  0  0  0  0  0  0  0
   36.1620   31.5610   38.6850 H   0  0  0  0  0  0  0  0  0  0  0  0
   38.4840   34.8850   39.9090 H   0  0  0  0  0  0  0  0  0  0  0  0
   37.5750   27.9320   42.1410 C   0  0  0  0  0  3  0  0  0  0  0  0
   37.7650   27.7130   43.6740 C   0  0  0  0  0  2  0  0  0  0  0  0
   36.6940   27.0060   42.9620 C   0  0  0  0  0  2  0  0  0  0  0  0
  1  4  1  6  0  0  0
  1  3  1  0  0  0  0
  1  2  1  0  0  0  0
  2 17  1  0  0  0  0
  2  5  1  1  0  0  0
  3  7  1  0  0  0  0
  3  2  1  0  0  0  0
  6  3  1  0  0  0  0
  8 14  1  0  0  0  0
  9  1  1  0  0  0  0
  9  8  2  0  0  0  0
 10  9  1  0  0  0  0
 11 10  2  0  0  0  0
 11 12  1  0  0  0  0
 12 13  2  0  0  0  0
 13  8  1  0  0  0  0
 15 10  1  0  0  0  0
 16 12  1  0  0  0  0
 17 19  1  0  0  0  0
 17 18  1  0  0  0  0
 19 18  1  0  0  0  0
M  END
>  <minimizedAffinity>
-3.84952736

$$$$

 OpenBabel03242511503D

 19 21  0  0  1  0  0  0  0  0999 V2000
   37.5780   26.5150   42.6550 C   0  0  1  0  0  0  0  0  0  0  0  0
   37.6860   27.9710   42.5410 C   0  0  1  0  0  0  0  0  0  0  0  0
   36.6090   27.4080   43.3840 C   0  0  0  0  0  0  0  0  0  0  0  0
   38.2320   25.9060   43.2900 H   0  0  0  0  0  0  0  0  0  0  0  0
   37.3070   28.4500   41.5930 H   0  0  0  0  0  0  0  0  0  0  0  0
   36.6920   27.4030   44.4770 H   0  0  0  0  0  0  0  0  0  0  0  0
   35.5850   27.3770   42.9980 H   0  0  0  0  0  0  0  0  0  0  0  0
   36.8530   26.3690   40.2290 C   0  0  0  0  0  0  0  0  0  0  0  0
   37.0780   25.7310   41.4780 C   0  0  0  0  0  0  0  0  0  0  0  0
   36.8150   24.3650   41.5890 C   0  0  0  0  0  0  0  0  0  0  0  0
   36.3540   23.7250   40.4800 N   0  0  0  0  0  0  0  0  0  0  0  0
   36.1490   24.3460   39.3150 C   0  0  0  0  0  0  0  0  0  0  0  0
   36.3980   25.6800   39.1760 N   0  0  0  0  0  0  0  0  0  0  0  0
   37.0830   27.4400   40.2260 H   0  0  0  0  0  0  0  0  0  0  0  0
   36.9700   23.8450   42.5050 H   0  0  0  0  0  0  0  0  0  0  0  0
   35.7810   23.8180   38.4410 H   0  0  0  0  0  0  0  0  0  0  0  0
   38.9170   28.5910   43.0910 C   0  0  0  0  0  3  0  0  0  0  0  0
   39.9110   29.0830   41.9940 C   0  0  0  0  0  2  0  0  0  0  0  0
   39.1110   30.0570   42.7460 C   0  0  0  0  0  2  0  0  0  0  0  0
  1  4  1  1  0  0  0
  1  3  1  0  0  0  0
  2  5  1  6  0  0  0
  2  1  1  0  0  0  0
  2 17  1  0  0  0  0
  2  3  1  0  0  0  0
  3  6  1  0  0  0  0
  7  3  1  0  0  0  0
  8  9  1  0  0  0  0
  9 10  2  0  0  0  0
  9  1  1  0  0  0  0
 10 15  1  0  0  0  0
 11 10  1  0  0  0  0
 12 11  2  0  0  0  0
 13 12  1  0  0  0  0
 13  8  2  0  0  0  0
 14  8  1  0  0  0  0
 16 12  1  0  0  0  0
 18 19  1  0  0  0  0
 18 17  1  0  0  0  0
 19 17  1  0  0  0  0
M  END
>  <minimizedAffinity>
-3.7375381

$$$$

 OpenBabel03242511503D

 19 21  0  0  1  0  0  0  0  0999 V2000
   39.0050   29.8320   42.4950 C   0  0  1  0  0  0  0  0  0  0  0  0
   38.5890   28.4730   42.1400 C   0  0  1  0  0  0  0  0  0  0  0  0
   40.0100   28.8450   41.9640 C   0  0  0  0  0  0  0  0  0  0  0  0
   39.1690   30.1670   43.5270 H   0  0  0  0  0  0  0  0  0  0  0  0
   38.0390   28.3340   41.1660 H   0  0  0  0  0  0  0  0  0  0  0  0
   40.7730   28.5150   42.6790 H   0  0  0  0  0  0  0  0  0  0  0  0
   40.3850   29.0740   40.9610 H   0  0  0  0  0  0  0  0  0  0  0  0
   37.3480   30.9330   40.9220 C   0  0  0  0  0  0  0  0  0  0  0  0
   38.5890   30.9710   41.6130 C   0  0  0  0  0  0  0  0  0  0  0  0
   39.4140   32.0840   41.4460 C   0  0  0  0  0  0  0  0  0  0  0  0
   38.9720   33.0720   40.6210 N   0  0  0  0  0  0  0  0  0  0  0  0
   37.8000   33.0140   39.9810 C   0  0  0  0  0  0  0  0  0  0  0  0
   36.9730   31.9400   40.1240 N   0  0  0  0  0  0  0  0  0  0  0  0
   36.7620   30.0270   41.1050 H   0  0  0  0  0  0  0  0  0  0  0  0
   40.3520   32.1570   41.9450 H   0  0  0  0  0  0  0  0  0  0  0  0
   37.4640   33.8130   39.3260 H   0  0  0  0  0  0  0  0  0  0  0  0
   38.0980   27.6190   43.2490 C   0  0  0  0  0  3  0  0  0  0  0  0
   36.5490   27.4350   43.2580 C   0  0  0  0  0  2  0  0  0  0  0  0
   37.4130   26.3330   42.8190 C   0  0  0  0  0  2  0  0  0  0  0  0
  1  4  1  1  0  0  0
  2  5  1  6  0  0  0
  2  1  1  0  0  0  0
  2 17  1  0  0  0  0
  3  2  1  0  0  0  0
  3  1  1  0  0  0  0
  3  6  1  0  0  0  0
  7  3  1  0  0  0  0
  8 14  1  0  0  0  0
  8  9  1  0  0  0  0
  9  1  1  0  0  0  0
 10  9  2  0  0  0  0
 10 15  1  0  0  0  0
 11 10  1  0  0  0  0
 12 13  1  0  0  0  0
 12 11  2  0  0  0  0
 13  8  2  0  0  0  0
 16 12  1  0  0  0  0
 17 18  1  0  0  0  0
 19 17  1  0  0  0  0
 19 18  1  0  0  0  0
M  END
>  <minimizedAffinity>
-3.71705914

$$$$

 OpenBabel03242511503D

 19 21  0  0  1  0  0  0  0  0999 V2000
   37.4650   27.8810   42.1980 C   0  0  1  0  0  0  0  0  0  0  0  0
   38.5720   27.4620   43.0600 C   0  0  1  0  0  0  0  0  0  0  0  0
   37.2480   27.6960   43.6770 C   0  0  0  0  0  0  0  0  0  0  0  0
   36.9090   27.1950   41.5470 H   0  0  0  0  0  0  0  0  0  0  0  0
   39.3400   28.2390   43.3400 H   0  0  0  0  0  0  0  0  0  0  0  0
   36.6000   26.8580   43.9580 H   0  0  0  0  0  0  0  0  0  0  0  0
   37.0690   28.6250   44.2290 H   0  0  0  0  0  0  0  0  0  0  0  0
   38.6730   30.0160   41.5550 C   0  0  0  0  0  0  0  0  0  0  0  0
   37.4640   29.2750   41.6460 C   0  0  0  0  0  0  0  0  0  0  0  0
   36.2780   29.8750   41.2210 C   0  0  0  0  0  0  0  0  0  0  0  0
   36.3570   31.1460   40.7410 N   0  0  0  0  0  0  0  0  0  0  0  0
   37.5060   31.8240   40.6650 C   0  0  0  0  0  0  0  0  0  0  0  0
   38.6810   31.2650   41.0730 N   0  0  0  0  0  0  0  0  0  0  0  0
   39.5570   29.4750   41.9090 H   0  0  0  0  0  0  0  0  0  0  0  0
   35.3490   29.3570   41.2690 H   0  0  0  0  0  0  0  0  0  0  0  0
   37.5490   32.8380   40.2800 H   0  0  0  0  0  0  0  0  0  0  0  0
   39.1320   26.1100   42.8120 C   0  0  0  0  0  3  0  0  0  0  0  0
   40.6030   26.1290   42.2950 C   0  0  0  0  0  2  0  0  0  0  0  0
   40.3200   25.7340   43.6800 C   0  0  0  0  0  2  0  0  0  0  0  0
  1  4  1  6  0  0  0
  1  2  1  0  0  0  0
  1  3  1  0  0  0  0
  2  5  1  1  0  0  0
  2  3  1  0  0  0  0
  3  6  1  0  0  0  0
  3  7  1  0  0  0  0
  8  9  1  0  0  0  0
  8 14  1  0  0  0  0
  9  1  1  0  0  0  0
 10 15  1  0  0  0  0
 10  9  2  0  0  0  0
 11 10  1  0  0  0  0
 12 11  2  0  0  0  0
 12 13  1  0  0  0  0
 13  8  2  0  0  0  0
 16 12  1  0  0  0  0
 17  2  1  0  0  0  0
 17 19  1  0  0  0  0
 18 17  1  0  0  0  0
 18 19  1  0  0  0  0
M  END
>  <minimizedAffinity>
-3.69807696

$$$$

 OpenBabel03242511503D

 19 21  0  0  1  0  0  0  0  0999 V2000
   36.9110   25.4230   42.2450 C   0  0  1  0  0  0  0  0  0  0  0  0
   37.1550   24.7140   40.9870 C   0  0  1  0  0  0  0  0  0  0  0  0
   38.0580   24.4550   42.1290 C   0  0  0  0  0  0  0  0  0  0  0  0
   36.1240   25.1430   42.9570 H   0  0  0  0  0  0  0  0  0  0  0  0
   37.6460   25.2890   40.1500 H   0  0  0  0  0  0  0  0  0  0  0  0
   37.9670   23.5390   42.7250 H   0  0  0  0  0  0  0  0  0  0  0  0
   39.0490   24.9210   42.1470 H   0  0  0  0  0  0  0  0  0  0  0  0
   37.2940   27.6730   41.1410 C   0  0  0  0  0  0  0  0  0  0  0  0
   37.2190   26.8880   42.3230 C   0  0  0  0  0  0  0  0  0  0  0  0
   37.4460   27.5060   43.5530 C   0  0  0  0  0  0  0  0  0  0  0  0
   37.7300   28.8370   43.5410 N   0  0  0  0  0  0  0  0  0  0  0  0
   37.7960   29.5560   42.4160 C   0  0  0  0  0  0  0  0  0  0  0  0
   37.5780   28.9800   41.2000 N   0  0  0  0  0  0  0  0  0  0  0  0
   37.1040   27.1140   40.2190 H   0  0  0  0  0  0  0  0  0  0  0  0
   37.3990   26.9580   44.4640 H   0  0  0  0  0  0  0  0  0  0  0  0
   38.0240   30.6180   42.4270 H   0  0  0  0  0  0  0  0  0  0  0  0
   36.1030   23.7660   40.5450 C   0  0  0  0  0  3  0  0  0  0  0  0
   35.6670   23.9650   39.0600 C   0  0  0  0  0  2  0  0  0  0  0  0
   36.5130   22.8230   39.4270 C   0  0  0  0  0  2  0  0  0  0  0  0
  1  9  1  0  0  0  0
  1  4  1  1  0  0  0
  2  5  1  6  0  0  0
  2  3  1  0  0  0  0
  2  1  1  0  0  0  0
  3  7  1  0  0  0  0
  3  1  1  0  0  0  0
  3  6  1  0  0  0  0
  8 13  2  0  0  0  0
  8  9  1  0  0  0  0
  9 10  2  0  0  0  0
 10 15  1  0  0  0  0
 11 10  1  0  0  0  0
 12 16  1  0  0  0  0
 12 11  2  0  0  0  0
 13 12  1  0  0  0  0
 14  8  1  0  0  0  0
 17  2  1  0  0  0  0
 18 19  1  0  0  0  0
 18 17  1  0  0  0  0
 19 17  1  0  0  0  0
M  END
>  <minimizedAffinity>
-3.69652534

$$$$
