
 OpenBabel03252509113D

 25 28  0  0  0  0  0  0  0  0999 V2000
   47.0660   32.8180   44.4820 C   0  0  0  0  0  0  0  0  0  0  0  0
   47.9740   32.5730   43.4540 C   0  0  0  0  0  0  0  0  0  0  0  0
   48.6310   31.3450   43.2980 C   0  0  0  0  0  0  0  0  0  0  0  0
   48.3700   30.3280   44.2030 C   0  0  0  0  0  0  0  0  0  0  0  0
   48.8020   29.0570   44.3770 N   0  0  0  0  0  0  0  0  0  0  0  0
   48.1960   28.5220   45.4640 C   0  0  0  0  0  0  0  0  0  0  0  0
   47.3860   29.4780   45.9550 N   0  0  0  0  0  0  0  0  0  0  0  0
   47.4720   30.5910   45.2070 C   0  0  0  0  0  0  0  0  0  0  0  0
   46.8040   31.7920   45.3900 C   0  0  0  0  0  0  0  0  0  0  0  0
   46.5910   33.8010   44.5410 H   0  0  0  0  0  0  0  0  0  0  0  0
   49.4970   28.5670   43.7800 H   0  0  0  0  0  0  0  0  0  0  0  0
   48.3860   27.5030   45.8030 H   0  0  0  0  0  0  0  0  0  0  0  0
   46.1050   31.9760   46.1820 H   0  0  0  0  0  0  0  0  0  0  0  0
   49.3280   35.6310   41.9300 C   0  0  0  0  0  0  0  0  0  0  0  0
   48.7920   35.5960   40.6450 C   0  0  0  0  0  0  0  0  0  0  0  0
   47.9640   34.5200   40.3070 C   0  0  0  0  0  0  0  0  0  0  0  0
   47.7400   33.5720   41.2680 N   0  0  0  0  0  0  0  0  0  0  0  0
   48.2650   33.6230   42.4960 C   0  0  0  0  0  0  0  0  0  0  0  0
   49.0500   34.6490   42.8110 N   0  0  0  0  0  0  0  0  0  0  0  0
   49.9680   36.3900   42.3110 H   0  0  0  0  0  0  0  0  0  0  0  0
   49.0360   36.3900   39.9840 H   0  0  0  0  0  0  0  0  0  0  0  0
   47.5420   34.4710   39.3310 H   0  0  0  0  0  0  0  0  0  0  0  0
   49.5990   31.1470   42.1920 C   0  0  0  0  0  3  0  0  0  0  0  0
   50.9760   30.5950   42.6490 C   0  0  0  0  0  2  0  0  0  0  0  0
   50.8440   31.9620   42.0870 C   0  0  0  0  0  2  0  0  0  0  0  0
  1 10  1  0  0  0  0
  1  9  1  0  0  0  0
  2  1  2  0  0  0  0
  3  2  1  0  0  0  0
  3  4  2  0  0  0  0
  4  5  1  0  0  0  0
  4  8  1  0  0  0  0
  5  6  1  0  0  0  0
  6 12  1  0  0  0  0
  6  7  2  0  0  0  0
  8  9  2  0  0  0  0
  8  7  1  0  0  0  0
  9 13  1  0  0  0  0
 11  5  1  0  0  0  0
 14 20  1  0  0  0  0
 14 19  1  0  0  0  0
 15 14  2  0  0  0  0
 16 15  1  0  0  0  0
 16 17  2  0  0  0  0
 17 18  1  0  0  0  0
 18 19  2  0  0  0  0
 18  2  1  0  0  0  0
 21 15  1  0  0  0  0
 22 16  1  0  0  0  0
 23 24  1  0  0  0  0
 23  3  1  0  0  0  0
 25 23  1  0  0  0  0
 25 24  1  0  0  0  0
M  END
>  <minimizedAffinity>
-3.86256456

>  <minimizedRMSD>
4.19857836

$$$$
