
 OpenBabel03252509183D

 35 38  0  0  1  0  0  0  0  0999 V2000
   47.1950   31.3390   45.5590 C   0  0  1  0  0  0  0  0  0  0  0  0
   46.3160   30.8470   46.6570 C   0  0  0  0  0  0  0  0  0  0  0  0
   46.4570   29.3980   46.9840 C   0  0  0  0  0  0  0  0  0  0  0  0
   47.8860   28.9210   46.9900 C   0  0  0  0  0  0  0  0  0  0  0  0
   48.6950   29.4500   45.8280 C   0  0  0  0  0  0  0  0  0  0  0  0
   47.7600   30.1080   44.8150 C   0  0  2  0  0  0  0  0  0  0  0  0
   48.1120   31.8300   45.9590 H   0  0  0  0  0  0  0  0  0  0  0  0
   46.5120   31.4470   47.5720 H   0  0  0  0  0  0  0  0  0  0  0  0
   45.2220   31.0180   46.4360 H   0  0  0  0  0  0  0  0  0  0  0  0
   46.0840   29.2720   48.0310 H   0  0  0  0  0  0  0  0  0  0  0  0
   45.7840   28.8070   46.3390 H   0  0  0  0  0  0  0  0  0  0  0  0
   47.8510   27.8030   46.8710 H   0  0  0  0  0  0  0  0  0  0  0  0
   48.3760   29.0990   47.9680 H   0  0  0  0  0  0  0  0  0  0  0  0
   49.3300   28.6880   45.3620 H   0  0  0  0  0  0  0  0  0  0  0  0
   49.3530   30.2700   46.2190 H   0  0  0  0  0  0  0  0  0  0  0  0
   46.9590   29.4400   44.4920 H   0  0  0  0  0  0  0  0  0  0  0  0
   44.8980   33.3870   42.8480 C   0  0  0  0  0  0  0  0  0  0  0  0
   45.8390   34.2100   43.4870 C   0  0  0  0  0  0  0  0  0  0  0  0
   46.6540   33.6500   44.3970 C   0  0  0  0  0  0  0  0  0  0  0  0
   46.5500   32.2740   44.6850 C   0  0  0  0  0  0  0  0  0  0  0  0
   45.1990   31.7340   43.5870 S   0  0  0  0  0  0  0  0  0  0  0  0
   45.9160   35.2630   43.2640 H   0  0  0  0  0  0  0  0  0  0  0  0
   47.4310   34.1110   44.9860 H   0  0  0  0  0  0  0  0  0  0  0  0
   43.0000   35.2670   40.2570 C   0  0  0  0  0  0  0  0  0  0  0  0
   41.9450   34.3480   40.0210 C   0  0  0  0  0  0  0  0  0  0  0  0
   41.9330   33.1340   40.7550 C   0  0  0  0  0  0  0  0  0  0  0  0
   42.9410   32.9320   41.6440 N   0  0  0  0  0  0  0  0  0  0  0  0
   43.9350   33.8460   41.8360 C   0  0  0  0  0  0  0  0  0  0  0  0
   43.9680   35.0120   41.1460 N   0  0  0  0  0  0  0  0  0  0  0  0
   43.0240   36.1880   39.7100 H   0  0  0  0  0  0  0  0  0  0  0  0
   41.1640   34.5540   39.3020 H   0  0  0  0  0  0  0  0  0  0  0  0
   41.1550   32.4260   40.6000 H   0  0  0  0  0  0  0  0  0  0  0  0
   48.6140   30.6340   43.6810 C   0  0  0  0  0  3  0  0  0  0  0  0
   49.9160   29.9560   43.4650 C   0  0  0  0  0  2  0  0  0  0  0  0
   48.7650   29.7630   42.4920 C   0  0  0  0  0  2  0  0  0  0  0  0
  1  7  1  1  0  0  0
  1  2  1  0  0  0  0
  2  3  1  0  0  0  0
  2  8  1  0  0  0  0
  3  4  1  0  0  0  0
  3 10  1  0  0  0  0
  4 13  1  0  0  0  0
  5 15  1  0  0  0  0
  5  4  1  0  0  0  0
  6 16  1  6  0  0  0
  6  1  1  0  0  0  0
  6  5  1  0  0  0  0
  9  2  1  0  0  0  0
 11  3  1  0  0  0  0
 12  4  1  0  0  0  0
 14  5  1  0  0  0  0
 17 18  2  0  0  0  0
 17 21  1  0  0  0  0
 18 19  1  0  0  0  0
 19 20  2  0  0  0  0
 19 23  1  0  0  0  0
 20  1  1  0  0  0  0
 21 20  1  0  0  0  0
 22 18  1  0  0  0  0
 24 29  1  0  0  0  0
 25 24  2  0  0  0  0
 25 26  1  0  0  0  0
 26 27  2  0  0  0  0
 27 28  1  0  0  0  0
 28 17  1  0  0  0  0
 29 28  2  0  0  0  0
 30 24  1  0  0  0  0
 31 25  1  0  0  0  0
 32 26  1  0  0  0  0
 33  6  1  0  0  0  0
 34 33  1  0  0  0  0
 35 34  1  0  0  0  0
 35 33  1  0  0  0  0
M  END
>  <minimizedAffinity>
-3.75158238

>  <minimizedRMSD>
4.61702538

$$$$
