
 OpenBabel03252504423D

 39 42  0  0  0  0  0  0  0  0999 V2000
   46.2900   32.1680   48.0080 C   0  0  0  0  0  0  0  0  0  0  0  0
   45.8360   31.6450   49.1820 C   0  0  0  0  0  0  0  0  0  0  0  0
   46.8490   30.9560   49.7080 N   0  0  0  0  0  0  0  0  0  0  0  0
   47.9280   31.0170   48.9210 C   0  0  0  0  0  0  0  0  0  0  0  0
   47.5650   31.7830   47.8520 N   0  0  0  0  0  0  0  0  0  0  0  0
   49.2300   30.4570   49.0480 N   0  0  0  0  0  0  0  0  0  0  0  0
   50.2380   31.2620   49.7790 C   0  0  0  0  0  0  0  0  0  0  0  0
   50.3560   30.5810   51.1410 C   0  0  0  0  0  0  0  0  0  0  0  0
   50.5300   29.0960   50.9680 C   0  0  0  0  0  0  0  0  0  0  0  0
   50.9170   28.7850   49.5310 C   0  0  0  0  0  0  0  0  0  0  0  0
   49.8050   29.2280   48.6040 C   0  0  0  0  0  0  0  0  0  0  0  0
   44.8390   31.7680   49.6050 H   0  0  0  0  0  0  0  0  0  0  0  0
   46.8450   30.4240   50.6110 H   0  0  0  0  0  0  0  0  0  0  0  0
   51.1890   31.2800   49.2360 H   0  0  0  0  0  0  0  0  0  0  0  0
   49.8580   32.2840   49.9750 H   0  0  0  0  0  0  0  0  0  0  0  0
   49.4430   30.7580   51.7120 H   0  0  0  0  0  0  0  0  0  0  0  0
   51.2550   30.9970   51.6600 H   0  0  0  0  0  0  0  0  0  0  0  0
   49.5850   28.5430   51.1490 H   0  0  0  0  0  0  0  0  0  0  0  0
   51.3200   28.6670   51.6360 H   0  0  0  0  0  0  0  0  0  0  0  0
   51.0910   27.7000   49.4250 H   0  0  0  0  0  0  0  0  0  0  0  0
   51.8480   29.3470   49.3250 H   0  0  0  0  0  0  0  0  0  0  0  0
   50.1740   29.2920   47.5580 H   0  0  0  0  0  0  0  0  0  0  0  0
   49.0320   28.4100   48.6690 H   0  0  0  0  0  0  0  0  0  0  0  0
   45.5160   33.0230   47.0600 C   0  0  0  0  0  0  0  0  0  0  0  0
   45.3520   34.0210   47.5270 H   0  0  0  0  0  0  0  0  0  0  0  0
   44.5210   32.5600   46.8570 H   0  0  0  0  0  0  0  0  0  0  0  0
   45.8340   33.9830   44.8100 C   0  0  0  0  0  3  0  0  0  0  0  0
   46.2580   33.2200   45.7980 C   0  0  0  0  0  3  0  0  0  0  0  0
   46.6710   34.0810   43.6200 C   0  0  0  0  0  0  0  0  0  0  0  0
   46.3960   35.0260   42.5920 C   0  0  0  0  0  0  0  0  0  0  0  0
   47.2370   35.0470   41.5000 C   0  0  0  0  0  0  0  0  0  0  0  0
   48.2760   34.1900   41.4360 N   0  0  0  0  0  0  0  0  0  0  0  0
   48.5170   33.3040   42.4220 C   0  0  0  0  0  0  0  0  0  0  0  0
   47.7420   33.2450   43.4840 N   0  0  0  0  0  0  0  0  0  0  0  0
   45.5440   35.6700   42.7300 H   0  0  0  0  0  0  0  0  0  0  0  0
   47.0030   35.7740   40.7370 H   0  0  0  0  0  0  0  0  0  0  0  0
   49.6750   32.3820   42.3030 C   0  0  0  0  0  3  0  0  0  0  0  0
   51.0550   32.9520   42.1370 C   0  0  0  0  0  2  0  0  0  0  0  0
   50.3840   32.1860   41.0280 C   0  0  0  0  0  2  0  0  0  0  0  0
  1  2  2  0  0  0  0
  2 12  1  0  0  0  0
  2  3  1  0  0  0  0
  3 13  1  0  0  0  0
  4  6  1  0  0  0  0
  4  3  1  0  0  0  0
  5  1  1  0  0  0  0
  5  4  2  0  0  0  0
  6  7  1  0  0  0  0
  7 15  1  0  0  0  0
  7  8  1  0  0  0  0
  8 17  1  0  0  0  0
  8 16  1  0  0  0  0
  9  8  1  0  0  0  0
  9 18  1  0  0  0  0
  9 19  1  0  0  0  0
 10  9  1  0  0  0  0
 11 23  1  0  0  0  0
 11  6  1  0  0  0  0
 11 10  1  0  0  0  0
 14  7  1  0  0  0  0
 20 10  1  0  0  0  0
 21 10  1  0  0  0  0
 22 11  1  0  0  0  0
 24 25  1  0  0  0  0
 24  1  1  0  0  0  0
 26 24  1  0  0  0  0
 27 28  2  0  0  0  0
 28 24  1  0  0  0  0
 29 27  1  0  0  0  0
 30 35  1  0  0  0  0
 30 29  2  0  0  0  0
 31 30  1  0  0  0  0
 32 31  2  0  0  0  0
 32 33  1  0  0  0  0
 33 34  2  0  0  0  0
 34 29  1  0  0  0  0
 36 31  1  0  0  0  0
 37 33  1  0  0  0  0
 38 37  1  0  0  0  0
 39 38  1  0  0  0  0
 39 37  1  0  0  0  0
M  END
>  <minimizedAffinity>
-5.86898518

>  <minimizedRMSD>
0.486087948

$$$$
