
 OpenBabel03242515513D

 14 15  0  0  0  0  0  0  0  0999 V2000
   36.1700   30.8920   40.8140 C   0  0  0  0  0  0  0  0  0  0  0  0
   37.2390   31.7690   40.6330 C   0  0  0  0  0  0  0  0  0  0  0  0
   38.5340   31.3610   40.9690 C   0  0  0  0  0  0  0  0  0  0  0  0
   38.6570   30.0980   41.4610 N   0  0  0  0  0  0  0  0  0  0  0  0
   37.6130   29.2620   41.6300 C   0  0  0  0  0  0  0  0  0  0  0  0
   36.3560   29.6670   41.3010 N   0  0  0  0  0  0  0  0  0  0  0  0
   35.1370   31.1130   40.5850 H   0  0  0  0  0  0  0  0  0  0  0  0
   39.3230   32.0520   40.8190 H   0  0  0  0  0  0  0  0  0  0  0  0
   36.9240   33.0660   40.1000 N   0  0  0  0  0  0  0  0  0  0  0  0
   37.3670   33.8350   40.6590 H   0  0  0  0  0  0  0  0  0  0  0  0
   36.3230   33.1890   39.2580 H   0  0  0  0  0  0  0  0  0  0  0  0
   37.8900   27.8920   42.1840 C   0  0  0  0  0  3  0  0  0  0  0  0
   36.8090   27.1350   42.8620 C   0  0  0  0  0  2  0  0  0  0  0  0
   37.8690   27.7760   43.6760 C   0  0  0  0  0  2  0  0  0  0  0  0
  1  6  1  0  0  0  0
  2  1  2  0  0  0  0
  2  3  1  0  0  0  0
  3  4  2  0  0  0  0
  4  5  1  0  0  0  0
  5 12  1  0  0  0  0
  6  5  2  0  0  0  0
  7  1  1  0  0  0  0
  8  3  1  0  0  0  0
  9  2  1  0  0  0  0
  9 10  1  0  0  0  0
 11  9  1  0  0  0  0
 12 13  1  0  0  0  0
 12 14  1  0  0  0  0
 13 14  1  0  0  0  0
M  END
>  <minimizedAffinity>
-3.87951994

$$$$

 OpenBabel03242515513D

 14 15  0  0  0  0  0  0  0  0999 V2000
   38.4560   31.3060   40.9630 C   0  0  0  0  0  0  0  0  0  0  0  0
   37.1520   31.6990   40.6620 C   0  0  0  0  0  0  0  0  0  0  0  0
   36.0950   30.8070   40.8670 C   0  0  0  0  0  0  0  0  0  0  0  0
   36.4290   29.5830   41.3610 N   0  0  0  0  0  0  0  0  0  0  0  0
   37.6950   29.2190   41.6470 C   0  0  0  0  0  0  0  0  0  0  0  0
   38.7190   30.0930   41.4450 N   0  0  0  0  0  0  0  0  0  0  0  0
   39.3370   31.9210   40.8410 H   0  0  0  0  0  0  0  0  0  0  0  0
   35.1180   31.1370   40.6280 H   0  0  0  0  0  0  0  0  0  0  0  0
   36.9840   33.0310   40.1480 N   0  0  0  0  0  0  0  0  0  0  0  0
   36.3830   33.0440   39.2890 H   0  0  0  0  0  0  0  0  0  0  0  0
   37.4240   33.8600   40.6020 H   0  0  0  0  0  0  0  0  0  0  0  0
   37.9250   27.8340   42.1890 C   0  0  0  0  0  3  0  0  0  0  0  0
   36.8360   27.1310   42.9110 C   0  0  0  0  0  2  0  0  0  0  0  0
   37.9610   27.7150   43.6800 C   0  0  0  0  0  2  0  0  0  0  0  0
  1  6  1  0  0  0  0
  2  3  1  0  0  0  0
  2  1  2  0  0  0  0
  3  4  2  0  0  0  0
  4  5  1  0  0  0  0
  5 12  1  0  0  0  0
  6  5  2  0  0  0  0
  7  1  1  0  0  0  0
  8  3  1  0  0  0  0
  9 11  1  0  0  0  0
  9  2  1  0  0  0  0
 10  9  1  0  0  0  0
 12 13  1  0  0  0  0
 12 14  1  0  0  0  0
 13 14  1  0  0  0  0
M  END
>  <minimizedAffinity>
-3.85939145

$$$$

 OpenBabel03242515513D

 14 15  0  0  0  0  0  0  0  0999 V2000
   35.8240   28.7730   40.3650 C   0  0  0  0  0  0  0  0  0  0  0  0
   36.3120   29.6820   41.3030 C   0  0  0  0  0  0  0  0  0  0  0  0
   37.2690   29.2690   42.2360 C   0  0  0  0  0  0  0  0  0  0  0  0
   37.6650   27.9690   42.1550 N   0  0  0  0  0  0  0  0  0  0  0  0
   37.1840   27.1030   41.2410 C   0  0  0  0  0  0  0  0  0  0  0  0
   36.2520   27.5120   40.3370 N   0  0  0  0  0  0  0  0  0  0  0  0
   35.0870   28.9940   39.6060 H   0  0  0  0  0  0  0  0  0  0  0  0
   37.6180   29.9850   42.9340 H   0  0  0  0  0  0  0  0  0  0  0  0
   35.7810   31.0160   41.2430 N   0  0  0  0  0  0  0  0  0  0  0  0
   35.4770   31.3580   42.1860 H   0  0  0  0  0  0  0  0  0  0  0  0
   35.7210   31.5490   40.3480 H   0  0  0  0  0  0  0  0  0  0  0  0
   37.7080   25.6930   41.2630 C   0  0  0  0  0  3  0  0  0  0  0  0
   36.9210   24.6000   40.6410 C   0  0  0  0  0  2  0  0  0  0  0  0
   36.9480   24.7280   42.1180 C   0  0  0  0  0  2  0  0  0  0  0  0
  1  2  1  0  0  0  0
  2  3  2  0  0  0  0
  3  8  1  0  0  0  0
  4  3  1  0  0  0  0
  5 12  1  0  0  0  0
  5  4  2  0  0  0  0
  6  1  2  0  0  0  0
  6  5  1  0  0  0  0
  7  1  1  0  0  0  0
  9  2  1  0  0  0  0
  9 10  1  0  0  0  0
 11  9  1  0  0  0  0
 12 14  1  0  0  0  0
 13 12  1  0  0  0  0
 13 14  1  0  0  0  0
M  END
>  <minimizedAffinity>
-3.78808522

$$$$

 OpenBabel03242515513D

 14 15  0  0  0  0  0  0  0  0999 V2000
   41.5750   26.9440   43.4190 C   0  0  0  0  0  0  0  0  0  0  0  0
   41.4690   25.5570   43.3260 C   0  0  0  0  0  0  0  0  0  0  0  0
   40.2050   24.9600   43.2730 C   0  0  0  0  0  0  0  0  0  0  0  0
   39.1400   25.8070   43.3170 N   0  0  0  0  0  0  0  0  0  0  0  0
   39.2590   27.1460   43.4070 C   0  0  0  0  0  0  0  0  0  0  0  0
   40.4930   27.7190   43.4580 N   0  0  0  0  0  0  0  0  0  0  0  0
   42.5020   27.4970   43.4650 H   0  0  0  0  0  0  0  0  0  0  0  0
   40.1610   23.9050   43.2020 H   0  0  0  0  0  0  0  0  0  0  0  0
   42.7020   24.8180   43.2900 N   0  0  0  0  0  0  0  0  0  0  0  0
   42.6970   24.0190   43.9680 H   0  0  0  0  0  0  0  0  0  0  0  0
   43.4850   25.0780   42.6540 H   0  0  0  0  0  0  0  0  0  0  0  0
   37.9980   27.9650   43.4470 C   0  0  0  0  0  3  0  0  0  0  0  0
   36.6820   27.3090   43.2480 C   0  0  0  0  0  2  0  0  0  0  0  0
   37.2720   28.1070   42.1460 C   0  0  0  0  0  2  0  0  0  0  0  0
  1  6  1  0  0  0  0
  1  7  1  0  0  0  0
  2  1  2  0  0  0  0
  3  4  2  0  0  0  0
  3  2  1  0  0  0  0
  4  5  1  0  0  0  0
  5 12  1  0  0  0  0
  5  6  2  0  0  0  0
  8  3  1  0  0  0  0
  9  2  1  0  0  0  0
  9 10  1  0  0  0  0
 11  9  1  0  0  0  0
 13 12  1  0  0  0  0
 14 13  1  0  0  0  0
 14 12  1  0  0  0  0
M  END
>  <minimizedAffinity>
-3.71432471

$$$$

 OpenBabel03242515513D

 14 15  0  0  0  0  0  0  0  0999 V2000
   39.1580   30.6040   38.7060 C   0  0  0  0  0  0  0  0  0  0  0  0
   38.7360   31.7240   37.9900 C   0  0  0  0  0  0  0  0  0  0  0  0
   37.4980   32.3060   38.2800 C   0  0  0  0  0  0  0  0  0  0  0  0
   36.7750   31.7160   39.2720 N   0  0  0  0  0  0  0  0  0  0  0  0
   37.1970   30.6340   39.9540 C   0  0  0  0  0  0  0  0  0  0  0  0
   38.4030   30.0730   39.6650 N   0  0  0  0  0  0  0  0  0  0  0  0
   40.0940   30.0850   38.5560 H   0  0  0  0  0  0  0  0  0  0  0  0
   37.2080   33.1550   37.7180 H   0  0  0  0  0  0  0  0  0  0  0  0
   39.6290   32.2140   36.9760 N   0  0  0  0  0  0  0  0  0  0  0  0
   39.1340   32.3820   36.0680 H   0  0  0  0  0  0  0  0  0  0  0  0
   40.6440   32.3710   37.1600 H   0  0  0  0  0  0  0  0  0  0  0  0
   36.2980   30.0820   41.0260 C   0  0  0  0  0  3  0  0  0  0  0  0
   36.4300   28.6650   41.4480 C   0  0  0  0  0  2  0  0  0  0  0  0
   35.2970   29.0640   40.5780 C   0  0  0  0  0  2  0  0  0  0  0  0
  1  6  1  0  0  0  0
  2  3  1  0  0  0  0
  2  1  2  0  0  0  0
  3  4  2  0  0  0  0
  4  5  1  0  0  0  0
  5 12  1  0  0  0  0
  6  5  2  0  0  0  0
  7  1  1  0  0  0  0
  8  3  1  0  0  0  0
  9 11  1  0  0  0  0
  9  2  1  0  0  0  0
 10  9  1  0  0  0  0
 12 13  1  0  0  0  0
 14 12  1  0  0  0  0
 14 13  1  0  0  0  0
M  END
>  <minimizedAffinity>
-3.44082642

$$$$

 OpenBabel03242515513D

 14 15  0  0  0  0  0  0  0  0999 V2000
   37.0530   24.8010   41.7090 C   0  0  0  0  0  0  0  0  0  0  0  0
   38.1680   23.9630   41.7180 C   0  0  0  0  0  0  0  0  0  0  0  0
   39.3430   24.3800   42.3510 C   0  0  0  0  0  0  0  0  0  0  0  0
   39.3090   25.6110   42.9300 N   0  0  0  0  0  0  0  0  0  0  0  0
   38.2230   26.4100   42.9120 C   0  0  0  0  0  0  0  0  0  0  0  0
   37.0830   25.9970   42.2940 N   0  0  0  0  0  0  0  0  0  0  0  0
   36.1030   24.5700   41.2490 H   0  0  0  0  0  0  0  0  0  0  0  0
   40.1700   23.7190   42.3390 H   0  0  0  0  0  0  0  0  0  0  0  0
   38.0240   22.6940   41.0570 N   0  0  0  0  0  0  0  0  0  0  0  0
   38.8230   22.5010   40.4070 H   0  0  0  0  0  0  0  0  0  0  0  0
   37.2080   22.0690   41.2290 H   0  0  0  0  0  0  0  0  0  0  0  0
   38.3220   27.7480   43.5910 C   0  0  0  0  0  3  0  0  0  0  0  0
   37.5480   28.9020   43.0700 C   0  0  0  0  0  2  0  0  0  0  0  0
   39.0060   28.8260   42.8100 C   0  0  0  0  0  2  0  0  0  0  0  0
  1  2  2  0  0  0  0
  1  6  1  0  0  0  0
  2  3  1  0  0  0  0
  3  4  2  0  0  0  0
  5  4  1  0  0  0  0
  5 12  1  0  0  0  0
  6  5  2  0  0  0  0
  7  1  1  0  0  0  0
  8  3  1  0  0  0  0
  9 11  1  0  0  0  0
  9  2  1  0  0  0  0
 10  9  1  0  0  0  0
 13 12  1  0  0  0  0
 14 13  1  0  0  0  0
 14 12  1  0  0  0  0
M  END
>  <minimizedAffinity>
-3.43737721

$$$$

 OpenBabel03242515513D

 14 15  0  0  0  0  0  0  0  0999 V2000
   40.1600   25.8990   43.5970 C   0  0  0  0  0  0  0  0  0  0  0  0
   39.3030   24.9880   42.9810 C   0  0  0  0  0  0  0  0  0  0  0  0
   38.0930   25.4340   42.4380 C   0  0  0  0  0  0  0  0  0  0  0  0
   37.8370   26.7660   42.5550 N   0  0  0  0  0  0  0  0  0  0  0  0
   38.6770   27.6330   43.1530 C   0  0  0  0  0  0  0  0  0  0  0  0
   39.8520   27.1920   43.6790 N   0  0  0  0  0  0  0  0  0  0  0  0
   41.1130   25.6540   44.0440 H   0  0  0  0  0  0  0  0  0  0  0  0
   37.4660   24.7160   41.9780 H   0  0  0  0  0  0  0  0  0  0  0  0
   39.7350   23.6180   42.9490 N   0  0  0  0  0  0  0  0  0  0  0  0
   38.9810   22.9630   43.2670 H   0  0  0  0  0  0  0  0  0  0  0  0
   40.6930   23.3460   42.6390 H   0  0  0  0  0  0  0  0  0  0  0  0
   38.2710   29.0800   43.2130 C   0  0  0  0  0  3  0  0  0  0  0  0
   37.4440   29.6630   42.1270 C   0  0  0  0  0  2  0  0  0  0  0  0
   38.8920   29.9750   42.1870 C   0  0  0  0  0  2  0  0  0  0  0  0
  1  6  1  0  0  0  0
  1  7  1  0  0  0  0
  2  1  2  0  0  0  0
  3  4  2  0  0  0  0
  3  2  1  0  0  0  0
  4  5  1  0  0  0  0
  5 12  1  0  0  0  0
  5  6  2  0  0  0  0
  8  3  1  0  0  0  0
  9  2  1  0  0  0  0
  9 10  1  0  0  0  0
 11  9  1  0  0  0  0
 13 14  1  0  0  0  0
 13 12  1  0  0  0  0
 14 12  1  0  0  0  0
M  END
>  <minimizedAffinity>
-3.39482212

$$$$

 OpenBabel03242515513D

 14 15  0  0  0  0  0  0  0  0999 V2000
   38.2610   29.5550   39.6950 C   0  0  0  0  0  0  0  0  0  0  0  0
   37.2680   30.4910   39.4100 C   0  0  0  0  0  0  0  0  0  0  0  0
   36.3730   30.8790   40.4120 C   0  0  0  0  0  0  0  0  0  0  0  0
   36.5450   30.2960   41.6300 N   0  0  0  0  0  0  0  0  0  0  0  0
   37.5110   29.3920   41.8890 C   0  0  0  0  0  0  0  0  0  0  0  0
   38.3780   29.0200   40.9090 N   0  0  0  0  0  0  0  0  0  0  0  0
   38.9970   29.1930   38.9920 H   0  0  0  0  0  0  0  0  0  0  0  0
   35.6310   31.5920   40.1610 H   0  0  0  0  0  0  0  0  0  0  0  0
   37.2330   31.0040   38.0670 N   0  0  0  0  0  0  0  0  0  0  0  0
   36.2670   30.9740   37.6630 H   0  0  0  0  0  0  0  0  0  0  0  0
   38.0890   31.3560   37.5860 H   0  0  0  0  0  0  0  0  0  0  0  0
   37.5900   28.8250   43.2800 C   0  0  0  0  0  3  0  0  0  0  0  0
   38.2720   27.5290   43.5140 C   0  0  0  0  0  2  0  0  0  0  0  0
   36.7900   27.5840   43.5240 C   0  0  0  0  0  2  0  0  0  0  0  0
  1  6  1  0  0  0  0
  2  1  2  0  0  0  0
  2  3  1  0  0  0  0
  3  4  2  0  0  0  0
  4  5  1  0  0  0  0
  5 12  1  0  0  0  0
  6  5  2  0  0  0  0
  7  1  1  0  0  0  0
  8  3  1  0  0  0  0
  9  2  1  0  0  0  0
 10  9  1  0  0  0  0
 11  9  1  0  0  0  0
 12 13  1  0  0  0  0
 12 14  1  0  0  0  0
 13 14  1  0  0  0  0
M  END
>  <minimizedAffinity>
-3.37645531

$$$$

 OpenBabel03242515513D

 14 15  0  0  0  0  0  0  0  0999 V2000
   38.9940   30.0690   42.6330 C   0  0  0  0  0  0  0  0  0  0  0  0
   39.7270   31.1830   42.2290 C   0  0  0  0  0  0  0  0  0  0  0  0
   39.2040   32.0420   41.2570 C   0  0  0  0  0  0  0  0  0  0  0  0
   37.9780   31.7150   40.7640 N   0  0  0  0  0  0  0  0  0  0  0  0
   37.2810   30.6330   41.1660 C   0  0  0  0  0  0  0  0  0  0  0  0
   37.7980   29.8020   42.1120 N   0  0  0  0  0  0  0  0  0  0  0  0
   39.3110   29.3490   43.3740 H   0  0  0  0  0  0  0  0  0  0  0  0
   39.7870   32.8790   40.9730 H   0  0  0  0  0  0  0  0  0  0  0  0
   41.0060   31.3750   42.8570 N   0  0  0  0  0  0  0  0  0  0  0  0
   41.7610   31.5620   42.1550 H   0  0  0  0  0  0  0  0  0  0  0  0
   41.1280   31.3250   43.8910 H   0  0  0  0  0  0  0  0  0  0  0  0
   35.9360   30.3880   40.5390 C   0  0  0  0  0  3  0  0  0  0  0  0
   35.3340   29.0330   40.5820 C   0  0  0  0  0  2  0  0  0  0  0  0
   35.9340   29.5230   39.3180 C   0  0  0  0  0  2  0  0  0  0  0  0
  1  7  1  0  0  0  0
  2  1  1  0  0  0  0
  2  9  1  0  0  0  0
  3  2  2  0  0  0  0
  4  5  2  0  0  0  0
  4  3  1  0  0  0  0
  5  6  1  0  0  0  0
  6  1  2  0  0  0  0
  8  3  1  0  0  0  0
  9 11  1  0  0  0  0
 10  9  1  0  0  0  0
 12 13  1  0  0  0  0
 12  5  1  0  0  0  0
 14 12  1  0  0  0  0
 14 13  1  0  0  0  0
M  END
>  <minimizedAffinity>
-3.34792924

$$$$
