
     RDKit          3D

 40 44  0  0  0  0  0  0  0  0999 V2000
   46.3809   32.6688   45.8656 C   0  0  1  0  0  0  0  0  0  0  0  0
   46.9712   32.8344   47.2023 C   0  0  0  0  0  0  0  0  0  0  0  0
   45.5415   32.2055   46.9510 C   0  0  2  0  0  0  0  0  0  0  0  0
   45.3004   30.8043   47.3024 C   0  0  0  0  0  0  0  0  0  0  0  0
   45.1739   30.2687   48.5444 C   0  0  0  0  0  0  0  0  0  0  0  0
   45.0736   28.9143   48.8395 C   0  0  0  0  0  0  0  0  0  0  0  0
   45.1080   28.0336   47.7491 C   0  0  0  0  0  0  0  0  0  0  0  0
   45.2337   28.5565   46.4606 C   0  0  0  0  0  0  0  0  0  0  0  0
   45.1972   27.6499   45.4165 C   0  0  0  0  0  0  0  0  0  0  0  0
   45.2458   28.1336   44.1108 C   0  0  0  0  0  0  0  0  0  0  0  0
   45.3262   29.4888   43.8607 C   0  0  0  0  0  0  0  0  0  0  0  0
   45.3609   30.3398   44.9396 C   0  0  0  0  0  0  0  0  0  0  0  0
   45.3238   29.9123   46.2596 C   0  0  0  0  0  0  0  0  0  0  0  0
   44.6028   35.7336   44.8315 C   0  0  0  0  0  0  0  0  0  0  0  0
   45.1443   35.9748   43.5207 C   0  0  0  0  0  0  0  0  0  0  0  0
   46.1326   35.0570   43.0403 C   0  0  0  0  0  0  0  0  0  0  0  0
   46.5126   34.0251   43.8113 N   0  0  0  0  0  0  0  0  0  0  0  0
   45.9532   33.8498   45.0605 C   0  0  0  0  0  0  0  0  0  0  0  0
   45.0325   34.6761   45.5495 N   0  0  0  0  0  0  0  0  0  0  0  0
   47.1387   32.0289   45.2858 H   0  0  0  0  0  0  0  0  0  0  0  0
   47.0027   33.8117   47.6741 H   0  0  0  0  0  0  0  0  0  0  0  0
   47.6282   32.0952   47.6904 H   0  0  0  0  0  0  0  0  0  0  0  0
   44.8609   32.8832   47.5608 H   0  0  0  0  0  0  0  0  0  0  0  0
   45.1519   30.9862   49.3621 H   0  0  0  0  0  0  0  0  0  0  0  0
   44.9747   28.5623   49.8543 H   0  0  0  0  0  0  0  0  0  0  0  0
   45.0338   26.9929   47.9807 H   0  0  0  0  0  0  0  0  0  0  0  0
   45.1320   26.5928   45.6430 H   0  0  0  0  0  0  0  0  0  0  0  0
   45.2134   27.3303   43.3684 H   0  0  0  0  0  0  0  0  0  0  0  0
   45.3495   29.6575   42.8134 H   0  0  0  0  0  0  0  0  0  0  0  0
   45.3352   31.2988   44.5059 H   0  0  0  0  0  0  0  0  0  0  0  0
   43.8647   36.4531   45.1424 H   0  0  0  0  0  0  0  0  0  0  0  0
   44.8093   36.8191   42.9331 H   0  0  0  0  0  0  0  0  0  0  0  0
   46.6777   35.3178   41.6957 C   0  0  0  0  0  0  0  0  0  0  0  0
   47.8612   34.5172   41.2836 C   0  0  0  0  0  0  0  0  0  0  0  0
   46.5002   34.3490   40.6027 C   0  0  0  0  0  0  0  0  0  0  0  0
   46.6853   36.3990   41.4364 H   0  0  0  0  0  0  0  0  0  0  0  0
   48.6692   35.0318   40.7226 H   0  0  0  0  0  0  0  0  0  0  0  0
   48.2010   33.6370   41.8399 H   0  0  0  0  0  0  0  0  0  0  0  0
   46.4812   34.6518   39.5490 H   0  0  0  0  0  0  0  0  0  0  0  0
   45.9238   33.4245   40.8217 H   0  0  0  0  0  0  0  0  0  0  0  0
  1  3  1  0
  1  2  1  0
  3  2  1  0
  3  4  1  0
  4  5  2  0
  5  6  1  0
  7  6  2  0
  8  7  1  0
  9  8  2  0
 10  9  1  0
 11 10  2  0
 11 12  1  0
 12 13  2  0
 13  8  1  0
 13  4  1  0
 14 19  2  0
 15 14  1  0
 16 15  2  0
 16 17  1  0
 17 18  2  0
 18 19  1  0
 18  1  1  0
  1 20  1  6
  2 21  1  0
  2 22  1  0
  3 23  1  1
  5 24  1  0
  6 25  1  0
  7 26  1  0
  9 27  1  0
 10 28  1  0
 11 29  1  0
 12 30  1  0
 14 31  1  0
 15 32  1  0
 33 34  1  0
 34 35  1  0
 35 33  1  0
 33 36  1  0
 34 37  1  0
 34 38  1  0
 35 39  1  0
 35 40  1  0
 16 33  1  0
M  ISO  8  20  13  21  13  22  13  23  13  24  14  25  14  26  14  27  14
M  ISO  5  28  14  29  14  30  14  31  14  32  14
M  END
>  <DihAtoms>  (1) 
14,15,32,33

>  <DihDeg>  (1) 
-40.17389199567666

$$$$
