REMARK  Name = 
REMARK  4 active torsions:
REMARK  status: ('A' for Active; 'I' for Inactive)
REMARK    1  A    between atoms: C_1  and  C_4
REMARK    2  A    between atoms: C_3  and  C_14
REMARK    3  A    between atoms: C_8  and  C_10
REMARK    4  A    between atoms: C_18  and  C_28
REMARK                            x       y       z     vdW  Elec       q    Type
REMARK                         _______ _______ _______ _____ _____    ______ ____
ROOT
ATOM      1  C   UNL     1      44.388  34.715  43.222  0.00  0.00    +0.000 C 
ATOM      2  C   UNL     1      44.897  36.128  42.804  0.00  0.00    +0.000 C 
ATOM      3  C   UNL     1      44.461  35.073  41.821  0.00  0.00    +0.000 C 
ATOM      4  H   UNL     1      43.415  34.738  43.776  0.00  0.00    +0.000 HD
ATOM      5  H   UNL     1      44.237  36.952  43.066  0.00  0.00    +0.000 HD
ATOM      6  H   UNL     1      45.980  36.320  42.920  0.00  0.00    +0.000 HD
ATOM      7  H   UNL     1      45.243  34.764  41.129  0.00  0.00    +0.000 HD
ENDROOT
BRANCH   1   8
ATOM      8  C   UNL     1      45.433  33.896  43.884  0.00  0.00    +0.000 A 
ATOM      9  C   UNL     1      46.542  33.440  43.110  0.00  0.00    +0.000 A 
ATOM     10  C   UNL     1      47.525  32.680  43.732  0.00  0.00    +0.000 A 
ATOM     11  N   UNL     1      47.375  32.411  45.058  0.00  0.00    +0.000 NA
ATOM     12  C   UNL     1      46.308  32.861  45.762  0.00  0.00    +0.000 A 
ATOM     13  N   UNL     1      45.354  33.599  45.155  0.00  0.00    +0.000 NA
ATOM     14  H   UNL     1      46.655  33.652  42.078  0.00  0.00    +0.000 HD
ATOM     15  H   UNL     1      48.378  32.320  43.171  0.00  0.00    +0.000 HD
BRANCH  12  16
ATOM     16  C   UNL     1      46.333  32.462  47.205  0.00  0.00    +0.000 C 
ATOM     17  F   UNL     1      45.315  33.053  47.915  0.00  0.00    +0.000 F 
ATOM     18  F   UNL     1      47.541  32.899  47.782  0.00  0.00    +0.000 F 
ATOM     19  F   UNL     1      46.352  31.087  47.299  0.00  0.00    +0.000 F 
ENDBRANCH  12  16
ENDBRANCH   1   8
BRANCH   3  20
ATOM     20  C   UNL     1      43.127  35.240  41.150  0.00  0.00    +0.000 A 
ATOM     21  C   UNL     1      42.977  35.075  39.784  0.00  0.00    +0.000 A 
ATOM     22  C   UNL     1      41.779  35.216  39.143  0.00  0.00    +0.000 A 
ATOM     23  N   UNL     1      40.696  35.533  39.892  0.00  0.00    +0.000 NA
ATOM     24  C   UNL     1      40.828  35.699  41.232  0.00  0.00    +0.000 A 
ATOM     25  N   UNL     1      42.016  35.558  41.865  0.00  0.00    +0.000 NA
ATOM     26  H   UNL     1      43.866  34.822  39.221  0.00  0.00    +0.000 HD
ATOM     27  H   UNL     1      41.767  35.067  38.077  0.00  0.00    +0.000 HD
BRANCH  24  28
ATOM     28  C   UNL     1      39.649  36.045  42.057  0.00  0.00    +0.000 C 
ATOM     29  C   UNL     1      38.395  35.261  41.640  0.00  0.00    +0.000 C 
ATOM     30  C   UNL     1      39.033  35.083  42.976  0.00  0.00    +0.000 C 
ENDBRANCH  24  28
ENDBRANCH   3  20
TORSDOF 4
