
 OpenBabel03252504423D

 39 42  0  0  0  0  0  0  0  0999 V2000
   46.4130   32.2050   47.7580 C   0  0  0  0  0  0  0  0  0  0  0  0
   45.9440   31.8390   48.9850 C   0  0  0  0  0  0  0  0  0  0  0  0
   46.9210   31.1470   49.5740 N   0  0  0  0  0  0  0  0  0  0  0  0
   47.9900   31.0570   48.7760 C   0  0  0  0  0  0  0  0  0  0  0  0
   47.6610   31.7260   47.6350 N   0  0  0  0  0  0  0  0  0  0  0  0
   49.2580   30.4330   48.9540 N   0  0  0  0  0  0  0  0  0  0  0  0
   50.3220   31.2470   49.5860 C   0  0  0  0  0  0  0  0  0  0  0  0
   50.4180   30.7080   51.0130 C   0  0  0  0  0  0  0  0  0  0  0  0
   50.4980   29.2050   50.9980 C   0  0  0  0  0  0  0  0  0  0  0  0
   50.8450   28.7210   49.5990 C   0  0  0  0  0  0  0  0  0  0  0  0
   49.7490   29.1310   48.6390 C   0  0  0  0  0  0  0  0  0  0  0  0
   44.9630   32.0680   49.3990 H   0  0  0  0  0  0  0  0  0  0  0  0
   46.8960   30.7150   50.5280 H   0  0  0  0  0  0  0  0  0  0  0  0
   51.2650   31.1480   49.0380 H   0  0  0  0  0  0  0  0  0  0  0  0
   50.0090   32.3060   49.6750 H   0  0  0  0  0  0  0  0  0  0  0  0
   49.5250   31.0020   51.5680 H   0  0  0  0  0  0  0  0  0  0  0  0
   51.3480   31.1200   51.4780 H   0  0  0  0  0  0  0  0  0  0  0  0
   49.5240   28.7350   51.2430 H   0  0  0  0  0  0  0  0  0  0  0  0
   51.2690   28.8010   51.7020 H   0  0  0  0  0  0  0  0  0  0  0  0
   50.9510   27.6220   49.6090 H   0  0  0  0  0  0  0  0  0  0  0  0
   51.8050   29.1980   49.3280 H   0  0  0  0  0  0  0  0  0  0  0  0
   50.1070   29.0610   47.5890 H   0  0  0  0  0  0  0  0  0  0  0  0
   48.9290   28.3740   48.7960 H   0  0  0  0  0  0  0  0  0  0  0  0
   45.6800   33.0010   46.7300 C   0  0  0  0  0  0  0  0  0  0  0  0
   45.4800   34.0190   47.1370 H   0  0  0  0  0  0  0  0  0  0  0  0
   44.7030   32.5140   46.4990 H   0  0  0  0  0  0  0  0  0  0  0  0
   46.1160   33.8750   44.4650 C   0  0  0  0  0  3  0  0  0  0  0  0
   46.4850   33.1460   45.5000 C   0  0  0  0  0  3  0  0  0  0  0  0
   47.0120   33.9230   43.3140 C   0  0  0  0  0  0  0  0  0  0  0  0
   47.0270   35.0370   42.4290 C   0  0  0  0  0  0  0  0  0  0  0  0
   47.9020   34.9970   41.3650 C   0  0  0  0  0  0  0  0  0  0  0  0
   48.7040   33.9260   41.1940 N   0  0  0  0  0  0  0  0  0  0  0  0
   48.6720   32.8830   42.0470 C   0  0  0  0  0  0  0  0  0  0  0  0
   47.8530   32.8750   43.0770 N   0  0  0  0  0  0  0  0  0  0  0  0
   46.3510   35.8470   42.6440 H   0  0  0  0  0  0  0  0  0  0  0  0
   47.8900   35.8560   40.7100 H   0  0  0  0  0  0  0  0  0  0  0  0
   49.5760   31.7280   41.8150 C   0  0  0  0  0  3  0  0  0  0  0  0
   49.8000   30.7360   42.9210 C   0  0  0  0  0  2  0  0  0  0  0  0
   50.9030   31.6430   42.4440 C   0  0  0  0  0  2  0  0  0  0  0  0
  1  2  2  0  0  0  0
  2 12  1  0  0  0  0
  2  3  1  0  0  0  0
  3 13  1  0  0  0  0
  4  6  1  0  0  0  0
  4  3  1  0  0  0  0
  5  1  1  0  0  0  0
  5  4  2  0  0  0  0
  6  7  1  0  0  0  0
  7 15  1  0  0  0  0
  7  8  1  0  0  0  0
  8 17  1  0  0  0  0
  8 16  1  0  0  0  0
  9  8  1  0  0  0  0
  9 18  1  0  0  0  0
  9 19  1  0  0  0  0
 10 20  1  0  0  0  0
 10  9  1  0  0  0  0
 11 23  1  0  0  0  0
 11  6  1  0  0  0  0
 11 10  1  0  0  0  0
 14  7  1  0  0  0  0
 21 10  1  0  0  0  0
 22 11  1  0  0  0  0
 24 25  1  0  0  0  0
 24  1  1  0  0  0  0
 26 24  1  0  0  0  0
 27 28  2  0  0  0  0
 28 24  1  0  0  0  0
 29 27  1  0  0  0  0
 30 35  1  0  0  0  0
 30 29  2  0  0  0  0
 31 30  1  0  0  0  0
 32 31  2  0  0  0  0
 32 33  1  0  0  0  0
 33 34  2  0  0  0  0
 34 29  1  0  0  0  0
 36 31  1  0  0  0  0
 37 33  1  0  0  0  0
 37 39  1  0  0  0  0
 37 38  1  0  0  0  0
 39 38  1  0  0  0  0
M  END
>  <minimizedAffinity>
-5.57145214

>  <minimizedRMSD>
0.526153743

$$$$
