
 OpenBabel03252508263D

 35 39  0  0  1  0  0  0  0  0999 V2000
   46.4440   32.4940   45.9460 C   0  0  1  0  0  0  0  0  0  0  0  0
   46.9960   32.6690   47.2960 C   0  0  0  0  0  0  0  0  0  0  0  0
   45.5630   32.0620   47.0110 C   0  0  2  0  0  0  0  0  0  0  0  0
   47.2080   31.8330   45.3980 H   0  0  0  0  0  0  0  0  0  0  0  0
   47.0310   33.6530   47.7550 H   0  0  0  0  0  0  0  0  0  0  0  0
   47.6250   31.9260   47.8150 H   0  0  0  0  0  0  0  0  0  0  0  0
   44.8770   32.7600   47.5900 H   0  0  0  0  0  0  0  0  0  0  0  0
   45.2870   30.6700   47.3750 C   0  0  0  0  0  0  0  0  0  0  0  0
   45.1590   30.1480   48.6220 C   0  0  0  0  0  0  0  0  0  0  0  0
   45.0240   28.7980   48.9290 C   0  0  0  0  0  0  0  0  0  0  0  0
   45.0220   27.9100   47.8440 C   0  0  0  0  0  0  0  0  0  0  0  0
   45.1490   28.4190   46.5510 C   0  0  0  0  0  0  0  0  0  0  0  0
   45.0760   27.5070   45.5130 C   0  0  0  0  0  0  0  0  0  0  0  0
   45.1250   27.9800   44.2040 C   0  0  0  0  0  0  0  0  0  0  0  0
   45.2410   29.3310   43.9430 C   0  0  0  0  0  0  0  0  0  0  0  0
   45.3100   30.1880   45.0160 C   0  0  0  0  0  0  0  0  0  0  0  0
   45.2750   29.7700   46.3390 C   0  0  0  0  0  0  0  0  0  0  0  0
   45.1650   30.8710   49.4350 H   0  0  0  0  0  0  0  0  0  0  0  0
   44.9260   28.4560   49.9460 H   0  0  0  0  0  0  0  0  0  0  0  0
   44.9220   26.8730   48.0840 H   0  0  0  0  0  0  0  0  0  0  0  0
   44.9840   26.4540   45.7480 H   0  0  0  0  0  0  0  0  0  0  0  0
   45.0620   27.1720   43.4670 H   0  0  0  0  0  0  0  0  0  0  0  0
   45.2570   29.4910   42.8940 H   0  0  0  0  0  0  0  0  0  0  0  0
   45.3070   31.1440   44.5750 H   0  0  0  0  0  0  0  0  0  0  0  0
   44.6900   35.5210   44.7680 C   0  0  0  0  0  0  0  0  0  0  0  0
   45.3430   35.7860   43.5140 C   0  0  0  0  0  0  0  0  0  0  0  0
   46.3960   34.8970   43.1220 C   0  0  0  0  0  0  0  0  0  0  0  0
   46.7290   33.8690   43.9190 N   0  0  0  0  0  0  0  0  0  0  0  0
   46.0610   33.6700   45.1100 C   0  0  0  0  0  0  0  0  0  0  0  0
   45.0780   34.4690   45.5170 N   0  0  0  0  0  0  0  0  0  0  0  0
   43.9080   36.2190   45.0130 H   0  0  0  0  0  0  0  0  0  0  0  0
   45.0420   36.6260   42.9030 H   0  0  0  0  0  0  0  0  0  0  0  0
   47.0550   35.1820   41.8350 C   0  0  0  0  0  3  0  0  0  0  0  0
   48.2920   34.4160   41.5300 C   0  0  0  0  0  2  0  0  0  0  0  0
   47.0050   34.2170   40.7260 C   0  0  0  0  0  2  0  0  0  0  0  0
  1  4  1  6  0  0  0
  1  3  1  0  0  0  0
  1  2  1  0  0  0  0
  2  5  1  0  0  0  0
  2  6  1  0  0  0  0
  3  2  1  0  0  0  0
  3  8  1  0  0  0  0
  3  7  1  1  0  0  0
  8  9  1  0  0  0  0
  9 10  2  0  0  0  0
  9 18  1  0  0  0  0
 10 19  1  0  0  0  0
 11 20  1  0  0  0  0
 11 10  1  0  0  0  0
 12 11  2  0  0  0  0
 13 21  1  0  0  0  0
 13 12  1  0  0  0  0
 14 13  2  0  0  0  0
 15 14  1  0  0  0  0
 15 16  2  0  0  0  0
 16 17  1  0  0  0  0
 17 12  1  0  0  0  0
 17  8  2  0  0  0  0
 22 14  1  0  0  0  0
 23 15  1  0  0  0  0
 24 16  1  0  0  0  0
 25 31  1  0  0  0  0
 25 30  1  0  0  0  0
 26 25  2  0  0  0  0
 27 26  1  0  0  0  0
 27 28  2  0  0  0  0
 28 29  1  0  0  0  0
 29 30  2  0  0  0  0
 29  1  1  0  0  0  0
 32 26  1  0  0  0  0
 33 27  1  0  0  0  0
 34 33  1  0  0  0  0
 35 34  1  0  0  0  0
 35 33  1  0  0  0  0
M  END
>  <minimizedAffinity>
-5.24657297

>  <minimizedRMSD>
0.326966614

$$$$
