
 OpenBabel03242516123D

 33 36  0  0  0  0  0  0  0  0999 V2000
   37.5100   27.6950   42.2780 C   0  0  0  0  0  0  0  0  0  0  0  0
   38.2400   27.6030   43.6060 C   0  0  0  0  0  0  0  0  0  0  0  0
   36.7690   27.6800   43.5440 C   0  0  0  0  0  0  0  0  0  0  0  0
   38.7890   28.5250   43.9000 H   0  0  0  0  0  0  0  0  0  0  0  0
   38.7780   26.6940   43.8970 H   0  0  0  0  0  0  0  0  0  0  0  0
   36.2090   26.8200   43.9220 H   0  0  0  0  0  0  0  0  0  0  0  0
   36.2790   28.6580   43.8090 H   0  0  0  0  0  0  0  0  0  0  0  0
   37.5340   26.4320   41.4600 C   0  0  0  0  0  0  0  0  0  0  0  0
   36.7120   26.5040   40.1900 C   0  0  0  0  0  0  0  0  0  0  0  0
   36.9910   25.1640   39.4690 C   0  0  0  0  0  0  0  0  0  0  0  0
   36.2570   24.1990   40.1570 O   0  0  0  0  0  0  0  0  0  0  0  0
   36.9590   24.0210   41.3690 C   0  0  0  0  0  0  0  0  0  0  0  0
   36.8700   25.2730   42.2170 C   0  0  0  0  0  0  0  0  0  0  0  0
   38.5550   26.1590   41.2090 H   0  0  0  0  0  0  0  0  0  0  0  0
   37.1270   27.2480   39.4750 H   0  0  0  0  0  0  0  0  0  0  0  0
   35.6470   26.6030   40.3820 H   0  0  0  0  0  0  0  0  0  0  0  0
   36.6550   25.3120   38.4200 H   0  0  0  0  0  0  0  0  0  0  0  0
   38.0680   24.9240   39.5230 H   0  0  0  0  0  0  0  0  0  0  0  0
   36.4510   23.1980   41.9030 H   0  0  0  0  0  0  0  0  0  0  0  0
   38.0030   23.7090   41.2110 H   0  0  0  0  0  0  0  0  0  0  0  0
   35.8330   25.4930   42.4620 H   0  0  0  0  0  0  0  0  0  0  0  0
   37.5290   25.0900   43.1030 H   0  0  0  0  0  0  0  0  0  0  0  0
   38.8380   29.2900   40.8730 C   0  0  0  0  0  0  0  0  0  0  0  0
   37.6390   28.9830   41.5300 C   0  0  0  0  0  0  0  0  0  0  0  0
   36.5780   29.9220   41.4590 C   0  0  0  0  0  0  0  0  0  0  0  0
   36.7730   31.0770   40.7560 N   0  0  0  0  0  0  0  0  0  0  0  0
   37.9270   31.3230   40.1510 C   0  0  0  0  0  0  0  0  0  0  0  0
   38.9550   30.4470   40.2000 N   0  0  0  0  0  0  0  0  0  0  0  0
   39.6830   28.6270   40.8820 H   0  0  0  0  0  0  0  0  0  0  0  0
   35.6560   29.6950   41.9600 H   0  0  0  0  0  0  0  0  0  0  0  0
   38.1280   32.5820   39.3890 C   0  0  0  0  0  3  0  0  0  0  0  0
   38.5000   33.8320   40.1740 C   0  0  0  0  0  2  0  0  0  0  0  0
   37.1680   33.7140   39.5250 C   0  0  0  0  0  2  0  0  0  0  0  0
  1  3  1  0  0  0  0
  1  2  1  0  0  0  0
  2  5  1  0  0  0  0
  2  4  1  0  0  0  0
  3  2  1  0  0  0  0
  3  7  1  0  0  0  0
  3  6  1  0  0  0  0
  8 13  1  0  0  0  0
  8  1  1  0  0  0  0
  9 16  1  0  0  0  0
  9  8  1  0  0  0  0
 10 18  1  0  0  0  0
 10 11  1  0  0  0  0
 10  9  1  0  0  0  0
 11 12  1  0  0  0  0
 12 19  1  0  0  0  0
 12 13  1  0  0  0  0
 13 21  1  0  0  0  0
 13 22  1  0  0  0  0
 14  8  1  0  0  0  0
 15  9  1  0  0  0  0
 17 10  1  0  0  0  0
 20 12  1  0  0  0  0
 23 29  1  0  0  0  0
 23 24  1  0  0  0  0
 24  1  1  0  0  0  0
 25 24  2  0  0  0  0
 25 30  1  0  0  0  0
 26 25  1  0  0  0  0
 27 28  1  0  0  0  0
 27 26  2  0  0  0  0
 28 23  2  0  0  0  0
 31 33  1  0  0  0  0
 31 27  1  0  0  0  0
 31 32  1  0  0  0  0
 33 32  1  0  0  0  0
M  END
>  <minimizedAffinity>
-5.17356014

$$$$

 OpenBabel03242516123D

 33 36  0  0  0  0  0  0  0  0999 V2000
   38.7740   32.7380   40.0400 C   0  0  0  0  0  0  0  0  0  0  0  0
   37.6450   33.7200   39.7820 C   0  0  0  0  0  0  0  0  0  0  0  0
   38.8150   34.0950   40.5970 C   0  0  0  0  0  0  0  0  0  0  0  0
   36.6980   33.4930   40.3190 H   0  0  0  0  0  0  0  0  0  0  0  0
   37.4620   34.1240   38.7800 H   0  0  0  0  0  0  0  0  0  0  0  0
   39.4490   34.9000   40.2170 H   0  0  0  0  0  0  0  0  0  0  0  0
   38.6860   34.1450   41.7140 H   0  0  0  0  0  0  0  0  0  0  0  0
   39.6350   32.4420   38.8420 C   0  0  0  0  0  0  0  0  0  0  0  0
   40.2090   31.0400   38.8270 C   0  0  0  0  0  0  0  0  0  0  0  0
   40.9340   30.9320   37.4650 C   0  0  0  0  0  0  0  0  0  0  0  0
   42.1170   31.6580   37.6010 O   0  0  0  0  0  0  0  0  0  0  0  0
   41.7030   33.0070   37.5960 C   0  0  0  0  0  0  0  0  0  0  0  0
   40.8970   33.3160   38.8410 C   0  0  0  0  0  0  0  0  0  0  0  0
   39.0810   32.6100   37.9230 H   0  0  0  0  0  0  0  0  0  0  0  0
   39.4110   30.2720   38.7320 H   0  0  0  0  0  0  0  0  0  0  0  0
   40.9160   30.8660   39.6350 H   0  0  0  0  0  0  0  0  0  0  0  0
   41.0990   29.8450   37.2980 H   0  0  0  0  0  0  0  0  0  0  0  0
   40.3110   31.3770   36.6690 H   0  0  0  0  0  0  0  0  0  0  0  0
   42.6270   33.6140   37.6160 H   0  0  0  0  0  0  0  0  0  0  0  0
   41.1570   33.2790   36.6790 H   0  0  0  0  0  0  0  0  0  0  0  0
   41.4990   33.1560   39.7330 H   0  0  0  0  0  0  0  0  0  0  0  0
   40.5240   34.3630   38.7130 H   0  0  0  0  0  0  0  0  0  0  0  0
   39.3840   31.2380   41.9530 C   0  0  0  0  0  0  0  0  0  0  0  0
   38.4700   31.5920   40.9510 C   0  0  0  0  0  0  0  0  0  0  0  0
   37.2760   30.8360   40.8370 C   0  0  0  0  0  0  0  0  0  0  0  0
   37.0710   29.8020   41.7060 N   0  0  0  0  0  0  0  0  0  0  0  0
   37.9650   29.5050   42.6390 C   0  0  0  0  0  0  0  0  0  0  0  0
   39.1120   30.2080   42.7720 N   0  0  0  0  0  0  0  0  0  0  0  0
   40.3080   31.7650   42.0990 H   0  0  0  0  0  0  0  0  0  0  0  0
   36.5700   31.1000   40.0710 H   0  0  0  0  0  0  0  0  0  0  0  0
   37.7330   28.3790   43.5790 C   0  0  0  0  0  3  0  0  0  0  0  0
   37.9980   26.9680   43.0730 C   0  0  0  0  0  2  0  0  0  0  0  0
   36.6120   27.4230   43.3560 C   0  0  0  0  0  2  0  0  0  0  0  0
  1  3  1  0  0  0  0
  1 24  1  0  0  0  0
  2  1  1  0  0  0  0
  2  4  1  0  0  0  0
  2  3  1  0  0  0  0
  3  7  1  0  0  0  0
  5  2  1  0  0  0  0
  6  3  1  0  0  0  0
  8  1  1  0  0  0  0
  9  8  1  0  0  0  0
  9 16  1  0  0  0  0
 10 11  1  0  0  0  0
 10  9  1  0  0  0  0
 12 11  1  0  0  0  0
 12 19  1  0  0  0  0
 12 13  1  0  0  0  0
 13  8  1  0  0  0  0
 13 21  1  0  0  0  0
 14  8  1  0  0  0  0
 15  9  1  0  0  0  0
 17 10  1  0  0  0  0
 18 10  1  0  0  0  0
 20 12  1  0  0  0  0
 22 13  1  0  0  0  0
 23 29  1  0  0  0  0
 23 28  1  0  0  0  0
 24 23  2  0  0  0  0
 25 24  1  0  0  0  0
 25 26  2  0  0  0  0
 26 27  1  0  0  0  0
 27 28  2  0  0  0  0
 27 31  1  0  0  0  0
 30 25  1  0  0  0  0
 32 33  1  0  0  0  0
 32 31  1  0  0  0  0
 33 31  1  0  0  0  0
M  END
>  <minimizedAffinity>
-5.07653904

$$$$

 OpenBabel03242516123D

 33 36  0  0  0  0  0  0  0  0999 V2000
   36.2250   29.2820   39.8360 C   0  0  0  0  0  0  0  0  0  0  0  0
   35.3410   28.4640   38.9130 C   0  0  0  0  0  0  0  0  0  0  0  0
   34.7660   29.2850   39.9940 C   0  0  0  0  0  0  0  0  0  0  0  0
   35.3880   27.3650   39.0740 H   0  0  0  0  0  0  0  0  0  0  0  0
   35.2380   28.7190   37.8520 H   0  0  0  0  0  0  0  0  0  0  0  0
   34.1140   30.1120   39.6990 H   0  0  0  0  0  0  0  0  0  0  0  0
   34.3950   28.7590   40.9170 H   0  0  0  0  0  0  0  0  0  0  0  0
   36.8660   30.4810   39.1920 C   0  0  0  0  0  0  0  0  0  0  0  0
   38.3650   30.3560   39.0120 C   0  0  0  0  0  0  0  0  0  0  0  0
   38.7700   31.6270   38.2280 C   0  0  0  0  0  0  0  0  0  0  0  0
   38.7400   32.6730   39.1500 O   0  0  0  0  0  0  0  0  0  0  0  0
   37.3660   32.9030   39.3750 C   0  0  0  0  0  0  0  0  0  0  0  0
   36.7430   31.7210   40.0890 C   0  0  0  0  0  0  0  0  0  0  0  0
   36.4090   30.6880   38.2280 H   0  0  0  0  0  0  0  0  0  0  0  0
   38.6270   29.5450   38.2990 H   0  0  0  0  0  0  0  0  0  0  0  0
   38.9010   30.3210   39.9580 H   0  0  0  0  0  0  0  0  0  0  0  0
   39.7860   31.4210   37.8260 H   0  0  0  0  0  0  0  0  0  0  0  0
   38.0430   31.8190   37.4210 H   0  0  0  0  0  0  0  0  0  0  0  0
   37.3050   33.7860   40.0380 H   0  0  0  0  0  0  0  0  0  0  0  0
   36.8230   33.1540   38.4510 H   0  0  0  0  0  0  0  0  0  0  0  0
   37.2170   31.5680   41.0560 H   0  0  0  0  0  0  0  0  0  0  0  0
   35.6460   31.9360   40.1370 H   0  0  0  0  0  0  0  0  0  0  0  0
   37.1190   28.9410   42.1520 C   0  0  0  0  0  0  0  0  0  0  0  0
   37.0570   28.5190   40.8170 C   0  0  0  0  0  0  0  0  0  0  0  0
   37.7980   27.3700   40.4430 C   0  0  0  0  0  0  0  0  0  0  0  0
   38.5340   26.7280   41.3960 N   0  0  0  0  0  0  0  0  0  0  0  0
   38.5620   27.1640   42.6490 C   0  0  0  0  0  0  0  0  0  0  0  0
   37.8660   28.2570   43.0350 N   0  0  0  0  0  0  0  0  0  0  0  0
   36.5850   29.8010   42.5080 H   0  0  0  0  0  0  0  0  0  0  0  0
   37.7560   27.0410   39.4220 H   0  0  0  0  0  0  0  0  0  0  0  0
   39.3670   26.4580   43.6790 C   0  0  0  0  0  3  0  0  0  0  0  0
   40.8750   26.6610   43.6600 C   0  0  0  0  0  2  0  0  0  0  0  0
   40.2840   25.3480   43.2960 C   0  0  0  0  0  2  0  0  0  0  0  0
  1  3  1  0  0  0  0
  1 24  1  0  0  0  0
  2  4  1  0  0  0  0
  2  1  1  0  0  0  0
  2  3  1  0  0  0  0
  3  7  1  0  0  0  0
  5  2  1  0  0  0  0
  6  3  1  0  0  0  0
  8  1  1  0  0  0  0
  8 13  1  0  0  0  0
  9  8  1  0  0  0  0
  9 16  1  0  0  0  0
 10  9  1  0  0  0  0
 10 11  1  0  0  0  0
 11 12  1  0  0  0  0
 12 19  1  0  0  0  0
 12 13  1  0  0  0  0
 13 22  1  0  0  0  0
 13 21  1  0  0  0  0
 14  8  1  0  0  0  0
 15  9  1  0  0  0  0
 17 10  1  0  0  0  0
 18 10  1  0  0  0  0
 20 12  1  0  0  0  0
 23 29  1  0  0  0  0
 23 28  1  0  0  0  0
 24 23  2  0  0  0  0
 25 24  1  0  0  0  0
 25 26  2  0  0  0  0
 26 27  1  0  0  0  0
 27 28  2  0  0  0  0
 27 31  1  0  0  0  0
 30 25  1  0  0  0  0
 32 31  1  0  0  0  0
 33 32  1  0  0  0  0
 33 31  1  0  0  0  0
M  END
>  <minimizedAffinity>
-4.85433817

$$$$

 OpenBabel03242516123D

 33 36  0  0  0  0  0  0  0  0999 V2000
   36.1470   28.9760   40.2170 C   0  0  0  0  0  0  0  0  0  0  0  0
   34.6900   29.2860   39.9260 C   0  0  0  0  0  0  0  0  0  0  0  0
   35.4610   28.3620   39.0740 C   0  0  0  0  0  0  0  0  0  0  0  0
   34.5000   30.3080   39.5330 H   0  0  0  0  0  0  0  0  0  0  0  0
   33.8930   28.9500   40.5990 H   0  0  0  0  0  0  0  0  0  0  0  0
   35.1290   27.3210   39.0390 H   0  0  0  0  0  0  0  0  0  0  0  0
   35.8060   28.7350   38.0690 H   0  0  0  0  0  0  0  0  0  0  0  0
   36.3760   28.1280   41.4390 C   0  0  0  0  0  0  0  0  0  0  0  0
   37.2600   28.7780   42.4840 C   0  0  0  0  0  0  0  0  0  0  0  0
   37.2440   27.7930   43.6750 C   0  0  0  0  0  0  0  0  0  0  0  0
   38.0720   26.7330   43.3080 O   0  0  0  0  0  0  0  0  0  0  0  0
   37.3270   26.0230   42.3420 C   0  0  0  0  0  0  0  0  0  0  0  0
   37.1610   26.8560   41.0880 C   0  0  0  0  0  0  0  0  0  0  0  0
   35.4300   27.8520   41.8960 H   0  0  0  0  0  0  0  0  0  0  0  0
   36.7830   29.6830   42.9190 H   0  0  0  0  0  0  0  0  0  0  0  0
   38.2820   28.9230   42.1400 H   0  0  0  0  0  0  0  0  0  0  0  0
   37.6230   28.3690   44.5480 H   0  0  0  0  0  0  0  0  0  0  0  0
   36.2170   27.4230   43.8450 H   0  0  0  0  0  0  0  0  0  0  0  0
   37.9210   25.1250   42.0920 H   0  0  0  0  0  0  0  0  0  0  0  0
   36.3580   25.6720   42.7290 H   0  0  0  0  0  0  0  0  0  0  0  0
   38.1330   27.0890   40.6550 H   0  0  0  0  0  0  0  0  0  0  0  0
   36.4820   26.2720   40.4190 H   0  0  0  0  0  0  0  0  0  0  0  0
   38.2360   29.8450   39.1380 C   0  0  0  0  0  0  0  0  0  0  0  0
   37.1290   30.0760   39.9670 C   0  0  0  0  0  0  0  0  0  0  0  0
   36.9830   31.3620   40.5450 C   0  0  0  0  0  0  0  0  0  0  0  0
   37.9220   32.3140   40.2690 N   0  0  0  0  0  0  0  0  0  0  0  0
   38.9530   32.0480   39.4780 C   0  0  0  0  0  0  0  0  0  0  0  0
   39.1190   30.8310   38.9120 N   0  0  0  0  0  0  0  0  0  0  0  0
   38.4110   28.8970   38.6660 H   0  0  0  0  0  0  0  0  0  0  0  0
   36.1380   31.5470   41.1820 H   0  0  0  0  0  0  0  0  0  0  0  0
   39.9700   33.0910   39.1840 C   0  0  0  0  0  3  0  0  0  0  0  0
   41.2590   33.0690   39.9930 C   0  0  0  0  0  2  0  0  0  0  0  0
   40.2680   34.1610   40.1770 C   0  0  0  0  0  2  0  0  0  0  0  0
  1  8  1  0  0  0  0
  2  1  1  0  0  0  0
  2  5  1  0  0  0  0
  3  2  1  0  0  0  0
  3  1  1  0  0  0  0
  4  2  1  0  0  0  0
  6  3  1  0  0  0  0
  7  3  1  0  0  0  0
  8 14  1  0  0  0  0
  8  9  1  0  0  0  0
  9 15  1  0  0  0  0
  9 10  1  0  0  0  0
 10 18  1  0  0  0  0
 10 17  1  0  0  0  0
 11 10  1  0  0  0  0
 12 20  1  0  0  0  0
 12 11  1  0  0  0  0
 13  8  1  0  0  0  0
 13 12  1  0  0  0  0
 16  9  1  0  0  0  0
 19 12  1  0  0  0  0
 21 13  1  0  0  0  0
 22 13  1  0  0  0  0
 23 24  1  0  0  0  0
 24  1  1  0  0  0  0
 24 25  2  0  0  0  0
 25 30  1  0  0  0  0
 26 25  1  0  0  0  0
 27 26  2  0  0  0  0
 28 23  2  0  0  0  0
 28 27  1  0  0  0  0
 29 23  1  0  0  0  0
 31 27  1  0  0  0  0
 31 32  1  0  0  0  0
 31 33  1  0  0  0  0
 32 33  1  0  0  0  0
M  END
>  <minimizedAffinity>
-4.71432877

$$$$

 OpenBabel03242516123D

 33 36  0  0  0  0  0  0  0  0999 V2000
   37.9820   27.6660   42.2340 C   0  0  0  0  0  0  0  0  0  0  0  0
   36.5640   27.6910   42.7760 C   0  0  0  0  0  0  0  0  0  0  0  0
   36.8690   27.1090   41.4560 C   0  0  0  0  0  0  0  0  0  0  0  0
   36.0900   28.6970   42.7940 H   0  0  0  0  0  0  0  0  0  0  0  0
   36.2770   27.0860   43.6420 H   0  0  0  0  0  0  0  0  0  0  0  0
   36.6800   26.0390   41.3280 H   0  0  0  0  0  0  0  0  0  0  0  0
   36.5960   27.7030   40.5400 H   0  0  0  0  0  0  0  0  0  0  0  0
   38.9040   26.7050   42.9330 C   0  0  0  0  0  0  0  0  0  0  0  0
   40.3750   27.0320   42.7700 C   0  0  0  0  0  0  0  0  0  0  0  0
   41.1040   26.0020   43.6650 C   0  0  0  0  0  0  0  0  0  0  0  0
   41.0640   24.7940   42.9710 O   0  0  0  0  0  0  0  0  0  0  0  0
   39.7220   24.3680   43.0830 C   0  0  0  0  0  0  0  0  0  0  0  0
   38.8080   25.3020   42.3170 C   0  0  0  0  0  0  0  0  0  0  0  0
   38.6680   26.6490   43.9920 H   0  0  0  0  0  0  0  0  0  0  0  0
   40.6370   27.9960   43.2570 H   0  0  0  0  0  0  0  0  0  0  0  0
   40.7160   26.9330   41.7420 H   0  0  0  0  0  0  0  0  0  0  0  0
   42.1330   26.4000   43.8030 H   0  0  0  0  0  0  0  0  0  0  0  0
   40.5740   25.8980   44.6280 H   0  0  0  0  0  0  0  0  0  0  0  0
   39.6750   23.3680   42.6160 H   0  0  0  0  0  0  0  0  0  0  0  0
   39.4020   24.2520   44.1300 H   0  0  0  0  0  0  0  0  0  0  0  0
   39.0690   25.3060   41.2600 H   0  0  0  0  0  0  0  0  0  0  0  0
   37.7660   24.9590   42.5380 H   0  0  0  0  0  0  0  0  0  0  0  0
   38.9810   29.8940   42.8010 C   0  0  0  0  0  0  0  0  0  0  0  0
   38.5660   28.9800   41.8220 C   0  0  0  0  0  0  0  0  0  0  0  0
   38.7170   29.3430   40.4600 C   0  0  0  0  0  0  0  0  0  0  0  0
   39.2580   30.5610   40.1640 N   0  0  0  0  0  0  0  0  0  0  0  0
   39.6360   31.3930   41.1250 C   0  0  0  0  0  0  0  0  0  0  0  0
   39.5050   31.0740   42.4320 N   0  0  0  0  0  0  0  0  0  0  0  0
   38.8980   29.6870   43.8510 H   0  0  0  0  0  0  0  0  0  0  0  0
   38.4010   28.6490   39.7040 H   0  0  0  0  0  0  0  0  0  0  0  0
   40.2240   32.7170   40.7930 C   0  0  0  0  0  3  0  0  0  0  0  0
   39.2670   33.8680   40.5190 C   0  0  0  0  0  2  0  0  0  0  0  0
   40.0840   33.2870   39.4230 C   0  0  0  0  0  2  0  0  0  0  0  0
  1  2  1  0  0  0  0
  1  8  1  0  0  0  0
  2  4  1  0  0  0  0
  2  5  1  0  0  0  0
  3  1  1  0  0  0  0
  3  2  1  0  0  0  0
  6  3  1  0  0  0  0
  7  3  1  0  0  0  0
  8 14  1  0  0  0  0
  9  8  1  0  0  0  0
  9 15  1  0  0  0  0
  9 10  1  0  0  0  0
 10 17  1  0  0  0  0
 10 18  1  0  0  0  0
 11 12  1  0  0  0  0
 11 10  1  0  0  0  0
 12 20  1  0  0  0  0
 13 22  1  0  0  0  0
 13  8  1  0  0  0  0
 13 12  1  0  0  0  0
 16  9  1  0  0  0  0
 19 12  1  0  0  0  0
 21 13  1  0  0  0  0
 23 29  1  0  0  0  0
 24  1  1  0  0  0  0
 24 23  2  0  0  0  0
 25 24  1  0  0  0  0
 26 25  2  0  0  0  0
 26 27  1  0  0  0  0
 27 28  2  0  0  0  0
 28 23  1  0  0  0  0
 30 25  1  0  0  0  0
 31 27  1  0  0  0  0
 32 31  1  0  0  0  0
 33 32  1  0  0  0  0
 33 31  1  0  0  0  0
M  END
>  <minimizedAffinity>
-4.69587612

$$$$

 OpenBabel03242516123D

 33 36  0  0  0  0  0  0  0  0999 V2000
   37.2240   30.5450   39.1920 C   0  0  0  0  0  0  0  0  0  0  0  0
   37.2820   32.0480   39.3930 C   0  0  0  0  0  0  0  0  0  0  0  0
   38.2240   31.3590   38.4920 C   0  0  0  0  0  0  0  0  0  0  0  0
   37.6660   32.3710   40.3860 H   0  0  0  0  0  0  0  0  0  0  0  0
   36.4800   32.7010   39.0310 H   0  0  0  0  0  0  0  0  0  0  0  0
   38.1770   31.6170   37.4310 H   0  0  0  0  0  0  0  0  0  0  0  0
   39.2810   31.2080   38.8490 H   0  0  0  0  0  0  0  0  0  0  0  0
   36.0350   30.0610   38.4080 C   0  0  0  0  0  0  0  0  0  0  0  0
   35.1690   29.0660   39.1520 C   0  0  0  0  0  0  0  0  0  0  0  0
   33.9640   28.8210   38.2140 C   0  0  0  0  0  0  0  0  0  0  0  0
   34.4340   27.9920   37.1950 O   0  0  0  0  0  0  0  0  0  0  0  0
   35.2440   28.8340   36.4030 C   0  0  0  0  0  0  0  0  0  0  0  0
   36.4760   29.2590   37.1760 C   0  0  0  0  0  0  0  0  0  0  0  0
   35.4210   30.8990   38.0900 H   0  0  0  0  0  0  0  0  0  0  0  0
   34.6860   29.5270   40.0410 H   0  0  0  0  0  0  0  0  0  0  0  0
   35.6800   28.1270   39.3480 H   0  0  0  0  0  0  0  0  0  0  0  0
   33.1820   28.3450   38.8460 H   0  0  0  0  0  0  0  0  0  0  0  0
   33.6170   29.7780   37.7870 H   0  0  0  0  0  0  0  0  0  0  0  0
   35.5650   28.2280   35.5360 H   0  0  0  0  0  0  0  0  0  0  0  0
   34.6930   29.7000   36.0070 H   0  0  0  0  0  0  0  0  0  0  0  0
   37.0690   28.3890   37.4530 H   0  0  0  0  0  0  0  0  0  0  0  0
   37.0070   29.9960   36.5240 H   0  0  0  0  0  0  0  0  0  0  0  0
   38.4640   28.5710   40.1150 C   0  0  0  0  0  0  0  0  0  0  0  0
   37.6600   29.6970   40.3450 C   0  0  0  0  0  0  0  0  0  0  0  0
   37.2860   29.9910   41.6800 C   0  0  0  0  0  0  0  0  0  0  0  0
   37.7230   29.1690   42.6780 N   0  0  0  0  0  0  0  0  0  0  0  0
   38.4830   28.1140   42.4120 C   0  0  0  0  0  0  0  0  0  0  0  0
   38.8560   27.8090   41.1500 N   0  0  0  0  0  0  0  0  0  0  0  0
   38.7870   28.2870   39.1320 H   0  0  0  0  0  0  0  0  0  0  0  0
   36.6700   30.8510   41.8640 H   0  0  0  0  0  0  0  0  0  0  0  0
   38.9540   27.2250   43.5060 C   0  0  0  0  0  3  0  0  0  0  0  0
   40.4560   27.0520   43.6790 C   0  0  0  0  0  2  0  0  0  0  0  0
   39.6150   25.9260   43.1960 C   0  0  0  0  0  2  0  0  0  0  0  0
  1  2  1  0  0  0  0
  1 24  1  0  0  0  0
  2  4  1  0  0  0  0
  3  7  1  0  0  0  0
  3  1  1  0  0  0  0
  3  2  1  0  0  0  0
  5  2  1  0  0  0  0
  6  3  1  0  0  0  0
  8  9  1  0  0  0  0
  8  1  1  0  0  0  0
  9 16  1  0  0  0  0
  9 15  1  0  0  0  0
 10 17  1  0  0  0  0
 10  9  1  0  0  0  0
 11 10  1  0  0  0  0
 12 13  1  0  0  0  0
 12 11  1  0  0  0  0
 13 21  1  0  0  0  0
 13  8  1  0  0  0  0
 14  8  1  0  0  0  0
 18 10  1  0  0  0  0
 19 12  1  0  0  0  0
 20 12  1  0  0  0  0
 22 13  1  0  0  0  0
 23 24  2  0  0  0  0
 23 28  1  0  0  0  0
 24 25  1  0  0  0  0
 25 30  1  0  0  0  0
 25 26  2  0  0  0  0
 27 26  1  0  0  0  0
 27 31  1  0  0  0  0
 28 27  2  0  0  0  0
 29 23  1  0  0  0  0
 31 32  1  0  0  0  0
 33 31  1  0  0  0  0
 33 32  1  0  0  0  0
M  END
>  <minimizedAffinity>
-4.58090401

$$$$

 OpenBabel03242516123D

 33 36  0  0  0  0  0  0  0  0999 V2000
   37.7010   30.6510   40.4910 C   0  0  0  0  0  0  0  0  0  0  0  0
   36.6300   30.4170   39.4420 C   0  0  0  0  0  0  0  0  0  0  0  0
   36.3380   31.1610   40.6810 C   0  0  0  0  0  0  0  0  0  0  0  0
   36.2630   29.3690   39.3750 H   0  0  0  0  0  0  0  0  0  0  0  0
   36.6840   30.8960   38.4580 H   0  0  0  0  0  0  0  0  0  0  0  0
   36.0510   32.2100   40.5760 H   0  0  0  0  0  0  0  0  0  0  0  0
   35.7530   30.6360   41.4870 H   0  0  0  0  0  0  0  0  0  0  0  0
   38.7700   31.6310   40.0880 C   0  0  0  0  0  0  0  0  0  0  0  0
   40.1210   31.3630   40.7190 C   0  0  0  0  0  0  0  0  0  0  0  0
   41.0670   32.3990   40.0670 C   0  0  0  0  0  0  0  0  0  0  0  0
   40.7740   33.6210   40.6720 O   0  0  0  0  0  0  0  0  0  0  0  0
   39.5260   33.9920   40.1270 C   0  0  0  0  0  0  0  0  0  0  0  0
   38.4420   33.0430   40.5950 C   0  0  0  0  0  0  0  0  0  0  0  0
   38.8800   31.6540   39.0080 H   0  0  0  0  0  0  0  0  0  0  0  0
   40.5520   30.3990   40.3720 H   0  0  0  0  0  0  0  0  0  0  0  0
   40.1160   31.4980   41.7980 H   0  0  0  0  0  0  0  0  0  0  0  0
   42.0980   32.0380   40.2750 H   0  0  0  0  0  0  0  0  0  0  0  0
   40.8680   32.4620   38.9830 H   0  0  0  0  0  0  0  0  0  0  0  0
   39.3040   35.0010   40.5220 H   0  0  0  0  0  0  0  0  0  0  0  0
   39.5510   34.0740   39.0300 H   0  0  0  0  0  0  0  0  0  0  0  0
   38.3540   33.0710   41.6790 H   0  0  0  0  0  0  0  0  0  0  0  0
   37.5160   33.3400   40.0450 H   0  0  0  0  0  0  0  0  0  0  0  0
   38.7370   28.3720   40.6160 C   0  0  0  0  0  0  0  0  0  0  0  0
   38.1440   29.4580   41.2760 C   0  0  0  0  0  0  0  0  0  0  0  0
   37.9830   29.3790   42.6820 C   0  0  0  0  0  0  0  0  0  0  0  0
   38.4120   28.2550   43.3280 N   0  0  0  0  0  0  0  0  0  0  0  0
   38.9680   27.2530   42.6600 C   0  0  0  0  0  0  0  0  0  0  0  0
   39.1350   27.2990   41.3200 N   0  0  0  0  0  0  0  0  0  0  0  0
   38.8910   28.3610   39.5540 H   0  0  0  0  0  0  0  0  0  0  0  0
   37.5290   30.2060   43.1950 H   0  0  0  0  0  0  0  0  0  0  0  0
   39.4320   26.0340   43.3720 C   0  0  0  0  0  3  0  0  0  0  0  0
   40.9180   25.9160   43.6790 C   0  0  0  0  0  2  0  0  0  0  0  0
   40.2790   25.0250   42.6760 C   0  0  0  0  0  2  0  0  0  0  0  0
  1  3  1  0  0  0  0
  1 24  1  0  0  0  0
  2  1  1  0  0  0  0
  2  3  1  0  0  0  0
  3  7  1  0  0  0  0
  4  2  1  0  0  0  0
  5  2  1  0  0  0  0
  6  3  1  0  0  0  0
  8  1  1  0  0  0  0
  8 13  1  0  0  0  0
  8  9  1  0  0  0  0
  9 16  1  0  0  0  0
 10 17  1  0  0  0  0
 10 11  1  0  0  0  0
 10  9  1  0  0  0  0
 12 19  1  0  0  0  0
 12 13  1  0  0  0  0
 12 11  1  0  0  0  0
 13 21  1  0  0  0  0
 14  8  1  0  0  0  0
 15  9  1  0  0  0  0
 18 10  1  0  0  0  0
 20 12  1  0  0  0  0
 22 13  1  0  0  0  0
 23 24  2  0  0  0  0
 23 28  1  0  0  0  0
 24 25  1  0  0  0  0
 25 30  1  0  0  0  0
 25 26  2  0  0  0  0
 27 26  1  0  0  0  0
 27 31  1  0  0  0  0
 28 27  2  0  0  0  0
 29 23  1  0  0  0  0
 31 32  1  0  0  0  0
 33 31  1  0  0  0  0
 33 32  1  0  0  0  0
M  END
>  <minimizedAffinity>
-4.48901367

$$$$

 OpenBabel03242516123D

 33 36  0  0  0  0  0  0  0  0999 V2000
   37.1190   27.6110   42.3600 C   0  0  0  0  0  0  0  0  0  0  0  0
   36.4660   27.1930   43.6650 C   0  0  0  0  0  0  0  0  0  0  0  0
   37.7240   27.9620   43.6510 C   0  0  0  0  0  0  0  0  0  0  0  0
   36.5320   26.1070   43.8920 H   0  0  0  0  0  0  0  0  0  0  0  0
   35.5100   27.6220   43.9840 H   0  0  0  0  0  0  0  0  0  0  0  0
   37.7020   28.9620   44.0920 H   0  0  0  0  0  0  0  0  0  0  0  0
   38.6800   27.4140   43.8810 H   0  0  0  0  0  0  0  0  0  0  0  0
   36.3870   28.6900   41.6090 C   0  0  0  0  0  0  0  0  0  0  0  0
   36.1220   28.3570   40.1550 C   0  0  0  0  0  0  0  0  0  0  0  0
   35.2620   29.5350   39.6380 C   0  0  0  0  0  0  0  0  0  0  0  0
   36.1400   30.6050   39.4670 O   0  0  0  0  0  0  0  0  0  0  0  0
   36.4390   31.0270   40.7800 C   0  0  0  0  0  0  0  0  0  0  0  0
   37.2380   29.9640   41.5070 C   0  0  0  0  0  0  0  0  0  0  0  0
   35.4460   28.9250   42.0980 H   0  0  0  0  0  0  0  0  0  0  0  0
   35.4280   27.4950   40.0520 H   0  0  0  0  0  0  0  0  0  0  0  0
   37.0330   28.2810   39.5670 H   0  0  0  0  0  0  0  0  0  0  0  0
   34.8070   29.1800   38.6870 H   0  0  0  0  0  0  0  0  0  0  0  0
   34.4930   29.7980   40.3850 H   0  0  0  0  0  0  0  0  0  0  0  0
   37.0670   31.9310   40.6790 H   0  0  0  0  0  0  0  0  0  0  0  0
   35.5410   31.3190   41.3450 H   0  0  0  0  0  0  0  0  0  0  0  0
   38.1800   29.7800   40.9930 H   0  0  0  0  0  0  0  0  0  0  0  0
   37.3450   30.3270   42.5590 H   0  0  0  0  0  0  0  0  0  0  0  0
   39.0770   26.6330   41.1390 C   0  0  0  0  0  0  0  0  0  0  0  0
   37.7390   26.5240   41.5420 C   0  0  0  0  0  0  0  0  0  0  0  0
   37.0150   25.3690   41.1520 C   0  0  0  0  0  0  0  0  0  0  0  0
   37.6510   24.4200   40.4050 N   0  0  0  0  0  0  0  0  0  0  0  0
   38.9190   24.5670   40.0460 C   0  0  0  0  0  0  0  0  0  0  0  0
   39.6350   25.6570   40.4040 N   0  0  0  0  0  0  0  0  0  0  0  0
   39.6870   27.4780   41.3970 H   0  0  0  0  0  0  0  0  0  0  0  0
   35.9890   25.2770   41.4570 H   0  0  0  0  0  0  0  0  0  0  0  0
   39.6020   23.5290   39.2330 C   0  0  0  0  0  3  0  0  0  0  0  0
   39.5030   23.6380   37.7180 C   0  0  0  0  0  2  0  0  0  0  0  0
   38.8120   22.5410   38.4440 C   0  0  0  0  0  2  0  0  0  0  0  0
  1  3  1  0  0  0  0
  1  2  1  0  0  0  0
  2  4  1  0  0  0  0
  2  5  1  0  0  0  0
  3  2  1  0  0  0  0
  3  7  1  0  0  0  0
  3  6  1  0  0  0  0
  8 14  1  0  0  0  0
  8  1  1  0  0  0  0
  9  8  1  0  0  0  0
 10  9  1  0  0  0  0
 10 18  1  0  0  0  0
 11 10  1  0  0  0  0
 11 12  1  0  0  0  0
 12 20  1  0  0  0  0
 12 13  1  0  0  0  0
 13  8  1  0  0  0  0
 13 22  1  0  0  0  0
 15  9  1  0  0  0  0
 16  9  1  0  0  0  0
 17 10  1  0  0  0  0
 19 12  1  0  0  0  0
 21 13  1  0  0  0  0
 23 29  1  0  0  0  0
 23 24  1  0  0  0  0
 24  1  1  0  0  0  0
 25 30  1  0  0  0  0
 25 24  2  0  0  0  0
 26 25  1  0  0  0  0
 27 28  1  0  0  0  0
 27 26  2  0  0  0  0
 28 23  2  0  0  0  0
 31 27  1  0  0  0  0
 32 33  1  0  0  0  0
 32 31  1  0  0  0  0
 33 31  1  0  0  0  0
M  END
>  <minimizedAffinity>
-4.42811871

$$$$

 OpenBabel03242516123D

 33 36  0  0  0  0  0  0  0  0999 V2000
   39.5950   30.3800   41.6110 C   0  0  0  0  0  0  0  0  0  0  0  0
   40.1890   31.0340   42.8450 C   0  0  0  0  0  0  0  0  0  0  0  0
   41.0480   30.4330   41.8090 C   0  0  0  0  0  0  0  0  0  0  0  0
   40.0480   30.4630   43.7890 H   0  0  0  0  0  0  0  0  0  0  0  0
   40.1160   32.1160   43.0060 H   0  0  0  0  0  0  0  0  0  0  0  0
   41.7220   31.1040   41.2690 H   0  0  0  0  0  0  0  0  0  0  0  0
   41.5250   29.4380   42.0310 H   0  0  0  0  0  0  0  0  0  0  0  0
   38.9840   31.3390   40.6250 C   0  0  0  0  0  0  0  0  0  0  0  0
   37.4760   31.2400   40.5240 C   0  0  0  0  0  0  0  0  0  0  0  0
   37.0740   32.3880   39.5670 C   0  0  0  0  0  0  0  0  0  0  0  0
   37.4140   31.9560   38.2860 O   0  0  0  0  0  0  0  0  0  0  0  0
   38.8230   32.0360   38.2510 C   0  0  0  0  0  0  0  0  0  0  0  0
   39.4330   31.0180   39.1930 C   0  0  0  0  0  0  0  0  0  0  0  0
   39.2580   32.3620   40.8670 H   0  0  0  0  0  0  0  0  0  0  0  0
   36.9800   31.5400   41.4730 H   0  0  0  0  0  0  0  0  0  0  0  0
   37.1420   30.2890   40.1170 H   0  0  0  0  0  0  0  0  0  0  0  0
   35.9810   32.5300   39.7100 H   0  0  0  0  0  0  0  0  0  0  0  0
   37.6410   33.3020   39.8160 H   0  0  0  0  0  0  0  0  0  0  0  0
   39.1220   31.7810   37.2170 H   0  0  0  0  0  0  0  0  0  0  0  0
   39.1940   33.0520   38.4530 H   0  0  0  0  0  0  0  0  0  0  0  0
   39.1490   30.0090   38.8980 H   0  0  0  0  0  0  0  0  0  0  0  0
   40.5340   31.2130   39.1830 H   0  0  0  0  0  0  0  0  0  0  0  0
   39.0490   28.0430   40.8890 C   0  0  0  0  0  0  0  0  0  0  0  0
   38.8840   29.0810   41.8160 C   0  0  0  0  0  0  0  0  0  0  0  0
   38.0340   28.8560   42.9290 C   0  0  0  0  0  0  0  0  0  0  0  0
   37.4190   27.6430   43.0470 N   0  0  0  0  0  0  0  0  0  0  0  0
   37.6060   26.6900   42.1430 C   0  0  0  0  0  0  0  0  0  0  0  0
   38.4100   26.8760   41.0730 N   0  0  0  0  0  0  0  0  0  0  0  0
   39.6760   28.1410   40.0230 H   0  0  0  0  0  0  0  0  0  0  0  0
   37.9020   29.6470   43.6440 H   0  0  0  0  0  0  0  0  0  0  0  0
   36.9310   25.3740   42.2810 C   0  0  0  0  0  3  0  0  0  0  0  0
   37.7970   24.1240   42.2040 C   0  0  0  0  0  2  0  0  0  0  0  0
   36.8350   24.4460   41.1190 C   0  0  0  0  0  2  0  0  0  0  0  0
  1  3  1  0  0  0  0
  1 24  1  0  0  0  0
  1  2  1  0  0  0  0
  2  5  1  0  0  0  0
  2  4  1  0  0  0  0
  3  7  1  0  0  0  0
  3  2  1  0  0  0  0
  6  3  1  0  0  0  0
  8 14  1  0  0  0  0
  8  1  1  0  0  0  0
  9  8  1  0  0  0  0
  9 15  1  0  0  0  0
 10 17  1  0  0  0  0
 10 18  1  0  0  0  0
 10  9  1  0  0  0  0
 11 10  1  0  0  0  0
 12 11  1  0  0  0  0
 12 20  1  0  0  0  0
 12 13  1  0  0  0  0
 13  8  1  0  0  0  0
 16  9  1  0  0  0  0
 19 12  1  0  0  0  0
 21 13  1  0  0  0  0
 22 13  1  0  0  0  0
 23 28  2  0  0  0  0
 23 24  1  0  0  0  0
 24 25  2  0  0  0  0
 25 26  1  0  0  0  0
 25 30  1  0  0  0  0
 27 31  1  0  0  0  0
 27 26  2  0  0  0  0
 28 27  1  0  0  0  0
 29 23  1  0  0  0  0
 32 31  1  0  0  0  0
 33 32  1  0  0  0  0
 33 31  1  0  0  0  0
M  END
>  <minimizedAffinity>
-4.39842415

$$$$
