
     RDKit          3D

 24 26  0  0  0  0  0  0  0  0999 V2000
   44.5710   35.7847   44.7174 C   0  0  0  0  0  0  0  0  0  0  0  0
   45.2733   35.5749   43.5021 C   0  0  0  0  0  0  0  0  0  0  0  0
   46.1487   34.4737   43.4305 C   0  0  0  0  0  0  0  0  0  0  0  0
   46.2682   33.6741   44.5367 N   0  0  0  0  0  0  0  0  0  0  0  0
   45.5718   33.9232   45.6713 C   0  0  0  0  0  0  0  0  0  0  0  0
   44.7222   34.9765   45.7675 N   0  0  0  0  0  0  0  0  0  0  0  0
   45.8755   32.9247   46.7013 C   0  0  0  0  0  0  0  0  0  0  0  0
   45.1474   32.7862   47.9085 C   0  0  0  0  0  0  0  0  0  0  0  0
   45.5017   31.8361   48.7951 C   0  0  0  0  0  0  0  0  0  0  0  0
   46.5987   31.0028   48.4857 C   0  0  0  0  0  0  0  0  0  0  0  0
   47.1324   31.6220   46.8510 S   0  0  0  0  0  0  0  0  0  0  0  0
   43.8961   36.6268   44.7845 H   0  0  0  0  0  0  0  0  0  0  0  0
   45.1626   36.2198   42.6420 H   0  0  0  0  0  0  0  0  0  0  0  0
   46.7217   34.2400   42.5458 H   0  0  0  0  0  0  0  0  0  0  0  0
   44.3042   33.4438   48.1217 H   0  0  0  0  0  0  0  0  0  0  0  0
   45.0589   31.6169   49.7232 H   0  0  0  0  0  0  0  0  0  0  0  0
   47.2824   29.8797   49.1713 C   0  0  0  0  0  0  0  0  0  0  0  0
   48.5792   29.3626   48.5659 C   0  0  0  0  0  0  0  0  0  0  0  0
   48.5359   30.1608   49.8620 C   0  0  0  0  0  0  0  0  0  0  0  0
   46.6196   29.1146   49.6463 H   0  0  0  0  0  0  0  0  0  0  0  0
   48.9564   29.8760   47.6456 H   0  0  0  0  0  0  0  0  0  0  0  0
   48.7040   28.2817   48.5836 H   0  0  0  0  0  0  0  0  0  0  0  0
   49.0532   31.1567   49.8388 H   0  0  0  0  0  0  0  0  0  0  0  0
   48.8958   29.5560   50.7260 H   0  0  0  0  0  0  0  0  0  0  0  0
  1  6  2  0
  2  1  1  0
  3  2  2  0
  3  4  1  0
  4  5  2  0
  5  6  1  0
  5  7  1  0
  7 11  1  0
  7  8  2  0
  8  9  1  0
 10  9  2  0
 11 10  1  0
  1 12  1  0
  2 13  1  0
  3 14  1  0
  8 15  1  0
  9 16  1  0
 17 18  1  0
 18 19  1  0
 19 17  1  0
 17 20  1  0
 18 21  1  0
 18 22  1  0
 19 23  1  0
 19 24  1  0
 10 17  1  0
M  ISO  5  12  14  13  14  14  14  15  14  16  14
M  END
>  <DihAtoms>  (1) 
8,9,16,17

>  <DihDeg>  (1) 
-36.60568534184987

$$$$
