
 OpenBabel03252502443D

 25 27  0  0  1  0  0  0  0  0999 V2000
   36.3490   28.0190   40.8700 C   0  0  0  0  0  0  0  0  0  0  0  0
   35.7790   27.1070   40.7160 H   0  0  0  0  0  0  0  0  0  0  0  0
   37.2380   28.1270   40.1720 H   0  0  0  0  0  0  0  0  0  0  0  0
   36.9550   28.1470   42.2460 C   0  0  1  0  0  0  0  0  0  0  0  0
   36.3380   27.3750   43.3390 C   0  0  0  0  0  0  0  0  0  0  0  0
   37.6430   26.9420   42.7570 C   0  0  2  0  0  0  0  0  0  0  0  0
   37.3640   29.1660   42.4060 H   0  0  0  0  0  0  0  0  0  0  0  0
   36.3350   27.9410   44.3100 H   0  0  0  0  0  0  0  0  0  0  0  0
   35.4080   26.8020   43.2690 H   0  0  0  0  0  0  0  0  0  0  0  0
   37.9010   26.0390   42.2590 H   0  0  0  0  0  0  0  0  0  0  0  0
   38.8250   27.2190   43.6800 C   0  0  0  0  0  3  0  0  0  0  0  0
   40.0710   27.7920   43.1670 C   0  0  0  0  0  2  0  0  0  0  0  0
   40.0510   26.3580   43.6320 C   0  0  0  0  0  2  0  0  0  0  0  0
   35.4210   29.2090   40.7050 C   0  0  0  0  0  0  0  0  0  0  0  0
   35.4230   29.7250   41.7190 H   0  0  0  0  0  0  0  0  0  0  0  0
   34.4440   28.9860   40.3120 H   0  0  0  0  0  0  0  0  0  0  0  0
   37.2800   31.1900   38.1250 C   0  0  0  0  0  0  0  0  0  0  0  0
   36.5230   30.1560   38.7060 C   0  0  0  0  0  0  0  0  0  0  0  0
   36.1660   30.2990   40.0210 C   0  0  0  0  0  0  0  0  0  0  0  0
   36.5500   31.4180   40.6970 N   0  0  0  0  0  0  0  0  0  0  0  0
   37.2600   32.3810   40.1340 C   0  0  0  0  0  0  0  0  0  0  0  0
   37.6310   32.2780   38.8530 N   0  0  0  0  0  0  0  0  0  0  0  0
   37.6280   31.2130   37.1170 H   0  0  0  0  0  0  0  0  0  0  0  0
   36.3230   29.3860   37.9840 H   0  0  0  0  0  0  0  0  0  0  0  0
   37.4890   33.2030   40.7930 H   0  0  0  0  0  0  0  0  0  0  0  0
  1  4  1  0  0  0  0
  2  1  1  0  0  0  0
  3  1  1  0  0  0  0
  4  7  1  1  0  0  0
  4  6  1  0  0  0  0
  4  5  1  0  0  0  0
  5  8  1  0  0  0  0
  6 10  1  6  0  0  0
  6  5  1  0  0  0  0
  6 11  1  0  0  0  0
  9  5  1  0  0  0  0
 12 13  1  0  0  0  0
 12 11  1  0  0  0  0
 13 11  1  0  0  0  0
 14  1  1  0  0  0  0
 14 15  1  0  0  0  0
 16 14  1  0  0  0  0
 17 18  2  0  0  0  0
 17 22  1  0  0  0  0
 18 19  1  0  0  0  0
 19 20  2  0  0  0  0
 19 14  1  0  0  0  0
 21 20  1  0  0  0  0
 21 25  1  0  0  0  0
 22 21  2  0  0  0  0
 23 17  1  0  0  0  0
 24 18  1  0  0  0  0
M  END
>  <minimizedAffinity>
-4.53120852

$$$$

 OpenBabel03252502443D

 25 27  0  0  1  0  0  0  0  0999 V2000
   38.2570   28.9280   42.9290 C   0  0  0  0  0  0  0  0  0  0  0  0
   39.3030   28.9660   42.6370 H   0  0  0  0  0  0  0  0  0  0  0  0
   38.0020   29.6050   43.8040 H   0  0  0  0  0  0  0  0  0  0  0  0
   37.7880   27.5660   43.3810 C   0  0  1  0  0  0  0  0  0  0  0  0
   36.3540   27.4010   43.6800 C   0  0  0  0  0  0  0  0  0  0  0  0
   36.9310   26.8340   42.4240 C   0  0  2  0  0  0  0  0  0  0  0  0
   38.5740   27.0530   43.9720 H   0  0  0  0  0  0  0  0  0  0  0  0
   36.1790   26.7190   44.5550 H   0  0  0  0  0  0  0  0  0  0  0  0
   35.6140   28.2060   43.7130 H   0  0  0  0  0  0  0  0  0  0  0  0
   36.6980   27.0520   41.4080 H   0  0  0  0  0  0  0  0  0  0  0  0
   37.0680   25.3160   42.4660 C   0  0  0  0  0  3  0  0  0  0  0  0
   38.2270   24.6420   41.8780 C   0  0  0  0  0  2  0  0  0  0  0  0
   36.8750   24.4960   41.2280 C   0  0  0  0  0  2  0  0  0  0  0  0
   37.4010   29.2930   41.7310 C   0  0  0  0  0  0  0  0  0  0  0  0
   36.4070   29.6290   42.1720 H   0  0  0  0  0  0  0  0  0  0  0  0
   37.3250   28.5390   40.9670 H   0  0  0  0  0  0  0  0  0  0  0  0
   37.3490   32.6430   40.0550 C   0  0  0  0  0  0  0  0  0  0  0  0
   36.9100   31.3890   40.5170 C   0  0  0  0  0  0  0  0  0  0  0  0
   37.7870   30.6530   41.2700 C   0  0  0  0  0  0  0  0  0  0  0  0
   39.0220   31.1590   41.5370 N   0  0  0  0  0  0  0  0  0  0  0  0
   39.4180   32.3410   41.0950 C   0  0  0  0  0  0  0  0  0  0  0  0
   38.5930   33.0900   40.3550 N   0  0  0  0  0  0  0  0  0  0  0  0
   36.7770   33.3200   39.4600 H   0  0  0  0  0  0  0  0  0  0  0  0
   35.9000   31.2050   40.2010 H   0  0  0  0  0  0  0  0  0  0  0  0
   40.4220   32.6080   41.3860 H   0  0  0  0  0  0  0  0  0  0  0  0
  1  4  1  0  0  0  0
  1  3  1  0  0  0  0
  2  1  1  0  0  0  0
  4  5  1  0  0  0  0
  4  7  1  1  0  0  0
  5  9  1  0  0  0  0
  5  8  1  0  0  0  0
  6 10  1  6  0  0  0
  6 11  1  0  0  0  0
  6  4  1  0  0  0  0
  6  5  1  0  0  0  0
 12 11  1  0  0  0  0
 13 12  1  0  0  0  0
 13 11  1  0  0  0  0
 14 15  1  0  0  0  0
 14  1  1  0  0  0  0
 16 14  1  0  0  0  0
 17 22  2  0  0  0  0
 17 18  1  0  0  0  0
 18 19  2  0  0  0  0
 19 20  1  0  0  0  0
 19 14  1  0  0  0  0
 21 25  1  0  0  0  0
 21 20  2  0  0  0  0
 22 21  1  0  0  0  0
 23 17  1  0  0  0  0
 24 18  1  0  0  0  0
M  END
>  <minimizedAffinity>
-4.44011927

$$$$

 OpenBabel03252502443D

 25 27  0  0  1  0  0  0  0  0999 V2000
   38.6960   28.4810   43.0330 C   0  0  0  0  0  0  0  0  0  0  0  0
   39.7080   28.5240   43.4260 H   0  0  0  0  0  0  0  0  0  0  0  0
   38.0310   29.3290   43.3890 H   0  0  0  0  0  0  0  0  0  0  0  0
   37.9320   27.2390   43.4200 C   0  0  1  0  0  0  0  0  0  0  0  0
   36.4650   27.3410   43.5180 C   0  0  0  0  0  0  0  0  0  0  0  0
   37.0940   26.6440   42.3560 C   0  0  2  0  0  0  0  0  0  0  0  0
   38.5240   26.6100   44.1170 H   0  0  0  0  0  0  0  0  0  0  0  0
   36.0520   26.7260   44.3630 H   0  0  0  0  0  0  0  0  0  0  0  0
   35.8840   28.2650   43.4460 H   0  0  0  0  0  0  0  0  0  0  0  0
   37.0450   26.8700   41.3180 H   0  0  0  0  0  0  0  0  0  0  0  0
   36.9480   25.1280   42.4230 C   0  0  0  0  0  3  0  0  0  0  0  0
   38.0370   24.2410   42.0100 C   0  0  0  0  0  2  0  0  0  0  0  0
   36.7860   24.3190   41.1730 C   0  0  0  0  0  2  0  0  0  0  0  0
   38.7590   28.4820   41.5170 C   0  0  0  0  0  0  0  0  0  0  0  0
   37.8520   27.8820   41.1850 H   0  0  0  0  0  0  0  0  0  0  0  0
   39.6950   28.1620   41.0900 H   0  0  0  0  0  0  0  0  0  0  0  0
   38.5340   31.9230   40.0540 C   0  0  0  0  0  0  0  0  0  0  0  0
   39.0790   30.6880   40.4500 C   0  0  0  0  0  0  0  0  0  0  0  0
   38.2270   29.7790   41.0210 C   0  0  0  0  0  0  0  0  0  0  0  0
   36.9140   30.1020   41.1750 N   0  0  0  0  0  0  0  0  0  0  0  0
   36.4180   31.2680   40.7950 C   0  0  0  0  0  0  0  0  0  0  0  0
   37.2160   32.1850   40.2360 N   0  0  0  0  0  0  0  0  0  0  0  0
   39.0750   32.7230   39.6000 H   0  0  0  0  0  0  0  0  0  0  0  0
   40.1270   30.6470   40.2160 H   0  0  0  0  0  0  0  0  0  0  0  0
   35.3620   31.3810   40.9820 H   0  0  0  0  0  0  0  0  0  0  0  0
  1  3  1  0  0  0  0
  1  4  1  0  0  0  0
  1  2  1  0  0  0  0
  4  5  1  0  0  0  0
  4  7  1  1  0  0  0
  5  8  1  0  0  0  0
  6 10  1  6  0  0  0
  6 11  1  0  0  0  0
  6  4  1  0  0  0  0
  6  5  1  0  0  0  0
  9  5  1  0  0  0  0
 12 11  1  0  0  0  0
 13 12  1  0  0  0  0
 13 11  1  0  0  0  0
 14  1  1  0  0  0  0
 15 14  1  0  0  0  0
 16 14  1  0  0  0  0
 17 22  2  0  0  0  0
 17 18  1  0  0  0  0
 18 19  2  0  0  0  0
 19 20  1  0  0  0  0
 19 14  1  0  0  0  0
 21 25  1  0  0  0  0
 21 20  2  0  0  0  0
 22 21  1  0  0  0  0
 23 17  1  0  0  0  0
 24 18  1  0  0  0  0
M  END
>  <minimizedAffinity>
-4.27641201

$$$$

 OpenBabel03252502443D

 25 27  0  0  1  0  0  0  0  0999 V2000
   36.4420   29.4960   39.7790 C   0  0  0  0  0  0  0  0  0  0  0  0
   35.7950   29.5210   38.9060 H   0  0  0  0  0  0  0  0  0  0  0  0
   37.5480   29.4550   39.5290 H   0  0  0  0  0  0  0  0  0  0  0  0
   36.2310   28.2980   40.6720 C   0  0  1  0  0  0  0  0  0  0  0  0
   36.5930   26.9730   40.1370 C   0  0  0  0  0  0  0  0  0  0  0  0
   37.4620   27.6350   41.1560 C   0  0  2  0  0  0  0  0  0  0  0  0
   35.3490   28.4440   41.3300 H   0  0  0  0  0  0  0  0  0  0  0  0
   35.8790   26.1710   40.4670 H   0  0  0  0  0  0  0  0  0  0  0  0
   36.8970   26.7640   39.1060 H   0  0  0  0  0  0  0  0  0  0  0  0
   38.4770   27.9450   41.0890 H   0  0  0  0  0  0  0  0  0  0  0  0
   37.3500   26.9960   42.5360 C   0  0  0  0  0  3  0  0  0  0  0  0
   36.8260   27.7460   43.6800 C   0  0  0  0  0  2  0  0  0  0  0  0
   38.2880   27.3840   43.6370 C   0  0  0  0  0  2  0  0  0  0  0  0
   36.1550   30.7160   40.6350 C   0  0  0  0  0  0  0  0  0  0  0  0
   36.3420   30.3750   41.7040 H   0  0  0  0  0  0  0  0  0  0  0  0
   35.2000   31.1850   40.4710 H   0  0  0  0  0  0  0  0  0  0  0  0
   39.5860   32.1280   41.1560 C   0  0  0  0  0  0  0  0  0  0  0  0
   38.5150   31.2150   41.1710 C   0  0  0  0  0  0  0  0  0  0  0  0
   37.3390   31.6140   40.5920 C   0  0  0  0  0  0  0  0  0  0  0  0
   37.2590   32.8530   40.0330 N   0  0  0  0  0  0  0  0  0  0  0  0
   38.2760   33.6980   40.0270 C   0  0  0  0  0  0  0  0  0  0  0  0
   39.4410   33.3480   40.5840 N   0  0  0  0  0  0  0  0  0  0  0  0
   40.5540   31.9550   41.5680 H   0  0  0  0  0  0  0  0  0  0  0  0
   38.8100   30.2980   41.6470 H   0  0  0  0  0  0  0  0  0  0  0  0
   38.0630   34.6410   39.5490 H   0  0  0  0  0  0  0  0  0  0  0  0
  1 14  1  0  0  0  0
  1  4  1  0  0  0  0
  2  1  1  0  0  0  0
  3  1  1  0  0  0  0
  4  6  1  0  0  0  0
  4  7  1  1  0  0  0
  5  8  1  0  0  0  0
  5  4  1  0  0  0  0
  5  6  1  0  0  0  0
  6 10  1  6  0  0  0
  6 11  1  0  0  0  0
  9  5  1  0  0  0  0
 11 13  1  0  0  0  0
 11 12  1  0  0  0  0
 13 12  1  0  0  0  0
 14 15  1  0  0  0  0
 16 14  1  0  0  0  0
 17 18  1  0  0  0  0
 17 23  1  0  0  0  0
 18 24  1  0  0  0  0
 19 14  1  0  0  0  0
 19 18  2  0  0  0  0
 20 19  1  0  0  0  0
 21 20  2  0  0  0  0
 21 22  1  0  0  0  0
 22 17  2  0  0  0  0
 25 21  1  0  0  0  0
M  END
>  <minimizedAffinity>
-4.18672276

$$$$

 OpenBabel03252502443D

 25 27  0  0  1  0  0  0  0  0999 V2000
   36.0390   28.4770   39.2420 C   0  0  0  0  0  0  0  0  0  0  0  0
   36.4170   27.4590   39.2770 H   0  0  0  0  0  0  0  0  0  0  0  0
   35.1840   28.6220   38.5090 H   0  0  0  0  0  0  0  0  0  0  0  0
   37.0590   29.5030   38.8120 C   0  0  1  0  0  0  0  0  0  0  0  0
   36.8610   30.1590   37.5070 C   0  0  0  0  0  0  0  0  0  0  0  0
   36.5830   30.9020   38.7720 C   0  0  2  0  0  0  0  0  0  0  0  0
   38.0690   29.2390   39.1890 H   0  0  0  0  0  0  0  0  0  0  0  0
   37.8320   30.3400   36.9710 H   0  0  0  0  0  0  0  0  0  0  0  0
   36.1010   29.8890   36.7680 H   0  0  0  0  0  0  0  0  0  0  0  0
   35.6740   31.3260   39.1280 H   0  0  0  0  0  0  0  0  0  0  0  0
   37.6420   31.9520   39.0890 C   0  0  0  0  0  3  0  0  0  0  0  0
   37.8740   32.4080   40.4610 C   0  0  0  0  0  2  0  0  0  0  0  0
   37.2480   33.3480   39.4630 C   0  0  0  0  0  2  0  0  0  0  0  0
   35.5950   28.8820   40.6350 C   0  0  0  0  0  0  0  0  0  0  0  0
   34.8530   28.0790   40.9520 H   0  0  0  0  0  0  0  0  0  0  0  0
   35.2370   29.8930   40.7330 H   0  0  0  0  0  0  0  0  0  0  0  0
   37.8850   26.7880   42.7330 C   0  0  0  0  0  0  0  0  0  0  0  0
   36.9330   27.1340   41.7570 C   0  0  0  0  0  0  0  0  0  0  0  0
   36.6400   28.4640   41.6070 C   0  0  0  0  0  0  0  0  0  0  0  0
   37.2730   29.3780   42.3920 N   0  0  0  0  0  0  0  0  0  0  0  0
   38.1670   29.0350   43.3040 C   0  0  0  0  0  0  0  0  0  0  0  0
   38.4800   27.7480   43.4840 N   0  0  0  0  0  0  0  0  0  0  0  0
   38.2090   25.7980   42.9600 H   0  0  0  0  0  0  0  0  0  0  0  0
   36.5790   26.2550   41.2490 H   0  0  0  0  0  0  0  0  0  0  0  0
   38.5830   29.8680   43.8480 H   0  0  0  0  0  0  0  0  0  0  0  0
  1  2  1  0  0  0  0
  1 14  1  0  0  0  0
  3  1  1  0  0  0  0
  4  7  1  1  0  0  0
  4  1  1  0  0  0  0
  5  6  1  0  0  0  0
  5  4  1  0  0  0  0
  6  4  1  0  0  0  0
  6 11  1  0  0  0  0
  6 10  1  1  0  0  0
  8  5  1  0  0  0  0
  9  5  1  0  0  0  0
 11 13  1  0  0  0  0
 11 12  1  0  0  0  0
 13 12  1  0  0  0  0
 14 16  1  0  0  0  0
 14 15  1  0  0  0  0
 14 19  1  0  0  0  0
 17 23  1  0  0  0  0
 17 22  1  0  0  0  0
 18 17  2  0  0  0  0
 19 18  1  0  0  0  0
 19 20  2  0  0  0  0
 20 21  1  0  0  0  0
 21 22  2  0  0  0  0
 21 25  1  0  0  0  0
 24 18  1  0  0  0  0
M  END
>  <minimizedAffinity>
-4.15710688

$$$$

 OpenBabel03252502443D

 25 27  0  0  1  0  0  0  0  0999 V2000
   36.5520   27.4220   42.6720 C   0  0  0  0  0  0  0  0  0  0  0  0
   35.6030   27.4520   43.2000 H   0  0  0  0  0  0  0  0  0  0  0  0
   36.4860   27.7710   41.5940 H   0  0  0  0  0  0  0  0  0  0  0  0
   37.1620   26.0450   42.5680 C   0  0  1  0  0  0  0  0  0  0  0  0
   36.9700   25.3070   41.3070 C   0  0  0  0  0  0  0  0  0  0  0  0
   38.2950   25.9170   41.6260 C   0  0  2  0  0  0  0  0  0  0  0  0
   37.1600   25.5360   43.5530 H   0  0  0  0  0  0  0  0  0  0  0  0
   36.8210   24.2060   41.4790 H   0  0  0  0  0  0  0  0  0  0  0  0
   36.3280   25.6180   40.4780 H   0  0  0  0  0  0  0  0  0  0  0  0
   38.8430   26.6670   41.1080 H   0  0  0  0  0  0  0  0  0  0  0  0
   39.3450   24.8840   42.0200 C   0  0  0  0  0  3  0  0  0  0  0  0
   39.9400   24.8760   43.3580 C   0  0  0  0  0  2  0  0  0  0  0  0
   40.7830   25.2740   42.1730 C   0  0  0  0  0  2  0  0  0  0  0  0
   37.5580   28.2730   43.4250 C   0  0  0  0  0  0  0  0  0  0  0  0
   38.5510   27.7310   43.3030 H   0  0  0  0  0  0  0  0  0  0  0  0
   37.2960   28.5130   44.4420 H   0  0  0  0  0  0  0  0  0  0  0  0
   39.5010   31.0750   41.8740 C   0  0  0  0  0  0  0  0  0  0  0  0
   39.2060   29.9510   42.6670 C   0  0  0  0  0  0  0  0  0  0  0  0
   37.9470   29.4220   42.5640 C   0  0  0  0  0  0  0  0  0  0  0  0
   37.0510   29.9930   41.7120 N   0  0  0  0  0  0  0  0  0  0  0  0
   37.3470   31.0490   40.9730 C   0  0  0  0  0  0  0  0  0  0  0  0
   38.5640   31.5980   41.0460 N   0  0  0  0  0  0  0  0  0  0  0  0
   40.4340   31.5910   41.8530 H   0  0  0  0  0  0  0  0  0  0  0  0
   40.0640   29.6640   43.2470 H   0  0  0  0  0  0  0  0  0  0  0  0
   36.5370   31.3900   40.3470 H   0  0  0  0  0  0  0  0  0  0  0  0
  1  2  1  0  0  0  0
  1 14  1  0  0  0  0
  3  1  1  0  0  0  0
  4  1  1  0  0  0  0
  4  7  1  1  0  0  0
  5  8  1  0  0  0  0
  5  6  1  0  0  0  0
  5  4  1  0  0  0  0
  6 10  1  6  0  0  0
  6 11  1  0  0  0  0
  6  4  1  0  0  0  0
  9  5  1  0  0  0  0
 11 13  1  0  0  0  0
 11 12  1  0  0  0  0
 13 12  1  0  0  0  0
 14 16  1  0  0  0  0
 15 14  1  0  0  0  0
 17 18  1  0  0  0  0
 18 24  1  0  0  0  0
 19 18  2  0  0  0  0
 19 14  1  0  0  0  0
 20 19  1  0  0  0  0
 21 22  1  0  0  0  0
 21 20  2  0  0  0  0
 22 17  2  0  0  0  0
 23 17  1  0  0  0  0
 25 21  1  0  0  0  0
M  END
>  <minimizedAffinity>
-4.07531548

$$$$

 OpenBabel03252502443D

 25 27  0  0  1  0  0  0  0  0999 V2000
   39.3770   27.2610   43.3970 C   0  0  0  0  0  0  0  0  0  0  0  0
   39.8050   28.1740   42.9910 H   0  0  0  0  0  0  0  0  0  0  0  0
   39.8780   26.9070   44.3520 H   0  0  0  0  0  0  0  0  0  0  0  0
   39.4730   26.0680   42.4780 C   0  0  1  0  0  0  0  0  0  0  0  0
   39.9120   24.7880   43.0620 C   0  0  0  0  0  0  0  0  0  0  0  0
   38.4770   25.0000   42.7090 C   0  0  2  0  0  0  0  0  0  0  0  0
   39.7690   26.3790   41.4550 H   0  0  0  0  0  0  0  0  0  0  0  0
   40.5660   24.2030   42.3590 H   0  0  0  0  0  0  0  0  0  0  0  0
   40.2860   24.6480   44.0800 H   0  0  0  0  0  0  0  0  0  0  0  0
   37.6130   24.9920   43.3310 H   0  0  0  0  0  0  0  0  0  0  0  0
   38.0530   24.2340   41.4610 C   0  0  0  0  0  3  0  0  0  0  0  0
   37.5540   24.9310   40.2740 C   0  0  0  0  0  2  0  0  0  0  0  0
   36.6050   24.1000   41.0990 C   0  0  0  0  0  2  0  0  0  0  0  0
   37.8970   27.4840   43.6470 C   0  0  0  0  0  0  0  0  0  0  0  0
   37.8530   28.2420   44.4940 H   0  0  0  0  0  0  0  0  0  0  0  0
   37.3130   26.5930   43.8060 H   0  0  0  0  0  0  0  0  0  0  0  0
   35.8880   28.9800   40.8620 C   0  0  0  0  0  0  0  0  0  0  0  0
   36.2970   28.0760   41.8600 C   0  0  0  0  0  0  0  0  0  0  0  0
   37.3800   28.4280   42.6210 C   0  0  0  0  0  0  0  0  0  0  0  0
   38.0010   29.6170   42.3870 N   0  0  0  0  0  0  0  0  0  0  0  0
   37.6010   30.4550   41.4460 C   0  0  0  0  0  0  0  0  0  0  0  0
   36.5490   30.1490   40.6780 N   0  0  0  0  0  0  0  0  0  0  0  0
   35.0660   28.8380   40.1960 H   0  0  0  0  0  0  0  0  0  0  0  0
   35.6530   27.2160   41.8740 H   0  0  0  0  0  0  0  0  0  0  0  0
   38.1900   31.3560   41.3780 H   0  0  0  0  0  0  0  0  0  0  0  0
  1 14  1  0  0  0  0
  1  3  1  0  0  0  0
  2  1  1  0  0  0  0
  4  7  1  6  0  0  0
  4  6  1  0  0  0  0
  4  5  1  0  0  0  0
  4  1  1  0  0  0  0
  5  9  1  0  0  0  0
  6  5  1  0  0  0  0
  6 10  1  1  0  0  0
  8  5  1  0  0  0  0
 11  6  1  0  0  0  0
 12 13  1  0  0  0  0
 12 11  1  0  0  0  0
 13 11  1  0  0  0  0
 14 16  1  0  0  0  0
 14 15  1  0  0  0  0
 17 18  1  0  0  0  0
 18 24  1  0  0  0  0
 18 19  2  0  0  0  0
 19 14  1  0  0  0  0
 20 19  1  0  0  0  0
 21 20  2  0  0  0  0
 22 17  2  0  0  0  0
 22 21  1  0  0  0  0
 23 17  1  0  0  0  0
 25 21  1  0  0  0  0
M  END
>  <minimizedAffinity>
-3.99000978

$$$$

 OpenBabel03252502443D

 25 27  0  0  1  0  0  0  0  0999 V2000
   38.5770   29.4140   42.0040 C   0  0  0  0  0  0  0  0  0  0  0  0
   38.9390   30.2620   42.5790 H   0  0  0  0  0  0  0  0  0  0  0  0
   39.4030   28.7950   41.5320 H   0  0  0  0  0  0  0  0  0  0  0  0
   37.6960   29.7870   40.8360 C   0  0  1  0  0  0  0  0  0  0  0  0
   36.2490   29.9180   41.0850 C   0  0  0  0  0  0  0  0  0  0  0  0
   37.0920   31.1360   40.8950 C   0  0  2  0  0  0  0  0  0  0  0  0
   38.0930   29.3650   39.8900 H   0  0  0  0  0  0  0  0  0  0  0  0
   35.6340   29.5410   40.2230 H   0  0  0  0  0  0  0  0  0  0  0  0
   35.7370   29.6590   42.0170 H   0  0  0  0  0  0  0  0  0  0  0  0
   37.2840   31.9440   41.5600 H   0  0  0  0  0  0  0  0  0  0  0  0
   36.8740   31.8030   39.5410 C   0  0  0  0  0  3  0  0  0  0  0  0
   38.0010   32.1330   38.6660 C   0  0  0  0  0  2  0  0  0  0  0  0
   37.2290   33.2430   39.3310 C   0  0  0  0  0  2  0  0  0  0  0  0
   37.7300   28.5370   42.9070 C   0  0  0  0  0  0  0  0  0  0  0  0
   36.8220   28.2610   42.2810 H   0  0  0  0  0  0  0  0  0  0  0  0
   37.5040   28.9480   43.8760 H   0  0  0  0  0  0  0  0  0  0  0  0
   38.2040   24.8740   42.2790 C   0  0  0  0  0  0  0  0  0  0  0  0
   37.6590   26.1690   42.2030 C   0  0  0  0  0  0  0  0  0  0  0  0
   38.2970   27.1620   42.8990 C   0  0  0  0  0  0  0  0  0  0  0  0
   39.4130   26.8600   43.6190 N   0  0  0  0  0  0  0  0  0  0  0  0
   39.9120   25.6370   43.6780 C   0  0  0  0  0  0  0  0  0  0  0  0
   39.3180   24.6380   43.0150 N   0  0  0  0  0  0  0  0  0  0  0  0
   37.8150   24.0080   41.7930 H   0  0  0  0  0  0  0  0  0  0  0  0
   36.7930   26.1760   41.5670 H   0  0  0  0  0  0  0  0  0  0  0  0
   40.7970   25.5500   44.2880 H   0  0  0  0  0  0  0  0  0  0  0  0
  1  2  1  0  0  0  0
  1 14  1  0  0  0  0
  3  1  1  0  0  0  0
  4  7  1  6  0  0  0
  4  6  1  0  0  0  0
  4  5  1  0  0  0  0
  4  1  1  0  0  0  0
  5  9  1  0  0  0  0
  6  5  1  0  0  0  0
  6 10  1  1  0  0  0
  8  5  1  0  0  0  0
 11  6  1  0  0  0  0
 12 13  1  0  0  0  0
 12 11  1  0  0  0  0
 13 11  1  0  0  0  0
 14 16  1  0  0  0  0
 15 14  1  0  0  0  0
 17 22  1  0  0  0  0
 18 17  2  0  0  0  0
 18 19  1  0  0  0  0
 19 14  1  0  0  0  0
 19 20  2  0  0  0  0
 20 21  1  0  0  0  0
 21 25  1  0  0  0  0
 22 21  2  0  0  0  0
 23 17  1  0  0  0  0
 24 18  1  0  0  0  0
M  END
>  <minimizedAffinity>
-3.98233271

$$$$

 OpenBabel03252502443D

 25 27  0  0  1  0  0  0  0  0999 V2000
   37.3500   27.7230   43.5440 C   0  0  0  0  0  0  0  0  0  0  0  0
   36.5490   27.2390   42.9930 H   0  0  0  0  0  0  0  0  0  0  0  0
   37.1390   27.8340   44.6540 H   0  0  0  0  0  0  0  0  0  0  0  0
   37.6510   29.1320   43.0930 C   0  0  1  0  0  0  0  0  0  0  0  0
   39.0530   29.4680   42.7900 C   0  0  0  0  0  0  0  0  0  0  0  0
   38.0710   29.2760   41.6820 C   0  0  2  0  0  0  0  0  0  0  0  0
   36.9640   29.8570   43.5750 H   0  0  0  0  0  0  0  0  0  0  0  0
   39.3180   30.5130   43.1090 H   0  0  0  0  0  0  0  0  0  0  0  0
   39.9170   28.8210   42.9710 H   0  0  0  0  0  0  0  0  0  0  0  0
   38.0660   28.5650   40.8900 H   0  0  0  0  0  0  0  0  0  0  0  0
   37.6600   30.5860   41.0190 C   0  0  0  0  0  3  0  0  0  0  0  0
   36.2530   30.9760   40.9120 C   0  0  0  0  0  2  0  0  0  0  0  0
   37.0130   30.5910   39.6690 C   0  0  0  0  0  2  0  0  0  0  0  0
   38.6300   26.9330   43.3420 C   0  0  0  0  0  0  0  0  0  0  0  0
   38.7840   26.3700   44.3180 H   0  0  0  0  0  0  0  0  0  0  0  0
   39.4800   27.5030   43.0080 H   0  0  0  0  0  0  0  0  0  0  0  0
   38.9790   23.8180   41.2910 C   0  0  0  0  0  0  0  0  0  0  0  0
   39.3320   24.9260   42.0830 C   0  0  0  0  0  0  0  0  0  0  0  0
   38.3130   25.7120   42.5540 C   0  0  0  0  0  0  0  0  0  0  0  0
   37.0270   25.3910   42.2450 N   0  0  0  0  0  0  0  0  0  0  0  0
   36.7130   24.3440   41.5000 C   0  0  0  0  0  0  0  0  0  0  0  0
   37.6780   23.5530   41.0180 N   0  0  0  0  0  0  0  0  0  0  0  0
   39.6620   23.1230   40.8560 H   0  0  0  0  0  0  0  0  0  0  0  0
   40.3970   24.9740   42.2090 H   0  0  0  0  0  0  0  0  0  0  0  0
   35.6540   24.2180   41.3400 H   0  0  0  0  0  0  0  0  0  0  0  0
  1  3  1  0  0  0  0
  2  1  1  0  0  0  0
  4  1  1  0  0  0  0
  4  7  1  1  0  0  0
  5  9  1  0  0  0  0
  5  4  1  0  0  0  0
  5  8  1  0  0  0  0
  6 10  1  6  0  0  0
  6  5  1  0  0  0  0
  6  4  1  0  0  0  0
 11  6  1  0  0  0  0
 12 11  1  0  0  0  0
 13 12  1  0  0  0  0
 13 11  1  0  0  0  0
 14  1  1  0  0  0  0
 14 15  1  0  0  0  0
 16 14  1  0  0  0  0
 17 18  1  0  0  0  0
 18 24  1  0  0  0  0
 18 19  2  0  0  0  0
 19 14  1  0  0  0  0
 20 19  1  0  0  0  0
 21 20  2  0  0  0  0
 22 17  2  0  0  0  0
 22 21  1  0  0  0  0
 23 17  1  0  0  0  0
 25 21  1  0  0  0  0
M  END
>  <minimizedAffinity>
-3.96888757

$$$$
