
 OpenBabel03252504103D

 19 20  0  0  0  0  0  0  0  0999 V2000
   46.9560   34.3410   42.4420 C   0  0  0  0  0  0  0  0  0  0  0  0
   45.6770   34.4300   42.9760 C   0  0  0  0  0  0  0  0  0  0  0  0
   45.0690   33.2590   43.4430 C   0  0  0  0  0  0  0  0  0  0  0  0
   45.7580   32.0880   43.3520 N   0  0  0  0  0  0  0  0  0  0  0  0
   47.0000   32.0460   42.8270 C   0  0  0  0  0  0  0  0  0  0  0  0
   47.6010   33.1490   42.3740 N   0  0  0  0  0  0  0  0  0  0  0  0
   44.0720   33.3210   43.8600 H   0  0  0  0  0  0  0  0  0  0  0  0
   45.0080   35.7600   43.0290 C   0  0  0  0  0  0  0  0  0  0  0  0
   45.9560   36.7620   43.1190 F   0  0  0  0  0  0  0  0  0  0  0  0
   44.3340   35.9480   41.8390 F   0  0  0  0  0  0  0  0  0  0  0  0
   44.1390   35.9090   44.0710 F   0  0  0  0  0  0  0  0  0  0  0  0
   47.7060   30.7280   42.7550 C   0  0  0  0  0  0  0  0  0  0  0  0
   49.1730   30.8410   43.1840 C   0  0  0  0  0  0  0  0  0  0  0  0
   48.1770   30.0280   43.9530 C   0  0  0  0  0  0  0  0  0  0  0  0
   47.5330   35.4770   41.9960 O   0  0  0  0  0  0  0  0  0  0  0  0
   48.7600   35.6020   41.3250 C   0  0  0  0  0  0  0  0  0  0  0  0
   49.6430   34.6770   41.9190 F   0  0  0  0  0  0  0  0  0  0  0  0
   48.5920   35.3820   39.9830 F   0  0  0  0  0  0  0  0  0  0  0  0
   49.3170   36.8420   41.5930 F   0  0  0  0  0  0  0  0  0  0  0  0
  1  2  1  0  0  0  0
  2  8  1  0  0  0  0
  2  3  2  0  0  0  0
  3  7  1  0  0  0  0
  4  3  1  0  0  0  0
  5  4  2  0  0  0  0
  6  1  2  0  0  0  0
  6  5  1  0  0  0  0
  8  9  1  0  0  0  0
  8 11  1  0  0  0  0
 10  8  1  0  0  0  0
 12  5  1  0  0  0  0
 12 13  1  0  0  0  0
 12 14  1  0  0  0  0
 13 14  1  0  0  0  0
 15  1  1  0  0  0  0
 16 19  1  0  0  0  0
 16 17  1  0  0  0  0
 16 15  1  0  0  0  0
 18 16  1  0  0  0  0
M  END
>  <minimizedAffinity>
-4.79452085

>  <minimizedRMSD>
1.48367119

$$$$
