
 OpenBabel03252507213D

 38 41  0  0  1  0  0  0  0  0999 V2000
   39.0650   29.2970   40.3580 C   0  0  0  0  0  0  0  0  0  0  0  0
   39.6610   28.8140   39.3420 O   0  0  0  0  0  0  0  0  0  0  0  0
   38.5910   28.5010   41.4450 N   0  0  0  0  0  0  0  0  0  0  0  0
   38.6820   28.7100   42.8870 C   0  0  0  0  0  0  0  0  0  0  0  0
   37.2950   28.5710   43.5040 C   0  0  0  0  0  0  0  0  0  0  0  0
   36.7920   27.1640   43.3240 C   0  0  0  0  0  0  0  0  0  0  0  0
   37.6370   26.4450   42.2980 C   0  0  0  0  0  0  0  0  0  0  0  0
   37.9020   27.2780   41.0860 C   0  0  2  0  0  0  0  0  0  0  0  0
   38.9310   29.8110   42.9830 H   0  0  0  0  0  0  0  0  0  0  0  0
   39.4410   28.0800   43.3470 H   0  0  0  0  0  0  0  0  0  0  0  0
   36.6590   29.3110   42.9770 H   0  0  0  0  0  0  0  0  0  0  0  0
   37.4440   28.8430   44.5790 H   0  0  0  0  0  0  0  0  0  0  0  0
   35.7340   27.2380   42.9880 H   0  0  0  0  0  0  0  0  0  0  0  0
   36.8590   26.5740   44.2630 H   0  0  0  0  0  0  0  0  0  0  0  0
   37.0280   25.5640   41.9790 H   0  0  0  0  0  0  0  0  0  0  0  0
   38.5680   26.0860   42.7380 H   0  0  0  0  0  0  0  0  0  0  0  0
   36.9460   27.5700   40.5890 H   0  0  0  0  0  0  0  0  0  0  0  0
   39.9290   31.5320   40.8760 C   0  0  0  0  0  0  0  0  0  0  0  0
   38.8600   30.7270   40.4080 C   0  0  0  0  0  0  0  0  0  0  0  0
   37.6800   31.3220   40.0240 C   0  0  0  0  0  0  0  0  0  0  0  0
   37.5840   32.6620   40.1080 N   0  0  0  0  0  0  0  0  0  0  0  0
   38.5970   33.4510   40.5550 C   0  0  0  0  0  0  0  0  0  0  0  0
   39.7520   32.8620   40.9300 N   0  0  0  0  0  0  0  0  0  0  0  0
   40.8620   31.0710   41.1820 H   0  0  0  0  0  0  0  0  0  0  0  0
   38.3950   34.5170   40.5750 H   0  0  0  0  0  0  0  0  0  0  0  0
   36.6020   30.4780   39.5520 C   0  0  0  0  0  0  0  0  0  0  0  0
   35.6640   30.0130   40.4270 C   0  0  0  0  0  0  0  0  0  0  0  0
   34.6460   29.2110   39.9500 C   0  0  0  0  0  0  0  0  0  0  0  0
   34.5300   28.8490   38.6090 C   0  0  0  0  0  0  0  0  0  0  0  0
   35.5180   29.3530   37.7660 C   0  0  0  0  0  0  0  0  0  0  0  0
   36.4940   30.1320   38.2570 N   0  0  0  0  0  0  0  0  0  0  0  0
   35.6210   30.2010   41.4870 H   0  0  0  0  0  0  0  0  0  0  0  0
   33.8750   28.8130   40.5910 H   0  0  0  0  0  0  0  0  0  0  0  0
   33.7400   28.2240   38.2310 H   0  0  0  0  0  0  0  0  0  0  0  0
   35.4840   29.1130   36.7300 H   0  0  0  0  0  0  0  0  0  0  0  0
   38.6940   26.4270   40.1120 C   0  0  0  0  0  3  0  0  0  0  0  0
   39.7240   25.4700   40.5760 C   0  0  0  0  0  2  0  0  0  0  0  0
   38.3720   24.9780   40.0510 C   0  0  0  0  0  2  0  0  0  0  0  0
  1 19  1  0  0  0  0
  1  3  1  0  0  0  0
  2  1  2  0  0  0  0
  3  4  1  0  0  0  0
  4  9  1  0  0  0  0
  4 10  1  0  0  0  0
  4  5  1  0  0  0  0
  5 12  1  0  0  0  0
  6  5  1  0  0  0  0
  6 14  1  0  0  0  0
  7 16  1  0  0  0  0
  7  6  1  0  0  0  0
  8 17  1  6  0  0  0
  8  3  1  0  0  0  0
  8  7  1  0  0  0  0
 11  5  1  0  0  0  0
 13  6  1  0  0  0  0
 15  7  1  0  0  0  0
 18 23  1  0  0  0  0
 18 24  1  0  0  0  0
 19 18  2  0  0  0  0
 20 21  2  0  0  0  0
 20 19  1  0  0  0  0
 21 22  1  0  0  0  0
 22 25  1  0  0  0  0
 22 23  2  0  0  0  0
 26 20  1  0  0  0  0
 26 27  1  0  0  0  0
 27 32  1  0  0  0  0
 28 27  2  0  0  0  0
 28 33  1  0  0  0  0
 29 28  1  0  0  0  0
 30 31  1  0  0  0  0
 30 29  2  0  0  0  0
 31 26  2  0  0  0  0
 34 29  1  0  0  0  0
 35 30  1  0  0  0  0
 36 37  1  0  0  0  0
 36  8  1  0  0  0  0
 38 36  1  0  0  0  0
 38 37  1  0  0  0  0
M  END
>  <minimizedAffinity>
-5.79156637

$$$$

 OpenBabel03252507213D

 38 41  0  0  1  0  0  0  0  0999 V2000
   37.2730   30.1430   41.5320 C   0  0  0  0  0  0  0  0  0  0  0  0
   36.1950   30.8020   41.3690 O   0  0  0  0  0  0  0  0  0  0  0  0
   38.5670   30.7460   41.5560 N   0  0  0  0  0  0  0  0  0  0  0  0
   39.7020   30.5270   42.4490 C   0  0  0  0  0  0  0  0  0  0  0  0
   40.9520   30.2620   41.6190 C   0  0  0  0  0  0  0  0  0  0  0  0
   41.2980   31.4820   40.8070 C   0  0  0  0  0  0  0  0  0  0  0  0
   40.1250   32.4350   40.7910 C   0  0  0  0  0  0  0  0  0  0  0  0
   38.8260   31.7430   40.5370 C   0  0  2  0  0  0  0  0  0  0  0  0
   39.4670   29.5340   42.9410 H   0  0  0  0  0  0  0  0  0  0  0  0
   39.8120   31.3270   43.1790 H   0  0  0  0  0  0  0  0  0  0  0  0
   40.7040   29.3920   40.9760 H   0  0  0  0  0  0  0  0  0  0  0  0
   41.7360   30.0080   42.3760 H   0  0  0  0  0  0  0  0  0  0  0  0
   41.5400   31.1300   39.7800 H   0  0  0  0  0  0  0  0  0  0  0  0
   42.1570   32.0380   41.2390 H   0  0  0  0  0  0  0  0  0  0  0  0
   40.3180   33.1240   39.9330 H   0  0  0  0  0  0  0  0  0  0  0  0
   40.0840   33.0230   41.7090 H   0  0  0  0  0  0  0  0  0  0  0  0
   38.8430   31.2150   39.5540 H   0  0  0  0  0  0  0  0  0  0  0  0
   37.1900   28.1980   43.0220 C   0  0  0  0  0  0  0  0  0  0  0  0
   37.1740   28.7110   41.7010 C   0  0  0  0  0  0  0  0  0  0  0  0
   37.0680   27.8440   40.6370 C   0  0  0  0  0  0  0  0  0  0  0  0
   36.9830   26.5250   40.8950 N   0  0  0  0  0  0  0  0  0  0  0  0
   36.9980   26.0140   42.1540 C   0  0  0  0  0  0  0  0  0  0  0  0
   37.1020   26.8690   43.1930 N   0  0  0  0  0  0  0  0  0  0  0  0
   37.2740   28.8750   43.8660 H   0  0  0  0  0  0  0  0  0  0  0  0
   36.9220   24.9340   42.2300 H   0  0  0  0  0  0  0  0  0  0  0  0
   37.0580   28.3920   39.2970 C   0  0  0  0  0  0  0  0  0  0  0  0
   35.8740   28.6270   38.6620 C   0  0  0  0  0  0  0  0  0  0  0  0
   35.8930   29.1510   37.3850 C   0  0  0  0  0  0  0  0  0  0  0  0
   37.0740   29.4540   36.7060 C   0  0  0  0  0  0  0  0  0  0  0  0
   38.2490   29.1920   37.4060 C   0  0  0  0  0  0  0  0  0  0  0  0
   38.1990   28.6830   38.6470 N   0  0  0  0  0  0  0  0  0  0  0  0
   34.8860   28.4430   39.0510 H   0  0  0  0  0  0  0  0  0  0  0  0
   34.9910   29.3590   36.8310 H   0  0  0  0  0  0  0  0  0  0  0  0
   37.0960   29.8620   35.7110 H   0  0  0  0  0  0  0  0  0  0  0  0
   39.1840   29.4020   36.9430 H   0  0  0  0  0  0  0  0  0  0  0  0
   37.7470   32.8080   40.4770 C   0  0  0  0  0  3  0  0  0  0  0  0
   38.0200   34.1610   39.9430 C   0  0  0  0  0  2  0  0  0  0  0  0
   37.1960   33.1490   39.1400 C   0  0  0  0  0  2  0  0  0  0  0  0
  1  3  1  0  0  0  0
  1 19  1  0  0  0  0
  2  1  2  0  0  0  0
  3  4  1  0  0  0  0
  4  9  1  0  0  0  0
  4 10  1  0  0  0  0
  5 12  1  0  0  0  0
  5  4  1  0  0  0  0
  6 14  1  0  0  0  0
  6  5  1  0  0  0  0
  7  6  1  0  0  0  0
  7 16  1  0  0  0  0
  8 17  1  6  0  0  0
  8  7  1  0  0  0  0
  8  3  1  0  0  0  0
 11  5  1  0  0  0  0
 13  6  1  0  0  0  0
 15  7  1  0  0  0  0
 18 23  1  0  0  0  0
 18 24  1  0  0  0  0
 19 18  2  0  0  0  0
 20 21  2  0  0  0  0
 20 19  1  0  0  0  0
 21 22  1  0  0  0  0
 22 25  1  0  0  0  0
 22 23  2  0  0  0  0
 26 20  1  0  0  0  0
 27 32  1  0  0  0  0
 27 26  1  0  0  0  0
 28 27  2  0  0  0  0
 29 28  1  0  0  0  0
 29 30  2  0  0  0  0
 30 31  1  0  0  0  0
 31 26  2  0  0  0  0
 33 28  1  0  0  0  0
 34 29  1  0  0  0  0
 35 30  1  0  0  0  0
 36  8  1  0  0  0  0
 37 36  1  0  0  0  0
 38 37  1  0  0  0  0
 38 36  1  0  0  0  0
M  END
>  <minimizedAffinity>
-5.44701385

$$$$

 OpenBabel03252507213D

 38 41  0  0  1  0  0  0  0  0999 V2000
   38.3700   30.2710   40.8380 C   0  0  0  0  0  0  0  0  0  0  0  0
   37.0990   30.2870   40.7520 O   0  0  0  0  0  0  0  0  0  0  0  0
   39.1020   29.2260   41.4780 N   0  0  0  0  0  0  0  0  0  0  0  0
   40.3120   28.5210   41.0640 C   0  0  0  0  0  0  0  0  0  0  0  0
   41.3280   28.5530   42.2010 C   0  0  0  0  0  0  0  0  0  0  0  0
   40.7950   27.7930   43.3860 C   0  0  0  0  0  0  0  0  0  0  0  0
   39.3120   27.5530   43.2160 C   0  0  0  0  0  0  0  0  0  0  0  0
   38.5830   28.7710   42.7520 C   0  0  2  0  0  0  0  0  0  0  0  0
   40.7540   29.1930   40.2650 H   0  0  0  0  0  0  0  0  0  0  0  0
   40.0980   27.5240   40.6850 H   0  0  0  0  0  0  0  0  0  0  0  0
   41.4830   29.6270   42.4310 H   0  0  0  0  0  0  0  0  0  0  0  0
   42.2450   28.0850   41.7630 H   0  0  0  0  0  0  0  0  0  0  0  0
   40.9970   28.4140   44.2870 H   0  0  0  0  0  0  0  0  0  0  0  0
   41.2710   26.7950   43.4890 H   0  0  0  0  0  0  0  0  0  0  0  0
   38.9360   27.2990   44.2380 H   0  0  0  0  0  0  0  0  0  0  0  0
   39.1250   26.7060   42.5540 H   0  0  0  0  0  0  0  0  0  0  0  0
   38.7060   29.6080   43.4780 H   0  0  0  0  0  0  0  0  0  0  0  0
   39.6450   32.3440   41.1310 C   0  0  0  0  0  0  0  0  0  0  0  0
   39.1030   31.3720   40.2540 C   0  0  0  0  0  0  0  0  0  0  0  0
   39.2870   31.5040   38.8960 C   0  0  0  0  0  0  0  0  0  0  0  0
   39.9830   32.5650   38.4470 N   0  0  0  0  0  0  0  0  0  0  0  0
   40.5100   33.5090   39.2720 C   0  0  0  0  0  0  0  0  0  0  0  0
   40.3270   33.3730   40.6020 N   0  0  0  0  0  0  0  0  0  0  0  0
   39.5050   32.2480   42.2020 H   0  0  0  0  0  0  0  0  0  0  0  0
   41.0510   34.3150   38.7870 H   0  0  0  0  0  0  0  0  0  0  0  0
   38.7200   30.5000   38.0210 C   0  0  0  0  0  0  0  0  0  0  0  0
   37.5090   30.7110   37.4300 C   0  0  0  0  0  0  0  0  0  0  0  0
   36.9930   29.7370   36.5990 C   0  0  0  0  0  0  0  0  0  0  0  0
   37.6540   28.5380   36.3330 C   0  0  0  0  0  0  0  0  0  0  0  0
   38.8850   28.3810   36.9650 C   0  0  0  0  0  0  0  0  0  0  0  0
   39.3620   29.3450   37.7670 N   0  0  0  0  0  0  0  0  0  0  0  0
   36.8800   31.5790   37.5410 H   0  0  0  0  0  0  0  0  0  0  0  0
   36.0410   29.8440   36.1030 H   0  0  0  0  0  0  0  0  0  0  0  0
   37.2560   27.7750   35.6870 H   0  0  0  0  0  0  0  0  0  0  0  0
   39.4390   27.4870   36.8010 H   0  0  0  0  0  0  0  0  0  0  0  0
   37.1080   28.4210   42.6870 C   0  0  0  0  0  3  0  0  0  0  0  0
   36.6420   27.1100   42.1830 C   0  0  0  0  0  2  0  0  0  0  0  0
   36.5940   27.4400   43.6780 C   0  0  0  0  0  2  0  0  0  0  0  0
  1  3  1  0  0  0  0
  2  1  2  0  0  0  0
  3  8  1  0  0  0  0
  4  3  1  0  0  0  0
  4  5  1  0  0  0  0
  5 11  1  0  0  0  0
  5  6  1  0  0  0  0
  6 14  1  0  0  0  0
  6 13  1  0  0  0  0
  7  6  1  0  0  0  0
  7 15  1  0  0  0  0
  8  7  1  0  0  0  0
  8 17  1  1  0  0  0
  9  4  1  0  0  0  0
 10  4  1  0  0  0  0
 12  5  1  0  0  0  0
 16  7  1  0  0  0  0
 18 24  1  0  0  0  0
 19  1  1  0  0  0  0
 19 18  2  0  0  0  0
 20 19  1  0  0  0  0
 21 20  2  0  0  0  0
 21 22  1  0  0  0  0
 22 23  2  0  0  0  0
 23 18  1  0  0  0  0
 25 22  1  0  0  0  0
 26 20  1  0  0  0  0
 27 32  1  0  0  0  0
 27 26  2  0  0  0  0
 28 27  1  0  0  0  0
 29 28  2  0  0  0  0
 29 30  1  0  0  0  0
 30 31  2  0  0  0  0
 31 26  1  0  0  0  0
 33 28  1  0  0  0  0
 34 29  1  0  0  0  0
 35 30  1  0  0  0  0
 36  8  1  0  0  0  0
 36 38  1  0  0  0  0
 37 36  1  0  0  0  0
 37 38  1  0  0  0  0
M  END
>  <minimizedAffinity>
-5.4228158

$$$$

 OpenBabel03252507213D

 38 41  0  0  1  0  0  0  0  0999 V2000
   39.3710   29.2720   40.0330 C   0  0  0  0  0  0  0  0  0  0  0  0
   39.1590   28.2490   39.3040 O   0  0  0  0  0  0  0  0  0  0  0  0
   38.5860   30.4630   39.9640 N   0  0  0  0  0  0  0  0  0  0  0  0
   38.0330   31.3000   41.0250 C   0  0  0  0  0  0  0  0  0  0  0  0
   38.4260   32.7520   40.7770 C   0  0  0  0  0  0  0  0  0  0  0  0
   37.8000   33.2420   39.4980 C   0  0  0  0  0  0  0  0  0  0  0  0
   37.2900   32.0680   38.6950 C   0  0  0  0  0  0  0  0  0  0  0  0
   38.2720   30.9440   38.6340 C   0  0  2  0  0  0  0  0  0  0  0  0
   38.6240   30.9950   41.9420 H   0  0  0  0  0  0  0  0  0  0  0  0
   36.9650   31.1440   41.1580 H   0  0  0  0  0  0  0  0  0  0  0  0
   39.5340   32.7570   40.7250 H   0  0  0  0  0  0  0  0  0  0  0  0
   38.0510   33.2970   41.6790 H   0  0  0  0  0  0  0  0  0  0  0  0
   38.5890   33.7940   38.9410 H   0  0  0  0  0  0  0  0  0  0  0  0
   36.9270   33.9020   39.6900 H   0  0  0  0  0  0  0  0  0  0  0  0
   37.1540   32.4590   37.6570 H   0  0  0  0  0  0  0  0  0  0  0  0
   36.3240   31.7250   39.0700 H   0  0  0  0  0  0  0  0  0  0  0  0
   39.2300   31.2790   38.1680 H   0  0  0  0  0  0  0  0  0  0  0  0
   41.6960   29.8060   40.5980 C   0  0  0  0  0  0  0  0  0  0  0  0
   40.4630   29.2180   40.9780 C   0  0  0  0  0  0  0  0  0  0  0  0
   40.3480   28.6230   42.2140 C   0  0  0  0  0  0  0  0  0  0  0  0
   41.4220   28.6200   43.0240 N   0  0  0  0  0  0  0  0  0  0  0  0
   42.6130   29.1780   42.6780 C   0  0  0  0  0  0  0  0  0  0  0  0
   42.7200   29.7610   41.4650 N   0  0  0  0  0  0  0  0  0  0  0  0
   41.7950   30.2770   39.6260 H   0  0  0  0  0  0  0  0  0  0  0  0
   43.4020   29.1120   43.4190 H   0  0  0  0  0  0  0  0  0  0  0  0
   39.0790   28.0250   42.5770 C   0  0  0  0  0  0  0  0  0  0  0  0
   38.1930   28.7170   43.3490 C   0  0  0  0  0  0  0  0  0  0  0  0
   36.9900   28.1240   43.6790 C   0  0  0  0  0  0  0  0  0  0  0  0
   36.6360   26.8420   43.2600 C   0  0  0  0  0  0  0  0  0  0  0  0
   37.5810   26.1870   42.4750 C   0  0  0  0  0  0  0  0  0  0  0  0
   38.7410   26.7890   42.1690 N   0  0  0  0  0  0  0  0  0  0  0  0
   38.3240   29.7080   43.7510 H   0  0  0  0  0  0  0  0  0  0  0  0
   36.2480   28.6190   44.2860 H   0  0  0  0  0  0  0  0  0  0  0  0
   35.7010   26.3750   43.5140 H   0  0  0  0  0  0  0  0  0  0  0  0
   37.3690   25.2060   42.1230 H   0  0  0  0  0  0  0  0  0  0  0  0
   37.6760   29.8650   37.7500 C   0  0  0  0  0  3  0  0  0  0  0  0
   36.2180   29.6150   37.7070 C   0  0  0  0  0  2  0  0  0  0  0  0
   36.9320   30.3050   36.5410 C   0  0  0  0  0  2  0  0  0  0  0  0
  1 19  1  0  0  0  0
  2  1  2  0  0  0  0
  3  1  1  0  0  0  0
  3  4  1  0  0  0  0
  4 10  1  0  0  0  0
  4  9  1  0  0  0  0
  5  4  1  0  0  0  0
  5 12  1  0  0  0  0
  6 14  1  0  0  0  0
  6  5  1  0  0  0  0
  7 16  1  0  0  0  0
  7  6  1  0  0  0  0
  8 17  1  6  0  0  0
  8  7  1  0  0  0  0
  8  3  1  0  0  0  0
 11  5  1  0  0  0  0
 13  6  1  0  0  0  0
 15  7  1  0  0  0  0
 18 19  2  0  0  0  0
 18 23  1  0  0  0  0
 19 20  1  0  0  0  0
 20 26  1  0  0  0  0
 20 21  2  0  0  0  0
 22 21  1  0  0  0  0
 22 25  1  0  0  0  0
 23 22  2  0  0  0  0
 24 18  1  0  0  0  0
 26 27  1  0  0  0  0
 27 28  2  0  0  0  0
 27 32  1  0  0  0  0
 28 33  1  0  0  0  0
 29 34  1  0  0  0  0
 29 28  1  0  0  0  0
 30 29  2  0  0  0  0
 31 30  1  0  0  0  0
 31 26  2  0  0  0  0
 35 30  1  0  0  0  0
 36  8  1  0  0  0  0
 37 36  1  0  0  0  0
 38 37  1  0  0  0  0
 38 36  1  0  0  0  0
M  END
>  <minimizedAffinity>
-5.25701046

$$$$

 OpenBabel03252507213D

 38 41  0  0  1  0  0  0  0  0999 V2000
   38.9470   28.9210   39.7810 C   0  0  0  0  0  0  0  0  0  0  0  0
   40.2060   29.0140   39.6130 O   0  0  0  0  0  0  0  0  0  0  0  0
   38.3400   28.6560   41.0470 N   0  0  0  0  0  0  0  0  0  0  0  0
   37.1790   29.2660   41.6900 C   0  0  0  0  0  0  0  0  0  0  0  0
   36.2180   28.1710   42.1370 C   0  0  0  0  0  0  0  0  0  0  0  0
   36.8690   27.3140   43.1890 C   0  0  0  0  0  0  0  0  0  0  0  0
   38.3570   27.5740   43.2120 C   0  0  0  0  0  0  0  0  0  0  0  0
   38.9550   27.6150   41.8440 C   0  0  2  0  0  0  0  0  0  0  0  0
   36.6440   29.7890   40.8390 H   0  0  0  0  0  0  0  0  0  0  0  0
   37.4630   29.9600   42.4790 H   0  0  0  0  0  0  0  0  0  0  0  0
   35.9780   27.5930   41.2200 H   0  0  0  0  0  0  0  0  0  0  0  0
   35.3260   28.7270   42.5210 H   0  0  0  0  0  0  0  0  0  0  0  0
   36.6530   26.2550   42.9250 H   0  0  0  0  0  0  0  0  0  0  0  0
   36.4870   27.5440   44.2070 H   0  0  0  0  0  0  0  0  0  0  0  0
   38.8000   26.7010   43.7520 H   0  0  0  0  0  0  0  0  0  0  0  0
   38.5880   28.4830   43.7700 H   0  0  0  0  0  0  0  0  0  0  0  0
   38.7910   26.6490   41.3110 H   0  0  0  0  0  0  0  0  0  0  0  0
   37.5990   27.9290   37.9900 C   0  0  0  0  0  0  0  0  0  0  0  0
   38.0940   29.0940   38.6280 C   0  0  0  0  0  0  0  0  0  0  0  0
   37.7520   30.3340   38.1360 C   0  0  0  0  0  0  0  0  0  0  0  0
   36.9530   30.3930   37.0540 N   0  0  0  0  0  0  0  0  0  0  0  0
   36.4700   29.2870   36.4280 C   0  0  0  0  0  0  0  0  0  0  0  0
   36.8070   28.0750   36.9160 N   0  0  0  0  0  0  0  0  0  0  0  0
   37.8640   26.9480   38.3710 H   0  0  0  0  0  0  0  0  0  0  0  0
   35.8350   29.4680   35.5670 H   0  0  0  0  0  0  0  0  0  0  0  0
   38.2730   31.5090   38.8030 C   0  0  0  0  0  0  0  0  0  0  0  0
   37.4920   32.2000   39.6820 C   0  0  0  0  0  0  0  0  0  0  0  0
   38.0150   33.3160   40.3050 C   0  0  0  0  0  0  0  0  0  0  0  0
   39.3110   33.7760   40.0750 C   0  0  0  0  0  0  0  0  0  0  0  0
   40.0580   33.0300   39.1670 C   0  0  0  0  0  0  0  0  0  0  0  0
   39.5240   31.9480   38.5780 N   0  0  0  0  0  0  0  0  0  0  0  0
   36.4760   31.9720   39.9590 H   0  0  0  0  0  0  0  0  0  0  0  0
   37.4480   33.9040   41.0100 H   0  0  0  0  0  0  0  0  0  0  0  0
   39.7240   34.6450   40.5570 H   0  0  0  0  0  0  0  0  0  0  0  0
   41.0560   33.3290   38.9500 H   0  0  0  0  0  0  0  0  0  0  0  0
   40.4500   27.8120   42.0060 C   0  0  0  0  0  3  0  0  0  0  0  0
   41.0050   28.8020   42.9560 C   0  0  0  0  0  2  0  0  0  0  0  0
   41.0770   27.3010   43.2520 C   0  0  0  0  0  2  0  0  0  0  0  0
  1  3  1  0  0  0  0
  2  1  2  0  0  0  0
  3  4  1  0  0  0  0
  3  8  1  0  0  0  0
  4  5  1  0  0  0  0
  4 10  1  0  0  0  0
  5 12  1  0  0  0  0
  5  6  1  0  0  0  0
  6  7  1  0  0  0  0
  6 14  1  0  0  0  0
  7 15  1  0  0  0  0
  7 16  1  0  0  0  0
  8 17  1  6  0  0  0
  8 36  1  0  0  0  0
  8  7  1  0  0  0  0
  9  4  1  0  0  0  0
 11  5  1  0  0  0  0
 13  6  1  0  0  0  0
 18 24  1  0  0  0  0
 18 19  1  0  0  0  0
 19  1  1  0  0  0  0
 20 19  2  0  0  0  0
 20 26  1  0  0  0  0
 21 20  1  0  0  0  0
 22 23  1  0  0  0  0
 22 21  2  0  0  0  0
 23 18  2  0  0  0  0
 25 22  1  0  0  0  0
 26 27  1  0  0  0  0
 27 32  1  0  0  0  0
 27 28  2  0  0  0  0
 28 33  1  0  0  0  0
 29 28  1  0  0  0  0
 29 34  1  0  0  0  0
 30 29  2  0  0  0  0
 31 26  2  0  0  0  0
 31 30  1  0  0  0  0
 35 30  1  0  0  0  0
 36 37  1  0  0  0  0
 36 38  1  0  0  0  0
 37 38  1  0  0  0  0
M  END
>  <minimizedAffinity>
-5.25150824

$$$$

 OpenBabel03252507213D

 38 41  0  0  1  0  0  0  0  0999 V2000
   35.7130   28.3340   39.7040 C   0  0  0  0  0  0  0  0  0  0  0  0
   34.9900   28.9820   40.5280 O   0  0  0  0  0  0  0  0  0  0  0  0
   36.7050   27.3870   40.1030 N   0  0  0  0  0  0  0  0  0  0  0  0
   37.0130   26.0570   39.5840 C   0  0  0  0  0  0  0  0  0  0  0  0
   38.5040   25.9700   39.2760 C   0  0  0  0  0  0  0  0  0  0  0  0
   39.3000   26.1110   40.5460 C   0  0  0  0  0  0  0  0  0  0  0  0
   38.4140   26.6440   41.6490 C   0  0  0  0  0  0  0  0  0  0  0  0
   37.5620   27.7860   41.2000 C   0  0  2  0  0  0  0  0  0  0  0  0
   36.5090   26.0420   38.5700 H   0  0  0  0  0  0  0  0  0  0  0  0
   36.6450   25.2670   40.2340 H   0  0  0  0  0  0  0  0  0  0  0  0
   38.7100   26.7960   38.5630 H   0  0  0  0  0  0  0  0  0  0  0  0
   38.6270   24.9680   38.7960 H   0  0  0  0  0  0  0  0  0  0  0  0
   40.1340   26.8140   40.3310 H   0  0  0  0  0  0  0  0  0  0  0  0
   39.6970   25.1350   40.8980 H   0  0  0  0  0  0  0  0  0  0  0  0
   39.1150   27.0280   42.4300 H   0  0  0  0  0  0  0  0  0  0  0  0
   37.8070   25.8490   42.0840 H   0  0  0  0  0  0  0  0  0  0  0  0
   38.1930   28.6330   40.8380 H   0  0  0  0  0  0  0  0  0  0  0  0
   34.5170   27.8150   37.6280 C   0  0  0  0  0  0  0  0  0  0  0  0
   35.5130   28.5730   38.2920 C   0  0  0  0  0  0  0  0  0  0  0  0
   36.2480   29.4970   37.5840 C   0  0  0  0  0  0  0  0  0  0  0  0
   35.9900   29.6460   36.2720 N   0  0  0  0  0  0  0  0  0  0  0  0
   35.0400   28.9290   35.6160 C   0  0  0  0  0  0  0  0  0  0  0  0
   34.3220   28.0250   36.3160 N   0  0  0  0  0  0  0  0  0  0  0  0
   33.9330   27.0840   38.1780 H   0  0  0  0  0  0  0  0  0  0  0  0
   34.9280   29.1430   34.5580 H   0  0  0  0  0  0  0  0  0  0  0  0
   37.2630   30.2560   38.2850 C   0  0  0  0  0  0  0  0  0  0  0  0
   38.5580   29.8280   38.2880 C   0  0  0  0  0  0  0  0  0  0  0  0
   39.5050   30.5720   38.9630 C   0  0  0  0  0  0  0  0  0  0  0  0
   39.2000   31.7480   39.6480 C   0  0  0  0  0  0  0  0  0  0  0  0
   37.8620   32.1320   39.6090 C   0  0  0  0  0  0  0  0  0  0  0  0
   36.9630   31.3890   38.9440 N   0  0  0  0  0  0  0  0  0  0  0  0
   38.9460   28.9430   37.8110 H   0  0  0  0  0  0  0  0  0  0  0  0
   40.5450   30.2870   39.0020 H   0  0  0  0  0  0  0  0  0  0  0  0
   39.9330   32.3320   40.1760 H   0  0  0  0  0  0  0  0  0  0  0  0
   37.5650   33.0220   40.1130 H   0  0  0  0  0  0  0  0  0  0  0  0
   36.7790   28.2710   42.4050 C   0  0  0  0  0  3  0  0  0  0  0  0
   36.4470   27.3680   43.5310 C   0  0  0  0  0  2  0  0  0  0  0  0
   37.5230   28.4490   43.6790 C   0  0  0  0  0  2  0  0  0  0  0  0
  1  3  1  0  0  0  0
  1  2  2  0  0  0  0
  3  8  1  0  0  0  0
  4  3  1  0  0  0  0
  4 10  1  0  0  0  0
  5  4  1  0  0  0  0
  5  6  1  0  0  0  0
  6 14  1  0  0  0  0
  6  7  1  0  0  0  0
  7 16  1  0  0  0  0
  7 15  1  0  0  0  0
  8 17  1  6  0  0  0
  8  7  1  0  0  0  0
  8 36  1  0  0  0  0
  9  4  1  0  0  0  0
 11  5  1  0  0  0  0
 12  5  1  0  0  0  0
 13  6  1  0  0  0  0
 18 24  1  0  0  0  0
 18 19  1  0  0  0  0
 19  1  1  0  0  0  0
 20 26  1  0  0  0  0
 20 19  2  0  0  0  0
 21 20  1  0  0  0  0
 22 21  2  0  0  0  0
 22 23  1  0  0  0  0
 23 18  2  0  0  0  0
 25 22  1  0  0  0  0
 26 27  2  0  0  0  0
 26 31  1  0  0  0  0
 27 28  1  0  0  0  0
 28 33  1  0  0  0  0
 28 29  2  0  0  0  0
 29 34  1  0  0  0  0
 30 29  1  0  0  0  0
 30 35  1  0  0  0  0
 31 30  2  0  0  0  0
 32 27  1  0  0  0  0
 36 37  1  0  0  0  0
 36 38  1  0  0  0  0
 37 38  1  0  0  0  0
M  END
>  <minimizedAffinity>
-5.12435913

$$$$

 OpenBabel03252507213D

 38 41  0  0  1  0  0  0  0  0999 V2000
   38.5540   27.4890   39.2450 C   0  0  0  0  0  0  0  0  0  0  0  0
   38.4650   26.6290   38.3100 O   0  0  0  0  0  0  0  0  0  0  0  0
   38.2840   27.1910   40.6150 N   0  0  0  0  0  0  0  0  0  0  0  0
   39.0110   27.5560   41.8280 C   0  0  0  0  0  0  0  0  0  0  0  0
   38.0430   28.1860   42.8240 C   0  0  0  0  0  0  0  0  0  0  0  0
   37.0130   27.1740   43.2500 C   0  0  0  0  0  0  0  0  0  0  0  0
   37.0390   25.9910   42.3100 C   0  0  0  0  0  0  0  0  0  0  0  0
   37.0990   26.3990   40.8740 C   0  0  2  0  0  0  0  0  0  0  0  0
   39.6770   28.4090   41.4950 H   0  0  0  0  0  0  0  0  0  0  0  0
   39.5850   26.7240   42.2300 H   0  0  0  0  0  0  0  0  0  0  0  0
   37.5860   29.0460   42.2920 H   0  0  0  0  0  0  0  0  0  0  0  0
   38.6970   28.5210   43.6680 H   0  0  0  0  0  0  0  0  0  0  0  0
   36.0260   27.6850   43.2230 H   0  0  0  0  0  0  0  0  0  0  0  0
   37.2160   26.7780   44.2680 H   0  0  0  0  0  0  0  0  0  0  0  0
   36.0660   25.4640   42.4740 H   0  0  0  0  0  0  0  0  0  0  0  0
   37.8530   25.3090   42.5590 H   0  0  0  0  0  0  0  0  0  0  0  0
   36.2160   27.0260   40.6030 H   0  0  0  0  0  0  0  0  0  0  0  0
   40.3310   29.1480   38.9300 C   0  0  0  0  0  0  0  0  0  0  0  0
   38.9500   28.8340   38.8950 C   0  0  0  0  0  0  0  0  0  0  0  0
   38.0430   29.8050   38.5350 C   0  0  0  0  0  0  0  0  0  0  0  0
   38.5080   31.0300   38.2270 N   0  0  0  0  0  0  0  0  0  0  0  0
   39.8280   31.3510   38.2560 C   0  0  0  0  0  0  0  0  0  0  0  0
   40.7130   30.3950   38.6090 N   0  0  0  0  0  0  0  0  0  0  0  0
   41.0530   28.3890   39.2130 H   0  0  0  0  0  0  0  0  0  0  0  0
   40.0760   32.3720   37.9860 H   0  0  0  0  0  0  0  0  0  0  0  0
   36.6360   29.4610   38.5090 C   0  0  0  0  0  0  0  0  0  0  0  0
   35.8760   29.6060   39.6330 C   0  0  0  0  0  0  0  0  0  0  0  0
   34.5370   29.2710   39.5800 C   0  0  0  0  0  0  0  0  0  0  0  0
   33.9200   28.7890   38.4260 C   0  0  0  0  0  0  0  0  0  0  0  0
   34.7480   28.6630   37.3130 C   0  0  0  0  0  0  0  0  0  0  0  0
   36.0450   28.9970   37.3940 N   0  0  0  0  0  0  0  0  0  0  0  0
   36.2070   29.9600   40.5950 H   0  0  0  0  0  0  0  0  0  0  0  0
   33.8840   29.3630   40.4340 H   0  0  0  0  0  0  0  0  0  0  0  0
   32.8780   28.5260   38.3790 H   0  0  0  0  0  0  0  0  0  0  0  0
   34.3360   28.3010   36.4010 H   0  0  0  0  0  0  0  0  0  0  0  0
   37.0490   25.1350   40.0390 C   0  0  0  0  0  3  0  0  0  0  0  0
   37.6510   23.8680   40.5100 C   0  0  0  0  0  2  0  0  0  0  0  0
   36.1310   24.0550   40.4850 C   0  0  0  0  0  2  0  0  0  0  0  0
  1  3  1  0  0  0  0
  2  1  2  0  0  0  0
  3  8  1  0  0  0  0
  3  4  1  0  0  0  0
  4 10  1  0  0  0  0
  4  5  1  0  0  0  0
  5  6  1  0  0  0  0
  5 12  1  0  0  0  0
  6 14  1  0  0  0  0
  7 15  1  0  0  0  0
  7 16  1  0  0  0  0
  7  6  1  0  0  0  0
  8 17  1  6  0  0  0
  8  7  1  0  0  0  0
  9  4  1  0  0  0  0
 11  5  1  0  0  0  0
 13  6  1  0  0  0  0
 18 24  1  0  0  0  0
 19 18  1  0  0  0  0
 19  1  1  0  0  0  0
 20 19  2  0  0  0  0
 21 22  2  0  0  0  0
 21 20  1  0  0  0  0
 22 23  1  0  0  0  0
 23 18  2  0  0  0  0
 25 22  1  0  0  0  0
 26 20  1  0  0  0  0
 26 27  1  0  0  0  0
 27 32  1  0  0  0  0
 28 27  2  0  0  0  0
 28 33  1  0  0  0  0
 29 28  1  0  0  0  0
 30 31  1  0  0  0  0
 30 29  2  0  0  0  0
 31 26  2  0  0  0  0
 34 29  1  0  0  0  0
 35 30  1  0  0  0  0
 36 38  1  0  0  0  0
 36 37  1  0  0  0  0
 36  8  1  0  0  0  0
 38 37  1  0  0  0  0
M  END
>  <minimizedAffinity>
-5.10014772

$$$$

 OpenBabel03252507213D

 38 41  0  0  1  0  0  0  0  0999 V2000
   39.8390   29.4600   40.2680 C   0  0  0  0  0  0  0  0  0  0  0  0
   40.1910   30.0030   41.3650 O   0  0  0  0  0  0  0  0  0  0  0  0
   38.7350   28.5600   40.1560 N   0  0  0  0  0  0  0  0  0  0  0  0
   37.6720   28.4800   39.1570 C   0  0  0  0  0  0  0  0  0  0  0  0
   37.5860   27.0530   38.6270 C   0  0  0  0  0  0  0  0  0  0  0  0
   37.1810   26.1170   39.7350 C   0  0  0  0  0  0  0  0  0  0  0  0
   37.3370   26.8080   41.0700 C   0  0  0  0  0  0  0  0  0  0  0  0
   38.6290   27.5480   41.1870 C   0  0  2  0  0  0  0  0  0  0  0  0
   38.0750   29.0860   38.2890 H   0  0  0  0  0  0  0  0  0  0  0  0
   36.7290   28.8760   39.5280 H   0  0  0  0  0  0  0  0  0  0  0  0
   38.5980   26.8200   38.2340 H   0  0  0  0  0  0  0  0  0  0  0  0
   36.8260   27.1100   37.8080 H   0  0  0  0  0  0  0  0  0  0  0  0
   37.8450   25.2270   39.6660 H   0  0  0  0  0  0  0  0  0  0  0  0
   36.1160   25.8140   39.6530 H   0  0  0  0  0  0  0  0  0  0  0  0
   37.3460   25.9850   41.8270 H   0  0  0  0  0  0  0  0  0  0  0  0
   36.4890   27.4620   41.2750 H   0  0  0  0  0  0  0  0  0  0  0  0
   39.4960   26.8560   41.0640 H   0  0  0  0  0  0  0  0  0  0  0  0
   41.5480   28.8220   38.6310 C   0  0  0  0  0  0  0  0  0  0  0  0
   40.5990   29.7740   39.0800 C   0  0  0  0  0  0  0  0  0  0  0  0
   40.4340   30.9490   38.3830 C   0  0  0  0  0  0  0  0  0  0  0  0
   41.1900   31.1530   37.2880 N   0  0  0  0  0  0  0  0  0  0  0  0
   42.1070   30.2530   36.8420 C   0  0  0  0  0  0  0  0  0  0  0  0
   42.2630   29.1020   37.5300 N   0  0  0  0  0  0  0  0  0  0  0  0
   41.6850   27.8940   39.1750 H   0  0  0  0  0  0  0  0  0  0  0  0
   42.6520   30.5340   35.9470 H   0  0  0  0  0  0  0  0  0  0  0  0
   39.4600   31.9080   38.8640 C   0  0  0  0  0  0  0  0  0  0  0  0
   38.1530   31.8010   38.4910 C   0  0  0  0  0  0  0  0  0  0  0  0
   37.2460   32.7270   38.9660 C   0  0  0  0  0  0  0  0  0  0  0  0
   37.6040   33.7760   39.8120 C   0  0  0  0  0  0  0  0  0  0  0  0
   38.9530   33.8320   40.1570 C   0  0  0  0  0  0  0  0  0  0  0  0
   39.8110   32.9170   39.6810 N   0  0  0  0  0  0  0  0  0  0  0  0
   37.7260   31.0530   37.8440 H   0  0  0  0  0  0  0  0  0  0  0  0
   36.1980   32.6960   38.7080 H   0  0  0  0  0  0  0  0  0  0  0  0
   36.9020   34.5010   40.1850 H   0  0  0  0  0  0  0  0  0  0  0  0
   39.2890   34.6090   40.8010 H   0  0  0  0  0  0  0  0  0  0  0  0
   38.6930   28.1330   42.5850 C   0  0  0  0  0  3  0  0  0  0  0  0
   37.5090   28.7490   43.2250 C   0  0  0  0  0  2  0  0  0  0  0  0
   38.0230   27.3780   43.6750 C   0  0  0  0  0  2  0  0  0  0  0  0
  1  2  2  0  0  0  0
  3  1  1  0  0  0  0
  3  8  1  0  0  0  0
  4 10  1  0  0  0  0
  4  3  1  0  0  0  0
  5  4  1  0  0  0  0
  5  6  1  0  0  0  0
  6  7  1  0  0  0  0
  7  8  1  0  0  0  0
  7 16  1  0  0  0  0
  7 15  1  0  0  0  0
  8 17  1  6  0  0  0
  8 36  1  0  0  0  0
  9  4  1  0  0  0  0
 11  5  1  0  0  0  0
 12  5  1  0  0  0  0
 13  6  1  0  0  0  0
 14  6  1  0  0  0  0
 18 19  1  0  0  0  0
 18 24  1  0  0  0  0
 19  1  1  0  0  0  0
 20 26  1  0  0  0  0
 20 19  2  0  0  0  0
 21 20  1  0  0  0  0
 22 21  2  0  0  0  0
 22 23  1  0  0  0  0
 23 18  2  0  0  0  0
 25 22  1  0  0  0  0
 26 31  1  0  0  0  0
 27 26  2  0  0  0  0
 27 28  1  0  0  0  0
 28 29  2  0  0  0  0
 29 30  1  0  0  0  0
 29 34  1  0  0  0  0
 30 35  1  0  0  0  0
 31 30  2  0  0  0  0
 32 27  1  0  0  0  0
 33 28  1  0  0  0  0
 36 37  1  0  0  0  0
 36 38  1  0  0  0  0
 37 38  1  0  0  0  0
M  END
>  <minimizedAffinity>
-5.07290506

$$$$

 OpenBabel03252507213D

 38 41  0  0  1  0  0  0  0  0999 V2000
   39.4830   28.0300   40.2130 C   0  0  0  0  0  0  0  0  0  0  0  0
   39.7790   27.8850   38.9830 O   0  0  0  0  0  0  0  0  0  0  0  0
   40.2120   27.4130   41.2750 N   0  0  0  0  0  0  0  0  0  0  0  0
   40.6720   27.9540   42.5520 C   0  0  0  0  0  0  0  0  0  0  0  0
   40.2220   27.0320   43.6790 C   0  0  0  0  0  0  0  0  0  0  0  0
   40.8850   25.6880   43.5390 C   0  0  0  0  0  0  0  0  0  0  0  0
   41.4890   25.5560   42.1600 C   0  0  0  0  0  0  0  0  0  0  0  0
   40.5660   26.0220   41.0820 C   0  0  2  0  0  0  0  0  0  0  0  0
   40.0530   28.8930   42.6840 H   0  0  0  0  0  0  0  0  0  0  0  0
   41.7390   28.1660   42.5480 H   0  0  0  0  0  0  0  0  0  0  0  0
   39.1190   26.9630   43.5860 H   0  0  0  0  0  0  0  0  0  0  0  0
   40.5270   27.5700   44.6120 H   0  0  0  0  0  0  0  0  0  0  0  0
   40.0980   24.9190   43.7050 H   0  0  0  0  0  0  0  0  0  0  0  0
   41.7150   25.5550   44.2660 H   0  0  0  0  0  0  0  0  0  0  0  0
   41.6560   24.4600   42.0160 H   0  0  0  0  0  0  0  0  0  0  0  0
   42.4510   26.0680   42.1020 H   0  0  0  0  0  0  0  0  0  0  0  0
   39.6170   25.4340   41.0910 H   0  0  0  0  0  0  0  0  0  0  0  0
   38.5250   30.2690   40.4930 C   0  0  0  0  0  0  0  0  0  0  0  0
   38.3500   28.8640   40.5450 C   0  0  0  0  0  0  0  0  0  0  0  0
   37.1270   28.3450   40.9050 C   0  0  0  0  0  0  0  0  0  0  0  0
   36.1320   29.2020   41.1990 N   0  0  0  0  0  0  0  0  0  0  0  0
   36.2800   30.5530   41.1560 C   0  0  0  0  0  0  0  0  0  0  0  0
   37.4810   31.0560   40.8020 N   0  0  0  0  0  0  0  0  0  0  0  0
   39.4860   30.6860   40.2110 H   0  0  0  0  0  0  0  0  0  0  0  0
   35.4020   31.1360   41.4140 H   0  0  0  0  0  0  0  0  0  0  0  0
   36.9740   26.9050   40.9550 C   0  0  0  0  0  0  0  0  0  0  0  0
   37.0480   26.2500   42.1480 C   0  0  0  0  0  0  0  0  0  0  0  0
   36.8980   24.8770   42.1660 C   0  0  0  0  0  0  0  0  0  0  0  0
   36.6730   24.1230   41.0140 C   0  0  0  0  0  0  0  0  0  0  0  0
   36.6080   24.8490   39.8280 C   0  0  0  0  0  0  0  0  0  0  0  0
   36.7570   26.1830   39.8410 N   0  0  0  0  0  0  0  0  0  0  0  0
   37.2200   26.6900   43.1160 H   0  0  0  0  0  0  0  0  0  0  0  0
   36.9460   24.3020   43.0770 H   0  0  0  0  0  0  0  0  0  0  0  0
   36.5560   23.0540   41.0220 H   0  0  0  0  0  0  0  0  0  0  0  0
   36.4380   24.3310   38.9140 H   0  0  0  0  0  0  0  0  0  0  0  0
   41.2560   25.7750   39.7540 C   0  0  0  0  0  3  0  0  0  0  0  0
   42.3960   24.8390   39.6330 C   0  0  0  0  0  2  0  0  0  0  0  0
   41.0130   24.4700   39.0880 C   0  0  0  0  0  2  0  0  0  0  0  0
  1 19  1  0  0  0  0
  1  3  1  0  0  0  0
  2  1  2  0  0  0  0
  3  4  1  0  0  0  0
  4  9  1  0  0  0  0
  4  5  1  0  0  0  0
  5 12  1  0  0  0  0
  6  5  1  0  0  0  0
  6 13  1  0  0  0  0
  6 14  1  0  0  0  0
  7  6  1  0  0  0  0
  8 17  1  1  0  0  0
  8  3  1  0  0  0  0
  8  7  1  0  0  0  0
 10  4  1  0  0  0  0
 11  5  1  0  0  0  0
 15  7  1  0  0  0  0
 16  7  1  0  0  0  0
 18 19  2  0  0  0  0
 18 23  1  0  0  0  0
 19 20  1  0  0  0  0
 20 26  1  0  0  0  0
 20 21  2  0  0  0  0
 22 21  1  0  0  0  0
 22 25  1  0  0  0  0
 23 22  2  0  0  0  0
 24 18  1  0  0  0  0
 26 27  1  0  0  0  0
 27 28  2  0  0  0  0
 27 32  1  0  0  0  0
 28 33  1  0  0  0  0
 29 34  1  0  0  0  0
 29 28  1  0  0  0  0
 30 31  1  0  0  0  0
 30 29  2  0  0  0  0
 31 26  2  0  0  0  0
 35 30  1  0  0  0  0
 36  8  1  0  0  0  0
 37 36  1  0  0  0  0
 38 37  1  0  0  0  0
 38 36  1  0  0  0  0
M  END
>  <minimizedAffinity>
-5.05147743

$$$$
