
 OpenBabel03242523483D

 13 14  0  0  0  0  0  0  0  0999 V2000
   37.3660   28.7600   42.6520 C   0  0  0  0  0  0  0  0  0  0  0  0
   36.7340   27.5240   42.3570 C   0  0  0  0  0  0  0  0  0  0  0  0
   37.5060   26.3640   42.5170 C   0  0  0  0  0  0  0  0  0  0  0  0
   38.8000   26.4850   42.9410 N   0  0  0  0  0  0  0  0  0  0  0  0
   39.3460   27.6780   43.2060 C   0  0  0  0  0  0  0  0  0  0  0  0
   38.6300   28.8050   43.0610 N   0  0  0  0  0  0  0  0  0  0  0  0
   35.7170   27.4720   42.0270 H   0  0  0  0  0  0  0  0  0  0  0  0
   40.3810   27.6710   43.5360 H   0  0  0  0  0  0  0  0  0  0  0  0
   36.9320   25.0190   42.2310 C   0  0  0  0  0  3  0  0  0  0  0  0
   36.7240   24.5630   40.8380 C   0  0  0  0  0  2  0  0  0  0  0  0
   37.8120   23.9590   41.7170 C   0  0  0  0  0  2  0  0  0  0  0  0
   36.6000   29.8880   42.4920 O   0  0  0  0  0  0  0  0  0  0  0  0
   35.8980   30.1310   43.1730 H   0  0  0  0  0  0  0  0  0  0  0  0
  1  6  1  0  0  0  0
  2  3  1  0  0  0  0
  2  1  2  0  0  0  0
  3  4  2  0  0  0  0
  4  5  1  0  0  0  0
  5  8  1  0  0  0  0
  6  5  2  0  0  0  0
  7  2  1  0  0  0  0
  9  3  1  0  0  0  0
 10 11  1  0  0  0  0
 10  9  1  0  0  0  0
 11  9  1  0  0  0  0
 12  1  1  0  0  0  0
 12 13  1  0  0  0  0
M  END
>  <minimizedAffinity>
-3.92770362

$$$$

 OpenBabel03242523483D

 13 14  0  0  0  0  0  0  0  0999 V2000
   37.3470   32.2190   40.5050 C   0  0  0  0  0  0  0  0  0  0  0  0
   36.5020   31.0870   40.6470 C   0  0  0  0  0  0  0  0  0  0  0  0
   37.0670   29.9450   41.2340 C   0  0  0  0  0  0  0  0  0  0  0  0
   38.3740   29.9840   41.6310 N   0  0  0  0  0  0  0  0  0  0  0  0
   39.1270   31.0820   41.4740 C   0  0  0  0  0  0  0  0  0  0  0  0
   38.6120   32.1890   40.9140 N   0  0  0  0  0  0  0  0  0  0  0  0
   35.4820   31.0980   40.3230 H   0  0  0  0  0  0  0  0  0  0  0  0
   40.1540   31.0140   41.8200 H   0  0  0  0  0  0  0  0  0  0  0  0
   36.2610   28.7060   41.4250 C   0  0  0  0  0  3  0  0  0  0  0  0
   36.7770   27.3910   40.9820 C   0  0  0  0  0  2  0  0  0  0  0  0
   36.6640   27.7430   42.4600 C   0  0  0  0  0  2  0  0  0  0  0  0
   36.7830   33.3310   39.9300 O   0  0  0  0  0  0  0  0  0  0  0  0
   36.1540   33.9170   40.4580 H   0  0  0  0  0  0  0  0  0  0  0  0
  1  2  2  0  0  0  0
  1  6  1  0  0  0  0
  2  3  1  0  0  0  0
  3  9  1  0  0  0  0
  3  4  2  0  0  0  0
  5  4  1  0  0  0  0
  5  8  1  0  0  0  0
  6  5  2  0  0  0  0
  7  2  1  0  0  0  0
  9 11  1  0  0  0  0
 10  9  1  0  0  0  0
 10 11  1  0  0  0  0
 12 13  1  0  0  0  0
 12  1  1  0  0  0  0
M  END
>  <minimizedAffinity>
-3.789253

$$$$

 OpenBabel03242523483D

 13 14  0  0  0  0  0  0  0  0999 V2000
   36.6610   31.2530   40.2410 C   0  0  0  0  0  0  0  0  0  0  0  0
   36.6300   30.3840   41.3620 C   0  0  0  0  0  0  0  0  0  0  0  0
   36.5080   29.0120   41.0970 C   0  0  0  0  0  0  0  0  0  0  0  0
   36.4290   28.5950   39.7970 N   0  0  0  0  0  0  0  0  0  0  0  0
   36.4650   29.4610   38.7750 C   0  0  0  0  0  0  0  0  0  0  0  0
   36.5800   30.7790   39.0010 N   0  0  0  0  0  0  0  0  0  0  0  0
   36.6950   30.7510   42.3650 H   0  0  0  0  0  0  0  0  0  0  0  0
   36.3940   29.0330   37.7800 H   0  0  0  0  0  0  0  0  0  0  0  0
   36.4660   28.0190   42.2070 C   0  0  0  0  0  3  0  0  0  0  0  0
   37.5970   27.0930   42.4390 C   0  0  0  0  0  2  0  0  0  0  0  0
   37.3010   28.2400   43.3970 C   0  0  0  0  0  2  0  0  0  0  0  0
   36.7810   32.5930   40.5130 O   0  0  0  0  0  0  0  0  0  0  0  0
   37.6700   32.9830   40.7880 H   0  0  0  0  0  0  0  0  0  0  0  0
  1 12  1  0  0  0  0
  1  2  1  0  0  0  0
  2  7  1  0  0  0  0
  3  2  2  0  0  0  0
  3  9  1  0  0  0  0
  4  3  1  0  0  0  0
  5  6  1  0  0  0  0
  5  4  2  0  0  0  0
  6  1  2  0  0  0  0
  8  5  1  0  0  0  0
  9 10  1  0  0  0  0
  9 11  1  0  0  0  0
 10 11  1  0  0  0  0
 12 13  1  0  0  0  0
M  END
>  <minimizedAffinity>
-3.75265265

$$$$

 OpenBabel03242523483D

 13 14  0  0  0  0  0  0  0  0999 V2000
   36.9850   28.3840   42.6270 C   0  0  0  0  0  0  0  0  0  0  0  0
   37.1340   27.0070   42.9340 C   0  0  0  0  0  0  0  0  0  0  0  0
   37.0220   26.1040   41.8660 C   0  0  0  0  0  0  0  0  0  0  0  0
   36.7810   26.5910   40.6120 N   0  0  0  0  0  0  0  0  0  0  0  0
   36.6490   27.9040   40.3780 C   0  0  0  0  0  0  0  0  0  0  0  0
   36.7510   28.7900   41.3820 N   0  0  0  0  0  0  0  0  0  0  0  0
   37.3230   26.6660   43.9310 H   0  0  0  0  0  0  0  0  0  0  0  0
   36.4580   28.1920   39.3490 H   0  0  0  0  0  0  0  0  0  0  0  0
   37.1620   24.6380   42.0870 C   0  0  0  0  0  3  0  0  0  0  0  0
   37.2220   23.7000   40.9420 C   0  0  0  0  0  2  0  0  0  0  0  0
   38.4500   23.9890   41.7970 C   0  0  0  0  0  2  0  0  0  0  0  0
   37.0970   29.2580   43.6800 O   0  0  0  0  0  0  0  0  0  0  0  0
   38.0020   29.4840   44.0630 H   0  0  0  0  0  0  0  0  0  0  0  0
  1  2  1  0  0  0  0
  1 12  1  0  0  0  0
  2  7  1  0  0  0  0
  3  9  1  0  0  0  0
  3  2  2  0  0  0  0
  4  3  1  0  0  0  0
  5  4  2  0  0  0  0
  5  6  1  0  0  0  0
  6  1  2  0  0  0  0
  8  5  1  0  0  0  0
 10 11  1  0  0  0  0
 10  9  1  0  0  0  0
 11  9  1  0  0  0  0
 12 13  1  0  0  0  0
M  END
>  <minimizedAffinity>
-3.74500012

$$$$

 OpenBabel03242523483D

 13 14  0  0  0  0  0  0  0  0999 V2000
   39.0710   31.3690   41.6700 C   0  0  0  0  0  0  0  0  0  0  0  0
   39.0450   30.2780   42.5760 C   0  0  0  0  0  0  0  0  0  0  0  0
   37.8820   29.4930   42.5890 C   0  0  0  0  0  0  0  0  0  0  0  0
   36.8580   29.8160   41.7430 N   0  0  0  0  0  0  0  0  0  0  0  0
   36.9370   30.8580   40.9060 C   0  0  0  0  0  0  0  0  0  0  0  0
   38.0380   31.6270   40.8730 N   0  0  0  0  0  0  0  0  0  0  0  0
   39.8700   30.0580   43.2230 H   0  0  0  0  0  0  0  0  0  0  0  0
   36.0710   31.0340   40.2740 H   0  0  0  0  0  0  0  0  0  0  0  0
   37.7590   28.3250   43.5060 C   0  0  0  0  0  3  0  0  0  0  0  0
   36.5670   27.4470   43.4590 C   0  0  0  0  0  2  0  0  0  0  0  0
   37.9270   26.9680   42.9650 C   0  0  0  0  0  2  0  0  0  0  0  0
   40.2140   32.1300   41.6660 O   0  0  0  0  0  0  0  0  0  0  0  0
   41.0530   31.7910   41.2190 H   0  0  0  0  0  0  0  0  0  0  0  0
  1  2  1  0  0  0  0
  2  3  2  0  0  0  0
  2  7  1  0  0  0  0
  3  9  1  0  0  0  0
  4  3  1  0  0  0  0
  5  4  2  0  0  0  0
  6  5  1  0  0  0  0
  6  1  2  0  0  0  0
  8  5  1  0  0  0  0
 10  9  1  0  0  0  0
 11 10  1  0  0  0  0
 11  9  1  0  0  0  0
 12  1  1  0  0  0  0
 13 12  1  0  0  0  0
M  END
>  <minimizedAffinity>
-3.72795963

$$$$

 OpenBabel03242523483D

 13 14  0  0  0  0  0  0  0  0999 V2000
   36.9170   30.4000   41.5810 C   0  0  0  0  0  0  0  0  0  0  0  0
   37.0050   29.2310   42.3810 C   0  0  0  0  0  0  0  0  0  0  0  0
   38.2920   28.7490   42.6590 C   0  0  0  0  0  0  0  0  0  0  0  0
   39.3720   29.4200   42.1550 N   0  0  0  0  0  0  0  0  0  0  0  0
   39.2310   30.5210   41.4050 C   0  0  0  0  0  0  0  0  0  0  0  0
   38.0100   31.0030   41.1230 N   0  0  0  0  0  0  0  0  0  0  0  0
   36.1340   28.7350   42.7570 H   0  0  0  0  0  0  0  0  0  0  0  0
   40.1480   30.9810   41.0500 H   0  0  0  0  0  0  0  0  0  0  0  0
   38.4880   27.5280   43.4900 C   0  0  0  0  0  3  0  0  0  0  0  0
   38.8050   26.2250   42.8600 C   0  0  0  0  0  2  0  0  0  0  0  0
   39.8460   26.9920   43.6660 C   0  0  0  0  0  2  0  0  0  0  0  0
   35.6510   30.8620   41.3150 O   0  0  0  0  0  0  0  0  0  0  0  0
   35.1280   31.3560   42.0220 H   0  0  0  0  0  0  0  0  0  0  0  0
  1  2  1  0  0  0  0
  2  3  2  0  0  0  0
  2  7  1  0  0  0  0
  3  9  1  0  0  0  0
  4  3  1  0  0  0  0
  5  4  2  0  0  0  0
  6  5  1  0  0  0  0
  6  1  2  0  0  0  0
  8  5  1  0  0  0  0
  9 11  1  0  0  0  0
 10  9  1  0  0  0  0
 10 11  1  0  0  0  0
 12  1  1  0  0  0  0
 12 13  1  0  0  0  0
M  END
>  <minimizedAffinity>
-3.70790458

$$$$

 OpenBabel03242523483D

 13 14  0  0  0  0  0  0  0  0999 V2000
   38.2850   24.2810   42.1750 C   0  0  0  0  0  0  0  0  0  0  0  0
   37.3230   25.3230   42.1350 C   0  0  0  0  0  0  0  0  0  0  0  0
   37.6670   26.5290   42.7630 C   0  0  0  0  0  0  0  0  0  0  0  0
   38.8890   26.6330   43.3670 N   0  0  0  0  0  0  0  0  0  0  0  0
   39.7610   25.6160   43.3740 C   0  0  0  0  0  0  0  0  0  0  0  0
   39.4570   24.4510   42.7810 N   0  0  0  0  0  0  0  0  0  0  0  0
   36.3760   25.2010   41.6500 H   0  0  0  0  0  0  0  0  0  0  0  0
   40.7050   25.7960   43.8800 H   0  0  0  0  0  0  0  0  0  0  0  0
   36.7230   27.6810   42.7760 C   0  0  0  0  0  3  0  0  0  0  0  0
   37.2050   29.0590   42.5280 C   0  0  0  0  0  2  0  0  0  0  0  0
   36.3540   28.3190   41.5030 C   0  0  0  0  0  2  0  0  0  0  0  0
   37.9370   23.1060   41.5560 O   0  0  0  0  0  0  0  0  0  0  0  0
   37.9580   23.0310   40.5510 H   0  0  0  0  0  0  0  0  0  0  0  0
  1  6  1  0  0  0  0
  2  1  2  0  0  0  0
  2  3  1  0  0  0  0
  3  9  1  0  0  0  0
  3  4  2  0  0  0  0
  4  5  1  0  0  0  0
  5  8  1  0  0  0  0
  6  5  2  0  0  0  0
  7  2  1  0  0  0  0
 10  9  1  0  0  0  0
 11 10  1  0  0  0  0
 11  9  1  0  0  0  0
 12  1  1  0  0  0  0
 13 12  1  0  0  0  0
M  END
>  <minimizedAffinity>
-3.69781566

$$$$

 OpenBabel03242523483D

 13 14  0  0  0  0  0  0  0  0999 V2000
   36.7940   30.9360   41.1560 C   0  0  0  0  0  0  0  0  0  0  0  0
   37.2770   32.0630   40.4420 C   0  0  0  0  0  0  0  0  0  0  0  0
   38.6640   32.2730   40.4520 C   0  0  0  0  0  0  0  0  0  0  0  0
   39.4590   31.3960   41.1360 N   0  0  0  0  0  0  0  0  0  0  0  0
   38.9490   30.3460   41.7940 C   0  0  0  0  0  0  0  0  0  0  0  0
   37.6250   30.1220   41.8010 N   0  0  0  0  0  0  0  0  0  0  0  0
   36.6200   32.7260   39.9180 H   0  0  0  0  0  0  0  0  0  0  0  0
   39.6620   29.7080   42.3080 H   0  0  0  0  0  0  0  0  0  0  0  0
   39.2680   33.4290   39.7320 C   0  0  0  0  0  3  0  0  0  0  0  0
   40.4200   34.1610   40.3050 C   0  0  0  0  0  2  0  0  0  0  0  0
   40.5770   33.2640   39.0840 C   0  0  0  0  0  2  0  0  0  0  0  0
   35.4350   30.7410   41.1380 O   0  0  0  0  0  0  0  0  0  0  0  0
   34.9830   30.3640   40.3190 H   0  0  0  0  0  0  0  0  0  0  0  0
  1  6  1  0  0  0  0
  2  3  1  0  0  0  0
  2  1  2  0  0  0  0
  3  4  2  0  0  0  0
  4  5  1  0  0  0  0
  5  6  2  0  0  0  0
  5  8  1  0  0  0  0
  7  2  1  0  0  0  0
  9 10  1  0  0  0  0
  9  3  1  0  0  0  0
 11  9  1  0  0  0  0
 11 10  1  0  0  0  0
 12  1  1  0  0  0  0
 13 12  1  0  0  0  0
M  END
>  <minimizedAffinity>
-3.50671744

$$$$

 OpenBabel03242523483D

 13 14  0  0  0  0  0  0  0  0999 V2000
   38.8190   24.4070   42.5060 C   0  0  0  0  0  0  0  0  0  0  0  0
   38.8040   25.7980   42.7880 C   0  0  0  0  0  0  0  0  0  0  0  0
   37.8580   26.5730   42.1020 C   0  0  0  0  0  0  0  0  0  0  0  0
   37.0170   25.9580   41.2170 N   0  0  0  0  0  0  0  0  0  0  0  0
   37.0740   24.6390   40.9900 C   0  0  0  0  0  0  0  0  0  0  0  0
   37.9710   23.8730   41.6330 N   0  0  0  0  0  0  0  0  0  0  0  0
   39.4810   26.2420   43.4890 H   0  0  0  0  0  0  0  0  0  0  0  0
   36.3650   24.2440   40.2690 H   0  0  0  0  0  0  0  0  0  0  0  0
   37.7640   28.0430   42.3280 C   0  0  0  0  0  3  0  0  0  0  0  0
   37.4970   28.5860   43.6800 C   0  0  0  0  0  2  0  0  0  0  0  0
   38.8630   28.7320   43.0210 C   0  0  0  0  0  2  0  0  0  0  0  0
   39.7500   23.6590   43.1840 O   0  0  0  0  0  0  0  0  0  0  0  0
   39.6060   23.4200   44.1540 H   0  0  0  0  0  0  0  0  0  0  0  0
  1  2  1  0  0  0  0
  1 12  1  0  0  0  0
  2  7  1  0  0  0  0
  3  9  1  0  0  0  0
  3  2  2  0  0  0  0
  4  3  1  0  0  0  0
  5  4  2  0  0  0  0
  5  6  1  0  0  0  0
  6  1  2  0  0  0  0
  8  5  1  0  0  0  0
  9 11  1  0  0  0  0
  9 10  1  0  0  0  0
 11 10  1  0  0  0  0
 12 13  1  0  0  0  0
M  END
>  <minimizedAffinity>
-3.49899769

$$$$
