
 OpenBabel03252508363D

 25 27  0  0  0  0  0  0  0  0999 V2000
   46.0140   34.5130   41.4900 C   0  0  0  0  0  0  0  0  0  0  0  0
   45.1690   33.9850   40.5480 C   0  0  0  0  0  0  0  0  0  0  0  0
   45.7270   33.4940   39.3970 C   0  0  0  0  0  0  0  0  0  0  0  0
   47.0870   33.5100   39.1540 C   0  0  0  0  0  0  0  0  0  0  0  0
   47.9130   34.0470   40.1210 C   0  0  0  0  0  0  0  0  0  0  0  0
   47.3900   34.5470   41.2820 C   0  0  0  0  0  0  0  0  0  0  0  0
   45.0180   33.0830   38.6750 H   0  0  0  0  0  0  0  0  0  0  0  0
   47.3920   33.0840   38.1960 H   0  0  0  0  0  0  0  0  0  0  0  0
   48.9650   34.0300   39.8720 H   0  0  0  0  0  0  0  0  0  0  0  0
   41.6340   35.1760   41.1680 C   0  0  0  0  0  0  0  0  0  0  0  0
   43.0050   35.1980   40.8650 C   0  0  0  0  0  0  0  0  0  0  0  0
   43.7440   33.9960   40.8590 C   0  0  0  0  0  0  0  0  0  0  0  0
   43.0440   32.8880   41.1530 N   0  0  0  0  0  0  0  0  0  0  0  0
   41.7470   32.8690   41.4400 C   0  0  0  0  0  0  0  0  0  0  0  0
   41.0390   34.0210   41.4460 N   0  0  0  0  0  0  0  0  0  0  0  0
   40.9450   36.4100   41.1600 N   0  0  0  0  0  0  0  0  0  0  0  0
   43.5520   36.1130   40.6290 H   0  0  0  0  0  0  0  0  0  0  0  0
   41.1780   31.9770   41.6780 H   0  0  0  0  0  0  0  0  0  0  0  0
   40.4090   36.6270   42.0360 H   0  0  0  0  0  0  0  0  0  0  0  0
   41.0160   36.9960   40.3130 H   0  0  0  0  0  0  0  0  0  0  0  0
   48.3030   35.1190   42.3030 C   0  0  0  0  0  0  0  0  0  0  0  0
   49.2520   36.1690   41.7050 C   0  0  0  0  0  0  0  0  0  0  0  0
   49.7540   34.8490   42.2650 C   0  0  0  0  0  0  0  0  0  0  0  0
   45.1080   35.4720   43.7400 N   0  0  0  0  0  0  0  0  0  0  0  0
   45.5130   35.0460   42.7150 C   0  0  0  0  0  0  0  0  0  0  0  0
  1 25  1  0  0  0  0
  2 12  1  0  0  0  0
  2  1  2  0  0  0  0
  3  2  1  0  0  0  0
  4  3  2  0  0  0  0
  4  5  1  0  0  0  0
  5  6  2  0  0  0  0
  6  1  1  0  0  0  0
  6 21  1  0  0  0  0
  7  3  1  0  0  0  0
  8  4  1  0  0  0  0
  9  5  1  0  0  0  0
 10 15  1  0  0  0  0
 11 10  2  0  0  0  0
 12 11  1  0  0  0  0
 12 13  2  0  0  0  0
 13 14  1  0  0  0  0
 14 15  2  0  0  0  0
 14 18  1  0  0  0  0
 16 10  1  0  0  0  0
 16 19  1  0  0  0  0
 17 11  1  0  0  0  0
 20 16  1  0  0  0  0
 22 23  1  0  0  0  0
 22 21  1  0  0  0  0
 23 21  1  0  0  0  0
 25 24  3  0  0  0  0
M  END
>  <minimizedAffinity>
-5.41743231

>  <minimizedRMSD>
3.65781283

$$$$
