REMARK  Name = 
REMARK  3 active torsions:
REMARK  status: ('A' for Active; 'I' for Inactive)
REMARK    1  A    between atoms: C_1  and  C_11
REMARK    2  A    between atoms: C_5  and  C_7
REMARK    3  A    between atoms: C_13  and  C_20
REMARK                            x       y       z     vdW  Elec       q    Type
REMARK                         _______ _______ _______ _____ _____    ______ ____
ROOT
ATOM      1  C   UNL     1      45.525  34.148  44.417  0.00  0.00    +0.000 A 
ATOM      2  C   UNL     1      46.501  33.602  43.543  0.00  0.00    +0.000 A 
ATOM      3  C   UNL     1      47.395  32.673  44.059  0.00  0.00    +0.000 A 
ATOM      4  N   UNL     1      47.283  32.342  45.370  0.00  0.00    +0.000 NA
ATOM      5  C   UNL     1      46.336  32.886  46.174  0.00  0.00    +0.000 A 
ATOM      6  N   UNL     1      45.453  33.795  45.686  0.00  0.00    +0.000 NA
ATOM      7  H   UNL     1      46.559  33.894  42.496  0.00  0.00    +0.000 HD
ATOM      8  H   UNL     1      48.147  32.231  43.452  0.00  0.00    +0.000 HD
ENDROOT
BRANCH   1   9
ATOM      9  C   UNL     1      44.572  35.156  43.876  0.00  0.00    +0.000 C 
ATOM     10  C   UNL     1      44.863  36.600  44.325  0.00  0.00    +0.000 C 
ATOM     11  C   UNL     1      44.999  36.161  42.900  0.00  0.00    +0.000 C 
ATOM     12  H   UNL     1      43.512  34.823  44.045  0.00  0.00    +0.000 HD
ATOM     13  H   UNL     1      45.724  36.754  44.984  0.00  0.00    +0.000 HD
ATOM     14  H   UNL     1      43.951  37.166  44.595  0.00  0.00    +0.000 HD
ATOM     15  H   UNL     1      46.052  36.062  42.564  0.00  0.00    +0.000 HD
BRANCH  11  16
ATOM     16  C   UNL     1      44.066  36.708  41.850  0.00  0.00    +0.000 C 
ATOM     17  C   UNL     1      44.181  36.279  40.416  0.00  0.00    +0.000 C 
ATOM     18  C   UNL     1      42.966  35.908  41.270  0.00  0.00    +0.000 C 
ENDBRANCH  11  16
ENDBRANCH   1   9
BRANCH   5  19
ATOM     19  C   UNL     1      46.398  32.388  47.588  0.00  0.00    +0.000 C 
ATOM     20  F   UNL     1      45.391  32.919  48.357  0.00  0.00    +0.000 F 
ATOM     21  F   UNL     1      47.622  32.747  48.158  0.00  0.00    +0.000 F 
ATOM     22  F   UNL     1      46.381  30.998  47.575  0.00  0.00    +0.000 F 
ENDBRANCH   5  19
TORSDOF 3
