
     RDKit          3D

 38 41  0  0  0  0  0  0  0  0999 V2000
   45.6320   34.6230   42.0351 C   0  0  0  0  0  0  0  0  0  0  0  0
   44.9013   35.6560   42.6338 C   0  0  0  0  0  0  0  0  0  0  0  0
   43.5545   35.4992   42.3478 C   0  0  0  0  0  0  0  0  0  0  0  0
   43.4960   34.4023   41.5979 N   0  0  0  0  0  0  0  0  0  0  0  0
   44.7054   33.8916   41.4160 N   0  0  0  0  0  0  0  0  0  0  0  0
   49.3540   35.1495   41.9851 C   0  0  0  0  0  0  0  0  0  0  0  0
   47.9669   35.4611   41.8358 C   0  0  0  0  0  0  0  0  0  0  0  0
   47.0825   34.4531   42.1314 C   0  0  0  0  0  0  0  0  0  0  0  0
   47.5523   33.2492   42.5375 N   0  0  0  0  0  0  0  0  0  0  0  0
   48.8616   32.9697   42.6737 C   0  0  0  0  0  0  0  0  0  0  0  0
   49.7382   33.9300   42.3933 N   0  0  0  0  0  0  0  0  0  0  0  0
   42.3450   33.7227   39.6548 N   0  0  0  0  0  0  0  0  0  0  0  0
   42.2194   33.9377   41.0986 C   0  0  2  0  0  0  0  0  0  0  0  0
   41.1662   34.9265   41.4429 C   0  0  0  0  0  0  0  0  0  0  0  0
   40.3363   35.2789   40.3038 N   0  0  0  0  0  0  0  0  0  0  0  0
   41.0440   35.6305   39.1255 C   0  0  0  0  0  0  0  0  0  0  0  0
   42.4485   35.0931   39.1020 C   0  0  2  0  0  0  0  0  0  0  0  0
   45.4543   36.4067   43.2137 H   0  0  0  0  0  0  0  0  0  0  0  0
   42.9864   36.2951   42.8173 H   0  0  0  0  0  0  0  0  0  0  0  0
   50.0363   35.9319   41.7555 H   0  0  0  0  0  0  0  0  0  0  0  0
   47.5912   36.4059   41.5168 H   0  0  0  0  0  0  0  0  0  0  0  0
   49.2156   32.0014   42.9995 H   0  0  0  0  0  0  0  0  0  0  0  0
   41.4453   33.2982   39.3540 H   0  0  0  0  0  0  0  0  0  0  0  0
   41.9895   32.9401   41.5591 H   0  0  0  0  0  0  0  0  0  0  0  0
   41.5025   35.9295   41.7566 H   0  0  0  0  0  0  0  0  0  0  0  0
   40.4511   34.4786   42.1856 H   0  0  0  0  0  0  0  0  0  0  0  0
   39.5430   34.6186   40.1694 H   0  0  0  0  0  0  0  0  0  0  0  0
   40.4931   35.2248   38.2498 H   0  0  0  0  0  0  0  0  0  0  0  0
   41.0784   36.7447   39.0114 H   0  0  0  0  0  0  0  0  0  0  0  0
   43.0612   35.6889   39.8198 H   0  0  0  0  0  0  0  0  0  0  0  0
   43.0668   35.0544   37.7604 C   0  0  0  0  0  0  0  0  0  0  0  0
   43.3221   36.2195   36.9225 C   0  0  0  0  0  0  0  0  0  0  0  0
   42.1255   35.3636   36.5993 C   0  0  0  0  0  0  0  0  0  0  0  0
   43.7032   34.1361   37.5943 H   0  0  0  0  0  0  0  0  0  0  0  0
   43.1911   37.2648   37.2621 H   0  0  0  0  0  0  0  0  0  0  0  0
   44.1291   36.1436   36.1566 H   0  0  0  0  0  0  0  0  0  0  0  0
   42.1280   34.6987   35.7214 H   0  0  0  0  0  0  0  0  0  0  0  0
   41.1643   35.8580   36.7876 H   0  0  0  0  0  0  0  0  0  0  0  0
  1  8  1  0
  1  2  1  0
  3  2  2  0
  4  3  1  0
  5  4  1  0
  5  1  2  0
  6 11  2  0
  7  6  1  0
  7  8  2  0
  8  9  1  0
  9 10  2  0
 11 10  1  0
 12 13  1  0
 13 14  1  0
 13  4  1  0
 15 14  1  0
 16 15  1  0
 17 16  1  0
 17 12  1  0
  2 18  1  0
  3 19  1  0
  6 20  1  0
  7 21  1  0
 10 22  1  0
 12 23  1  0
 13 24  1  1
 14 25  1  0
 14 26  1  0
 15 27  1  0
 16 28  1  0
 16 29  1  0
 17 30  1  1
 31 32  1  0
 32 33  1  0
 33 31  1  0
 31 34  1  0
 32 35  1  0
 32 36  1  0
 33 37  1  0
 33 38  1  0
 17 31  1  0
M  ISO  8  18  14  19  14  20  14  21  14  22  14  23   5  24  13  25  13
M  ISO  5  26  13  27   5  28  13  29  13  30  13
M  END
>  <DihAtoms>  (1) 
15,16,30,31

>  <DihDeg>  (1) 
-58.096365279205926

$$$$
