
 OpenBabel03252509183D

 35 38  0  0  1  0  0  0  0  0999 V2000
   53.1320   29.0370   41.0790 C   0  0  1  0  0  0  0  0  0  0  0  0
   54.3130   29.6200   41.7770 C   0  0  0  0  0  0  0  0  0  0  0  0
   54.8650   28.7930   42.8900 C   0  0  0  0  0  0  0  0  0  0  0  0
   54.9190   27.3210   42.5730 C   0  0  0  0  0  0  0  0  0  0  0  0
   53.6710   26.8140   41.8890 C   0  0  0  0  0  0  0  0  0  0  0  0
   52.5840   27.8860   41.9510 C   0  0  2  0  0  0  0  0  0  0  0  0
   53.4290   28.5180   40.1390 H   0  0  0  0  0  0  0  0  0  0  0  0
   55.1150   29.8100   41.0320 H   0  0  0  0  0  0  0  0  0  0  0  0
   54.0900   30.6360   42.2170 H   0  0  0  0  0  0  0  0  0  0  0  0
   55.9260   29.1180   43.0300 H   0  0  0  0  0  0  0  0  0  0  0  0
   54.3370   29.0370   43.8280 H   0  0  0  0  0  0  0  0  0  0  0  0
   54.9810   26.7830   43.5600 H   0  0  0  0  0  0  0  0  0  0  0  0
   55.8450   27.0490   42.0300 H   0  0  0  0  0  0  0  0  0  0  0  0
   53.3200   25.8540   42.2850 H   0  0  0  0  0  0  0  0  0  0  0  0
   53.9110   26.6810   40.8010 H   0  0  0  0  0  0  0  0  0  0  0  0
   52.3890   28.2220   42.9720 H   0  0  0  0  0  0  0  0  0  0  0  0
   50.2400   31.9400   40.8960 C   0  0  0  0  0  0  0  0  0  0  0  0
   50.6070   31.4650   39.6280 C   0  0  0  0  0  0  0  0  0  0  0  0
   51.5470   30.5070   39.5590 C   0  0  0  0  0  0  0  0  0  0  0  0
   52.1330   30.0070   40.7390 C   0  0  0  0  0  0  0  0  0  0  0  0
   51.2920   30.9640   42.0430 S   0  0  0  0  0  0  0  0  0  0  0  0
   50.1570   31.8500   38.7260 H   0  0  0  0  0  0  0  0  0  0  0  0
   51.9570   30.0210   38.6870 H   0  0  0  0  0  0  0  0  0  0  0  0
   47.5450   34.4920   40.6340 C   0  0  0  0  0  0  0  0  0  0  0  0
   47.4880   34.9190   41.9860 C   0  0  0  0  0  0  0  0  0  0  0  0
   48.3700   34.3160   42.9190 C   0  0  0  0  0  0  0  0  0  0  0  0
   49.2180   33.3620   42.4510 N   0  0  0  0  0  0  0  0  0  0  0  0
   49.2350   32.9850   41.1410 C   0  0  0  0  0  0  0  0  0  0  0  0
   48.4010   33.5460   40.2310 N   0  0  0  0  0  0  0  0  0  0  0  0
   46.8850   34.9370   39.9160 H   0  0  0  0  0  0  0  0  0  0  0  0
   46.7950   35.6830   42.3110 H   0  0  0  0  0  0  0  0  0  0  0  0
   48.3510   34.6160   43.9390 H   0  0  0  0  0  0  0  0  0  0  0  0
   51.3640   27.3400   41.2420 C   0  0  0  0  0  3  0  0  0  0  0  0
   51.6150   26.3910   40.1280 C   0  0  0  0  0  2  0  0  0  0  0  0
   51.0460   25.9090   41.4530 C   0  0  0  0  0  2  0  0  0  0  0  0
  1  7  1  6  0  0  0
  1  2  1  0  0  0  0
  1  6  1  0  0  0  0
  2  9  1  0  0  0  0
  2  3  1  0  0  0  0
  3 10  1  0  0  0  0
  3 11  1  0  0  0  0
  4  3  1  0  0  0  0
  4 12  1  0  0  0  0
  5  6  1  0  0  0  0
  5 14  1  0  0  0  0
  5  4  1  0  0  0  0
  6 16  1  1  0  0  0
  8  2  1  0  0  0  0
 13  4  1  0  0  0  0
 15  5  1  0  0  0  0
 17 28  1  0  0  0  0
 17 21  1  0  0  0  0
 18 17  2  0  0  0  0
 19 18  1  0  0  0  0
 19 20  2  0  0  0  0
 20  1  1  0  0  0  0
 20 21  1  0  0  0  0
 22 18  1  0  0  0  0
 23 19  1  0  0  0  0
 24 25  1  0  0  0  0
 25 31  1  0  0  0  0
 25 26  2  0  0  0  0
 26 32  1  0  0  0  0
 27 26  1  0  0  0  0
 28 27  2  0  0  0  0
 29 24  2  0  0  0  0
 29 28  1  0  0  0  0
 30 24  1  0  0  0  0
 33 35  1  0  0  0  0
 33  6  1  0  0  0  0
 34 33  1  0  0  0  0
 34 35  1  0  0  0  0
M  END
>  <minimizedAffinity>
-2.61259413

>  <minimizedRMSD>
8.39918995

$$$$
