
 OpenBabel03242516273D

 37 41  0  0  0  0  0  0  0  0999 V2000
   38.0860   31.8890   38.8970 C   0  0  0  0  0  0  0  0  0  0  0  0
   37.4520   30.9590   39.6860 C   0  0  0  0  0  0  0  0  0  0  0  0
   36.7230   29.9250   39.1410 C   0  0  0  0  0  0  0  0  0  0  0  0
   36.6130   29.7990   37.7650 C   0  0  0  0  0  0  0  0  0  0  0  0
   37.2240   30.6980   36.9460 C   0  0  0  0  0  0  0  0  0  0  0  0
   37.9460   31.7230   37.5210 C   0  0  0  0  0  0  0  0  0  0  0  0
   37.5390   31.0560   40.7560 H   0  0  0  0  0  0  0  0  0  0  0  0
   36.0440   28.9950   37.3170 H   0  0  0  0  0  0  0  0  0  0  0  0
   37.1750   30.6540   35.8670 H   0  0  0  0  0  0  0  0  0  0  0  0
   38.4300   32.4320   36.8850 H   0  0  0  0  0  0  0  0  0  0  0  0
   38.8240   35.0900   40.4770 C   0  0  0  0  0  0  0  0  0  0  0  0
   40.2250   35.0930   40.5840 C   0  0  0  0  0  0  0  0  0  0  0  0
   40.9170   33.9840   40.1100 C   0  0  0  0  0  0  0  0  0  0  0  0
   40.2330   32.9270   39.5570 N   0  0  0  0  0  0  0  0  0  0  0  0
   38.8580   32.9790   39.4780 C   0  0  0  0  0  0  0  0  0  0  0  0
   38.1620   34.0540   39.9350 N   0  0  0  0  0  0  0  0  0  0  0  0
   38.2390   35.9250   40.8280 H   0  0  0  0  0  0  0  0  0  0  0  0
   40.7320   35.9310   41.0200 H   0  0  0  0  0  0  0  0  0  0  0  0
   41.9910   33.9390   40.1710 H   0  0  0  0  0  0  0  0  0  0  0  0
   35.9240   28.7660   40.2060 S   0  0  0  0  0  0  0  0  0  0  0  0
   36.2610   27.1100   39.6970 C   0  0  0  0  0  0  0  0  0  0  0  0
   35.8870   26.6010   38.4900 N   0  0  0  0  0  0  0  0  0  0  0  0
   36.1420   25.3390   38.1220 C   0  0  0  0  0  0  0  0  0  0  0  0
   36.7950   24.5550   38.9920 N   0  0  0  0  0  0  0  0  0  0  0  0
   37.2020   24.9740   40.2060 C   0  0  0  0  0  0  0  0  0  0  0  0
   37.8730   24.1640   41.1040 C   0  0  0  0  0  0  0  0  0  0  0  0
   38.2640   24.6450   42.3280 C   0  0  0  0  0  0  0  0  0  0  0  0
   37.9980   25.9580   42.7080 C   0  0  0  0  0  0  0  0  0  0  0  0
   37.3190   26.7590   41.7900 C   0  0  0  0  0  0  0  0  0  0  0  0
   36.9270   26.2850   40.5650 C   0  0  0  0  0  0  0  0  0  0  0  0
   35.8350   24.9570   37.1580 H   0  0  0  0  0  0  0  0  0  0  0  0
   38.0340   23.1720   40.7320 H   0  0  0  0  0  0  0  0  0  0  0  0
   38.7740   23.8890   42.9080 H   0  0  0  0  0  0  0  0  0  0  0  0
   38.3800   26.1510   43.6850 H   0  0  0  0  0  0  0  0  0  0  0  0
   37.0190   28.1130   42.3670 C   0  0  0  0  0  3  0  0  0  0  0  0
   38.2710   28.9100   42.8430 C   0  0  0  0  0  2  0  0  0  0  0  0
   37.3390   28.3470   43.8000 C   0  0  0  0  0  2  0  0  0  0  0  0
  1 15  1  0  0  0  0
  1  2  1  0  0  0  0
  2  7  1  0  0  0  0
  3  2  2  0  0  0  0
  3 20  1  0  0  0  0
  4  3  1  0  0  0  0
  5  6  1  0  0  0  0
  5  4  2  0  0  0  0
  6  1  2  0  0  0  0
  8  4  1  0  0  0  0
  9  5  1  0  0  0  0
 10  6  1  0  0  0  0
 11 12  1  0  0  0  0
 11 17  1  0  0  0  0
 12 18  1  0  0  0  0
 13 19  1  0  0  0  0
 13 12  2  0  0  0  0
 14 13  1  0  0  0  0
 15 14  2  0  0  0  0
 15 16  1  0  0  0  0
 16 11  2  0  0  0  0
 21 20  1  0  0  0  0
 21 30  1  0  0  0  0
 22 21  2  0  0  0  0
 23 22  1  0  0  0  0
 23 24  2  0  0  0  0
 24 25  1  0  0  0  0
 25 30  2  0  0  0  0
 25 26  1  0  0  0  0
 26 27  2  0  0  0  0
 27 28  1  0  0  0  0
 27 33  1  0  0  0  0
 28 34  1  0  0  0  0
 29 35  1  0  0  0  0
 29 28  2  0  0  0  0
 30 29  1  0  0  0  0
 31 23  1  0  0  0  0
 32 26  1  0  0  0  0
 35 36  1  0  0  0  0
 35 37  1  0  0  0  0
 36 37  1  0  0  0  0
M  END
>  <minimizedAffinity>
-6.58008623

$$$$

 OpenBabel03242516273D

 37 41  0  0  0  0  0  0  0  0999 V2000
   37.7240   31.0830   38.9730 C   0  0  0  0  0  0  0  0  0  0  0  0
   37.5120   30.0000   39.7940 C   0  0  0  0  0  0  0  0  0  0  0  0
   36.8520   28.8760   39.3480 C   0  0  0  0  0  0  0  0  0  0  0  0
   36.3830   28.8120   38.0460 C   0  0  0  0  0  0  0  0  0  0  0  0
   36.5720   29.8620   37.2000 C   0  0  0  0  0  0  0  0  0  0  0  0
   37.2350   30.9740   37.6750 C   0  0  0  0  0  0  0  0  0  0  0  0
   37.8770   30.0490   40.8070 H   0  0  0  0  0  0  0  0  0  0  0  0
   35.8620   27.9380   37.6780 H   0  0  0  0  0  0  0  0  0  0  0  0
   36.2300   29.8720   36.1740 H   0  0  0  0  0  0  0  0  0  0  0  0
   37.3880   31.8020   37.0160 H   0  0  0  0  0  0  0  0  0  0  0  0
   40.4800   33.2820   39.9010 C   0  0  0  0  0  0  0  0  0  0  0  0
   39.8390   34.4540   40.3350 C   0  0  0  0  0  0  0  0  0  0  0  0
   38.4490   34.4860   40.3050 C   0  0  0  0  0  0  0  0  0  0  0  0
   37.7420   33.3930   39.8610 N   0  0  0  0  0  0  0  0  0  0  0  0
   38.4250   32.2700   39.4480 C   0  0  0  0  0  0  0  0  0  0  0  0
   39.7830   32.2170   39.4690 N   0  0  0  0  0  0  0  0  0  0  0  0
   41.5560   33.2040   39.9040 H   0  0  0  0  0  0  0  0  0  0  0  0
   40.4160   35.2910   40.6760 H   0  0  0  0  0  0  0  0  0  0  0  0
   37.9120   35.3620   40.6270 H   0  0  0  0  0  0  0  0  0  0  0  0
   36.6010   27.5200   40.4510 S   0  0  0  0  0  0  0  0  0  0  0  0
   37.9210   26.3560   40.3240 C   0  0  0  0  0  0  0  0  0  0  0  0
   38.2150   25.6700   39.1840 N   0  0  0  0  0  0  0  0  0  0  0  0
   39.2150   24.7820   39.1070 C   0  0  0  0  0  0  0  0  0  0  0  0
   39.9490   24.5710   40.2090 N   0  0  0  0  0  0  0  0  0  0  0  0
   39.7290   25.2030   41.3770 C   0  0  0  0  0  0  0  0  0  0  0  0
   40.4850   24.9840   42.5150 C   0  0  0  0  0  0  0  0  0  0  0  0
   40.2160   25.6570   43.6800 C   0  0  0  0  0  0  0  0  0  0  0  0
   39.1760   26.5800   43.7570 C   0  0  0  0  0  0  0  0  0  0  0  0
   38.4240   26.7870   42.6010 C   0  0  0  0  0  0  0  0  0  0  0  0
   38.6890   26.1180   41.4340 C   0  0  0  0  0  0  0  0  0  0  0  0
   39.4290   24.2500   38.1910 H   0  0  0  0  0  0  0  0  0  0  0  0
   41.2610   24.2590   42.3670 H   0  0  0  0  0  0  0  0  0  0  0  0
   40.8950   25.3710   44.4700 H   0  0  0  0  0  0  0  0  0  0  0  0
   39.1230   27.0050   44.7350 H   0  0  0  0  0  0  0  0  0  0  0  0
   37.2850   27.7320   42.8560 C   0  0  0  0  0  3  0  0  0  0  0  0
   37.6990   29.0990   43.4830 C   0  0  0  0  0  2  0  0  0  0  0  0
   36.9890   28.1040   44.2650 C   0  0  0  0  0  2  0  0  0  0  0  0
  1 15  1  0  0  0  0
  1  2  1  0  0  0  0
  2  7  1  0  0  0  0
  3  2  2  0  0  0  0
  3 20  1  0  0  0  0
  4  3  1  0  0  0  0
  5  6  1  0  0  0  0
  5  4  2  0  0  0  0
  6  1  2  0  0  0  0
  8  4  1  0  0  0  0
  9  5  1  0  0  0  0
 10  6  1  0  0  0  0
 11 17  1  0  0  0  0
 11 12  1  0  0  0  0
 12 18  1  0  0  0  0
 13 12  2  0  0  0  0
 13 19  1  0  0  0  0
 14 13  1  0  0  0  0
 15 16  1  0  0  0  0
 15 14  2  0  0  0  0
 16 11  2  0  0  0  0
 21 20  1  0  0  0  0
 21 30  1  0  0  0  0
 22 21  2  0  0  0  0
 23 22  1  0  0  0  0
 23 24  2  0  0  0  0
 24 25  1  0  0  0  0
 25 30  2  0  0  0  0
 25 26  1  0  0  0  0
 26 27  2  0  0  0  0
 27 28  1  0  0  0  0
 27 33  1  0  0  0  0
 28 34  1  0  0  0  0
 29 35  1  0  0  0  0
 29 28  2  0  0  0  0
 30 29  1  0  0  0  0
 31 23  1  0  0  0  0
 32 26  1  0  0  0  0
 35 36  1  0  0  0  0
 35 37  1  0  0  0  0
 36 37  1  0  0  0  0
M  END
>  <minimizedAffinity>
-6.38336849

$$$$

 OpenBabel03242516273D

 37 41  0  0  0  0  0  0  0  0999 V2000
   37.9030   31.5960   38.6130 C   0  0  0  0  0  0  0  0  0  0  0  0
   37.3060   30.6670   39.4330 C   0  0  0  0  0  0  0  0  0  0  0  0
   36.5920   29.6060   38.9210 C   0  0  0  0  0  0  0  0  0  0  0  0
   36.4590   29.4500   37.5500 C   0  0  0  0  0  0  0  0  0  0  0  0
   37.0340   30.3460   36.7030 C   0  0  0  0  0  0  0  0  0  0  0  0
   37.7420   31.3980   37.2440 C   0  0  0  0  0  0  0  0  0  0  0  0
   37.4090   30.7880   40.4990 H   0  0  0  0  0  0  0  0  0  0  0  0
   35.9020   28.6240   37.1300 H   0  0  0  0  0  0  0  0  0  0  0  0
   36.9660   30.2790   35.6260 H   0  0  0  0  0  0  0  0  0  0  0  0
   38.1970   32.1060   36.5840 H   0  0  0  0  0  0  0  0  0  0  0  0
   38.6110   34.7010   40.3870 C   0  0  0  0  0  0  0  0  0  0  0  0
   39.9950   34.8710   40.2190 C   0  0  0  0  0  0  0  0  0  0  0  0
   40.6870   33.9090   39.4920 C   0  0  0  0  0  0  0  0  0  0  0  0
   40.0190   32.8310   38.9610 N   0  0  0  0  0  0  0  0  0  0  0  0
   38.6600   32.7150   39.1580 C   0  0  0  0  0  0  0  0  0  0  0  0
   37.9640   33.6450   39.8650 N   0  0  0  0  0  0  0  0  0  0  0  0
   38.0270   35.4180   40.9410 H   0  0  0  0  0  0  0  0  0  0  0  0
   40.4900   35.7220   40.6440 H   0  0  0  0  0  0  0  0  0  0  0  0
   41.7490   33.9950   39.3370 H   0  0  0  0  0  0  0  0  0  0  0  0
   35.8400   28.4500   40.0240 S   0  0  0  0  0  0  0  0  0  0  0  0
   36.8740   28.1530   41.4230 C   0  0  0  0  0  0  0  0  0  0  0  0
   37.1010   29.0720   42.4020 N   0  0  0  0  0  0  0  0  0  0  0  0
   37.8970   28.8340   43.4540 C   0  0  0  0  0  0  0  0  0  0  0  0
   38.4890   27.6340   43.5290 N   0  0  0  0  0  0  0  0  0  0  0  0
   38.3230   26.6670   42.6060 C   0  0  0  0  0  0  0  0  0  0  0  0
   38.9360   25.4290   42.6820 C   0  0  0  0  0  0  0  0  0  0  0  0
   38.7310   24.4810   41.7120 C   0  0  0  0  0  0  0  0  0  0  0  0
   37.9020   24.7310   40.6210 C   0  0  0  0  0  0  0  0  0  0  0  0
   37.2930   25.9840   40.5600 C   0  0  0  0  0  0  0  0  0  0  0  0
   37.4940   26.9350   41.5270 C   0  0  0  0  0  0  0  0  0  0  0  0
   38.0610   29.5790   44.2190 H   0  0  0  0  0  0  0  0  0  0  0  0
   39.5560   25.3230   43.5510 H   0  0  0  0  0  0  0  0  0  0  0  0
   39.2810   23.5740   41.9200 H   0  0  0  0  0  0  0  0  0  0  0  0
   37.8600   23.8790   39.9790 H   0  0  0  0  0  0  0  0  0  0  0  0
   36.5090   26.1460   39.2900 C   0  0  0  0  0  3  0  0  0  0  0  0
   35.7510   24.8660   38.8240 C   0  0  0  0  0  2  0  0  0  0  0  0
   36.9190   25.3420   38.1080 C   0  0  0  0  0  2  0  0  0  0  0  0
  1 15  1  0  0  0  0
  1  2  1  0  0  0  0
  2  7  1  0  0  0  0
  3  2  2  0  0  0  0
  3 20  1  0  0  0  0
  4  3  1  0  0  0  0
  5  6  1  0  0  0  0
  5  4  2  0  0  0  0
  6  1  2  0  0  0  0
  8  4  1  0  0  0  0
  9  5  1  0  0  0  0
 10  6  1  0  0  0  0
 11 17  1  0  0  0  0
 12 11  1  0  0  0  0
 12 18  1  0  0  0  0
 13 12  2  0  0  0  0
 14 15  2  0  0  0  0
 14 13  1  0  0  0  0
 15 16  1  0  0  0  0
 16 11  2  0  0  0  0
 19 13  1  0  0  0  0
 20 21  1  0  0  0  0
 21 30  2  0  0  0  0
 21 22  1  0  0  0  0
 22 23  2  0  0  0  0
 23 24  1  0  0  0  0
 23 31  1  0  0  0  0
 25 26  1  0  0  0  0
 25 24  2  0  0  0  0
 26 32  1  0  0  0  0
 27 33  1  0  0  0  0
 27 26  2  0  0  0  0
 28 27  1  0  0  0  0
 29 28  2  0  0  0  0
 29 30  1  0  0  0  0
 30 25  1  0  0  0  0
 34 28  1  0  0  0  0
 35 29  1  0  0  0  0
 36 35  1  0  0  0  0
 37 36  1  0  0  0  0
 37 35  1  0  0  0  0
M  END
>  <minimizedAffinity>
-6.37996006

$$$$

 OpenBabel03242516273D

 37 41  0  0  0  0  0  0  0  0999 V2000
   38.1610   24.8000   41.7940 C   0  0  0  0  0  0  0  0  0  0  0  0
   37.5910   26.0500   41.8440 C   0  0  0  0  0  0  0  0  0  0  0  0
   38.0690   27.0300   42.6850 C   0  0  0  0  0  0  0  0  0  0  0  0
   39.1520   26.7720   43.5110 C   0  0  0  0  0  0  0  0  0  0  0  0
   39.7470   25.5480   43.4950 C   0  0  0  0  0  0  0  0  0  0  0  0
   39.2450   24.5880   42.6420 C   0  0  0  0  0  0  0  0  0  0  0  0
   36.7490   26.2510   41.2010 H   0  0  0  0  0  0  0  0  0  0  0  0
   39.5420   27.5280   44.1800 H   0  0  0  0  0  0  0  0  0  0  0  0
   40.5940   25.2870   44.1150 H   0  0  0  0  0  0  0  0  0  0  0  0
   39.7080   23.6240   42.6230 H   0  0  0  0  0  0  0  0  0  0  0  0
   35.9040   23.0480   39.5310 C   0  0  0  0  0  0  0  0  0  0  0  0
   36.6020   21.8730   39.2090 C   0  0  0  0  0  0  0  0  0  0  0  0
   37.8590   21.6860   39.7730 C   0  0  0  0  0  0  0  0  0  0  0  0
   38.3840   22.6330   40.6200 N   0  0  0  0  0  0  0  0  0  0  0  0
   37.6530   23.7680   40.9010 C   0  0  0  0  0  0  0  0  0  0  0  0
   36.4230   23.9710   40.3600 N   0  0  0  0  0  0  0  0  0  0  0  0
   34.9250   23.2430   39.1220 H   0  0  0  0  0  0  0  0  0  0  0  0
   36.1670   21.1510   38.5460 H   0  0  0  0  0  0  0  0  0  0  0  0
   38.4330   20.8010   39.5560 H   0  0  0  0  0  0  0  0  0  0  0  0
   37.2890   28.6140   42.7110 S   0  0  0  0  0  0  0  0  0  0  0  0
   38.4100   29.8730   42.1890 C   0  0  0  0  0  0  0  0  0  0  0  0
   39.5440   30.2020   42.8680 N   0  0  0  0  0  0  0  0  0  0  0  0
   40.3800   31.1680   42.4630 C   0  0  0  0  0  0  0  0  0  0  0  0
   40.0720   31.8300   41.3390 N   0  0  0  0  0  0  0  0  0  0  0  0
   38.9720   31.5720   40.6050 C   0  0  0  0  0  0  0  0  0  0  0  0
   38.6520   32.2560   39.4470 C   0  0  0  0  0  0  0  0  0  0  0  0
   37.5170   31.9510   38.7390 C   0  0  0  0  0  0  0  0  0  0  0  0
   36.6500   30.9450   39.1620 C   0  0  0  0  0  0  0  0  0  0  0  0
   36.9880   30.2670   40.3320 C   0  0  0  0  0  0  0  0  0  0  0  0
   38.1210   30.5680   41.0430 C   0  0  0  0  0  0  0  0  0  0  0  0
   41.2740   31.4110   43.0180 H   0  0  0  0  0  0  0  0  0  0  0  0
   39.3710   33.0110   39.1970 H   0  0  0  0  0  0  0  0  0  0  0  0
   37.4140   32.5760   37.8640 H   0  0  0  0  0  0  0  0  0  0  0  0
   35.8300   30.8480   38.4860 H   0  0  0  0  0  0  0  0  0  0  0  0
   35.9210   29.2820   40.7170 C   0  0  0  0  0  3  0  0  0  0  0  0
   35.6560   28.1650   39.6620 C   0  0  0  0  0  2  0  0  0  0  0  0
   34.6910   29.2250   39.8830 C   0  0  0  0  0  2  0  0  0  0  0  0
  1  2  2  0  0  0  0
  1  6  1  0  0  0  0
  2  3  1  0  0  0  0
  3 20  1  0  0  0  0
  3  4  2  0  0  0  0
  4  8  1  0  0  0  0
  5  4  1  0  0  0  0
  5  9  1  0  0  0  0
  6  5  2  0  0  0  0
  7  2  1  0  0  0  0
 10  6  1  0  0  0  0
 11 16  1  0  0  0  0
 12 11  2  0  0  0  0
 12 13  1  0  0  0  0
 13 14  2  0  0  0  0
 14 15  1  0  0  0  0
 15  1  1  0  0  0  0
 16 15  2  0  0  0  0
 17 11  1  0  0  0  0
 18 12  1  0  0  0  0
 19 13  1  0  0  0  0
 21 20  1  0  0  0  0
 21 22  1  0  0  0  0
 23 22  2  0  0  0  0
 23 31  1  0  0  0  0
 24 23  1  0  0  0  0
 25 30  1  0  0  0  0
 25 24  2  0  0  0  0
 26 25  1  0  0  0  0
 27 28  1  0  0  0  0
 27 26  2  0  0  0  0
 28 29  2  0  0  0  0
 29 35  1  0  0  0  0
 29 30  1  0  0  0  0
 30 21  2  0  0  0  0
 32 26  1  0  0  0  0
 33 27  1  0  0  0  0
 34 28  1  0  0  0  0
 36 37  1  0  0  0  0
 36 35  1  0  0  0  0
 37 35  1  0  0  0  0
M  END
>  <minimizedAffinity>
-6.36690378

$$$$

 OpenBabel03242516273D

 37 41  0  0  0  0  0  0  0  0999 V2000
   39.3530   31.7560   40.4580 C   0  0  0  0  0  0  0  0  0  0  0  0
   38.4220   30.8320   40.8710 C   0  0  0  0  0  0  0  0  0  0  0  0
   37.2350   30.6510   40.1960 C   0  0  0  0  0  0  0  0  0  0  0  0
   36.9510   31.4070   39.0700 C   0  0  0  0  0  0  0  0  0  0  0  0
   37.8440   32.3330   38.6260 C   0  0  0  0  0  0  0  0  0  0  0  0
   39.0230   32.4910   39.3230 C   0  0  0  0  0  0  0  0  0  0  0  0
   38.6430   30.2430   41.7470 H   0  0  0  0  0  0  0  0  0  0  0  0
   36.0240   31.2800   38.5270 H   0  0  0  0  0  0  0  0  0  0  0  0
   37.6800   32.9520   37.7550 H   0  0  0  0  0  0  0  0  0  0  0  0
   39.7300   33.2160   38.9800 H   0  0  0  0  0  0  0  0  0  0  0  0
   41.9820   31.2550   42.9320 C   0  0  0  0  0  0  0  0  0  0  0  0
   42.9450   32.2200   42.5940 C   0  0  0  0  0  0  0  0  0  0  0  0
   42.6860   33.0450   41.5060 C   0  0  0  0  0  0  0  0  0  0  0  0
   41.5170   32.9070   40.7950 N   0  0  0  0  0  0  0  0  0  0  0  0
   40.6080   31.9420   41.1730 C   0  0  0  0  0  0  0  0  0  0  0  0
   40.8410   31.1240   42.2340 N   0  0  0  0  0  0  0  0  0  0  0  0
   42.1330   30.5900   43.7680 H   0  0  0  0  0  0  0  0  0  0  0  0
   43.8480   32.3060   43.1670 H   0  0  0  0  0  0  0  0  0  0  0  0
   43.3940   33.8000   41.2080 H   0  0  0  0  0  0  0  0  0  0  0  0
   36.0750   29.4550   40.7800 S   0  0  0  0  0  0  0  0  0  0  0  0
   36.1440   27.9850   39.8060 C   0  0  0  0  0  0  0  0  0  0  0  0
   35.8170   27.9400   38.4850 N   0  0  0  0  0  0  0  0  0  0  0  0
   35.8670   26.8140   37.7610 C   0  0  0  0  0  0  0  0  0  0  0  0
   36.2570   25.6910   38.3800 N   0  0  0  0  0  0  0  0  0  0  0  0
   36.5980   25.6430   39.6820 C   0  0  0  0  0  0  0  0  0  0  0  0
   36.9990   24.4840   40.3210 C   0  0  0  0  0  0  0  0  0  0  0  0
   37.3350   24.4940   41.6520 C   0  0  0  0  0  0  0  0  0  0  0  0
   37.2840   25.6670   42.4010 C   0  0  0  0  0  0  0  0  0  0  0  0
   36.8760   26.8250   41.7400 C   0  0  0  0  0  0  0  0  0  0  0  0
   36.5400   26.8210   40.4110 C   0  0  0  0  0  0  0  0  0  0  0  0
   35.6020   26.8030   36.7130 H   0  0  0  0  0  0  0  0  0  0  0  0
   37.0080   23.6310   39.6720 H   0  0  0  0  0  0  0  0  0  0  0  0
   37.6240   23.5110   41.9960 H   0  0  0  0  0  0  0  0  0  0  0  0
   37.5840   25.4810   43.4080 H   0  0  0  0  0  0  0  0  0  0  0  0
   36.7770   27.9850   42.6880 C   0  0  0  0  0  3  0  0  0  0  0  0
   38.0940   28.3130   43.4570 C   0  0  0  0  0  2  0  0  0  0  0  0
   36.9600   27.7180   44.1400 C   0  0  0  0  0  2  0  0  0  0  0  0
  1  2  1  0  0  0  0
  1 15  1  0  0  0  0
  2  7  1  0  0  0  0
  3 20  1  0  0  0  0
  3  2  2  0  0  0  0
  4  3  1  0  0  0  0
  5  4  2  0  0  0  0
  5  6  1  0  0  0  0
  6  1  2  0  0  0  0
  8  4  1  0  0  0  0
  9  5  1  0  0  0  0
 10  6  1  0  0  0  0
 11 17  1  0  0  0  0
 12 11  1  0  0  0  0
 12 18  1  0  0  0  0
 13 12  2  0  0  0  0
 14 15  2  0  0  0  0
 14 13  1  0  0  0  0
 15 16  1  0  0  0  0
 16 11  2  0  0  0  0
 19 13  1  0  0  0  0
 21 30  1  0  0  0  0
 21 20  1  0  0  0  0
 22 21  2  0  0  0  0
 23 24  2  0  0  0  0
 23 22  1  0  0  0  0
 24 25  1  0  0  0  0
 25 26  2  0  0  0  0
 25 30  1  0  0  0  0
 26 27  1  0  0  0  0
 27 33  1  0  0  0  0
 27 28  2  0  0  0  0
 28 34  1  0  0  0  0
 29 28  1  0  0  0  0
 29 35  1  0  0  0  0
 30 29  2  0  0  0  0
 31 23  1  0  0  0  0
 32 26  1  0  0  0  0
 35 36  1  0  0  0  0
 35 37  1  0  0  0  0
 36 37  1  0  0  0  0
M  END
>  <minimizedAffinity>
-6.26579666

$$$$

 OpenBabel03242516273D

 37 41  0  0  0  0  0  0  0  0999 V2000
   39.1510   31.2130   38.8060 C   0  0  0  0  0  0  0  0  0  0  0  0
   38.2380   30.3220   39.3200 C   0  0  0  0  0  0  0  0  0  0  0  0
   37.1660   30.7430   40.0750 C   0  0  0  0  0  0  0  0  0  0  0  0
   36.9820   32.0920   40.3350 C   0  0  0  0  0  0  0  0  0  0  0  0
   37.8620   33.0080   39.8450 C   0  0  0  0  0  0  0  0  0  0  0  0
   38.9260   32.5560   39.0930 C   0  0  0  0  0  0  0  0  0  0  0  0
   38.3810   29.2740   39.1180 H   0  0  0  0  0  0  0  0  0  0  0  0
   36.1460   32.4420   40.9260 H   0  0  0  0  0  0  0  0  0  0  0  0
   37.7720   34.0720   40.0140 H   0  0  0  0  0  0  0  0  0  0  0  0
   39.6210   33.2700   38.7050 H   0  0  0  0  0  0  0  0  0  0  0  0
   42.2400   31.3510   36.8740 C   0  0  0  0  0  0  0  0  0  0  0  0
   42.4480   30.0180   36.4840 C   0  0  0  0  0  0  0  0  0  0  0  0
   41.5190   29.0670   36.8920 C   0  0  0  0  0  0  0  0  0  0  0  0
   40.4360   29.4400   37.6520 N   0  0  0  0  0  0  0  0  0  0  0  0
   40.2830   30.7640   38.0050 C   0  0  0  0  0  0  0  0  0  0  0  0
   41.1780   31.7100   37.6170 N   0  0  0  0  0  0  0  0  0  0  0  0
   42.9280   32.1280   36.5840 H   0  0  0  0  0  0  0  0  0  0  0  0
   43.3010   29.7560   35.8900 H   0  0  0  0  0  0  0  0  0  0  0  0
   41.6360   28.0320   36.6180 H   0  0  0  0  0  0  0  0  0  0  0  0
   36.0310   29.5520   40.7160 S   0  0  0  0  0  0  0  0  0  0  0  0
   36.0990   28.0550   39.7840 C   0  0  0  0  0  0  0  0  0  0  0  0
   35.7210   27.9620   38.4790 N   0  0  0  0  0  0  0  0  0  0  0  0
   35.7700   26.8160   37.7870 C   0  0  0  0  0  0  0  0  0  0  0  0
   36.2140   25.7220   38.4220 N   0  0  0  0  0  0  0  0  0  0  0  0
   36.6070   25.7220   39.7110 C   0  0  0  0  0  0  0  0  0  0  0  0
   37.0630   24.5930   40.3670 C   0  0  0  0  0  0  0  0  0  0  0  0
   37.4510   24.6520   41.6820 C   0  0  0  0  0  0  0  0  0  0  0  0
   37.4000   25.8450   42.3980 C   0  0  0  0  0  0  0  0  0  0  0  0
   36.9370   26.9720   41.7200 C   0  0  0  0  0  0  0  0  0  0  0  0
   36.5480   26.9200   40.4060 C   0  0  0  0  0  0  0  0  0  0  0  0
   35.4640   26.7660   36.7520 H   0  0  0  0  0  0  0  0  0  0  0  0
   37.0680   23.7210   39.7430 H   0  0  0  0  0  0  0  0  0  0  0  0
   37.7780   23.6870   42.0430 H   0  0  0  0  0  0  0  0  0  0  0  0
   37.7450   25.6980   43.3970 H   0  0  0  0  0  0  0  0  0  0  0  0
   36.8470   28.1590   42.6370 C   0  0  0  0  0  3  0  0  0  0  0  0
   38.2020   28.5990   43.2690 C   0  0  0  0  0  2  0  0  0  0  0  0
   37.1780   27.9580   44.0730 C   0  0  0  0  0  2  0  0  0  0  0  0
  1  6  2  0  0  0  0
  1  2  1  0  0  0  0
  2  3  2  0  0  0  0
  3  4  1  0  0  0  0
  3 20  1  0  0  0  0
  4  8  1  0  0  0  0
  5  9  1  0  0  0  0
  5  4  2  0  0  0  0
  6  5  1  0  0  0  0
  7  2  1  0  0  0  0
 10  6  1  0  0  0  0
 11 16  1  0  0  0  0
 12 11  2  0  0  0  0
 12 13  1  0  0  0  0
 13 14  2  0  0  0  0
 14 15  1  0  0  0  0
 15  1  1  0  0  0  0
 16 15  2  0  0  0  0
 17 11  1  0  0  0  0
 18 12  1  0  0  0  0
 19 13  1  0  0  0  0
 21 30  1  0  0  0  0
 21 20  1  0  0  0  0
 22 21  2  0  0  0  0
 23 24  2  0  0  0  0
 23 22  1  0  0  0  0
 24 25  1  0  0  0  0
 25 26  2  0  0  0  0
 25 30  1  0  0  0  0
 26 27  1  0  0  0  0
 27 33  1  0  0  0  0
 27 28  2  0  0  0  0
 28 34  1  0  0  0  0
 29 28  1  0  0  0  0
 29 35  1  0  0  0  0
 30 29  2  0  0  0  0
 31 23  1  0  0  0  0
 32 26  1  0  0  0  0
 35 36  1  0  0  0  0
 35 37  1  0  0  0  0
 36 37  1  0  0  0  0
M  END
>  <minimizedAffinity>
-6.24040651

$$$$

 OpenBabel03242516273D

 37 41  0  0  0  0  0  0  0  0999 V2000
   39.8500   31.2240   41.5900 C   0  0  0  0  0  0  0  0  0  0  0  0
   38.6670   30.5240   41.6070 C   0  0  0  0  0  0  0  0  0  0  0  0
   38.5850   29.2580   42.1450 C   0  0  0  0  0  0  0  0  0  0  0  0
   39.7080   28.6560   42.6890 C   0  0  0  0  0  0  0  0  0  0  0  0
   40.9000   29.3140   42.6930 C   0  0  0  0  0  0  0  0  0  0  0  0
   40.9520   30.5790   42.1470 C   0  0  0  0  0  0  0  0  0  0  0  0
   37.7930   30.9910   41.1850 H   0  0  0  0  0  0  0  0  0  0  0  0
   39.6640   27.6630   43.1150 H   0  0  0  0  0  0  0  0  0  0  0  0
   41.8110   28.8980   43.1010 H   0  0  0  0  0  0  0  0  0  0  0  0
   41.8840   31.1020   42.1470 H   0  0  0  0  0  0  0  0  0  0  0  0
   38.7990   34.5260   40.4590 C   0  0  0  0  0  0  0  0  0  0  0  0
   39.9810   35.0990   39.9620 C   0  0  0  0  0  0  0  0  0  0  0  0
   41.1470   34.3420   40.0200 C   0  0  0  0  0  0  0  0  0  0  0  0
   41.1220   33.0740   40.5500 N   0  0  0  0  0  0  0  0  0  0  0  0
   39.9330   32.5630   41.0230 C   0  0  0  0  0  0  0  0  0  0  0  0
   38.7820   33.2850   40.9760 N   0  0  0  0  0  0  0  0  0  0  0  0
   37.8680   35.0680   40.4370 H   0  0  0  0  0  0  0  0  0  0  0  0
   39.9710   36.0900   39.5530 H   0  0  0  0  0  0  0  0  0  0  0  0
   42.0780   34.7390   39.6520 H   0  0  0  0  0  0  0  0  0  0  0  0
   37.0390   28.4050   42.1300 S   0  0  0  0  0  0  0  0  0  0  0  0
   37.2630   26.7070   41.7050 C   0  0  0  0  0  0  0  0  0  0  0  0
   37.8340   25.7910   42.5350 N   0  0  0  0  0  0  0  0  0  0  0  0
   38.0060   24.5060   42.1930 C   0  0  0  0  0  0  0  0  0  0  0  0
   37.5920   24.1230   40.9770 N   0  0  0  0  0  0  0  0  0  0  0  0
   37.0180   24.9610   40.0920 C   0  0  0  0  0  0  0  0  0  0  0  0
   36.5930   24.5670   38.8360 C   0  0  0  0  0  0  0  0  0  0  0  0
   36.0150   25.4650   37.9740 C   0  0  0  0  0  0  0  0  0  0  0  0
   35.8370   26.7980   38.3330 C   0  0  0  0  0  0  0  0  0  0  0  0
   36.2720   27.1780   39.6020 C   0  0  0  0  0  0  0  0  0  0  0  0
   36.8500   26.2850   40.4670 C   0  0  0  0  0  0  0  0  0  0  0  0
   38.4620   23.7970   42.8690 H   0  0  0  0  0  0  0  0  0  0  0  0
   36.7700   23.5270   38.6430 H   0  0  0  0  0  0  0  0  0  0  0  0
   35.7420   24.9980   37.0390 H   0  0  0  0  0  0  0  0  0  0  0  0
   35.3680   27.3400   37.5420 H   0  0  0  0  0  0  0  0  0  0  0  0
   36.1040   28.6550   39.8150 C   0  0  0  0  0  3  0  0  0  0  0  0
   34.6340   29.1650   39.7200 C   0  0  0  0  0  2  0  0  0  0  0  0
   35.5970   29.4710   38.6800 C   0  0  0  0  0  2  0  0  0  0  0  0
  1  2  2  0  0  0  0
  1  6  1  0  0  0  0
  2  3  1  0  0  0  0
  3  4  2  0  0  0  0
  4  5  1  0  0  0  0
  4  8  1  0  0  0  0
  5  9  1  0  0  0  0
  6 10  1  0  0  0  0
  6  5  2  0  0  0  0
  7  2  1  0  0  0  0
 11 16  1  0  0  0  0
 12 13  1  0  0  0  0
 12 11  2  0  0  0  0
 13 14  2  0  0  0  0
 14 15  1  0  0  0  0
 15  1  1  0  0  0  0
 16 15  2  0  0  0  0
 17 11  1  0  0  0  0
 18 12  1  0  0  0  0
 19 13  1  0  0  0  0
 20  3  1  0  0  0  0
 21 20  1  0  0  0  0
 21 22  1  0  0  0  0
 23 22  2  0  0  0  0
 23 31  1  0  0  0  0
 24 23  1  0  0  0  0
 25 30  1  0  0  0  0
 25 24  2  0  0  0  0
 26 25  1  0  0  0  0
 27 28  1  0  0  0  0
 27 26  2  0  0  0  0
 28 29  2  0  0  0  0
 29 35  1  0  0  0  0
 29 30  1  0  0  0  0
 30 21  2  0  0  0  0
 32 26  1  0  0  0  0
 33 27  1  0  0  0  0
 34 28  1  0  0  0  0
 36 35  1  0  0  0  0
 37 36  1  0  0  0  0
 37 35  1  0  0  0  0
M  END
>  <minimizedAffinity>
-6.19426918

$$$$

 OpenBabel03242516273D

 37 41  0  0  0  0  0  0  0  0999 V2000
   37.3440   27.0430   41.6410 C   0  0  0  0  0  0  0  0  0  0  0  0
   38.2710   27.9600   41.2040 C   0  0  0  0  0  0  0  0  0  0  0  0
   38.7170   28.9780   42.0170 C   0  0  0  0  0  0  0  0  0  0  0  0
   38.2350   29.1010   43.3110 C   0  0  0  0  0  0  0  0  0  0  0  0
   37.3170   28.2150   43.7840 C   0  0  0  0  0  0  0  0  0  0  0  0
   36.8880   27.2070   42.9460 C   0  0  0  0  0  0  0  0  0  0  0  0
   38.6460   27.8640   40.1990 H   0  0  0  0  0  0  0  0  0  0  0  0
   38.5730   29.8950   43.9640 H   0  0  0  0  0  0  0  0  0  0  0  0
   36.9030   28.2590   44.7820 H   0  0  0  0  0  0  0  0  0  0  0  0
   36.1670   26.5070   43.3110 H   0  0  0  0  0  0  0  0  0  0  0  0
   36.4530   23.6800   40.5520 C   0  0  0  0  0  0  0  0  0  0  0  0
   36.0200   23.8630   39.2290 C   0  0  0  0  0  0  0  0  0  0  0  0
   36.0330   25.1530   38.7110 C   0  0  0  0  0  0  0  0  0  0  0  0
   36.4620   26.2050   39.4860 N   0  0  0  0  0  0  0  0  0  0  0  0
   36.8760   25.9660   40.7790 C   0  0  0  0  0  0  0  0  0  0  0  0
   36.8710   24.7120   41.3050 N   0  0  0  0  0  0  0  0  0  0  0  0
   36.4630   22.7000   41.0020 H   0  0  0  0  0  0  0  0  0  0  0  0
   35.6910   23.0240   38.6470 H   0  0  0  0  0  0  0  0  0  0  0  0
   35.7100   25.3440   37.7020 H   0  0  0  0  0  0  0  0  0  0  0  0
   39.9030   30.1310   41.3970 S   0  0  0  0  0  0  0  0  0  0  0  0
   39.1060   31.5800   40.7820 C   0  0  0  0  0  0  0  0  0  0  0  0
   37.7890   31.6280   40.4360 N   0  0  0  0  0  0  0  0  0  0  0  0
   37.2020   32.7350   39.9610 C   0  0  0  0  0  0  0  0  0  0  0  0
   37.9570   33.8340   39.8270 N   0  0  0  0  0  0  0  0  0  0  0  0
   39.2650   33.8770   40.1430 C   0  0  0  0  0  0  0  0  0  0  0  0
   40.0450   35.0110   40.0020 C   0  0  0  0  0  0  0  0  0  0  0  0
   41.3750   34.9970   40.3410 C   0  0  0  0  0  0  0  0  0  0  0  0
   41.9830   33.8450   40.8350 C   0  0  0  0  0  0  0  0  0  0  0  0
   41.1820   32.7120   40.9690 C   0  0  0  0  0  0  0  0  0  0  0  0
   39.8520   32.7200   40.6330 C   0  0  0  0  0  0  0  0  0  0  0  0
   36.1550   32.7490   39.6930 H   0  0  0  0  0  0  0  0  0  0  0  0
   39.4990   35.8480   39.6150 H   0  0  0  0  0  0  0  0  0  0  0  0
   41.8380   35.9580   40.1710 H   0  0  0  0  0  0  0  0  0  0  0  0
   43.0130   34.0260   41.0470 H   0  0  0  0  0  0  0  0  0  0  0  0
   41.9870   31.5270   41.4200 C   0  0  0  0  0  3  0  0  0  0  0  0
   42.6090   31.6660   42.8430 C   0  0  0  0  0  2  0  0  0  0  0  0
   43.4420   31.7210   41.6560 C   0  0  0  0  0  2  0  0  0  0  0  0
  1  6  1  0  0  0  0
  2  1  2  0  0  0  0
  2  3  1  0  0  0  0
  3  4  2  0  0  0  0
  4  5  1  0  0  0  0
  4  8  1  0  0  0  0
  5  9  1  0  0  0  0
  6 10  1  0  0  0  0
  6  5  2  0  0  0  0
  7  2  1  0  0  0  0
 11 17  1  0  0  0  0
 11 16  1  0  0  0  0
 12 11  2  0  0  0  0
 13 12  1  0  0  0  0
 13 14  2  0  0  0  0
 14 15  1  0  0  0  0
 15 16  2  0  0  0  0
 15  1  1  0  0  0  0
 18 12  1  0  0  0  0
 19 13  1  0  0  0  0
 20  3  1  0  0  0  0
 21 20  1  0  0  0  0
 22 21  2  0  0  0  0
 23 22  1  0  0  0  0
 24 23  2  0  0  0  0
 24 25  1  0  0  0  0
 25 30  1  0  0  0  0
 26 25  2  0  0  0  0
 26 27  1  0  0  0  0
 27 28  2  0  0  0  0
 28 29  1  0  0  0  0
 28 34  1  0  0  0  0
 29 35  1  0  0  0  0
 30 21  1  0  0  0  0
 30 29  2  0  0  0  0
 31 23  1  0  0  0  0
 32 26  1  0  0  0  0
 33 27  1  0  0  0  0
 35 37  1  0  0  0  0
 35 36  1  0  0  0  0
 37 36  1  0  0  0  0
M  END
>  <minimizedAffinity>
-6.1684866

$$$$

 OpenBabel03242516273D

 37 41  0  0  0  0  0  0  0  0999 V2000
   39.7820   32.3770   40.9630 C   0  0  0  0  0  0  0  0  0  0  0  0
   38.7440   31.5100   41.2150 C   0  0  0  0  0  0  0  0  0  0  0  0
   37.4960   31.6990   40.6640 C   0  0  0  0  0  0  0  0  0  0  0  0
   37.2570   32.7810   39.8310 C   0  0  0  0  0  0  0  0  0  0  0  0
   38.2560   33.6640   39.5550 C   0  0  0  0  0  0  0  0  0  0  0  0
   39.4940   33.4490   40.1220 C   0  0  0  0  0  0  0  0  0  0  0  0
   38.9290   30.6680   41.8620 H   0  0  0  0  0  0  0  0  0  0  0  0
   36.2840   32.9470   39.3890 H   0  0  0  0  0  0  0  0  0  0  0  0
   38.1320   34.5260   38.9150 H   0  0  0  0  0  0  0  0  0  0  0  0
   40.2840   34.1370   39.9100 H   0  0  0  0  0  0  0  0  0  0  0  0
   42.3920   31.0280   43.1210 C   0  0  0  0  0  0  0  0  0  0  0  0
   43.5460   31.7190   42.7190 C   0  0  0  0  0  0  0  0  0  0  0  0
   43.4230   32.6530   41.6960 C   0  0  0  0  0  0  0  0  0  0  0  0
   42.2000   32.8800   41.1100 N   0  0  0  0  0  0  0  0  0  0  0  0
   41.1010   32.1720   41.5460 C   0  0  0  0  0  0  0  0  0  0  0  0
   41.1990   31.2540   42.5450 N   0  0  0  0  0  0  0  0  0  0  0  0
   42.4310   30.2940   43.9100 H   0  0  0  0  0  0  0  0  0  0  0  0
   44.4870   31.5230   43.1940 H   0  0  0  0  0  0  0  0  0  0  0  0
   44.2800   33.2090   41.3530 H   0  0  0  0  0  0  0  0  0  0  0  0
   36.2000   30.5570   41.0310 S   0  0  0  0  0  0  0  0  0  0  0  0
   36.8420   29.1080   41.8060 C   0  0  0  0  0  0  0  0  0  0  0  0
   37.3850   29.0990   43.0550 N   0  0  0  0  0  0  0  0  0  0  0  0
   37.8760   27.9910   43.6260 C   0  0  0  0  0  0  0  0  0  0  0  0
   37.8240   26.8500   42.9240 N   0  0  0  0  0  0  0  0  0  0  0  0
   37.3050   26.7670   41.6840 C   0  0  0  0  0  0  0  0  0  0  0  0
   37.2530   25.5910   40.9580 C   0  0  0  0  0  0  0  0  0  0  0  0
   36.7120   25.5660   39.6970 C   0  0  0  0  0  0  0  0  0  0  0  0
   36.2010   26.7190   39.1060 C   0  0  0  0  0  0  0  0  0  0  0  0
   36.2640   27.8950   39.8520 C   0  0  0  0  0  0  0  0  0  0  0  0
   36.8020   27.9270   41.1130 C   0  0  0  0  0  0  0  0  0  0  0  0
   38.3030   28.0080   44.6190 H   0  0  0  0  0  0  0  0  0  0  0  0
   37.6680   24.7560   41.4860 H   0  0  0  0  0  0  0  0  0  0  0  0
   36.7480   24.5740   39.2690 H   0  0  0  0  0  0  0  0  0  0  0  0
   35.8200   26.5040   38.1320 H   0  0  0  0  0  0  0  0  0  0  0  0
   35.7660   29.0690   39.0580 C   0  0  0  0  0  3  0  0  0  0  0  0
   34.3000   28.9350   38.5460 C   0  0  0  0  0  2  0  0  0  0  0  0
   35.4210   28.8490   37.6290 C   0  0  0  0  0  2  0  0  0  0  0  0
  1  2  1  0  0  0  0
  1 15  1  0  0  0  0
  2  7  1  0  0  0  0
  3 20  1  0  0  0  0
  3  2  2  0  0  0  0
  4  3  1  0  0  0  0
  5  4  2  0  0  0  0
  5  6  1  0  0  0  0
  6  1  2  0  0  0  0
  8  4  1  0  0  0  0
  9  5  1  0  0  0  0
 10  6  1  0  0  0  0
 11 17  1  0  0  0  0
 12 11  1  0  0  0  0
 12 18  1  0  0  0  0
 13 12  2  0  0  0  0
 14 15  2  0  0  0  0
 14 13  1  0  0  0  0
 15 16  1  0  0  0  0
 16 11  2  0  0  0  0
 19 13  1  0  0  0  0
 20 21  1  0  0  0  0
 21 22  1  0  0  0  0
 22 23  2  0  0  0  0
 23 31  1  0  0  0  0
 24 23  1  0  0  0  0
 25 24  2  0  0  0  0
 26 32  1  0  0  0  0
 26 25  1  0  0  0  0
 27 26  2  0  0  0  0
 28 27  1  0  0  0  0
 28 29  2  0  0  0  0
 29 30  1  0  0  0  0
 30 25  1  0  0  0  0
 30 21  2  0  0  0  0
 33 27  1  0  0  0  0
 34 28  1  0  0  0  0
 35 29  1  0  0  0  0
 36 35  1  0  0  0  0
 37 36  1  0  0  0  0
 37 35  1  0  0  0  0
M  END
>  <minimizedAffinity>
-6.12174082

$$$$
