
 OpenBabel03242510203D

 30 33  0  0  1  0  0  0  0  0999 V2000
   36.0180   29.6660   39.7820 C   0  0  1  0  0  0  0  0  0  0  0  0
   36.3060   28.2800   39.7210 C   0  0  0  0  0  0  0  0  0  0  0  0
   35.7040   28.8750   41.0070 C   0  0  1  0  0  0  0  0  0  0  0  0
   35.1840   30.1320   39.2210 H   0  0  0  0  0  0  0  0  0  0  0  0
   37.2810   27.7880   39.8550 H   0  0  0  0  0  0  0  0  0  0  0  0
   35.6150   27.6250   39.1450 H   0  0  0  0  0  0  0  0  0  0  0  0
   34.7550   28.3930   41.2580 H   0  0  0  0  0  0  0  0  0  0  0  0
   37.0380   31.9650   40.3800 C   0  0  0  0  0  0  0  0  0  0  0  0
   37.1860   30.6440   39.8760 C   0  0  0  0  0  0  0  0  0  0  0  0
   38.4310   30.2590   39.4450 C   0  0  0  0  0  0  0  0  0  0  0  0
   39.4560   31.1400   39.5160 N   0  0  0  0  0  0  0  0  0  0  0  0
   39.3080   32.3970   39.9970 C   0  0  0  0  0  0  0  0  0  0  0  0
   38.0510   32.8190   40.4430 N   0  0  0  0  0  0  0  0  0  0  0  0
   36.0760   32.2530   40.7110 H   0  0  0  0  0  0  0  0  0  0  0  0
   38.5790   29.2620   39.0560 H   0  0  0  0  0  0  0  0  0  0  0  0
   40.1650   33.0580   40.0280 H   0  0  0  0  0  0  0  0  0  0  0  0
   36.6340   29.0010   42.0850 N   0  0  0  0  0  0  0  0  0  0  0  0
   36.8330   28.0220   43.0410 C   0  0  0  0  0  0  0  0  0  0  0  0
   36.0070   27.3160   43.6800 O   0  0  0  0  0  0  0  0  0  0  0  0
   37.2280   29.8720   42.1990 H   0  0  0  0  0  0  0  0  0  0  0  0
   38.2500   27.6580   43.4570 C   0  0  2  0  0  0  0  0  0  0  0  0
   39.3990   28.1290   42.5070 C   0  0  0  0  0  0  0  0  0  0  0  0
   39.0350   26.6710   42.7300 C   0  0  1  0  0  0  0  0  0  0  0  0
   38.5380   27.9460   44.4990 H   0  0  0  0  0  0  0  0  0  0  0  0
   39.0730   28.6790   41.6310 H   0  0  0  0  0  0  0  0  0  0  0  0
   40.3480   28.4420   42.9620 H   0  0  0  0  0  0  0  0  0  0  0  0
   38.8430   26.2160   41.7740 H   0  0  0  0  0  0  0  0  0  0  0  0
   40.0190   25.8260   43.5430 C   0  0  0  0  0  3  0  0  0  0  0  0
   39.9200   24.3330   43.1620 C   0  0  0  0  0  2  0  0  0  0  0  0
   41.1290   25.1350   42.8890 C   0  0  0  0  0  2  0  0  0  0  0  0
  1  4  1  6  0  0  0
  1  9  1  0  0  0  0
  1  3  1  0  0  0  0
  2  1  1  0  0  0  0
  2  5  1  0  0  0  0
  2  3  1  0  0  0  0
  3  7  1  1  0  0  0
  3 17  1  0  0  0  0
  6  2  1  0  0  0  0
  8 13  1  0  0  0  0
  8 14  1  0  0  0  0
  9  8  2  0  0  0  0
 10 11  2  0  0  0  0
 10  9  1  0  0  0  0
 11 12  1  0  0  0  0
 12 16  1  0  0  0  0
 12 13  2  0  0  0  0
 15 10  1  0  0  0  0
 17 20  1  0  0  0  0
 17 18  1  0  0  0  0
 18 21  1  0  0  0  0
 18 19  2  0  0  0  0
 21 24  1  1  0  0  0
 22 23  1  0  0  0  0
 22 26  1  0  0  0  0
 22 21  1  0  0  0  0
 23 27  1  6  0  0  0
 23 21  1  0  0  0  0
 23 28  1  0  0  0  0
 25 22  1  0  0  0  0
 29 28  1  0  0  0  0
 30 29  1  0  0  0  0
 30 28  1  0  0  0  0
M  END
>  <minimizedAffinity>
-5.01683569

$$$$

 OpenBabel03242510203D

 30 33  0  0  1  0  0  0  0  0999 V2000
   37.3330   30.9830   37.8690 C   0  0  1  0  0  0  0  0  0  0  0  0
   38.1080   29.8670   37.4700 C   0  0  0  0  0  0  0  0  0  0  0  0
   37.1050   29.7200   38.6300 C   0  0  1  0  0  0  0  0  0  0  0  0
   36.5050   31.3910   37.2560 H   0  0  0  0  0  0  0  0  0  0  0  0
   39.1520   29.6420   37.7350 H   0  0  0  0  0  0  0  0  0  0  0  0
   37.8200   29.3340   36.5370 H   0  0  0  0  0  0  0  0  0  0  0  0
   36.3660   28.9440   38.4160 H   0  0  0  0  0  0  0  0  0  0  0  0
   39.4440   32.2440   38.6690 C   0  0  0  0  0  0  0  0  0  0  0  0
   38.0290   32.1190   38.6150 C   0  0  0  0  0  0  0  0  0  0  0  0
   37.2780   33.0550   39.2800 C   0  0  0  0  0  0  0  0  0  0  0  0
   37.9050   34.0480   39.9540 N   0  0  0  0  0  0  0  0  0  0  0  0
   39.2540   34.1600   40.0020 C   0  0  0  0  0  0  0  0  0  0  0  0
   40.0470   33.2210   39.3330 N   0  0  0  0  0  0  0  0  0  0  0  0
   40.0160   31.5190   38.1520 H   0  0  0  0  0  0  0  0  0  0  0  0
   36.2000   32.9910   39.2600 H   0  0  0  0  0  0  0  0  0  0  0  0
   39.6990   34.9760   40.5570 H   0  0  0  0  0  0  0  0  0  0  0  0
   37.7110   29.6550   39.9230 N   0  0  0  0  0  0  0  0  0  0  0  0
   37.0050   29.7810   41.1050 C   0  0  0  0  0  0  0  0  0  0  0  0
   36.0990   30.5910   41.4400 O   0  0  0  0  0  0  0  0  0  0  0  0
   38.7550   29.5010   40.0330 H   0  0  0  0  0  0  0  0  0  0  0  0
   37.2910   28.8250   42.2540 C   0  0  2  0  0  0  0  0  0  0  0  0
   38.3850   29.2720   43.2770 C   0  0  0  0  0  0  0  0  0  0  0  0
   38.5390   28.0840   42.3450 C   0  0  1  0  0  0  0  0  0  0  0  0
   36.3980   28.4950   42.8420 H   0  0  0  0  0  0  0  0  0  0  0  0
   38.8420   30.2340   43.0700 H   0  0  0  0  0  0  0  0  0  0  0  0
   38.2380   29.0140   44.3350 H   0  0  0  0  0  0  0  0  0  0  0  0
   39.4490   28.2060   41.7820 H   0  0  0  0  0  0  0  0  0  0  0  0
   38.4780   26.6910   42.9780 C   0  0  0  0  0  3  0  0  0  0  0  0
   39.4290   25.7100   42.2590 C   0  0  0  0  0  2  0  0  0  0  0  0
   39.6440   26.1280   43.6590 C   0  0  0  0  0  2  0  0  0  0  0  0
  1  4  1  6  0  0  0
  1  9  1  0  0  0  0
  1  3  1  0  0  0  0
  2  5  1  0  0  0  0
  2  1  1  0  0  0  0
  2  3  1  0  0  0  0
  3  7  1  6  0  0  0
  3 17  1  0  0  0  0
  6  2  1  0  0  0  0
  8 13  1  0  0  0  0
  9  8  2  0  0  0  0
  9 10  1  0  0  0  0
 10 11  2  0  0  0  0
 11 12  1  0  0  0  0
 12 16  1  0  0  0  0
 13 12  2  0  0  0  0
 14  8  1  0  0  0  0
 15 10  1  0  0  0  0
 17 20  1  0  0  0  0
 17 18  1  0  0  0  0
 18 19  2  0  0  0  0
 18 21  1  0  0  0  0
 21 23  1  0  0  0  0
 21 24  1  1  0  0  0
 21 22  1  0  0  0  0
 22 26  1  0  0  0  0
 23 27  1  6  0  0  0
 23 28  1  0  0  0  0
 23 22  1  0  0  0  0
 25 22  1  0  0  0  0
 28 30  1  0  0  0  0
 29 28  1  0  0  0  0
 29 30  1  0  0  0  0
M  END
>  <minimizedAffinity>
-4.71440268

$$$$

 OpenBabel03242510203D

 30 33  0  0  1  0  0  0  0  0999 V2000
   37.2800   31.3340   37.8640 C   0  0  1  0  0  0  0  0  0  0  0  0
   37.8180   30.1480   37.3060 C   0  0  0  0  0  0  0  0  0  0  0  0
   36.7960   30.0530   38.4560 C   0  0  1  0  0  0  0  0  0  0  0  0
   36.5560   31.9780   37.3260 H   0  0  0  0  0  0  0  0  0  0  0  0
   38.7930   29.6850   37.5190 H   0  0  0  0  0  0  0  0  0  0  0  0
   37.4350   29.8140   36.3160 H   0  0  0  0  0  0  0  0  0  0  0  0
   35.9180   29.4760   38.1550 H   0  0  0  0  0  0  0  0  0  0  0  0
   37.6770   33.1980   39.6130 C   0  0  0  0  0  0  0  0  0  0  0  0
   38.1850   32.1970   38.7410 C   0  0  0  0  0  0  0  0  0  0  0  0
   39.5450   32.0280   38.6850 C   0  0  0  0  0  0  0  0  0  0  0  0
   40.3410   32.8100   39.4520 N   0  0  0  0  0  0  0  0  0  0  0  0
   39.8490   33.7620   40.2800 C   0  0  0  0  0  0  0  0  0  0  0  0
   38.4670   33.9590   40.3590 N   0  0  0  0  0  0  0  0  0  0  0  0
   36.6260   33.3210   39.6510 H   0  0  0  0  0  0  0  0  0  0  0  0
   39.9660   31.2760   38.0330 H   0  0  0  0  0  0  0  0  0  0  0  0
   40.5350   34.3580   40.8690 H   0  0  0  0  0  0  0  0  0  0  0  0
   37.3660   29.6940   39.7160 N   0  0  0  0  0  0  0  0  0  0  0  0
   36.7000   29.8240   40.9210 C   0  0  0  0  0  0  0  0  0  0  0  0
   35.9940   30.7640   41.3730 O   0  0  0  0  0  0  0  0  0  0  0  0
   38.3500   29.3030   39.7830 H   0  0  0  0  0  0  0  0  0  0  0  0
   36.7620   28.6930   41.9370 C   0  0  2  0  0  0  0  0  0  0  0  0
   38.0580   28.6070   42.8060 C   0  0  0  0  0  0  0  0  0  0  0  0
   37.6650   27.5630   41.7760 C   0  0  1  0  0  0  0  0  0  0  0  0
   35.8870   28.6170   42.6310 H   0  0  0  0  0  0  0  0  0  0  0  0
   38.7990   29.3720   42.6020 H   0  0  0  0  0  0  0  0  0  0  0  0
   37.9560   28.2840   43.8510 H   0  0  0  0  0  0  0  0  0  0  0  0
   38.4830   27.4360   41.0880 H   0  0  0  0  0  0  0  0  0  0  0  0
   37.1880   26.2080   42.3050 C   0  0  0  0  0  3  0  0  0  0  0  0
   37.0510   25.1790   41.1620 C   0  0  0  0  0  2  0  0  0  0  0  0
   38.0530   25.0320   42.2350 C   0  0  0  0  0  2  0  0  0  0  0  0
  1  4  1  6  0  0  0
  1  3  1  0  0  0  0
  1  9  1  0  0  0  0
  2  5  1  0  0  0  0
  2  1  1  0  0  0  0
  2  3  1  0  0  0  0
  3  7  1  6  0  0  0
  3 17  1  0  0  0  0
  6  2  1  0  0  0  0
  8 14  1  0  0  0  0
  8 13  1  0  0  0  0
  9  8  2  0  0  0  0
 10  9  1  0  0  0  0
 10 11  2  0  0  0  0
 11 12  1  0  0  0  0
 12 13  2  0  0  0  0
 12 16  1  0  0  0  0
 15 10  1  0  0  0  0
 17 20  1  0  0  0  0
 17 18  1  0  0  0  0
 18 19  2  0  0  0  0
 18 21  1  0  0  0  0
 21 24  1  1  0  0  0
 21 22  1  0  0  0  0
 22 26  1  0  0  0  0
 23 27  1  6  0  0  0
 23 21  1  0  0  0  0
 23 28  1  0  0  0  0
 23 22  1  0  0  0  0
 25 22  1  0  0  0  0
 29 30  1  0  0  0  0
 29 28  1  0  0  0  0
 30 28  1  0  0  0  0
M  END
>  <minimizedAffinity>
-4.70893335

$$$$

 OpenBabel03242510203D

 30 33  0  0  1  0  0  0  0  0999 V2000
   36.8280   31.2990   40.4390 C   0  0  1  0  0  0  0  0  0  0  0  0
   36.1400   30.4290   39.5580 C   0  0  0  0  0  0  0  0  0  0  0  0
   36.2290   30.0790   41.0550 C   0  0  1  0  0  0  0  0  0  0  0  0
   36.4350   32.2920   40.7340 H   0  0  0  0  0  0  0  0  0  0  0  0
   36.5700   29.6740   38.8830 H   0  0  0  0  0  0  0  0  0  0  0  0
   35.1260   30.7290   39.2110 H   0  0  0  0  0  0  0  0  0  0  0  0
   35.2340   29.9830   41.4980 H   0  0  0  0  0  0  0  0  0  0  0  0
   39.1580   31.8290   41.4300 C   0  0  0  0  0  0  0  0  0  0  0  0
   38.3530   31.3510   40.3600 C   0  0  0  0  0  0  0  0  0  0  0  0
   38.9870   30.9430   39.2140 C   0  0  0  0  0  0  0  0  0  0  0  0
   40.3370   31.0100   39.1470 N   0  0  0  0  0  0  0  0  0  0  0  0
   41.0980   31.4670   40.1690 C   0  0  0  0  0  0  0  0  0  0  0  0
   40.4810   31.8900   41.3510 N   0  0  0  0  0  0  0  0  0  0  0  0
   38.6600   32.1400   42.3100 H   0  0  0  0  0  0  0  0  0  0  0  0
   38.4060   30.5730   38.3810 H   0  0  0  0  0  0  0  0  0  0  0  0
   42.1740   31.4980   40.0580 H   0  0  0  0  0  0  0  0  0  0  0  0
   37.1410   29.0210   41.3550 N   0  0  0  0  0  0  0  0  0  0  0  0
   37.4450   28.6150   42.6410 C   0  0  0  0  0  0  0  0  0  0  0  0
   37.6980   29.2860   43.6780 O   0  0  0  0  0  0  0  0  0  0  0  0
   37.6360   28.4870   40.5840 H   0  0  0  0  0  0  0  0  0  0  0  0
   37.5020   27.1290   42.9650 C   0  0  2  0  0  0  0  0  0  0  0  0
   38.9160   26.4630   42.9380 C   0  0  0  0  0  0  0  0  0  0  0  0
   37.8100   26.1330   41.9500 C   0  0  1  0  0  0  0  0  0  0  0  0
   37.0050   26.8220   43.9200 H   0  0  0  0  0  0  0  0  0  0  0  0
   39.7330   27.1310   42.6890 H   0  0  0  0  0  0  0  0  0  0  0  0
   39.1280   25.6750   43.6730 H   0  0  0  0  0  0  0  0  0  0  0  0
   38.1900   26.2690   40.9520 H   0  0  0  0  0  0  0  0  0  0  0  0
   37.1390   24.7640   42.0900 C   0  0  0  0  0  3  0  0  0  0  0  0
   36.5740   24.2790   40.7380 C   0  0  0  0  0  2  0  0  0  0  0  0
   37.6890   23.5890   41.4160 C   0  0  0  0  0  2  0  0  0  0  0  0
  1  4  1  1  0  0  0
  1  3  1  0  0  0  0
  2  1  1  0  0  0  0
  2  3  1  0  0  0  0
  3 17  1  0  0  0  0
  3  7  1  1  0  0  0
  5  2  1  0  0  0  0
  6  2  1  0  0  0  0
  8 14  1  0  0  0  0
  9  1  1  0  0  0  0
  9  8  2  0  0  0  0
 10  9  1  0  0  0  0
 11 10  2  0  0  0  0
 11 12  1  0  0  0  0
 12 13  2  0  0  0  0
 13  8  1  0  0  0  0
 15 10  1  0  0  0  0
 16 12  1  0  0  0  0
 17 18  1  0  0  0  0
 18 21  1  0  0  0  0
 18 19  2  0  0  0  0
 20 17  1  0  0  0  0
 21 24  1  1  0  0  0
 22 21  1  0  0  0  0
 22 26  1  0  0  0  0
 23 27  1  6  0  0  0
 23 28  1  0  0  0  0
 23 22  1  0  0  0  0
 23 21  1  0  0  0  0
 25 22  1  0  0  0  0
 29 30  1  0  0  0  0
 29 28  1  0  0  0  0
 30 28  1  0  0  0  0
M  END
>  <minimizedAffinity>
-4.69426775

$$$$

 OpenBabel03242510203D

 30 33  0  0  1  0  0  0  0  0999 V2000
   37.7860   28.2610   43.6090 C   0  0  1  0  0  0  0  0  0  0  0  0
   36.5710   27.5340   43.5520 C   0  0  0  0  0  0  0  0  0  0  0  0
   37.8670   26.8910   43.0230 C   0  0  1  0  0  0  0  0  0  0  0  0
   38.3200   28.4670   44.5570 H   0  0  0  0  0  0  0  0  0  0  0  0
   35.7660   27.6240   42.8080 H   0  0  0  0  0  0  0  0  0  0  0  0
   36.1830   27.0870   44.4940 H   0  0  0  0  0  0  0  0  0  0  0  0
   38.0880   25.9590   43.5500 H   0  0  0  0  0  0  0  0  0  0  0  0
   36.9250   29.9180   41.8200 C   0  0  0  0  0  0  0  0  0  0  0  0
   37.9740   29.4320   42.6470 C   0  0  0  0  0  0  0  0  0  0  0  0
   39.2000   30.0400   42.5500 C   0  0  0  0  0  0  0  0  0  0  0  0
   39.3620   31.0650   41.6810 N   0  0  0  0  0  0  0  0  0  0  0  0
   38.3580   31.5230   40.8950 C   0  0  0  0  0  0  0  0  0  0  0  0
   37.0970   30.9230   40.9710 N   0  0  0  0  0  0  0  0  0  0  0  0
   35.9830   29.4440   41.9020 H   0  0  0  0  0  0  0  0  0  0  0  0
   40.0200   29.6960   43.1640 H   0  0  0  0  0  0  0  0  0  0  0  0
   38.5470   32.3460   40.2180 H   0  0  0  0  0  0  0  0  0  0  0  0
   37.9490   26.8270   41.5980 N   0  0  0  0  0  0  0  0  0  0  0  0
   37.3990   25.8050   40.8460 C   0  0  0  0  0  0  0  0  0  0  0  0
   37.4100   24.5570   41.0210 O   0  0  0  0  0  0  0  0  0  0  0  0
   38.4460   27.5810   41.0410 H   0  0  0  0  0  0  0  0  0  0  0  0
   36.6250   26.1400   39.5790 C   0  0  2  0  0  0  0  0  0  0  0  0
   37.4750   26.5270   38.3250 C   0  0  0  0  0  0  0  0  0  0  0  0
   36.5590   27.4950   39.0540 C   0  0  1  0  0  0  0  0  0  0  0  0
   35.8770   25.3740   39.2530 H   0  0  0  0  0  0  0  0  0  0  0  0
   38.5490   26.5200   38.4780 H   0  0  0  0  0  0  0  0  0  0  0  0
   37.1140   26.2050   37.3390 H   0  0  0  0  0  0  0  0  0  0  0  0
   37.1310   28.3640   39.3320 H   0  0  0  0  0  0  0  0  0  0  0  0
   35.2680   27.9030   38.3390 C   0  0  0  0  0  3  0  0  0  0  0  0
   34.5280   29.0140   39.1150 C   0  0  0  0  0  2  0  0  0  0  0  0
   35.1160   29.2460   37.7810 C   0  0  0  0  0  2  0  0  0  0  0  0
  1  4  1  1  0  0  0
  2  1  1  0  0  0  0
  2  6  1  0  0  0  0
  3  7  1  1  0  0  0
  3  2  1  0  0  0  0
  3  1  1  0  0  0  0
  5  2  1  0  0  0  0
  8 14  1  0  0  0  0
  8  9  1  0  0  0  0
  9  1  1  0  0  0  0
 10  9  2  0  0  0  0
 10 15  1  0  0  0  0
 11 10  1  0  0  0  0
 12 13  1  0  0  0  0
 12 11  2  0  0  0  0
 13  8  2  0  0  0  0
 16 12  1  0  0  0  0
 17  3  1  0  0  0  0
 18 19  2  0  0  0  0
 18 17  1  0  0  0  0
 20 17  1  0  0  0  0
 21 24  1  6  0  0  0
 21 18  1  0  0  0  0
 22 25  1  0  0  0  0
 22 23  1  0  0  0  0
 22 21  1  0  0  0  0
 23 27  1  1  0  0  0
 23 21  1  0  0  0  0
 26 22  1  0  0  0  0
 28 23  1  0  0  0  0
 28 29  1  0  0  0  0
 30 28  1  0  0  0  0
 30 29  1  0  0  0  0
M  END
>  <minimizedAffinity>
-4.67098618

$$$$

 OpenBabel03242510203D

 30 33  0  0  1  0  0  0  0  0999 V2000
   37.9860   30.9730   37.2860 C   0  0  1  0  0  0  0  0  0  0  0  0
   38.1590   29.5680   37.3340 C   0  0  0  0  0  0  0  0  0  0  0  0
   36.7380   30.1560   37.2430 C   0  0  1  0  0  0  0  0  0  0  0  0
   38.2530   31.5820   36.4010 H   0  0  0  0  0  0  0  0  0  0  0  0
   38.3400   28.9410   38.2200 H   0  0  0  0  0  0  0  0  0  0  0  0
   38.5070   29.0500   36.4130 H   0  0  0  0  0  0  0  0  0  0  0  0
   36.2170   29.7910   36.3540 H   0  0  0  0  0  0  0  0  0  0  0  0
   39.2620   31.4420   39.4850 C   0  0  0  0  0  0  0  0  0  0  0  0
   38.2370   31.7770   38.5600 C   0  0  0  0  0  0  0  0  0  0  0  0
   37.4410   32.8570   38.8490 C   0  0  0  0  0  0  0  0  0  0  0  0
   37.6600   33.5520   39.9890 N   0  0  0  0  0  0  0  0  0  0  0  0
   38.6380   33.2270   40.8670 C   0  0  0  0  0  0  0  0  0  0  0  0
   39.4660   32.1320   40.6000 N   0  0  0  0  0  0  0  0  0  0  0  0
   39.8720   30.6090   39.2540 H   0  0  0  0  0  0  0  0  0  0  0  0
   36.6520   33.1400   38.1670 H   0  0  0  0  0  0  0  0  0  0  0  0
   38.7660   33.8210   41.7630 H   0  0  0  0  0  0  0  0  0  0  0  0
   35.9970   30.0860   38.4620 N   0  0  0  0  0  0  0  0  0  0  0  0
   35.5130   28.9060   38.9970 C   0  0  0  0  0  0  0  0  0  0  0  0
   34.9290   27.9330   38.4480 O   0  0  0  0  0  0  0  0  0  0  0  0
   35.7820   30.9590   39.0260 H   0  0  0  0  0  0  0  0  0  0  0  0
   35.6680   28.6390   40.4870 C   0  0  2  0  0  0  0  0  0  0  0  0
   36.5430   29.6550   41.2900 C   0  0  0  0  0  0  0  0  0  0  0  0
   36.9320   28.2040   41.0620 C   0  0  1  0  0  0  0  0  0  0  0  0
   34.7140   28.4960   41.0550 H   0  0  0  0  0  0  0  0  0  0  0  0
   36.9610   30.4650   40.7030 H   0  0  0  0  0  0  0  0  0  0  0  0
   36.2400   29.8950   42.3180 H   0  0  0  0  0  0  0  0  0  0  0  0
   37.9120   28.1780   40.6170 H   0  0  0  0  0  0  0  0  0  0  0  0
   36.8620   27.2680   42.2710 C   0  0  0  0  0  3  0  0  0  0  0  0
   38.2140   27.2140   43.0140 C   0  0  0  0  0  2  0  0  0  0  0  0
   37.0020   27.7890   43.6300 C   0  0  0  0  0  2  0  0  0  0  0  0
  1  4  1  6  0  0  0
  1  2  1  0  0  0  0
  1  9  1  0  0  0  0
  2  5  1  0  0  0  0
  3  7  1  6  0  0  0
  3  1  1  0  0  0  0
  3  2  1  0  0  0  0
  3 17  1  0  0  0  0
  6  2  1  0  0  0  0
  8 13  1  0  0  0  0
  9 10  1  0  0  0  0
  9  8  2  0  0  0  0
 10 11  2  0  0  0  0
 11 12  1  0  0  0  0
 12 16  1  0  0  0  0
 13 12  2  0  0  0  0
 14  8  1  0  0  0  0
 15 10  1  0  0  0  0
 17 18  1  0  0  0  0
 17 20  1  0  0  0  0
 18 21  1  0  0  0  0
 19 18  2  0  0  0  0
 21 24  1  1  0  0  0
 21 23  1  0  0  0  0
 21 22  1  0  0  0  0
 22 26  1  0  0  0  0
 23 27  1  6  0  0  0
 23 22  1  0  0  0  0
 23 28  1  0  0  0  0
 25 22  1  0  0  0  0
 28 29  1  0  0  0  0
 28 30  1  0  0  0  0
 29 30  1  0  0  0  0
M  END
>  <minimizedAffinity>
-4.54578209

$$$$

 OpenBabel03242510203D

 30 33  0  0  1  0  0  0  0  0999 V2000
   37.3990   32.1330   38.7310 C   0  0  1  0  0  0  0  0  0  0  0  0
   37.4870   32.9210   39.9050 C   0  0  0  0  0  0  0  0  0  0  0  0
   38.7590   32.2720   39.3270 C   0  0  1  0  0  0  0  0  0  0  0  0
   37.2100   32.5660   37.7290 H   0  0  0  0  0  0  0  0  0  0  0  0
   37.2480   32.6220   40.9370 H   0  0  0  0  0  0  0  0  0  0  0  0
   37.4410   34.0280   39.7990 H   0  0  0  0  0  0  0  0  0  0  0  0
   39.5120   33.0280   39.0870 H   0  0  0  0  0  0  0  0  0  0  0  0
   36.8740   29.7730   37.8130 C   0  0  0  0  0  0  0  0  0  0  0  0
   36.7420   30.7580   38.8300 C   0  0  0  0  0  0  0  0  0  0  0  0
   35.9770   30.4490   39.9250 C   0  0  0  0  0  0  0  0  0  0  0  0
   35.3840   29.2330   39.9950 N   0  0  0  0  0  0  0  0  0  0  0  0
   35.5130   28.3000   39.0230 C   0  0  0  0  0  0  0  0  0  0  0  0
   36.2870   28.5860   37.8930 N   0  0  0  0  0  0  0  0  0  0  0  0
   37.4670   30.0200   36.9720 H   0  0  0  0  0  0  0  0  0  0  0  0
   35.8550   31.1730   40.7170 H   0  0  0  0  0  0  0  0  0  0  0  0
   35.0150   27.3450   39.1340 H   0  0  0  0  0  0  0  0  0  0  0  0
   39.2310   31.1470   40.0700 N   0  0  0  0  0  0  0  0  0  0  0  0
   39.9360   31.2540   41.2550 C   0  0  0  0  0  0  0  0  0  0  0  0
   40.8830   32.0190   41.5830 O   0  0  0  0  0  0  0  0  0  0  0  0
   39.0560   30.1550   39.7370 H   0  0  0  0  0  0  0  0  0  0  0  0
   39.5800   30.3480   42.4240 C   0  0  2  0  0  0  0  0  0  0  0  0
   40.3820   29.0110   42.5390 C   0  0  0  0  0  0  0  0  0  0  0  0
   38.8960   29.0770   42.2310 C   0  0  1  0  0  0  0  0  0  0  0  0
   39.5890   30.8320   43.4330 H   0  0  0  0  0  0  0  0  0  0  0  0
   41.1270   28.8550   41.7660 H   0  0  0  0  0  0  0  0  0  0  0  0
   40.6290   28.6430   43.5440 H   0  0  0  0  0  0  0  0  0  0  0  0
   38.7110   28.5330   41.3200 H   0  0  0  0  0  0  0  0  0  0  0  0
   37.9360   28.6270   43.3340 C   0  0  0  0  0  3  0  0  0  0  0  0
   36.7880   27.7700   42.7600 C   0  0  0  0  0  2  0  0  0  0  0  0
   37.8020   27.2120   43.6770 C   0  0  0  0  0  2  0  0  0  0  0  0
  1  4  1  6  0  0  0
  1  9  1  0  0  0  0
  1  3  1  0  0  0  0
  1  2  1  0  0  0  0
  2  5  1  0  0  0  0
  3  7  1  6  0  0  0
  3  2  1  0  0  0  0
  3 17  1  0  0  0  0
  6  2  1  0  0  0  0
  8 13  2  0  0  0  0
  8  9  1  0  0  0  0
  9 10  2  0  0  0  0
 10 11  1  0  0  0  0
 10 15  1  0  0  0  0
 12 16  1  0  0  0  0
 12 11  2  0  0  0  0
 13 12  1  0  0  0  0
 14  8  1  0  0  0  0
 17 18  1  0  0  0  0
 18 19  2  0  0  0  0
 18 21  1  0  0  0  0
 20 17  1  0  0  0  0
 21 22  1  0  0  0  0
 21 24  1  1  0  0  0
 22 26  1  0  0  0  0
 23 27  1  6  0  0  0
 23 21  1  0  0  0  0
 23 22  1  0  0  0  0
 23 28  1  0  0  0  0
 25 22  1  0  0  0  0
 28 30  1  0  0  0  0
 29 28  1  0  0  0  0
 29 30  1  0  0  0  0
M  END
>  <minimizedAffinity>
-4.53691626

$$$$

 OpenBabel03242510203D

 30 33  0  0  1  0  0  0  0  0999 V2000
   37.2110   26.6150   42.7760 C   0  0  1  0  0  0  0  0  0  0  0  0
   37.9290   27.6020   43.4940 C   0  0  0  0  0  0  0  0  0  0  0  0
   36.6610   28.0000   42.7160 C   0  0  1  0  0  0  0  0  0  0  0  0
   36.6130   25.8260   43.2720 H   0  0  0  0  0  0  0  0  0  0  0  0
   38.8430   28.1310   43.1830 H   0  0  0  0  0  0  0  0  0  0  0  0
   37.8220   27.6280   44.6010 H   0  0  0  0  0  0  0  0  0  0  0  0
   35.9140   28.4440   43.3800 H   0  0  0  0  0  0  0  0  0  0  0  0
   39.2140   26.1670   41.2030 C   0  0  0  0  0  0  0  0  0  0  0  0
   37.8260   26.0640   41.4910 C   0  0  0  0  0  0  0  0  0  0  0  0
   37.0220   25.4590   40.5590 C   0  0  0  0  0  0  0  0  0  0  0  0
   37.5730   24.9900   39.4150 N   0  0  0  0  0  0  0  0  0  0  0  0
   38.8970   25.0920   39.1460 C   0  0  0  0  0  0  0  0  0  0  0  0
   39.7430   25.7040   40.0770 N   0  0  0  0  0  0  0  0  0  0  0  0
   39.8280   26.6330   41.9280 H   0  0  0  0  0  0  0  0  0  0  0  0
   35.9620   25.3640   40.7450 H   0  0  0  0  0  0  0  0  0  0  0  0
   39.2810   24.6990   38.2140 H   0  0  0  0  0  0  0  0  0  0  0  0
   36.9170   28.7210   41.5090 N   0  0  0  0  0  0  0  0  0  0  0  0
   35.9360   29.3730   40.7850 C   0  0  0  0  0  0  0  0  0  0  0  0
   34.7730   29.0090   40.4610 O   0  0  0  0  0  0  0  0  0  0  0  0
   37.8960   28.7890   41.1070 H   0  0  0  0  0  0  0  0  0  0  0  0
   36.2030   30.7730   40.2510 C   0  0  2  0  0  0  0  0  0  0  0  0
   36.7520   30.8690   38.7910 C   0  0  0  0  0  0  0  0  0  0  0  0
   37.5540   31.2620   40.0190 C   0  0  1  0  0  0  0  0  0  0  0  0
   35.3520   31.4940   40.3380 H   0  0  0  0  0  0  0  0  0  0  0  0
   36.8900   29.9170   38.2890 H   0  0  0  0  0  0  0  0  0  0  0  0
   36.4180   31.7110   38.1700 H   0  0  0  0  0  0  0  0  0  0  0  0
   38.4840   30.7190   40.0090 H   0  0  0  0  0  0  0  0  0  0  0  0
   37.8020   32.7560   40.2390 C   0  0  0  0  0  3  0  0  0  0  0  0
   39.0940   32.9940   41.0500 C   0  0  0  0  0  2  0  0  0  0  0  0
   38.9610   33.4170   39.6420 C   0  0  0  0  0  2  0  0  0  0  0  0
  1  4  1  1  0  0  0
  1  2  1  0  0  0  0
  2  6  1  0  0  0  0
  3  1  1  0  0  0  0
  3  7  1  1  0  0  0
  3  2  1  0  0  0  0
  5  2  1  0  0  0  0
  8  9  1  0  0  0  0
  8 14  1  0  0  0  0
  9  1  1  0  0  0  0
 10 15  1  0  0  0  0
 10  9  2  0  0  0  0
 11 10  1  0  0  0  0
 12 11  2  0  0  0  0
 12 13  1  0  0  0  0
 13  8  2  0  0  0  0
 16 12  1  0  0  0  0
 17  3  1  0  0  0  0
 18 17  1  0  0  0  0
 19 18  2  0  0  0  0
 20 17  1  0  0  0  0
 21 24  1  1  0  0  0
 21 18  1  0  0  0  0
 22 23  1  0  0  0  0
 22 21  1  0  0  0  0
 23 27  1  1  0  0  0
 23 28  1  0  0  0  0
 23 21  1  0  0  0  0
 25 22  1  0  0  0  0
 26 22  1  0  0  0  0
 28 29  1  0  0  0  0
 30 28  1  0  0  0  0
 30 29  1  0  0  0  0
M  END
>  <minimizedAffinity>
-4.48419714

$$$$

 OpenBabel03242510203D

 30 33  0  0  1  0  0  0  0  0999 V2000
   35.9840   30.0200   39.5060 C   0  0  1  0  0  0  0  0  0  0  0  0
   34.9630   29.2890   40.1610 C   0  0  0  0  0  0  0  0  0  0  0  0
   36.1920   29.7610   40.9610 C   0  0  1  0  0  0  0  0  0  0  0  0
   35.8510   31.0660   39.1660 H   0  0  0  0  0  0  0  0  0  0  0  0
   34.8070   28.1990   40.1600 H   0  0  0  0  0  0  0  0  0  0  0  0
   34.0160   29.8170   40.4110 H   0  0  0  0  0  0  0  0  0  0  0  0
   35.8970   30.4020   41.7950 H   0  0  0  0  0  0  0  0  0  0  0  0
   38.1880   29.7590   38.1790 C   0  0  0  0  0  0  0  0  0  0  0  0
   36.9000   29.2760   38.5370 C   0  0  0  0  0  0  0  0  0  0  0  0
   36.4740   28.1040   37.9660 C   0  0  0  0  0  0  0  0  0  0  0  0
   37.2860   27.4610   37.0940 N   0  0  0  0  0  0  0  0  0  0  0  0
   38.5110   27.9270   36.7560 C   0  0  0  0  0  0  0  0  0  0  0  0
   38.9740   29.1200   37.3220 N   0  0  0  0  0  0  0  0  0  0  0  0
   38.5090   30.6630   38.6250 H   0  0  0  0  0  0  0  0  0  0  0  0
   35.5010   27.7070   38.2160 H   0  0  0  0  0  0  0  0  0  0  0  0
   39.1160   27.3700   36.0530 H   0  0  0  0  0  0  0  0  0  0  0  0
   37.1170   28.7200   41.2810 N   0  0  0  0  0  0  0  0  0  0  0  0
   37.3210   28.2460   42.5640 C   0  0  0  0  0  0  0  0  0  0  0  0
   37.4510   28.8610   43.6570 O   0  0  0  0  0  0  0  0  0  0  0  0
   37.7010   28.2520   40.5290 H   0  0  0  0  0  0  0  0  0  0  0  0
   37.4100   26.7470   42.8050 C   0  0  2  0  0  0  0  0  0  0  0  0
   38.8350   26.1110   42.7250 C   0  0  0  0  0  0  0  0  0  0  0  0
   37.7240   25.8130   41.7330 C   0  0  1  0  0  0  0  0  0  0  0  0
   36.9310   26.3780   43.7470 H   0  0  0  0  0  0  0  0  0  0  0  0
   39.6370   26.8080   42.5040 H   0  0  0  0  0  0  0  0  0  0  0  0
   39.0720   25.2880   43.4130 H   0  0  0  0  0  0  0  0  0  0  0  0
   38.0880   26.0120   40.7400 H   0  0  0  0  0  0  0  0  0  0  0  0
   37.0800   24.4270   41.8060 C   0  0  0  0  0  3  0  0  0  0  0  0
   36.4210   24.0470   40.4630 C   0  0  0  0  0  2  0  0  0  0  0  0
   37.5910   23.3220   40.9950 C   0  0  0  0  0  2  0  0  0  0  0  0
  1  4  1  6  0  0  0
  1  2  1  0  0  0  0
  1  3  1  0  0  0  0
  2  6  1  0  0  0  0
  2  3  1  0  0  0  0
  3 17  1  0  0  0  0
  3  7  1  1  0  0  0
  5  2  1  0  0  0  0
  8  9  1  0  0  0  0
  8 14  1  0  0  0  0
  9  1  1  0  0  0  0
 10 15  1  0  0  0  0
 10  9  2  0  0  0  0
 11 10  1  0  0  0  0
 12 11  2  0  0  0  0
 12 13  1  0  0  0  0
 13  8  2  0  0  0  0
 16 12  1  0  0  0  0
 17 18  1  0  0  0  0
 18 21  1  0  0  0  0
 18 19  2  0  0  0  0
 20 17  1  0  0  0  0
 21 24  1  1  0  0  0
 22 21  1  0  0  0  0
 22 26  1  0  0  0  0
 23 27  1  6  0  0  0
 23 28  1  0  0  0  0
 23 22  1  0  0  0  0
 23 21  1  0  0  0  0
 25 22  1  0  0  0  0
 29 30  1  0  0  0  0
 29 28  1  0  0  0  0
 30 28  1  0  0  0  0
M  END
>  <minimizedAffinity>
-4.47264433

$$$$
