
 OpenBabel03252504423D

 39 42  0  0  0  0  0  0  0  0999 V2000
   46.3530   32.2220   47.7870 C   0  0  0  0  0  0  0  0  0  0  0  0
   45.8950   31.8420   49.0130 C   0  0  0  0  0  0  0  0  0  0  0  0
   46.8810   31.1530   49.5890 N   0  0  0  0  0  0  0  0  0  0  0  0
   47.9460   31.0790   48.7850 C   0  0  0  0  0  0  0  0  0  0  0  0
   47.6040   31.7560   47.6520 N   0  0  0  0  0  0  0  0  0  0  0  0
   49.2200   30.4660   48.9490 N   0  0  0  0  0  0  0  0  0  0  0  0
   50.2820   31.2830   49.5820 C   0  0  0  0  0  0  0  0  0  0  0  0
   50.3910   30.7320   51.0030 C   0  0  0  0  0  0  0  0  0  0  0  0
   50.4840   29.2300   50.9740 C   0  0  0  0  0  0  0  0  0  0  0  0
   50.8260   28.7610   49.5690 C   0  0  0  0  0  0  0  0  0  0  0  0
   49.7210   29.1700   48.6190 C   0  0  0  0  0  0  0  0  0  0  0  0
   44.9140   32.0580   49.4360 H   0  0  0  0  0  0  0  0  0  0  0  0
   46.8660   30.7120   50.5400 H   0  0  0  0  0  0  0  0  0  0  0  0
   51.2220   31.1980   49.0270 H   0  0  0  0  0  0  0  0  0  0  0  0
   49.9590   32.3380   49.6830 H   0  0  0  0  0  0  0  0  0  0  0  0
   49.4990   31.0130   51.5670 H   0  0  0  0  0  0  0  0  0  0  0  0
   51.3200   31.1480   51.4660 H   0  0  0  0  0  0  0  0  0  0  0  0
   49.5150   28.7490   51.2210 H   0  0  0  0  0  0  0  0  0  0  0  0
   51.2630   28.8260   51.6700 H   0  0  0  0  0  0  0  0  0  0  0  0
   50.9420   27.6630   49.5670 H   0  0  0  0  0  0  0  0  0  0  0  0
   51.7810   29.2490   49.2960 H   0  0  0  0  0  0  0  0  0  0  0  0
   50.0730   29.1130   47.5660 H   0  0  0  0  0  0  0  0  0  0  0  0
   48.9090   28.4050   48.7750 H   0  0  0  0  0  0  0  0  0  0  0  0
   45.6060   33.0220   46.7700 C   0  0  0  0  0  0  0  0  0  0  0  0
   45.3730   34.0230   47.1990 H   0  0  0  0  0  0  0  0  0  0  0  0
   44.6460   32.5120   46.5190 H   0  0  0  0  0  0  0  0  0  0  0  0
   45.9780   33.8320   44.4700 C   0  0  0  0  0  3  0  0  0  0  0  0
   46.4180   33.2180   45.5520 C   0  0  0  0  0  3  0  0  0  0  0  0
   46.8910   33.9500   43.3390 C   0  0  0  0  0  0  0  0  0  0  0  0
   46.8980   35.1040   42.5060 C   0  0  0  0  0  0  0  0  0  0  0  0
   47.7920   35.1310   41.4570 C   0  0  0  0  0  0  0  0  0  0  0  0
   48.6170   34.0840   41.2500 N   0  0  0  0  0  0  0  0  0  0  0  0
   48.5920   33.0020   42.0520 C   0  0  0  0  0  0  0  0  0  0  0  0
   47.7560   32.9300   43.0670 N   0  0  0  0  0  0  0  0  0  0  0  0
   46.2030   35.8910   42.7480 H   0  0  0  0  0  0  0  0  0  0  0  0
   47.7730   36.0190   40.8430 H   0  0  0  0  0  0  0  0  0  0  0  0
   49.5210   31.8760   41.7830 C   0  0  0  0  0  3  0  0  0  0  0  0
   49.8350   30.9020   42.8820 C   0  0  0  0  0  2  0  0  0  0  0  0
   50.8820   31.8420   42.3450 C   0  0  0  0  0  2  0  0  0  0  0  0
  1  2  2  0  0  0  0
  2 12  1  0  0  0  0
  2  3  1  0  0  0  0
  3 13  1  0  0  0  0
  4  6  1  0  0  0  0
  4  3  1  0  0  0  0
  5  1  1  0  0  0  0
  5  4  2  0  0  0  0
  6  7  1  0  0  0  0
  7 15  1  0  0  0  0
  7  8  1  0  0  0  0
  8 17  1  0  0  0  0
  8 16  1  0  0  0  0
  9  8  1  0  0  0  0
  9 18  1  0  0  0  0
  9 19  1  0  0  0  0
 10  9  1  0  0  0  0
 11 23  1  0  0  0  0
 11  6  1  0  0  0  0
 11 10  1  0  0  0  0
 14  7  1  0  0  0  0
 20 10  1  0  0  0  0
 21 10  1  0  0  0  0
 22 11  1  0  0  0  0
 24 25  1  0  0  0  0
 24  1  1  0  0  0  0
 26 24  1  0  0  0  0
 27 28  2  0  0  0  0
 28 24  1  0  0  0  0
 29 27  1  0  0  0  0
 30 35  1  0  0  0  0
 30 29  2  0  0  0  0
 31 30  1  0  0  0  0
 32 31  2  0  0  0  0
 32 33  1  0  0  0  0
 33 34  2  0  0  0  0
 34 29  1  0  0  0  0
 36 31  1  0  0  0  0
 37 33  1  0  0  0  0
 37 39  1  0  0  0  0
 37 38  1  0  0  0  0
 39 38  1  0  0  0  0
M  END
>  <minimizedAffinity>
-5.58774996

>  <minimizedRMSD>
0.584119499

$$$$
