
 OpenBabel03252509243D

 21 23  0  0  1  0  0  0  0  0999 V2000
   44.6770   35.3150   45.1390 C   0  0  0  0  0  0  0  0  0  0  0  0
   45.1520   35.6750   43.8610 C   0  0  0  0  0  0  0  0  0  0  0  0
   46.1420   34.8800   43.3540 C   0  0  0  0  0  0  0  0  0  0  0  0
   46.6300   33.7960   44.0740 N   0  0  0  0  0  0  0  0  0  0  0  0
   46.1460   33.4950   45.2850 C   0  0  0  0  0  0  0  0  0  0  0  0
   45.1570   34.2650   45.8220 N   0  0  0  0  0  0  0  0  0  0  0  0
   43.8910   35.9220   45.5720 H   0  0  0  0  0  0  0  0  0  0  0  0
   46.6270   32.6300   45.7140 H   0  0  0  0  0  0  0  0  0  0  0  0
   46.6450   35.1360   41.9550 C   0  0  1  0  0  0  0  0  0  0  0  0
   48.1860   35.3060   41.9640 C   0  0  0  0  0  0  0  0  0  0  0  0
   47.4060   34.1380   41.2970 C   0  0  2  0  0  0  0  0  0  0  0  0
   46.1240   35.9510   41.4220 H   0  0  0  0  0  0  0  0  0  0  0  0
   48.5630   36.0850   41.3090 H   0  0  0  0  0  0  0  0  0  0  0  0
   48.7460   35.0820   42.8670 H   0  0  0  0  0  0  0  0  0  0  0  0
   47.5830   33.1630   41.8000 H   0  0  0  0  0  0  0  0  0  0  0  0
   47.4250   34.0910   39.7920 C   0  0  0  0  0  3  0  0  0  0  0  0
   48.2090   33.0740   39.0620 C   0  0  0  0  0  2  0  0  0  0  0  0
   46.7290   32.8660   39.1650 C   0  0  0  0  0  2  0  0  0  0  0  0
   44.6640   36.8110   43.1580 N   0  0  0  0  0  0  0  0  0  0  0  0
   44.2360   36.9040   42.2430 H   0  0  0  0  0  0  0  0  0  0  0  0
   44.7160   37.7740   43.5870 H   0  0  0  0  0  0  0  0  0  0  0  0
  1  7  1  0  0  0  0
  1  6  1  0  0  0  0
  2  1  2  0  0  0  0
  3  2  1  0  0  0  0
  3  4  2  0  0  0  0
  4  5  1  0  0  0  0
  5  8  1  0  0  0  0
  5  6  2  0  0  0  0
  9 12  1  6  0  0  0
  9 10  1  0  0  0  0
  9  3  1  0  0  0  0
 10 14  1  0  0  0  0
 11 15  1  1  0  0  0
 11  9  1  0  0  0  0
 11 10  1  0  0  0  0
 13 10  1  0  0  0  0
 16 11  1  0  0  0  0
 17 18  1  0  0  0  0
 17 16  1  0  0  0  0
 18 16  1  0  0  0  0
 19 21  1  0  0  0  0
 19  2  1  0  0  0  0
 20 19  1  0  0  0  0
M  END
>  <minimizedAffinity>
-4.37679243

>  <minimizedRMSD>
0.304550976

$$$$
