
 OpenBabel03252506203D

 27 29  0  0  0  0  0  0  0  0999 V2000
   45.3830   34.6580   41.7230 C   0  0  0  0  0  0  0  0  0  0  0  0
   44.6870   34.1130   40.6320 C   0  0  0  0  0  0  0  0  0  0  0  0
   45.3360   33.0830   39.9100 C   0  0  0  0  0  0  0  0  0  0  0  0
   46.5700   32.6820   40.2970 N   0  0  0  0  0  0  0  0  0  0  0  0
   47.1960   33.2480   41.3630 C   0  0  0  0  0  0  0  0  0  0  0  0
   46.6000   34.2360   42.0740 N   0  0  0  0  0  0  0  0  0  0  0  0
   43.7220   34.4870   40.3960 H   0  0  0  0  0  0  0  0  0  0  0  0
   44.8120   32.6680   39.0840 H   0  0  0  0  0  0  0  0  0  0  0  0
   49.3030   35.3880   41.7020 Cl  0  0  0  0  0  0  0  0  0  0  0  0
   49.5520   33.6780   41.8810 C   0  0  0  0  0  0  0  0  0  0  0  0
   48.5250   32.7510   41.7080 C   0  0  0  0  0  0  0  0  0  0  0  0
   48.6860   31.3950   41.8410 C   0  0  0  0  0  0  0  0  0  0  0  0
   49.9600   30.9550   42.1700 C   0  0  0  0  0  0  0  0  0  0  0  0
   51.0470   31.7880   42.3640 C   0  0  0  0  0  0  0  0  0  0  0  0
   50.7810   33.1470   42.2050 C   0  0  0  0  0  0  0  0  0  0  0  0
   47.8730   30.7140   41.7000 H   0  0  0  0  0  0  0  0  0  0  0  0
   50.0740   29.8770   42.2720 H   0  0  0  0  0  0  0  0  0  0  0  0
   52.0130   31.4190   42.6140 H   0  0  0  0  0  0  0  0  0  0  0  0
   51.6090   33.8260   42.3500 H   0  0  0  0  0  0  0  0  0  0  0  0
   44.7150   35.7240   42.4720 C   0  0  0  0  0  3  0  0  0  0  0  0
   45.4350   36.5060   43.2360 C   0  0  0  0  0  3  0  0  0  0  0  0
   44.8390   37.6120   44.0300 C   0  0  0  0  0  0  0  0  0  0  0  0
   44.6850   37.2340   45.0610 H   0  0  0  0  0  0  0  0  0  0  0  0
   43.8060   37.8500   43.6460 H   0  0  0  0  0  0  0  0  0  0  0  0
   45.7250   38.8310   44.0760 C   0  0  0  0  0  3  0  0  0  0  0  0
   45.2200   40.1610   43.6870 C   0  0  0  0  0  2  0  0  0  0  0  0
   45.3240   39.8350   45.1680 C   0  0  0  0  0  2  0  0  0  0  0  0
  1  6  1  0  0  0  0
  1 20  1  0  0  0  0
  2  1  2  0  0  0  0
  3  4  2  0  0  0  0
  3  2  1  0  0  0  0
  4  5  1  0  0  0  0
  5 11  1  0  0  0  0
  5  6  2  0  0  0  0
  7  2  1  0  0  0  0
  8  3  1  0  0  0  0
  9 10  1  0  0  0  0
 10 15  1  0  0  0  0
 11 12  1  0  0  0  0
 11 10  2  0  0  0  0
 12 13  2  0  0  0  0
 13 17  1  0  0  0  0
 13 14  1  0  0  0  0
 14 18  1  0  0  0  0
 15 19  1  0  0  0  0
 15 14  2  0  0  0  0
 16 12  1  0  0  0  0
 20 21  2  0  0  0  0
 21 22  1  0  0  0  0
 22 25  1  0  0  0  0
 22 23  1  0  0  0  0
 24 22  1  0  0  0  0
 25 27  1  0  0  0  0
 26 25  1  0  0  0  0
 26 27  1  0  0  0  0
M  END
>  <minimizedAffinity>
-3.74315739

>  <minimizedRMSD>
1.75229764

$$$$
