
 OpenBabel03252508263D

 35 39  0  0  1  0  0  0  0  0999 V2000
   46.6470   32.4330   45.7550 C   0  0  1  0  0  0  0  0  0  0  0  0
   47.0350   32.6930   47.1480 C   0  0  0  0  0  0  0  0  0  0  0  0
   45.6530   32.0450   46.7340 C   0  0  2  0  0  0  0  0  0  0  0  0
   47.4770   31.7550   45.3390 H   0  0  0  0  0  0  0  0  0  0  0  0
   47.0060   33.7010   47.5500 H   0  0  0  0  0  0  0  0  0  0  0  0
   47.6070   31.9910   47.7780 H   0  0  0  0  0  0  0  0  0  0  0  0
   44.8960   32.7620   47.1880 H   0  0  0  0  0  0  0  0  0  0  0  0
   45.3510   30.6710   47.1420 C   0  0  0  0  0  0  0  0  0  0  0  0
   45.2350   30.1870   48.4060 C   0  0  0  0  0  0  0  0  0  0  0  0
   45.0750   28.8500   48.7540 C   0  0  0  0  0  0  0  0  0  0  0  0
   45.0320   27.9320   47.6950 C   0  0  0  0  0  0  0  0  0  0  0  0
   45.1460   28.4010   46.3860 C   0  0  0  0  0  0  0  0  0  0  0  0
   45.0330   27.4620   45.3760 C   0  0  0  0  0  0  0  0  0  0  0  0
   45.0670   27.8970   44.0540 C   0  0  0  0  0  0  0  0  0  0  0  0
   45.2090   29.2360   43.7520 C   0  0  0  0  0  0  0  0  0  0  0  0
   45.3190   30.1220   44.7980 C   0  0  0  0  0  0  0  0  0  0  0  0
   45.2990   29.7430   46.1330 C   0  0  0  0  0  0  0  0  0  0  0  0
   45.2740   30.9320   49.1980 H   0  0  0  0  0  0  0  0  0  0  0  0
   44.9890   28.5400   49.7830 H   0  0  0  0  0  0  0  0  0  0  0  0
   44.9130   26.9050   47.9670 H   0  0  0  0  0  0  0  0  0  0  0  0
   44.9210   26.4190   45.6440 H   0  0  0  0  0  0  0  0  0  0  0  0
   44.9720   27.0700   43.3420 H   0  0  0  0  0  0  0  0  0  0  0  0
   45.2090   29.3660   42.6990 H   0  0  0  0  0  0  0  0  0  0  0  0
   45.3290   31.0650   44.3300 H   0  0  0  0  0  0  0  0  0  0  0  0
   44.9300   35.2630   44.1200 C   0  0  0  0  0  0  0  0  0  0  0  0
   45.8110   35.5650   43.0250 C   0  0  0  0  0  0  0  0  0  0  0  0
   46.9960   34.7710   42.8980 C   0  0  0  0  0  0  0  0  0  0  0  0
   47.2390   33.7920   43.7850 N   0  0  0  0  0  0  0  0  0  0  0  0
   46.3520   33.5530   44.8140 C   0  0  0  0  0  0  0  0  0  0  0  0
   45.2380   34.2640   44.9740 N   0  0  0  0  0  0  0  0  0  0  0  0
   44.0560   35.8890   44.1690 H   0  0  0  0  0  0  0  0  0  0  0  0
   45.5760   36.3620   42.3330 H   0  0  0  0  0  0  0  0  0  0  0  0
   47.8890   35.0930   41.7700 C   0  0  0  0  0  3  0  0  0  0  0  0
   48.8940   34.0640   41.3930 C   0  0  0  0  0  2  0  0  0  0  0  0
   47.7330   34.4320   40.4650 C   0  0  0  0  0  2  0  0  0  0  0  0
  1  4  1  6  0  0  0
  1  3  1  0  0  0  0
  1  2  1  0  0  0  0
  2  5  1  0  0  0  0
  2  6  1  0  0  0  0
  3  8  1  0  0  0  0
  3  2  1  0  0  0  0
  3  7  1  1  0  0  0
  8  9  1  0  0  0  0
  9 10  2  0  0  0  0
  9 18  1  0  0  0  0
 10 19  1  0  0  0  0
 11 20  1  0  0  0  0
 11 10  1  0  0  0  0
 12 11  2  0  0  0  0
 13 21  1  0  0  0  0
 13 12  1  0  0  0  0
 14 13  2  0  0  0  0
 15 14  1  0  0  0  0
 15 16  2  0  0  0  0
 16 17  1  0  0  0  0
 17 12  1  0  0  0  0
 17  8  2  0  0  0  0
 22 14  1  0  0  0  0
 23 15  1  0  0  0  0
 24 16  1  0  0  0  0
 25 31  1  0  0  0  0
 25 30  1  0  0  0  0
 26 25  2  0  0  0  0
 27 26  1  0  0  0  0
 27 28  2  0  0  0  0
 28 29  1  0  0  0  0
 29 30  2  0  0  0  0
 29  1  1  0  0  0  0
 32 26  1  0  0  0  0
 33 27  1  0  0  0  0
 34 33  1  0  0  0  0
 35 34  1  0  0  0  0
 35 33  1  0  0  0  0
M  END
>  <minimizedAffinity>
-5.22893429

>  <minimizedRMSD>
0.857450008

$$$$
