
 OpenBabel03252501203D

 20 21  0  0  0  0  0  0  0  0999 V2000
   45.0830   34.7910   45.1590 C   0  0  0  0  0  0  0  0  0  0  0  0
   45.5480   35.1390   43.8860 C   0  0  0  0  0  0  0  0  0  0  0  0
   46.5590   34.3410   43.3640 C   0  0  0  0  0  0  0  0  0  0  0  0
   47.0360   33.2910   44.0980 N   0  0  0  0  0  0  0  0  0  0  0  0
   46.5580   33.0000   45.3120 C   0  0  0  0  0  0  0  0  0  0  0  0
   45.5710   33.7600   45.8440 N   0  0  0  0  0  0  0  0  0  0  0  0
   44.2930   35.3750   45.6210 H   0  0  0  0  0  0  0  0  0  0  0  0
   47.0370   32.1380   45.7670 H   0  0  0  0  0  0  0  0  0  0  0  0
   47.0260   34.7020   42.0230 C   0  0  0  0  0  0  0  0  0  0  0  0
   47.9640   33.7640   41.5920 F   0  0  0  0  0  0  0  0  0  0  0  0
   47.7050   35.8830   42.1410 F   0  0  0  0  0  0  0  0  0  0  0  0
   46.0280   34.7000   41.1030 F   0  0  0  0  0  0  0  0  0  0  0  0
   45.0080   36.2770   43.1550 C   0  0  0  0  0  0  0  0  0  0  0  0
   44.0890   35.9740   42.6380 H   0  0  0  0  0  0  0  0  0  0  0  0
   45.6510   36.7620   42.4310 H   0  0  0  0  0  0  0  0  0  0  0  0
   44.8090   37.4090   44.0360 N   0  0  0  0  0  0  0  0  0  0  0  0
   44.8380   37.0060   45.0140 H   0  0  0  0  0  0  0  0  0  0  0  0
   45.6860   38.4940   43.9020 C   0  0  0  0  0  0  0  0  0  0  0  0
   45.3630   39.6340   44.8730 C   0  0  0  0  0  0  0  0  0  0  0  0
   45.3550   39.8140   43.3760 C   0  0  0  0  0  0  0  0  0  0  0  0
  1  7  1  0  0  0  0
  1  6  1  0  0  0  0
  2  1  2  0  0  0  0
  3  2  1  0  0  0  0
  3  4  2  0  0  0  0
  4  5  1  0  0  0  0
  5  8  1  0  0  0  0
  5  6  2  0  0  0  0
  9 11  1  0  0  0  0
  9  3  1  0  0  0  0
 10  9  1  0  0  0  0
 12  9  1  0  0  0  0
 13  2  1  0  0  0  0
 13 16  1  0  0  0  0
 14 13  1  0  0  0  0
 15 13  1  0  0  0  0
 16 17  1  0  0  0  0
 18 16  1  0  0  0  0
 18 19  1  0  0  0  0
 20 18  1  0  0  0  0
 20 19  1  0  0  0  0
M  END
>  <minimizedAffinity>
-4.03120232

>  <minimizedRMSD>
0.564565122

$$$$
