
 OpenBabel03242522503D

 20 22  0  0  1  0  0  0  0  0999 V2000
   45.2280   32.7720   47.5470 O   0  0  0  0  0  0  0  0  0  0  0  0
   47.2150   32.6730   44.5040 C   0  0  0  0  0  0  0  0  0  0  0  0
   46.6870   32.3350   45.7610 C   0  0  0  0  0  0  0  0  0  0  0  0
   45.7180   33.1360   46.3120 C   0  0  0  0  0  0  0  0  0  0  0  0
   45.3110   34.2290   45.6040 N   0  0  0  0  0  0  0  0  0  0  0  0
   45.8180   34.5490   44.4050 C   0  0  0  0  0  0  0  0  0  0  0  0
   46.7730   33.7680   43.8510 N   0  0  0  0  0  0  0  0  0  0  0  0
   47.9780   32.1040   43.9920 H   0  0  0  0  0  0  0  0  0  0  0  0
   47.1370   31.4440   46.1390 H   0  0  0  0  0  0  0  0  0  0  0  0
   45.3860   35.4510   43.9750 H   0  0  0  0  0  0  0  0  0  0  0  0
   46.0860   30.3680   48.1560 O   0  0  0  0  0  0  0  0  0  0  0  0
   46.1540   31.8440   48.6050 P   0  0  2  0  0  0  0  0  0  0  0  0
   45.4770   31.8810   50.1480 O   0  0  0  0  0  0  0  0  0  0  0  0
   44.6530   31.3140   50.1960 H   0  0  0  0  0  0  0  0  0  0  0  0
   47.7300   32.3480   48.5950 O   0  0  0  0  0  0  0  0  0  0  0  0
   48.8670   31.7130   48.9480 C   0  0  2  0  0  3  0  0  0  0  0  0
   49.7970   32.4860   49.3640 O   0  0  0  0  0  0  0  0  0  0  0  0
   49.9080   30.7290   49.2310 C   0  0  0  0  0  0  0  0  0  0  0  0
   49.6980   29.8450   50.4410 C   0  0  0  0  0  2  0  0  0  0  0  0
   49.7060   29.2740   49.0700 C   0  0  0  0  0  2  0  0  0  0  0  0
  1 12  1  0  0  0  0
  2  3  1  0  0  0  0
  3  9  1  0  0  0  0
  3  4  2  0  0  0  0
  4  1  1  0  0  0  0
  5  4  1  0  0  0  0
  6  5  2  0  0  0  0
  7  6  1  0  0  0  0
  7  2  2  0  0  0  0
  8  2  1  0  0  0  0
 10  6  1  0  0  0  0
 12 11  2  6  0  0  0
 12 13  1  0  0  0  0
 13 14  1  0  0  0  0
 15 12  1  0  0  0  0
 16 15  1  6  0  0  0
 16 18  1  0  0  0  0
 16 17  1  0  0  0  0
 18 17  1  0  0  0  0
 18 19  1  0  0  0  0
 20 18  1  0  0  0  0
 20 19  1  0  0  0  0
M  END
>  <minimizedAffinity>
-4.03688526

>  <minimizedRMSD>
0.912831664

$$$$
