
 OpenBabel03242522513D

 20 22  0  0  1  0  0  0  0  0999 V2000
   45.0860   33.3620   47.6480 O   0  0  0  0  0  0  0  0  0  0  0  0
   46.7880   33.4210   44.4360 C   0  0  0  0  0  0  0  0  0  0  0  0
   46.4220   33.0580   45.7430 C   0  0  0  0  0  0  0  0  0  0  0  0
   45.4120   33.7470   46.3660 C   0  0  0  0  0  0  0  0  0  0  0  0
   44.8060   34.7570   45.6790 N   0  0  0  0  0  0  0  0  0  0  0  0
   45.1570   35.1010   44.4310 C   0  0  0  0  0  0  0  0  0  0  0  0
   46.1520   34.4300   43.8070 N   0  0  0  0  0  0  0  0  0  0  0  0
   47.5690   32.9370   43.8670 H   0  0  0  0  0  0  0  0  0  0  0  0
   47.0150   32.2430   46.0950 H   0  0  0  0  0  0  0  0  0  0  0  0
   44.5770   35.9270   44.0260 H   0  0  0  0  0  0  0  0  0  0  0  0
   45.4260   30.7610   47.5700 O   0  0  0  0  0  0  0  0  0  0  0  0
   45.8210   32.0260   48.3630 P   0  0  2  0  0  0  0  0  0  0  0  0
   45.2110   31.7950   49.9180 O   0  0  0  0  0  0  0  0  0  0  0  0
   44.2860   31.4110   49.8920 H   0  0  0  0  0  0  0  0  0  0  0  0
   47.4680   32.1900   48.3490 O   0  0  0  0  0  0  0  0  0  0  0  0
   48.4450   31.3580   48.7650 C   0  0  2  0  0  3  0  0  0  0  0  0
   49.4350   31.9450   49.3260 O   0  0  0  0  0  0  0  0  0  0  0  0
   49.2830   30.2040   49.0750 C   0  0  0  0  0  0  0  0  0  0  0  0
   49.0510   28.9540   48.2530 C   0  0  0  0  0  2  0  0  0  0  0  0
   50.3310   29.7010   48.1610 C   0  0  0  0  0  2  0  0  0  0  0  0
  1 12  1  0  0  0  0
  2  3  1  0  0  0  0
  3  9  1  0  0  0  0
  3  4  2  0  0  0  0
  4  1  1  0  0  0  0
  5  4  1  0  0  0  0
  6  5  2  0  0  0  0
  7  6  1  0  0  0  0
  7  2  2  0  0  0  0
  8  2  1  0  0  0  0
 10  6  1  0  0  0  0
 12 11  2  6  0  0  0
 12 13  1  0  0  0  0
 14 13  1  0  0  0  0
 15 12  1  0  0  0  0
 16 15  1  6  0  0  0
 16 18  1  0  0  0  0
 16 17  1  0  0  0  0
 18 17  1  0  0  0  0
 19 18  1  0  0  0  0
 20 19  1  0  0  0  0
 20 18  1  0  0  0  0
M  END
>  <minimizedAffinity>
-4.38562393

>  <minimizedRMSD>
0.435149312

$$$$
