
 OpenBabel03242522503D

 20 22  0  0  1  0  0  0  0  0999 V2000
   45.0860   33.3620   47.6460 O   0  0  0  0  0  0  0  0  0  0  0  0
   46.7900   33.4200   44.4350 C   0  0  0  0  0  0  0  0  0  0  0  0
   46.4230   33.0570   45.7410 C   0  0  0  0  0  0  0  0  0  0  0  0
   45.4130   33.7460   46.3640 C   0  0  0  0  0  0  0  0  0  0  0  0
   44.8070   34.7560   45.6760 N   0  0  0  0  0  0  0  0  0  0  0  0
   45.1590   35.1000   44.4290 C   0  0  0  0  0  0  0  0  0  0  0  0
   46.1540   34.4290   43.8050 N   0  0  0  0  0  0  0  0  0  0  0  0
   47.5710   32.9360   43.8660 H   0  0  0  0  0  0  0  0  0  0  0  0
   47.0160   32.2420   46.0940 H   0  0  0  0  0  0  0  0  0  0  0  0
   44.5790   35.9270   44.0240 H   0  0  0  0  0  0  0  0  0  0  0  0
   45.4260   30.7600   47.5690 O   0  0  0  0  0  0  0  0  0  0  0  0
   45.8210   32.0250   48.3620 P   0  0  2  0  0  0  0  0  0  0  0  0
   45.2110   31.7960   49.9170 O   0  0  0  0  0  0  0  0  0  0  0  0
   44.2860   31.4120   49.8900 H   0  0  0  0  0  0  0  0  0  0  0  0
   47.4680   32.1890   48.3480 O   0  0  0  0  0  0  0  0  0  0  0  0
   48.4450   31.3580   48.7630 C   0  0  2  0  0  3  0  0  0  0  0  0
   49.4340   31.9440   49.3270 O   0  0  0  0  0  0  0  0  0  0  0  0
   49.2830   30.2040   49.0740 C   0  0  0  0  0  0  0  0  0  0  0  0
   49.0500   28.9540   48.2530 C   0  0  0  0  0  2  0  0  0  0  0  0
   50.3310   29.7000   48.1590 C   0  0  0  0  0  2  0  0  0  0  0  0
  1 12  1  0  0  0  0
  2  3  1  0  0  0  0
  3  9  1  0  0  0  0
  3  4  2  0  0  0  0
  4  1  1  0  0  0  0
  5  4  1  0  0  0  0
  6  5  2  0  0  0  0
  7  6  1  0  0  0  0
  7  2  2  0  0  0  0
  8  2  1  0  0  0  0
 10  6  1  0  0  0  0
 12 11  2  6  0  0  0
 12 13  1  0  0  0  0
 14 13  1  0  0  0  0
 15 12  1  0  0  0  0
 16 15  1  6  0  0  0
 16 18  1  0  0  0  0
 16 17  1  0  0  0  0
 18 17  1  0  0  0  0
 19 18  1  0  0  0  0
 20 19  1  0  0  0  0
 20 18  1  0  0  0  0
M  END
>  <minimizedAffinity>
-4.38601685

>  <minimizedRMSD>
0.313441396

$$$$
