
 OpenBabel03242521453D

 32 34  0  0  1  0  0  0  0  0999 V2000
   35.9070   29.7310   39.0540 C   0  0  0  0  0  0  0  0  0  0  0  0
   36.8710   30.6820   39.3910 C   0  0  0  0  0  0  0  0  0  0  0  0
   37.6870   31.2230   38.3870 C   0  0  0  0  0  0  0  0  0  0  0  0
   37.4890   30.7890   37.1410 N   0  0  0  0  0  0  0  0  0  0  0  0
   36.5500   29.8670   36.8270 C   0  0  0  0  0  0  0  0  0  0  0  0
   35.7570   29.3350   37.7750 N   0  0  0  0  0  0  0  0  0  0  0  0
   36.9340   30.9550   40.4480 H   0  0  0  0  0  0  0  0  0  0  0  0
   36.4890   29.5990   35.7800 H   0  0  0  0  0  0  0  0  0  0  0  0
   39.9780   32.1340   38.1020 C   0  0  2  0  0  0  0  0  0  0  0  0
   38.6690   32.2060   38.8040 C   0  0  2  0  0  0  0  0  0  0  0  0
   39.0850   32.0770   40.1630 O   0  0  0  0  0  0  0  0  0  0  0  0
   40.0720   33.0430   40.2440 C   0  0  0  0  0  0  0  0  0  0  0  0
   40.7230   33.2140   38.9110 C   0  0  1  0  0  0  0  0  0  0  0  0
   40.5490   31.1960   38.3480 H   0  0  0  0  0  0  0  0  0  0  0  0
   38.2600   33.2410   38.7010 H   0  0  0  0  0  0  0  0  0  0  0  0
   39.6980   34.0040   40.6660 H   0  0  0  0  0  0  0  0  0  0  0  0
   40.8410   32.6850   40.9610 H   0  0  0  0  0  0  0  0  0  0  0  0
   40.5660   34.2190   38.4730 H   0  0  0  0  0  0  0  0  0  0  0  0
   39.9300   32.3790   36.7620 O   0  0  0  0  0  0  0  0  0  0  0  0
   40.1380   31.5910   36.1750 H   0  0  0  0  0  0  0  0  0  0  0  0
   42.0830   32.9120   38.9030 O   0  0  0  0  0  0  0  0  0  0  0  0
   42.2190   31.9820   39.2140 H   0  0  0  0  0  0  0  0  0  0  0  0
   35.0460   29.1530   40.1430 C   0  0  0  0  0  0  0  0  0  0  0  0
   34.8180   28.0880   39.8770 H   0  0  0  0  0  0  0  0  0  0  0  0
   34.1640   29.7820   40.2780 H   0  0  0  0  0  0  0  0  0  0  0  0
   36.6580   28.0090   41.8020 C   0  0  0  0  0  0  0  0  0  0  0  0
   36.6150   26.9660   41.0780 O   0  0  0  0  0  0  0  0  0  0  0  0
   35.8730   29.0980   41.3360 N   0  0  0  0  0  0  0  0  0  0  0  0
   35.8930   29.9800   41.9310 H   0  0  0  0  0  0  0  0  0  0  0  0
   37.4530   28.1330   43.0490 C   0  0  0  0  0  3  0  0  0  0  0  0
   38.9750   27.9890   42.9430 C   0  0  0  0  0  2  0  0  0  0  0  0
   38.3490   29.2940   43.2730 C   0  0  0  0  0  2  0  0  0  0  0  0
  1  2  1  0  0  0  0
  1 23  1  0  0  0  0
  2  7  1  0  0  0  0
  3 10  1  0  0  0  0
  3  2  2  0  0  0  0
  4  3  1  0  0  0  0
  5  4  2  0  0  0  0
  5  6  1  0  0  0  0
  6  1  2  0  0  0  0
  8  5  1  0  0  0  0
  9 14  1  1  0  0  0
  9 10  1  0  0  0  0
  9 13  1  0  0  0  0
 10 15  1  6  0  0  0
 10 11  1  0  0  0  0
 11 12  1  0  0  0  0
 12 16  1  0  0  0  0
 12 17  1  0  0  0  0
 13 18  1  6  0  0  0
 13 12  1  0  0  0  0
 19  9  1  0  0  0  0
 20 19  1  0  0  0  0
 21 13  1  0  0  0  0
 21 22  1  0  0  0  0
 23 25  1  0  0  0  0
 23 28  1  0  0  0  0
 24 23  1  0  0  0  0
 26 30  1  0  0  0  0
 27 26  2  0  0  0  0
 28 26  1  0  0  0  0
 28 29  1  0  0  0  0
 30 32  1  0  0  0  0
 31 30  1  0  0  0  0
 31 32  1  0  0  0  0
M  END
>  <minimizedAffinity>
-5.4576869

$$$$

 OpenBabel03242521453D

 32 34  0  0  1  0  0  0  0  0999 V2000
   38.4090   30.6180   41.3720 C   0  0  0  0  0  0  0  0  0  0  0  0
   39.4330   31.3150   40.7290 C   0  0  0  0  0  0  0  0  0  0  0  0
   39.1170   32.2020   39.6900 C   0  0  0  0  0  0  0  0  0  0  0  0
   37.8290   32.3320   39.3700 N   0  0  0  0  0  0  0  0  0  0  0  0
   36.8450   31.6510   40.0010 C   0  0  0  0  0  0  0  0  0  0  0  0
   37.1260   30.7950   41.0010 N   0  0  0  0  0  0  0  0  0  0  0  0
   40.4490   31.1210   41.0840 H   0  0  0  0  0  0  0  0  0  0  0  0
   35.8400   31.8450   39.6490 H   0  0  0  0  0  0  0  0  0  0  0  0
   40.6700   32.3350   37.7580 C   0  0  2  0  0  0  0  0  0  0  0  0
   40.2270   32.8940   39.0630 C   0  0  2  0  0  0  0  0  0  0  0  0
   41.4450   32.8400   39.8060 O   0  0  0  0  0  0  0  0  0  0  0  0
   42.3260   33.4670   38.9430 C   0  0  0  0  0  0  0  0  0  0  0  0
   41.8940   33.2460   37.5310 C   0  0  1  0  0  0  0  0  0  0  0  0
   41.1310   31.3140   37.8600 H   0  0  0  0  0  0  0  0  0  0  0  0
   39.9930   33.9790   38.9310 H   0  0  0  0  0  0  0  0  0  0  0  0
   42.4680   34.5450   39.1850 H   0  0  0  0  0  0  0  0  0  0  0  0
   43.3240   33.0000   39.0770 H   0  0  0  0  0  0  0  0  0  0  0  0
   41.6040   34.1790   37.0100 H   0  0  0  0  0  0  0  0  0  0  0  0
   39.7430   32.3920   36.7610 O   0  0  0  0  0  0  0  0  0  0  0  0
   39.3900   31.5040   36.4530 H   0  0  0  0  0  0  0  0  0  0  0  0
   42.8220   32.5520   36.7570 O   0  0  0  0  0  0  0  0  0  0  0  0
   43.0180   31.6780   37.1780 H   0  0  0  0  0  0  0  0  0  0  0  0
   38.7640   29.6620   42.4780 C   0  0  0  0  0  0  0  0  0  0  0  0
   37.9900   29.7590   43.2820 H   0  0  0  0  0  0  0  0  0  0  0  0
   39.7860   29.8590   42.8100 H   0  0  0  0  0  0  0  0  0  0  0  0
   37.5490   27.4070   42.1680 C   0  0  0  0  0  0  0  0  0  0  0  0
   36.6430   27.8220   42.9550 O   0  0  0  0  0  0  0  0  0  0  0  0
   38.6080   28.3250   41.9320 N   0  0  0  0  0  0  0  0  0  0  0  0
   39.3790   27.9940   41.2780 H   0  0  0  0  0  0  0  0  0  0  0  0
   37.5490   26.0740   41.5160 C   0  0  0  0  0  3  0  0  0  0  0  0
   38.3570   24.9550   42.1810 C   0  0  0  0  0  2  0  0  0  0  0  0
   36.8730   24.9130   42.1490 C   0  0  0  0  0  2  0  0  0  0  0  0
  1 23  1  0  0  0  0
  2  7  1  0  0  0  0
  2  1  2  0  0  0  0
  3  2  1  0  0  0  0
  4  3  2  0  0  0  0
  4  5  1  0  0  0  0
  5  6  2  0  0  0  0
  6  1  1  0  0  0  0
  8  5  1  0  0  0  0
  9 14  1  1  0  0  0
  9 10  1  0  0  0  0
 10 15  1  6  0  0  0
 10  3  1  0  0  0  0
 10 11  1  0  0  0  0
 12 17  1  0  0  0  0
 12 16  1  0  0  0  0
 12 11  1  0  0  0  0
 13 18  1  6  0  0  0
 13  9  1  0  0  0  0
 13 12  1  0  0  0  0
 19  9  1  0  0  0  0
 20 19  1  0  0  0  0
 21 22  1  0  0  0  0
 21 13  1  0  0  0  0
 23 25  1  0  0  0  0
 23 24  1  0  0  0  0
 26 27  2  0  0  0  0
 28 26  1  0  0  0  0
 28 23  1  0  0  0  0
 29 28  1  0  0  0  0
 30 32  1  0  0  0  0
 30 26  1  0  0  0  0
 30 31  1  0  0  0  0
 32 31  1  0  0  0  0
M  END
>  <minimizedAffinity>
-5.37567949

$$$$

 OpenBabel03242521453D

 32 34  0  0  1  0  0  0  0  0999 V2000
   36.9460   28.9500   41.8500 C   0  0  0  0  0  0  0  0  0  0  0  0
   37.9580   29.7400   41.3040 C   0  0  0  0  0  0  0  0  0  0  0  0
   37.7070   30.4740   40.1350 C   0  0  0  0  0  0  0  0  0  0  0  0
   36.4880   30.3720   39.6030 N   0  0  0  0  0  0  0  0  0  0  0  0
   35.5150   29.6020   40.1420 C   0  0  0  0  0  0  0  0  0  0  0  0
   35.7360   28.8910   41.2620 N   0  0  0  0  0  0  0  0  0  0  0  0
   38.9140   29.7390   41.8350 H   0  0  0  0  0  0  0  0  0  0  0  0
   34.5690   29.6050   39.6150 H   0  0  0  0  0  0  0  0  0  0  0  0
   38.6010   31.8150   38.2490 C   0  0  2  0  0  0  0  0  0  0  0  0
   38.8010   31.2740   39.6200 C   0  0  2  0  0  0  0  0  0  0  0  0
   40.0230   30.5550   39.4500 O   0  0  0  0  0  0  0  0  0  0  0  0
   40.8290   31.5120   38.8600 C   0  0  0  0  0  0  0  0  0  0  0  0
   39.9920   32.4540   38.0590 C   0  0  1  0  0  0  0  0  0  0  0  0
   38.5860   31.0080   37.4650 H   0  0  0  0  0  0  0  0  0  0  0  0
   39.0330   32.1200   40.3120 H   0  0  0  0  0  0  0  0  0  0  0  0
   41.4810   32.0370   39.5960 H   0  0  0  0  0  0  0  0  0  0  0  0
   41.5240   30.9920   38.1680 H   0  0  0  0  0  0  0  0  0  0  0  0
   40.0090   33.4920   38.4440 H   0  0  0  0  0  0  0  0  0  0  0  0
   37.5660   32.6910   38.1190 O   0  0  0  0  0  0  0  0  0  0  0  0
   36.7970   32.3650   37.5600 H   0  0  0  0  0  0  0  0  0  0  0  0
   40.2930   32.4600   36.6980 O   0  0  0  0  0  0  0  0  0  0  0  0
   40.1940   31.5460   36.3320 H   0  0  0  0  0  0  0  0  0  0  0  0
   37.2340   28.1610   43.0980 C   0  0  0  0  0  0  0  0  0  0  0  0
   36.5460   28.5260   43.9050 H   0  0  0  0  0  0  0  0  0  0  0  0
   38.2950   28.2430   43.3390 H   0  0  0  0  0  0  0  0  0  0  0  0
   37.6210   25.7540   42.2550 C   0  0  0  0  0  0  0  0  0  0  0  0
   38.8110   26.0810   41.9570 O   0  0  0  0  0  0  0  0  0  0  0  0
   36.8340   26.7930   42.8210 N   0  0  0  0  0  0  0  0  0  0  0  0
   35.8320   26.5380   43.0740 H   0  0  0  0  0  0  0  0  0  0  0  0
   37.0460   24.4010   42.0470 C   0  0  0  0  0  3  0  0  0  0  0  0
   36.4620   24.0780   40.6670 C   0  0  0  0  0  2  0  0  0  0  0  0
   37.7040   23.4210   41.1460 C   0  0  0  0  0  2  0  0  0  0  0  0
  1 23  1  0  0  0  0
  2  7  1  0  0  0  0
  2  1  1  0  0  0  0
  3  2  2  0  0  0  0
  4  3  1  0  0  0  0
  4  5  2  0  0  0  0
  5  6  1  0  0  0  0
  6  1  2  0  0  0  0
  8  5  1  0  0  0  0
  9 14  1  6  0  0  0
  9 10  1  0  0  0  0
 10  3  1  0  0  0  0
 10 15  1  1  0  0  0
 11 10  1  0  0  0  0
 12 11  1  0  0  0  0
 12 16  1  0  0  0  0
 13  9  1  0  0  0  0
 13 18  1  1  0  0  0
 13 12  1  0  0  0  0
 17 12  1  0  0  0  0
 19  9  1  0  0  0  0
 20 19  1  0  0  0  0
 21 13  1  0  0  0  0
 22 21  1  0  0  0  0
 23 25  1  0  0  0  0
 23 24  1  0  0  0  0
 26 28  1  0  0  0  0
 27 26  2  0  0  0  0
 28 29  1  0  0  0  0
 28 23  1  0  0  0  0
 30 26  1  0  0  0  0
 31 32  1  0  0  0  0
 31 30  1  0  0  0  0
 32 30  1  0  0  0  0
M  END
>  <minimizedAffinity>
-5.31293869

$$$$

 OpenBabel03242521453D

 32 34  0  0  1  0  0  0  0  0999 V2000
   38.0840   27.1820   43.2160 C   0  0  0  0  0  0  0  0  0  0  0  0
   37.3230   26.3740   42.3690 C   0  0  0  0  0  0  0  0  0  0  0  0
   37.8070   25.1110   42.0010 C   0  0  0  0  0  0  0  0  0  0  0  0
   38.9920   24.7450   42.4940 N   0  0  0  0  0  0  0  0  0  0  0  0
   39.7200   25.5360   43.3150 C   0  0  0  0  0  0  0  0  0  0  0  0
   39.2740   26.7530   43.6800 N   0  0  0  0  0  0  0  0  0  0  0  0
   36.3690   26.7890   42.0320 H   0  0  0  0  0  0  0  0  0  0  0  0
   40.6640   25.1240   43.6480 H   0  0  0  0  0  0  0  0  0  0  0  0
   37.6690   23.2440   40.3720 C   0  0  2  0  0  0  0  0  0  0  0  0
   36.9690   24.3220   41.1190 C   0  0  2  0  0  0  0  0  0  0  0  0
   36.3920   25.0640   40.0440 O   0  0  0  0  0  0  0  0  0  0  0  0
   35.7560   24.0660   39.3280 C   0  0  0  0  0  0  0  0  0  0  0  0
   36.4870   22.7750   39.5000 C   0  0  1  0  0  0  0  0  0  0  0  0
   38.3970   23.6480   39.6130 H   0  0  0  0  0  0  0  0  0  0  0  0
   36.1130   23.8750   41.6810 H   0  0  0  0  0  0  0  0  0  0  0  0
   34.6730   23.9820   39.5780 H   0  0  0  0  0  0  0  0  0  0  0  0
   35.7900   24.3430   38.2530 H   0  0  0  0  0  0  0  0  0  0  0  0
   35.8920   21.9990   40.0200 H   0  0  0  0  0  0  0  0  0  0  0  0
   38.2120   22.2630   41.1450 O   0  0  0  0  0  0  0  0  0  0  0  0
   39.2150   22.2250   41.1480 H   0  0  0  0  0  0  0  0  0  0  0  0
   36.9950   22.2500   38.3130 O   0  0  0  0  0  0  0  0  0  0  0  0
   37.5970   22.9110   37.8880 H   0  0  0  0  0  0  0  0  0  0  0  0
   37.5560   28.5390   43.5930 C   0  0  0  0  0  0  0  0  0  0  0  0
   38.4140   29.2610   43.5780 H   0  0  0  0  0  0  0  0  0  0  0  0
   37.0420   28.4710   44.5540 H   0  0  0  0  0  0  0  0  0  0  0  0
   36.9040   29.9390   41.5270 C   0  0  0  0  0  0  0  0  0  0  0  0
   38.0260   30.5280   41.6090 O   0  0  0  0  0  0  0  0  0  0  0  0
   36.6690   28.9490   42.5190 N   0  0  0  0  0  0  0  0  0  0  0  0
   35.7330   28.4460   42.4680 H   0  0  0  0  0  0  0  0  0  0  0  0
   35.8800   30.2260   40.4910 C   0  0  0  0  0  3  0  0  0  0  0  0
   36.0180   29.5250   39.1360 C   0  0  0  0  0  2  0  0  0  0  0  0
   34.9110   29.1850   40.0650 C   0  0  0  0  0  2  0  0  0  0  0  0
  1 23  1  0  0  0  0
  1  6  1  0  0  0  0
  2  1  2  0  0  0  0
  3  2  1  0  0  0  0
  3  4  2  0  0  0  0
  4  5  1  0  0  0  0
  5  8  1  0  0  0  0
  5  6  2  0  0  0  0
  7  2  1  0  0  0  0
  9 14  1  6  0  0  0
  9 10  1  0  0  0  0
  9 19  1  0  0  0  0
 10 15  1  1  0  0  0
 10  3  1  0  0  0  0
 11 10  1  0  0  0  0
 12 13  1  0  0  0  0
 12 16  1  0  0  0  0
 12 11  1  0  0  0  0
 13 18  1  1  0  0  0
 13  9  1  0  0  0  0
 17 12  1  0  0  0  0
 19 20  1  0  0  0  0
 21 13  1  0  0  0  0
 22 21  1  0  0  0  0
 23 25  1  0  0  0  0
 24 23  1  0  0  0  0
 26 27  2  0  0  0  0
 26 28  1  0  0  0  0
 28 23  1  0  0  0  0
 29 28  1  0  0  0  0
 30 26  1  0  0  0  0
 31 32  1  0  0  0  0
 31 30  1  0  0  0  0
 32 30  1  0  0  0  0
M  END
>  <minimizedAffinity>
-5.30746222

$$$$

 OpenBabel03242521453D

 32 34  0  0  1  0  0  0  0  0999 V2000
   36.8520   29.5830   41.4420 C   0  0  0  0  0  0  0  0  0  0  0  0
   36.6350   28.2090   41.3300 C   0  0  0  0  0  0  0  0  0  0  0  0
   37.4770   27.3200   42.0140 C   0  0  0  0  0  0  0  0  0  0  0  0
   38.4570   27.8510   42.7480 N   0  0  0  0  0  0  0  0  0  0  0  0
   38.6560   29.1860   42.8480 C   0  0  0  0  0  0  0  0  0  0  0  0
   37.8590   30.0550   42.2000 N   0  0  0  0  0  0  0  0  0  0  0  0
   35.7990   27.8990   40.6980 H   0  0  0  0  0  0  0  0  0  0  0  0
   39.4840   29.4900   43.4750 H   0  0  0  0  0  0  0  0  0  0  0  0
   38.3910   25.0160   41.8840 C   0  0  2  0  0  0  0  0  0  0  0  0
   37.1990   25.9050   41.8560 C   0  0  2  0  0  0  0  0  0  0  0  0
   36.6340   25.5580   40.5920 O   0  0  0  0  0  0  0  0  0  0  0  0
   36.5810   24.1790   40.6800 C   0  0  0  0  0  0  0  0  0  0  0  0
   37.6820   23.6860   41.5600 C   0  0  1  0  0  0  0  0  0  0  0  0
   39.0630   25.1670   40.9930 H   0  0  0  0  0  0  0  0  0  0  0  0
   36.4700   25.5570   42.6270 H   0  0  0  0  0  0  0  0  0  0  0  0
   35.5790   23.8080   40.9970 H   0  0  0  0  0  0  0  0  0  0  0  0
   36.7400   23.7660   39.6620 H   0  0  0  0  0  0  0  0  0  0  0  0
   37.3180   23.1940   42.4830 H   0  0  0  0  0  0  0  0  0  0  0  0
   39.0780   25.0070   43.0600 O   0  0  0  0  0  0  0  0  0  0  0  0
   39.9990   25.4060   43.0210 H   0  0  0  0  0  0  0  0  0  0  0  0
   38.5890   22.8470   40.9150 O   0  0  0  0  0  0  0  0  0  0  0  0
   38.9810   23.3180   40.1370 H   0  0  0  0  0  0  0  0  0  0  0  0
   35.9460   30.5240   40.6950 C   0  0  0  0  0  0  0  0  0  0  0  0
   34.9970   30.6300   41.2820 H   0  0  0  0  0  0  0  0  0  0  0  0
   35.8070   30.1570   39.6760 H   0  0  0  0  0  0  0  0  0  0  0  0
   37.3270   32.4610   39.6960 C   0  0  0  0  0  0  0  0  0  0  0  0
   37.4340   31.7920   38.6230 O   0  0  0  0  0  0  0  0  0  0  0  0
   36.5860   31.8270   40.7310 N   0  0  0  0  0  0  0  0  0  0  0  0
   36.4890   32.3710   41.6400 H   0  0  0  0  0  0  0  0  0  0  0  0
   37.9120   33.8090   39.9070 C   0  0  0  0  0  3  0  0  0  0  0  0
   38.9770   33.9630   40.9980 C   0  0  0  0  0  2  0  0  0  0  0  0
   39.3270   34.0910   39.5610 C   0  0  0  0  0  2  0  0  0  0  0  0
  1  6  1  0  0  0  0
  2  1  2  0  0  0  0
  2  3  1  0  0  0  0
  3  4  2  0  0  0  0
  4  5  1  0  0  0  0
  5  8  1  0  0  0  0
  6  5  2  0  0  0  0
  7  2  1  0  0  0  0
  9 14  1  6  0  0  0
  9 19  1  0  0  0  0
 10  9  1  0  0  0  0
 10  3  1  0  0  0  0
 10 15  1  1  0  0  0
 11 12  1  0  0  0  0
 11 10  1  0  0  0  0
 12 16  1  0  0  0  0
 12 13  1  0  0  0  0
 13  9  1  0  0  0  0
 13 18  1  1  0  0  0
 17 12  1  0  0  0  0
 20 19  1  0  0  0  0
 21 13  1  0  0  0  0
 22 21  1  0  0  0  0
 23 28  1  0  0  0  0
 23 24  1  0  0  0  0
 23  1  1  0  0  0  0
 25 23  1  0  0  0  0
 26 30  1  0  0  0  0
 26 28  1  0  0  0  0
 27 26  2  0  0  0  0
 28 29  1  0  0  0  0
 30 31  1  0  0  0  0
 32 30  1  0  0  0  0
 32 31  1  0  0  0  0
M  END
>  <minimizedAffinity>
-5.22703886

$$$$

 OpenBabel03242521453D

 32 34  0  0  1  0  0  0  0  0999 V2000
   34.4150   28.7370   37.1980 C   0  0  0  0  0  0  0  0  0  0  0  0
   34.7120   28.4900   38.5400 C   0  0  0  0  0  0  0  0  0  0  0  0
   35.9450   28.9040   39.0620 C   0  0  0  0  0  0  0  0  0  0  0  0
   36.7810   29.5250   38.2280 N   0  0  0  0  0  0  0  0  0  0  0  0
   36.4820   29.7600   36.9300 C   0  0  0  0  0  0  0  0  0  0  0  0
   35.3040   29.3700   36.4090 N   0  0  0  0  0  0  0  0  0  0  0  0
   33.9420   27.9720   39.1190 H   0  0  0  0  0  0  0  0  0  0  0  0
   37.2450   30.2730   36.3580 H   0  0  0  0  0  0  0  0  0  0  0  0
   36.6650   29.7690   41.2730 C   0  0  2  0  0  0  0  0  0  0  0  0
   36.1910   28.6170   40.4620 C   0  0  2  0  0  0  0  0  0  0  0  0
   37.2410   27.6770   40.6900 O   0  0  0  0  0  0  0  0  0  0  0  0
   37.3240   27.6820   42.0710 C   0  0  0  0  0  0  0  0  0  0  0  0
   36.9170   29.0190   42.5970 C   0  0  1  0  0  0  0  0  0  0  0  0
   37.6960   30.1110   40.9770 H   0  0  0  0  0  0  0  0  0  0  0  0
   35.2800   28.1860   40.9430 H   0  0  0  0  0  0  0  0  0  0  0  0
   36.7540   26.8460   42.5370 H   0  0  0  0  0  0  0  0  0  0  0  0
   38.3850   27.5090   42.3500 H   0  0  0  0  0  0  0  0  0  0  0  0
   35.9990   28.9860   43.2160 H   0  0  0  0  0  0  0  0  0  0  0  0
   35.7830   30.8020   41.3800 O   0  0  0  0  0  0  0  0  0  0  0  0
   36.0620   31.6530   40.9240 H   0  0  0  0  0  0  0  0  0  0  0  0
   37.9240   29.6830   43.2960 O   0  0  0  0  0  0  0  0  0  0  0  0
   38.7170   29.7900   42.7130 H   0  0  0  0  0  0  0  0  0  0  0  0
   33.0920   28.2770   36.6510 C   0  0  0  0  0  0  0  0  0  0  0  0
   32.9730   27.1900   36.8980 H   0  0  0  0  0  0  0  0  0  0  0  0
   33.0440   28.5050   35.5840 H   0  0  0  0  0  0  0  0  0  0  0  0
   31.2770   30.0790   36.9940 C   0  0  0  0  0  0  0  0  0  0  0  0
   31.5100   30.4960   35.8180 O   0  0  0  0  0  0  0  0  0  0  0  0
   32.0680   28.9740   37.4100 N   0  0  0  0  0  0  0  0  0  0  0  0
   31.8900   28.6130   38.3950 H   0  0  0  0  0  0  0  0  0  0  0  0
   30.2650   30.6670   37.9080 C   0  0  0  0  0  3  0  0  0  0  0  0
   28.8520   30.0750   37.8830 C   0  0  0  0  0  2  0  0  0  0  0  0
   29.7370   29.8960   39.0610 C   0  0  0  0  0  2  0  0  0  0  0  0
  1  2  1  0  0  0  0
  2  3  2  0  0  0  0
  2  7  1  0  0  0  0
  3 10  1  0  0  0  0
  4  3  1  0  0  0  0
  5  4  2  0  0  0  0
  6  5  1  0  0  0  0
  6  1  2  0  0  0  0
  8  5  1  0  0  0  0
  9 14  1  6  0  0  0
  9 19  1  0  0  0  0
  9 13  1  0  0  0  0
 10 11  1  0  0  0  0
 10 15  1  1  0  0  0
 10  9  1  0  0  0  0
 11 12  1  0  0  0  0
 12 17  1  0  0  0  0
 12 16  1  0  0  0  0
 12 13  1  0  0  0  0
 13 18  1  1  0  0  0
 13 21  1  0  0  0  0
 20 19  1  0  0  0  0
 22 21  1  0  0  0  0
 23 24  1  0  0  0  0
 23  1  1  0  0  0  0
 23 28  1  0  0  0  0
 25 23  1  0  0  0  0
 26 28  1  0  0  0  0
 26 30  1  0  0  0  0
 27 26  2  0  0  0  0
 28 29  1  0  0  0  0
 30 32  1  0  0  0  0
 31 30  1  0  0  0  0
 31 32  1  0  0  0  0
M  END
>  <minimizedAffinity>
-5.12859392

$$$$

 OpenBabel03242521453D

 32 34  0  0  1  0  0  0  0  0999 V2000
   38.6880   28.7720   38.8480 C   0  0  0  0  0  0  0  0  0  0  0  0
   39.8870   29.4580   38.6500 C   0  0  0  0  0  0  0  0  0  0  0  0
   39.8570   30.8120   38.2900 C   0  0  0  0  0  0  0  0  0  0  0  0
   38.6560   31.3790   38.1550 N   0  0  0  0  0  0  0  0  0  0  0  0
   37.5010   30.7040   38.3490 C   0  0  0  0  0  0  0  0  0  0  0  0
   37.5080   29.4040   38.6950 N   0  0  0  0  0  0  0  0  0  0  0  0
   40.8050   28.8800   38.7920 H   0  0  0  0  0  0  0  0  0  0  0  0
   36.5930   31.2780   38.2100 H   0  0  0  0  0  0  0  0  0  0  0  0
   41.0670   32.9010   37.7150 C   0  0  2  0  0  0  0  0  0  0  0  0
   41.1370   31.4660   38.0990 C   0  0  2  0  0  0  0  0  0  0  0  0
   41.9090   30.9370   37.0220 O   0  0  0  0  0  0  0  0  0  0  0  0
   42.9920   31.7980   37.0060 C   0  0  0  0  0  0  0  0  0  0  0  0
   42.5740   33.1450   37.4950 C   0  0  1  0  0  0  0  0  0  0  0  0
   40.6350   33.0520   36.6870 H   0  0  0  0  0  0  0  0  0  0  0  0
   41.7710   31.3670   39.0130 H   0  0  0  0  0  0  0  0  0  0  0  0
   43.8700   31.3930   37.5620 H   0  0  0  0  0  0  0  0  0  0  0  0
   43.3310   31.9010   35.9540 H   0  0  0  0  0  0  0  0  0  0  0  0
   43.0700   33.4430   38.4390 H   0  0  0  0  0  0  0  0  0  0  0  0
   40.5020   33.7210   38.6440 O   0  0  0  0  0  0  0  0  0  0  0  0
   39.6210   34.1250   38.3800 H   0  0  0  0  0  0  0  0  0  0  0  0
   42.7230   34.1610   36.5520 O   0  0  0  0  0  0  0  0  0  0  0  0
   42.2080   33.9360   35.7370 H   0  0  0  0  0  0  0  0  0  0  0  0
   38.7370   27.3160   39.2250 C   0  0  0  0  0  0  0  0  0  0  0  0
   39.8140   27.0180   39.3170 H   0  0  0  0  0  0  0  0  0  0  0  0
   38.1700   26.7360   38.4950 H   0  0  0  0  0  0  0  0  0  0  0  0
   38.8600   27.3660   41.8020 C   0  0  0  0  0  0  0  0  0  0  0  0
   40.1040   27.6060   41.7080 O   0  0  0  0  0  0  0  0  0  0  0  0
   38.1800   27.2190   40.5620 N   0  0  0  0  0  0  0  0  0  0  0  0
   37.1370   27.0140   40.6200 H   0  0  0  0  0  0  0  0  0  0  0  0
   38.1240   27.2390   43.0850 C   0  0  0  0  0  3  0  0  0  0  0  0
   37.5000   28.5070   43.6780 C   0  0  0  0  0  2  0  0  0  0  0  0
   36.6510   27.4140   43.1410 C   0  0  0  0  0  2  0  0  0  0  0  0
  1 23  1  0  0  0  0
  2  7  1  0  0  0  0
  2  1  2  0  0  0  0
  3  2  1  0  0  0  0
  4  3  2  0  0  0  0
  4  5  1  0  0  0  0
  5  6  2  0  0  0  0
  6  1  1  0  0  0  0
  8  5  1  0  0  0  0
  9 14  1  6  0  0  0
  9 10  1  0  0  0  0
  9 19  1  0  0  0  0
 10  3  1  0  0  0  0
 10 15  1  1  0  0  0
 11 10  1  0  0  0  0
 12 11  1  0  0  0  0
 12 13  1  0  0  0  0
 12 16  1  0  0  0  0
 13  9  1  0  0  0  0
 13 18  1  1  0  0  0
 17 12  1  0  0  0  0
 20 19  1  0  0  0  0
 21 13  1  0  0  0  0
 22 21  1  0  0  0  0
 23 24  1  0  0  0  0
 23 28  1  0  0  0  0
 25 23  1  0  0  0  0
 26 30  1  0  0  0  0
 27 26  2  0  0  0  0
 28 29  1  0  0  0  0
 28 26  1  0  0  0  0
 30 32  1  0  0  0  0
 30 31  1  0  0  0  0
 32 31  1  0  0  0  0
M  END
>  <minimizedAffinity>
-5.08328676

$$$$

 OpenBabel03242521453D

 32 34  0  0  1  0  0  0  0  0999 V2000
   38.3840   26.9280   41.7120 C   0  0  0  0  0  0  0  0  0  0  0  0
   38.4560   28.2390   41.2390 C   0  0  0  0  0  0  0  0  0  0  0  0
   37.9780   29.2880   42.0380 C   0  0  0  0  0  0  0  0  0  0  0  0
   37.4740   28.9640   43.2300 N   0  0  0  0  0  0  0  0  0  0  0  0
   37.4110   27.6890   43.6770 C   0  0  0  0  0  0  0  0  0  0  0  0
   37.8630   26.6680   42.9260 N   0  0  0  0  0  0  0  0  0  0  0  0
   38.8910   28.3740   40.2450 H   0  0  0  0  0  0  0  0  0  0  0  0
   36.9800   27.5580   44.6620 H   0  0  0  0  0  0  0  0  0  0  0  0
   36.9220   31.0660   40.6660 C   0  0  2  0  0  0  0  0  0  0  0  0
   38.0810   30.6260   41.4890 C   0  0  2  0  0  0  0  0  0  0  0  0
   39.1510   30.7960   40.5590 O   0  0  0  0  0  0  0  0  0  0  0  0
   38.9430   32.0940   40.1300 C   0  0  0  0  0  0  0  0  0  0  0  0
   37.4870   32.4210   40.1960 C   0  0  1  0  0  0  0  0  0  0  0  0
   36.8290   30.4850   39.7060 H   0  0  0  0  0  0  0  0  0  0  0  0
   38.2530   31.3740   42.3000 H   0  0  0  0  0  0  0  0  0  0  0  0
   39.5740   32.8330   40.6760 H   0  0  0  0  0  0  0  0  0  0  0  0
   39.2640   32.1580   39.0690 H   0  0  0  0  0  0  0  0  0  0  0  0
   37.2500   33.2240   40.9220 H   0  0  0  0  0  0  0  0  0  0  0  0
   35.7400   31.1590   41.3360 O   0  0  0  0  0  0  0  0  0  0  0  0
   35.0390   30.4930   41.0640 H   0  0  0  0  0  0  0  0  0  0  0  0
   36.9200   32.7310   38.9610 O   0  0  0  0  0  0  0  0  0  0  0  0
   37.0560   31.9770   38.3340 H   0  0  0  0  0  0  0  0  0  0  0  0
   38.8920   25.8130   40.8390 C   0  0  0  0  0  0  0  0  0  0  0  0
   39.0960   24.9260   41.4930 H   0  0  0  0  0  0  0  0  0  0  0  0
   39.7570   26.1640   40.2720 H   0  0  0  0  0  0  0  0  0  0  0  0
   36.8020   24.4320   40.2190 C   0  0  0  0  0  0  0  0  0  0  0  0
   36.9230   23.8110   41.3190 O   0  0  0  0  0  0  0  0  0  0  0  0
   37.7870   25.4290   39.9780 N   0  0  0  0  0  0  0  0  0  0  0  0
   37.7050   25.9580   39.0580 H   0  0  0  0  0  0  0  0  0  0  0  0
   35.7320   24.1750   39.2220 C   0  0  0  0  0  3  0  0  0  0  0  0
   35.8870   22.9560   38.3070 C   0  0  0  0  0  2  0  0  0  0  0  0
   34.8330   23.0000   39.3520 C   0  0  0  0  0  2  0  0  0  0  0  0
  1  6  1  0  0  0  0
  2  1  2  0  0  0  0
  2  3  1  0  0  0  0
  3  4  2  0  0  0  0
  4  5  1  0  0  0  0
  5  8  1  0  0  0  0
  6  5  2  0  0  0  0
  7  2  1  0  0  0  0
  9 14  1  6  0  0  0
  9 19  1  0  0  0  0
  9 10  1  0  0  0  0
 10  3  1  0  0  0  0
 10 15  1  1  0  0  0
 11 10  1  0  0  0  0
 12 13  1  0  0  0  0
 12 11  1  0  0  0  0
 12 16  1  0  0  0  0
 13  9  1  0  0  0  0
 13 18  1  1  0  0  0
 17 12  1  0  0  0  0
 20 19  1  0  0  0  0
 21 13  1  0  0  0  0
 22 21  1  0  0  0  0
 23 24  1  0  0  0  0
 23  1  1  0  0  0  0
 25 23  1  0  0  0  0
 26 27  2  0  0  0  0
 28 26  1  0  0  0  0
 28 23  1  0  0  0  0
 29 28  1  0  0  0  0
 30 32  1  0  0  0  0
 30 26  1  0  0  0  0
 31 30  1  0  0  0  0
 31 32  1  0  0  0  0
M  END
>  <minimizedAffinity>
-5.02459383

$$$$

 OpenBabel03242521453D

 32 34  0  0  1  0  0  0  0  0999 V2000
   38.4960   24.8200   41.8900 C   0  0  0  0  0  0  0  0  0  0  0  0
   38.1490   26.0960   41.4430 C   0  0  0  0  0  0  0  0  0  0  0  0
   38.6320   27.2220   42.1260 C   0  0  0  0  0  0  0  0  0  0  0  0
   39.4140   27.0030   43.1840 N   0  0  0  0  0  0  0  0  0  0  0  0
   39.7450   25.7610   43.6070 C   0  0  0  0  0  0  0  0  0  0  0  0
   39.2910   24.6680   42.9670 N   0  0  0  0  0  0  0  0  0  0  0  0
   37.5010   26.1420   40.5640 H   0  0  0  0  0  0  0  0  0  0  0  0
   40.3870   25.7180   44.4780 H   0  0  0  0  0  0  0  0  0  0  0  0
   37.1000   29.1640   42.3250 C   0  0  2  0  0  0  0  0  0  0  0  0
   38.2330   28.5180   41.6110 C   0  0  2  0  0  0  0  0  0  0  0  0
   37.7270   28.4860   40.2760 O   0  0  0  0  0  0  0  0  0  0  0  0
   37.3350   29.8000   40.0960 C   0  0  0  0  0  0  0  0  0  0  0  0
   36.9310   30.3920   41.4070 C   0  0  1  0  0  0  0  0  0  0  0  0
   36.1300   28.6100   42.1860 H   0  0  0  0  0  0  0  0  0  0  0  0
   39.1000   29.2220   41.5970 H   0  0  0  0  0  0  0  0  0  0  0  0
   38.1060   30.4100   39.5700 H   0  0  0  0  0  0  0  0  0  0  0  0
   36.4490   29.8030   39.4280 H   0  0  0  0  0  0  0  0  0  0  0  0
   37.5850   31.2250   41.7330 H   0  0  0  0  0  0  0  0  0  0  0  0
   37.3410   29.4750   43.6290 O   0  0  0  0  0  0  0  0  0  0  0  0
   36.8090   28.9500   44.3000 H   0  0  0  0  0  0  0  0  0  0  0  0
   35.6000   30.8010   41.4570 O   0  0  0  0  0  0  0  0  0  0  0  0
   35.0090   30.0340   41.2500 H   0  0  0  0  0  0  0  0  0  0  0  0
   37.9620   23.6220   41.1540 C   0  0  0  0  0  0  0  0  0  0  0  0
   37.0490   23.2620   41.6940 H   0  0  0  0  0  0  0  0  0  0  0  0
   38.7530   22.8760   41.0570 H   0  0  0  0  0  0  0  0  0  0  0  0
   36.1820   24.0370   39.3320 C   0  0  0  0  0  0  0  0  0  0  0  0
   35.3250   23.4810   40.0850 O   0  0  0  0  0  0  0  0  0  0  0  0
   37.4990   24.1050   39.8650 N   0  0  0  0  0  0  0  0  0  0  0  0
   38.2320   24.5650   39.2460 H   0  0  0  0  0  0  0  0  0  0  0  0
   35.8840   24.5920   37.9880 C   0  0  0  0  0  3  0  0  0  0  0  0
   35.4500   26.0590   37.9010 C   0  0  0  0  0  2  0  0  0  0  0  0
   36.7640   25.6160   37.3710 C   0  0  0  0  0  2  0  0  0  0  0  0
  1  6  1  0  0  0  0
  2  1  2  0  0  0  0
  2  3  1  0  0  0  0
  3  4  2  0  0  0  0
  4  5  1  0  0  0  0
  5  8  1  0  0  0  0
  6  5  2  0  0  0  0
  7  2  1  0  0  0  0
  9 14  1  6  0  0  0
  9 19  1  0  0  0  0
 10 15  1  1  0  0  0
 10  3  1  0  0  0  0
 10  9  1  0  0  0  0
 11 10  1  0  0  0  0
 12 11  1  0  0  0  0
 12 13  1  0  0  0  0
 13 21  1  0  0  0  0
 13 18  1  1  0  0  0
 13  9  1  0  0  0  0
 16 12  1  0  0  0  0
 17 12  1  0  0  0  0
 19 20  1  0  0  0  0
 22 21  1  0  0  0  0
 23 24  1  0  0  0  0
 23  1  1  0  0  0  0
 25 23  1  0  0  0  0
 26 28  1  0  0  0  0
 26 27  2  0  0  0  0
 28 23  1  0  0  0  0
 29 28  1  0  0  0  0
 30 26  1  0  0  0  0
 31 30  1  0  0  0  0
 32 31  1  0  0  0  0
 32 30  1  0  0  0  0
M  END
>  <minimizedAffinity>
-4.97628546

$$$$
