REMARK  Name = 
REMARK  6 active torsions:
REMARK  status: ('A' for Active; 'I' for Inactive)
REMARK    1  A    between atoms: C_3  and  O_7
REMARK    2  A    between atoms: O_7  and  P_9
REMARK    3  A    between atoms: P_9  and  O_10
REMARK    4  A    between atoms: P_9  and  O_11
REMARK    5  A    between atoms: O_11  and  C_12
REMARK    6  A    between atoms: C_12  and  C_18
REMARK                            x       y       z     vdW  Elec       q    Type
REMARK                         _______ _______ _______ _____ _____    ______ ____
ROOT
ATOM      1  O   UNL     1      45.047  33.466  47.648  0.00  0.00    +0.000 OA
ENDROOT
BRANCH   1   4
ATOM      2  C   UNL     1      46.537  33.625  44.336  0.00  0.00    +0.000 A 
ATOM      3  C   UNL     1      46.245  33.211  45.646  0.00  0.00    +0.000 A 
ATOM      4  C   UNL     1      45.302  33.901  46.366  0.00  0.00    +0.000 A 
ATOM      5  N   UNL     1      44.688  34.962  45.768  0.00  0.00    +0.000 NA
ATOM      6  C   UNL     1      44.969  35.354  44.517  0.00  0.00    +0.000 A 
ATOM      7  N   UNL     1      45.897  34.683  43.797  0.00  0.00    +0.000 NA
ATOM      8  H   UNL     1      47.262  33.145  43.694  0.00  0.00    +0.000 HD
ATOM      9  H   UNL     1      46.831  32.362  45.920  0.00  0.00    +0.000 HD
ATOM     10  H   UNL     1      44.392  36.217  44.190  0.00  0.00    +0.000 HD
ENDBRANCH   1   4
BRANCH   1  12
ATOM     11  O   UNL     1      45.336  30.864  47.463  0.00  0.00    +0.000 OA
ATOM     12  P   UNL     1      45.810  32.096  48.264  0.00  0.00    +0.000 P 
BRANCH  12  13
ATOM     13  O   UNL     1      45.314  31.824  49.852  0.00  0.00    +0.000 OA
ATOM     14  H   UNL     1      44.383  31.455  49.883  0.00  0.00    +0.000 HD
ENDBRANCH  12  13
BRANCH  12  15
ATOM     15  O   UNL     1      47.454  32.236  48.132  0.00  0.00    +0.000 OA
BRANCH  15  16
ATOM     16  C   UNL     1      48.450  31.436  48.565  0.00  0.00    +0.000 C 
ATOM     17  O   UNL     1      49.240  31.985  49.409  0.00  0.00    +0.000 OA
BRANCH  16  18
ATOM     18  C   UNL     1      49.371  30.330  48.809  0.00  0.00    +0.000 C 
ATOM     19  C   UNL     1      48.764  28.945  48.894  0.00  0.00    +0.000 C 
ATOM     20  C   UNL     1      49.688  29.307  47.789  0.00  0.00    +0.000 C 
ENDBRANCH  16  18
ENDBRANCH  15  16
ENDBRANCH  12  15
ENDBRANCH   1  12
TORSDOF 6
