
     RDKit          3D

 25 26  0  0  0  0  0  0  0  0999 V2000
   46.5368   33.6246   44.3355 C   0  0  0  0  0  0  0  0  0  0  0  0
   46.2454   33.2110   45.6461 C   0  0  0  0  0  0  0  0  0  0  0  0
   45.3019   33.9011   46.3659 C   0  0  0  0  0  0  0  0  0  0  0  0
   44.6884   34.9622   45.7681 N   0  0  0  0  0  0  0  0  0  0  0  0
   44.9690   35.3541   44.5165 C   0  0  0  0  0  0  0  0  0  0  0  0
   45.8971   34.6827   43.7975 N   0  0  0  0  0  0  0  0  0  0  0  0
   45.0466   33.4656   47.6477 O   0  0  0  0  0  0  0  0  0  0  0  0
   45.3364   30.8644   47.4634 O   0  0  0  0  0  0  0  0  0  0  0  0
   45.8104   32.0956   48.2642 P   0  0  2  0  0  0  0  0  0  0  0  0
   45.3140   31.8242   49.8520 O   0  0  0  0  0  0  0  0  0  0  0  0
   47.4539   32.2360   48.1321 O   0  0  0  0  0  0  0  0  0  0  0  0
   48.4503   31.4357   48.5654 C   0  0  0  0  0  0  0  0  0  0  0  0
   49.2396   31.9847   49.4089 O   0  0  0  0  0  0  0  0  0  0  0  0
   47.2622   33.1454   43.6936 H   0  0  0  0  0  0  0  0  0  0  0  0
   46.8307   32.3625   45.9201 H   0  0  0  0  0  0  0  0  0  0  0  0
   44.3920   36.2168   44.1897 H   0  0  0  0  0  0  0  0  0  0  0  0
   44.3835   31.4548   49.8835 H   0  0  0  0  0  0  0  0  0  0  0  0
   49.3709   30.3299   48.8094 C   0  0  0  0  0  0  0  0  0  0  0  0
   49.1856   29.0904   47.9600 C   0  0  0  0  0  0  0  0  0  0  0  0
   50.4115   29.9209   47.8413 C   0  0  0  0  0  0  0  0  0  0  0  0
   49.6447   30.1289   49.8929 H   0  0  0  0  0  0  0  0  0  0  0  0
   48.5192   29.1160   47.0897 H   0  0  0  0  0  0  0  0  0  0  0  0
   49.2136   28.1019   48.4593 H   0  0  0  0  0  0  0  0  0  0  0  0
   50.5397   30.5564   46.9172 H   0  0  0  0  0  0  0  0  0  0  0  0
   51.3924   29.6151   48.2356 H   0  0  0  0  0  0  0  0  0  0  0  0
  1  2  2  0
  2  3  1  0
  3  7  1  0
  4  3  2  0
  5  4  1  0
  6  1  1  0
  6  5  2  0
  9  7  1  6
  9  8  2  0
  9 10  1  0
 11  9  1  0
 11 12  1  0
 12 13  2  0
  1 14  1  0
  2 15  1  0
  5 16  1  0
 10 17  1  0
 18 19  1  0
 19 20  1  0
 20 18  1  0
 18 21  1  0
 19 22  1  0
 19 23  1  0
 20 24  1  0
 20 25  1  0
 12 18  1  0
M  ISO  4  14  14  15  14  16  14  17   3
M  END
>  <DihAtoms>  (1) 
10,11,17,18

>  <DihDeg>  (1) 
-39.40058896549369

$$$$
