
 OpenBabel03242516523D

 39 42  0  0  1  0  0  0  0  0999 V2000
   47.8730   32.9280   41.7930 C   0  0  1  0  0  0  0  0  0  0  0  0
   47.5490   32.2090   40.5620 C   0  0  0  0  0  0  0  0  0  0  0  0
   48.5710   32.6590   39.5210 C   0  0  0  0  0  0  0  0  0  0  0  0
   48.2450   34.1050   39.1890 C   0  0  0  0  0  0  0  0  0  0  0  0
   48.1850   35.0100   40.3880 C   0  0  0  0  0  0  0  0  0  0  0  0
   47.6830   34.4420   41.6400 C   0  0  1  0  0  0  0  0  0  0  0  0
   48.9900   32.8500   41.9670 H   0  0  0  0  0  0  0  0  0  0  0  0
   46.5330   32.3730   40.1670 H   0  0  0  0  0  0  0  0  0  0  0  0
   47.6230   31.1170   40.7490 H   0  0  0  0  0  0  0  0  0  0  0  0
   49.5820   32.5850   39.9590 H   0  0  0  0  0  0  0  0  0  0  0  0
   48.4380   32.0990   38.5760 H   0  0  0  0  0  0  0  0  0  0  0  0
   48.9670   34.5210   38.4620 H   0  0  0  0  0  0  0  0  0  0  0  0
   47.2610   34.1280   38.6910 H   0  0  0  0  0  0  0  0  0  0  0  0
   49.2070   35.4540   40.5030 H   0  0  0  0  0  0  0  0  0  0  0  0
   47.5260   35.8710   40.1040 H   0  0  0  0  0  0  0  0  0  0  0  0
   48.2810   34.8800   42.4950 H   0  0  0  0  0  0  0  0  0  0  0  0
   45.5010   31.0700   44.0750 C   0  0  0  0  0  0  0  0  0  0  0  0
   46.1830   31.5550   42.9500 C   0  0  0  0  0  0  0  0  0  0  0  0
   47.2310   32.4780   43.0100 C   0  0  0  0  0  0  0  0  0  0  0  0
   47.5670   32.8930   44.2300 N   0  0  0  0  0  0  0  0  0  0  0  0
   46.9180   32.4330   45.3330 C   0  0  0  0  0  0  0  0  0  0  0  0
   45.9190   31.5540   45.2750 N   0  0  0  0  0  0  0  0  0  0  0  0
   44.7110   30.3580   43.8630 H   0  0  0  0  0  0  0  0  0  0  0  0
   45.8930   31.2040   41.9520 H   0  0  0  0  0  0  0  0  0  0  0  0
   47.1450   32.7320   46.3390 H   0  0  0  0  0  0  0  0  0  0  0  0
   46.3020   34.8410   41.9320 C   0  0  0  0  0  0  0  0  0  0  0  0
   45.8640   35.5660   43.0440 C   0  0  0  0  0  0  0  0  0  0  0  0
   44.4980   35.8430   43.1060 C   0  0  0  0  0  0  0  0  0  0  0  0
   43.7060   35.3880   42.0830 C   0  0  0  0  0  0  0  0  0  0  0  0
   44.1490   34.6720   40.9870 C   0  0  0  0  0  0  0  0  0  0  0  0
   45.4870   34.4080   40.9420 N   0  0  0  0  0  0  0  0  0  0  0  0
   46.6040   35.8430   43.7460 H   0  0  0  0  0  0  0  0  0  0  0  0
   44.1480   36.3990   43.9530 H   0  0  0  0  0  0  0  0  0  0  0  0
   42.6460   35.6190   42.1570 H   0  0  0  0  0  0  0  0  0  0  0  0
   43.2290   34.2280   39.9310 C   0  0  0  0  0  0  0  0  0  0  0  0
   42.3960   35.0730   39.4960 O   0  0  0  0  0  0  0  0  0  0  0  0
   43.2950   32.8330   39.4130 C   0  0  0  0  0  0  0  0  0  0  0  0
   44.0250   32.7360   38.0610 C   0  0  0  0  0  0  0  0  0  0  0  0
   42.5780   32.4640   38.1500 C   0  0  0  0  0  0  0  0  0  0  0  0
  1  7  1  1  0  0  0
  1 19  1  0  0  0  0
  2  9  1  0  0  0  0
  2  1  1  0  0  0  0
  3 10  1  0  0  0  0
  3  2  1  0  0  0  0
  4  3  1  0  0  0  0
  4  5  1  0  0  0  0
  5 14  1  0  0  0  0
  5  6  1  0  0  0  0
  6  1  1  0  0  0  0
  6 26  1  0  0  0  0
  6 16  1  1  0  0  0
  8  2  1  0  0  0  0
 11  3  1  0  0  0  0
 12  4  1  0  0  0  0
 13  4  1  0  0  0  0
 15  5  1  0  0  0  0
 17 22  1  0  0  0  0
 18 19  1  0  0  0  0
 18 17  2  0  0  0  0
 19 20  2  0  0  0  0
 20 21  1  0  0  0  0
 21 25  1  0  0  0  0
 22 21  2  0  0  0  0
 23 17  1  0  0  0  0
 24 18  1  0  0  0  0
 26 27  1  0  0  0  0
 27 28  2  0  0  0  0
 27 32  1  0  0  0  0
 28 33  1  0  0  0  0
 29 34  1  0  0  0  0
 29 28  1  0  0  0  0
 30 29  2  0  0  0  0
 31 30  1  0  0  0  0
 31 26  2  0  0  0  0
 35 30  1  0  0  0  0
 36 35  2  0  0  0  0
 37 35  1  0  0  0  0
 38 39  1  0  0  0  0
 38 37  1  0  0  0  0
 39 37  1  0  0  0  0
M  END
>  <minimizedAffinity>
-5.03426218

>  <minimizedRMSD>
0.27984181

$$$$
