
 OpenBabel03252506003D

 21 22  0  0  0  0  0  0  0  0999 V2000
   45.0220   36.0920   43.4840 Cl  0  0  0  0  0  0  0  0  0  0  0  0
   45.6700   34.7080   44.3080 C   0  0  0  0  0  0  0  0  0  0  0  0
   46.6360   33.9540   43.7200 C   0  0  0  0  0  0  0  0  0  0  0  0
   47.0830   32.8720   44.4640 C   0  0  0  0  0  0  0  0  0  0  0  0
   46.6300   32.5170   45.7170 C   0  0  0  0  0  0  0  0  0  0  0  0
   45.6410   33.3230   46.2710 C   0  0  0  0  0  0  0  0  0  0  0  0
   45.0800   32.8540   47.8660 Cl  0  0  0  0  0  0  0  0  0  0  0  0
   45.1670   34.4060   45.5760 C   0  0  0  0  0  0  0  0  0  0  0  0
   47.8600   32.2330   44.0350 H   0  0  0  0  0  0  0  0  0  0  0  0
   44.3920   35.0120   46.0440 H   0  0  0  0  0  0  0  0  0  0  0  0
   48.7750   35.4010   41.1410 C   0  0  0  0  0  0  0  0  0  0  0  0
   48.2490   34.8460   39.9540 C   0  0  0  0  0  0  0  0  0  0  0  0
   47.1540   33.9730   40.0540 C   0  0  0  0  0  0  0  0  0  0  0  0
   46.6650   33.7130   41.2940 N   0  0  0  0  0  0  0  0  0  0  0  0
   47.1760   34.2470   42.4050 C   0  0  0  0  0  0  0  0  0  0  0  0
   48.2400   35.0990   42.3360 N   0  0  0  0  0  0  0  0  0  0  0  0
   49.6190   36.0730   41.0570 H   0  0  0  0  0  0  0  0  0  0  0  0
   48.6750   35.0860   38.9900 H   0  0  0  0  0  0  0  0  0  0  0  0
   46.7290   33.5310   39.1470 H   0  0  0  0  0  0  0  0  0  0  0  0
   47.2830   31.0970   46.5790 S   0  0  0  0  0  0  0  0  0  0  0  0
   46.6880   29.9470   45.9920 H   0  0  0  0  0  0  0  0  0  0  0  0
  1  2  1  0  0  0  0
  2  8  1  0  0  0  0
  3  2  2  0  0  0  0
  3  4  1  0  0  0  0
  4  5  2  0  0  0  0
  5  6  1  0  0  0  0
  5 20  1  0  0  0  0
  6  7  1  0  0  0  0
  8 10  1  0  0  0  0
  8  6  2  0  0  0  0
  9  4  1  0  0  0  0
 11 16  1  0  0  0  0
 12 13  1  0  0  0  0
 12 11  2  0  0  0  0
 13 14  2  0  0  0  0
 14 15  1  0  0  0  0
 15  3  1  0  0  0  0
 16 15  2  0  0  0  0
 17 11  1  0  0  0  0
 18 12  1  0  0  0  0
 19 13  1  0  0  0  0
 21 20  1  0  0  0  0
M  END
>  <minimizedAffinity>
-4.88605165

>  <minimizedRMSD>
0.162960827

$$$$
