
 OpenBabel03242519523D

 27 28  0  0  1  0  0  0  0  0999 V2000
   36.6360   30.6080   41.0570 C   0  0  2  0  0  0  0  0  0  0  0  0
   36.1070   30.2740   39.7150 C   0  0  0  0  0  0  0  0  0  0  0  0
   36.9560   30.7800   38.5950 C   0  0  0  0  0  0  0  0  0  0  0  0
   37.2420   32.2660   38.6930 C   0  0  0  0  0  0  0  0  0  0  0  0
   37.5260   32.7380   40.0980 C   0  0  1  0  0  0  0  0  0  0  0  0
   37.8130   31.5730   41.0230 C   0  0  0  0  0  0  0  0  0  0  0  0
   35.8840   31.1300   41.7170 H   0  0  0  0  0  0  0  0  0  0  0  0
   35.0710   30.6400   39.5840 H   0  0  0  0  0  0  0  0  0  0  0  0
   36.0710   29.1660   39.6070 H   0  0  0  0  0  0  0  0  0  0  0  0
   37.8690   30.2370   38.3790 H   0  0  0  0  0  0  0  0  0  0  0  0
   36.3300   30.6700   37.6610 H   0  0  0  0  0  0  0  0  0  0  0  0
   36.4390   32.8530   38.2090 H   0  0  0  0  0  0  0  0  0  0  0  0
   38.1520   32.4540   38.0880 H   0  0  0  0  0  0  0  0  0  0  0  0
   36.6100   33.2450   40.4620 H   0  0  0  0  0  0  0  0  0  0  0  0
   38.0030   31.9380   42.0310 H   0  0  0  0  0  0  0  0  0  0  0  0
   38.6650   31.0130   40.5670 H   0  0  0  0  0  0  0  0  0  0  0  0
   37.0750   29.4100   41.7960 C   0  0  0  0  0  0  0  0  0  0  0  0
   38.3270   29.5110   42.4350 C   0  0  0  0  0  0  0  0  0  0  0  0
   38.8410   28.4290   43.1630 C   0  0  0  0  0  0  0  0  0  0  0  0
   38.0600   27.3080   43.2030 N   0  0  0  0  0  0  0  0  0  0  0  0
   36.8550   27.2310   42.5820 C   0  0  0  0  0  0  0  0  0  0  0  0
   36.3680   28.2830   41.8810 N   0  0  0  0  0  0  0  0  0  0  0  0
   39.0020   30.3550   42.4520 H   0  0  0  0  0  0  0  0  0  0  0  0
   39.7740   28.4330   43.6690 H   0  0  0  0  0  0  0  0  0  0  0  0
   36.3220   26.3030   42.6780 H   0  0  0  0  0  0  0  0  0  0  0  0
   38.9640   33.8360   40.1130 S   0  0  0  0  0  0  0  0  0  0  0  0
   40.1330   33.1200   40.3350 H   0  0  0  0  0  0  0  0  0  0  0  0
  1  7  1  1  0  0  0
  1 17  1  0  0  0  0
  2  1  1  0  0  0  0
  3  4  1  0  0  0  0
  3  2  1  0  0  0  0
  4  5  1  0  0  0  0
  5 26  1  0  0  0  0
  5 14  1  1  0  0  0
  5  6  1  0  0  0  0
  6  1  1  0  0  0  0
  6 15  1  0  0  0  0
  8  2  1  0  0  0  0
  9  2  1  0  0  0  0
 10  3  1  0  0  0  0
 11  3  1  0  0  0  0
 12  4  1  0  0  0  0
 13  4  1  0  0  0  0
 16  6  1  0  0  0  0
 17 22  2  0  0  0  0
 17 18  1  0  0  0  0
 18 23  1  0  0  0  0
 18 19  2  0  0  0  0
 19 20  1  0  0  0  0
 19 24  1  0  0  0  0
 21 25  1  0  0  0  0
 21 20  2  0  0  0  0
 22 21  1  0  0  0  0
 26 27  1  0  0  0  0
M  END
>  <minimizedAffinity>
-4.33602905

$$$$

 OpenBabel03242519523D

 27 28  0  0  1  0  0  0  0  0999 V2000
   37.0910   27.2600   42.6070 C   0  0  2  0  0  0  0  0  0  0  0  0
   38.2910   27.3770   43.4670 C   0  0  0  0  0  0  0  0  0  0  0  0
   39.4370   26.5360   43.0100 C   0  0  0  0  0  0  0  0  0  0  0  0
   39.0650   25.0780   42.8220 C   0  0  0  0  0  0  0  0  0  0  0  0
   37.7100   24.8750   42.1900 C   0  0  1  0  0  0  0  0  0  0  0  0
   37.1960   26.1560   41.5650 C   0  0  0  0  0  0  0  0  0  0  0  0
   36.1550   26.9970   43.1800 H   0  0  0  0  0  0  0  0  0  0  0  0
   38.0600   27.1390   44.5230 H   0  0  0  0  0  0  0  0  0  0  0  0
   38.6480   28.4320   43.4480 H   0  0  0  0  0  0  0  0  0  0  0  0
   40.0050   26.8900   42.1570 H   0  0  0  0  0  0  0  0  0  0  0  0
   40.1780   26.5350   43.8640 H   0  0  0  0  0  0  0  0  0  0  0  0
   39.1720   24.5200   43.7720 H   0  0  0  0  0  0  0  0  0  0  0  0
   39.8210   24.6430   42.1370 H   0  0  0  0  0  0  0  0  0  0  0  0
   37.0120   24.5870   43.0010 H   0  0  0  0  0  0  0  0  0  0  0  0
   36.2140   25.9870   41.1260 H   0  0  0  0  0  0  0  0  0  0  0  0
   37.9760   26.4840   40.8360 H   0  0  0  0  0  0  0  0  0  0  0  0
   36.7980   28.5130   41.8880 C   0  0  0  0  0  0  0  0  0  0  0  0
   35.7500   28.4470   40.9490 C   0  0  0  0  0  0  0  0  0  0  0  0
   35.3900   29.5810   40.2060 C   0  0  0  0  0  0  0  0  0  0  0  0
   36.1100   30.7150   40.4570 N   0  0  0  0  0  0  0  0  0  0  0  0
   37.1160   30.7590   41.3680 C   0  0  0  0  0  0  0  0  0  0  0  0
   37.4550   29.6570   42.0790 N   0  0  0  0  0  0  0  0  0  0  0  0
   35.1350   27.5960   40.6920 H   0  0  0  0  0  0  0  0  0  0  0  0
   34.6130   29.6060   39.4840 H   0  0  0  0  0  0  0  0  0  0  0  0
   37.6170   31.7020   41.4870 H   0  0  0  0  0  0  0  0  0  0  0  0
   37.8040   23.6160   40.8930 S   0  0  0  0  0  0  0  0  0  0  0  0
   38.0680   24.1930   39.6580 H   0  0  0  0  0  0  0  0  0  0  0  0
  1  7  1  1  0  0  0
  1  2  1  0  0  0  0
  2  8  1  0  0  0  0
  3  2  1  0  0  0  0
  3 11  1  0  0  0  0
  4  3  1  0  0  0  0
  4 12  1  0  0  0  0
  5  4  1  0  0  0  0
  5 14  1  1  0  0  0
  6  5  1  0  0  0  0
  6  1  1  0  0  0  0
  9  2  1  0  0  0  0
 10  3  1  0  0  0  0
 13  4  1  0  0  0  0
 15  6  1  0  0  0  0
 16  6  1  0  0  0  0
 17 22  1  0  0  0  0
 17  1  1  0  0  0  0
 18 17  2  0  0  0  0
 19 20  2  0  0  0  0
 19 18  1  0  0  0  0
 20 21  1  0  0  0  0
 21 25  1  0  0  0  0
 21 22  2  0  0  0  0
 23 18  1  0  0  0  0
 24 19  1  0  0  0  0
 26  5  1  0  0  0  0
 27 26  1  0  0  0  0
M  END
>  <minimizedAffinity>
-4.33492947

$$$$

 OpenBabel03242519523D

 27 28  0  0  1  0  0  0  0  0999 V2000
   36.6020   30.6390   40.9190 C   0  0  2  0  0  0  0  0  0  0  0  0
   36.1640   30.3110   39.5420 C   0  0  0  0  0  0  0  0  0  0  0  0
   37.0630   30.8610   38.4840 C   0  0  0  0  0  0  0  0  0  0  0  0
   37.2980   32.3530   38.6200 C   0  0  0  0  0  0  0  0  0  0  0  0
   37.4820   32.8100   40.0470 C   0  0  1  0  0  0  0  0  0  0  0  0
   37.7490   31.6390   40.9700 C   0  0  0  0  0  0  0  0  0  0  0  0
   35.7960   31.1270   41.5400 H   0  0  0  0  0  0  0  0  0  0  0  0
   35.1280   30.6490   39.3540 H   0  0  0  0  0  0  0  0  0  0  0  0
   36.1690   29.2050   39.4160 H   0  0  0  0  0  0  0  0  0  0  0  0
   38.0040   30.3490   38.3140 H   0  0  0  0  0  0  0  0  0  0  0  0
   36.4980   30.7470   37.5120 H   0  0  0  0  0  0  0  0  0  0  0  0
   36.5070   32.9240   38.0970 H   0  0  0  0  0  0  0  0  0  0  0  0
   38.2360   32.5780   38.0740 H   0  0  0  0  0  0  0  0  0  0  0  0
   36.5320   33.2840   40.3620 H   0  0  0  0  0  0  0  0  0  0  0  0
   37.8670   31.9920   41.9930 H   0  0  0  0  0  0  0  0  0  0  0  0
   38.6440   31.1120   40.5580 H   0  0  0  0  0  0  0  0  0  0  0  0
   37.0320   29.4430   41.6650 C   0  0  0  0  0  0  0  0  0  0  0  0
   36.5840   28.2090   41.1520 C   0  0  0  0  0  0  0  0  0  0  0  0
   36.9320   27.0080   41.7860 C   0  0  0  0  0  0  0  0  0  0  0  0
   37.7130   27.1240   42.9010 N   0  0  0  0  0  0  0  0  0  0  0  0
   38.1360   28.3210   43.3800 C   0  0  0  0  0  0  0  0  0  0  0  0
   37.7930   29.4760   42.7590 N   0  0  0  0  0  0  0  0  0  0  0  0
   35.9680   28.0320   40.2820 H   0  0  0  0  0  0  0  0  0  0  0  0
   36.6320   26.0450   41.4570 H   0  0  0  0  0  0  0  0  0  0  0  0
   38.7460   28.2990   44.2640 H   0  0  0  0  0  0  0  0  0  0  0  0
   38.8830   33.9490   40.1650 S   0  0  0  0  0  0  0  0  0  0  0  0
   40.0580   33.2650   40.4460 H   0  0  0  0  0  0  0  0  0  0  0  0
  1  6  1  0  0  0  0
  1  7  1  1  0  0  0
  1 17  1  0  0  0  0
  2  1  1  0  0  0  0
  3  4  1  0  0  0  0
  3  2  1  0  0  0  0
  4  5  1  0  0  0  0
  5 26  1  0  0  0  0
  5 14  1  1  0  0  0
  5  6  1  0  0  0  0
  6 15  1  0  0  0  0
  8  2  1  0  0  0  0
  9  2  1  0  0  0  0
 10  3  1  0  0  0  0
 11  3  1  0  0  0  0
 12  4  1  0  0  0  0
 13  4  1  0  0  0  0
 16  6  1  0  0  0  0
 17 22  1  0  0  0  0
 18 17  2  0  0  0  0
 18 19  1  0  0  0  0
 19 20  2  0  0  0  0
 20 21  1  0  0  0  0
 21 25  1  0  0  0  0
 22 21  2  0  0  0  0
 23 18  1  0  0  0  0
 24 19  1  0  0  0  0
 26 27  1  0  0  0  0
M  END
>  <minimizedAffinity>
-4.31377935

$$$$

 OpenBabel03242519523D

 27 28  0  0  1  0  0  0  0  0999 V2000
   37.0310   29.0860   42.0830 C   0  0  2  0  0  0  0  0  0  0  0  0
   38.1880   29.3680   42.9650 C   0  0  0  0  0  0  0  0  0  0  0  0
   39.1950   28.2660   42.9970 C   0  0  0  0  0  0  0  0  0  0  0  0
   38.5900   26.9180   43.3380 C   0  0  0  0  0  0  0  0  0  0  0  0
   37.2550   26.6690   42.6810 C   0  0  1  0  0  0  0  0  0  0  0  0
   37.0000   27.6570   41.5600 C   0  0  0  0  0  0  0  0  0  0  0  0
   36.0350   29.2010   42.6020 H   0  0  0  0  0  0  0  0  0  0  0  0
   37.8650   29.6000   43.9970 H   0  0  0  0  0  0  0  0  0  0  0  0
   38.7190   30.2700   42.5850 H   0  0  0  0  0  0  0  0  0  0  0  0
   39.8590   28.1730   42.1440 H   0  0  0  0  0  0  0  0  0  0  0  0
   39.8800   28.5010   43.8650 H   0  0  0  0  0  0  0  0  0  0  0  0
   38.5510   26.7710   44.4340 H   0  0  0  0  0  0  0  0  0  0  0  0
   39.2960   26.1500   42.9620 H   0  0  0  0  0  0  0  0  0  0  0  0
   36.4770   26.8230   43.4550 H   0  0  0  0  0  0  0  0  0  0  0  0
   36.0270   27.4640   41.1100 H   0  0  0  0  0  0  0  0  0  0  0  0
   37.8610   27.5610   40.8550 H   0  0  0  0  0  0  0  0  0  0  0  0
   36.9930   29.9810   40.9120 C   0  0  0  0  0  0  0  0  0  0  0  0
   36.6880   29.3640   39.6820 C   0  0  0  0  0  0  0  0  0  0  0  0
   36.6290   30.1220   38.5040 C   0  0  0  0  0  0  0  0  0  0  0  0
   36.8810   31.4580   38.6380 N   0  0  0  0  0  0  0  0  0  0  0  0
   37.1720   32.0340   39.8320 C   0  0  0  0  0  0  0  0  0  0  0  0
   37.2270   31.2920   40.9650 N   0  0  0  0  0  0  0  0  0  0  0  0
   36.4770   28.3220   39.4920 H   0  0  0  0  0  0  0  0  0  0  0  0
   36.4060   29.7270   37.5450 H   0  0  0  0  0  0  0  0  0  0  0  0
   37.3540   33.0940   39.8250 H   0  0  0  0  0  0  0  0  0  0  0  0
   37.2000   25.0010   41.9820 S   0  0  0  0  0  0  0  0  0  0  0  0
   37.6220   25.0020   40.6590 H   0  0  0  0  0  0  0  0  0  0  0  0
  1  7  1  1  0  0  0
  1  2  1  0  0  0  0
  2  3  1  0  0  0  0
  2  8  1  0  0  0  0
  3  4  1  0  0  0  0
  3 11  1  0  0  0  0
  4 12  1  0  0  0  0
  5  4  1  0  0  0  0
  5 14  1  1  0  0  0
  6  1  1  0  0  0  0
  6  5  1  0  0  0  0
  9  2  1  0  0  0  0
 10  3  1  0  0  0  0
 13  4  1  0  0  0  0
 15  6  1  0  0  0  0
 16  6  1  0  0  0  0
 17 22  1  0  0  0  0
 17  1  1  0  0  0  0
 18 17  2  0  0  0  0
 19 20  2  0  0  0  0
 19 18  1  0  0  0  0
 20 21  1  0  0  0  0
 21 22  2  0  0  0  0
 23 18  1  0  0  0  0
 24 19  1  0  0  0  0
 25 21  1  0  0  0  0
 26  5  1  0  0  0  0
 27 26  1  0  0  0  0
M  END
>  <minimizedAffinity>
-4.14162159

$$$$

 OpenBabel03242519523D

 27 28  0  0  1  0  0  0  0  0999 V2000
   37.6720   28.0710   42.7850 C   0  0  2  0  0  0  0  0  0  0  0  0
   36.2490   27.9830   42.3820 C   0  0  0  0  0  0  0  0  0  0  0  0
   35.9650   28.6070   41.0550 C   0  0  0  0  0  0  0  0  0  0  0  0
   36.4520   30.0390   40.9560 C   0  0  0  0  0  0  0  0  0  0  0  0
   37.7980   30.2680   41.5990 C   0  0  1  0  0  0  0  0  0  0  0  0
   38.5070   28.9580   41.8730 C   0  0  0  0  0  0  0  0  0  0  0  0
   37.8190   28.5280   43.8070 H   0  0  0  0  0  0  0  0  0  0  0  0
   35.5820   28.4260   43.1460 H   0  0  0  0  0  0  0  0  0  0  0  0
   35.9650   26.9100   42.2930 H   0  0  0  0  0  0  0  0  0  0  0  0
   36.2570   28.0500   40.1710 H   0  0  0  0  0  0  0  0  0  0  0  0
   34.8390   28.6810   40.9850 H   0  0  0  0  0  0  0  0  0  0  0  0
   35.6840   30.7420   41.3320 H   0  0  0  0  0  0  0  0  0  0  0  0
   36.5560   30.2650   39.8750 H   0  0  0  0  0  0  0  0  0  0  0  0
   37.6140   30.7660   42.5720 H   0  0  0  0  0  0  0  0  0  0  0  0
   39.4690   29.1480   42.3460 H   0  0  0  0  0  0  0  0  0  0  0  0
   38.5740   28.4260   40.8920 H   0  0  0  0  0  0  0  0  0  0  0  0
   38.3210   26.7490   42.8240 C   0  0  0  0  0  0  0  0  0  0  0  0
   39.5100   26.6750   43.5770 C   0  0  0  0  0  0  0  0  0  0  0  0
   40.2120   25.4640   43.6790 C   0  0  0  0  0  0  0  0  0  0  0  0
   39.6700   24.4000   43.0140 N   0  0  0  0  0  0  0  0  0  0  0  0
   38.5230   24.4910   42.2950 C   0  0  0  0  0  0  0  0  0  0  0  0
   37.8530   25.6660   42.2030 N   0  0  0  0  0  0  0  0  0  0  0  0
   40.0020   27.4630   44.1290 H   0  0  0  0  0  0  0  0  0  0  0  0
   41.1110   25.3340   44.2270 H   0  0  0  0  0  0  0  0  0  0  0  0
   38.1840   23.5930   41.8110 H   0  0  0  0  0  0  0  0  0  0  0  0
   38.8510   31.2620   40.5140 S   0  0  0  0  0  0  0  0  0  0  0  0
   39.6130   30.4520   39.6830 H   0  0  0  0  0  0  0  0  0  0  0  0
  1 17  1  0  0  0  0
  1  7  1  1  0  0  0
  2  1  1  0  0  0  0
  2  8  1  0  0  0  0
  3  2  1  0  0  0  0
  4  3  1  0  0  0  0
  4 12  1  0  0  0  0
  4  5  1  0  0  0  0
  5  6  1  0  0  0  0
  5 14  1  1  0  0  0
  6 15  1  0  0  0  0
  6  1  1  0  0  0  0
  9  2  1  0  0  0  0
 10  3  1  0  0  0  0
 11  3  1  0  0  0  0
 13  4  1  0  0  0  0
 16  6  1  0  0  0  0
 17 18  1  0  0  0  0
 18 19  2  0  0  0  0
 18 23  1  0  0  0  0
 19 24  1  0  0  0  0
 20 19  1  0  0  0  0
 21 20  2  0  0  0  0
 22 21  1  0  0  0  0
 22 17  2  0  0  0  0
 25 21  1  0  0  0  0
 26  5  1  0  0  0  0
 27 26  1  0  0  0  0
M  END
>  <minimizedAffinity>
-4.12000799

$$$$

 OpenBabel03242519523D

 27 28  0  0  1  0  0  0  0  0999 V2000
   38.2160   28.8530   42.9720 C   0  0  2  0  0  0  0  0  0  0  0  0
   39.4180   29.7160   42.9180 C   0  0  0  0  0  0  0  0  0  0  0  0
   40.6520   28.9930   42.4870 C   0  0  0  0  0  0  0  0  0  0  0  0
   40.9320   27.7520   43.3110 C   0  0  0  0  0  0  0  0  0  0  0  0
   39.6950   26.9540   43.6440 C   0  0  1  0  0  0  0  0  0  0  0  0
   38.5210   27.3730   42.7840 C   0  0  0  0  0  0  0  0  0  0  0  0
   37.6830   28.8900   43.9660 H   0  0  0  0  0  0  0  0  0  0  0  0
   39.6050   30.2140   43.8880 H   0  0  0  0  0  0  0  0  0  0  0  0
   39.2490   30.5240   42.1710 H   0  0  0  0  0  0  0  0  0  0  0  0
   40.7550   28.7710   41.4300 H   0  0  0  0  0  0  0  0  0  0  0  0
   41.5120   29.6900   42.7160 H   0  0  0  0  0  0  0  0  0  0  0  0
   41.5230   28.0040   44.2120 H   0  0  0  0  0  0  0  0  0  0  0  0
   41.5910   27.1050   42.6970 H   0  0  0  0  0  0  0  0  0  0  0  0
   39.4410   27.1730   44.7000 H   0  0  0  0  0  0  0  0  0  0  0  0
   37.6390   26.7920   43.0500 H   0  0  0  0  0  0  0  0  0  0  0  0
   38.8490   27.2520   41.7230 H   0  0  0  0  0  0  0  0  0  0  0  0
   37.2180   29.2260   41.9530 C   0  0  0  0  0  0  0  0  0  0  0  0
   37.3640   30.5120   41.3970 C   0  0  0  0  0  0  0  0  0  0  0  0
   36.4670   30.9700   40.4210 C   0  0  0  0  0  0  0  0  0  0  0  0
   35.4760   30.1010   40.0640 N   0  0  0  0  0  0  0  0  0  0  0  0
   35.3510   28.8640   40.6100 C   0  0  0  0  0  0  0  0  0  0  0  0
   36.2240   28.4320   41.5530 N   0  0  0  0  0  0  0  0  0  0  0  0
   38.1150   31.2560   41.6230 H   0  0  0  0  0  0  0  0  0  0  0  0
   36.5160   31.9250   39.9600 H   0  0  0  0  0  0  0  0  0  0  0  0
   34.5350   28.2610   40.2570 H   0  0  0  0  0  0  0  0  0  0  0  0
   39.9930   25.1900   43.3680 S   0  0  0  0  0  0  0  0  0  0  0  0
   39.6350   24.8220   42.0780 H   0  0  0  0  0  0  0  0  0  0  0  0
  1  7  1  1  0  0  0
  2  1  1  0  0  0  0
  2  8  1  0  0  0  0
  3 11  1  0  0  0  0
  3  2  1  0  0  0  0
  3  4  1  0  0  0  0
  4  5  1  0  0  0  0
  4 12  1  0  0  0  0
  5 14  1  1  0  0  0
  6  1  1  0  0  0  0
  6 15  1  0  0  0  0
  6  5  1  0  0  0  0
  9  2  1  0  0  0  0
 10  3  1  0  0  0  0
 13  4  1  0  0  0  0
 16  6  1  0  0  0  0
 17  1  1  0  0  0  0
 18 23  1  0  0  0  0
 18 17  2  0  0  0  0
 19 18  1  0  0  0  0
 20 19  2  0  0  0  0
 20 21  1  0  0  0  0
 21 22  2  0  0  0  0
 22 17  1  0  0  0  0
 24 19  1  0  0  0  0
 25 21  1  0  0  0  0
 26  5  1  0  0  0  0
 27 26  1  0  0  0  0
M  END
>  <minimizedAffinity>
-4.09626007

$$$$

 OpenBabel03242519523D

 27 28  0  0  1  0  0  0  0  0999 V2000
   36.5380   31.1560   39.9230 C   0  0  2  0  0  0  0  0  0  0  0  0
   36.1870   30.2260   41.0220 C   0  0  0  0  0  0  0  0  0  0  0  0
   36.3370   28.7860   40.6560 C   0  0  0  0  0  0  0  0  0  0  0  0
   35.5880   28.4140   39.3910 C   0  0  0  0  0  0  0  0  0  0  0  0
   35.6750   29.4580   38.3050 C   0  0  1  0  0  0  0  0  0  0  0  0
   36.7750   30.4590   38.5910 C   0  0  0  0  0  0  0  0  0  0  0  0
   35.7240   31.9020   39.6920 H   0  0  0  0  0  0  0  0  0  0  0  0
   35.1600   30.4050   41.3920 H   0  0  0  0  0  0  0  0  0  0  0  0
   36.8730   30.4060   41.8800 H   0  0  0  0  0  0  0  0  0  0  0  0
   37.3440   28.3820   40.6270 H   0  0  0  0  0  0  0  0  0  0  0  0
   35.8210   28.2050   41.4770 H   0  0  0  0  0  0  0  0  0  0  0  0
   34.5410   28.1360   39.6220 H   0  0  0  0  0  0  0  0  0  0  0  0
   36.0600   27.4880   39.0030 H   0  0  0  0  0  0  0  0  0  0  0  0
   34.7100   30.0030   38.2990 H   0  0  0  0  0  0  0  0  0  0  0  0
   36.8100   31.2070   37.8000 H   0  0  0  0  0  0  0  0  0  0  0  0
   37.7150   29.8670   38.7070 H   0  0  0  0  0  0  0  0  0  0  0  0
   37.7480   31.9420   40.2260 C   0  0  0  0  0  0  0  0  0  0  0  0
   37.6720   33.3170   39.9290 C   0  0  0  0  0  0  0  0  0  0  0  0
   38.7670   34.1580   40.1760 C   0  0  0  0  0  0  0  0  0  0  0  0
   39.8750   33.5590   40.7070 N   0  0  0  0  0  0  0  0  0  0  0  0
   39.9280   32.2320   40.9870 C   0  0  0  0  0  0  0  0  0  0  0  0
   38.8630   31.4290   40.7450 N   0  0  0  0  0  0  0  0  0  0  0  0
   36.8400   33.8650   39.5110 H   0  0  0  0  0  0  0  0  0  0  0  0
   38.7820   35.2000   39.9780 H   0  0  0  0  0  0  0  0  0  0  0  0
   40.8480   31.8630   41.4040 H   0  0  0  0  0  0  0  0  0  0  0  0
   36.0250   28.6770   36.7110 S   0  0  0  0  0  0  0  0  0  0  0  0
   37.3920   28.6140   36.4780 H   0  0  0  0  0  0  0  0  0  0  0  0
  1  7  1  6  0  0  0
  1 17  1  0  0  0  0
  1  2  1  0  0  0  0
  2  8  1  0  0  0  0
  2  9  1  0  0  0  0
  3  2  1  0  0  0  0
  3 11  1  0  0  0  0
  4 12  1  0  0  0  0
  4  3  1  0  0  0  0
  5 14  1  6  0  0  0
  5  6  1  0  0  0  0
  5  4  1  0  0  0  0
  6 16  1  0  0  0  0
  6  1  1  0  0  0  0
 10  3  1  0  0  0  0
 13  4  1  0  0  0  0
 15  6  1  0  0  0  0
 17 22  1  0  0  0  0
 18 19  1  0  0  0  0
 18 17  2  0  0  0  0
 19 20  2  0  0  0  0
 20 21  1  0  0  0  0
 21 25  1  0  0  0  0
 22 21  2  0  0  0  0
 23 18  1  0  0  0  0
 24 19  1  0  0  0  0
 26  5  1  0  0  0  0
 27 26  1  0  0  0  0
M  END
>  <minimizedAffinity>
-3.94610977

$$$$

 OpenBabel03242519523D

 27 28  0  0  1  0  0  0  0  0999 V2000
   37.0350   25.3090   42.0850 C   0  0  2  0  0  0  0  0  0  0  0  0
   38.1810   24.4500   42.4660 C   0  0  0  0  0  0  0  0  0  0  0  0
   38.8280   23.7690   41.3050 C   0  0  0  0  0  0  0  0  0  0  0  0
   37.8470   22.9890   40.4520 C   0  0  0  0  0  0  0  0  0  0  0  0
   36.5290   23.6950   40.2450 C   0  0  1  0  0  0  0  0  0  0  0  0
   36.6210   25.1570   40.6280 C   0  0  0  0  0  0  0  0  0  0  0  0
   36.0910   25.0720   42.6550 H   0  0  0  0  0  0  0  0  0  0  0  0
   37.8890   23.6930   43.2180 H   0  0  0  0  0  0  0  0  0  0  0  0
   38.9650   25.0840   42.9370 H   0  0  0  0  0  0  0  0  0  0  0  0
   39.4770   24.3680   40.6750 H   0  0  0  0  0  0  0  0  0  0  0  0
   39.5090   22.9840   41.7500 H   0  0  0  0  0  0  0  0  0  0  0  0
   37.7150   21.9630   40.8440 H   0  0  0  0  0  0  0  0  0  0  0  0
   38.3190   22.8660   39.4560 H   0  0  0  0  0  0  0  0  0  0  0  0
   35.7920   23.2120   40.9160 H   0  0  0  0  0  0  0  0  0  0  0  0
   35.6570   25.6410   40.4800 H   0  0  0  0  0  0  0  0  0  0  0  0
   37.4510   25.5900   40.0190 H   0  0  0  0  0  0  0  0  0  0  0  0
   37.3110   26.7380   42.3150 C   0  0  0  0  0  0  0  0  0  0  0  0
   36.5920   27.6370   41.5030 C   0  0  0  0  0  0  0  0  0  0  0  0
   36.7800   29.0210   41.6360 C   0  0  0  0  0  0  0  0  0  0  0  0
   37.6840   29.4140   42.5820 N   0  0  0  0  0  0  0  0  0  0  0  0
   38.3670   28.5320   43.3560 C   0  0  0  0  0  0  0  0  0  0  0  0
   38.1770   27.1970   43.2180 N   0  0  0  0  0  0  0  0  0  0  0  0
   35.8640   27.4100   40.7370 H   0  0  0  0  0  0  0  0  0  0  0  0
   36.2740   29.7550   41.0610 H   0  0  0  0  0  0  0  0  0  0  0  0
   39.0540   28.9480   44.0700 H   0  0  0  0  0  0  0  0  0  0  0  0
   36.0320   23.5990   38.5070 S   0  0  0  0  0  0  0  0  0  0  0  0
   36.4990   24.6960   37.7960 H   0  0  0  0  0  0  0  0  0  0  0  0
  1 17  1  0  0  0  0
  1  2  1  0  0  0  0
  1  7  1  1  0  0  0
  2  9  1  0  0  0  0
  2  8  1  0  0  0  0
  3 11  1  0  0  0  0
  3  2  1  0  0  0  0
  4 12  1  0  0  0  0
  4  3  1  0  0  0  0
  5  4  1  0  0  0  0
  5  6  1  0  0  0  0
  5 14  1  1  0  0  0
  6  1  1  0  0  0  0
 10  3  1  0  0  0  0
 13  4  1  0  0  0  0
 15  6  1  0  0  0  0
 16  6  1  0  0  0  0
 17 22  1  0  0  0  0
 18 19  1  0  0  0  0
 18 17  2  0  0  0  0
 19 20  2  0  0  0  0
 20 21  1  0  0  0  0
 21 25  1  0  0  0  0
 22 21  2  0  0  0  0
 23 18  1  0  0  0  0
 24 19  1  0  0  0  0
 26  5  1  0  0  0  0
 27 26  1  0  0  0  0
M  END
>  <minimizedAffinity>
-3.93559504

$$$$

 OpenBabel03242519523D

 27 28  0  0  1  0  0  0  0  0999 V2000
   37.9960   30.8090   41.3610 C   0  0  2  0  0  0  0  0  0  0  0  0
   36.5850   30.8710   40.9140 C   0  0  0  0  0  0  0  0  0  0  0  0
   36.4190   30.7060   39.4380 C   0  0  0  0  0  0  0  0  0  0  0  0
   37.2690   31.6700   38.6340 C   0  0  0  0  0  0  0  0  0  0  0  0
   38.6550   31.8710   39.1970 C   0  0  1  0  0  0  0  0  0  0  0  0
   38.9970   30.8020   40.2140 C   0  0  0  0  0  0  0  0  0  0  0  0
   38.3080   31.6980   41.9810 H   0  0  0  0  0  0  0  0  0  0  0  0
   36.0990   31.8110   41.2350 H   0  0  0  0  0  0  0  0  0  0  0  0
   36.0190   30.0390   41.3890 H   0  0  0  0  0  0  0  0  0  0  0  0
   36.5100   29.7030   39.0360 H   0  0  0  0  0  0  0  0  0  0  0  0
   35.3530   31.0080   39.2140 H   0  0  0  0  0  0  0  0  0  0  0  0
   36.7370   32.6290   38.4800 H   0  0  0  0  0  0  0  0  0  0  0  0
   37.3810   31.2280   37.6230 H   0  0  0  0  0  0  0  0  0  0  0  0
   38.6570   32.8500   39.7160 H   0  0  0  0  0  0  0  0  0  0  0  0
   39.9950   30.9750   40.6130 H   0  0  0  0  0  0  0  0  0  0  0  0
   38.8720   29.8220   39.6930 H   0  0  0  0  0  0  0  0  0  0  0  0
   38.2660   29.6150   42.1830 C   0  0  0  0  0  0  0  0  0  0  0  0
   39.5820   29.1160   42.1210 C   0  0  0  0  0  0  0  0  0  0  0  0
   39.9470   27.9820   42.8620 C   0  0  0  0  0  0  0  0  0  0  0  0
   38.9610   27.4200   43.6220 N   0  0  0  0  0  0  0  0  0  0  0  0
   37.6980   27.9170   43.6700 C   0  0  0  0  0  0  0  0  0  0  0  0
   37.3570   29.0130   42.9490 N   0  0  0  0  0  0  0  0  0  0  0  0
   40.4150   29.4990   41.5490 H   0  0  0  0  0  0  0  0  0  0  0  0
   40.9170   27.5510   42.8640 H   0  0  0  0  0  0  0  0  0  0  0  0
   36.9990   27.3990   44.3000 H   0  0  0  0  0  0  0  0  0  0  0  0
   39.8860   31.8010   37.8720 S   0  0  0  0  0  0  0  0  0  0  0  0
   40.3630   30.5080   37.7040 H   0  0  0  0  0  0  0  0  0  0  0  0
  1  7  1  1  0  0  0
  1 17  1  0  0  0  0
  2  8  1  0  0  0  0
  2  1  1  0  0  0  0
  2  9  1  0  0  0  0
  3  2  1  0  0  0  0
  4  5  1  0  0  0  0
  4  3  1  0  0  0  0
  5 14  1  1  0  0  0
  5  6  1  0  0  0  0
  6 15  1  0  0  0  0
  6  1  1  0  0  0  0
 10  3  1  0  0  0  0
 11  3  1  0  0  0  0
 12  4  1  0  0  0  0
 13  4  1  0  0  0  0
 16  6  1  0  0  0  0
 17 22  1  0  0  0  0
 18 17  2  0  0  0  0
 18 19  1  0  0  0  0
 19 24  1  0  0  0  0
 19 20  2  0  0  0  0
 20 21  1  0  0  0  0
 21 25  1  0  0  0  0
 22 21  2  0  0  0  0
 23 18  1  0  0  0  0
 26  5  1  0  0  0  0
 27 26  1  0  0  0  0
M  END
>  <minimizedAffinity>
-3.9066422

$$$$
