REMARK  Name = 
REMARK  2 active torsions:
REMARK  status: ('A' for Active; 'I' for Inactive)
REMARK    1  A    between atoms: C_2  and  S_17
REMARK    2  A    between atoms: C_3  and  C_7
REMARK                            x       y       z     vdW  Elec       q    Type
REMARK                         _______ _______ _______ _____ _____    ______ ____
ROOT
ATOM      1  C   UNL     1      44.592  35.901  44.311  0.00  0.00    +0.000 A 
ATOM      2  C   UNL     1      45.331  35.914  43.117  0.00  0.00    +0.000 A 
ATOM      3  C   UNL     1      46.303  34.911  43.036  0.00  0.00    +0.000 A 
ATOM      4  N   UNL     1      46.482  34.005  44.071  0.00  0.00    +0.000 NA
ATOM      5  C   UNL     1      45.732  34.061  45.177  0.00  0.00    +0.000 A 
ATOM      6  N   UNL     1      44.787  35.017  45.287  0.00  0.00    +0.000 NA
ATOM      7  H   UNL     1      43.830  36.662  44.416  0.00  0.00    +0.000 HD
ATOM      8  H   UNL     1      46.025  33.273  45.856  0.00  0.00    +0.000 HD
ENDROOT
BRANCH   3   9
ATOM      9  C   UNL     1      47.082  34.805  41.739  0.00  0.00    +0.000 C 
ATOM     10  C   UNL     1      48.463  35.464  41.894  0.00  0.00    +0.000 C 
ATOM     11  C   UNL     1      48.225  33.934  41.727  0.00  0.00    +0.000 C 
ATOM     12  H   UNL     1      46.562  35.239  40.863  0.00  0.00    +0.000 HD
ATOM     13  H   UNL     1      48.842  35.998  41.026  0.00  0.00    +0.000 HD
ATOM     14  H   UNL     1      48.743  35.830  42.872  0.00  0.00    +0.000 HD
ATOM     15  H   UNL     1      48.599  33.367  42.594  0.00  0.00    +0.000 HD
ATOM     16  H   UNL     1      48.621  33.537  40.769  0.00  0.00    +0.000 HD
ENDBRANCH   3   9
BRANCH   2  17
ATOM     17  S   UNL     1      45.091  37.084  41.793  0.00  0.00    +0.000 S 
ATOM     18  H   UNL     1      44.046  37.951  42.195  0.00  0.00    +0.000 HD
ENDBRANCH   2  17
TORSDOF 2
