
     RDKit          3D

 17 17  0  0  0  0  0  0  0  0999 V2000
   44.5926   35.9887   44.5091 C   0  0  0  0  0  0  0  0  0  0  0  0
   45.2228   35.9999   43.2520 C   0  0  0  0  0  0  0  0  0  0  0  0
   46.0963   34.9517   42.9655 C   0  0  0  0  0  0  0  0  0  0  0  0
   46.2922   33.9830   43.9051 N   0  0  0  0  0  0  0  0  0  0  0  0
   45.6700   34.0099   45.0940 C   0  0  0  0  0  0  0  0  0  0  0  0
   44.8173   35.0028   45.4154 N   0  0  0  0  0  0  0  0  0  0  0  0
   46.7161   34.9643   41.7271 O   0  0  0  0  0  0  0  0  0  0  0  0
   48.6431   33.3402   40.9634 O   0  0  0  0  0  0  0  0  0  0  0  0
   48.4116   34.6759   41.6375 P   0  0  0  0  0  0  0  0  0  0  0  0
   49.1257   35.9264   40.7880 O   0  0  0  0  0  0  0  0  0  0  0  0
   48.9875   34.5984   43.2241 O   0  0  0  0  0  0  0  0  0  0  0  0
   43.9230   36.8203   44.6903 H   0  0  0  0  0  0  0  0  0  0  0  0
   45.0521   36.7746   42.5283 H   0  0  0  0  0  0  0  0  0  0  0  0
   48.9872   35.7829   39.8366 H   0  0  0  0  0  0  0  0  0  0  0  0
   48.5851   35.3655   43.7073 H   0  0  0  0  0  0  0  0  0  0  0  0
   46.0333   32.6665   46.2165 S   0  0  0  0  0  0  0  0  0  0  0  0
   46.5100   31.5872   45.4395 H   0  0  0  0  0  0  0  0  0  0  0  0
  1  6  2  0
  2  1  1  0
  3  2  2  0
  3  4  1  0
  4  5  2  0
  5  6  1  0
  7  3  1  0
  8  9  2  0
  9  7  1  0
  9 11  1  0
 10  9  1  0
  1 12  1  0
  2 13  1  0
 10 14  1  0
 11 15  1  0
 16 17  1  0
  5 16  1  0
M  ISO  5  12  14  13  14  14   3  15   3  17  11
M  END
>  <DihAtoms>  (1) 
3,4,15,16

>  <DihDeg>  (1) 
67.97066422276875

$$$$
