
 OpenBabel03252508243D

 41 43  0  0  0  0  0  0  0  0999 V2000
   36.4380   30.3350   38.9770 C   0  0  0  0  0  0  0  0  0  0  0  0
   35.7960   29.3970   38.1940 C   0  0  0  0  0  0  0  0  0  0  0  0
   35.9460   29.2870   36.8350 C   0  0  0  0  0  0  0  0  0  0  0  0
   36.8200   30.2080   36.2420 C   0  0  0  0  0  0  0  0  0  0  0  0
   37.4850   31.1610   36.9680 C   0  0  0  0  0  0  0  0  0  0  0  0
   37.3000   31.2280   38.3180 C   0  0  0  0  0  0  0  0  0  0  0  0
   35.1200   28.6480   38.5730 H   0  0  0  0  0  0  0  0  0  0  0  0
   35.4650   28.5750   36.1980 H   0  0  0  0  0  0  0  0  0  0  0  0
   36.9790   30.1660   35.1570 H   0  0  0  0  0  0  0  0  0  0  0  0
   38.1430   31.8330   36.4310 H   0  0  0  0  0  0  0  0  0  0  0  0
   38.0310   32.2390   38.9820 N   0  0  0  0  0  0  0  0  0  0  0  0
   37.4910   33.5090   39.3740 C   0  0  0  0  0  0  0  0  0  0  0  0
   38.3300   34.1610   40.4430 C   0  0  0  0  0  0  0  0  0  0  0  0
   38.8390   33.2550   41.4050 N   0  0  0  0  0  0  0  0  0  0  0  0
   39.5670   32.1680   40.8830 C   0  0  0  0  0  0  0  0  0  0  0  0
   39.4450   32.1420   39.3710 C   0  0  0  0  0  0  0  0  0  0  0  0
   37.6400   34.1670   38.4630 H   0  0  0  0  0  0  0  0  0  0  0  0
   36.4110   33.5570   39.5420 H   0  0  0  0  0  0  0  0  0  0  0  0
   37.7000   34.9270   40.9200 H   0  0  0  0  0  0  0  0  0  0  0  0
   39.1920   34.7090   40.0050 H   0  0  0  0  0  0  0  0  0  0  0  0
   39.0560   33.6270   42.3180 H   0  0  0  0  0  0  0  0  0  0  0  0
   39.2640   31.1760   41.2520 H   0  0  0  0  0  0  0  0  0  0  0  0
   40.6570   32.3300   41.1050 H   0  0  0  0  0  0  0  0  0  0  0  0
   39.8360   31.1850   39.0090 H   0  0  0  0  0  0  0  0  0  0  0  0
   39.9650   33.0200   38.9350 H   0  0  0  0  0  0  0  0  0  0  0  0
   36.2700   30.4520   40.4250 C   0  0  0  0  0  0  0  0  0  0  0  0
   35.7140   31.3260   40.7610 H   0  0  0  0  0  0  0  0  0  0  0  0
   37.3090   30.5870   40.8470 H   0  0  0  0  0  0  0  0  0  0  0  0
   35.6660   29.1960   41.0190 C   0  0  0  0  0  0  0  0  0  0  0  0
   35.2650   28.5340   40.1940 H   0  0  0  0  0  0  0  0  0  0  0  0
   34.8390   29.3440   41.6930 H   0  0  0  0  0  0  0  0  0  0  0  0
   38.5850   28.3750   43.2670 C   0  0  0  0  0  0  0  0  0  0  0  0
   37.5980   29.1260   42.5810 C   0  0  0  0  0  0  0  0  0  0  0  0
   36.7140   28.4430   41.7430 C   0  0  0  0  0  0  0  0  0  0  0  0
   36.8530   27.0830   41.6320 N   0  0  0  0  0  0  0  0  0  0  0  0
   37.7950   26.4060   42.2930 C   0  0  0  0  0  0  0  0  0  0  0  0
   38.6580   27.0430   43.1070 N   0  0  0  0  0  0  0  0  0  0  0  0
   39.2530   28.9370   43.9070 H   0  0  0  0  0  0  0  0  0  0  0  0
   37.5210   30.1810   42.6930 H   0  0  0  0  0  0  0  0  0  0  0  0
   37.8760   24.6350   42.0670 S   0  0  0  0  0  0  0  0  0  0  0  0
   36.5660   24.0990   41.9530 H   0  0  0  0  0  0  0  0  0  0  0  0
  1 26  1  0  0  0  0
  2  7  1  0  0  0  0
  2  1  2  0  0  0  0
  3  2  1  0  0  0  0
  4  3  2  0  0  0  0
  4  5  1  0  0  0  0
  5  6  2  0  0  0  0
  6  1  1  0  0  0  0
  6 11  1  0  0  0  0
  8  3  1  0  0  0  0
  9  4  1  0  0  0  0
 10  5  1  0  0  0  0
 11 16  1  0  0  0  0
 11 12  1  0  0  0  0
 12 18  1  0  0  0  0
 12 13  1  0  0  0  0
 13 19  1  0  0  0  0
 13 14  1  0  0  0  0
 14 21  1  0  0  0  0
 15 23  1  0  0  0  0
 15 22  1  0  0  0  0
 15 14  1  0  0  0  0
 16 15  1  0  0  0  0
 17 12  1  0  0  0  0
 20 13  1  0  0  0  0
 24 16  1  0  0  0  0
 25 16  1  0  0  0  0
 26 27  1  0  0  0  0
 26 28  1  0  0  0  0
 26 29  1  0  0  0  0
 29 31  1  0  0  0  0
 29 34  1  0  0  0  0
 30 29  1  0  0  0  0
 32 38  1  0  0  0  0
 33 39  1  0  0  0  0
 33 32  2  0  0  0  0
 34 33  1  0  0  0  0
 35 34  2  0  0  0  0
 35 36  1  0  0  0  0
 36 37  2  0  0  0  0
 37 32  1  0  0  0  0
 40 36  1  0  0  0  0
 41 40  1  0  0  0  0
M  END
>  <minimizedAffinity>
-5.58186293

$$$$

 OpenBabel03252508243D

 41 43  0  0  0  0  0  0  0  0999 V2000
   37.0800   29.5520   41.2430 C   0  0  0  0  0  0  0  0  0  0  0  0
   35.9180   28.8300   41.0710 C   0  0  0  0  0  0  0  0  0  0  0  0
   35.0870   28.9450   39.9850 C   0  0  0  0  0  0  0  0  0  0  0  0
   35.4850   29.8670   39.0080 C   0  0  0  0  0  0  0  0  0  0  0  0
   36.6290   30.6110   39.1250 C   0  0  0  0  0  0  0  0  0  0  0  0
   37.4210   30.4590   40.2260 C   0  0  0  0  0  0  0  0  0  0  0  0
   35.5490   28.0950   41.7680 H   0  0  0  0  0  0  0  0  0  0  0  0
   34.1800   28.4030   39.8190 H   0  0  0  0  0  0  0  0  0  0  0  0
   34.8590   30.0000   38.1170 H   0  0  0  0  0  0  0  0  0  0  0  0
   36.8630   31.3010   38.3230 H   0  0  0  0  0  0  0  0  0  0  0  0
   38.5810   31.2650   40.2560 N   0  0  0  0  0  0  0  0  0  0  0  0
   39.8040   30.9570   39.5720 C   0  0  0  0  0  0  0  0  0  0  0  0
   40.6650   32.1820   39.4000 C   0  0  0  0  0  0  0  0  0  0  0  0
   39.9370   33.3590   39.1000 N   0  0  0  0  0  0  0  0  0  0  0  0
   38.9060   33.6760   40.0050 C   0  0  0  0  0  0  0  0  0  0  0  0
   38.7090   32.5350   40.9860 C   0  0  0  0  0  0  0  0  0  0  0  0
   40.3780   30.3140   40.3070 H   0  0  0  0  0  0  0  0  0  0  0  0
   39.7280   30.3190   38.6870 H   0  0  0  0  0  0  0  0  0  0  0  0
   41.3880   31.9540   38.6020 H   0  0  0  0  0  0  0  0  0  0  0  0
   41.2730   32.3820   40.3090 H   0  0  0  0  0  0  0  0  0  0  0  0
   40.4250   34.0890   38.6030 H   0  0  0  0  0  0  0  0  0  0  0  0
   37.9260   33.8870   39.5500 H   0  0  0  0  0  0  0  0  0  0  0  0
   39.2300   34.5610   40.6180 H   0  0  0  0  0  0  0  0  0  0  0  0
   37.7780   32.7090   41.5370 H   0  0  0  0  0  0  0  0  0  0  0  0
   39.5970   32.4460   41.6450 H   0  0  0  0  0  0  0  0  0  0  0  0
   37.9600   29.4310   42.4060 C   0  0  0  0  0  0  0  0  0  0  0  0
   38.1380   30.3550   42.9540 H   0  0  0  0  0  0  0  0  0  0  0  0
   38.9710   29.1320   41.9990 H   0  0  0  0  0  0  0  0  0  0  0  0
   37.4820   28.3510   43.3550 C   0  0  0  0  0  0  0  0  0  0  0  0
   36.3910   28.1230   43.1610 H   0  0  0  0  0  0  0  0  0  0  0  0
   37.5420   28.5850   44.4050 H   0  0  0  0  0  0  0  0  0  0  0  0
   40.2460   25.7820   43.4410 C   0  0  0  0  0  0  0  0  0  0  0  0
   39.5320   26.9820   43.6780 C   0  0  0  0  0  0  0  0  0  0  0  0
   38.2580   27.1130   43.1200 C   0  0  0  0  0  0  0  0  0  0  0  0
   37.7720   26.0690   42.3750 N   0  0  0  0  0  0  0  0  0  0  0  0
   38.4720   24.9510   42.1720 C   0  0  0  0  0  0  0  0  0  0  0  0
   39.7020   24.8030   42.7000 N   0  0  0  0  0  0  0  0  0  0  0  0
   41.2300   25.7150   43.8880 H   0  0  0  0  0  0  0  0  0  0  0  0
   39.9430   27.7710   44.2620 H   0  0  0  0  0  0  0  0  0  0  0  0
   37.7320   23.6600   41.1820 S   0  0  0  0  0  0  0  0  0  0  0  0
   36.3370   23.5860   41.4440 H   0  0  0  0  0  0  0  0  0  0  0  0
  1 26  1  0  0  0  0
  2  1  1  0  0  0  0
  2  7  1  0  0  0  0
  3  2  2  0  0  0  0
  4  5  2  0  0  0  0
  4  3  1  0  0  0  0
  5  6  1  0  0  0  0
  6 11  1  0  0  0  0
  6  1  2  0  0  0  0
  8  3  1  0  0  0  0
  9  4  1  0  0  0  0
 10  5  1  0  0  0  0
 11 16  1  0  0  0  0
 12 11  1  0  0  0  0
 12 17  1  0  0  0  0
 13 12  1  0  0  0  0
 13 20  1  0  0  0  0
 14 13  1  0  0  0  0
 14 15  1  0  0  0  0
 15 23  1  0  0  0  0
 15 16  1  0  0  0  0
 16 24  1  0  0  0  0
 16 25  1  0  0  0  0
 18 12  1  0  0  0  0
 19 13  1  0  0  0  0
 21 14  1  0  0  0  0
 22 15  1  0  0  0  0
 26 27  1  0  0  0  0
 26 29  1  0  0  0  0
 28 26  1  0  0  0  0
 29 31  1  0  0  0  0
 30 29  1  0  0  0  0
 32 33  1  0  0  0  0
 32 38  1  0  0  0  0
 33 39  1  0  0  0  0
 34 29  1  0  0  0  0
 34 33  2  0  0  0  0
 35 34  1  0  0  0  0
 36 35  2  0  0  0  0
 36 37  1  0  0  0  0
 37 32  2  0  0  0  0
 40 41  1  0  0  0  0
 40 36  1  0  0  0  0
M  END
>  <minimizedAffinity>
-5.48328924

$$$$

 OpenBabel03252508243D

 41 43  0  0  0  0  0  0  0  0999 V2000
   38.3860   26.4220   42.6780 C   0  0  0  0  0  0  0  0  0  0  0  0
   37.1080   25.9460   42.4730 C   0  0  0  0  0  0  0  0  0  0  0  0
   36.8130   24.7160   41.9420 C   0  0  0  0  0  0  0  0  0  0  0  0
   37.9150   23.9200   41.6010 C   0  0  0  0  0  0  0  0  0  0  0  0
   39.2070   24.3390   41.7830 C   0  0  0  0  0  0  0  0  0  0  0  0
   39.4450   25.5730   42.3150 C   0  0  0  0  0  0  0  0  0  0  0  0
   36.2090   26.4900   42.7180 H   0  0  0  0  0  0  0  0  0  0  0  0
   35.8360   24.3160   41.7690 H   0  0  0  0  0  0  0  0  0  0  0  0
   37.7390   22.9260   41.1730 H   0  0  0  0  0  0  0  0  0  0  0  0
   40.0000   23.6600   41.4930 H   0  0  0  0  0  0  0  0  0  0  0  0
   40.8070   25.9150   42.4680 N   0  0  0  0  0  0  0  0  0  0  0  0
   41.5570   25.7470   43.6800 C   0  0  0  0  0  0  0  0  0  0  0  0
   43.0420   25.7480   43.4160 C   0  0  0  0  0  0  0  0  0  0  0  0
   43.4140   25.0760   42.2270 N   0  0  0  0  0  0  0  0  0  0  0  0
   42.7640   25.5170   41.0570 C   0  0  0  0  0  0  0  0  0  0  0  0
   41.6570   26.4910   41.4160 C   0  0  0  0  0  0  0  0  0  0  0  0
   41.3760   26.7070   44.2540 H   0  0  0  0  0  0  0  0  0  0  0  0
   41.2120   24.9730   44.3710 H   0  0  0  0  0  0  0  0  0  0  0  0
   43.5210   25.2880   44.2930 H   0  0  0  0  0  0  0  0  0  0  0  0
   43.4430   26.7820   43.3610 H   0  0  0  0  0  0  0  0  0  0  0  0
   44.3500   24.7010   42.1830 H   0  0  0  0  0  0  0  0  0  0  0  0
   42.3130   24.7240   40.4400 H   0  0  0  0  0  0  0  0  0  0  0  0
   43.5010   26.0970   40.4380 H   0  0  0  0  0  0  0  0  0  0  0  0
   41.0390   26.6540   40.5260 H   0  0  0  0  0  0  0  0  0  0  0  0
   42.0950   27.4260   41.8230 H   0  0  0  0  0  0  0  0  0  0  0  0
   38.6950   27.7370   43.2390 C   0  0  0  0  0  0  0  0  0  0  0  0
   39.5270   28.2600   42.7690 H   0  0  0  0  0  0  0  0  0  0  0  0
   39.0300   27.5500   44.3010 H   0  0  0  0  0  0  0  0  0  0  0  0
   37.4720   28.6310   43.2670 C   0  0  0  0  0  0  0  0  0  0  0  0
   37.3670   29.1080   44.2870 H   0  0  0  0  0  0  0  0  0  0  0  0
   36.5290   28.1450   43.0810 H   0  0  0  0  0  0  0  0  0  0  0  0
   36.7140   31.1560   40.5660 C   0  0  0  0  0  0  0  0  0  0  0  0
   36.5310   30.1130   41.5060 C   0  0  0  0  0  0  0  0  0  0  0  0
   37.6310   29.7120   42.2690 C   0  0  0  0  0  0  0  0  0  0  0  0
   38.8260   30.3530   42.0620 N   0  0  0  0  0  0  0  0  0  0  0  0
   38.9630   31.3330   41.1660 C   0  0  0  0  0  0  0  0  0  0  0  0
   37.9170   31.7360   40.4200 N   0  0  0  0  0  0  0  0  0  0  0  0
   35.8410   31.4410   39.9930 H   0  0  0  0  0  0  0  0  0  0  0  0
   35.5880   29.6400   41.6400 H   0  0  0  0  0  0  0  0  0  0  0  0
   40.5710   32.0910   40.9860 S   0  0  0  0  0  0  0  0  0  0  0  0
   41.2040   32.1950   42.2540 H   0  0  0  0  0  0  0  0  0  0  0  0
  1 26  1  0  0  0  0
  2  1  1  0  0  0  0
  2  7  1  0  0  0  0
  3  2  2  0  0  0  0
  4  5  2  0  0  0  0
  4  3  1  0  0  0  0
  5  6  1  0  0  0  0
  6 11  1  0  0  0  0
  6  1  2  0  0  0  0
  8  3  1  0  0  0  0
  9  4  1  0  0  0  0
 10  5  1  0  0  0  0
 11 12  1  0  0  0  0
 12 17  1  0  0  0  0
 12 18  1  0  0  0  0
 13 12  1  0  0  0  0
 13 19  1  0  0  0  0
 14 13  1  0  0  0  0
 15 16  1  0  0  0  0
 15 14  1  0  0  0  0
 16 25  1  0  0  0  0
 16 11  1  0  0  0  0
 20 13  1  0  0  0  0
 21 14  1  0  0  0  0
 22 15  1  0  0  0  0
 23 15  1  0  0  0  0
 24 16  1  0  0  0  0
 26 29  1  0  0  0  0
 26 28  1  0  0  0  0
 27 26  1  0  0  0  0
 29 30  1  0  0  0  0
 31 29  1  0  0  0  0
 32 33  1  0  0  0  0
 33 39  1  0  0  0  0
 33 34  2  0  0  0  0
 34 29  1  0  0  0  0
 35 34  1  0  0  0  0
 36 35  2  0  0  0  0
 37 32  2  0  0  0  0
 37 36  1  0  0  0  0
 38 32  1  0  0  0  0
 40 36  1  0  0  0  0
 40 41  1  0  0  0  0
M  END
>  <minimizedAffinity>
-5.34899282

$$$$

 OpenBabel03252508243D

 41 43  0  0  0  0  0  0  0  0999 V2000
   36.5520   29.9250   39.9010 C   0  0  0  0  0  0  0  0  0  0  0  0
   36.7060   30.9960   40.7570 C   0  0  0  0  0  0  0  0  0  0  0  0
   37.1400   32.2400   40.3750 C   0  0  0  0  0  0  0  0  0  0  0  0
   37.4350   32.3900   39.0130 C   0  0  0  0  0  0  0  0  0  0  0  0
   37.3000   31.3630   38.1160 C   0  0  0  0  0  0  0  0  0  0  0  0
   36.8650   30.1450   38.5490 C   0  0  0  0  0  0  0  0  0  0  0  0
   36.4910   30.9660   41.8130 H   0  0  0  0  0  0  0  0  0  0  0  0
   37.2710   33.0900   41.0100 H   0  0  0  0  0  0  0  0  0  0  0  0
   37.7850   33.3640   38.6510 H   0  0  0  0  0  0  0  0  0  0  0  0
   37.5490   31.5650   37.0810 H   0  0  0  0  0  0  0  0  0  0  0  0
   36.7540   29.1500   37.5510 N   0  0  0  0  0  0  0  0  0  0  0  0
   35.7350   29.1200   36.5420 C   0  0  0  0  0  0  0  0  0  0  0  0
   36.1360   28.2510   35.3770 C   0  0  0  0  0  0  0  0  0  0  0  0
   37.5050   28.3500   35.0300 N   0  0  0  0  0  0  0  0  0  0  0  0
   38.4110   28.1130   36.0830 C   0  0  0  0  0  0  0  0  0  0  0  0
   37.6610   28.0040   37.3970 C   0  0  0  0  0  0  0  0  0  0  0  0
   34.8800   28.5570   37.0280 H   0  0  0  0  0  0  0  0  0  0  0  0
   35.2820   30.0770   36.2680 H   0  0  0  0  0  0  0  0  0  0  0  0
   35.4950   28.5380   34.5300 H   0  0  0  0  0  0  0  0  0  0  0  0
   35.9130   27.1800   35.5740 H   0  0  0  0  0  0  0  0  0  0  0  0
   37.7570   28.1310   34.0780 H   0  0  0  0  0  0  0  0  0  0  0  0
   39.1920   28.8780   36.2160 H   0  0  0  0  0  0  0  0  0  0  0  0
   38.8960   27.1120   35.9160 H   0  0  0  0  0  0  0  0  0  0  0  0
   38.3900   28.0300   38.2150 H   0  0  0  0  0  0  0  0  0  0  0  0
   37.0350   27.0870   37.3990 H   0  0  0  0  0  0  0  0  0  0  0  0
   36.0950   28.5990   40.3150 C   0  0  0  0  0  0  0  0  0  0  0  0
   36.6080   27.7610   39.8440 H   0  0  0  0  0  0  0  0  0  0  0  0
   35.0230   28.5190   39.9660 H   0  0  0  0  0  0  0  0  0  0  0  0
   36.1260   28.4450   41.8220 C   0  0  0  0  0  0  0  0  0  0  0  0
   35.1360   28.0400   42.1880 H   0  0  0  0  0  0  0  0  0  0  0  0
   36.2920   29.3490   42.3840 H   0  0  0  0  0  0  0  0  0  0  0  0
   39.1140   26.8730   43.5100 C   0  0  0  0  0  0  0  0  0  0  0  0
   38.1200   27.8230   43.1710 C   0  0  0  0  0  0  0  0  0  0  0  0
   37.1830   27.4780   42.1940 C   0  0  0  0  0  0  0  0  0  0  0  0
   37.2800   26.2360   41.6200 N   0  0  0  0  0  0  0  0  0  0  0  0
   38.2300   25.3640   41.9640 C   0  0  0  0  0  0  0  0  0  0  0  0
   39.1440   25.6750   42.9030 N   0  0  0  0  0  0  0  0  0  0  0  0
   39.8230   27.1740   44.2700 H   0  0  0  0  0  0  0  0  0  0  0  0
   38.0770   28.7780   43.6390 H   0  0  0  0  0  0  0  0  0  0  0  0
   38.2530   23.7760   41.1440 S   0  0  0  0  0  0  0  0  0  0  0  0
   36.9250   23.3250   40.9190 H   0  0  0  0  0  0  0  0  0  0  0  0
  1 26  1  0  0  0  0
  1  2  1  0  0  0  0
  2  7  1  0  0  0  0
  3  2  2  0  0  0  0
  3  8  1  0  0  0  0
  4  3  1  0  0  0  0
  5  6  1  0  0  0  0
  5  4  2  0  0  0  0
  6  1  2  0  0  0  0
  9  4  1  0  0  0  0
 10  5  1  0  0  0  0
 11  6  1  0  0  0  0
 12 17  1  0  0  0  0
 12 11  1  0  0  0  0
 13 20  1  0  0  0  0
 13 12  1  0  0  0  0
 14 13  1  0  0  0  0
 14 15  1  0  0  0  0
 15 22  1  0  0  0  0
 15 16  1  0  0  0  0
 16 25  1  0  0  0  0
 16 11  1  0  0  0  0
 16 24  1  0  0  0  0
 18 12  1  0  0  0  0
 19 13  1  0  0  0  0
 21 14  1  0  0  0  0
 23 15  1  0  0  0  0
 26 29  1  0  0  0  0
 27 26  1  0  0  0  0
 28 26  1  0  0  0  0
 29 30  1  0  0  0  0
 29 34  1  0  0  0  0
 29 31  1  0  0  0  0
 32 38  1  0  0  0  0
 33 32  1  0  0  0  0
 33 39  1  0  0  0  0
 34 33  2  0  0  0  0
 35 36  2  0  0  0  0
 35 34  1  0  0  0  0
 36 37  1  0  0  0  0
 37 32  2  0  0  0  0
 40 36  1  0  0  0  0
 41 40  1  0  0  0  0
M  END
>  <minimizedAffinity>
-5.30092478

$$$$

 OpenBabel03252508243D

 41 43  0  0  0  0  0  0  0  0999 V2000
   36.8090   29.7920   40.6950 C   0  0  0  0  0  0  0  0  0  0  0  0
   35.9220   28.7620   40.4610 C   0  0  0  0  0  0  0  0  0  0  0  0
   35.3280   28.5090   39.2500 C   0  0  0  0  0  0  0  0  0  0  0  0
   35.6750   29.3790   38.2080 C   0  0  0  0  0  0  0  0  0  0  0  0
   36.5510   30.4180   38.3820 C   0  0  0  0  0  0  0  0  0  0  0  0
   37.1140   30.6260   39.6070 C   0  0  0  0  0  0  0  0  0  0  0  0
   35.6130   28.0440   41.2040 H   0  0  0  0  0  0  0  0  0  0  0  0
   34.6370   27.7220   39.0330 H   0  0  0  0  0  0  0  0  0  0  0  0
   35.2310   29.2240   37.2170 H   0  0  0  0  0  0  0  0  0  0  0  0
   36.7650   31.0430   37.5220 H   0  0  0  0  0  0  0  0  0  0  0  0
   38.0060   31.7190   39.6880 N   0  0  0  0  0  0  0  0  0  0  0  0
   37.6250   33.0580   40.0360 C   0  0  0  0  0  0  0  0  0  0  0  0
   38.8110   33.8690   40.4930 C   0  0  0  0  0  0  0  0  0  0  0  0
   39.7340   33.1430   41.2840 N   0  0  0  0  0  0  0  0  0  0  0  0
   40.2180   31.9540   40.7050 C   0  0  0  0  0  0  0  0  0  0  0  0
   39.4520   31.6490   39.4310 C   0  0  0  0  0  0  0  0  0  0  0  0
   37.3300   33.5270   39.0480 H   0  0  0  0  0  0  0  0  0  0  0  0
   36.7250   33.1720   40.6470 H   0  0  0  0  0  0  0  0  0  0  0  0
   38.4110   34.7310   41.0480 H   0  0  0  0  0  0  0  0  0  0  0  0
   39.3660   34.2960   39.6300 H   0  0  0  0  0  0  0  0  0  0  0  0
   40.3060   33.6710   41.9260 H   0  0  0  0  0  0  0  0  0  0  0  0
   40.1570   31.0590   41.3440 H   0  0  0  0  0  0  0  0  0  0  0  0
   41.2860   32.1180   40.3960 H   0  0  0  0  0  0  0  0  0  0  0  0
   39.6960   30.6280   39.1170 H   0  0  0  0  0  0  0  0  0  0  0  0
   39.6850   32.4120   38.6590 H   0  0  0  0  0  0  0  0  0  0  0  0
   37.4350   30.0610   41.9900 C   0  0  0  0  0  0  0  0  0  0  0  0
   37.0730   30.9480   42.5070 H   0  0  0  0  0  0  0  0  0  0  0  0
   38.5220   30.2730   41.7690 H   0  0  0  0  0  0  0  0  0  0  0  0
   37.3530   28.8580   42.9080 C   0  0  0  0  0  0  0  0  0  0  0  0
   36.6890   28.0670   42.4480 H   0  0  0  0  0  0  0  0  0  0  0  0
   36.9450   29.0400   43.8880 H   0  0  0  0  0  0  0  0  0  0  0  0
   40.1460   26.4390   43.6790 C   0  0  0  0  0  0  0  0  0  0  0  0
   38.8400   26.9650   43.5330 C   0  0  0  0  0  0  0  0  0  0  0  0
   38.7050   28.2790   43.0790 C   0  0  0  0  0  0  0  0  0  0  0  0
   39.8480   28.9840   42.7990 N   0  0  0  0  0  0  0  0  0  0  0  0
   41.0650   28.4560   42.9470 C   0  0  0  0  0  0  0  0  0  0  0  0
   41.2190   27.1920   43.3840 N   0  0  0  0  0  0  0  0  0  0  0  0
   40.2130   25.4180   44.0330 H   0  0  0  0  0  0  0  0  0  0  0  0
   37.9760   26.3880   43.7600 H   0  0  0  0  0  0  0  0  0  0  0  0
   42.4800   29.4740   42.5510 S   0  0  0  0  0  0  0  0  0  0  0  0
   42.1920   30.2880   41.4230 H   0  0  0  0  0  0  0  0  0  0  0  0
  1 26  1  0  0  0  0
  2  1  1  0  0  0  0
  2  7  1  0  0  0  0
  3  2  2  0  0  0  0
  4  5  2  0  0  0  0
  4  3  1  0  0  0  0
  5  6  1  0  0  0  0
  6 11  1  0  0  0  0
  6  1  2  0  0  0  0
  8  3  1  0  0  0  0
  9  4  1  0  0  0  0
 10  5  1  0  0  0  0
 11 12  1  0  0  0  0
 12 13  1  0  0  0  0
 12 18  1  0  0  0  0
 13 19  1  0  0  0  0
 13 14  1  0  0  0  0
 14 21  1  0  0  0  0
 15 14  1  0  0  0  0
 15 22  1  0  0  0  0
 16 11  1  0  0  0  0
 16 15  1  0  0  0  0
 17 12  1  0  0  0  0
 20 13  1  0  0  0  0
 23 15  1  0  0  0  0
 24 16  1  0  0  0  0
 25 16  1  0  0  0  0
 26 27  1  0  0  0  0
 26 29  1  0  0  0  0
 28 26  1  0  0  0  0
 29 34  1  0  0  0  0
 29 31  1  0  0  0  0
 30 29  1  0  0  0  0
 32 38  1  0  0  0  0
 33 32  1  0  0  0  0
 33 39  1  0  0  0  0
 34 33  2  0  0  0  0
 35 36  2  0  0  0  0
 35 34  1  0  0  0  0
 36 37  1  0  0  0  0
 37 32  2  0  0  0  0
 40 36  1  0  0  0  0
 41 40  1  0  0  0  0
M  END
>  <minimizedAffinity>
-5.21916771

$$$$

 OpenBabel03252508243D

 41 43  0  0  0  0  0  0  0  0999 V2000
   36.9550   27.2510   41.8410 C   0  0  0  0  0  0  0  0  0  0  0  0
   37.2550   26.0600   42.4690 C   0  0  0  0  0  0  0  0  0  0  0  0
   37.2380   24.8330   41.8550 C   0  0  0  0  0  0  0  0  0  0  0  0
   36.8900   24.8360   40.4980 C   0  0  0  0  0  0  0  0  0  0  0  0
   36.5840   25.9870   39.8210 C   0  0  0  0  0  0  0  0  0  0  0  0
   36.6140   27.1820   40.4790 C   0  0  0  0  0  0  0  0  0  0  0  0
   37.5420   25.9740   43.5040 H   0  0  0  0  0  0  0  0  0  0  0  0
   37.4640   23.8920   42.3100 H   0  0  0  0  0  0  0  0  0  0  0  0
   36.8620   23.8830   39.9560 H   0  0  0  0  0  0  0  0  0  0  0  0
   36.3260   25.9000   38.7730 H   0  0  0  0  0  0  0  0  0  0  0  0
   36.2880   28.3140   39.6990 N   0  0  0  0  0  0  0  0  0  0  0  0
   37.1690   28.9280   38.7480 C   0  0  0  0  0  0  0  0  0  0  0  0
   36.4100   29.7810   37.7630 C   0  0  0  0  0  0  0  0  0  0  0  0
   35.1700   29.2290   37.3590 N   0  0  0  0  0  0  0  0  0  0  0  0
   34.2930   28.8910   38.4080 C   0  0  0  0  0  0  0  0  0  0  0  0
   35.0030   29.0270   39.7420 C   0  0  0  0  0  0  0  0  0  0  0  0
   37.7630   29.6730   39.3610 H   0  0  0  0  0  0  0  0  0  0  0  0
   37.9420   28.2930   38.3080 H   0  0  0  0  0  0  0  0  0  0  0  0
   37.0730   29.9320   36.8970 H   0  0  0  0  0  0  0  0  0  0  0  0
   36.2130   30.7950   38.1710 H   0  0  0  0  0  0  0  0  0  0  0  0
   34.8100   29.5120   36.4600 H   0  0  0  0  0  0  0  0  0  0  0  0
   33.8740   27.8740   38.3640 H   0  0  0  0  0  0  0  0  0  0  0  0
   33.4530   29.6380   38.4240 H   0  0  0  0  0  0  0  0  0  0  0  0
   34.3790   28.5640   40.5150 H   0  0  0  0  0  0  0  0  0  0  0  0
   35.2280   30.0950   39.9430 H   0  0  0  0  0  0  0  0  0  0  0  0
   36.9680   28.5560   42.5010 C   0  0  0  0  0  0  0  0  0  0  0  0
   36.2090   28.6970   43.2700 H   0  0  0  0  0  0  0  0  0  0  0  0
   36.7160   29.3110   41.6990 H   0  0  0  0  0  0  0  0  0  0  0  0
   38.3380   28.8830   43.0600 C   0  0  0  0  0  0  0  0  0  0  0  0
   39.0350   28.0060   42.9070 H   0  0  0  0  0  0  0  0  0  0  0  0
   38.3770   29.0980   44.1150 H   0  0  0  0  0  0  0  0  0  0  0  0
   40.7570   31.4760   41.7690 C   0  0  0  0  0  0  0  0  0  0  0  0
   40.2510   30.3620   42.4800 C   0  0  0  0  0  0  0  0  0  0  0  0
   38.8970   30.0470   42.3370 C   0  0  0  0  0  0  0  0  0  0  0  0
   38.1360   30.8380   41.5140 N   0  0  0  0  0  0  0  0  0  0  0  0
   38.6470   31.8820   40.8580 C   0  0  0  0  0  0  0  0  0  0  0  0
   39.9480   32.2040   40.9800 N   0  0  0  0  0  0  0  0  0  0  0  0
   41.8100   31.6910   41.9030 H   0  0  0  0  0  0  0  0  0  0  0  0
   40.8720   29.7710   43.1100 H   0  0  0  0  0  0  0  0  0  0  0  0
   37.5540   32.8370   39.8150 S   0  0  0  0  0  0  0  0  0  0  0  0
   36.6240   31.9790   39.1690 H   0  0  0  0  0  0  0  0  0  0  0  0
  1  2  1  0  0  0  0
  1 26  1  0  0  0  0
  2  7  1  0  0  0  0
  3  8  1  0  0  0  0
  3  2  2  0  0  0  0
  4  3  1  0  0  0  0
  5  6  1  0  0  0  0
  5  4  2  0  0  0  0
  6  1  2  0  0  0  0
  9  4  1  0  0  0  0
 10  5  1  0  0  0  0
 11 16  1  0  0  0  0
 11  6  1  0  0  0  0
 12 17  1  0  0  0  0
 12 11  1  0  0  0  0
 13 20  1  0  0  0  0
 13 12  1  0  0  0  0
 14 13  1  0  0  0  0
 14 15  1  0  0  0  0
 15 23  1  0  0  0  0
 15 16  1  0  0  0  0
 16 25  1  0  0  0  0
 16 24  1  0  0  0  0
 18 12  1  0  0  0  0
 19 13  1  0  0  0  0
 21 14  1  0  0  0  0
 22 15  1  0  0  0  0
 26 29  1  0  0  0  0
 26 27  1  0  0  0  0
 28 26  1  0  0  0  0
 29 31  1  0  0  0  0
 30 29  1  0  0  0  0
 32 38  1  0  0  0  0
 32 33  1  0  0  0  0
 33 39  1  0  0  0  0
 34 33  2  0  0  0  0
 34 29  1  0  0  0  0
 35 34  1  0  0  0  0
 36 37  1  0  0  0  0
 36 35  2  0  0  0  0
 37 32  2  0  0  0  0
 40 36  1  0  0  0  0
 41 40  1  0  0  0  0
M  END
>  <minimizedAffinity>
-5.19743156

$$$$

 OpenBabel03252508243D

 41 43  0  0  0  0  0  0  0  0999 V2000
   36.4380   28.7750   41.3650 C   0  0  0  0  0  0  0  0  0  0  0  0
   36.4190   27.8590   42.3960 C   0  0  0  0  0  0  0  0  0  0  0  0
   37.3430   27.8120   43.4100 C   0  0  0  0  0  0  0  0  0  0  0  0
   38.3550   28.7790   43.3570 C   0  0  0  0  0  0  0  0  0  0  0  0
   38.4240   29.7150   42.3580 C   0  0  0  0  0  0  0  0  0  0  0  0
   37.4810   29.7170   41.3720 C   0  0  0  0  0  0  0  0  0  0  0  0
   35.6700   27.0930   42.5160 H   0  0  0  0  0  0  0  0  0  0  0  0
   37.3590   27.1170   44.2230 H   0  0  0  0  0  0  0  0  0  0  0  0
   39.1210   28.7900   44.1420 H   0  0  0  0  0  0  0  0  0  0  0  0
   39.2400   30.4270   42.3930 H   0  0  0  0  0  0  0  0  0  0  0  0
   37.6320   30.7200   40.3890 N   0  0  0  0  0  0  0  0  0  0  0  0
   37.0090   32.0110   40.4400 C   0  0  0  0  0  0  0  0  0  0  0  0
   37.7070   32.9990   39.5400 C   0  0  0  0  0  0  0  0  0  0  0  0
   39.1170   32.8680   39.5270 N   0  0  0  0  0  0  0  0  0  0  0  0
   39.6000   31.5810   39.2190 C   0  0  0  0  0  0  0  0  0  0  0  0
   38.4480   30.5940   39.1720 C   0  0  0  0  0  0  0  0  0  0  0  0
   36.0000   31.8520   39.9490 H   0  0  0  0  0  0  0  0  0  0  0  0
   36.7480   32.3950   41.4300 H   0  0  0  0  0  0  0  0  0  0  0  0
   37.4090   34.0030   39.8770 H   0  0  0  0  0  0  0  0  0  0  0  0
   37.3500   32.9150   38.4910 H   0  0  0  0  0  0  0  0  0  0  0  0
   39.6540   33.6880   39.2880 H   0  0  0  0  0  0  0  0  0  0  0  0
   40.3480   31.1770   39.9190 H   0  0  0  0  0  0  0  0  0  0  0  0
   40.0340   31.6030   38.1820 H   0  0  0  0  0  0  0  0  0  0  0  0
   38.8630   29.5800   39.1410 H   0  0  0  0  0  0  0  0  0  0  0  0
   37.7890   30.8230   38.3100 H   0  0  0  0  0  0  0  0  0  0  0  0
   35.4550   28.8170   40.2830 C   0  0  0  0  0  0  0  0  0  0  0  0
   35.2270   29.8100   39.8980 H   0  0  0  0  0  0  0  0  0  0  0  0
   34.4860   28.4470   40.7310 H   0  0  0  0  0  0  0  0  0  0  0  0
   35.8430   27.8980   39.1430 C   0  0  0  0  0  0  0  0  0  0  0  0
   35.4870   26.8460   39.3580 H   0  0  0  0  0  0  0  0  0  0  0  0
   36.8990   27.8070   38.9490 H   0  0  0  0  0  0  0  0  0  0  0  0
   33.2200   29.0400   36.6820 C   0  0  0  0  0  0  0  0  0  0  0  0
   33.8130   28.5920   37.8870 C   0  0  0  0  0  0  0  0  0  0  0  0
   35.1900   28.3580   37.8970 C   0  0  0  0  0  0  0  0  0  0  0  0
   35.8890   28.5770   36.7370 N   0  0  0  0  0  0  0  0  0  0  0  0
   35.2970   29.0000   35.6180 C   0  0  0  0  0  0  0  0  0  0  0  0
   33.9710   29.2320   35.5850 N   0  0  0  0  0  0  0  0  0  0  0  0
   32.1510   29.2110   36.7090 H   0  0  0  0  0  0  0  0  0  0  0  0
   33.2380   28.4340   38.7680 H   0  0  0  0  0  0  0  0  0  0  0  0
   36.3140   29.2490   34.1690 S   0  0  0  0  0  0  0  0  0  0  0  0
   37.5780   29.7770   34.5470 H   0  0  0  0  0  0  0  0  0  0  0  0
  1  6  2  0  0  0  0
  1  2  1  0  0  0  0
  2  7  1  0  0  0  0
  2  3  2  0  0  0  0
  3  8  1  0  0  0  0
  4  3  1  0  0  0  0
  4  9  1  0  0  0  0
  5 10  1  0  0  0  0
  5  4  2  0  0  0  0
  6  5  1  0  0  0  0
 11 12  1  0  0  0  0
 11  6  1  0  0  0  0
 12 18  1  0  0  0  0
 13 19  1  0  0  0  0
 13 12  1  0  0  0  0
 14 13  1  0  0  0  0
 15 14  1  0  0  0  0
 15 22  1  0  0  0  0
 16 15  1  0  0  0  0
 16 11  1  0  0  0  0
 17 12  1  0  0  0  0
 20 13  1  0  0  0  0
 21 14  1  0  0  0  0
 23 15  1  0  0  0  0
 24 16  1  0  0  0  0
 25 16  1  0  0  0  0
 26 28  1  0  0  0  0
 26  1  1  0  0  0  0
 27 26  1  0  0  0  0
 29 30  1  0  0  0  0
 29 26  1  0  0  0  0
 31 29  1  0  0  0  0
 32 38  1  0  0  0  0
 32 33  1  0  0  0  0
 33 34  2  0  0  0  0
 33 39  1  0  0  0  0
 34 29  1  0  0  0  0
 35 34  1  0  0  0  0
 36 35  2  0  0  0  0
 37 36  1  0  0  0  0
 37 32  2  0  0  0  0
 40 41  1  0  0  0  0
 40 36  1  0  0  0  0
M  END
>  <minimizedAffinity>
-5.14047718

$$$$

 OpenBabel03252508243D

 41 43  0  0  0  0  0  0  0  0999 V2000
   36.9490   28.7850   40.8990 C   0  0  0  0  0  0  0  0  0  0  0  0
   36.5790   27.7970   41.7870 C   0  0  0  0  0  0  0  0  0  0  0  0
   37.0140   27.7190   43.0860 C   0  0  0  0  0  0  0  0  0  0  0  0
   37.8890   28.7320   43.4980 C   0  0  0  0  0  0  0  0  0  0  0  0
   38.2910   29.7390   42.6600 C   0  0  0  0  0  0  0  0  0  0  0  0
   37.8290   29.7710   41.3770 C   0  0  0  0  0  0  0  0  0  0  0  0
   35.9030   26.9910   41.5530 H   0  0  0  0  0  0  0  0  0  0  0  0
   36.7490   26.9680   43.8000 H   0  0  0  0  0  0  0  0  0  0  0  0
   38.2680   28.7200   44.5270 H   0  0  0  0  0  0  0  0  0  0  0  0
   38.9700   30.4840   43.0600 H   0  0  0  0  0  0  0  0  0  0  0  0
   38.2950   30.8490   40.5900 N   0  0  0  0  0  0  0  0  0  0  0  0
   39.4460   30.7950   39.7350 C   0  0  0  0  0  0  0  0  0  0  0  0
   39.4170   31.8910   38.7000 C   0  0  0  0  0  0  0  0  0  0  0  0
   38.1280   32.1520   38.1750 N   0  0  0  0  0  0  0  0  0  0  0  0
   37.1330   32.4320   39.1320 C   0  0  0  0  0  0  0  0  0  0  0  0
   37.6720   32.1790   40.5280 C   0  0  0  0  0  0  0  0  0  0  0  0
   40.3080   31.0760   40.4140 H   0  0  0  0  0  0  0  0  0  0  0  0
   39.7350   29.8110   39.3570 H   0  0  0  0  0  0  0  0  0  0  0  0
   40.1130   31.5930   37.9020 H   0  0  0  0  0  0  0  0  0  0  0  0
   39.8160   32.8450   39.1080 H   0  0  0  0  0  0  0  0  0  0  0  0
   38.0800   32.5570   37.2520 H   0  0  0  0  0  0  0  0  0  0  0  0
   36.2040   31.8500   39.0320 H   0  0  0  0  0  0  0  0  0  0  0  0
   36.8920   33.5290   39.0850 H   0  0  0  0  0  0  0  0  0  0  0  0
   36.8330   32.1980   41.2320 H   0  0  0  0  0  0  0  0  0  0  0  0
   38.4610   32.9220   40.7680 H   0  0  0  0  0  0  0  0  0  0  0  0
   36.4880   28.8610   39.5130 C   0  0  0  0  0  0  0  0  0  0  0  0
   36.7460   28.0080   38.8880 H   0  0  0  0  0  0  0  0  0  0  0  0
   37.0350   29.7370   39.0530 H   0  0  0  0  0  0  0  0  0  0  0  0
   34.9980   29.1270   39.4360 C   0  0  0  0  0  0  0  0  0  0  0  0
   34.7690   30.1580   39.8390 H   0  0  0  0  0  0  0  0  0  0  0  0
   34.3700   28.4550   39.9980 H   0  0  0  0  0  0  0  0  0  0  0  0
   35.0710   29.0990   35.6620 C   0  0  0  0  0  0  0  0  0  0  0  0
   35.5180   29.1570   37.0050 C   0  0  0  0  0  0  0  0  0  0  0  0
   34.5630   29.0790   38.0220 C   0  0  0  0  0  0  0  0  0  0  0  0
   33.2470   28.9510   37.6600 N   0  0  0  0  0  0  0  0  0  0  0  0
   32.8600   28.9000   36.3840 C   0  0  0  0  0  0  0  0  0  0  0  0
   33.7620   28.9730   35.3870 N   0  0  0  0  0  0  0  0  0  0  0  0
   35.8370   29.1630   34.9000 H   0  0  0  0  0  0  0  0  0  0  0  0
   36.5490   29.2560   37.2470 H   0  0  0  0  0  0  0  0  0  0  0  0
   31.1140   28.7330   36.0380 S   0  0  0  0  0  0  0  0  0  0  0  0
   30.5080   27.8790   36.9970 H   0  0  0  0  0  0  0  0  0  0  0  0
  1  6  2  0  0  0  0
  1  2  1  0  0  0  0
  2  3  2  0  0  0  0
  3  4  1  0  0  0  0
  3  8  1  0  0  0  0
  4  9  1  0  0  0  0
  5 10  1  0  0  0  0
  5  4  2  0  0  0  0
  6  5  1  0  0  0  0
  7  2  1  0  0  0  0
 11  6  1  0  0  0  0
 12 17  1  0  0  0  0
 12 11  1  0  0  0  0
 13 20  1  0  0  0  0
 13 12  1  0  0  0  0
 14 13  1  0  0  0  0
 14 15  1  0  0  0  0
 15 16  1  0  0  0  0
 16 11  1  0  0  0  0
 16 25  1  0  0  0  0
 16 24  1  0  0  0  0
 18 12  1  0  0  0  0
 19 13  1  0  0  0  0
 21 14  1  0  0  0  0
 22 15  1  0  0  0  0
 23 15  1  0  0  0  0
 26  1  1  0  0  0  0
 27 26  1  0  0  0  0
 28 26  1  0  0  0  0
 29 26  1  0  0  0  0
 29 30  1  0  0  0  0
 29 31  1  0  0  0  0
 32 33  1  0  0  0  0
 33 39  1  0  0  0  0
 33 34  2  0  0  0  0
 34 29  1  0  0  0  0
 35 34  1  0  0  0  0
 36 35  2  0  0  0  0
 37 32  2  0  0  0  0
 37 36  1  0  0  0  0
 38 32  1  0  0  0  0
 40 36  1  0  0  0  0
 40 41  1  0  0  0  0
M  END
>  <minimizedAffinity>
-5.09240866

$$$$

 OpenBabel03252508243D

 41 43  0  0  0  0  0  0  0  0999 V2000
   35.2460   29.3880   38.4440 C   0  0  0  0  0  0  0  0  0  0  0  0
   33.9790   28.8700   38.2830 C   0  0  0  0  0  0  0  0  0  0  0  0
   33.4520   28.4660   37.0810 C   0  0  0  0  0  0  0  0  0  0  0  0
   34.2940   28.6070   35.9700 C   0  0  0  0  0  0  0  0  0  0  0  0
   35.5620   29.1150   36.0700 C   0  0  0  0  0  0  0  0  0  0  0  0
   36.0380   29.5020   37.2890 C   0  0  0  0  0  0  0  0  0  0  0  0
   33.2760   28.7190   39.0860 H   0  0  0  0  0  0  0  0  0  0  0  0
   32.4750   28.0620   36.9200 H   0  0  0  0  0  0  0  0  0  0  0  0
   33.9250   28.3000   34.9830 H   0  0  0  0  0  0  0  0  0  0  0  0
   36.1470   29.1880   35.1600 H   0  0  0  0  0  0  0  0  0  0  0  0
   37.3570   30.0080   37.2930 N   0  0  0  0  0  0  0  0  0  0  0  0
   37.6940   31.4020   37.2390 C   0  0  0  0  0  0  0  0  0  0  0  0
   39.0990   31.6510   37.7250 C   0  0  0  0  0  0  0  0  0  0  0  0
   39.4740   30.8510   38.8310 N   0  0  0  0  0  0  0  0  0  0  0  0
   39.3150   29.4630   38.6530 C   0  0  0  0  0  0  0  0  0  0  0  0
   38.5760   29.1900   37.3560 C   0  0  0  0  0  0  0  0  0  0  0  0
   37.7370   31.6340   36.1310 H   0  0  0  0  0  0  0  0  0  0  0  0
   36.9450   32.1060   37.6130 H   0  0  0  0  0  0  0  0  0  0  0  0
   39.1650   32.7210   37.9740 H   0  0  0  0  0  0  0  0  0  0  0  0
   39.8430   31.4820   36.9180 H   0  0  0  0  0  0  0  0  0  0  0  0
   40.1980   31.2110   39.4360 H   0  0  0  0  0  0  0  0  0  0  0  0
   38.7690   28.9430   39.4550 H   0  0  0  0  0  0  0  0  0  0  0  0
   40.3330   29.0010   38.5350 H   0  0  0  0  0  0  0  0  0  0  0  0
   38.2820   28.1340   37.3420 H   0  0  0  0  0  0  0  0  0  0  0  0
   39.2100   29.4790   36.4920 H   0  0  0  0  0  0  0  0  0  0  0  0
   35.8010   29.8220   39.7270 C   0  0  0  0  0  0  0  0  0  0  0  0
   35.5180   30.8260   40.0410 H   0  0  0  0  0  0  0  0  0  0  0  0
   36.9210   29.8660   39.5800 H   0  0  0  0  0  0  0  0  0  0  0  0
   35.4960   28.8290   40.8290 C   0  0  0  0  0  0  0  0  0  0  0  0
   35.2620   27.8170   40.3820 H   0  0  0  0  0  0  0  0  0  0  0  0
   34.6530   29.0660   41.4570 H   0  0  0  0  0  0  0  0  0  0  0  0
   37.9910   27.4120   43.2820 C   0  0  0  0  0  0  0  0  0  0  0  0
   36.8390   27.5240   42.4660 C   0  0  0  0  0  0  0  0  0  0  0  0
   36.6840   28.6830   41.7000 C   0  0  0  0  0  0  0  0  0  0  0  0
   37.6580   29.6450   41.7840 N   0  0  0  0  0  0  0  0  0  0  0  0
   38.7320   29.5050   42.5640 C   0  0  0  0  0  0  0  0  0  0  0  0
   38.9020   28.3980   43.3110 N   0  0  0  0  0  0  0  0  0  0  0  0
   38.0780   26.5020   43.8610 H   0  0  0  0  0  0  0  0  0  0  0  0
   36.1040   26.7560   42.4260 H   0  0  0  0  0  0  0  0  0  0  0  0
   39.9330   30.8290   42.5890 S   0  0  0  0  0  0  0  0  0  0  0  0
   40.0680   31.3880   41.2900 H   0  0  0  0  0  0  0  0  0  0  0  0
  1 26  1  0  0  0  0
  2  1  1  0  0  0  0
  2  7  1  0  0  0  0
  3  2  2  0  0  0  0
  4  5  2  0  0  0  0
  4  3  1  0  0  0  0
  5  6  1  0  0  0  0
  6 11  1  0  0  0  0
  6  1  2  0  0  0  0
  8  3  1  0  0  0  0
  9  4  1  0  0  0  0
 10  5  1  0  0  0  0
 11 16  1  0  0  0  0
 12 11  1  0  0  0  0
 12 18  1  0  0  0  0
 12 13  1  0  0  0  0
 13 19  1  0  0  0  0
 13 14  1  0  0  0  0
 14 21  1  0  0  0  0
 15 14  1  0  0  0  0
 15 22  1  0  0  0  0
 16 15  1  0  0  0  0
 17 12  1  0  0  0  0
 20 13  1  0  0  0  0
 23 15  1  0  0  0  0
 24 16  1  0  0  0  0
 25 16  1  0  0  0  0
 26 27  1  0  0  0  0
 26 29  1  0  0  0  0
 28 26  1  0  0  0  0
 29 31  1  0  0  0  0
 29 34  1  0  0  0  0
 30 29  1  0  0  0  0
 32 37  1  0  0  0  0
 32 38  1  0  0  0  0
 33 32  2  0  0  0  0
 34 35  2  0  0  0  0
 34 33  1  0  0  0  0
 35 36  1  0  0  0  0
 36 40  1  0  0  0  0
 36 37  2  0  0  0  0
 39 33  1  0  0  0  0
 41 40  1  0  0  0  0
M  END
>  <minimizedAffinity>
-5.0496912

$$$$
