REMARK  Name = 
REMARK  4 active torsions:
REMARK  status: ('A' for Active; 'I' for Inactive)
REMARK    1  A    between atoms: C_1  and  C_10
REMARK    2  A    between atoms: C_8  and  C_21
REMARK    3  A    between atoms: C_11  and  C_15
REMARK    4  A    between atoms: C_21  and  S_39
REMARK                            x       y       z     vdW  Elec       q    Type
REMARK                         _______ _______ _______ _____ _____    ______ ____
ROOT
ATOM      1  C   UNL     1      47.323  33.630  42.840  0.00  0.00    +0.000 C 
ATOM      2  O   UNL     1      48.420  33.409  43.437  0.00  0.00    +0.000 OA
ATOM      3  N   UNL     1      47.031  33.124  41.546  0.00  0.00    +0.000 N 
ATOM      4  C   UNL     1      45.806  32.499  41.025  0.00  0.00    +0.000 C 
ATOM      5  C   UNL     1      45.375  33.182  39.748  0.00  0.00    +0.000 C 
ATOM      6  C   UNL     1      46.430  33.017  38.684  0.00  0.00    +0.000 C 
ATOM      7  C   UNL     1      47.698  32.462  39.307  0.00  0.00    +0.000 C 
ATOM      8  C   UNL     1      48.057  33.204  40.543  0.00  0.00    +0.000 C 
ATOM      9  H   UNL     1      45.906  31.422  40.899  0.00  0.00    +0.000 HD
ATOM     10  H   UNL     1      45.014  32.745  41.774  0.00  0.00    +0.000 HD
ATOM     11  H   UNL     1      44.481  32.630  39.387  0.00  0.00    +0.000 HD
ATOM     12  H   UNL     1      45.068  34.215  39.938  0.00  0.00    +0.000 HD
ATOM     13  H   UNL     1      46.711  34.043  38.310  0.00  0.00    +0.000 HD
ATOM     14  H   UNL     1      46.119  32.422  37.824  0.00  0.00    +0.000 HD
ATOM     15  H   UNL     1      48.504  32.610  38.548  0.00  0.00    +0.000 HD
ATOM     16  H   UNL     1      47.549  31.382  39.496  0.00  0.00    +0.000 HD
ATOM     17  H   UNL     1      48.127  34.286  40.263  0.00  0.00    +0.000 HD
ENDROOT
BRANCH   1  19
ATOM     18  C   UNL     1      45.967  35.661  42.918  0.00  0.00    +0.000 A 
ATOM     19  C   UNL     1      46.334  34.432  43.511  0.00  0.00    +0.000 A 
ATOM     20  C   UNL     1      45.745  34.036  44.702  0.00  0.00    +0.000 A 
ATOM     21  N   UNL     1      44.828  34.849  45.261  0.00  0.00    +0.000 NA
ATOM     22  C   UNL     1      44.462  36.041  44.700  0.00  0.00    +0.000 A 
ATOM     23  N   UNL     1      45.042  36.420  43.538  0.00  0.00    +0.000 NA
ATOM     24  H   UNL     1      46.437  35.948  41.994  0.00  0.00    +0.000 HD
ATOM     25  H   UNL     1      43.718  36.620  45.227  0.00  0.00    +0.000 HD
BRANCH  20  26
ATOM     26  C   UNL     1      46.147  32.766  45.283  0.00  0.00    +0.000 A 
ATOM     27  C   UNL     1      45.769  31.596  44.710  0.00  0.00    +0.000 A 
ATOM     28  C   UNL     1      46.173  30.410  45.294  0.00  0.00    +0.000 A 
ATOM     29  C   UNL     1      46.949  30.360  46.444  0.00  0.00    +0.000 A 
ATOM     30  C   UNL     1      47.307  31.590  46.989  0.00  0.00    +0.000 A 
ATOM     31  N   UNL     1      46.899  32.714  46.398  0.00  0.00    +0.000 NA
ATOM     32  H   UNL     1      45.175  31.514  43.829  0.00  0.00    +0.000 HD
ATOM     33  H   UNL     1      45.877  29.449  44.844  0.00  0.00    +0.000 HD
ATOM     34  H   UNL     1      47.241  29.421  46.865  0.00  0.00    +0.000 HD
ATOM     35  H   UNL     1      47.908  31.591  47.880  0.00  0.00    +0.000 HD
ENDBRANCH  20  26
ENDBRANCH   1  19
BRANCH   8  36
ATOM     36  C   UNL     1      49.420  32.796  41.028  0.00  0.00    +0.000 C 
ATOM     37  H   UNL     1      50.070  32.798  40.098  0.00  0.00    +0.000 HD
ATOM     38  H   UNL     1      49.904  33.532  41.686  0.00  0.00    +0.000 HD
BRANCH  36  39
ATOM     39  S   UNL     1      49.470  31.100  41.632  0.00  0.00    +0.000 S 
ATOM     40  H   UNL     1      50.390  30.297  40.935  0.00  0.00    +0.000 HD
ENDBRANCH  36  39
ENDBRANCH   8  36
TORSDOF 4
