
 OpenBabel03242522173D

 34 36  0  0  0  0  0  0  0  0999 V2000
   38.1380   31.2680   40.1670 C   0  0  0  0  0  0  0  0  0  0  0  0
   36.9260   31.0930   39.6010 C   0  0  0  0  0  0  0  0  0  0  0  0
   36.1310   29.8900   40.7680 S   0  0  0  0  0  0  0  0  0  0  0  0
   37.6520   29.8540   41.8410 C   0  0  0  0  0  0  0  0  0  0  0  0
   38.2990   30.5810   41.2470 N   0  0  0  0  0  0  0  0  0  0  0  0
   36.5160   31.5330   38.7030 H   0  0  0  0  0  0  0  0  0  0  0  0
   40.5030   34.1540   39.6030 C   0  0  0  0  0  0  0  0  0  0  0  0
   39.4880   33.3610   40.2000 C   0  0  0  0  0  0  0  0  0  0  0  0
   39.1850   32.1590   39.6090 C   0  0  0  0  0  0  0  0  0  0  0  0
   39.8880   31.8080   38.4780 N   0  0  0  0  0  0  0  0  0  0  0  0
   40.8400   32.5950   37.9520 C   0  0  0  0  0  0  0  0  0  0  0  0
   41.1470   33.7600   38.5070 N   0  0  0  0  0  0  0  0  0  0  0  0
   40.7450   35.1030   40.0650 H   0  0  0  0  0  0  0  0  0  0  0  0
   41.3850   32.3050   37.0610 H   0  0  0  0  0  0  0  0  0  0  0  0
   38.8700   33.8760   41.3580 N   0  0  0  0  0  0  0  0  0  0  0  0
   38.6900   33.2220   42.1510 H   0  0  0  0  0  0  0  0  0  0  0  0
   38.6150   34.9060   41.3730 H   0  0  0  0  0  0  0  0  0  0  0  0
   37.7650   29.0260   43.0870 C   0  0  0  0  0  0  0  0  0  0  0  0
   38.8420   28.7250   43.1770 H   0  0  0  0  0  0  0  0  0  0  0  0
   37.5790   29.6810   43.9650 H   0  0  0  0  0  0  0  0  0  0  0  0
   36.8550   27.8470   43.0240 C   0  0  0  0  0  0  0  0  0  0  0  0
   36.0200   28.0790   42.3260 H   0  0  0  0  0  0  0  0  0  0  0  0
   36.4050   27.7480   44.0550 H   0  0  0  0  0  0  0  0  0  0  0  0
   37.4460   26.5750   42.6800 C   0  0  0  0  0  0  0  0  0  0  0  0
   36.8830   25.4340   42.1770 C   0  0  0  0  0  0  0  0  0  0  0  0
   37.5270   24.2510   41.8750 C   0  0  0  0  0  0  0  0  0  0  0  0
   38.8850   24.2520   42.1200 C   0  0  0  0  0  0  0  0  0  0  0  0
   39.4540   25.3990   42.6270 C   0  0  0  0  0  0  0  0  0  0  0  0
   38.7900   26.5220   42.9050 N   0  0  0  0  0  0  0  0  0  0  0  0
   35.7980   25.5230   42.0140 H   0  0  0  0  0  0  0  0  0  0  0  0
   36.9800   23.4130   41.4810 H   0  0  0  0  0  0  0  0  0  0  0  0
   39.4320   23.3420   41.8960 H   0  0  0  0  0  0  0  0  0  0  0  0
   41.2340   25.2630   42.8990 S   0  0  0  0  0  0  0  0  0  0  0  0
   41.7680   24.5940   41.7580 H   0  0  0  0  0  0  0  0  0  0  0  0
  1  5  1  0  0  0  0
  2  1  2  0  0  0  0
  2  3  1  0  0  0  0
  3  4  1  0  0  0  0
  4 18  1  0  0  0  0
  5  4  2  0  0  0  0
  6  2  1  0  0  0  0
  7 13  1  0  0  0  0
  7  8  1  0  0  0  0
  8 15  1  0  0  0  0
  9  1  1  0  0  0  0
  9  8  2  0  0  0  0
 10  9  1  0  0  0  0
 11 10  2  0  0  0  0
 11 12  1  0  0  0  0
 12  7  2  0  0  0  0
 14 11  1  0  0  0  0
 15 17  1  0  0  0  0
 15 16  1  0  0  0  0
 18 19  1  0  0  0  0
 18 20  1  0  0  0  0
 21 18  1  0  0  0  0
 21 23  1  0  0  0  0
 22 21  1  0  0  0  0
 24 29  1  0  0  0  0
 24 21  1  0  0  0  0
 25 24  2  0  0  0  0
 26 27  2  0  0  0  0
 26 25  1  0  0  0  0
 27 28  1  0  0  0  0
 28 33  1  0  0  0  0
 28 29  2  0  0  0  0
 30 25  1  0  0  0  0
 31 26  1  0  0  0  0
 32 27  1  0  0  0  0
 34 33  1  0  0  0  0
M  END
>  <minimizedAffinity>
-5.82567596

$$$$

 OpenBabel03242522173D

 34 36  0  0  0  0  0  0  0  0999 V2000
   37.8250   31.2150   38.2070 C   0  0  0  0  0  0  0  0  0  0  0  0
   37.6100   31.0860   36.8810 C   0  0  0  0  0  0  0  0  0  0  0  0
   36.4520   29.6380   36.8230 S   0  0  0  0  0  0  0  0  0  0  0  0
   36.4830   29.4790   38.6780 C   0  0  0  0  0  0  0  0  0  0  0  0
   37.1900   30.3420   38.9120 N   0  0  0  0  0  0  0  0  0  0  0  0
   38.0030   31.6690   36.0600 H   0  0  0  0  0  0  0  0  0  0  0  0
   39.1400   34.0920   40.2640 C   0  0  0  0  0  0  0  0  0  0  0  0
   38.2340   33.1280   39.7480 C   0  0  0  0  0  0  0  0  0  0  0  0
   38.7030   32.2540   38.7990 C   0  0  0  0  0  0  0  0  0  0  0  0
   40.0210   32.3730   38.4150 N   0  0  0  0  0  0  0  0  0  0  0  0
   40.8380   33.3040   38.9350 C   0  0  0  0  0  0  0  0  0  0  0  0
   40.4040   34.1580   39.8520 N   0  0  0  0  0  0  0  0  0  0  0  0
   38.7740   34.7840   41.0120 H   0  0  0  0  0  0  0  0  0  0  0  0
   41.8720   33.3860   38.6240 H   0  0  0  0  0  0  0  0  0  0  0  0
   36.9180   33.1490   40.2540 N   0  0  0  0  0  0  0  0  0  0  0  0
   36.4650   32.2370   40.4780 H   0  0  0  0  0  0  0  0  0  0  0  0
   36.4480   34.0910   40.3860 H   0  0  0  0  0  0  0  0  0  0  0  0
   35.7140   28.4340   39.4300 C   0  0  0  0  0  0  0  0  0  0  0  0
   34.7050   28.3650   38.9460 H   0  0  0  0  0  0  0  0  0  0  0  0
   36.1860   27.4450   39.2450 H   0  0  0  0  0  0  0  0  0  0  0  0
   35.6220   28.7840   40.8770 C   0  0  0  0  0  0  0  0  0  0  0  0
   34.6190   28.4800   41.2530 H   0  0  0  0  0  0  0  0  0  0  0  0
   35.6650   29.9110   40.9270 H   0  0  0  0  0  0  0  0  0  0  0  0
   36.6520   28.2670   41.7480 C   0  0  0  0  0  0  0  0  0  0  0  0
   37.4080   28.8870   42.7050 C   0  0  0  0  0  0  0  0  0  0  0  0
   38.3800   28.3130   43.4980 C   0  0  0  0  0  0  0  0  0  0  0  0
   38.5890   26.9680   43.2780 C   0  0  0  0  0  0  0  0  0  0  0  0
   37.8300   26.3410   42.3140 C   0  0  0  0  0  0  0  0  0  0  0  0
   36.8980   26.9380   41.5690 N   0  0  0  0  0  0  0  0  0  0  0  0
   37.1760   29.9570   42.8120 H   0  0  0  0  0  0  0  0  0  0  0  0
   38.9150   28.9020   44.2230 H   0  0  0  0  0  0  0  0  0  0  0  0
   39.3450   26.4750   43.8800 H   0  0  0  0  0  0  0  0  0  0  0  0
   38.2040   24.5840   42.1290 S   0  0  0  0  0  0  0  0  0  0  0  0
   38.3380   24.0580   43.4480 H   0  0  0  0  0  0  0  0  0  0  0  0
  1  9  1  0  0  0  0
  1  5  1  0  0  0  0
  2  1  2  0  0  0  0
  3  2  1  0  0  0  0
  3  4  1  0  0  0  0
  4  5  2  0  0  0  0
  4 18  1  0  0  0  0
  6  2  1  0  0  0  0
  7 13  1  0  0  0  0
  8 15  1  0  0  0  0
  8  7  2  0  0  0  0
  9  8  1  0  0  0  0
 10  9  2  0  0  0  0
 10 11  1  0  0  0  0
 11 12  2  0  0  0  0
 12  7  1  0  0  0  0
 14 11  1  0  0  0  0
 15 17  1  0  0  0  0
 15 16  1  0  0  0  0
 18 21  1  0  0  0  0
 19 18  1  0  0  0  0
 20 18  1  0  0  0  0
 21 23  1  0  0  0  0
 21 22  1  0  0  0  0
 21 24  1  0  0  0  0
 24 25  1  0  0  0  0
 25 30  1  0  0  0  0
 25 26  2  0  0  0  0
 26 31  1  0  0  0  0
 27 26  1  0  0  0  0
 27 32  1  0  0  0  0
 28 27  2  0  0  0  0
 29 24  2  0  0  0  0
 29 28  1  0  0  0  0
 33 28  1  0  0  0  0
 33 34  1  0  0  0  0
M  END
>  <minimizedAffinity>
-5.59584093

$$$$

 OpenBabel03242522173D

 34 36  0  0  0  0  0  0  0  0999 V2000
   37.5020   31.1200   39.5000 C   0  0  0  0  0  0  0  0  0  0  0  0
   37.8030   32.3880   39.1510 C   0  0  0  0  0  0  0  0  0  0  0  0
   39.0040   32.8720   40.4790 S   0  0  0  0  0  0  0  0  0  0  0  0
   38.8610   31.2000   41.2840 C   0  0  0  0  0  0  0  0  0  0  0  0
   38.1160   30.7260   40.5630 N   0  0  0  0  0  0  0  0  0  0  0  0
   37.4460   32.9760   38.3180 H   0  0  0  0  0  0  0  0  0  0  0  0
   34.6430   28.8420   38.5640 C   0  0  0  0  0  0  0  0  0  0  0  0
   35.4990   29.6460   39.3610 C   0  0  0  0  0  0  0  0  0  0  0  0
   36.5580   30.2620   38.7420 C   0  0  0  0  0  0  0  0  0  0  0  0
   36.7160   30.0550   37.3890 N   0  0  0  0  0  0  0  0  0  0  0  0
   35.8770   29.2830   36.6790 C   0  0  0  0  0  0  0  0  0  0  0  0
   34.8480   28.6800   37.2590 N   0  0  0  0  0  0  0  0  0  0  0  0
   33.8060   28.3540   39.0480 H   0  0  0  0  0  0  0  0  0  0  0  0
   36.0140   29.1300   35.6150 H   0  0  0  0  0  0  0  0  0  0  0  0
   35.1890   29.7480   40.7330 N   0  0  0  0  0  0  0  0  0  0  0  0
   35.2590   30.6860   41.1840 H   0  0  0  0  0  0  0  0  0  0  0  0
   34.8970   28.8660   41.2460 H   0  0  0  0  0  0  0  0  0  0  0  0
   39.6110   30.8120   42.5240 C   0  0  0  0  0  0  0  0  0  0  0  0
   40.5370   31.4430   42.5510 H   0  0  0  0  0  0  0  0  0  0  0  0
   39.0220   31.1360   43.4100 H   0  0  0  0  0  0  0  0  0  0  0  0
   39.9220   29.3540   42.5210 C   0  0  0  0  0  0  0  0  0  0  0  0
   40.7250   29.1610   43.2680 H   0  0  0  0  0  0  0  0  0  0  0  0
   40.3580   29.1330   41.5030 H   0  0  0  0  0  0  0  0  0  0  0  0
   38.8210   28.4440   42.7340 C   0  0  0  0  0  0  0  0  0  0  0  0
   37.7160   28.5480   43.5340 C   0  0  0  0  0  0  0  0  0  0  0  0
   36.7040   27.6210   43.6800 C   0  0  0  0  0  0  0  0  0  0  0  0
   36.8520   26.4770   42.9240 C   0  0  0  0  0  0  0  0  0  0  0  0
   37.9640   26.3700   42.1180 C   0  0  0  0  0  0  0  0  0  0  0  0
   38.9200   27.2930   42.0090 N   0  0  0  0  0  0  0  0  0  0  0  0
   37.6800   29.4910   44.1010 H   0  0  0  0  0  0  0  0  0  0  0  0
   35.8780   27.8110   44.3420 H   0  0  0  0  0  0  0  0  0  0  0  0
   36.0790   25.7210   43.0070 H   0  0  0  0  0  0  0  0  0  0  0  0
   38.0330   24.8250   41.1850 S   0  0  0  0  0  0  0  0  0  0  0  0
   36.7150   24.5910   40.6910 H   0  0  0  0  0  0  0  0  0  0  0  0
  1  5  1  0  0  0  0
  2  1  2  0  0  0  0
  2  3  1  0  0  0  0
  3  4  1  0  0  0  0
  4 18  1  0  0  0  0
  5  4  2  0  0  0  0
  6  2  1  0  0  0  0
  7 13  1  0  0  0  0
  7  8  1  0  0  0  0
  8 15  1  0  0  0  0
  9  8  2  0  0  0  0
  9  1  1  0  0  0  0
 10  9  1  0  0  0  0
 11 12  1  0  0  0  0
 11 10  2  0  0  0  0
 12  7  2  0  0  0  0
 14 11  1  0  0  0  0
 15 16  1  0  0  0  0
 15 17  1  0  0  0  0
 18 19  1  0  0  0  0
 18 20  1  0  0  0  0
 21 18  1  0  0  0  0
 21 24  1  0  0  0  0
 21 22  1  0  0  0  0
 23 21  1  0  0  0  0
 24 25  1  0  0  0  0
 25 26  2  0  0  0  0
 25 30  1  0  0  0  0
 26 31  1  0  0  0  0
 27 32  1  0  0  0  0
 27 26  1  0  0  0  0
 28 27  2  0  0  0  0
 29 28  1  0  0  0  0
 29 24  2  0  0  0  0
 33 28  1  0  0  0  0
 34 33  1  0  0  0  0
M  END
>  <minimizedAffinity>
-5.35692024

$$$$

 OpenBabel03242522173D

 34 36  0  0  0  0  0  0  0  0999 V2000
   37.0410   30.6470   39.4470 C   0  0  0  0  0  0  0  0  0  0  0  0
   37.4040   31.9340   39.2660 C   0  0  0  0  0  0  0  0  0  0  0  0
   38.4890   32.2340   40.7400 S   0  0  0  0  0  0  0  0  0  0  0  0
   38.2320   30.4910   41.3430 C   0  0  0  0  0  0  0  0  0  0  0  0
   37.5450   30.1220   40.5110 N   0  0  0  0  0  0  0  0  0  0  0  0
   37.1390   32.6190   38.4730 H   0  0  0  0  0  0  0  0  0  0  0  0
   34.2100   28.6060   38.0130 C   0  0  0  0  0  0  0  0  0  0  0  0
   35.0060   29.2940   38.9660 C   0  0  0  0  0  0  0  0  0  0  0  0
   36.1510   29.9060   38.5190 C   0  0  0  0  0  0  0  0  0  0  0  0
   36.4460   29.8100   37.1770 N   0  0  0  0  0  0  0  0  0  0  0  0
   35.6580   29.1460   36.3150 C   0  0  0  0  0  0  0  0  0  0  0  0
   34.5480   28.5470   36.7270 N   0  0  0  0  0  0  0  0  0  0  0  0
   33.3060   28.1200   38.3600 H   0  0  0  0  0  0  0  0  0  0  0  0
   35.9030   29.0800   35.2620 H   0  0  0  0  0  0  0  0  0  0  0  0
   34.5540   29.2910   40.3010 N   0  0  0  0  0  0  0  0  0  0  0  0
   34.6130   30.1810   40.8410 H   0  0  0  0  0  0  0  0  0  0  0  0
   34.1730   28.3830   40.6980 H   0  0  0  0  0  0  0  0  0  0  0  0
   38.8540   29.9500   42.5950 C   0  0  0  0  0  0  0  0  0  0  0  0
   39.8040   29.4390   42.2880 H   0  0  0  0  0  0  0  0  0  0  0  0
   39.1830   30.8040   43.2250 H   0  0  0  0  0  0  0  0  0  0  0  0
   37.9180   29.0240   43.2950 C   0  0  0  0  0  0  0  0  0  0  0  0
   36.8790   29.3970   43.1560 H   0  0  0  0  0  0  0  0  0  0  0  0
   38.1560   29.1150   44.3950 H   0  0  0  0  0  0  0  0  0  0  0  0
   37.9900   27.6240   42.9450 C   0  0  0  0  0  0  0  0  0  0  0  0
   37.0140   26.7480   42.5580 C   0  0  0  0  0  0  0  0  0  0  0  0
   37.1710   25.4140   42.2410 C   0  0  0  0  0  0  0  0  0  0  0  0
   38.4650   24.9440   42.3350 C   0  0  0  0  0  0  0  0  0  0  0  0
   39.4490   25.8250   42.7250 C   0  0  0  0  0  0  0  0  0  0  0  0
   39.2500   27.1090   43.0230 N   0  0  0  0  0  0  0  0  0  0  0  0
   36.0150   27.2070   42.5110 H   0  0  0  0  0  0  0  0  0  0  0  0
   36.3260   24.8170   41.9470 H   0  0  0  0  0  0  0  0  0  0  0  0
   38.6340   23.9000   42.0940 H   0  0  0  0  0  0  0  0  0  0  0  0
   41.0930   25.0810   42.8060 S   0  0  0  0  0  0  0  0  0  0  0  0
   41.2250   24.2640   41.6440 H   0  0  0  0  0  0  0  0  0  0  0  0
  1  5  1  0  0  0  0
  2  1  2  0  0  0  0
  2  3  1  0  0  0  0
  3  4  1  0  0  0  0
  4 18  1  0  0  0  0
  5  4  2  0  0  0  0
  6  2  1  0  0  0  0
  7 13  1  0  0  0  0
  7  8  1  0  0  0  0
  8 15  1  0  0  0  0
  9  8  2  0  0  0  0
  9  1  1  0  0  0  0
 10  9  1  0  0  0  0
 11 12  1  0  0  0  0
 11 10  2  0  0  0  0
 12  7  2  0  0  0  0
 14 11  1  0  0  0  0
 15 17  1  0  0  0  0
 15 16  1  0  0  0  0
 18 20  1  0  0  0  0
 18 21  1  0  0  0  0
 19 18  1  0  0  0  0
 21 23  1  0  0  0  0
 22 21  1  0  0  0  0
 24 29  1  0  0  0  0
 24 21  1  0  0  0  0
 25 24  2  0  0  0  0
 26 27  2  0  0  0  0
 26 25  1  0  0  0  0
 27 28  1  0  0  0  0
 28 33  1  0  0  0  0
 28 29  2  0  0  0  0
 30 25  1  0  0  0  0
 31 26  1  0  0  0  0
 32 27  1  0  0  0  0
 34 33  1  0  0  0  0
M  END
>  <minimizedAffinity>
-5.32464981

$$$$

 OpenBabel03242522173D

 34 36  0  0  0  0  0  0  0  0999 V2000
   38.6570   31.9420   39.6070 C   0  0  0  0  0  0  0  0  0  0  0  0
   37.5660   32.4760   40.1960 C   0  0  0  0  0  0  0  0  0  0  0  0
   36.3880   31.0430   40.1830 S   0  0  0  0  0  0  0  0  0  0  0  0
   37.6480   29.9550   39.3490 C   0  0  0  0  0  0  0  0  0  0  0  0
   38.4990   30.7080   39.2680 N   0  0  0  0  0  0  0  0  0  0  0  0
   37.4100   33.4740   40.5790 H   0  0  0  0  0  0  0  0  0  0  0  0
   41.6420   33.5680   37.9690 C   0  0  0  0  0  0  0  0  0  0  0  0
   40.4360   32.8330   38.1080 C   0  0  0  0  0  0  0  0  0  0  0  0
   39.9140   32.6950   39.3710 C   0  0  0  0  0  0  0  0  0  0  0  0
   40.5980   33.2810   40.4130 N   0  0  0  0  0  0  0  0  0  0  0  0
   41.7370   33.9680   40.2270 C   0  0  0  0  0  0  0  0  0  0  0  0
   42.2580   34.1120   39.0160 N   0  0  0  0  0  0  0  0  0  0  0  0
   42.0580   33.6790   36.9750 H   0  0  0  0  0  0  0  0  0  0  0  0
   42.2630   34.4240   41.0570 H   0  0  0  0  0  0  0  0  0  0  0  0
   39.8690   32.3000   36.9320 N   0  0  0  0  0  0  0  0  0  0  0  0
   38.8360   32.3730   36.8080 H   0  0  0  0  0  0  0  0  0  0  0  0
   40.5190   31.8480   36.2250 H   0  0  0  0  0  0  0  0  0  0  0  0
   37.3900   28.5230   38.9850 C   0  0  0  0  0  0  0  0  0  0  0  0
   36.8400   28.5330   38.0080 H   0  0  0  0  0  0  0  0  0  0  0  0
   38.3630   28.0350   38.7570 H   0  0  0  0  0  0  0  0  0  0  0  0
   36.6190   27.8330   40.0580 C   0  0  0  0  0  0  0  0  0  0  0  0
   36.2370   26.8670   39.6570 H   0  0  0  0  0  0  0  0  0  0  0  0
   35.7190   28.4850   40.2600 H   0  0  0  0  0  0  0  0  0  0  0  0
   37.2920   27.6120   41.3160 C   0  0  0  0  0  0  0  0  0  0  0  0
   37.1820   28.2610   42.5160 C   0  0  0  0  0  0  0  0  0  0  0  0
   37.8700   27.9830   43.6790 C   0  0  0  0  0  0  0  0  0  0  0  0
   38.7580   26.9310   43.5900 C   0  0  0  0  0  0  0  0  0  0  0  0
   38.8710   26.2760   42.3840 C   0  0  0  0  0  0  0  0  0  0  0  0
   38.1830   26.5810   41.2820 N   0  0  0  0  0  0  0  0  0  0  0  0
   36.4530   29.0850   42.4950 H   0  0  0  0  0  0  0  0  0  0  0  0
   37.7010   28.5640   44.5690 H   0  0  0  0  0  0  0  0  0  0  0  0
   39.3210   26.6770   44.4820 H   0  0  0  0  0  0  0  0  0  0  0  0
   40.0660   24.9220   42.4060 S   0  0  0  0  0  0  0  0  0  0  0  0
   39.8600   24.2210   43.6310 H   0  0  0  0  0  0  0  0  0  0  0  0
  1  2  2  0  0  0  0
  2  6  1  0  0  0  0
  3  2  1  0  0  0  0
  4  3  1  0  0  0  0
  5  4  2  0  0  0  0
  5  1  1  0  0  0  0
  7  8  2  0  0  0  0
  7 12  1  0  0  0  0
  8  9  1  0  0  0  0
  9  1  1  0  0  0  0
  9 10  2  0  0  0  0
 11 10  1  0  0  0  0
 11 14  1  0  0  0  0
 12 11  2  0  0  0  0
 13  7  1  0  0  0  0
 15  8  1  0  0  0  0
 16 15  1  0  0  0  0
 17 15  1  0  0  0  0
 18  4  1  0  0  0  0
 18 21  1  0  0  0  0
 19 18  1  0  0  0  0
 20 18  1  0  0  0  0
 21 23  1  0  0  0  0
 21 24  1  0  0  0  0
 22 21  1  0  0  0  0
 24 25  1  0  0  0  0
 25 26  2  0  0  0  0
 26 31  1  0  0  0  0
 27 26  1  0  0  0  0
 27 32  1  0  0  0  0
 28 33  1  0  0  0  0
 28 27  2  0  0  0  0
 29 24  2  0  0  0  0
 29 28  1  0  0  0  0
 30 25  1  0  0  0  0
 33 34  1  0  0  0  0
M  END
>  <minimizedAffinity>
-5.28496885

$$$$

 OpenBabel03242522173D

 34 36  0  0  0  0  0  0  0  0999 V2000
   36.1050   28.9600   38.3910 C   0  0  0  0  0  0  0  0  0  0  0  0
   35.2360   28.7180   37.3880 C   0  0  0  0  0  0  0  0  0  0  0  0
   35.0340   26.8780   37.4960 S   0  0  0  0  0  0  0  0  0  0  0  0
   36.2110   26.7860   38.9350 C   0  0  0  0  0  0  0  0  0  0  0  0
   36.4610   27.8940   39.0240 N   0  0  0  0  0  0  0  0  0  0  0  0
   34.7720   29.4090   36.6980 H   0  0  0  0  0  0  0  0  0  0  0  0
   36.8980   32.1610   40.2250 C   0  0  0  0  0  0  0  0  0  0  0  0
   36.3860   30.8610   39.9760 C   0  0  0  0  0  0  0  0  0  0  0  0
   36.6050   30.3140   38.7360 C   0  0  0  0  0  0  0  0  0  0  0  0
   37.3080   31.0660   37.8210 N   0  0  0  0  0  0  0  0  0  0  0  0
   37.7720   32.2940   38.1070 C   0  0  0  0  0  0  0  0  0  0  0  0
   37.5700   32.8400   39.2980 N   0  0  0  0  0  0  0  0  0  0  0  0
   36.7270   32.5980   41.2020 H   0  0  0  0  0  0  0  0  0  0  0  0
   38.3230   32.8730   37.3760 H   0  0  0  0  0  0  0  0  0  0  0  0
   35.6880   30.2340   41.0290 N   0  0  0  0  0  0  0  0  0  0  0  0
   35.8750   29.2240   41.2080 H   0  0  0  0  0  0  0  0  0  0  0  0
   35.0050   30.8180   41.5940 H   0  0  0  0  0  0  0  0  0  0  0  0
   36.5780   25.5040   39.6220 C   0  0  0  0  0  0  0  0  0  0  0  0
   35.6740   25.1790   40.2010 H   0  0  0  0  0  0  0  0  0  0  0  0
   36.7200   24.7160   38.8510 H   0  0  0  0  0  0  0  0  0  0  0  0
   37.7690   25.6950   40.4990 C   0  0  0  0  0  0  0  0  0  0  0  0
   38.6370   25.9810   39.8630 H   0  0  0  0  0  0  0  0  0  0  0  0
   38.0000   24.6780   40.9330 H   0  0  0  0  0  0  0  0  0  0  0  0
   37.6370   26.6210   41.5990 C   0  0  0  0  0  0  0  0  0  0  0  0
   36.7780   26.6300   42.6630 C   0  0  0  0  0  0  0  0  0  0  0  0
   36.7190   27.5630   43.6780 C   0  0  0  0  0  0  0  0  0  0  0  0
   37.6390   28.5860   43.5790 C   0  0  0  0  0  0  0  0  0  0  0  0
   38.5050   28.5800   42.5080 C   0  0  0  0  0  0  0  0  0  0  0  0
   38.5250   27.6550   41.5480 N   0  0  0  0  0  0  0  0  0  0  0  0
   36.0800   25.7790   42.6610 H   0  0  0  0  0  0  0  0  0  0  0  0
   35.9970   27.4680   44.4700 H   0  0  0  0  0  0  0  0  0  0  0  0
   37.6290   29.3430   44.3560 H   0  0  0  0  0  0  0  0  0  0  0  0
   39.6550   29.9730   42.5010 S   0  0  0  0  0  0  0  0  0  0  0  0
   40.1120   30.1270   43.8430 H   0  0  0  0  0  0  0  0  0  0  0  0
  1  9  1  0  0  0  0
  1  5  1  0  0  0  0
  2  3  1  0  0  0  0
  2  1  2  0  0  0  0
  3  4  1  0  0  0  0
  4  5  2  0  0  0  0
  4 18  1  0  0  0  0
  6  2  1  0  0  0  0
  7 13  1  0  0  0  0
  8  7  1  0  0  0  0
  8 15  1  0  0  0  0
  9  8  2  0  0  0  0
 10 11  2  0  0  0  0
 10  9  1  0  0  0  0
 11 12  1  0  0  0  0
 12  7  2  0  0  0  0
 14 11  1  0  0  0  0
 15 16  1  0  0  0  0
 15 17  1  0  0  0  0
 18 19  1  0  0  0  0
 18 21  1  0  0  0  0
 20 18  1  0  0  0  0
 21 23  1  0  0  0  0
 21 24  1  0  0  0  0
 22 21  1  0  0  0  0
 24 25  1  0  0  0  0
 25 26  2  0  0  0  0
 26 31  1  0  0  0  0
 27 26  1  0  0  0  0
 27 32  1  0  0  0  0
 28 27  2  0  0  0  0
 29 24  2  0  0  0  0
 29 28  1  0  0  0  0
 30 25  1  0  0  0  0
 33 28  1  0  0  0  0
 33 34  1  0  0  0  0
M  END
>  <minimizedAffinity>
-5.25639629

$$$$

 OpenBabel03242522173D

 34 36  0  0  0  0  0  0  0  0999 V2000
   37.7070   30.7230   40.9880 C   0  0  0  0  0  0  0  0  0  0  0  0
   36.7180   30.3410   40.1540 C   0  0  0  0  0  0  0  0  0  0  0  0
   36.0270   28.8630   41.0350 S   0  0  0  0  0  0  0  0  0  0  0  0
   37.2590   29.0530   42.4180 C   0  0  0  0  0  0  0  0  0  0  0  0
   37.8110   29.9720   42.0300 N   0  0  0  0  0  0  0  0  0  0  0  0
   36.4020   30.7770   39.2160 H   0  0  0  0  0  0  0  0  0  0  0  0
   40.7220   32.9680   40.6580 C   0  0  0  0  0  0  0  0  0  0  0  0
   39.9490   31.8080   40.9220 C   0  0  0  0  0  0  0  0  0  0  0  0
   38.5910   31.8890   40.7350 C   0  0  0  0  0  0  0  0  0  0  0  0
   38.0750   33.0910   40.3050 N   0  0  0  0  0  0  0  0  0  0  0  0
   38.8510   34.1610   40.0680 C   0  0  0  0  0  0  0  0  0  0  0  0
   40.1650   34.1040   40.2430 N   0  0  0  0  0  0  0  0  0  0  0  0
   41.7940   32.9100   40.8030 H   0  0  0  0  0  0  0  0  0  0  0  0
   38.4310   35.1000   39.7300 H   0  0  0  0  0  0  0  0  0  0  0  0
   40.6420   30.6600   41.3570 N   0  0  0  0  0  0  0  0  0  0  0  0
   40.3690   29.7380   40.9530 H   0  0  0  0  0  0  0  0  0  0  0  0
   41.4120   30.7850   42.0770 H   0  0  0  0  0  0  0  0  0  0  0  0
   37.3190   28.1360   43.6030 C   0  0  0  0  0  0  0  0  0  0  0  0
   37.4960   28.7820   44.5020 H   0  0  0  0  0  0  0  0  0  0  0  0
   36.3100   27.6970   43.7630 H   0  0  0  0  0  0  0  0  0  0  0  0
   38.3880   27.1110   43.4270 C   0  0  0  0  0  0  0  0  0  0  0  0
   38.6220   26.6660   44.4200 H   0  0  0  0  0  0  0  0  0  0  0  0
   39.3080   27.6770   43.0950 H   0  0  0  0  0  0  0  0  0  0  0  0
   38.1470   26.0640   42.4620 C   0  0  0  0  0  0  0  0  0  0  0  0
   37.0790   25.2240   42.3030 C   0  0  0  0  0  0  0  0  0  0  0  0
   36.9280   24.2410   41.3460 C   0  0  0  0  0  0  0  0  0  0  0  0
   37.9870   24.1180   40.4700 C   0  0  0  0  0  0  0  0  0  0  0  0
   39.0640   24.9620   40.6290 C   0  0  0  0  0  0  0  0  0  0  0  0
   39.1660   25.9000   41.5720 N   0  0  0  0  0  0  0  0  0  0  0  0
   36.2830   25.3920   43.0440 H   0  0  0  0  0  0  0  0  0  0  0  0
   36.0390   23.6360   41.3150 H   0  0  0  0  0  0  0  0  0  0  0  0
   37.9110   23.3580   39.7000 H   0  0  0  0  0  0  0  0  0  0  0  0
   40.3760   24.6940   39.4180 S   0  0  0  0  0  0  0  0  0  0  0  0
   39.7340   24.5160   38.1570 H   0  0  0  0  0  0  0  0  0  0  0  0
  1  5  1  0  0  0  0
  2  1  2  0  0  0  0
  2  3  1  0  0  0  0
  3  4  1  0  0  0  0
  4 18  1  0  0  0  0
  5  4  2  0  0  0  0
  6  2  1  0  0  0  0
  7 13  1  0  0  0  0
  7  8  1  0  0  0  0
  8 15  1  0  0  0  0
  9  8  2  0  0  0  0
  9  1  1  0  0  0  0
 10  9  1  0  0  0  0
 11 12  1  0  0  0  0
 11 10  2  0  0  0  0
 12  7  2  0  0  0  0
 14 11  1  0  0  0  0
 15 17  1  0  0  0  0
 16 15  1  0  0  0  0
 18 20  1  0  0  0  0
 18 19  1  0  0  0  0
 21 18  1  0  0  0  0
 21 22  1  0  0  0  0
 23 21  1  0  0  0  0
 24 21  1  0  0  0  0
 25 24  1  0  0  0  0
 25 30  1  0  0  0  0
 26 25  2  0  0  0  0
 27 28  2  0  0  0  0
 27 26  1  0  0  0  0
 28 29  1  0  0  0  0
 29 24  2  0  0  0  0
 31 26  1  0  0  0  0
 32 27  1  0  0  0  0
 33 28  1  0  0  0  0
 34 33  1  0  0  0  0
M  END
>  <minimizedAffinity>
-5.2297492

$$$$

 OpenBabel03242522173D

 34 36  0  0  0  0  0  0  0  0999 V2000
   37.8720   31.1450   38.6220 C   0  0  0  0  0  0  0  0  0  0  0  0
   37.4330   30.9330   37.3640 C   0  0  0  0  0  0  0  0  0  0  0  0
   36.1920   29.5780   37.6180 S   0  0  0  0  0  0  0  0  0  0  0  0
   36.5190   29.5590   39.4510 C   0  0  0  0  0  0  0  0  0  0  0  0
   37.3090   30.3800   39.4930 N   0  0  0  0  0  0  0  0  0  0  0  0
   37.7210   31.4190   36.4430 H   0  0  0  0  0  0  0  0  0  0  0  0
   39.6380   34.1600   40.0480 C   0  0  0  0  0  0  0  0  0  0  0  0
   38.5960   33.2400   39.7580 C   0  0  0  0  0  0  0  0  0  0  0  0
   38.9010   32.1560   38.9730 C   0  0  0  0  0  0  0  0  0  0  0  0
   40.1970   32.0360   38.5220 N   0  0  0  0  0  0  0  0  0  0  0  0
   41.1470   32.9360   38.8260 C   0  0  0  0  0  0  0  0  0  0  0  0
   40.8730   33.9900   39.5810 N   0  0  0  0  0  0  0  0  0  0  0  0
   39.4030   35.0170   40.6660 H   0  0  0  0  0  0  0  0  0  0  0  0
   42.1630   32.8280   38.4640 H   0  0  0  0  0  0  0  0  0  0  0  0
   37.3260   33.5180   40.3030 N   0  0  0  0  0  0  0  0  0  0  0  0
   36.7840   32.7270   40.7120 H   0  0  0  0  0  0  0  0  0  0  0  0
   36.9780   34.5200   40.2730 H   0  0  0  0  0  0  0  0  0  0  0  0
   35.8210   28.6360   40.4050 C   0  0  0  0  0  0  0  0  0  0  0  0
   35.0230   29.2400   40.9120 H   0  0  0  0  0  0  0  0  0  0  0  0
   35.2680   27.8710   39.8180 H   0  0  0  0  0  0  0  0  0  0  0  0
   36.7870   28.0510   41.3790 C   0  0  0  0  0  0  0  0  0  0  0  0
   36.5060   28.3830   42.4030 H   0  0  0  0  0  0  0  0  0  0  0  0
   37.7870   28.5190   41.1420 H   0  0  0  0  0  0  0  0  0  0  0  0
   36.9590   26.6170   41.3560 C   0  0  0  0  0  0  0  0  0  0  0  0
   37.4300   25.7570   42.3100 C   0  0  0  0  0  0  0  0  0  0  0  0
   37.5640   24.3880   42.2040 C   0  0  0  0  0  0  0  0  0  0  0  0
   37.1710   23.8590   40.9930 C   0  0  0  0  0  0  0  0  0  0  0  0
   36.6960   24.7220   40.0300 C   0  0  0  0  0  0  0  0  0  0  0  0
   36.5850   26.0430   40.1770 N   0  0  0  0  0  0  0  0  0  0  0  0
   37.7210   26.2640   43.2430 H   0  0  0  0  0  0  0  0  0  0  0  0
   37.9490   23.8090   43.0260 H   0  0  0  0  0  0  0  0  0  0  0  0
   37.2580   22.7850   40.8660 H   0  0  0  0  0  0  0  0  0  0  0  0
   36.2170   23.9000   38.4950 S   0  0  0  0  0  0  0  0  0  0  0  0
   35.5070   22.7210   38.8720 H   0  0  0  0  0  0  0  0  0  0  0  0
  1  9  1  0  0  0  0
  1  5  1  0  0  0  0
  2  3  1  0  0  0  0
  2  1  2  0  0  0  0
  3  4  1  0  0  0  0
  4  5  2  0  0  0  0
  4 18  1  0  0  0  0
  6  2  1  0  0  0  0
  7 13  1  0  0  0  0
  8  7  1  0  0  0  0
  8 15  1  0  0  0  0
  9  8  2  0  0  0  0
 10 11  2  0  0  0  0
 10  9  1  0  0  0  0
 11 12  1  0  0  0  0
 12  7  2  0  0  0  0
 14 11  1  0  0  0  0
 15 16  1  0  0  0  0
 17 15  1  0  0  0  0
 18 19  1  0  0  0  0
 18 21  1  0  0  0  0
 20 18  1  0  0  0  0
 21 22  1  0  0  0  0
 23 21  1  0  0  0  0
 24 21  1  0  0  0  0
 24 25  1  0  0  0  0
 25 30  1  0  0  0  0
 26 25  2  0  0  0  0
 26 31  1  0  0  0  0
 27 26  1  0  0  0  0
 28 29  1  0  0  0  0
 28 27  2  0  0  0  0
 29 24  2  0  0  0  0
 32 27  1  0  0  0  0
 33 34  1  0  0  0  0
 33 28  1  0  0  0  0
M  END
>  <minimizedAffinity>
-5.21608686

$$$$

 OpenBabel03242522173D

 34 36  0  0  0  0  0  0  0  0999 V2000
   39.4810   29.7530   37.8310 C   0  0  0  0  0  0  0  0  0  0  0  0
   38.9960   28.6840   37.1650 C   0  0  0  0  0  0  0  0  0  0  0  0
   37.2490   28.6120   37.7840 S   0  0  0  0  0  0  0  0  0  0  0  0
   37.5220   30.1000   38.8680 C   0  0  0  0  0  0  0  0  0  0  0  0
   38.6130   30.3040   38.6090 N   0  0  0  0  0  0  0  0  0  0  0  0
   39.4880   28.0350   36.4540 H   0  0  0  0  0  0  0  0  0  0  0  0
   42.4940   31.9140   37.1310 C   0  0  0  0  0  0  0  0  0  0  0  0
   41.1350   31.5190   37.2390 C   0  0  0  0  0  0  0  0  0  0  0  0
   40.8730   30.2480   37.6880 C   0  0  0  0  0  0  0  0  0  0  0  0
   41.9480   29.4460   38.0020 N   0  0  0  0  0  0  0  0  0  0  0  0
   43.2170   29.8690   37.8820 C   0  0  0  0  0  0  0  0  0  0  0  0
   43.4920   31.0920   37.4500 N   0  0  0  0  0  0  0  0  0  0  0  0
   42.7060   32.9150   36.7770 H   0  0  0  0  0  0  0  0  0  0  0  0
   44.0530   29.2270   38.1340 H   0  0  0  0  0  0  0  0  0  0  0  0
   40.1600   32.4690   36.8730 N   0  0  0  0  0  0  0  0  0  0  0  0
   39.3160   32.5640   37.4790 H   0  0  0  0  0  0  0  0  0  0  0  0
   40.3270   33.0450   35.9980 H   0  0  0  0  0  0  0  0  0  0  0  0
   36.4590   30.6860   39.7500 C   0  0  0  0  0  0  0  0  0  0  0  0
   36.9630   31.4500   40.3980 H   0  0  0  0  0  0  0  0  0  0  0  0
   35.7570   31.2700   39.1170 H   0  0  0  0  0  0  0  0  0  0  0  0
   35.7890   29.6220   40.5510 C   0  0  0  0  0  0  0  0  0  0  0  0
   35.2980   28.9080   39.8540 H   0  0  0  0  0  0  0  0  0  0  0  0
   34.9670   30.1400   41.1270 H   0  0  0  0  0  0  0  0  0  0  0  0
   36.6030   28.9020   41.5030 C   0  0  0  0  0  0  0  0  0  0  0  0
   37.4050   29.3520   42.5160 C   0  0  0  0  0  0  0  0  0  0  0  0
   38.1550   28.5870   43.3850 C   0  0  0  0  0  0  0  0  0  0  0  0
   38.0660   27.2260   43.1850 C   0  0  0  0  0  0  0  0  0  0  0  0
   37.2600   26.7700   42.1660 C   0  0  0  0  0  0  0  0  0  0  0  0
   36.5510   27.5490   41.3470 N   0  0  0  0  0  0  0  0  0  0  0  0
   37.4170   30.4490   42.6020 H   0  0  0  0  0  0  0  0  0  0  0  0
   38.7530   29.0530   44.1490 H   0  0  0  0  0  0  0  0  0  0  0  0
   38.6400   26.5860   43.8470 H   0  0  0  0  0  0  0  0  0  0  0  0
   37.2340   24.9700   42.0150 S   0  0  0  0  0  0  0  0  0  0  0  0
   37.1410   24.4540   43.3410 H   0  0  0  0  0  0  0  0  0  0  0  0
  1  5  1  0  0  0  0
  2  3  1  0  0  0  0
  2  1  2  0  0  0  0
  3  4  1  0  0  0  0
  4 18  1  0  0  0  0
  5  4  2  0  0  0  0
  6  2  1  0  0  0  0
  7  8  2  0  0  0  0
  7 12  1  0  0  0  0
  8  9  1  0  0  0  0
  9  1  1  0  0  0  0
  9 10  2  0  0  0  0
 11 10  1  0  0  0  0
 11 14  1  0  0  0  0
 12 11  2  0  0  0  0
 13  7  1  0  0  0  0
 15  8  1  0  0  0  0
 15 16  1  0  0  0  0
 17 15  1  0  0  0  0
 18 19  1  0  0  0  0
 18 21  1  0  0  0  0
 20 18  1  0  0  0  0
 21 23  1  0  0  0  0
 21 24  1  0  0  0  0
 22 21  1  0  0  0  0
 24 25  1  0  0  0  0
 25 30  1  0  0  0  0
 25 26  2  0  0  0  0
 26 31  1  0  0  0  0
 27 26  1  0  0  0  0
 27 32  1  0  0  0  0
 28 27  2  0  0  0  0
 29 24  2  0  0  0  0
 29 28  1  0  0  0  0
 33 28  1  0  0  0  0
 33 34  1  0  0  0  0
M  END
>  <minimizedAffinity>
-5.10760546

$$$$
