
     RDKit          3D

 12 12  0  0  0  0  0  0  0  0999 V2000
   44.5418   36.0258   44.5315 C   0  0  0  0  0  0  0  0  0  0  0  0
   45.2589   35.8946   43.3200 C   0  0  0  0  0  0  0  0  0  0  0  0
   46.1291   34.7983   43.2047 C   0  0  0  0  0  0  0  0  0  0  0  0
   46.2285   33.9413   44.2495 N   0  0  0  0  0  0  0  0  0  0  0  0
   45.5278   34.1005   45.3886 C   0  0  0  0  0  0  0  0  0  0  0  0
   44.6921   35.1363   45.5240 N   0  0  0  0  0  0  0  0  0  0  0  0
   47.0728   34.5563   41.7107 S   0  0  0  0  0  0  0  0  0  0  0  0
   43.8746   36.8665   44.6197 H   0  0  0  0  0  0  0  0  0  0  0  0
   45.1376   36.6106   42.5218 H   0  0  0  0  0  0  0  0  0  0  0  0
   46.3939   33.6456   40.9040 H   0  0  0  0  0  0  0  0  0  0  0  0
   45.7623   32.8857   46.6868 S   0  0  0  0  0  0  0  0  0  0  0  0
   44.5769   32.7957   47.4755 H   0  0  0  0  0  0  0  0  0  0  0  0
  1  6  2  0
  2  1  1  0
  3  2  2  0
  3  4  1  0
  4  5  2  0
  5  6  1  0
  7  3  1  0
  1  8  1  0
  2  9  1  0
  7 10  1  0
 11 12  1  0
  5 11  1  0
M  ISO  4   8  14   9  14  10  11  12  11
M  END
>  <DihAtoms>  (1) 
3,4,10,11

>  <DihDeg>  (1) 
-77.02420255027296

$$$$
