REMARK  Name = 
REMARK  8 active torsions:
REMARK  status: ('A' for Active; 'I' for Inactive)
REMARK    1  A    between atoms: P_2  and  O_3
REMARK    2  A    between atoms: P_2  and  O_4
REMARK    3  A    between atoms: P_2  and  O_12
REMARK    4  A    between atoms: O_4  and  C_5
REMARK    5  A    between atoms: C_5  and  C_8
REMARK    6  A    between atoms: O_12  and  C_13
REMARK    7  A    between atoms: C_17  and  C_18
REMARK    8  A    between atoms: C_18  and  S_35
REMARK                            x       y       z     vdW  Elec       q    Type
REMARK                         _______ _______ _______ _____ _____    ______ ____
ROOT
ATOM      1  O   UNL     1      46.407  35.031  43.165  0.00  0.00    +0.000 OA
ENDROOT
BRANCH   1   2
ATOM      2  C   UNL     1      46.929  34.084  42.285  0.00  0.00    +0.000 C 
ATOM      3  C   UNL     1      46.404  34.269  40.877  0.00  0.00    +0.000 C 
ATOM      4  C   UNL     1      47.332  33.375  40.095  0.00  0.00    +0.000 C 
ATOM      5  C   UNL     1      48.633  33.353  40.869  0.00  0.00    +0.000 C 
ATOM      6  C   UNL     1      48.409  34.290  42.045  0.00  0.00    +0.000 C 
ATOM      7  H   UNL     1      46.752  33.055  42.577  0.00  0.00    +0.000 HD
ATOM      8  H   UNL     1      46.397  35.321  40.547  0.00  0.00    +0.000 HD
ATOM      9  H   UNL     1      45.377  33.902  40.725  0.00  0.00    +0.000 HD
ATOM     10  H   UNL     1      47.451  33.694  39.040  0.00  0.00    +0.000 HD
ATOM     11  H   UNL     1      46.949  32.330  40.113  0.00  0.00    +0.000 HD
ATOM     12  H   UNL     1      49.398  33.856  40.223  0.00  0.00    +0.000 HD
ATOM     13  H   UNL     1      48.937  32.342  41.179  0.00  0.00    +0.000 HD
ATOM     14  H   UNL     1      49.032  33.988  42.925  0.00  0.00    +0.000 HD
BRANCH   6  15
ATOM     15  C   UNL     1      48.768  35.710  41.721  0.00  0.00    +0.000 C 
ATOM     16  H   UNL     1      49.859  35.763  41.603  0.00  0.00    +0.000 HD
ATOM     17  H   UNL     1      48.285  36.108  40.830  0.00  0.00    +0.000 HD
BRANCH  15  18
ATOM     18  S   UNL     1      48.261  36.737  43.136  0.00  0.00    +0.000 S 
ATOM     19  H   UNL     1      49.030  37.907  43.245  0.00  0.00    +0.000 HD
ENDBRANCH  15  18
ENDBRANCH   6  15
ENDBRANCH   1   2
BRANCH   1  21
ATOM     20  O   UNL     1      44.676  35.283  45.075  0.00  0.00    +0.000 OA
ATOM     21  P   UNL     1      45.487  34.246  44.333  0.00  0.00    +0.000 P 
BRANCH  21  22
ATOM     22  O   UNL     1      44.525  33.059  43.646  0.00  0.00    +0.000 OA
ATOM     23  H   UNL     1      44.740  32.782  42.748  0.00  0.00    +0.000 HD
ENDBRANCH  21  22
BRANCH  21  24
ATOM     24  O   UNL     1      46.522  33.464  45.404  0.00  0.00    +0.000 OA
BRANCH  24  25
ATOM     25  C   UNL     1      46.210  32.138  45.422  0.00  0.00    +0.000 C 
ATOM     26  H   UNL     1      45.446  31.775  44.745  0.00  0.00    +0.000 HD
ATOM     27  H   UNL     1      47.152  31.595  45.111  0.00  0.00    +0.000 HD
BRANCH  25  30
ATOM     28  C   UNL     1      45.753  32.046  49.120  0.00  0.00    +0.000 A 
ATOM     29  C   UNL     1      46.056  32.531  47.835  0.00  0.00    +0.000 A 
ATOM     30  C   UNL     1      45.896  31.644  46.773  0.00  0.00    +0.000 A 
ATOM     31  N   UNL     1      45.461  30.370  47.023  0.00  0.00    +0.000 NA
ATOM     32  C   UNL     1      45.180  29.940  48.268  0.00  0.00    +0.000 A 
ATOM     33  N   UNL     1      45.325  30.771  49.299  0.00  0.00    +0.000 NA
ATOM     34  H   UNL     1      45.853  32.675  49.985  0.00  0.00    +0.000 HD
ATOM     35  H   UNL     1      46.389  33.547  47.755  0.00  0.00    +0.000 HD
ATOM     36  H   UNL     1      44.843  28.917  48.358  0.00  0.00    +0.000 HD
ENDBRANCH  25  30
ENDBRANCH  24  25
ENDBRANCH  21  24
ENDBRANCH   1  21
TORSDOF 8
