
 OpenBabel03242512133D

 34 36  0  0  1  0  0  0  0  0999 V2000
   38.8100   31.1070   39.1170 C   0  0  1  0  0  0  0  0  0  0  0  0
   39.5820   29.8710   39.7320 C   0  0  0  0  0  0  0  0  0  0  0  0
   38.2350   30.1930   40.1340 C   0  0  2  0  0  0  0  0  0  0  0  0
   38.5140   30.9690   38.0820 H   0  0  0  0  0  0  0  0  0  0  0  0
   40.4870   30.1100   40.3230 H   0  0  0  0  0  0  0  0  0  0  0  0
   39.7920   29.0730   38.9830 H   0  0  0  0  0  0  0  0  0  0  0  0
   37.9620   30.7070   41.0710 H   0  0  0  0  0  0  0  0  0  0  0  0
   39.4200   32.3980   39.5490 C   0  0  0  0  0  0  0  0  0  0  0  0
   38.9390   32.9430   40.5370 O   0  0  0  0  0  0  0  0  0  0  0  0
   41.0970   34.1740   39.3310 C   0  0  0  0  0  0  0  0  0  0  0  0
   40.5120   33.0410   38.9100 C   0  0  0  0  0  0  0  0  0  0  0  0
   41.0540   32.4560   37.7180 C   0  0  0  0  0  0  0  0  0  0  0  0
   42.0930   33.0320   37.0710 N   0  0  0  0  0  0  0  0  0  0  0  0
   42.6400   34.1780   37.5500 C   0  0  0  0  0  0  0  0  0  0  0  0
   42.1510   34.7230   38.6430 N   0  0  0  0  0  0  0  0  0  0  0  0
   40.7110   34.6490   40.2380 H   0  0  0  0  0  0  0  0  0  0  0  0
   40.7040   31.5540   37.2630 H   0  0  0  0  0  0  0  0  0  0  0  0
   43.4710   34.6770   37.0700 H   0  0  0  0  0  0  0  0  0  0  0  0
   37.2850   29.2710   39.7340 O   0  0  0  0  0  0  0  0  0  0  0  0
   34.7030   29.2450   39.7850 O   0  0  0  0  0  0  0  0  0  0  0  0
   35.9050   29.5130   40.6790 P   0  0  2  0  0  0  0  0  0  0  0  0
   35.8070   30.9820   41.4290 O   0  0  0  0  0  0  0  0  0  0  0  0
   35.1300   30.9220   42.1220 H   0  0  0  0  0  0  0  0  0  0  0  0
   35.8500   28.2140   41.8350 O   0  0  0  0  0  0  0  0  0  0  0  0
   36.9630   27.5750   42.3290 C   0  0  0  0  0  0  0  0  0  0  0  0
   37.8650   28.0150   43.2760 C   0  0  0  0  0  0  0  0  0  0  0  0
   38.9360   27.2110   43.6450 C   0  0  0  0  0  0  0  0  0  0  0  0
   39.0830   25.9830   43.0590 N   0  0  0  0  0  0  0  0  0  0  0  0
   38.1850   25.5780   42.1350 C   0  0  0  0  0  0  0  0  0  0  0  0
   37.1350   26.3480   41.7630 N   0  0  0  0  0  0  0  0  0  0  0  0
   37.6560   28.9870   43.6690 H   0  0  0  0  0  0  0  0  0  0  0  0
   39.6270   27.5970   44.4000 H   0  0  0  0  0  0  0  0  0  0  0  0
   38.4490   23.9490   41.4110 S   0  0  0  0  0  0  0  0  0  0  0  0
   39.7810   23.8600   40.9130 H   0  0  0  0  0  0  0  0  0  0  0  0
  1  4  1  6  0  0  0
  1  8  1  0  0  0  0
  1  2  1  0  0  0  0
  1  3  1  0  0  0  0
  2  3  1  0  0  0  0
  2  5  1  0  0  0  0
  3  7  1  1  0  0  0
  6  2  1  0  0  0  0
  8  9  2  0  0  0  0
 10 16  1  0  0  0  0
 11 10  1  0  0  0  0
 11  8  1  0  0  0  0
 12 11  2  0  0  0  0
 13 14  2  0  0  0  0
 13 12  1  0  0  0  0
 14 15  1  0  0  0  0
 15 10  2  0  0  0  0
 17 12  1  0  0  0  0
 18 14  1  0  0  0  0
 19  3  1  0  0  0  0
 19 21  1  0  0  0  0
 21 20  2  6  0  0  0
 21 22  1  0  0  0  0
 21 24  1  0  0  0  0
 22 23  1  0  0  0  0
 24 25  1  0  0  0  0
 25 26  1  0  0  0  0
 26 27  2  0  0  0  0
 26 31  1  0  0  0  0
 27 32  1  0  0  0  0
 28 27  1  0  0  0  0
 29 28  2  0  0  0  0
 30 29  1  0  0  0  0
 30 25  2  0  0  0  0
 33 29  1  0  0  0  0
 34 33  1  0  0  0  0
M  END
>  <minimizedAffinity>
-5.46858025

$$$$

 OpenBabel03242512133D

 34 36  0  0  1  0  0  0  0  0999 V2000
   37.1370   32.4490   39.1210 C   0  0  1  0  0  0  0  0  0  0  0  0
   37.7720   31.8170   37.8170 C   0  0  0  0  0  0  0  0  0  0  0  0
   37.2880   30.9910   38.8950 C   0  0  2  0  0  0  0  0  0  0  0  0
   36.1580   32.8910   38.9620 H   0  0  0  0  0  0  0  0  0  0  0  0
   38.8390   32.0500   37.6350 H   0  0  0  0  0  0  0  0  0  0  0  0
   37.1610   31.9990   36.9030 H   0  0  0  0  0  0  0  0  0  0  0  0
   37.9260   30.5020   39.6510 H   0  0  0  0  0  0  0  0  0  0  0  0
   38.1600   33.1800   39.9230 C   0  0  0  0  0  0  0  0  0  0  0  0
   38.0640   34.4020   39.9750 O   0  0  0  0  0  0  0  0  0  0  0  0
   39.0930   31.7280   41.6640 C   0  0  0  0  0  0  0  0  0  0  0  0
   39.2300   32.5740   40.6310 C   0  0  0  0  0  0  0  0  0  0  0  0
   40.5760   32.8720   40.2330 C   0  0  0  0  0  0  0  0  0  0  0  0
   41.6300   32.3210   40.8760 N   0  0  0  0  0  0  0  0  0  0  0  0
   41.4220   31.4710   41.9150 C   0  0  0  0  0  0  0  0  0  0  0  0
   40.1920   31.1910   42.2880 N   0  0  0  0  0  0  0  0  0  0  0  0
   38.0820   31.4760   41.9960 H   0  0  0  0  0  0  0  0  0  0  0  0
   40.8490   33.5190   39.4260 H   0  0  0  0  0  0  0  0  0  0  0  0
   42.2310   31.0050   42.4620 H   0  0  0  0  0  0  0  0  0  0  0  0
   36.1640   30.2480   38.5850 O   0  0  0  0  0  0  0  0  0  0  0  0
   34.1230   29.1570   39.7310 O   0  0  0  0  0  0  0  0  0  0  0  0
   35.5340   29.6410   40.0310 P   0  0  2  0  0  0  0  0  0  0  0  0
   35.5760   30.6800   41.3150 O   0  0  0  0  0  0  0  0  0  0  0  0
   35.4320   30.1640   42.1250 H   0  0  0  0  0  0  0  0  0  0  0  0
   36.4010   28.1750   40.3830 O   0  0  0  0  0  0  0  0  0  0  0  0
   37.1450   27.9750   41.5230 C   0  0  0  0  0  0  0  0  0  0  0  0
   36.7150   27.8520   42.8270 C   0  0  0  0  0  0  0  0  0  0  0  0
   37.6340   27.6510   43.8490 C   0  0  0  0  0  0  0  0  0  0  0  0
   38.9660   27.5770   43.5440 N   0  0  0  0  0  0  0  0  0  0  0  0
   39.3590   27.7000   42.2580 C   0  0  0  0  0  0  0  0  0  0  0  0
   38.4780   27.8960   41.2490 N   0  0  0  0  0  0  0  0  0  0  0  0
   35.6550   27.9250   42.9530 H   0  0  0  0  0  0  0  0  0  0  0  0
   37.2500   27.5590   44.8700 H   0  0  0  0  0  0  0  0  0  0  0  0
   41.1300   27.5900   41.9410 S   0  0  0  0  0  0  0  0  0  0  0  0
   41.8220   28.5050   42.7850 H   0  0  0  0  0  0  0  0  0  0  0  0
  1  4  1  6  0  0  0
  1  8  1  0  0  0  0
  2  3  1  0  0  0  0
  2  1  1  0  0  0  0
  3  1  1  0  0  0  0
  3  7  1  1  0  0  0
  5  2  1  0  0  0  0
  6  2  1  0  0  0  0
  8  9  2  0  0  0  0
  8 11  1  0  0  0  0
 10 16  1  0  0  0  0
 10 15  1  0  0  0  0
 11 10  2  0  0  0  0
 12 11  1  0  0  0  0
 12 13  2  0  0  0  0
 13 14  1  0  0  0  0
 14 15  2  0  0  0  0
 14 18  1  0  0  0  0
 17 12  1  0  0  0  0
 19  3  1  0  0  0  0
 19 21  1  0  0  0  0
 21 20  2  6  0  0  0
 21 24  1  0  0  0  0
 21 22  1  0  0  0  0
 22 23  1  0  0  0  0
 24 25  1  0  0  0  0
 25 26  1  0  0  0  0
 26 31  1  0  0  0  0
 26 27  2  0  0  0  0
 27 32  1  0  0  0  0
 28 27  1  0  0  0  0
 29 28  2  0  0  0  0
 30 25  2  0  0  0  0
 30 29  1  0  0  0  0
 33 29  1  0  0  0  0
 33 34  1  0  0  0  0
M  END
>  <minimizedAffinity>
-5.44153309

$$$$

 OpenBabel03242512133D

 34 36  0  0  1  0  0  0  0  0999 V2000
   39.4050   29.8240   42.5270 C   0  0  1  0  0  0  0  0  0  0  0  0
   39.6040   29.7660   40.9580 C   0  0  0  0  0  0  0  0  0  0  0  0
   38.8280   30.8100   41.5800 C   0  0  2  0  0  0  0  0  0  0  0  0
   40.3000   30.1040   43.0730 H   0  0  0  0  0  0  0  0  0  0  0  0
   39.1730   28.8850   40.4460 H   0  0  0  0  0  0  0  0  0  0  0  0
   40.6620   29.9320   40.6480 H   0  0  0  0  0  0  0  0  0  0  0  0
   37.7260   30.8440   41.6110 H   0  0  0  0  0  0  0  0  0  0  0  0
   38.5650   28.6890   43.0080 C   0  0  0  0  0  0  0  0  0  0  0  0
   37.4350   28.9550   43.4040 O   0  0  0  0  0  0  0  0  0  0  0  0
   38.2720   26.3010   42.5340 C   0  0  0  0  0  0  0  0  0  0  0  0
   38.9700   27.3290   43.0420 C   0  0  0  0  0  0  0  0  0  0  0  0
   40.2200   26.9970   43.6640 C   0  0  0  0  0  0  0  0  0  0  0  0
   40.6490   25.7160   43.7230 N   0  0  0  0  0  0  0  0  0  0  0  0
   39.8940   24.7220   43.1890 C   0  0  0  0  0  0  0  0  0  0  0  0
   38.7460   25.0150   42.6160 N   0  0  0  0  0  0  0  0  0  0  0  0
   37.3140   26.5150   42.0510 H   0  0  0  0  0  0  0  0  0  0  0  0
   40.8910   27.7020   44.1060 H   0  0  0  0  0  0  0  0  0  0  0  0
   40.1920   23.6830   43.2110 H   0  0  0  0  0  0  0  0  0  0  0  0
   39.3990   32.0670   41.5050 O   0  0  0  0  0  0  0  0  0  0  0  0
   38.7930   34.4520   40.7190 O   0  0  0  0  0  0  0  0  0  0  0  0
   38.4670   32.9910   40.4400 P   0  0  2  0  0  0  0  0  0  0  0  0
   36.8410   32.6980   40.4810 O   0  0  0  0  0  0  0  0  0  0  0  0
   36.4450   33.0820   39.6830 H   0  0  0  0  0  0  0  0  0  0  0  0
   39.1110   32.7280   38.8460 O   0  0  0  0  0  0  0  0  0  0  0  0
   40.4510   32.7710   38.5400 C   0  0  0  0  0  0  0  0  0  0  0  0
   41.3920   33.7120   38.9000 C   0  0  0  0  0  0  0  0  0  0  0  0
   42.7110   33.5750   38.4860 C   0  0  0  0  0  0  0  0  0  0  0  0
   43.0610   32.4980   37.7180 N   0  0  0  0  0  0  0  0  0  0  0  0
   42.1190   31.5910   37.3800 C   0  0  0  0  0  0  0  0  0  0  0  0
   40.8300   31.7080   37.7740 N   0  0  0  0  0  0  0  0  0  0  0  0
   41.0120   34.5110   39.5010 H   0  0  0  0  0  0  0  0  0  0  0  0
   43.4250   34.3440   38.7950 H   0  0  0  0  0  0  0  0  0  0  0  0
   42.6610   30.2020   36.3670 S   0  0  0  0  0  0  0  0  0  0  0  0
   43.3480   30.6900   35.2180 H   0  0  0  0  0  0  0  0  0  0  0  0
  1  8  1  0  0  0  0
  1  4  1  1  0  0  0
  2  3  1  0  0  0  0
  2  1  1  0  0  0  0
  3  7  1  6  0  0  0
  3  1  1  0  0  0  0
  5  2  1  0  0  0  0
  6  2  1  0  0  0  0
  8 11  1  0  0  0  0
  8  9  2  0  0  0  0
 10 15  2  0  0  0  0
 10 11  1  0  0  0  0
 11 12  2  0  0  0  0
 12 13  1  0  0  0  0
 12 17  1  0  0  0  0
 14 18  1  0  0  0  0
 14 13  2  0  0  0  0
 15 14  1  0  0  0  0
 16 10  1  0  0  0  0
 19  3  1  0  0  0  0
 21 22  1  0  0  0  0
 21 20  2  1  0  0  0
 21 19  1  0  0  0  0
 23 22  1  0  0  0  0
 24 21  1  0  0  0  0
 25 24  1  0  0  0  0
 25 26  1  0  0  0  0
 26 31  1  0  0  0  0
 27 32  1  0  0  0  0
 27 26  2  0  0  0  0
 28 27  1  0  0  0  0
 29 28  2  0  0  0  0
 29 30  1  0  0  0  0
 30 25  2  0  0  0  0
 33 29  1  0  0  0  0
 34 33  1  0  0  0  0
M  END
>  <minimizedAffinity>
-5.29495287

$$$$

 OpenBabel03242512133D

 34 36  0  0  1  0  0  0  0  0999 V2000
   39.1880   29.7120   42.7900 C   0  0  1  0  0  0  0  0  0  0  0  0
   39.7150   29.4770   41.3170 C   0  0  0  0  0  0  0  0  0  0  0  0
   38.6980   30.4570   41.6040 C   0  0  2  0  0  0  0  0  0  0  0  0
   39.9050   30.2020   43.4400 H   0  0  0  0  0  0  0  0  0  0  0  0
   39.5180   28.4770   40.8850 H   0  0  0  0  0  0  0  0  0  0  0  0
   40.7840   29.7660   41.1860 H   0  0  0  0  0  0  0  0  0  0  0  0
   37.6190   30.3190   41.4240 H   0  0  0  0  0  0  0  0  0  0  0  0
   38.4210   28.5330   43.2860 C   0  0  0  0  0  0  0  0  0  0  0  0
   37.3070   28.7440   43.7540 O   0  0  0  0  0  0  0  0  0  0  0  0
   39.9720   26.7290   43.8810 C   0  0  0  0  0  0  0  0  0  0  0  0
   38.8760   27.1890   43.2560 C   0  0  0  0  0  0  0  0  0  0  0  0
   38.1260   26.2240   42.5050 C   0  0  0  0  0  0  0  0  0  0  0  0
   38.5200   24.9310   42.4440 N   0  0  0  0  0  0  0  0  0  0  0  0
   39.6390   24.5310   43.1000 C   0  0  0  0  0  0  0  0  0  0  0  0
   40.3340   25.4080   43.7920 N   0  0  0  0  0  0  0  0  0  0  0  0
   40.5700   27.4360   44.4640 H   0  0  0  0  0  0  0  0  0  0  0  0
   37.2290   26.4310   41.9610 H   0  0  0  0  0  0  0  0  0  0  0  0
   39.9960   23.5100   43.0830 H   0  0  0  0  0  0  0  0  0  0  0  0
   39.1040   31.7680   41.4320 O   0  0  0  0  0  0  0  0  0  0  0  0
   38.3400   33.9880   40.3560 O   0  0  0  0  0  0  0  0  0  0  0  0
   38.0390   32.4960   40.3410 P   0  0  2  0  0  0  0  0  0  0  0  0
   36.4370   32.1830   40.5950 O   0  0  0  0  0  0  0  0  0  0  0  0
   35.9500   32.4300   39.7930 H   0  0  0  0  0  0  0  0  0  0  0  0
   38.5290   31.9980   38.7480 O   0  0  0  0  0  0  0  0  0  0  0  0
   38.2050   30.7840   38.1870 C   0  0  0  0  0  0  0  0  0  0  0  0
   39.0330   29.8610   37.5830 C   0  0  0  0  0  0  0  0  0  0  0  0
   38.5070   28.6810   37.0730 C   0  0  0  0  0  0  0  0  0  0  0  0
   37.1630   28.4500   37.1770 N   0  0  0  0  0  0  0  0  0  0  0  0
   36.3750   29.3710   37.7730 C   0  0  0  0  0  0  0  0  0  0  0  0
   36.8700   30.5260   38.2760 N   0  0  0  0  0  0  0  0  0  0  0  0
   40.0650   30.1420   37.5570 H   0  0  0  0  0  0  0  0  0  0  0  0
   39.1990   27.9760   36.6020 H   0  0  0  0  0  0  0  0  0  0  0  0
   34.6160   28.9910   37.8700 S   0  0  0  0  0  0  0  0  0  0  0  0
   34.1300   28.6530   36.5740 H   0  0  0  0  0  0  0  0  0  0  0  0
  1  8  1  0  0  0  0
  1  4  1  1  0  0  0
  2  3  1  0  0  0  0
  2  1  1  0  0  0  0
  3  7  1  6  0  0  0
  3  1  1  0  0  0  0
  5  2  1  0  0  0  0
  6  2  1  0  0  0  0
  8  9  2  0  0  0  0
 10 16  1  0  0  0  0
 11  8  1  0  0  0  0
 11 10  2  0  0  0  0
 12 11  1  0  0  0  0
 13 12  2  0  0  0  0
 13 14  1  0  0  0  0
 14 15  2  0  0  0  0
 15 10  1  0  0  0  0
 17 12  1  0  0  0  0
 18 14  1  0  0  0  0
 19  3  1  0  0  0  0
 21 20  2  1  0  0  0
 21 22  1  0  0  0  0
 21 19  1  0  0  0  0
 23 22  1  0  0  0  0
 24 21  1  0  0  0  0
 25 30  1  0  0  0  0
 25 24  1  0  0  0  0
 26 25  2  0  0  0  0
 27 28  2  0  0  0  0
 27 26  1  0  0  0  0
 28 29  1  0  0  0  0
 29 33  1  0  0  0  0
 29 30  2  0  0  0  0
 31 26  1  0  0  0  0
 32 27  1  0  0  0  0
 34 33  1  0  0  0  0
M  END
>  <minimizedAffinity>
-5.19549084

$$$$

 OpenBabel03242512133D

 34 36  0  0  1  0  0  0  0  0999 V2000
   38.3740   33.2560   40.4370 C   0  0  1  0  0  0  0  0  0  0  0  0
   37.1940   33.4750   39.4060 C   0  0  0  0  0  0  0  0  0  0  0  0
   37.4520   32.1830   39.9920 C   0  0  2  0  0  0  0  0  0  0  0  0
   38.1980   33.7090   41.4080 H   0  0  0  0  0  0  0  0  0  0  0  0
   37.4930   33.7700   38.3820 H   0  0  0  0  0  0  0  0  0  0  0  0
   36.3920   34.1430   39.7980 H   0  0  0  0  0  0  0  0  0  0  0  0
   37.9710   31.3520   39.4850 H   0  0  0  0  0  0  0  0  0  0  0  0
   39.7040   33.4040   39.7780 C   0  0  0  0  0  0  0  0  0  0  0  0
   40.2330   34.5100   39.8220 O   0  0  0  0  0  0  0  0  0  0  0  0
   40.5680   32.2760   37.7800 C   0  0  0  0  0  0  0  0  0  0  0  0
   40.4050   32.3670   39.1100 C   0  0  0  0  0  0  0  0  0  0  0  0
   40.9960   31.3190   39.8910 C   0  0  0  0  0  0  0  0  0  0  0  0
   41.6730   30.3080   39.3010 N   0  0  0  0  0  0  0  0  0  0  0  0
   41.8020   30.2750   37.9500 C   0  0  0  0  0  0  0  0  0  0  0  0
   41.2640   31.2310   37.2240 N   0  0  0  0  0  0  0  0  0  0  0  0
   40.1320   33.0570   37.1510 H   0  0  0  0  0  0  0  0  0  0  0  0
   40.9610   31.2540   40.9580 H   0  0  0  0  0  0  0  0  0  0  0  0
   42.3330   29.4890   37.4300 H   0  0  0  0  0  0  0  0  0  0  0  0
   36.4730   31.7460   40.8650 O   0  0  0  0  0  0  0  0  0  0  0  0
   37.5170   29.6160   39.8430 O   0  0  0  0  0  0  0  0  0  0  0  0
   36.5760   30.0620   40.9530 P   0  0  2  0  0  0  0  0  0  0  0  0
   35.1330   29.2580   40.9050 O   0  0  0  0  0  0  0  0  0  0  0  0
   35.2840   28.3490   41.2080 H   0  0  0  0  0  0  0  0  0  0  0  0
   37.4540   29.6850   42.4060 O   0  0  0  0  0  0  0  0  0  0  0  0
   38.1520   28.5160   42.6040 C   0  0  0  0  0  0  0  0  0  0  0  0
   39.4380   28.3430   43.0700 C   0  0  0  0  0  0  0  0  0  0  0  0
   39.9670   27.0650   43.2010 C   0  0  0  0  0  0  0  0  0  0  0  0
   39.1970   25.9860   42.8620 N   0  0  0  0  0  0  0  0  0  0  0  0
   37.9400   26.1850   42.4090 C   0  0  0  0  0  0  0  0  0  0  0  0
   37.4080   27.4220   42.2750 N   0  0  0  0  0  0  0  0  0  0  0  0
   39.9500   29.2520   43.3050 H   0  0  0  0  0  0  0  0  0  0  0  0
   40.9910   26.9730   43.5740 H   0  0  0  0  0  0  0  0  0  0  0  0
   36.9910   24.7120   41.9850 S   0  0  0  0  0  0  0  0  0  0  0  0
   37.7450   23.9030   41.0870 H   0  0  0  0  0  0  0  0  0  0  0  0
  1  4  1  1  0  0  0
  2  6  1  0  0  0  0
  2  3  1  0  0  0  0
  2  1  1  0  0  0  0
  3  7  1  6  0  0  0
  3  1  1  0  0  0  0
  3 19  1  0  0  0  0
  5  2  1  0  0  0  0
  8  9  2  0  0  0  0
  8  1  1  0  0  0  0
 10 11  1  0  0  0  0
 11  8  1  0  0  0  0
 11 12  2  0  0  0  0
 12 17  1  0  0  0  0
 13 12  1  0  0  0  0
 14 13  2  0  0  0  0
 15 10  2  0  0  0  0
 15 14  1  0  0  0  0
 16 10  1  0  0  0  0
 18 14  1  0  0  0  0
 19 21  1  0  0  0  0
 21 20  2  6  0  0  0
 21 24  1  0  0  0  0
 22 21  1  0  0  0  0
 22 23  1  0  0  0  0
 24 25  1  0  0  0  0
 25 26  1  0  0  0  0
 26 27  2  0  0  0  0
 26 31  1  0  0  0  0
 27 32  1  0  0  0  0
 28 27  1  0  0  0  0
 29 28  2  0  0  0  0
 30 29  1  0  0  0  0
 30 25  2  0  0  0  0
 33 29  1  0  0  0  0
 34 33  1  0  0  0  0
M  END
>  <minimizedAffinity>
-5.12302876

$$$$

 OpenBabel03242512133D

 34 36  0  0  1  0  0  0  0  0999 V2000
   36.5250   28.0610   41.6090 C   0  0  1  0  0  0  0  0  0  0  0  0
   36.9740   29.5740   41.7220 C   0  0  0  0  0  0  0  0  0  0  0  0
   37.5600   28.6860   40.7490 C   0  0  2  0  0  0  0  0  0  0  0  0
   35.5300   27.9290   41.1950 H   0  0  0  0  0  0  0  0  0  0  0  0
   37.4560   29.8670   42.6740 H   0  0  0  0  0  0  0  0  0  0  0  0
   36.1660   30.2900   41.4450 H   0  0  0  0  0  0  0  0  0  0  0  0
   38.5480   28.2060   40.8470 H   0  0  0  0  0  0  0  0  0  0  0  0
   36.9390   27.2810   42.8100 C   0  0  0  0  0  0  0  0  0  0  0  0
   36.2240   27.3580   43.8040 O   0  0  0  0  0  0  0  0  0  0  0  0
   38.2630   25.2990   42.2350 C   0  0  0  0  0  0  0  0  0  0  0  0
   38.0910   26.4560   42.8930 C   0  0  0  0  0  0  0  0  0  0  0  0
   39.1730   26.8670   43.7400 C   0  0  0  0  0  0  0  0  0  0  0  0
   40.2920   26.1160   43.8540 N   0  0  0  0  0  0  0  0  0  0  0  0
   40.4030   24.9540   43.1600 C   0  0  0  0  0  0  0  0  0  0  0  0
   39.4160   24.5680   42.3800 N   0  0  0  0  0  0  0  0  0  0  0  0
   37.4590   24.9530   41.5780 H   0  0  0  0  0  0  0  0  0  0  0  0
   39.1910   27.7650   44.3210 H   0  0  0  0  0  0  0  0  0  0  0  0
   41.2760   24.3180   43.2160 H   0  0  0  0  0  0  0  0  0  0  0  0
   37.2400   28.9850   39.4380 O   0  0  0  0  0  0  0  0  0  0  0  0
   38.6620   29.5420   37.3540 O   0  0  0  0  0  0  0  0  0  0  0  0
   38.4820   29.9440   38.8110 P   0  0  2  0  0  0  0  0  0  0  0  0
   39.9060   29.8980   39.6490 O   0  0  0  0  0  0  0  0  0  0  0  0
   40.4480   30.6510   39.3640 H   0  0  0  0  0  0  0  0  0  0  0  0
   37.8660   31.5670   38.7130 O   0  0  0  0  0  0  0  0  0  0  0  0
   38.5090   32.6680   39.2280 C   0  0  0  0  0  0  0  0  0  0  0  0
   37.9960   33.6900   39.9990 C   0  0  0  0  0  0  0  0  0  0  0  0
   38.8200   34.7240   40.4260 C   0  0  0  0  0  0  0  0  0  0  0  0
   40.1410   34.7150   40.0710 N   0  0  0  0  0  0  0  0  0  0  0  0
   40.6170   33.7020   39.3150 C   0  0  0  0  0  0  0  0  0  0  0  0
   39.8300   32.6860   38.8900 N   0  0  0  0  0  0  0  0  0  0  0  0
   36.9530   33.5980   40.2190 H   0  0  0  0  0  0  0  0  0  0  0  0
   38.3720   35.5140   41.0360 H   0  0  0  0  0  0  0  0  0  0  0  0
   42.3680   33.7640   38.8910 S   0  0  0  0  0  0  0  0  0  0  0  0
   42.6730   35.0300   38.3140 H   0  0  0  0  0  0  0  0  0  0  0  0
  1  4  1  6  0  0  0
  1  2  1  0  0  0  0
  1  8  1  0  0  0  0
  2  5  1  0  0  0  0
  3  7  1  1  0  0  0
  3  1  1  0  0  0  0
  3  2  1  0  0  0  0
  6  2  1  0  0  0  0
  8 11  1  0  0  0  0
  8  9  2  0  0  0  0
 10 15  2  0  0  0  0
 10 11  1  0  0  0  0
 11 12  2  0  0  0  0
 12 13  1  0  0  0  0
 12 17  1  0  0  0  0
 14 18  1  0  0  0  0
 14 13  2  0  0  0  0
 15 14  1  0  0  0  0
 16 10  1  0  0  0  0
 19  3  1  0  0  0  0
 21 20  2  6  0  0  0
 21 19  1  0  0  0  0
 21 22  1  0  0  0  0
 23 22  1  0  0  0  0
 24 21  1  0  0  0  0
 24 25  1  0  0  0  0
 25 26  1  0  0  0  0
 26 31  1  0  0  0  0
 26 27  2  0  0  0  0
 27 32  1  0  0  0  0
 28 27  1  0  0  0  0
 29 28  2  0  0  0  0
 30 25  2  0  0  0  0
 30 29  1  0  0  0  0
 33 29  1  0  0  0  0
 34 33  1  0  0  0  0
M  END
>  <minimizedAffinity>
-5.10697937

$$$$

 OpenBabel03242512133D

 34 36  0  0  1  0  0  0  0  0999 V2000
   40.8210   30.8970   38.7940 C   0  0  1  0  0  0  0  0  0  0  0  0
   40.9210   31.9180   39.9970 C   0  0  0  0  0  0  0  0  0  0  0  0
   39.6460   31.4820   39.4850 C   0  0  2  0  0  0  0  0  0  0  0  0
   41.1120   29.8840   39.0520 H   0  0  0  0  0  0  0  0  0  0  0  0
   41.3890   32.8940   39.7670 H   0  0  0  0  0  0  0  0  0  0  0  0
   41.3660   31.4680   40.9150 H   0  0  0  0  0  0  0  0  0  0  0  0
   39.0000   32.0730   38.8130 H   0  0  0  0  0  0  0  0  0  0  0  0
   41.3060   31.5070   37.5220 C   0  0  0  0  0  0  0  0  0  0  0  0
   40.5630   32.3090   36.9650 O   0  0  0  0  0  0  0  0  0  0  0  0
   42.7880   30.2500   36.0270 C   0  0  0  0  0  0  0  0  0  0  0  0
   42.5570   31.2350   36.9090 C   0  0  0  0  0  0  0  0  0  0  0  0
   43.6800   32.0630   37.2410 C   0  0  0  0  0  0  0  0  0  0  0  0
   44.8940   31.8440   36.6860 N   0  0  0  0  0  0  0  0  0  0  0  0
   45.0620   30.8290   35.7990 C   0  0  0  0  0  0  0  0  0  0  0  0
   44.0370   30.0650   35.4870 N   0  0  0  0  0  0  0  0  0  0  0  0
   41.9550   29.5990   35.7490 H   0  0  0  0  0  0  0  0  0  0  0  0
   43.6550   32.8900   37.9190 H   0  0  0  0  0  0  0  0  0  0  0  0
   46.0110   30.6130   35.3280 H   0  0  0  0  0  0  0  0  0  0  0  0
   38.9240   30.6860   40.3540 O   0  0  0  0  0  0  0  0  0  0  0  0
   36.7720   30.7340   38.9270 O   0  0  0  0  0  0  0  0  0  0  0  0
   37.3090   31.1770   40.2800 P   0  0  2  0  0  0  0  0  0  0  0  0
   37.0410   32.7840   40.5600 O   0  0  0  0  0  0  0  0  0  0  0  0
   36.0960   32.9060   40.7400 H   0  0  0  0  0  0  0  0  0  0  0  0
   36.4290   30.1900   41.4100 O   0  0  0  0  0  0  0  0  0  0  0  0
   36.9170   29.0290   41.9630 C   0  0  0  0  0  0  0  0  0  0  0  0
   37.5250   28.8410   43.1860 C   0  0  0  0  0  0  0  0  0  0  0  0
   37.9530   27.5750   43.5650 C   0  0  0  0  0  0  0  0  0  0  0  0
   37.7630   26.5220   42.7120 N   0  0  0  0  0  0  0  0  0  0  0  0
   37.1640   26.7350   41.5200 C   0  0  0  0  0  0  0  0  0  0  0  0
   36.7410   27.9620   41.1330 N   0  0  0  0  0  0  0  0  0  0  0  0
   37.6220   29.7290   43.7740 H   0  0  0  0  0  0  0  0  0  0  0  0
   38.4300   27.4700   44.5440 H   0  0  0  0  0  0  0  0  0  0  0  0
   36.9520   25.2980   40.4540 S   0  0  0  0  0  0  0  0  0  0  0  0
   38.2020   24.6340   40.2950 H   0  0  0  0  0  0  0  0  0  0  0  0
  1  4  1  1  0  0  0
  1  3  1  0  0  0  0
  1  2  1  0  0  0  0
  2  6  1  0  0  0  0
  3  7  1  6  0  0  0
  3  2  1  0  0  0  0
  3 19  1  0  0  0  0
  5  2  1  0  0  0  0
  8  1  1  0  0  0  0
  9  8  2  0  0  0  0
 10 11  1  0  0  0  0
 11 12  2  0  0  0  0
 11  8  1  0  0  0  0
 12 17  1  0  0  0  0
 13 12  1  0  0  0  0
 14 13  2  0  0  0  0
 15 14  1  0  0  0  0
 15 10  2  0  0  0  0
 16 10  1  0  0  0  0
 18 14  1  0  0  0  0
 21 20  2  6  0  0  0
 21 19  1  0  0  0  0
 21 22  1  0  0  0  0
 21 24  1  0  0  0  0
 22 23  1  0  0  0  0
 24 25  1  0  0  0  0
 25 26  1  0  0  0  0
 26 27  2  0  0  0  0
 26 31  1  0  0  0  0
 27 32  1  0  0  0  0
 28 27  1  0  0  0  0
 29 28  2  0  0  0  0
 30 29  1  0  0  0  0
 30 25  2  0  0  0  0
 33 29  1  0  0  0  0
 34 33  1  0  0  0  0
M  END
>  <minimizedAffinity>
-5.071383

$$$$

 OpenBabel03242512133D

 34 36  0  0  1  0  0  0  0  0999 V2000
   38.4550   27.4180   43.4420 C   0  0  1  0  0  0  0  0  0  0  0  0
   39.5420   28.4990   43.0500 C   0  0  0  0  0  0  0  0  0  0  0  0
   38.2500   28.4640   42.4100 C   0  0  2  0  0  0  0  0  0  0  0  0
   38.0130   27.5740   44.4210 H   0  0  0  0  0  0  0  0  0  0  0  0
   40.4750   28.1080   42.6020 H   0  0  0  0  0  0  0  0  0  0  0  0
   39.7630   29.2130   43.8770 H   0  0  0  0  0  0  0  0  0  0  0  0
   38.0540   28.0480   41.4070 H   0  0  0  0  0  0  0  0  0  0  0  0
   38.8780   26.0490   43.0280 C   0  0  0  0  0  0  0  0  0  0  0  0
   39.7620   25.5110   43.6870 O   0  0  0  0  0  0  0  0  0  0  0  0
   38.9310   25.1610   40.7430 C   0  0  0  0  0  0  0  0  0  0  0  0
   38.3370   25.3210   41.9360 C   0  0  0  0  0  0  0  0  0  0  0  0
   37.0550   24.6960   42.0920 C   0  0  0  0  0  0  0  0  0  0  0  0
   36.4970   23.9930   41.0810 N   0  0  0  0  0  0  0  0  0  0  0  0
   37.1510   23.8690   39.8980 C   0  0  0  0  0  0  0  0  0  0  0  0
   38.3280   24.4370   39.7450 N   0  0  0  0  0  0  0  0  0  0  0  0
   39.9110   25.6220   40.5870 H   0  0  0  0  0  0  0  0  0  0  0  0
   36.4620   24.7250   42.9810 H   0  0  0  0  0  0  0  0  0  0  0  0
   36.7480   23.3170   39.0590 H   0  0  0  0  0  0  0  0  0  0  0  0
   37.4360   29.5400   42.7100 O   0  0  0  0  0  0  0  0  0  0  0  0
   38.1500   31.1740   40.8410 O   0  0  0  0  0  0  0  0  0  0  0  0
   36.9950   30.2720   41.2520 P   0  0  2  0  0  0  0  0  0  0  0  0
   35.5520   31.0790   41.2700 O   0  0  0  0  0  0  0  0  0  0  0  0
   35.2840   31.2380   40.3510 H   0  0  0  0  0  0  0  0  0  0  0  0
   37.0000   29.0260   40.0390 O   0  0  0  0  0  0  0  0  0  0  0  0
   36.6640   29.2330   38.7210 C   0  0  0  0  0  0  0  0  0  0  0  0
   37.4350   29.7490   37.7010 C   0  0  0  0  0  0  0  0  0  0  0  0
   36.9060   29.8780   36.4230 C   0  0  0  0  0  0  0  0  0  0  0  0
   35.6150   29.4880   36.1920 N   0  0  0  0  0  0  0  0  0  0  0  0
   34.8820   28.9860   37.2100 C   0  0  0  0  0  0  0  0  0  0  0  0
   35.3810   28.8530   38.4610 N   0  0  0  0  0  0  0  0  0  0  0  0
   38.4280   30.0200   37.9910 H   0  0  0  0  0  0  0  0  0  0  0  0
   37.5520   30.2920   35.6430 H   0  0  0  0  0  0  0  0  0  0  0  0
   33.1910   28.4960   36.8230 S   0  0  0  0  0  0  0  0  0  0  0  0
   32.5180   29.5760   36.1820 H   0  0  0  0  0  0  0  0  0  0  0  0
  1  4  1  1  0  0  0
  2  1  1  0  0  0  0
  2  6  1  0  0  0  0
  3  7  1  6  0  0  0
  3 19  1  0  0  0  0
  3  2  1  0  0  0  0
  3  1  1  0  0  0  0
  5  2  1  0  0  0  0
  8  1  1  0  0  0  0
  8  9  2  0  0  0  0
 10 11  1  0  0  0  0
 11 12  2  0  0  0  0
 11  8  1  0  0  0  0
 12 17  1  0  0  0  0
 13 12  1  0  0  0  0
 14 13  2  0  0  0  0
 15 14  1  0  0  0  0
 15 10  2  0  0  0  0
 16 10  1  0  0  0  0
 18 14  1  0  0  0  0
 21 20  2  6  0  0  0
 21 22  1  0  0  0  0
 21 19  1  0  0  0  0
 23 22  1  0  0  0  0
 24 21  1  0  0  0  0
 25 24  1  0  0  0  0
 26 31  1  0  0  0  0
 26 25  2  0  0  0  0
 27 26  1  0  0  0  0
 28 27  2  0  0  0  0
 28 29  1  0  0  0  0
 29 30  2  0  0  0  0
 30 25  1  0  0  0  0
 32 27  1  0  0  0  0
 33 29  1  0  0  0  0
 34 33  1  0  0  0  0
M  END
>  <minimizedAffinity>
-5.07100773

$$$$

 OpenBabel03242512133D

 34 36  0  0  1  0  0  0  0  0999 V2000
   37.2290   29.8740   38.0810 C   0  0  1  0  0  0  0  0  0  0  0  0
   38.3620   28.8000   37.8210 C   0  0  0  0  0  0  0  0  0  0  0  0
   37.9440   29.1450   39.1580 C   0  0  2  0  0  0  0  0  0  0  0  0
   36.2340   29.5360   37.8100 H   0  0  0  0  0  0  0  0  0  0  0  0
   39.2830   29.1740   37.3360 H   0  0  0  0  0  0  0  0  0  0  0  0
   37.9850   27.8840   37.3110 H   0  0  0  0  0  0  0  0  0  0  0  0
   38.4960   29.8150   39.8380 H   0  0  0  0  0  0  0  0  0  0  0  0
   37.6800   31.2420   37.6940 C   0  0  0  0  0  0  0  0  0  0  0  0
   37.4670   31.5980   36.5390 O   0  0  0  0  0  0  0  0  0  0  0  0
   39.6620   32.3170   38.6580 C   0  0  0  0  0  0  0  0  0  0  0  0
   38.3320   32.1620   38.5550 C   0  0  0  0  0  0  0  0  0  0  0  0
   37.5320   33.0060   39.3940 C   0  0  0  0  0  0  0  0  0  0  0  0
   38.1060   33.8980   40.2330 N   0  0  0  0  0  0  0  0  0  0  0  0
   39.4580   34.0060   40.2890 C   0  0  0  0  0  0  0  0  0  0  0  0
   40.2020   33.2360   39.5230 N   0  0  0  0  0  0  0  0  0  0  0  0
   40.3050   31.6910   38.0320 H   0  0  0  0  0  0  0  0  0  0  0  0
   36.4630   33.0090   39.4220 H   0  0  0  0  0  0  0  0  0  0  0  0
   39.9650   34.7020   40.9420 H   0  0  0  0  0  0  0  0  0  0  0  0
   37.2800   28.1340   39.8270 O   0  0  0  0  0  0  0  0  0  0  0  0
   34.9990   28.9670   40.7060 O   0  0  0  0  0  0  0  0  0  0  0  0
   36.4560   28.8320   41.1260 P   0  0  2  0  0  0  0  0  0  0  0  0
   37.0790   30.2600   41.6780 O   0  0  0  0  0  0  0  0  0  0  0  0
   36.6990   30.4370   42.5530 H   0  0  0  0  0  0  0  0  0  0  0  0
   36.4060   27.6400   42.3920 O   0  0  0  0  0  0  0  0  0  0  0  0
   37.2740   26.5770   42.4830 C   0  0  0  0  0  0  0  0  0  0  0  0
   37.0810   25.2660   42.1010 C   0  0  0  0  0  0  0  0  0  0  0  0
   38.0930   24.3310   42.2780 C   0  0  0  0  0  0  0  0  0  0  0  0
   39.2780   24.7280   42.8360 N   0  0  0  0  0  0  0  0  0  0  0  0
   39.4390   26.0180   43.2020 C   0  0  0  0  0  0  0  0  0  0  0  0
   38.4650   26.9430   43.0360 N   0  0  0  0  0  0  0  0  0  0  0  0
   36.1200   25.0660   41.6760 H   0  0  0  0  0  0  0  0  0  0  0  0
   37.8980   23.3030   41.9610 H   0  0  0  0  0  0  0  0  0  0  0  0
   41.0290   26.4590   43.9290 S   0  0  0  0  0  0  0  0  0  0  0  0
   41.3210   25.5740   45.0060 H   0  0  0  0  0  0  0  0  0  0  0  0
  1  4  1  6  0  0  0
  1  3  1  0  0  0  0
  2  1  1  0  0  0  0
  2  3  1  0  0  0  0
  3 19  1  0  0  0  0
  3  7  1  1  0  0  0
  5  2  1  0  0  0  0
  6  2  1  0  0  0  0
  8  1  1  0  0  0  0
  8 11  1  0  0  0  0
  9  8  2  0  0  0  0
 10 15  1  0  0  0  0
 11 10  2  0  0  0  0
 11 12  1  0  0  0  0
 12 17  1  0  0  0  0
 12 13  2  0  0  0  0
 13 14  1  0  0  0  0
 14 18  1  0  0  0  0
 15 14  2  0  0  0  0
 16 10  1  0  0  0  0
 19 21  1  0  0  0  0
 21 20  2  6  0  0  0
 21 22  1  0  0  0  0
 21 24  1  0  0  0  0
 22 23  1  0  0  0  0
 24 25  1  0  0  0  0
 25 30  1  0  0  0  0
 26 27  1  0  0  0  0
 26 25  2  0  0  0  0
 27 28  2  0  0  0  0
 28 29  1  0  0  0  0
 29 33  1  0  0  0  0
 30 29  2  0  0  0  0
 31 26  1  0  0  0  0
 32 27  1  0  0  0  0
 33 34  1  0  0  0  0
M  END
>  <minimizedAffinity>
-5.06708574

$$$$
