REMARK  Name = 
REMARK  5 active torsions:
REMARK  status: ('A' for Active; 'I' for Inactive)
REMARK    1  A    between atoms: C_1  and  C_2
REMARK    2  A    between atoms: C_1  and  C_9
REMARK    3  A    between atoms: C_3  and  S_8
REMARK    4  A    between atoms: C_9  and  C_10
REMARK    5  A    between atoms: C_13  and  S_23
REMARK                            x       y       z     vdW  Elec       q    Type
REMARK                         _______ _______ _______ _____ _____    ______ ____
ROOT
ATOM      1  C   UNL     1      46.697  34.252  40.699  0.00  0.00    +0.000 C 
ATOM      2  H   UNL     1      46.706  35.091  39.948  0.00  0.00    +0.000 HD
ATOM      3  H   UNL     1      46.435  33.360  40.146  0.00  0.00    +0.000 HD
ENDROOT
BRANCH   1   4
ATOM      4  C   UNL     1      48.040  34.185  41.302  0.00  0.00    +0.000 A 
ATOM      5  C   UNL     1      48.738  32.986  41.164  0.00  0.00    +0.000 A 
ATOM      6  C   UNL     1      50.009  32.880  41.719  0.00  0.00    +0.000 A 
ATOM      7  N   UNL     1      50.526  33.949  42.377  0.00  0.00    +0.000 NA
ATOM      8  C   UNL     1      49.819  35.098  42.491  0.00  0.00    +0.000 A 
ATOM      9  N   UNL     1      48.607  35.191  41.959  0.00  0.00    +0.000 NA
ATOM     10  H   UNL     1      50.564  31.954  41.620  0.00  0.00    +0.000 HD
ATOM     11  H   UNL     1      50.311  35.896  43.032  0.00  0.00    +0.000 HD
BRANCH   5  12
ATOM     12  S   UNL     1      48.002  31.598  40.279  0.00  0.00    +0.000 S 
ATOM     13  H   UNL     1      48.912  31.093  39.330  0.00  0.00    +0.000 HD
ENDBRANCH   5  12
ENDBRANCH   1   4
BRANCH   1  14
ATOM     14  C   UNL     1      45.614  34.579  41.685  0.00  0.00    +0.000 C 
ATOM     15  H   UNL     1      45.554  33.776  42.448  0.00  0.00    +0.000 HD
ATOM     16  H   UNL     1      45.864  35.540  42.176  0.00  0.00    +0.000 HD
BRANCH  14  17
ATOM     17  C   UNL     1      44.253  34.653  41.061  0.00  0.00    +0.000 A 
ATOM     18  C   UNL     1      43.239  35.455  41.681  0.00  0.00    +0.000 A 
ATOM     19  S   UNL     1      41.790  35.223  40.566  0.00  0.00    +0.000 S 
ATOM     20  C   UNL     1      42.821  34.081  39.463  0.00  0.00    +0.000 A 
ATOM     21  N   UNL     1      43.827  34.059  39.972  0.00  0.00    +0.000 NA
ATOM     22  H   UNL     1      43.195  36.069  42.548  0.00  0.00    +0.000 HD
BRANCH  20  23
ATOM     23  S   UNL     1      42.472  33.082  37.828  0.00  0.00    +0.000 S 
ATOM     24  H   UNL     1      41.601  32.116  38.330  0.00  0.00    +0.000 HD
ENDBRANCH  20  23
ENDBRANCH  14  17
ENDBRANCH   1  14
TORSDOF 5
