
     RDKit          3D

 40 42  0  0  0  0  0  0  0  0999 V2000
   47.3226   33.6304   42.8397 C   0  0  0  0  0  0  0  0  0  0  0  0
   48.4203   33.4087   43.4370 O   0  0  0  0  0  0  0  0  0  0  0  0
   47.0306   33.1238   41.5461 N   0  0  0  0  0  0  0  0  0  0  0  0
   45.8062   32.4986   41.0252 C   0  0  0  0  0  0  0  0  0  0  0  0
   45.3747   33.1817   39.7479 C   0  0  0  0  0  0  0  0  0  0  0  0
   46.4298   33.0166   38.6837 C   0  0  0  0  0  0  0  0  0  0  0  0
   47.6981   32.4621   39.3071 C   0  0  0  0  0  0  0  0  0  0  0  0
   48.0566   33.2039   40.5429 C   0  0  2  0  0  0  0  0  0  0  0  0
   45.9674   35.6610   42.9177 C   0  0  0  0  0  0  0  0  0  0  0  0
   46.3345   34.4322   43.5107 C   0  0  0  0  0  0  0  0  0  0  0  0
   45.7448   34.0361   44.7022 C   0  0  0  0  0  0  0  0  0  0  0  0
   44.8284   34.8494   45.2612 N   0  0  0  0  0  0  0  0  0  0  0  0
   44.4624   36.0413   44.7001 C   0  0  0  0  0  0  0  0  0  0  0  0
   45.0424   36.4202   43.5377 N   0  0  0  0  0  0  0  0  0  0  0  0
   46.1467   32.7664   45.2831 C   0  0  0  0  0  0  0  0  0  0  0  0
   45.7691   31.5964   44.7097 C   0  0  0  0  0  0  0  0  0  0  0  0
   46.1728   30.4096   45.2943 C   0  0  0  0  0  0  0  0  0  0  0  0
   46.9492   30.3605   46.4444 C   0  0  0  0  0  0  0  0  0  0  0  0
   47.3071   31.5900   46.9894 C   0  0  0  0  0  0  0  0  0  0  0  0
   46.8989   32.7138   46.3975 N   0  0  0  0  0  0  0  0  0  0  0  0
   49.4202   32.7964   41.0283 C   0  0  0  0  0  0  0  0  0  0  0  0
   45.9059   31.4216   40.8987 H   0  0  0  0  0  0  0  0  0  0  0  0
   45.0142   32.7453   41.7736 H   0  0  0  0  0  0  0  0  0  0  0  0
   44.4815   32.6299   39.3868 H   0  0  0  0  0  0  0  0  0  0  0  0
   45.0679   34.2146   39.9384 H   0  0  0  0  0  0  0  0  0  0  0  0
   46.7107   34.0429   38.3100 H   0  0  0  0  0  0  0  0  0  0  0  0
   46.1188   32.4223   37.8243 H   0  0  0  0  0  0  0  0  0  0  0  0
   48.5042   32.6099   38.5478 H   0  0  0  0  0  0  0  0  0  0  0  0
   47.5491   31.3823   39.4961 H   0  0  0  0  0  0  0  0  0  0  0  0
   48.1265   34.2863   40.2629 H   0  0  0  0  0  0  0  0  0  0  0  0
   46.4372   35.9482   41.9941 H   0  0  0  0  0  0  0  0  0  0  0  0
   43.7184   36.6201   45.2275 H   0  0  0  0  0  0  0  0  0  0  0  0
   45.1755   31.5141   43.8288 H   0  0  0  0  0  0  0  0  0  0  0  0
   45.8765   29.4489   44.8437 H   0  0  0  0  0  0  0  0  0  0  0  0
   47.2407   29.4208   46.8655 H   0  0  0  0  0  0  0  0  0  0  0  0
   47.9078   31.5910   47.8798 H   0  0  0  0  0  0  0  0  0  0  0  0
   50.0697   32.7983   40.0978 H   0  0  0  0  0  0  0  0  0  0  0  0
   49.9042   33.5322   41.6858 H   0  0  0  0  0  0  0  0  0  0  0  0
   49.4696   31.1001   41.6321 S   0  0  0  0  0  0  0  0  0  0  0  0
   48.5796   30.8711   42.6966 H   0  0  0  0  0  0  0  0  0  0  0  0
  1  2  2  0
  1 10  1  0
  3  1  1  0
  4  3  1  0
  5  4  1  0
  6  7  1  0
  6  5  1  0
  7  8  1  0
  8 21  1  0
  8  3  1  0
  9 10  2  0
  9 14  1  0
 10 11  1  0
 11 12  2  0
 11 15  1  0
 13 12  1  0
 14 13  2  0
 15 20  1  0
 16 15  2  0
 16 17  1  0
 17 18  2  0
 18 19  1  0
 20 19  2  0
  4 22  1  0
  4 23  1  0
  5 24  1  0
  5 25  1  0
  6 26  1  0
  6 27  1  0
  7 28  1  0
  7 29  1  0
  8 30  1  6
  9 31  1  0
 13 32  1  0
 16 33  1  0
 17 34  1  0
 18 35  1  0
 19 36  1  0
 21 37  1  0
 21 38  1  0
 39 40  1  0
 21 39  1  0
M  ISO  8  22  13  23  13  24  13  25  13  26  13  27  13  28  13  29  13
M  ISO  8  30  13  31  14  32  14  33  14  34  14  35  14  36  14  37   8
M  ISO  2  38   8  40  11
M  END
>  <DihAtoms>  (1) 
7,20,38,39

>  <DihDeg>  (1) 
90.97179446690296

$$$$
