
 OpenBabel03242522163D

 34 36  0  0  0  0  0  0  0  0999 V2000
   46.3930   34.1020   41.8650 C   0  0  0  0  0  0  0  0  0  0  0  0
   46.6700   34.7890   42.9930 C   0  0  0  0  0  0  0  0  0  0  0  0
   45.1330   35.8050   43.2060 S   0  0  0  0  0  0  0  0  0  0  0  0
   44.3820   35.0780   41.6660 C   0  0  0  0  0  0  0  0  0  0  0  0
   45.2350   34.3820   41.3710 N   0  0  0  0  0  0  0  0  0  0  0  0
   47.5520   34.7600   43.6170 H   0  0  0  0  0  0  0  0  0  0  0  0
   49.0630   32.5030   39.7310 C   0  0  0  0  0  0  0  0  0  0  0  0
   48.2070   33.5000   40.2670 C   0  0  0  0  0  0  0  0  0  0  0  0
   47.3240   33.1240   41.2490 C   0  0  0  0  0  0  0  0  0  0  0  0
   47.3320   31.8050   41.6450 N   0  0  0  0  0  0  0  0  0  0  0  0
   48.1640   30.8990   41.1050 C   0  0  0  0  0  0  0  0  0  0  0  0
   49.0230   31.2420   40.1550 N   0  0  0  0  0  0  0  0  0  0  0  0
   49.7610   32.7940   38.9550 H   0  0  0  0  0  0  0  0  0  0  0  0
   48.1590   29.8650   41.4270 H   0  0  0  0  0  0  0  0  0  0  0  0
   48.3330   34.8030   39.7430 N   0  0  0  0  0  0  0  0  0  0  0  0
   48.3130   35.6040   40.4110 H   0  0  0  0  0  0  0  0  0  0  0  0
   48.4430   34.9110   38.6940 H   0  0  0  0  0  0  0  0  0  0  0  0
   43.0240   35.4540   41.1520 C   0  0  0  0  0  0  0  0  0  0  0  0
   42.2780   34.8860   41.7670 H   0  0  0  0  0  0  0  0  0  0  0  0
   42.8370   36.5220   41.3940 H   0  0  0  0  0  0  0  0  0  0  0  0
   42.9040   35.1460   39.6980 C   0  0  0  0  0  0  0  0  0  0  0  0
   43.9260   35.0780   39.2630 H   0  0  0  0  0  0  0  0  0  0  0  0
   42.4070   36.0460   39.2310 H   0  0  0  0  0  0  0  0  0  0  0  0
   42.1340   33.9800   39.3310 C   0  0  0  0  0  0  0  0  0  0  0  0
   42.3450   33.0360   38.3640 C   0  0  0  0  0  0  0  0  0  0  0  0
   41.5510   31.9450   38.0780 C   0  0  0  0  0  0  0  0  0  0  0  0
   40.4290   31.8210   38.8720 C   0  0  0  0  0  0  0  0  0  0  0  0
   40.2140   32.7700   39.8460 C   0  0  0  0  0  0  0  0  0  0  0  0
   41.0110   33.8120   40.0860 N   0  0  0  0  0  0  0  0  0  0  0  0
   43.2610   33.2140   37.7790 H   0  0  0  0  0  0  0  0  0  0  0  0
   41.8170   31.2640   37.2890 H   0  0  0  0  0  0  0  0  0  0  0  0
   39.7760   30.9760   38.6820 H   0  0  0  0  0  0  0  0  0  0  0  0
   38.7130   32.4870   40.8110 S   0  0  0  0  0  0  0  0  0  0  0  0
   38.6710   31.0900   41.0930 H   0  0  0  0  0  0  0  0  0  0  0  0
  1  2  2  0  0  0  0
  2  3  1  0  0  0  0
  2  6  1  0  0  0  0
  4  3  1  0  0  0  0
  5  4  2  0  0  0  0
  5  1  1  0  0  0  0
  7 12  2  0  0  0  0
  7  8  1  0  0  0  0
  8  9  2  0  0  0  0
  9 10  1  0  0  0  0
  9  1  1  0  0  0  0
 11 14  1  0  0  0  0
 11 10  2  0  0  0  0
 12 11  1  0  0  0  0
 13  7  1  0  0  0  0
 15  8  1  0  0  0  0
 15 16  1  0  0  0  0
 17 15  1  0  0  0  0
 18 20  1  0  0  0  0
 18  4  1  0  0  0  0
 18 19  1  0  0  0  0
 21 18  1  0  0  0  0
 22 21  1  0  0  0  0
 23 21  1  0  0  0  0
 24 21  1  0  0  0  0
 24 29  1  0  0  0  0
 25 24  2  0  0  0  0
 26 25  1  0  0  0  0
 26 27  2  0  0  0  0
 27 28  1  0  0  0  0
 28 29  2  0  0  0  0
 28 33  1  0  0  0  0
 30 25  1  0  0  0  0
 31 26  1  0  0  0  0
 32 27  1  0  0  0  0
 33 34  1  0  0  0  0
M  END
>  <minimizedAffinity>
-4.53215599

>  <minimizedRMSD>
1.34218538

$$$$
