
 OpenBabel03252507403D

 12 12  0  0  0  0  0  0  0  0999 V2000
   47.0170   33.9680   43.1760 C   0  0  0  0  0  0  0  0  0  0  0  0
   46.1510   33.9390   42.0520 C   0  0  0  0  0  0  0  0  0  0  0  0
   46.6570   34.3100   40.8030 C   0  0  0  0  0  0  0  0  0  0  0  0
   47.9640   34.6800   40.7410 N   0  0  0  0  0  0  0  0  0  0  0  0
   48.7640   34.6950   41.8370 C   0  0  0  0  0  0  0  0  0  0  0  0
   48.3060   34.3450   43.0460 N   0  0  0  0  0  0  0  0  0  0  0  0
   46.0190   34.2920   39.9560 H   0  0  0  0  0  0  0  0  0  0  0  0
   49.7900   35.0040   41.6840 H   0  0  0  0  0  0  0  0  0  0  0  0
   44.4480   33.4360   42.2500 S   0  0  0  0  0  0  0  0  0  0  0  0
   44.0690   33.7560   43.5610 H   0  0  0  0  0  0  0  0  0  0  0  0
   46.3640   33.4940   44.7630 S   0  0  0  0  0  0  0  0  0  0  0  0
   47.2550   32.5600   45.3390 H   0  0  0  0  0  0  0  0  0  0  0  0
  1 11  1  0  0  0  0
  2  9  1  0  0  0  0
  2  1  2  0  0  0  0
  3  2  1  0  0  0  0
  4  3  2  0  0  0  0
  4  5  1  0  0  0  0
  5  6  2  0  0  0  0
  6  1  1  0  0  0  0
  7  3  1  0  0  0  0
  8  5  1  0  0  0  0
  9 10  1  0  0  0  0
 11 12  1  0  0  0  0
M  END
>  <minimizedAffinity>
-2.30708981

>  <minimizedRMSD>
3.90880561

$$$$
