
 OpenBabel03242513483D

 25 27  0  0  1  0  0  0  0  0999 V2000
   37.3240   31.4990   37.9760 C   0  0  1  0  0  0  0  0  0  0  0  0
   37.8190   30.0810   37.6700 C   0  0  0  0  0  0  0  0  0  0  0  0
   36.6460   30.2970   38.4990 C   0  0  1  0  0  0  0  0  0  0  0  0
   36.8640   32.0540   37.1430 H   0  0  0  0  0  0  0  0  0  0  0  0
   38.7560   29.7240   38.1320 H   0  0  0  0  0  0  0  0  0  0  0  0
   37.6280   29.6820   36.6530 H   0  0  0  0  0  0  0  0  0  0  0  0
   35.5960   30.2020   38.1430 H   0  0  0  0  0  0  0  0  0  0  0  0
   38.2300   32.3350   38.7900 C   0  0  0  0  0  0  0  0  0  0  0  0
   37.6760   33.3760   39.5550 C   0  0  0  0  0  0  0  0  0  0  0  0
   38.5560   34.1610   40.3150 C   0  0  0  0  0  0  0  0  0  0  0  0
   39.9030   33.8650   40.2660 N   0  0  0  0  0  0  0  0  0  0  0  0
   40.3810   32.8470   39.5090 C   0  0  0  0  0  0  0  0  0  0  0  0
   39.5490   32.0860   38.7750 N   0  0  0  0  0  0  0  0  0  0  0  0
   36.6260   33.5880   39.5770 H   0  0  0  0  0  0  0  0  0  0  0  0
   38.1980   34.9840   40.9310 H   0  0  0  0  0  0  0  0  0  0  0  0
   41.4320   32.6170   39.4710 H   0  0  0  0  0  0  0  0  0  0  0  0
   36.7930   30.0300   39.9640 C   0  0  0  0  0  0  0  0  0  0  0  0
   36.0520   30.4510   41.0560 C   0  0  0  0  0  0  0  0  0  0  0  0
   36.5780   29.9220   42.1810 N   0  0  0  0  0  0  0  0  0  0  0  0
   37.6200   29.1890   41.7970 C   0  0  0  0  0  0  0  0  0  0  0  0
   37.7880   29.2240   40.4690 N   0  0  0  0  0  0  0  0  0  0  0  0
   35.1900   31.1160   40.8970 H   0  0  0  0  0  0  0  0  0  0  0  0
   36.1840   30.1010   43.1250 H   0  0  0  0  0  0  0  0  0  0  0  0
   38.6710   28.2660   42.9270 S   0  0  0  0  0  0  0  0  0  0  0  0
   39.6630   27.5590   42.2240 H   0  0  0  0  0  0  0  0  0  0  0  0
  1  4  1  6  0  0  0
  1  3  1  0  0  0  0
  1  8  1  0  0  0  0
  2  1  1  0  0  0  0
  2  5  1  0  0  0  0
  2  3  1  0  0  0  0
  3  7  1  6  0  0  0
  3 17  1  0  0  0  0
  6  2  1  0  0  0  0
  8  9  1  0  0  0  0
  9 14  1  0  0  0  0
  9 10  2  0  0  0  0
 10 15  1  0  0  0  0
 11 10  1  0  0  0  0
 12 11  2  0  0  0  0
 13  8  2  0  0  0  0
 13 12  1  0  0  0  0
 16 12  1  0  0  0  0
 17 21  1  0  0  0  0
 17 18  2  0  0  0  0
 18 19  1  0  0  0  0
 19 23  1  0  0  0  0
 20 19  1  0  0  0  0
 20 24  1  0  0  0  0
 21 20  2  0  0  0  0
 22 18  1  0  0  0  0
 25 24  1  0  0  0  0
M  END
>  <minimizedAffinity>
-4.42854691

$$$$

 OpenBabel03242513483D

 25 27  0  0  1  0  0  0  0  0999 V2000
   39.5950   25.5100   43.0350 C   0  0  1  0  0  0  0  0  0  0  0  0
   40.7480   26.4690   42.7220 C   0  0  0  0  0  0  0  0  0  0  0  0
   39.7180   26.8320   43.6790 C   0  0  1  0  0  0  0  0  0  0  0  0
   39.8450   24.6070   43.6140 H   0  0  0  0  0  0  0  0  0  0  0  0
   40.7820   26.9720   41.7400 H   0  0  0  0  0  0  0  0  0  0  0  0
   41.7440   26.2270   43.1470 H   0  0  0  0  0  0  0  0  0  0  0  0
   39.8320   26.7670   44.7850 H   0  0  0  0  0  0  0  0  0  0  0  0
   38.6640   25.2380   41.9210 C   0  0  0  0  0  0  0  0  0  0  0  0
   37.4650   24.5590   42.1990 C   0  0  0  0  0  0  0  0  0  0  0  0
   36.6000   24.3050   41.1240 C   0  0  0  0  0  0  0  0  0  0  0  0
   36.9760   24.7360   39.8680 N   0  0  0  0  0  0  0  0  0  0  0  0
   38.1470   25.3860   39.6590 C   0  0  0  0  0  0  0  0  0  0  0  0
   38.9860   25.6360   40.6800 N   0  0  0  0  0  0  0  0  0  0  0  0
   37.1930   24.2340   43.1830 H   0  0  0  0  0  0  0  0  0  0  0  0
   35.6540   23.7850   41.2640 H   0  0  0  0  0  0  0  0  0  0  0  0
   38.4390   25.7200   38.6780 H   0  0  0  0  0  0  0  0  0  0  0  0
   38.7360   27.8780   43.2550 C   0  0  0  0  0  0  0  0  0  0  0  0
   37.4470   28.1580   43.6800 C   0  0  0  0  0  0  0  0  0  0  0  0
   36.9750   29.2230   42.9970 N   0  0  0  0  0  0  0  0  0  0  0  0
   37.9480   29.5950   42.1680 C   0  0  0  0  0  0  0  0  0  0  0  0
   39.0280   28.8130   42.2890 N   0  0  0  0  0  0  0  0  0  0  0  0
   36.9900   27.5330   44.4610 H   0  0  0  0  0  0  0  0  0  0  0  0
   36.0260   29.6140   43.1490 H   0  0  0  0  0  0  0  0  0  0  0  0
   37.8210   30.9790   41.0280 S   0  0  0  0  0  0  0  0  0  0  0  0
   39.0210   31.1510   40.3130 H   0  0  0  0  0  0  0  0  0  0  0  0
  1  4  1  1  0  0  0
  1  3  1  0  0  0  0
  2  1  1  0  0  0  0
  2  6  1  0  0  0  0
  2  3  1  0  0  0  0
  3  7  1  1  0  0  0
  5  2  1  0  0  0  0
  8  9  1  0  0  0  0
  8  1  1  0  0  0  0
  9 14  1  0  0  0  0
 10 15  1  0  0  0  0
 10  9  2  0  0  0  0
 11 10  1  0  0  0  0
 12 11  2  0  0  0  0
 12 13  1  0  0  0  0
 13  8  2  0  0  0  0
 16 12  1  0  0  0  0
 17  3  1  0  0  0  0
 17 18  2  0  0  0  0
 18 22  1  0  0  0  0
 19 23  1  0  0  0  0
 19 18  1  0  0  0  0
 20 21  2  0  0  0  0
 20 19  1  0  0  0  0
 21 17  1  0  0  0  0
 24 20  1  0  0  0  0
 25 24  1  0  0  0  0
M  END
>  <minimizedAffinity>
-4.35882902

$$$$

 OpenBabel03242513483D

 25 27  0  0  1  0  0  0  0  0999 V2000
   36.8220   25.2780   42.4220 C   0  0  1  0  0  0  0  0  0  0  0  0
   36.8690   24.5010   41.1030 C   0  0  0  0  0  0  0  0  0  0  0  0
   37.8150   24.2170   42.1670 C   0  0  1  0  0  0  0  0  0  0  0  0
   35.9730   25.0660   43.0920 H   0  0  0  0  0  0  0  0  0  0  0  0
   37.2150   25.0110   40.1870 H   0  0  0  0  0  0  0  0  0  0  0  0
   36.0850   23.7340   40.9320 H   0  0  0  0  0  0  0  0  0  0  0  0
   37.7300   23.3630   42.8760 H   0  0  0  0  0  0  0  0  0  0  0  0
   37.1370   26.7180   42.3320 C   0  0  0  0  0  0  0  0  0  0  0  0
   37.5610   27.3860   43.4940 C   0  0  0  0  0  0  0  0  0  0  0  0
   37.8470   28.7550   43.3860 C   0  0  0  0  0  0  0  0  0  0  0  0
   37.6970   29.3590   42.1540 N   0  0  0  0  0  0  0  0  0  0  0  0
   37.2830   28.6630   41.0660 C   0  0  0  0  0  0  0  0  0  0  0  0
   37.0040   27.3490   41.1550 N   0  0  0  0  0  0  0  0  0  0  0  0
   37.6700   26.8970   44.4410 H   0  0  0  0  0  0  0  0  0  0  0  0
   38.1800   29.3370   44.2440 H   0  0  0  0  0  0  0  0  0  0  0  0
   37.1650   29.1350   40.1060 H   0  0  0  0  0  0  0  0  0  0  0  0
   39.2280   24.6600   41.9540 C   0  0  0  0  0  0  0  0  0  0  0  0
   39.9140   25.0320   40.8090 C   0  0  0  0  0  0  0  0  0  0  0  0
   41.1790   25.3720   41.1390 N   0  0  0  0  0  0  0  0  0  0  0  0
   41.2750   25.2150   42.4560 C   0  0  0  0  0  0  0  0  0  0  0  0
   40.1240   24.7890   42.9900 N   0  0  0  0  0  0  0  0  0  0  0  0
   39.3950   25.0090   39.8390 H   0  0  0  0  0  0  0  0  0  0  0  0
   41.8790   25.6840   40.4380 H   0  0  0  0  0  0  0  0  0  0  0  0
   42.7710   25.5390   43.4000 S   0  0  0  0  0  0  0  0  0  0  0  0
   42.5540   25.3230   44.7730 H   0  0  0  0  0  0  0  0  0  0  0  0
  1  4  1  1  0  0  0
  2  3  1  0  0  0  0
  2  1  1  0  0  0  0
  3  1  1  0  0  0  0
  3  7  1  1  0  0  0
  5  2  1  0  0  0  0
  6  2  1  0  0  0  0
  8  1  1  0  0  0  0
  8  9  1  0  0  0  0
  9 14  1  0  0  0  0
 10  9  2  0  0  0  0
 10 15  1  0  0  0  0
 11 10  1  0  0  0  0
 12 13  1  0  0  0  0
 12 11  2  0  0  0  0
 13  8  2  0  0  0  0
 16 12  1  0  0  0  0
 17  3  1  0  0  0  0
 17 21  1  0  0  0  0
 18 19  1  0  0  0  0
 18 17  2  0  0  0  0
 19 20  1  0  0  0  0
 20 21  2  0  0  0  0
 20 24  1  0  0  0  0
 22 18  1  0  0  0  0
 23 19  1  0  0  0  0
 24 25  1  0  0  0  0
M  END
>  <minimizedAffinity>
-4.31485081

$$$$

 OpenBabel03242513483D

 25 27  0  0  1  0  0  0  0  0999 V2000
   37.3520   31.5770   37.9980 C   0  0  1  0  0  0  0  0  0  0  0  0
   37.8490   30.1620   37.6890 C   0  0  0  0  0  0  0  0  0  0  0  0
   36.6680   30.3730   38.5070 C   0  0  1  0  0  0  0  0  0  0  0  0
   36.9000   32.1380   37.1640 H   0  0  0  0  0  0  0  0  0  0  0  0
   38.7810   29.8010   38.1570 H   0  0  0  0  0  0  0  0  0  0  0  0
   37.6680   29.7690   36.6660 H   0  0  0  0  0  0  0  0  0  0  0  0
   35.6210   30.2810   38.1400 H   0  0  0  0  0  0  0  0  0  0  0  0
   38.2500   32.4070   38.8270 C   0  0  0  0  0  0  0  0  0  0  0  0
   39.6260   32.1180   38.8230 C   0  0  0  0  0  0  0  0  0  0  0  0
   40.4570   32.9140   39.6240 C   0  0  0  0  0  0  0  0  0  0  0  0
   39.8790   33.9280   40.3600 N   0  0  0  0  0  0  0  0  0  0  0  0
   38.5440   34.1610   40.3250 C   0  0  0  0  0  0  0  0  0  0  0  0
   37.7340   33.4040   39.5620 N   0  0  0  0  0  0  0  0  0  0  0  0
   40.0530   31.3240   38.2430 H   0  0  0  0  0  0  0  0  0  0  0  0
   41.5330   32.7480   39.6710 H   0  0  0  0  0  0  0  0  0  0  0  0
   38.0940   34.9520   40.9000 H   0  0  0  0  0  0  0  0  0  0  0  0
   36.8010   30.0960   39.9710 C   0  0  0  0  0  0  0  0  0  0  0  0
   36.0800   30.5510   41.0640 C   0  0  0  0  0  0  0  0  0  0  0  0
   36.5780   29.9940   42.1880 N   0  0  0  0  0  0  0  0  0  0  0  0
   37.5830   29.2120   41.8040 C   0  0  0  0  0  0  0  0  0  0  0  0
   37.7540   29.2420   40.4760 N   0  0  0  0  0  0  0  0  0  0  0  0
   35.2520   31.2570   40.9050 H   0  0  0  0  0  0  0  0  0  0  0  0
   36.1930   30.1910   43.1330 H   0  0  0  0  0  0  0  0  0  0  0  0
   38.5870   28.2370   42.9330 S   0  0  0  0  0  0  0  0  0  0  0  0
   39.5440   27.4840   42.2290 H   0  0  0  0  0  0  0  0  0  0  0  0
  1  4  1  6  0  0  0
  1  3  1  0  0  0  0
  1  8  1  0  0  0  0
  2  1  1  0  0  0  0
  2  5  1  0  0  0  0
  2  3  1  0  0  0  0
  3  7  1  6  0  0  0
  3 17  1  0  0  0  0
  6  2  1  0  0  0  0
  8 13  1  0  0  0  0
  9  8  2  0  0  0  0
  9 10  1  0  0  0  0
 10 15  1  0  0  0  0
 10 11  2  0  0  0  0
 12 11  1  0  0  0  0
 12 16  1  0  0  0  0
 13 12  2  0  0  0  0
 14  9  1  0  0  0  0
 17 21  1  0  0  0  0
 17 18  2  0  0  0  0
 18 19  1  0  0  0  0
 19 23  1  0  0  0  0
 20 19  1  0  0  0  0
 20 24  1  0  0  0  0
 21 20  2  0  0  0  0
 22 18  1  0  0  0  0
 25 24  1  0  0  0  0
M  END
>  <minimizedAffinity>
-4.30725718

$$$$

 OpenBabel03242513483D

 25 27  0  0  1  0  0  0  0  0999 V2000
   38.5180   32.3210   38.9180 C   0  0  1  0  0  0  0  0  0  0  0  0
   37.2280   33.0770   39.2510 C   0  0  0  0  0  0  0  0  0  0  0  0
   38.0420   32.4960   40.3040 C   0  0  1  0  0  0  0  0  0  0  0  0
   39.3690   32.9240   38.5640 H   0  0  0  0  0  0  0  0  0  0  0  0
   36.2540   32.6220   39.0000 H   0  0  0  0  0  0  0  0  0  0  0  0
   37.2500   34.1840   39.1750 H   0  0  0  0  0  0  0  0  0  0  0  0
   38.7560   33.0670   40.9390 H   0  0  0  0  0  0  0  0  0  0  0  0
   38.3490   31.0650   38.1580 C   0  0  0  0  0  0  0  0  0  0  0  0
   39.3720   30.1020   38.2180 C   0  0  0  0  0  0  0  0  0  0  0  0
   39.1930   28.9210   37.4820 C   0  0  0  0  0  0  0  0  0  0  0  0
   38.0310   28.7770   36.7510 N   0  0  0  0  0  0  0  0  0  0  0  0
   37.0790   29.7410   36.7310 C   0  0  0  0  0  0  0  0  0  0  0  0
   37.2370   30.8790   37.4310 N   0  0  0  0  0  0  0  0  0  0  0  0
   40.2660   30.2360   38.7920 H   0  0  0  0  0  0  0  0  0  0  0  0
   39.9430   28.1320   37.4810 H   0  0  0  0  0  0  0  0  0  0  0  0
   36.1740   29.6280   36.1590 H   0  0  0  0  0  0  0  0  0  0  0  0
   37.5010   31.2780   40.9840 C   0  0  0  0  0  0  0  0  0  0  0  0
   36.2270   30.7350   41.0260 C   0  0  0  0  0  0  0  0  0  0  0  0
   36.2480   29.6060   41.7660 N   0  0  0  0  0  0  0  0  0  0  0  0
   37.5050   29.4510   42.1730 C   0  0  0  0  0  0  0  0  0  0  0  0
   38.2960   30.4350   41.7260 N   0  0  0  0  0  0  0  0  0  0  0  0
   35.4080   31.2440   40.4960 H   0  0  0  0  0  0  0  0  0  0  0  0
   35.4020   29.0280   41.9350 H   0  0  0  0  0  0  0  0  0  0  0  0
   38.0680   28.0860   43.1980 S   0  0  0  0  0  0  0  0  0  0  0  0
   39.4520   28.1710   43.4310 H   0  0  0  0  0  0  0  0  0  0  0  0
  1  4  1  6  0  0  0
  1  2  1  0  0  0  0
  1  3  1  0  0  0  0
  2  3  1  0  0  0  0
  3  7  1  1  0  0  0
  3 17  1  0  0  0  0
  5  2  1  0  0  0  0
  6  2  1  0  0  0  0
  8  9  1  0  0  0  0
  8  1  1  0  0  0  0
  9 14  1  0  0  0  0
 10  9  2  0  0  0  0
 11 10  1  0  0  0  0
 12 11  2  0  0  0  0
 12 13  1  0  0  0  0
 13  8  2  0  0  0  0
 15 10  1  0  0  0  0
 16 12  1  0  0  0  0
 17 18  2  0  0  0  0
 17 21  1  0  0  0  0
 18 19  1  0  0  0  0
 19 23  1  0  0  0  0
 19 20  1  0  0  0  0
 20 24  1  0  0  0  0
 21 20  2  0  0  0  0
 22 18  1  0  0  0  0
 24 25  1  0  0  0  0
M  END
>  <minimizedAffinity>
-4.17432976

$$$$

 OpenBabel03242513483D

 25 27  0  0  1  0  0  0  0  0999 V2000
   35.5040   29.7190   40.2030 C   0  0  1  0  0  0  0  0  0  0  0  0
   35.7520   28.3020   39.6780 C   0  0  0  0  0  0  0  0  0  0  0  0
   35.8390   28.5940   41.0980 C   0  0  1  0  0  0  0  0  0  0  0  0
   34.4660   30.0860   40.1700 H   0  0  0  0  0  0  0  0  0  0  0  0
   36.6730   28.0900   39.1060 H   0  0  0  0  0  0  0  0  0  0  0  0
   34.8680   27.7140   39.3570 H   0  0  0  0  0  0  0  0  0  0  0  0
   35.0380   28.3750   41.8380 H   0  0  0  0  0  0  0  0  0  0  0  0
   36.4870   30.7410   39.7860 C   0  0  0  0  0  0  0  0  0  0  0  0
   36.9870   30.6940   38.4730 C   0  0  0  0  0  0  0  0  0  0  0  0
   37.9240   31.6700   38.1030 C   0  0  0  0  0  0  0  0  0  0  0  0
   38.2950   32.6110   39.0430 N   0  0  0  0  0  0  0  0  0  0  0  0
   37.7780   32.6050   40.2960 C   0  0  0  0  0  0  0  0  0  0  0  0
   36.8790   31.6750   40.6660 N   0  0  0  0  0  0  0  0  0  0  0  0
   36.6850   29.9540   37.7600 H   0  0  0  0  0  0  0  0  0  0  0  0
   38.3550   31.6960   37.1030 H   0  0  0  0  0  0  0  0  0  0  0  0
   38.0690   33.3390   41.0290 H   0  0  0  0  0  0  0  0  0  0  0  0
   37.2070   28.6070   41.7040 C   0  0  0  0  0  0  0  0  0  0  0  0
   37.6650   29.0450   42.9360 C   0  0  0  0  0  0  0  0  0  0  0  0
   38.9940   28.8230   43.0220 N   0  0  0  0  0  0  0  0  0  0  0  0
   39.3530   28.2600   41.8710 C   0  0  0  0  0  0  0  0  0  0  0  0
   38.3090   28.1090   41.0460 N   0  0  0  0  0  0  0  0  0  0  0  0
   36.9530   29.4890   43.6470 H   0  0  0  0  0  0  0  0  0  0  0  0
   39.5540   29.0730   43.8600 H   0  0  0  0  0  0  0  0  0  0  0  0
   41.0350   27.7640   41.4760 S   0  0  0  0  0  0  0  0  0  0  0  0
   41.0960   27.1630   40.2060 H   0  0  0  0  0  0  0  0  0  0  0  0
  1  4  1  1  0  0  0
  1  3  1  0  0  0  0
  2  1  1  0  0  0  0
  2  3  1  0  0  0  0
  3 17  1  0  0  0  0
  3  7  1  1  0  0  0
  5  2  1  0  0  0  0
  6  2  1  0  0  0  0
  8  1  1  0  0  0  0
  8 13  1  0  0  0  0
  9  8  2  0  0  0  0
 10  9  1  0  0  0  0
 10 11  2  0  0  0  0
 11 12  1  0  0  0  0
 12 13  2  0  0  0  0
 12 16  1  0  0  0  0
 14  9  1  0  0  0  0
 15 10  1  0  0  0  0
 17 18  2  0  0  0  0
 18 19  1  0  0  0  0
 18 22  1  0  0  0  0
 19 23  1  0  0  0  0
 20 19  1  0  0  0  0
 21 17  1  0  0  0  0
 21 20  2  0  0  0  0
 24 20  1  0  0  0  0
 25 24  1  0  0  0  0
M  END
>  <minimizedAffinity>
-4.12747288

$$$$

 OpenBabel03242513483D

 25 27  0  0  1  0  0  0  0  0999 V2000
   37.6420   27.6830   39.5250 C   0  0  1  0  0  0  0  0  0  0  0  0
   36.2070   27.8700   39.0240 C   0  0  0  0  0  0  0  0  0  0  0  0
   37.2270   28.8640   38.7450 C   0  0  1  0  0  0  0  0  0  0  0  0
   38.2410   26.9000   39.0330 H   0  0  0  0  0  0  0  0  0  0  0  0
   35.4060   28.0970   39.7490 H   0  0  0  0  0  0  0  0  0  0  0  0
   35.8820   27.2520   38.1620 H   0  0  0  0  0  0  0  0  0  0  0  0
   37.7700   28.9580   37.7770 H   0  0  0  0  0  0  0  0  0  0  0  0
   37.8200   27.7050   40.9910 C   0  0  0  0  0  0  0  0  0  0  0  0
   39.0680   28.0920   41.5110 C   0  0  0  0  0  0  0  0  0  0  0  0
   39.2150   28.0980   42.9060 C   0  0  0  0  0  0  0  0  0  0  0  0
   38.1330   27.7260   43.6780 N   0  0  0  0  0  0  0  0  0  0  0  0
   36.9520   27.3610   43.1210 C   0  0  0  0  0  0  0  0  0  0  0  0
   36.7970   27.3500   41.7840 N   0  0  0  0  0  0  0  0  0  0  0  0
   39.8940   28.3760   40.8910 H   0  0  0  0  0  0  0  0  0  0  0  0
   40.1520   28.3860   43.3790 H   0  0  0  0  0  0  0  0  0  0  0  0
   36.1100   27.0710   43.7250 H   0  0  0  0  0  0  0  0  0  0  0  0
   37.1330   30.1590   39.4890 C   0  0  0  0  0  0  0  0  0  0  0  0
   36.1140   30.7150   40.2460 C   0  0  0  0  0  0  0  0  0  0  0  0
   36.5220   31.9060   40.7340 N   0  0  0  0  0  0  0  0  0  0  0  0
   37.7640   32.0850   40.2920 C   0  0  0  0  0  0  0  0  0  0  0  0
   38.1750   31.0570   39.5390 N   0  0  0  0  0  0  0  0  0  0  0  0
   35.1650   30.1690   40.3530 H   0  0  0  0  0  0  0  0  0  0  0  0
   35.9200   32.5050   41.3320 H   0  0  0  0  0  0  0  0  0  0  0  0
   38.7650   33.5310   40.6650 S   0  0  0  0  0  0  0  0  0  0  0  0
   40.0440   33.4160   40.0920 H   0  0  0  0  0  0  0  0  0  0  0  0
  1  4  1  6  0  0  0
  1  8  1  0  0  0  0
  2  1  1  0  0  0  0
  2  5  1  0  0  0  0
  3  7  1  6  0  0  0
  3  2  1  0  0  0  0
  3 17  1  0  0  0  0
  3  1  1  0  0  0  0
  6  2  1  0  0  0  0
  8  9  2  0  0  0  0
  8 13  1  0  0  0  0
  9 10  1  0  0  0  0
 10 15  1  0  0  0  0
 10 11  2  0  0  0  0
 12 11  1  0  0  0  0
 12 16  1  0  0  0  0
 13 12  2  0  0  0  0
 14  9  1  0  0  0  0
 17 21  1  0  0  0  0
 17 18  2  0  0  0  0
 18 22  1  0  0  0  0
 18 19  1  0  0  0  0
 19 23  1  0  0  0  0
 20 24  1  0  0  0  0
 20 19  1  0  0  0  0
 21 20  2  0  0  0  0
 25 24  1  0  0  0  0
M  END
>  <minimizedAffinity>
-4.12194729

$$$$

 OpenBabel03242513483D

 25 27  0  0  1  0  0  0  0  0999 V2000
   38.2640   25.1870   41.2950 C   0  0  1  0  0  0  0  0  0  0  0  0
   37.1450   24.8530   42.2870 C   0  0  0  0  0  0  0  0  0  0  0  0
   36.9470   25.8520   41.2520 C   0  0  1  0  0  0  0  0  0  0  0  0
   38.5010   24.4210   40.5390 H   0  0  0  0  0  0  0  0  0  0  0  0
   37.2440   25.1690   43.3400 H   0  0  0  0  0  0  0  0  0  0  0  0
   36.6050   23.8940   42.1450 H   0  0  0  0  0  0  0  0  0  0  0  0
   36.4020   25.6750   40.2990 H   0  0  0  0  0  0  0  0  0  0  0  0
   39.4690   25.8160   41.8720 C   0  0  0  0  0  0  0  0  0  0  0  0
   39.8960   25.4030   43.1460 C   0  0  0  0  0  0  0  0  0  0  0  0
   41.0390   26.0200   43.6770 C   0  0  0  0  0  0  0  0  0  0  0  0
   41.6710   26.9860   42.9210 N   0  0  0  0  0  0  0  0  0  0  0  0
   41.2120   27.3440   41.6960 C   0  0  0  0  0  0  0  0  0  0  0  0
   40.1170   26.7620   41.1750 N   0  0  0  0  0  0  0  0  0  0  0  0
   39.3900   24.6510   43.7160 H   0  0  0  0  0  0  0  0  0  0  0  0
   41.4280   25.7520   44.6580 H   0  0  0  0  0  0  0  0  0  0  0  0
   41.7050   28.0990   41.1080 H   0  0  0  0  0  0  0  0  0  0  0  0
   36.9070   27.2830   41.6910 C   0  0  0  0  0  0  0  0  0  0  0  0
   36.8680   27.8590   42.9500 C   0  0  0  0  0  0  0  0  0  0  0  0
   36.8600   29.2040   42.8240 N   0  0  0  0  0  0  0  0  0  0  0  0
   36.8940   29.4550   41.5180 C   0  0  0  0  0  0  0  0  0  0  0  0
   36.9230   28.3280   40.7960 N   0  0  0  0  0  0  0  0  0  0  0  0
   36.8480   27.2110   43.8390 H   0  0  0  0  0  0  0  0  0  0  0  0
   36.8330   29.8460   43.6390 H   0  0  0  0  0  0  0  0  0  0  0  0
   36.8990   31.1090   40.8130 S   0  0  0  0  0  0  0  0  0  0  0  0
   36.9790   31.0560   39.4100 H   0  0  0  0  0  0  0  0  0  0  0  0
  1  4  1  6  0  0  0
  1  8  1  0  0  0  0
  1  2  1  0  0  0  0
  2  5  1  0  0  0  0
  3  7  1  6  0  0  0
  3  1  1  0  0  0  0
  3 17  1  0  0  0  0
  3  2  1  0  0  0  0
  6  2  1  0  0  0  0
  8  9  1  0  0  0  0
  9 10  2  0  0  0  0
  9 14  1  0  0  0  0
 10 15  1  0  0  0  0
 11 10  1  0  0  0  0
 12 11  2  0  0  0  0
 13 12  1  0  0  0  0
 13  8  2  0  0  0  0
 16 12  1  0  0  0  0
 17 18  2  0  0  0  0
 18 22  1  0  0  0  0
 19 18  1  0  0  0  0
 19 23  1  0  0  0  0
 20 19  1  0  0  0  0
 21 20  2  0  0  0  0
 21 17  1  0  0  0  0
 24 20  1  0  0  0  0
 25 24  1  0  0  0  0
M  END
>  <minimizedAffinity>
-4.12058067

$$$$

 OpenBabel03242513483D

 25 27  0  0  1  0  0  0  0  0999 V2000
   37.0150   32.0750   40.1360 C   0  0  1  0  0  0  0  0  0  0  0  0
   37.5950   33.3990   39.6280 C   0  0  0  0  0  0  0  0  0  0  0  0
   37.3390   32.3000   38.7140 C   0  0  1  0  0  0  0  0  0  0  0  0
   35.9590   32.0840   40.4520 H   0  0  0  0  0  0  0  0  0  0  0  0
   38.6350   33.6660   39.8830 H   0  0  0  0  0  0  0  0  0  0  0  0
   36.9040   34.2640   39.5530 H   0  0  0  0  0  0  0  0  0  0  0  0
   36.4490   32.2260   38.0490 H   0  0  0  0  0  0  0  0  0  0  0  0
   37.8800   31.3010   41.0490 C   0  0  0  0  0  0  0  0  0  0  0  0
   37.4470   30.0320   41.4700 C   0  0  0  0  0  0  0  0  0  0  0  0
   38.2820   29.3190   42.3430 C   0  0  0  0  0  0  0  0  0  0  0  0
   39.4710   29.9030   42.7320 N   0  0  0  0  0  0  0  0  0  0  0  0
   39.8370   31.1320   42.2930 C   0  0  0  0  0  0  0  0  0  0  0  0
   39.0450   31.8280   41.4560 N   0  0  0  0  0  0  0  0  0  0  0  0
   36.5190   29.5980   41.1550 H   0  0  0  0  0  0  0  0  0  0  0  0
   38.0120   28.3300   42.7100 H   0  0  0  0  0  0  0  0  0  0  0  0
   40.7640   31.5870   42.5980 H   0  0  0  0  0  0  0  0  0  0  0  0
   38.5320   31.5740   38.1760 C   0  0  0  0  0  0  0  0  0  0  0  0
   38.6880   30.2790   37.7080 C   0  0  0  0  0  0  0  0  0  0  0  0
   39.9670   30.1020   37.3100 N   0  0  0  0  0  0  0  0  0  0  0  0
   40.5880   31.2580   37.5260 C   0  0  0  0  0  0  0  0  0  0  0  0
   39.7620   32.1750   38.0460 N   0  0  0  0  0  0  0  0  0  0  0  0
   37.8260   29.5970   37.7140 H   0  0  0  0  0  0  0  0  0  0  0  0
   40.3160   29.2040   36.9220 H   0  0  0  0  0  0  0  0  0  0  0  0
   42.3240   31.5490   37.1600 S   0  0  0  0  0  0  0  0  0  0  0  0
   42.6830   32.8770   37.4580 H   0  0  0  0  0  0  0  0  0  0  0  0
  1  4  1  1  0  0  0
  1  8  1  0  0  0  0
  2  5  1  0  0  0  0
  2  1  1  0  0  0  0
  3  7  1  6  0  0  0
  3  2  1  0  0  0  0
  3  1  1  0  0  0  0
  6  2  1  0  0  0  0
  8 13  2  0  0  0  0
  8  9  1  0  0  0  0
  9 10  2  0  0  0  0
 10 15  1  0  0  0  0
 10 11  1  0  0  0  0
 12 16  1  0  0  0  0
 12 11  2  0  0  0  0
 13 12  1  0  0  0  0
 14  9  1  0  0  0  0
 17  3  1  0  0  0  0
 18 22  1  0  0  0  0
 18 17  2  0  0  0  0
 19 20  1  0  0  0  0
 19 18  1  0  0  0  0
 20 21  2  0  0  0  0
 21 17  1  0  0  0  0
 23 19  1  0  0  0  0
 24 25  1  0  0  0  0
 24 20  1  0  0  0  0
M  END
>  <minimizedAffinity>
-4.11445379

$$$$
