
 OpenBabel03252509173D

 18 19  0  0  0  0  0  0  0  0999 V2000
   38.8630   33.1770   40.7220 C   0  0  0  0  0  0  0  0  0  0  0  0
   37.7110   33.1920   39.8930 C   0  0  0  0  0  0  0  0  0  0  0  0
   36.9390   32.0170   39.8150 C   0  0  0  0  0  0  0  0  0  0  0  0
   37.3520   30.9340   40.5450 N   0  0  0  0  0  0  0  0  0  0  0  0
   38.4600   30.9810   41.3160 C   0  0  0  0  0  0  0  0  0  0  0  0
   39.2210   32.1020   41.4090 N   0  0  0  0  0  0  0  0  0  0  0  0
   39.4650   34.0640   40.7950 H   0  0  0  0  0  0  0  0  0  0  0  0
   37.4140   34.0680   39.3300 H   0  0  0  0  0  0  0  0  0  0  0  0
   36.0530   31.9500   39.2090 H   0  0  0  0  0  0  0  0  0  0  0  0
   38.6910   29.7010   41.9980 C   0  0  0  0  0  0  0  0  0  0  0  0
   37.8090   29.1420   42.9550 C   0  0  0  0  0  0  0  0  0  0  0  0
   38.1390   27.9540   43.5100 C   0  0  0  0  0  0  0  0  0  0  0  0
   39.3450   27.3100   43.1230 C   0  0  0  0  0  0  0  0  0  0  0  0
   40.0380   28.4790   41.8950 S   0  0  0  0  0  0  0  0  0  0  0  0
   36.8990   29.6580   43.2270 H   0  0  0  0  0  0  0  0  0  0  0  0
   37.5770   27.4270   44.2300 H   0  0  0  0  0  0  0  0  0  0  0  0
   40.0580   25.7760   43.6470 S   0  0  0  0  0  0  0  0  0  0  0  0
   41.4770   25.8730   43.7570 H   0  0  0  0  0  0  0  0  0  0  0  0
  1  7  1  0  0  0  0
  1  6  1  0  0  0  0
  2  1  2  0  0  0  0
  3  2  1  0  0  0  0
  3  4  2  0  0  0  0
  4  5  1  0  0  0  0
  5  6  2  0  0  0  0
  5 10  1  0  0  0  0
  8  2  1  0  0  0  0
  9  3  1  0  0  0  0
 10 11  2  0  0  0  0
 11 15  1  0  0  0  0
 11 12  1  0  0  0  0
 12 16  1  0  0  0  0
 13 12  2  0  0  0  0
 13 17  1  0  0  0  0
 14 10  1  0  0  0  0
 14 13  1  0  0  0  0
 17 18  1  0  0  0  0
M  END
>  <minimizedAffinity>
-3.79025412

$$$$

 OpenBabel03252509173D

 18 19  0  0  0  0  0  0  0  0999 V2000
   37.6730   26.3500   41.3510 C   0  0  0  0  0  0  0  0  0  0  0  0
   36.9820   26.1910   42.5810 C   0  0  0  0  0  0  0  0  0  0  0  0
   36.6340   27.3510   43.2970 C   0  0  0  0  0  0  0  0  0  0  0  0
   36.9860   28.5610   42.7600 N   0  0  0  0  0  0  0  0  0  0  0  0
   37.6450   28.6480   41.5850 C   0  0  0  0  0  0  0  0  0  0  0  0
   37.9930   27.5440   40.8740 N   0  0  0  0  0  0  0  0  0  0  0  0
   37.9480   25.4760   40.7900 H   0  0  0  0  0  0  0  0  0  0  0  0
   36.7190   25.2170   42.9740 H   0  0  0  0  0  0  0  0  0  0  0  0
   36.1090   27.3120   44.2350 H   0  0  0  0  0  0  0  0  0  0  0  0
   37.9070   30.0470   41.2210 C   0  0  0  0  0  0  0  0  0  0  0  0
   36.9310   30.9250   40.6900 C   0  0  0  0  0  0  0  0  0  0  0  0
   37.3020   32.1910   40.3980 C   0  0  0  0  0  0  0  0  0  0  0  0
   38.6430   32.5990   40.6280 C   0  0  0  0  0  0  0  0  0  0  0  0
   39.4080   31.0780   41.3010 S   0  0  0  0  0  0  0  0  0  0  0  0
   35.9190   30.5820   40.5270 H   0  0  0  0  0  0  0  0  0  0  0  0
   36.6810   32.9450   40.0000 H   0  0  0  0  0  0  0  0  0  0  0  0
   39.4420   34.1580   40.3590 S   0  0  0  0  0  0  0  0  0  0  0  0
   40.7740   33.9830   39.8810 H   0  0  0  0  0  0  0  0  0  0  0  0
  1  2  1  0  0  0  0
  2  8  1  0  0  0  0
  2  3  2  0  0  0  0
  3  9  1  0  0  0  0
  4  3  1  0  0  0  0
  5  4  2  0  0  0  0
  6  1  2  0  0  0  0
  6  5  1  0  0  0  0
  7  1  1  0  0  0  0
 10 14  1  0  0  0  0
 10  5  1  0  0  0  0
 11 10  2  0  0  0  0
 12 13  2  0  0  0  0
 12 11  1  0  0  0  0
 13 14  1  0  0  0  0
 15 11  1  0  0  0  0
 16 12  1  0  0  0  0
 17 13  1  0  0  0  0
 18 17  1  0  0  0  0
M  END
>  <minimizedAffinity>
-3.67823434

$$$$

 OpenBabel03252509173D

 18 19  0  0  0  0  0  0  0  0999 V2000
   37.2470   32.7510   39.9280 C   0  0  0  0  0  0  0  0  0  0  0  0
   38.4780   33.3530   40.2960 C   0  0  0  0  0  0  0  0  0  0  0  0
   39.3850   32.5900   41.0560 C   0  0  0  0  0  0  0  0  0  0  0  0
   39.0190   31.3130   41.3900 N   0  0  0  0  0  0  0  0  0  0  0  0
   37.8310   30.7950   41.0100 C   0  0  0  0  0  0  0  0  0  0  0  0
   36.9380   31.5110   40.2770 N   0  0  0  0  0  0  0  0  0  0  0  0
   36.5420   33.3170   39.3480 H   0  0  0  0  0  0  0  0  0  0  0  0
   38.7340   34.3660   40.0120 H   0  0  0  0  0  0  0  0  0  0  0  0
   40.3370   32.9760   41.3720 H   0  0  0  0  0  0  0  0  0  0  0  0
   37.6720   29.4150   41.4880 C   0  0  0  0  0  0  0  0  0  0  0  0
   37.7500   29.0340   42.8490 C   0  0  0  0  0  0  0  0  0  0  0  0
   37.5850   27.7280   43.1570 C   0  0  0  0  0  0  0  0  0  0  0  0
   37.3430   26.7880   42.1190 C   0  0  0  0  0  0  0  0  0  0  0  0
   37.3530   27.8440   40.6230 S   0  0  0  0  0  0  0  0  0  0  0  0
   37.9350   29.7740   43.6150 H   0  0  0  0  0  0  0  0  0  0  0  0
   37.6170   27.3080   44.1230 H   0  0  0  0  0  0  0  0  0  0  0  0
   37.0870   25.0360   42.1780 S   0  0  0  0  0  0  0  0  0  0  0  0
   37.7140   24.3820   41.0780 H   0  0  0  0  0  0  0  0  0  0  0  0
  1  6  2  0  0  0  0
  1  2  1  0  0  0  0
  2  3  2  0  0  0  0
  3  9  1  0  0  0  0
  3  4  1  0  0  0  0
  5  4  2  0  0  0  0
  5 10  1  0  0  0  0
  6  5  1  0  0  0  0
  7  1  1  0  0  0  0
  8  2  1  0  0  0  0
 10 11  2  0  0  0  0
 11 12  1  0  0  0  0
 11 15  1  0  0  0  0
 12 16  1  0  0  0  0
 13 17  1  0  0  0  0
 13 12  2  0  0  0  0
 14 10  1  0  0  0  0
 14 13  1  0  0  0  0
 18 17  1  0  0  0  0
M  END
>  <minimizedAffinity>
-3.64713216

$$$$

 OpenBabel03252509173D

 18 19  0  0  0  0  0  0  0  0999 V2000
   39.0850   26.6720   42.3060 C   0  0  0  0  0  0  0  0  0  0  0  0
   38.8040   27.2550   43.5690 C   0  0  0  0  0  0  0  0  0  0  0  0
   37.6640   28.0720   43.6790 C   0  0  0  0  0  0  0  0  0  0  0  0
   36.8970   28.2520   42.5580 N   0  0  0  0  0  0  0  0  0  0  0  0
   37.2180   27.6710   41.3820 C   0  0  0  0  0  0  0  0  0  0  0  0
   38.3130   26.8780   41.2490 N   0  0  0  0  0  0  0  0  0  0  0  0
   39.9520   26.0450   42.2010 H   0  0  0  0  0  0  0  0  0  0  0  0
   39.4320   27.0890   44.4350 H   0  0  0  0  0  0  0  0  0  0  0  0
   37.3840   28.5470   44.6030 H   0  0  0  0  0  0  0  0  0  0  0  0
   36.2460   28.0130   40.3340 C   0  0  0  0  0  0  0  0  0  0  0  0
   35.2280   28.9850   40.4850 C   0  0  0  0  0  0  0  0  0  0  0  0
   34.3970   29.2070   39.4420 C   0  0  0  0  0  0  0  0  0  0  0  0
   34.5670   28.4660   38.2410 C   0  0  0  0  0  0  0  0  0  0  0  0
   36.0000   27.3960   38.6380 S   0  0  0  0  0  0  0  0  0  0  0  0
   35.1260   29.5320   41.4120 H   0  0  0  0  0  0  0  0  0  0  0  0
   33.6010   29.8980   39.4160 H   0  0  0  0  0  0  0  0  0  0  0  0
   33.6680   28.5110   36.7150 S   0  0  0  0  0  0  0  0  0  0  0  0
   33.5180   27.2050   36.1620 H   0  0  0  0  0  0  0  0  0  0  0  0
  1  2  1  0  0  0  0
  2  3  2  0  0  0  0
  2  8  1  0  0  0  0
  3  9  1  0  0  0  0
  4  3  1  0  0  0  0
  5  4  2  0  0  0  0
  6  5  1  0  0  0  0
  6  1  2  0  0  0  0
  7  1  1  0  0  0  0
 10 11  2  0  0  0  0
 10  5  1  0  0  0  0
 11 15  1  0  0  0  0
 12 11  1  0  0  0  0
 13 14  1  0  0  0  0
 13 12  2  0  0  0  0
 14 10  1  0  0  0  0
 16 12  1  0  0  0  0
 17 13  1  0  0  0  0
 18 17  1  0  0  0  0
M  END
>  <minimizedAffinity>
-3.56248474

$$$$

 OpenBabel03252509173D

 18 19  0  0  0  0  0  0  0  0999 V2000
   36.5780   24.9850   39.8180 C   0  0  0  0  0  0  0  0  0  0  0  0
   36.8330   24.4450   41.1050 C   0  0  0  0  0  0  0  0  0  0  0  0
   37.1290   25.3400   42.1500 C   0  0  0  0  0  0  0  0  0  0  0  0
   37.1510   26.6780   41.8550 N   0  0  0  0  0  0  0  0  0  0  0  0
   36.9000   27.1320   40.6080 C   0  0  0  0  0  0  0  0  0  0  0  0
   36.6120   26.2880   39.5830 N   0  0  0  0  0  0  0  0  0  0  0  0
   36.3500   24.3170   39.0070 H   0  0  0  0  0  0  0  0  0  0  0  0
   36.8060   23.3800   41.3010 H   0  0  0  0  0  0  0  0  0  0  0  0
   37.3320   25.0080   43.1520 H   0  0  0  0  0  0  0  0  0  0  0  0
   36.9810   28.5970   40.5470 C   0  0  0  0  0  0  0  0  0  0  0  0
   35.9220   29.4660   40.9020 C   0  0  0  0  0  0  0  0  0  0  0  0
   36.1260   30.7980   40.8010 C   0  0  0  0  0  0  0  0  0  0  0  0
   37.3820   31.2820   40.3450 C   0  0  0  0  0  0  0  0  0  0  0  0
   38.3150   29.7340   40.0480 S   0  0  0  0  0  0  0  0  0  0  0  0
   34.9780   29.0650   41.2460 H   0  0  0  0  0  0  0  0  0  0  0  0
   35.4280   31.5540   41.0320 H   0  0  0  0  0  0  0  0  0  0  0  0
   37.9670   32.9360   40.1010 S   0  0  0  0  0  0  0  0  0  0  0  0
   38.7870   33.0310   38.9380 H   0  0  0  0  0  0  0  0  0  0  0  0
  1  2  1  0  0  0  0
  2  8  1  0  0  0  0
  2  3  2  0  0  0  0
  3  9  1  0  0  0  0
  4  3  1  0  0  0  0
  5  4  2  0  0  0  0
  6  1  2  0  0  0  0
  6  5  1  0  0  0  0
  7  1  1  0  0  0  0
 10  5  1  0  0  0  0
 10 11  2  0  0  0  0
 11 15  1  0  0  0  0
 12 11  1  0  0  0  0
 12 16  1  0  0  0  0
 13 12  2  0  0  0  0
 14 13  1  0  0  0  0
 14 10  1  0  0  0  0
 17 13  1  0  0  0  0
 18 17  1  0  0  0  0
M  END
>  <minimizedAffinity>
-3.48006845

$$$$

 OpenBabel03252509173D

 18 19  0  0  0  0  0  0  0  0999 V2000
   38.5120   24.3400   42.3360 C   0  0  0  0  0  0  0  0  0  0  0  0
   39.6250   24.4220   43.2130 C   0  0  0  0  0  0  0  0  0  0  0  0
   40.1250   25.6990   43.5270 C   0  0  0  0  0  0  0  0  0  0  0  0
   39.5030   26.7830   42.9650 N   0  0  0  0  0  0  0  0  0  0  0  0
   38.4470   26.6410   42.1360 C   0  0  0  0  0  0  0  0  0  0  0  0
   37.9460   25.4190   41.8160 N   0  0  0  0  0  0  0  0  0  0  0  0
   38.1160   23.3730   42.0840 H   0  0  0  0  0  0  0  0  0  0  0  0
   40.0910   23.5430   43.6400 H   0  0  0  0  0  0  0  0  0  0  0  0
   40.9640   25.8430   44.1840 H   0  0  0  0  0  0  0  0  0  0  0  0
   37.9570   27.9430   41.6660 C   0  0  0  0  0  0  0  0  0  0  0  0
   36.5870   28.2700   41.5210 C   0  0  0  0  0  0  0  0  0  0  0  0
   36.2690   29.5070   41.0790 C   0  0  0  0  0  0  0  0  0  0  0  0
   37.3040   30.4310   40.7750 C   0  0  0  0  0  0  0  0  0  0  0  0
   38.8150   29.4650   41.1480 S   0  0  0  0  0  0  0  0  0  0  0  0
   35.8240   27.5430   41.7610 H   0  0  0  0  0  0  0  0  0  0  0  0
   35.2950   29.8810   40.9270 H   0  0  0  0  0  0  0  0  0  0  0  0
   37.2320   32.1000   40.1860 S   0  0  0  0  0  0  0  0  0  0  0  0
   38.2700   32.3640   39.2450 H   0  0  0  0  0  0  0  0  0  0  0  0
  1  2  1  0  0  0  0
  2  3  2  0  0  0  0
  2  8  1  0  0  0  0
  3  9  1  0  0  0  0
  4  3  1  0  0  0  0
  5  4  2  0  0  0  0
  6  5  1  0  0  0  0
  6  1  2  0  0  0  0
  7  1  1  0  0  0  0
 10  5  1  0  0  0  0
 11 10  2  0  0  0  0
 11 15  1  0  0  0  0
 12 11  1  0  0  0  0
 13 12  2  0  0  0  0
 13 14  1  0  0  0  0
 14 10  1  0  0  0  0
 16 12  1  0  0  0  0
 17 13  1  0  0  0  0
 18 17  1  0  0  0  0
M  END
>  <minimizedAffinity>
-3.46364665

$$$$

 OpenBabel03252509173D

 18 19  0  0  0  0  0  0  0  0999 V2000
   37.5110   31.5140   38.0390 C   0  0  0  0  0  0  0  0  0  0  0  0
   37.3650   32.6340   38.8980 C   0  0  0  0  0  0  0  0  0  0  0  0
   37.1790   32.3930   40.2710 C   0  0  0  0  0  0  0  0  0  0  0  0
   37.1510   31.0890   40.6910 N   0  0  0  0  0  0  0  0  0  0  0  0
   37.2940   30.0640   39.8240 C   0  0  0  0  0  0  0  0  0  0  0  0
   37.4750   30.2700   38.4940 N   0  0  0  0  0  0  0  0  0  0  0  0
   37.6540   31.6770   36.9870 H   0  0  0  0  0  0  0  0  0  0  0  0
   37.3930   33.6520   38.5300 H   0  0  0  0  0  0  0  0  0  0  0  0
   37.0610   33.1890   40.9850 H   0  0  0  0  0  0  0  0  0  0  0  0
   37.2300   28.7680   40.5140 C   0  0  0  0  0  0  0  0  0  0  0  0
   36.8010   28.6030   41.8530 C   0  0  0  0  0  0  0  0  0  0  0  0
   36.7880   27.3540   42.3700 C   0  0  0  0  0  0  0  0  0  0  0  0
   37.2000   26.2580   41.5660 C   0  0  0  0  0  0  0  0  0  0  0  0
   37.6280   27.0710   39.9820 S   0  0  0  0  0  0  0  0  0  0  0  0
   36.4940   29.4580   42.4380 H   0  0  0  0  0  0  0  0  0  0  0  0
   36.4930   27.0890   43.3470 H   0  0  0  0  0  0  0  0  0  0  0  0
   37.3010   24.5270   41.9300 S   0  0  0  0  0  0  0  0  0  0  0  0
   38.4510   23.9360   41.3290 H   0  0  0  0  0  0  0  0  0  0  0  0
  1  6  2  0  0  0  0
  1  2  1  0  0  0  0
  2  3  2  0  0  0  0
  3  4  1  0  0  0  0
  3  9  1  0  0  0  0
  5 10  1  0  0  0  0
  5  4  2  0  0  0  0
  6  5  1  0  0  0  0
  7  1  1  0  0  0  0
  8  2  1  0  0  0  0
 10 11  2  0  0  0  0
 11 12  1  0  0  0  0
 11 15  1  0  0  0  0
 12 16  1  0  0  0  0
 13 17  1  0  0  0  0
 13 12  2  0  0  0  0
 14 10  1  0  0  0  0
 14 13  1  0  0  0  0
 18 17  1  0  0  0  0
M  END
>  <minimizedAffinity>
-3.44410896

$$$$

 OpenBabel03252509173D

 18 19  0  0  0  0  0  0  0  0999 V2000
   39.9530   29.3770   41.7220 C   0  0  0  0  0  0  0  0  0  0  0  0
   39.0820   29.9840   42.6640 C   0  0  0  0  0  0  0  0  0  0  0  0
   38.0070   29.2210   43.1560 C   0  0  0  0  0  0  0  0  0  0  0  0
   37.8710   27.9390   42.6920 N   0  0  0  0  0  0  0  0  0  0  0  0
   38.7330   27.4170   41.7930 C   0  0  0  0  0  0  0  0  0  0  0  0
   39.7780   28.1320   41.3030 N   0  0  0  0  0  0  0  0  0  0  0  0
   40.7790   29.9440   41.3340 H   0  0  0  0  0  0  0  0  0  0  0  0
   39.2210   31.0010   43.0080 H   0  0  0  0  0  0  0  0  0  0  0  0
   37.3050   29.6100   43.8720 H   0  0  0  0  0  0  0  0  0  0  0  0
   38.3780   26.0320   41.4550 C   0  0  0  0  0  0  0  0  0  0  0  0
   37.1760   25.4010   41.8560 C   0  0  0  0  0  0  0  0  0  0  0  0
   36.9700   24.1200   41.4770 C   0  0  0  0  0  0  0  0  0  0  0  0
   37.9540   23.4520   40.6990 C   0  0  0  0  0  0  0  0  0  0  0  0
   39.2410   24.7390   40.5040 S   0  0  0  0  0  0  0  0  0  0  0  0
   36.4480   25.9370   42.4480 H   0  0  0  0  0  0  0  0  0  0  0  0
   36.1240   23.5330   41.7040 H   0  0  0  0  0  0  0  0  0  0  0  0
   37.9950   21.8040   40.0500 S   0  0  0  0  0  0  0  0  0  0  0  0
   39.3070   21.2510   40.1210 H   0  0  0  0  0  0  0  0  0  0  0  0
  1  2  1  0  0  0  0
  2  8  1  0  0  0  0
  2  3  2  0  0  0  0
  3  9  1  0  0  0  0
  4  3  1  0  0  0  0
  5  4  2  0  0  0  0
  6  1  2  0  0  0  0
  6  5  1  0  0  0  0
  7  1  1  0  0  0  0
 10  5  1  0  0  0  0
 10 11  2  0  0  0  0
 11 15  1  0  0  0  0
 12 16  1  0  0  0  0
 12 11  1  0  0  0  0
 13 12  2  0  0  0  0
 14 13  1  0  0  0  0
 14 10  1  0  0  0  0
 17 18  1  0  0  0  0
 17 13  1  0  0  0  0
M  END
>  <minimizedAffinity>
-3.35651493

$$$$

 OpenBabel03252509173D

 18 19  0  0  0  0  0  0  0  0999 V2000
   36.9590   24.8050   42.1770 C   0  0  0  0  0  0  0  0  0  0  0  0
   38.0550   23.9920   41.7850 C   0  0  0  0  0  0  0  0  0  0  0  0
   39.2510   24.6330   41.4110 C   0  0  0  0  0  0  0  0  0  0  0  0
   39.2800   26.0020   41.4500 N   0  0  0  0  0  0  0  0  0  0  0  0
   38.2020   26.7220   41.8310 C   0  0  0  0  0  0  0  0  0  0  0  0
   37.0360   26.1280   42.1970 N   0  0  0  0  0  0  0  0  0  0  0  0
   36.0380   24.3350   42.4670 H   0  0  0  0  0  0  0  0  0  0  0  0
   37.9960   22.9120   41.7680 H   0  0  0  0  0  0  0  0  0  0  0  0
   40.1240   24.0860   41.1030 H   0  0  0  0  0  0  0  0  0  0  0  0
   38.4810   28.1630   41.7910 C   0  0  0  0  0  0  0  0  0  0  0  0
   39.0620   28.8890   42.8590 C   0  0  0  0  0  0  0  0  0  0  0  0
   39.2670   30.2140   42.6940 C   0  0  0  0  0  0  0  0  0  0  0  0
   38.8980   30.8340   41.4700 C   0  0  0  0  0  0  0  0  0  0  0  0
   38.2210   29.4300   40.5080 S   0  0  0  0  0  0  0  0  0  0  0  0
   39.3310   28.3870   43.7780 H   0  0  0  0  0  0  0  0  0  0  0  0
   39.6890   30.8710   43.4030 H   0  0  0  0  0  0  0  0  0  0  0  0
   39.0280   32.5180   40.9380 S   0  0  0  0  0  0  0  0  0  0  0  0
   37.8950   32.9090   40.1660 H   0  0  0  0  0  0  0  0  0  0  0  0
  1  6  1  0  0  0  0
  1  7  1  0  0  0  0
  2  1  2  0  0  0  0
  3  4  2  0  0  0  0
  3  2  1  0  0  0  0
  4  5  1  0  0  0  0
  5  6  2  0  0  0  0
  8  2  1  0  0  0  0
  9  3  1  0  0  0  0
 10  5  1  0  0  0  0
 10 11  2  0  0  0  0
 11 15  1  0  0  0  0
 12 11  1  0  0  0  0
 12 16  1  0  0  0  0
 13 12  2  0  0  0  0
 14 13  1  0  0  0  0
 14 10  1  0  0  0  0
 17 13  1  0  0  0  0
 18 17  1  0  0  0  0
M  END
>  <minimizedAffinity>
-3.35596156

$$$$
