
 OpenBabel03252505203D

 27 29  0  0  0  0  0  0  0  0999 V2000
   37.3810   28.2470   43.6080 C   0  0  0  0  0  0  0  0  0  0  0  0
   37.4620   26.9310   43.1380 C   0  0  0  0  0  0  0  0  0  0  0  0
   37.5490   26.7810   41.7620 C   0  0  0  0  0  0  0  0  0  0  0  0
   37.5530   27.8850   40.9310 N   0  0  0  0  0  0  0  0  0  0  0  0
   37.4720   29.1500   41.4570 C   0  0  0  0  0  0  0  0  0  0  0  0
   37.3860   29.3230   42.7790 N   0  0  0  0  0  0  0  0  0  0  0  0
   37.3110   28.3880   44.6830 H   0  0  0  0  0  0  0  0  0  0  0  0
   37.4590   26.0780   43.7770 H   0  0  0  0  0  0  0  0  0  0  0  0
   37.5040   30.2740   40.5150 C   0  0  0  0  0  0  0  0  0  0  0  0
   36.9320   30.0650   39.2670 C   0  0  0  0  0  0  0  0  0  0  0  0
   36.9220   31.1000   38.3410 C   0  0  0  0  0  0  0  0  0  0  0  0
   37.4920   32.3070   38.7180 C   0  0  0  0  0  0  0  0  0  0  0  0
   38.0460   32.4510   39.9800 C   0  0  0  0  0  0  0  0  0  0  0  0
   38.0550   31.4350   40.8840 N   0  0  0  0  0  0  0  0  0  0  0  0
   36.4860   29.1070   38.9810 H   0  0  0  0  0  0  0  0  0  0  0  0
   36.4700   30.9240   37.3630 H   0  0  0  0  0  0  0  0  0  0  0  0
   37.4910   33.1240   38.0050 H   0  0  0  0  0  0  0  0  0  0  0  0
   38.7730   34.0300   40.4220 S   0  0  0  0  0  0  0  0  0  0  0  0
   39.2380   33.9740   41.7340 H   0  0  0  0  0  0  0  0  0  0  0  0
   37.6740   25.4240   41.1470 C   0  0  0  0  0  0  0  0  0  0  0  0
   38.1620   24.3620   42.1360 C   0  0  0  0  0  0  0  0  0  0  0  0
   36.7320   24.3980   41.5010 C   0  0  0  0  0  0  0  0  0  0  0  0
   38.2300   25.4730   40.1860 H   0  0  0  0  0  0  0  0  0  0  0  0
   38.8440   23.6220   41.7160 H   0  0  0  0  0  0  0  0  0  0  0  0
   38.2370   24.6160   43.1990 H   0  0  0  0  0  0  0  0  0  0  0  0
   35.9290   24.6600   42.2240 H   0  0  0  0  0  0  0  0  0  0  0  0
   36.4780   23.5520   40.8320 H   0  0  0  0  0  0  0  0  0  0  0  0
  1  7  1  0  0  0  0
  2  1  1  0  0  0  0
  2  8  1  0  0  0  0
  3  2  2  0  0  0  0
  4  5  2  0  0  0  0
  4  3  1  0  0  0  0
  5  6  1  0  0  0  0
  6  1  2  0  0  0  0
  9 14  1  0  0  0  0
  9  5  1  0  0  0  0
 10  9  2  0  0  0  0
 11 12  2  0  0  0  0
 11 10  1  0  0  0  0
 12 13  1  0  0  0  0
 13 18  1  0  0  0  0
 13 14  2  0  0  0  0
 15 10  1  0  0  0  0
 16 11  1  0  0  0  0
 17 12  1  0  0  0  0
 18 19  1  0  0  0  0
 20 22  1  0  0  0  0
 20  3  1  0  0  0  0
 20 21  1  0  0  0  0
 21 25  1  0  0  0  0
 22 21  1  0  0  0  0
 22 26  1  0  0  0  0
 23 20  1  0  0  0  0
 24 21  1  0  0  0  0
 27 22  1  0  0  0  0
M  END
>  <minimizedAffinity>
-4.86433983

$$$$

 OpenBabel03252505203D

 27 29  0  0  0  0  0  0  0  0999 V2000
   40.0570   26.9200   43.6710 C   0  0  0  0  0  0  0  0  0  0  0  0
   39.6040   25.6180   43.4270 C   0  0  0  0  0  0  0  0  0  0  0  0
   38.5080   25.5040   42.5860 C   0  0  0  0  0  0  0  0  0  0  0  0
   37.9200   26.6270   42.0360 N   0  0  0  0  0  0  0  0  0  0  0  0
   38.4150   27.8760   42.3150 C   0  0  0  0  0  0  0  0  0  0  0  0
   39.4690   28.0150   43.1240 N   0  0  0  0  0  0  0  0  0  0  0  0
   40.9140   27.0330   44.3290 H   0  0  0  0  0  0  0  0  0  0  0  0
   40.0550   24.7510   43.8500 H   0  0  0  0  0  0  0  0  0  0  0  0
   37.7540   29.0200   41.6780 C   0  0  0  0  0  0  0  0  0  0  0  0
   36.4290   28.8480   41.2960 C   0  0  0  0  0  0  0  0  0  0  0  0
   35.7500   29.9030   40.7020 C   0  0  0  0  0  0  0  0  0  0  0  0
   36.4400   31.0920   40.5180 C   0  0  0  0  0  0  0  0  0  0  0  0
   37.7620   31.1990   40.9220 C   0  0  0  0  0  0  0  0  0  0  0  0
   38.4240   30.1630   41.5040 N   0  0  0  0  0  0  0  0  0  0  0  0
   35.8950   27.9040   41.4470 H   0  0  0  0  0  0  0  0  0  0  0  0
   34.7090   29.7570   40.4060 H   0  0  0  0  0  0  0  0  0  0  0  0
   35.9220   31.9240   40.0550 H   0  0  0  0  0  0  0  0  0  0  0  0
   38.6140   32.7560   40.6630 S   0  0  0  0  0  0  0  0  0  0  0  0
   39.9100   32.6620   41.1660 H   0  0  0  0  0  0  0  0  0  0  0  0
   37.9570   24.1610   42.2260 C   0  0  0  0  0  0  0  0  0  0  0  0
   36.7560   24.2400   41.2810 C   0  0  0  0  0  0  0  0  0  0  0  0
   38.1530   23.6490   40.8980 C   0  0  0  0  0  0  0  0  0  0  0  0
   37.8100   23.5350   43.1340 H   0  0  0  0  0  0  0  0  0  0  0  0
   35.9720   23.5070   41.4720 H   0  0  0  0  0  0  0  0  0  0  0  0
   36.4890   25.2050   40.8360 H   0  0  0  0  0  0  0  0  0  0  0  0
   38.7230   24.2780   40.1790 H   0  0  0  0  0  0  0  0  0  0  0  0
   38.1720   22.5660   40.6630 H   0  0  0  0  0  0  0  0  0  0  0  0
  1  7  1  0  0  0  0
  2  1  1  0  0  0  0
  2  8  1  0  0  0  0
  3  2  2  0  0  0  0
  4  5  2  0  0  0  0
  4  3  1  0  0  0  0
  5  6  1  0  0  0  0
  6  1  2  0  0  0  0
  9  5  1  0  0  0  0
 10 15  1  0  0  0  0
 10  9  2  0  0  0  0
 11 10  1  0  0  0  0
 12 11  2  0  0  0  0
 12 13  1  0  0  0  0
 13 14  2  0  0  0  0
 14  9  1  0  0  0  0
 16 11  1  0  0  0  0
 17 12  1  0  0  0  0
 18 13  1  0  0  0  0
 18 19  1  0  0  0  0
 20  3  1  0  0  0  0
 20 23  1  0  0  0  0
 21 24  1  0  0  0  0
 21 20  1  0  0  0  0
 22 21  1  0  0  0  0
 22 20  1  0  0  0  0
 25 21  1  0  0  0  0
 26 22  1  0  0  0  0
 27 22  1  0  0  0  0
M  END
>  <minimizedAffinity>
-4.85728598

$$$$

 OpenBabel03252505203D

 27 29  0  0  0  0  0  0  0  0999 V2000
   36.5540   27.7010   38.9270 C   0  0  0  0  0  0  0  0  0  0  0  0
   36.5910   26.9480   40.1060 C   0  0  0  0  0  0  0  0  0  0  0  0
   37.1070   27.5910   41.2210 C   0  0  0  0  0  0  0  0  0  0  0  0
   37.5490   28.8970   41.1410 N   0  0  0  0  0  0  0  0  0  0  0  0
   37.4820   29.5810   39.9530 C   0  0  0  0  0  0  0  0  0  0  0  0
   36.9920   28.9850   38.8630 N   0  0  0  0  0  0  0  0  0  0  0  0
   36.1540   27.2170   38.0390 H   0  0  0  0  0  0  0  0  0  0  0  0
   36.2510   25.9410   40.1700 H   0  0  0  0  0  0  0  0  0  0  0  0
   37.9490   30.9720   39.9490 C   0  0  0  0  0  0  0  0  0  0  0  0
   37.0140   31.9490   39.6350 C   0  0  0  0  0  0  0  0  0  0  0  0
   37.3980   33.2830   39.6310 C   0  0  0  0  0  0  0  0  0  0  0  0
   38.7170   33.5740   39.9470 C   0  0  0  0  0  0  0  0  0  0  0  0
   39.6020   32.5520   40.2520 C   0  0  0  0  0  0  0  0  0  0  0  0
   39.2210   31.2460   40.2540 N   0  0  0  0  0  0  0  0  0  0  0  0
   35.9750   31.7060   39.3870 H   0  0  0  0  0  0  0  0  0  0  0  0
   36.6540   34.0430   39.3830 H   0  0  0  0  0  0  0  0  0  0  0  0
   39.0310   34.6120   39.9480 H   0  0  0  0  0  0  0  0  0  0  0  0
   41.2970   32.9770   40.6530 S   0  0  0  0  0  0  0  0  0  0  0  0
   42.0050   31.8170   40.9590 H   0  0  0  0  0  0  0  0  0  0  0  0
   37.1650   26.8970   42.5440 C   0  0  0  0  0  0  0  0  0  0  0  0
   37.9650   27.6730   43.5930 C   0  0  0  0  0  0  0  0  0  0  0  0
   36.4210   27.4270   43.6540 C   0  0  0  0  0  0  0  0  0  0  0  0
   37.4490   25.8290   42.4210 H   0  0  0  0  0  0  0  0  0  0  0  0
   38.5660   27.0560   44.2610 H   0  0  0  0  0  0  0  0  0  0  0  0
   38.2940   28.6930   43.3670 H   0  0  0  0  0  0  0  0  0  0  0  0
   35.8150   28.3430   43.4810 H   0  0  0  0  0  0  0  0  0  0  0  0
   36.0640   26.8020   44.4970 H   0  0  0  0  0  0  0  0  0  0  0  0
  1  2  1  0  0  0  0
  2  8  1  0  0  0  0
  2  3  2  0  0  0  0
  3 20  1  0  0  0  0
  4  3  1  0  0  0  0
  5  4  2  0  0  0  0
  6  1  2  0  0  0  0
  6  5  1  0  0  0  0
  7  1  1  0  0  0  0
  9  5  1  0  0  0  0
  9 14  1  0  0  0  0
 10  9  2  0  0  0  0
 11 10  1  0  0  0  0
 11 12  2  0  0  0  0
 12 17  1  0  0  0  0
 12 13  1  0  0  0  0
 13 14  2  0  0  0  0
 13 18  1  0  0  0  0
 15 10  1  0  0  0  0
 16 11  1  0  0  0  0
 18 19  1  0  0  0  0
 20 21  1  0  0  0  0
 20 22  1  0  0  0  0
 21 22  1  0  0  0  0
 21 24  1  0  0  0  0
 22 27  1  0  0  0  0
 23 20  1  0  0  0  0
 25 21  1  0  0  0  0
 26 22  1  0  0  0  0
M  END
>  <minimizedAffinity>
-4.75527096

$$$$

 OpenBabel03252505203D

 27 29  0  0  0  0  0  0  0  0999 V2000
   35.5920   28.6790   40.8160 C   0  0  0  0  0  0  0  0  0  0  0  0
   35.6280   30.0190   40.4150 C   0  0  0  0  0  0  0  0  0  0  0  0
   36.7890   30.7140   40.7200 C   0  0  0  0  0  0  0  0  0  0  0  0
   37.8310   30.0930   41.3800 N   0  0  0  0  0  0  0  0  0  0  0  0
   37.7320   28.7730   41.7450 C   0  0  0  0  0  0  0  0  0  0  0  0
   36.6250   28.0800   41.4650 N   0  0  0  0  0  0  0  0  0  0  0  0
   34.6920   28.1150   40.5890 H   0  0  0  0  0  0  0  0  0  0  0  0
   34.8260   30.5010   39.9060 H   0  0  0  0  0  0  0  0  0  0  0  0
   38.8870   28.1740   42.4230 C   0  0  0  0  0  0  0  0  0  0  0  0
   38.6880   26.9430   43.0360 C   0  0  0  0  0  0  0  0  0  0  0  0
   39.7500   26.3240   43.6800 C   0  0  0  0  0  0  0  0  0  0  0  0
   40.9740   26.9770   43.6770 C   0  0  0  0  0  0  0  0  0  0  0  0
   41.1070   28.2050   43.0480 C   0  0  0  0  0  0  0  0  0  0  0  0
   40.0630   28.8080   42.4180 N   0  0  0  0  0  0  0  0  0  0  0  0
   37.7170   26.4370   43.0310 H   0  0  0  0  0  0  0  0  0  0  0  0
   39.5830   25.3570   44.1580 H   0  0  0  0  0  0  0  0  0  0  0  0
   41.8130   26.5050   44.1770 H   0  0  0  0  0  0  0  0  0  0  0  0
   42.7080   29.0120   43.0720 S   0  0  0  0  0  0  0  0  0  0  0  0
   42.6340   30.2070   42.3590 H   0  0  0  0  0  0  0  0  0  0  0  0
   36.9530   32.1430   40.3100 C   0  0  0  0  0  0  0  0  0  0  0  0
   38.3990   32.6340   40.4180 C   0  0  0  0  0  0  0  0  0  0  0  0
   37.6190   32.4510   39.0740 C   0  0  0  0  0  0  0  0  0  0  0  0
   36.1920   32.7870   40.8010 H   0  0  0  0  0  0  0  0  0  0  0  0
   38.5100   33.6620   40.7610 H   0  0  0  0  0  0  0  0  0  0  0  0
   39.1940   31.9110   40.6300 H   0  0  0  0  0  0  0  0  0  0  0  0
   37.9850   31.6020   38.4570 H   0  0  0  0  0  0  0  0  0  0  0  0
   37.4260   33.3780   38.4980 H   0  0  0  0  0  0  0  0  0  0  0  0
  1  6  1  0  0  0  0
  2  3  1  0  0  0  0
  2  1  2  0  0  0  0
  3  4  2  0  0  0  0
  4  5  1  0  0  0  0
  5  9  1  0  0  0  0
  6  5  2  0  0  0  0
  7  1  1  0  0  0  0
  8  2  1  0  0  0  0
  9 10  1  0  0  0  0
 10 11  2  0  0  0  0
 11 16  1  0  0  0  0
 12 11  1  0  0  0  0
 12 17  1  0  0  0  0
 13 18  1  0  0  0  0
 13 12  2  0  0  0  0
 14  9  2  0  0  0  0
 14 13  1  0  0  0  0
 15 10  1  0  0  0  0
 19 18  1  0  0  0  0
 20 21  1  0  0  0  0
 20  3  1  0  0  0  0
 20 23  1  0  0  0  0
 21 25  1  0  0  0  0
 21 24  1  0  0  0  0
 22 20  1  0  0  0  0
 22 21  1  0  0  0  0
 26 22  1  0  0  0  0
 27 22  1  0  0  0  0
M  END
>  <minimizedAffinity>
-4.55601454

$$$$

 OpenBabel03252505203D

 27 29  0  0  0  0  0  0  0  0999 V2000
   36.4850   27.9570   42.1910 C   0  0  0  0  0  0  0  0  0  0  0  0
   37.5570   27.1050   42.4820 C   0  0  0  0  0  0  0  0  0  0  0  0
   38.8210   27.5990   42.1970 C   0  0  0  0  0  0  0  0  0  0  0  0
   38.9800   28.8620   41.6580 N   0  0  0  0  0  0  0  0  0  0  0  0
   37.8850   29.6490   41.3980 C   0  0  0  0  0  0  0  0  0  0  0  0
   36.6560   29.1960   41.6620 N   0  0  0  0  0  0  0  0  0  0  0  0
   35.4850   27.5900   42.4050 H   0  0  0  0  0  0  0  0  0  0  0  0
   37.4370   26.1310   42.8970 H   0  0  0  0  0  0  0  0  0  0  0  0
   38.1330   30.9850   40.8480 C   0  0  0  0  0  0  0  0  0  0  0  0
   37.0470   31.6450   40.2860 C   0  0  0  0  0  0  0  0  0  0  0  0
   37.2210   32.9190   39.7630 C   0  0  0  0  0  0  0  0  0  0  0  0
   38.4900   33.4750   39.8300 C   0  0  0  0  0  0  0  0  0  0  0  0
   39.5320   32.7640   40.4050 C   0  0  0  0  0  0  0  0  0  0  0  0
   39.3570   31.5160   40.9160 N   0  0  0  0  0  0  0  0  0  0  0  0
   36.0500   31.1950   40.2380 H   0  0  0  0  0  0  0  0  0  0  0  0
   36.3610   33.4280   39.3240 H   0  0  0  0  0  0  0  0  0  0  0  0
   38.6410   34.4700   39.4260 H   0  0  0  0  0  0  0  0  0  0  0  0
   41.1560   33.5240   40.4690 S   0  0  0  0  0  0  0  0  0  0  0  0
   42.0430   32.6630   41.1100 H   0  0  0  0  0  0  0  0  0  0  0  0
   40.0430   26.7920   42.4960 C   0  0  0  0  0  0  0  0  0  0  0  0
   40.8460   27.3370   43.6800 C   0  0  0  0  0  0  0  0  0  0  0  0
   40.0770   25.9740   43.6780 C   0  0  0  0  0  0  0  0  0  0  0  0
   40.6280   26.5970   41.5710 H   0  0  0  0  0  0  0  0  0  0  0  0
   41.9280   27.2660   43.5720 H   0  0  0  0  0  0  0  0  0  0  0  0
   40.4200   28.1430   44.2880 H   0  0  0  0  0  0  0  0  0  0  0  0
   39.1760   25.9680   44.3300 H   0  0  0  0  0  0  0  0  0  0  0  0
   40.7050   25.0650   43.7670 H   0  0  0  0  0  0  0  0  0  0  0  0
  1  7  1  0  0  0  0
  1  2  1  0  0  0  0
  2  8  1  0  0  0  0
  3  2  2  0  0  0  0
  3 20  1  0  0  0  0
  4  3  1  0  0  0  0
  5  4  2  0  0  0  0
  5  6  1  0  0  0  0
  6  1  2  0  0  0  0
  9 14  1  0  0  0  0
  9  5  1  0  0  0  0
 10  9  2  0  0  0  0
 11 12  2  0  0  0  0
 11 10  1  0  0  0  0
 12 13  1  0  0  0  0
 13 18  1  0  0  0  0
 13 14  2  0  0  0  0
 15 10  1  0  0  0  0
 16 11  1  0  0  0  0
 17 12  1  0  0  0  0
 18 19  1  0  0  0  0
 20 22  1  0  0  0  0
 20 21  1  0  0  0  0
 21 25  1  0  0  0  0
 22 21  1  0  0  0  0
 22 27  1  0  0  0  0
 22 26  1  0  0  0  0
 23 20  1  0  0  0  0
 24 21  1  0  0  0  0
M  END
>  <minimizedAffinity>
-4.55001736

$$$$

 OpenBabel03252505203D

 27 29  0  0  0  0  0  0  0  0999 V2000
   36.8910   30.2010   37.9260 C   0  0  0  0  0  0  0  0  0  0  0  0
   37.3140   31.5260   38.0830 C   0  0  0  0  0  0  0  0  0  0  0  0
   37.7300   31.8840   39.3560 C   0  0  0  0  0  0  0  0  0  0  0  0
   37.7160   30.9650   40.3880 N   0  0  0  0  0  0  0  0  0  0  0  0
   37.2910   29.6780   40.1660 C   0  0  0  0  0  0  0  0  0  0  0  0
   36.8830   29.3070   38.9490 N   0  0  0  0  0  0  0  0  0  0  0  0
   36.5590   29.8980   36.9370 H   0  0  0  0  0  0  0  0  0  0  0  0
   37.3250   32.2360   37.2890 H   0  0  0  0  0  0  0  0  0  0  0  0
   37.3250   28.7520   41.3030 C   0  0  0  0  0  0  0  0  0  0  0  0
   37.4590   29.3130   42.5670 C   0  0  0  0  0  0  0  0  0  0  0  0
   37.4830   28.4840   43.6800 C   0  0  0  0  0  0  0  0  0  0  0  0
   37.3690   27.1180   43.4680 C   0  0  0  0  0  0  0  0  0  0  0  0
   37.2370   26.6210   42.1810 C   0  0  0  0  0  0  0  0  0  0  0  0
   37.2150   27.4370   41.0920 N   0  0  0  0  0  0  0  0  0  0  0  0
   37.5490   30.3930   42.7210 H   0  0  0  0  0  0  0  0  0  0  0  0
   37.5890   28.9350   44.6690 H   0  0  0  0  0  0  0  0  0  0  0  0
   37.3850   26.4580   44.3290 H   0  0  0  0  0  0  0  0  0  0  0  0
   37.0930   24.8480   41.9560 S   0  0  0  0  0  0  0  0  0  0  0  0
   36.9370   24.5650   40.6010 H   0  0  0  0  0  0  0  0  0  0  0  0
   38.2350   33.2630   39.6360 C   0  0  0  0  0  0  0  0  0  0  0  0
   38.9090   33.3880   41.0030 C   0  0  0  0  0  0  0  0  0  0  0  0
   39.6510   33.5110   39.6320 C   0  0  0  0  0  0  0  0  0  0  0  0
   37.4550   34.0240   39.4160 H   0  0  0  0  0  0  0  0  0  0  0  0
   38.7230   34.3280   41.5230 H   0  0  0  0  0  0  0  0  0  0  0  0
   39.1020   32.4830   41.5890 H   0  0  0  0  0  0  0  0  0  0  0  0
   40.3260   32.6560   39.4100 H   0  0  0  0  0  0  0  0  0  0  0  0
   40.0900   34.5030   39.4070 H   0  0  0  0  0  0  0  0  0  0  0  0
  1  2  2  0  0  0  0
  1  6  1  0  0  0  0
  2  3  1  0  0  0  0
  3 20  1  0  0  0  0
  3  4  2  0  0  0  0
  5  4  1  0  0  0  0
  5  9  1  0  0  0  0
  6  5  2  0  0  0  0
  7  1  1  0  0  0  0
  8  2  1  0  0  0  0
  9 10  1  0  0  0  0
 10 15  1  0  0  0  0
 10 11  2  0  0  0  0
 11 16  1  0  0  0  0
 12 11  1  0  0  0  0
 12 17  1  0  0  0  0
 13 12  2  0  0  0  0
 14  9  2  0  0  0  0
 14 13  1  0  0  0  0
 18 13  1  0  0  0  0
 19 18  1  0  0  0  0
 20 21  1  0  0  0  0
 21 24  1  0  0  0  0
 21 25  1  0  0  0  0
 22 20  1  0  0  0  0
 22 21  1  0  0  0  0
 23 20  1  0  0  0  0
 26 22  1  0  0  0  0
 27 22  1  0  0  0  0
M  END
>  <minimizedAffinity>
-4.54577589

$$$$

 OpenBabel03252505203D

 27 29  0  0  0  0  0  0  0  0999 V2000
   37.6520   28.6750   43.2870 C   0  0  0  0  0  0  0  0  0  0  0  0
   37.5490   27.3040   43.5490 C   0  0  0  0  0  0  0  0  0  0  0  0
   37.1020   26.5160   42.4990 C   0  0  0  0  0  0  0  0  0  0  0  0
   36.7860   27.0800   41.2780 N   0  0  0  0  0  0  0  0  0  0  0  0
   36.9110   28.4340   41.0860 C   0  0  0  0  0  0  0  0  0  0  0  0
   37.3380   29.2160   42.0810 N   0  0  0  0  0  0  0  0  0  0  0  0
   37.9980   29.3120   44.0960 H   0  0  0  0  0  0  0  0  0  0  0  0
   37.7910   26.8670   44.4900 H   0  0  0  0  0  0  0  0  0  0  0  0
   36.5790   28.9590   39.7570 C   0  0  0  0  0  0  0  0  0  0  0  0
   35.4680   28.4130   39.1250 C   0  0  0  0  0  0  0  0  0  0  0  0
   35.1000   28.8820   37.8720 C   0  0  0  0  0  0  0  0  0  0  0  0
   35.8710   29.8880   37.3080 C   0  0  0  0  0  0  0  0  0  0  0  0
   36.9670   30.3900   37.9910 C   0  0  0  0  0  0  0  0  0  0  0  0
   37.3260   29.9270   39.2190 N   0  0  0  0  0  0  0  0  0  0  0  0
   34.8670   27.6190   39.5800 H   0  0  0  0  0  0  0  0  0  0  0  0
   34.2250   28.4460   37.3840 H   0  0  0  0  0  0  0  0  0  0  0  0
   35.5940   30.2650   36.3290 H   0  0  0  0  0  0  0  0  0  0  0  0
   37.9350   31.6900   37.2220 S   0  0  0  0  0  0  0  0  0  0  0  0
   38.9620   32.0720   38.0830 H   0  0  0  0  0  0  0  0  0  0  0  0
   36.9840   25.0340   42.6530 C   0  0  0  0  0  0  0  0  0  0  0  0
   36.7680   24.3090   41.3220 C   0  0  0  0  0  0  0  0  0  0  0  0
   38.0560   24.1890   42.2020 C   0  0  0  0  0  0  0  0  0  0  0  0
   36.2660   24.7740   43.4610 H   0  0  0  0  0  0  0  0  0  0  0  0
   36.0870   23.4590   41.3680 H   0  0  0  0  0  0  0  0  0  0  0  0
   36.8590   24.8720   40.3870 H   0  0  0  0  0  0  0  0  0  0  0  0
   38.9490   24.6800   41.7560 H   0  0  0  0  0  0  0  0  0  0  0  0
   38.2580   23.1870   42.6290 H   0  0  0  0  0  0  0  0  0  0  0  0
  1  2  1  0  0  0  0
  1  7  1  0  0  0  0
  2  8  1  0  0  0  0
  3 20  1  0  0  0  0
  3  2  2  0  0  0  0
  4  3  1  0  0  0  0
  5  4  2  0  0  0  0
  5  6  1  0  0  0  0
  6  1  2  0  0  0  0
  9  5  1  0  0  0  0
 10 15  1  0  0  0  0
 10  9  2  0  0  0  0
 11 10  1  0  0  0  0
 12 11  2  0  0  0  0
 12 13  1  0  0  0  0
 13 14  2  0  0  0  0
 14  9  1  0  0  0  0
 16 11  1  0  0  0  0
 17 12  1  0  0  0  0
 18 13  1  0  0  0  0
 18 19  1  0  0  0  0
 20 23  1  0  0  0  0
 21 24  1  0  0  0  0
 21 22  1  0  0  0  0
 21 20  1  0  0  0  0
 22 27  1  0  0  0  0
 22 20  1  0  0  0  0
 25 21  1  0  0  0  0
 26 22  1  0  0  0  0
M  END
>  <minimizedAffinity>
-4.47102499

$$$$

 OpenBabel03252505203D

 27 29  0  0  0  0  0  0  0  0999 V2000
   36.9510   32.0600   40.1720 C   0  0  0  0  0  0  0  0  0  0  0  0
   38.0110   32.9290   39.8910 C   0  0  0  0  0  0  0  0  0  0  0  0
   39.2410   32.5800   40.4260 C   0  0  0  0  0  0  0  0  0  0  0  0
   39.3810   31.4360   41.1870 N   0  0  0  0  0  0  0  0  0  0  0  0
   38.3000   30.6230   41.4240 C   0  0  0  0  0  0  0  0  0  0  0  0
   37.1020   30.9370   40.9220 N   0  0  0  0  0  0  0  0  0  0  0  0
   35.9760   32.3140   39.7640 H   0  0  0  0  0  0  0  0  0  0  0  0
   37.9050   33.8120   39.3050 H   0  0  0  0  0  0  0  0  0  0  0  0
   38.5280   29.4140   42.2220 C   0  0  0  0  0  0  0  0  0  0  0  0
   37.4030   28.7300   42.6650 C   0  0  0  0  0  0  0  0  0  0  0  0
   37.5610   27.5710   43.4110 C   0  0  0  0  0  0  0  0  0  0  0  0
   38.8550   27.1490   43.6800 C   0  0  0  0  0  0  0  0  0  0  0  0
   39.9370   27.8770   43.2080 C   0  0  0  0  0  0  0  0  0  0  0  0
   39.7770   29.0130   42.4770 N   0  0  0  0  0  0  0  0  0  0  0  0
   36.3860   29.0730   42.4460 H   0  0  0  0  0  0  0  0  0  0  0  0
   36.6700   27.0410   43.7540 H   0  0  0  0  0  0  0  0  0  0  0  0
   38.9940   26.2450   44.2620 H   0  0  0  0  0  0  0  0  0  0  0  0
   41.5910   27.2930   43.5810 S   0  0  0  0  0  0  0  0  0  0  0  0
   42.5240   28.1420   42.9910 H   0  0  0  0  0  0  0  0  0  0  0  0
   40.4530   33.4160   40.1640 C   0  0  0  0  0  0  0  0  0  0  0  0
   41.7110   32.8790   40.8510 C   0  0  0  0  0  0  0  0  0  0  0  0
   41.4870   32.9110   39.3030 C   0  0  0  0  0  0  0  0  0  0  0  0
   40.2380   34.4930   40.3360 H   0  0  0  0  0  0  0  0  0  0  0  0
   42.3810   33.6430   41.2450 H   0  0  0  0  0  0  0  0  0  0  0  0
   41.6770   31.8960   41.3350 H   0  0  0  0  0  0  0  0  0  0  0  0
   41.3400   31.9050   38.8520 H   0  0  0  0  0  0  0  0  0  0  0  0
   42.1710   33.5670   38.7290 H   0  0  0  0  0  0  0  0  0  0  0  0
  1  6  1  0  0  0  0
  2  1  2  0  0  0  0
  2  3  1  0  0  0  0
  3  4  2  0  0  0  0
  4  5  1  0  0  0  0
  5  9  1  0  0  0  0
  6  5  2  0  0  0  0
  7  1  1  0  0  0  0
  8  2  1  0  0  0  0
  9 14  2  0  0  0  0
  9 10  1  0  0  0  0
 10 11  2  0  0  0  0
 11 12  1  0  0  0  0
 11 16  1  0  0  0  0
 12 17  1  0  0  0  0
 13 18  1  0  0  0  0
 13 12  2  0  0  0  0
 14 13  1  0  0  0  0
 15 10  1  0  0  0  0
 19 18  1  0  0  0  0
 20 23  1  0  0  0  0
 20  3  1  0  0  0  0
 20 21  1  0  0  0  0
 21 24  1  0  0  0  0
 21 25  1  0  0  0  0
 22 20  1  0  0  0  0
 22 21  1  0  0  0  0
 26 22  1  0  0  0  0
 27 22  1  0  0  0  0
M  END
>  <minimizedAffinity>
-4.4166975

$$$$

 OpenBabel03252505203D

 27 29  0  0  0  0  0  0  0  0999 V2000
   41.0810   29.8310   39.2510 C   0  0  0  0  0  0  0  0  0  0  0  0
   40.7060   31.1590   39.0110 C   0  0  0  0  0  0  0  0  0  0  0  0
   39.5670   31.5970   39.6700 C   0  0  0  0  0  0  0  0  0  0  0  0
   38.8660   30.7500   40.5060 N   0  0  0  0  0  0  0  0  0  0  0  0
   39.2890   29.4580   40.7000 C   0  0  0  0  0  0  0  0  0  0  0  0
   40.3820   29.0100   40.0760 N   0  0  0  0  0  0  0  0  0  0  0  0
   41.9700   29.4660   38.7440 H   0  0  0  0  0  0  0  0  0  0  0  0
   41.2450   31.8130   38.3660 H   0  0  0  0  0  0  0  0  0  0  0  0
   38.5080   28.6240   41.6190 C   0  0  0  0  0  0  0  0  0  0  0  0
   38.0470   29.2310   42.7810 C   0  0  0  0  0  0  0  0  0  0  0  0
   37.2900   28.4920   43.6800 C   0  0  0  0  0  0  0  0  0  0  0  0
   37.0280   27.1670   43.3650 C   0  0  0  0  0  0  0  0  0  0  0  0
   37.5170   26.6210   42.1880 C   0  0  0  0  0  0  0  0  0  0  0  0
   38.2590   27.3480   41.3100 N   0  0  0  0  0  0  0  0  0  0  0  0
   38.2600   30.2780   43.0180 H   0  0  0  0  0  0  0  0  0  0  0  0
   36.9330   28.9790   44.5900 H   0  0  0  0  0  0  0  0  0  0  0  0
   36.4370   26.5780   44.0580 H   0  0  0  0  0  0  0  0  0  0  0  0
   37.1540   24.9030   41.8240 S   0  0  0  0  0  0  0  0  0  0  0  0
   37.7040   24.5660   40.5900 H   0  0  0  0  0  0  0  0  0  0  0  0
   39.0900   33.0060   39.5170 C   0  0  0  0  0  0  0  0  0  0  0  0
   37.6030   33.1720   39.8330 C   0  0  0  0  0  0  0  0  0  0  0  0
   38.7670   33.7730   40.6880 C   0  0  0  0  0  0  0  0  0  0  0  0
   39.4240   33.4350   38.5470 H   0  0  0  0  0  0  0  0  0  0  0  0
   37.0740   33.8800   39.1950 H   0  0  0  0  0  0  0  0  0  0  0  0
   37.0520   32.3310   40.2700 H   0  0  0  0  0  0  0  0  0  0  0  0
   38.8920   33.2840   41.6790 H   0  0  0  0  0  0  0  0  0  0  0  0
   38.8210   34.8790   40.7210 H   0  0  0  0  0  0  0  0  0  0  0  0
  1  6  1  0  0  0  0
  2  1  2  0  0  0  0
  2  3  1  0  0  0  0
  3  4  2  0  0  0  0
  4  5  1  0  0  0  0
  5  9  1  0  0  0  0
  6  5  2  0  0  0  0
  7  1  1  0  0  0  0
  8  2  1  0  0  0  0
  9 10  1  0  0  0  0
 10 15  1  0  0  0  0
 10 11  2  0  0  0  0
 11 16  1  0  0  0  0
 12 11  1  0  0  0  0
 12 17  1  0  0  0  0
 13 12  2  0  0  0  0
 14  9  2  0  0  0  0
 14 13  1  0  0  0  0
 18 13  1  0  0  0  0
 19 18  1  0  0  0  0
 20  3  1  0  0  0  0
 20 21  1  0  0  0  0
 20 22  1  0  0  0  0
 21 25  1  0  0  0  0
 21 22  1  0  0  0  0
 22 27  1  0  0  0  0
 22 26  1  0  0  0  0
 23 20  1  0  0  0  0
 24 21  1  0  0  0  0
M  END
>  <minimizedAffinity>
-4.29665804

$$$$
