
 OpenBabel03252509123D

 24 26  0  0  0  0  0  0  0  0999 V2000
   39.4380   30.5010   42.1100 C   0  0  0  0  0  0  0  0  0  0  0  0
   38.2350   29.9850   41.6430 C   0  0  0  0  0  0  0  0  0  0  0  0
   37.3490   30.7280   40.8980 C   0  0  0  0  0  0  0  0  0  0  0  0
   37.6390   32.0580   40.5820 C   0  0  0  0  0  0  0  0  0  0  0  0
   37.0340   33.0570   39.8990 N   0  0  0  0  0  0  0  0  0  0  0  0
   37.8170   34.1610   39.9320 C   0  0  0  0  0  0  0  0  0  0  0  0
   38.9070   33.8180   40.6430 N   0  0  0  0  0  0  0  0  0  0  0  0
   38.8330   32.5420   41.0550 C   0  0  0  0  0  0  0  0  0  0  0  0
   39.7480   31.8290   41.8060 C   0  0  0  0  0  0  0  0  0  0  0  0
   40.0970   29.8740   42.6890 H   0  0  0  0  0  0  0  0  0  0  0  0
   36.1070   32.9520   39.4350 H   0  0  0  0  0  0  0  0  0  0  0  0
   37.6230   35.1290   39.4820 H   0  0  0  0  0  0  0  0  0  0  0  0
   40.6800   32.2670   42.1550 H   0  0  0  0  0  0  0  0  0  0  0  0
   36.7890   27.0430   43.2980 C   0  0  0  0  0  0  0  0  0  0  0  0
   37.2610   25.9860   42.5190 C   0  0  0  0  0  0  0  0  0  0  0  0
   38.0770   26.2910   41.4230 C   0  0  0  0  0  0  0  0  0  0  0  0
   38.3750   27.6060   41.1670 N   0  0  0  0  0  0  0  0  0  0  0  0
   37.8910   28.5980   41.9540 C   0  0  0  0  0  0  0  0  0  0  0  0
   37.1010   28.3340   43.0190 N   0  0  0  0  0  0  0  0  0  0  0  0
   36.1610   26.7830   44.1380 H   0  0  0  0  0  0  0  0  0  0  0  0
   37.0240   24.9520   42.7260 H   0  0  0  0  0  0  0  0  0  0  0  0
   38.4750   25.5260   40.7800 H   0  0  0  0  0  0  0  0  0  0  0  0
   35.8020   30.0610   40.2980 S   0  0  0  0  0  0  0  0  0  0  0  0
   35.9070   29.6290   38.9580 H   0  0  0  0  0  0  0  0  0  0  0  0
  1 10  1  0  0  0  0
  2 18  1  0  0  0  0
  2  1  2  0  0  0  0
  3  2  1  0  0  0  0
  4  3  2  0  0  0  0
  4  8  1  0  0  0  0
  5  6  1  0  0  0  0
  5  4  1  0  0  0  0
  6  7  2  0  0  0  0
  7  8  1  0  0  0  0
  8  9  2  0  0  0  0
  9  1  1  0  0  0  0
  9 13  1  0  0  0  0
 11  5  1  0  0  0  0
 12  6  1  0  0  0  0
 14 20  1  0  0  0  0
 15 21  1  0  0  0  0
 15 14  2  0  0  0  0
 16 15  1  0  0  0  0
 17 16  2  0  0  0  0
 17 18  1  0  0  0  0
 18 19  2  0  0  0  0
 19 14  1  0  0  0  0
 22 16  1  0  0  0  0
 23  3  1  0  0  0  0
 24 23  1  0  0  0  0
M  END
>  <minimizedAffinity>
-4.92913914

$$$$

 OpenBabel03252509123D

 24 26  0  0  0  0  0  0  0  0999 V2000
   36.6960   30.9280   40.4680 C   0  0  0  0  0  0  0  0  0  0  0  0
   37.6970   30.2750   41.1760 C   0  0  0  0  0  0  0  0  0  0  0  0
   38.9160   30.8560   41.4430 C   0  0  0  0  0  0  0  0  0  0  0  0
   39.1900   32.1510   40.9960 C   0  0  0  0  0  0  0  0  0  0  0  0
   40.2330   33.0110   41.0650 N   0  0  0  0  0  0  0  0  0  0  0  0
   39.9090   34.1610   40.4270 C   0  0  0  0  0  0  0  0  0  0  0  0
   38.6540   33.9870   39.9710 N   0  0  0  0  0  0  0  0  0  0  0  0
   38.1840   32.7730   40.2990 C   0  0  0  0  0  0  0  0  0  0  0  0
   36.9490   32.2250   40.0120 C   0  0  0  0  0  0  0  0  0  0  0  0
   35.7590   30.4270   40.2870 H   0  0  0  0  0  0  0  0  0  0  0  0
   41.1300   32.7840   41.5450 H   0  0  0  0  0  0  0  0  0  0  0  0
   40.5190   35.0480   40.3020 H   0  0  0  0  0  0  0  0  0  0  0  0
   36.1890   32.7660   39.4530 H   0  0  0  0  0  0  0  0  0  0  0  0
   36.7320   27.4670   43.3360 C   0  0  0  0  0  0  0  0  0  0  0  0
   37.0070   26.3550   42.5400 C   0  0  0  0  0  0  0  0  0  0  0  0
   37.5250   26.5770   41.2590 C   0  0  0  0  0  0  0  0  0  0  0  0
   37.7380   27.8690   40.8460 N   0  0  0  0  0  0  0  0  0  0  0  0
   37.4540   28.9170   41.6580 C   0  0  0  0  0  0  0  0  0  0  0  0
   36.9520   28.7340   42.9000 N   0  0  0  0  0  0  0  0  0  0  0  0
   36.3320   27.2710   44.3210 H   0  0  0  0  0  0  0  0  0  0  0  0
   36.8380   25.3390   42.8700 H   0  0  0  0  0  0  0  0  0  0  0  0
   37.7610   25.7660   40.5920 H   0  0  0  0  0  0  0  0  0  0  0  0
   40.2030   30.0130   42.3550 S   0  0  0  0  0  0  0  0  0  0  0  0
   40.2060   30.3890   43.7160 H   0  0  0  0  0  0  0  0  0  0  0  0
  1  2  1  0  0  0  0
  2  3  2  0  0  0  0
  2 18  1  0  0  0  0
  3 23  1  0  0  0  0
  4  5  1  0  0  0  0
  4  3  1  0  0  0  0
  5 11  1  0  0  0  0
  6  5  1  0  0  0  0
  7  8  1  0  0  0  0
  7  6  2  0  0  0  0
  8  4  2  0  0  0  0
  9  8  1  0  0  0  0
  9  1  2  0  0  0  0
 10  1  1  0  0  0  0
 12  6  1  0  0  0  0
 13  9  1  0  0  0  0
 14 20  1  0  0  0  0
 15 21  1  0  0  0  0
 15 14  2  0  0  0  0
 16 15  1  0  0  0  0
 17 16  2  0  0  0  0
 17 18  1  0  0  0  0
 18 19  2  0  0  0  0
 19 14  1  0  0  0  0
 22 16  1  0  0  0  0
 23 24  1  0  0  0  0
M  END
>  <minimizedAffinity>
-4.86283922

$$$$

 OpenBabel03252509123D

 24 26  0  0  0  0  0  0  0  0999 V2000
   40.3270   29.6300   42.0540 C   0  0  0  0  0  0  0  0  0  0  0  0
   39.3670   30.3860   41.3930 C   0  0  0  0  0  0  0  0  0  0  0  0
   38.0210   30.1170   41.4810 C   0  0  0  0  0  0  0  0  0  0  0  0
   37.5680   29.0470   42.2560 C   0  0  0  0  0  0  0  0  0  0  0  0
   36.3690   28.5000   42.5670 N   0  0  0  0  0  0  0  0  0  0  0  0
   36.5590   27.4420   43.3890 C   0  0  0  0  0  0  0  0  0  0  0  0
   37.8890   27.3530   43.5740 N   0  0  0  0  0  0  0  0  0  0  0  0
   38.5360   28.3160   42.8980 C   0  0  0  0  0  0  0  0  0  0  0  0
   39.8960   28.5540   42.8350 C   0  0  0  0  0  0  0  0  0  0  0  0
   41.3700   29.8860   41.9510 H   0  0  0  0  0  0  0  0  0  0  0  0
   35.4630   28.8680   42.2070 H   0  0  0  0  0  0  0  0  0  0  0  0
   35.8070   26.7890   43.8200 H   0  0  0  0  0  0  0  0  0  0  0  0
   40.6190   27.9400   43.3670 H   0  0  0  0  0  0  0  0  0  0  0  0
   40.2640   33.7860   40.3340 C   0  0  0  0  0  0  0  0  0  0  0  0
   40.6100   33.6120   38.9940 C   0  0  0  0  0  0  0  0  0  0  0  0
   40.5340   32.3210   38.4580 C   0  0  0  0  0  0  0  0  0  0  0  0
   40.1240   31.2920   39.2690 N   0  0  0  0  0  0  0  0  0  0  0  0
   39.7990   31.5130   40.5670 C   0  0  0  0  0  0  0  0  0  0  0  0
   39.8630   32.7490   41.1120 N   0  0  0  0  0  0  0  0  0  0  0  0
   40.3310   34.7920   40.7250 H   0  0  0  0  0  0  0  0  0  0  0  0
   40.9310   34.4270   38.3590 H   0  0  0  0  0  0  0  0  0  0  0  0
   40.7850   32.1150   37.4320 H   0  0  0  0  0  0  0  0  0  0  0  0
   36.7880   31.0930   40.6280 S   0  0  0  0  0  0  0  0  0  0  0  0
   36.2150   32.0640   41.4780 H   0  0  0  0  0  0  0  0  0  0  0  0
  1  9  1  0  0  0  0
  2  3  1  0  0  0  0
  2  1  2  0  0  0  0
  3  4  2  0  0  0  0
  4  5  1  0  0  0  0
  4  8  1  0  0  0  0
  5  6  1  0  0  0  0
  6  7  2  0  0  0  0
  6 12  1  0  0  0  0
  8  7  1  0  0  0  0
  9  8  2  0  0  0  0
  9 13  1  0  0  0  0
 10  1  1  0  0  0  0
 11  5  1  0  0  0  0
 14 20  1  0  0  0  0
 14 19  1  0  0  0  0
 15 14  2  0  0  0  0
 16 15  1  0  0  0  0
 16 17  2  0  0  0  0
 17 18  1  0  0  0  0
 18 19  2  0  0  0  0
 18  2  1  0  0  0  0
 21 15  1  0  0  0  0
 22 16  1  0  0  0  0
 23 24  1  0  0  0  0
 23  3  1  0  0  0  0
M  END
>  <minimizedAffinity>
-4.57945538

$$$$

 OpenBabel03252509123D

 24 26  0  0  0  0  0  0  0  0999 V2000
   37.3660   28.7770   42.9680 C   0  0  0  0  0  0  0  0  0  0  0  0
   37.6900   29.0490   41.6450 C   0  0  0  0  0  0  0  0  0  0  0  0
   37.7290   28.0730   40.6760 C   0  0  0  0  0  0  0  0  0  0  0  0
   37.4380   26.7460   41.0030 C   0  0  0  0  0  0  0  0  0  0  0  0
   37.3790   25.5660   40.3440 N   0  0  0  0  0  0  0  0  0  0  0  0
   37.0330   24.5850   41.2110 C   0  0  0  0  0  0  0  0  0  0  0  0
   36.8820   25.1870   42.4060 N   0  0  0  0  0  0  0  0  0  0  0  0
   37.1210   26.5050   42.3160 C   0  0  0  0  0  0  0  0  0  0  0  0
   37.0710   27.4560   43.3170 C   0  0  0  0  0  0  0  0  0  0  0  0
   37.3490   29.5800   43.6880 H   0  0  0  0  0  0  0  0  0  0  0  0
   37.5760   25.4690   39.3250 H   0  0  0  0  0  0  0  0  0  0  0  0
   36.8990   23.5290   41.0040 H   0  0  0  0  0  0  0  0  0  0  0  0
   36.8130   27.2060   44.3440 H   0  0  0  0  0  0  0  0  0  0  0  0
   37.3670   32.4500   40.3000 C   0  0  0  0  0  0  0  0  0  0  0  0
   38.6240   33.0020   40.5480 C   0  0  0  0  0  0  0  0  0  0  0  0
   39.5800   32.1990   41.1800 C   0  0  0  0  0  0  0  0  0  0  0  0
   39.2410   30.9140   41.5240 N   0  0  0  0  0  0  0  0  0  0  0  0
   38.0050   30.4240   41.2610 C   0  0  0  0  0  0  0  0  0  0  0  0
   37.0610   31.1760   40.6520 N   0  0  0  0  0  0  0  0  0  0  0  0
   36.6450   33.0890   39.8110 H   0  0  0  0  0  0  0  0  0  0  0  0
   38.8860   34.0150   40.2740 H   0  0  0  0  0  0  0  0  0  0  0  0
   40.5690   32.5600   41.4010 H   0  0  0  0  0  0  0  0  0  0  0  0
   38.1460   28.4260   38.9730 S   0  0  0  0  0  0  0  0  0  0  0  0
   36.9910   28.5740   38.1750 H   0  0  0  0  0  0  0  0  0  0  0  0
  1  9  1  0  0  0  0
  1 10  1  0  0  0  0
  2  1  2  0  0  0  0
  3  4  2  0  0  0  0
  3  2  1  0  0  0  0
  4  8  1  0  0  0  0
  5  4  1  0  0  0  0
  5  6  1  0  0  0  0
  6  7  2  0  0  0  0
  8  7  1  0  0  0  0
  8  9  2  0  0  0  0
  9 13  1  0  0  0  0
 11  5  1  0  0  0  0
 12  6  1  0  0  0  0
 14 15  2  0  0  0  0
 14 19  1  0  0  0  0
 15 16  1  0  0  0  0
 16 22  1  0  0  0  0
 16 17  2  0  0  0  0
 18 17  1  0  0  0  0
 18  2  1  0  0  0  0
 19 18  2  0  0  0  0
 20 14  1  0  0  0  0
 21 15  1  0  0  0  0
 23  3  1  0  0  0  0
 24 23  1  0  0  0  0
M  END
>  <minimizedAffinity>
-4.51062155

$$$$

 OpenBabel03252509123D

 24 26  0  0  0  0  0  0  0  0999 V2000
   41.3780   28.4610   42.9550 C   0  0  0  0  0  0  0  0  0  0  0  0
   40.5740   27.3300   42.8810 C   0  0  0  0  0  0  0  0  0  0  0  0
   41.0700   26.0560   43.0340 C   0  0  0  0  0  0  0  0  0  0  0  0
   42.4330   25.8570   43.2740 C   0  0  0  0  0  0  0  0  0  0  0  0
   43.2480   24.7950   43.4680 N   0  0  0  0  0  0  0  0  0  0  0  0
   44.5160   25.2310   43.6570 C   0  0  0  0  0  0  0  0  0  0  0  0
   44.4580   26.5730   43.5760 N   0  0  0  0  0  0  0  0  0  0  0  0
   43.2030   26.9900   43.3430 C   0  0  0  0  0  0  0  0  0  0  0  0
   42.7430   28.2850   43.1950 C   0  0  0  0  0  0  0  0  0  0  0  0
   40.9360   29.4370   42.8280 H   0  0  0  0  0  0  0  0  0  0  0  0
   42.9120   23.8080   43.4650 H   0  0  0  0  0  0  0  0  0  0  0  0
   45.4050   24.6370   43.8390 H   0  0  0  0  0  0  0  0  0  0  0  0
   43.4030   29.1470   43.2590 H   0  0  0  0  0  0  0  0  0  0  0  0
   37.3640   27.6740   41.1310 C   0  0  0  0  0  0  0  0  0  0  0  0
   36.4530   27.8040   42.1780 C   0  0  0  0  0  0  0  0  0  0  0  0
   36.9470   27.7710   43.4870 C   0  0  0  0  0  0  0  0  0  0  0  0
   38.2970   27.6160   43.6800 N   0  0  0  0  0  0  0  0  0  0  0  0
   39.1440   27.4930   42.6270 C   0  0  0  0  0  0  0  0  0  0  0  0
   38.6950   27.5200   41.3520 N   0  0  0  0  0  0  0  0  0  0  0  0
   36.9590   27.7010   40.1290 H   0  0  0  0  0  0  0  0  0  0  0  0
   35.3900   27.9270   42.0200 H   0  0  0  0  0  0  0  0  0  0  0  0
   36.3000   27.8660   44.3420 H   0  0  0  0  0  0  0  0  0  0  0  0
   40.0330   24.6020   42.9380 S   0  0  0  0  0  0  0  0  0  0  0  0
   39.6530   24.1500   44.2200 H   0  0  0  0  0  0  0  0  0  0  0  0
  1  9  1  0  0  0  0
  2  1  2  0  0  0  0
  2  3  1  0  0  0  0
  3  4  2  0  0  0  0
  4  8  1  0  0  0  0
  4  5  1  0  0  0  0
  5  6  1  0  0  0  0
  6 12  1  0  0  0  0
  7  6  2  0  0  0  0
  8  7  1  0  0  0  0
  9 13  1  0  0  0  0
  9  8  2  0  0  0  0
 10  1  1  0  0  0  0
 11  5  1  0  0  0  0
 14 19  2  0  0  0  0
 14 15  1  0  0  0  0
 15 16  2  0  0  0  0
 16 17  1  0  0  0  0
 16 22  1  0  0  0  0
 18  2  1  0  0  0  0
 18 17  2  0  0  0  0
 19 18  1  0  0  0  0
 20 14  1  0  0  0  0
 21 15  1  0  0  0  0
 23  3  1  0  0  0  0
 23 24  1  0  0  0  0
M  END
>  <minimizedAffinity>
-4.49482298

$$$$

 OpenBabel03252509123D

 24 26  0  0  0  0  0  0  0  0999 V2000
   39.7330   28.7630   42.6610 C   0  0  0  0  0  0  0  0  0  0  0  0
   38.7150   28.4590   41.7660 C   0  0  0  0  0  0  0  0  0  0  0  0
   38.2960   27.1700   41.5300 C   0  0  0  0  0  0  0  0  0  0  0  0
   38.8980   26.1020   42.2010 C   0  0  0  0  0  0  0  0  0  0  0  0
   38.7570   24.7560   42.2240 N   0  0  0  0  0  0  0  0  0  0  0  0
   39.6480   24.2270   43.0970 C   0  0  0  0  0  0  0  0  0  0  0  0
   40.3310   25.2710   43.6030 N   0  0  0  0  0  0  0  0  0  0  0  0
   39.9000   26.4300   43.0790 C   0  0  0  0  0  0  0  0  0  0  0  0
   40.3490   27.7100   43.3430 C   0  0  0  0  0  0  0  0  0  0  0  0
   40.0220   29.7920   42.8080 H   0  0  0  0  0  0  0  0  0  0  0  0
   38.0590   24.2440   41.6450 H   0  0  0  0  0  0  0  0  0  0  0  0
   39.7940   23.1830   43.3490 H   0  0  0  0  0  0  0  0  0  0  0  0
   41.1500   27.9100   44.0510 H   0  0  0  0  0  0  0  0  0  0  0  0
   36.3500   31.1210   40.8710 C   0  0  0  0  0  0  0  0  0  0  0  0
   36.8510   31.5860   39.6560 C   0  0  0  0  0  0  0  0  0  0  0  0
   38.0060   30.9800   39.1470 C   0  0  0  0  0  0  0  0  0  0  0  0
   38.5880   29.9620   39.8620 N   0  0  0  0  0  0  0  0  0  0  0  0
   38.0610   29.5460   41.0400 C   0  0  0  0  0  0  0  0  0  0  0  0
   36.9480   30.1130   41.5560 N   0  0  0  0  0  0  0  0  0  0  0  0
   35.4580   31.6050   41.2440 H   0  0  0  0  0  0  0  0  0  0  0  0
   36.3890   32.3870   39.0960 H   0  0  0  0  0  0  0  0  0  0  0  0
   38.4470   31.2880   38.2150 H   0  0  0  0  0  0  0  0  0  0  0  0
   36.9850   26.7810   40.3770 S   0  0  0  0  0  0  0  0  0  0  0  0
   35.7480   26.6100   41.0350 H   0  0  0  0  0  0  0  0  0  0  0  0
  1 10  1  0  0  0  0
  1  9  1  0  0  0  0
  2  1  2  0  0  0  0
  3  2  1  0  0  0  0
  3  4  2  0  0  0  0
  4  5  1  0  0  0  0
  4  8  1  0  0  0  0
  5  6  1  0  0  0  0
  6 12  1  0  0  0  0
  6  7  2  0  0  0  0
  8  9  2  0  0  0  0
  8  7  1  0  0  0  0
  9 13  1  0  0  0  0
 11  5  1  0  0  0  0
 14 20  1  0  0  0  0
 14 19  1  0  0  0  0
 15 14  2  0  0  0  0
 16 15  1  0  0  0  0
 16 17  2  0  0  0  0
 17 18  1  0  0  0  0
 18 19  2  0  0  0  0
 18  2  1  0  0  0  0
 21 15  1  0  0  0  0
 22 16  1  0  0  0  0
 23 24  1  0  0  0  0
 23  3  1  0  0  0  0
M  END
>  <minimizedAffinity>
-4.38622808

$$$$

 OpenBabel03252509123D

 24 26  0  0  0  0  0  0  0  0999 V2000
   35.7300   28.9180   40.7890 C   0  0  0  0  0  0  0  0  0  0  0  0
   36.9260   28.2120   40.8130 C   0  0  0  0  0  0  0  0  0  0  0  0
   38.1540   28.8300   40.7550 C   0  0  0  0  0  0  0  0  0  0  0  0
   38.2360   30.2220   40.6670 C   0  0  0  0  0  0  0  0  0  0  0  0
   39.2260   31.1420   40.5930 N   0  0  0  0  0  0  0  0  0  0  0  0
   38.6830   32.3800   40.5240 C   0  0  0  0  0  0  0  0  0  0  0  0
   37.3500   32.1990   40.5580 N   0  0  0  0  0  0  0  0  0  0  0  0
   37.0410   30.8950   40.6450 C   0  0  0  0  0  0  0  0  0  0  0  0
   35.7890   30.3120   40.7020 C   0  0  0  0  0  0  0  0  0  0  0  0
   34.7950   28.3840   40.8380 H   0  0  0  0  0  0  0  0  0  0  0  0
   40.2380   30.8930   40.5920 H   0  0  0  0  0  0  0  0  0  0  0  0
   39.1990   33.3310   40.4570 H   0  0  0  0  0  0  0  0  0  0  0  0
   34.8740   30.8980   40.6800 H   0  0  0  0  0  0  0  0  0  0  0  0
   37.0190   24.8000   42.1670 C   0  0  0  0  0  0  0  0  0  0  0  0
   36.8060   24.0120   41.0370 C   0  0  0  0  0  0  0  0  0  0  0  0
   36.6290   24.6590   39.8090 C   0  0  0  0  0  0  0  0  0  0  0  0
   36.6750   26.0310   39.7720 N   0  0  0  0  0  0  0  0  0  0  0  0
   36.8850   26.7530   40.9000 C   0  0  0  0  0  0  0  0  0  0  0  0
   37.0590   26.1550   42.1000 N   0  0  0  0  0  0  0  0  0  0  0  0
   37.1530   24.2770   43.1040 H   0  0  0  0  0  0  0  0  0  0  0  0
   36.7720   22.9310   41.0710 H   0  0  0  0  0  0  0  0  0  0  0  0
   36.4610   24.1140   38.8960 H   0  0  0  0  0  0  0  0  0  0  0  0
   39.6920   27.9170   40.7860 S   0  0  0  0  0  0  0  0  0  0  0  0
   40.2480   27.8800   42.0830 H   0  0  0  0  0  0  0  0  0  0  0  0
  1  2  1  0  0  0  0
  1 10  1  0  0  0  0
  2 18  1  0  0  0  0
  3 23  1  0  0  0  0
  3  2  2  0  0  0  0
  4  3  1  0  0  0  0
  5  4  1  0  0  0  0
  6  7  2  0  0  0  0
  6  5  1  0  0  0  0
  7  8  1  0  0  0  0
  8  4  2  0  0  0  0
  8  9  1  0  0  0  0
  9  1  2  0  0  0  0
 11  5  1  0  0  0  0
 12  6  1  0  0  0  0
 13  9  1  0  0  0  0
 14 20  1  0  0  0  0
 15 21  1  0  0  0  0
 15 14  2  0  0  0  0
 16 15  1  0  0  0  0
 17 16  2  0  0  0  0
 17 18  1  0  0  0  0
 18 19  2  0  0  0  0
 19 14  1  0  0  0  0
 22 16  1  0  0  0  0
 23 24  1  0  0  0  0
M  END
>  <minimizedAffinity>
-4.36941576

$$$$

 OpenBabel03252509123D

 24 26  0  0  0  0  0  0  0  0999 V2000
   36.8170   29.3890   39.2600 C   0  0  0  0  0  0  0  0  0  0  0  0
   37.5970   29.2800   40.4040 C   0  0  0  0  0  0  0  0  0  0  0  0
   38.1520   30.3720   41.0300 C   0  0  0  0  0  0  0  0  0  0  0  0
   37.9430   31.6560   40.5200 C   0  0  0  0  0  0  0  0  0  0  0  0
   38.3140   32.9140   40.8520 N   0  0  0  0  0  0  0  0  0  0  0  0
   37.7930   33.7860   39.9560 C   0  0  0  0  0  0  0  0  0  0  0  0
   37.1000   33.0390   39.0770 N   0  0  0  0  0  0  0  0  0  0  0  0
   37.1690   31.7350   39.3890 C   0  0  0  0  0  0  0  0  0  0  0  0
   36.5950   30.6640   38.7320 C   0  0  0  0  0  0  0  0  0  0  0  0
   36.4050   28.5000   38.8090 H   0  0  0  0  0  0  0  0  0  0  0  0
   38.9100   33.1350   41.6770 H   0  0  0  0  0  0  0  0  0  0  0  0
   37.9000   34.8650   39.9360 H   0  0  0  0  0  0  0  0  0  0  0  0
   35.9900   30.7880   37.8370 H   0  0  0  0  0  0  0  0  0  0  0  0
   39.1660   26.0400   41.1270 C   0  0  0  0  0  0  0  0  0  0  0  0
   38.2840   25.4650   42.0420 C   0  0  0  0  0  0  0  0  0  0  0  0
   37.1500   26.1980   42.4090 C   0  0  0  0  0  0  0  0  0  0  0  0
   36.9570   27.4390   41.8550 N   0  0  0  0  0  0  0  0  0  0  0  0
   37.8440   27.9540   40.9690 C   0  0  0  0  0  0  0  0  0  0  0  0
   38.9490   27.2700   40.5960 N   0  0  0  0  0  0  0  0  0  0  0  0
   40.0350   25.4550   40.8600 H   0  0  0  0  0  0  0  0  0  0  0  0
   38.4400   24.4870   42.4760 H   0  0  0  0  0  0  0  0  0  0  0  0
   36.4270   25.8160   43.1100 H   0  0  0  0  0  0  0  0  0  0  0  0
   39.1560   30.2280   42.5040 S   0  0  0  0  0  0  0  0  0  0  0  0
   38.4030   30.4760   43.6720 H   0  0  0  0  0  0  0  0  0  0  0  0
  1  2  1  0  0  0  0
  2 18  1  0  0  0  0
  2  3  2  0  0  0  0
  3 23  1  0  0  0  0
  4  5  1  0  0  0  0
  4  3  1  0  0  0  0
  5 11  1  0  0  0  0
  6  5  1  0  0  0  0
  7  8  1  0  0  0  0
  7  6  2  0  0  0  0
  8  4  2  0  0  0  0
  9  1  2  0  0  0  0
  9  8  1  0  0  0  0
 10  1  1  0  0  0  0
 12  6  1  0  0  0  0
 13  9  1  0  0  0  0
 14 15  1  0  0  0  0
 15 16  2  0  0  0  0
 15 21  1  0  0  0  0
 16 22  1  0  0  0  0
 17 16  1  0  0  0  0
 18 17  2  0  0  0  0
 19 18  1  0  0  0  0
 19 14  2  0  0  0  0
 20 14  1  0  0  0  0
 23 24  1  0  0  0  0
M  END
>  <minimizedAffinity>
-4.34202862

$$$$

 OpenBabel03252509123D

 24 26  0  0  0  0  0  0  0  0999 V2000
   35.1310   28.9120   39.4440 C   0  0  0  0  0  0  0  0  0  0  0  0
   36.4790   28.6940   39.6990 C   0  0  0  0  0  0  0  0  0  0  0  0
   37.4300   28.6830   38.7040 C   0  0  0  0  0  0  0  0  0  0  0  0
   37.0580   28.8960   37.3740 C   0  0  0  0  0  0  0  0  0  0  0  0
   37.6880   28.9540   36.1780 N   0  0  0  0  0  0  0  0  0  0  0  0
   36.7790   29.1980   35.2040 C   0  0  0  0  0  0  0  0  0  0  0  0
   35.5890   29.2880   35.8260 N   0  0  0  0  0  0  0  0  0  0  0  0
   35.7210   29.1100   37.1500 C   0  0  0  0  0  0  0  0  0  0  0  0
   34.7370   29.1280   38.1200 C   0  0  0  0  0  0  0  0  0  0  0  0
   34.4280   28.9110   40.2610 H   0  0  0  0  0  0  0  0  0  0  0  0
   38.7160   28.8250   36.0670 H   0  0  0  0  0  0  0  0  0  0  0  0
   36.9560   29.3030   34.1390 H   0  0  0  0  0  0  0  0  0  0  0  0
   33.6900   29.3020   37.8820 H   0  0  0  0  0  0  0  0  0  0  0  0
   37.7050   29.2820   43.1090 C   0  0  0  0  0  0  0  0  0  0  0  0
   37.7190   28.0000   43.6590 C   0  0  0  0  0  0  0  0  0  0  0  0
   37.3040   26.9350   42.8520 C   0  0  0  0  0  0  0  0  0  0  0  0
   36.9060   27.1970   41.5640 N   0  0  0  0  0  0  0  0  0  0  0  0
   36.9110   28.4620   41.0760 C   0  0  0  0  0  0  0  0  0  0  0  0
   37.3060   29.5110   41.8330 N   0  0  0  0  0  0  0  0  0  0  0  0
   38.0300   30.0880   43.7520 H   0  0  0  0  0  0  0  0  0  0  0  0
   38.0340   27.7990   44.6740 H   0  0  0  0  0  0  0  0  0  0  0  0
   37.2900   25.9200   43.2110 H   0  0  0  0  0  0  0  0  0  0  0  0
   39.1650   28.4010   39.0360 S   0  0  0  0  0  0  0  0  0  0  0  0
   39.8810   29.6150   39.1210 H   0  0  0  0  0  0  0  0  0  0  0  0
  1  2  1  0  0  0  0
  1 10  1  0  0  0  0
  2 18  1  0  0  0  0
  3 23  1  0  0  0  0
  3  2  2  0  0  0  0
  4  3  1  0  0  0  0
  5  4  1  0  0  0  0
  6  7  2  0  0  0  0
  6  5  1  0  0  0  0
  7  8  1  0  0  0  0
  8  4  2  0  0  0  0
  8  9  1  0  0  0  0
  9  1  2  0  0  0  0
 11  5  1  0  0  0  0
 12  6  1  0  0  0  0
 13  9  1  0  0  0  0
 14 15  1  0  0  0  0
 14 20  1  0  0  0  0
 15 21  1  0  0  0  0
 16 22  1  0  0  0  0
 16 15  2  0  0  0  0
 17 16  1  0  0  0  0
 18 17  2  0  0  0  0
 18 19  1  0  0  0  0
 19 14  2  0  0  0  0
 23 24  1  0  0  0  0
M  END
>  <minimizedAffinity>
-4.26536512

$$$$
