REMARK  Name = 
REMARK  2 active torsions:
REMARK  status: ('A' for Active; 'I' for Inactive)
REMARK    1  A    between atoms: C_5  and  C_9
REMARK    2  A    between atoms: C_13  and  S_20
REMARK                            x       y       z     vdW  Elec       q    Type
REMARK                         _______ _______ _______ _____ _____    ______ ____
ROOT
ATOM      1 BR   UNL     1      44.583  33.137  41.188  0.00  0.00    +0.000 Br
ATOM      2  C   UNL     1      46.273  33.989  40.945  0.00  0.00    +0.000 A 
ATOM      3  C   UNL     1      46.825  34.739  41.955  0.00  0.00    +0.000 A 
ATOM      4  C   UNL     1      48.068  35.377  41.804  0.00  0.00    +0.000 A 
ATOM      5  C   UNL     1      48.712  35.224  40.608  0.00  0.00    +0.000 A 
ATOM      6  C   UNL     1      48.133  34.470  39.623  0.00  0.00    +0.000 A 
ATOM      7  C   UNL     1      46.927  33.839  39.742  0.00  0.00    +0.000 A 
ATOM      8  H   UNL     1      48.422  35.940  42.641  0.00  0.00    +0.000 HD
ATOM      9  H   UNL     1      49.668  35.731  40.527  0.00  0.00    +0.000 HD
ATOM     10  H   UNL     1      48.703  34.392  38.694  0.00  0.00    +0.000 HD
ENDROOT
BRANCH   3  15
ATOM     11  C   UNL     1      45.600  34.040  45.333  0.00  0.00    +0.000 A 
ATOM     12  C   UNL     1      44.697  35.101  45.591  0.00  0.00    +0.000 A 
ATOM     13  C   UNL     1      44.535  36.043  44.573  0.00  0.00    +0.000 A 
ATOM     14  N   UNL     1      45.235  35.890  43.425  0.00  0.00    +0.000 NA
ATOM     15  C   UNL     1      46.089  34.865  43.211  0.00  0.00    +0.000 A 
ATOM     16  N   UNL     1      46.265  33.941  44.177  0.00  0.00    +0.000 NA
ATOM     17  H   UNL     1      45.757  33.298  46.079  0.00  0.00    +0.000 HD
ATOM     18  H   UNL     1      44.168  35.162  46.536  0.00  0.00    +0.000 HD
ATOM     19  H   UNL     1      43.860  36.868  44.720  0.00  0.00    +0.000 HD
ENDBRANCH   3  15
BRANCH   7  20
ATOM     20  S   UNL     1      46.273  32.881  38.385  0.00  0.00    +0.000 S 
ATOM     21  H   UNL     1      45.060  32.296  38.781  0.00  0.00    +0.000 HD
ENDBRANCH   7  20
TORSDOF 2
