
     RDKit          3D

 36 37  0  0  0  0  0  0  0  0999 V2000
   44.7993   33.2254   41.7584 C   0  0  1  0  0  0  0  0  0  0  0  0
   44.3356   34.2258   40.6367 C   0  0  0  0  0  0  0  0  0  0  0  0
   44.1831   33.4721   39.3713 C   0  0  0  0  0  0  0  0  0  0  0  0
   45.6211   33.1589   38.9444 C   0  0  0  0  0  0  0  0  0  0  0  0
   46.1750   32.3354   39.9845 C   0  0  0  0  0  0  0  0  0  0  0  0
   46.0942   32.7869   41.5082 C   0  0  1  0  0  0  0  0  0  0  0  0
   44.4716   35.9523   44.4661 C   0  0  0  0  0  0  0  0  0  0  0  0
   44.3986   35.3704   43.2476 C   0  0  0  0  0  0  0  0  0  0  0  0
   44.7845   34.0231   43.0300 C   0  0  0  0  0  0  0  0  0  0  0  0
   45.2181   33.3770   44.0935 N   0  0  0  0  0  0  0  0  0  0  0  0
   45.2916   33.9454   45.2956 C   0  0  0  0  0  0  0  0  0  0  0  0
   44.9150   35.2514   45.4939 N   0  0  0  0  0  0  0  0  0  0  0  0
   47.0537   33.8390   41.5455 O   0  0  0  0  0  0  0  0  0  0  0  0
   48.2673   33.1367   42.0057 C   0  0  2  0  0  0  0  0  0  0  0  0
   49.1226   34.0984   41.4741 O   0  0  0  0  0  0  0  0  0  0  0  0
   49.4686   35.2934   41.9400 C   0  0  0  0  0  0  0  0  0  0  0  0
   49.2413   36.3565   41.4369 O   0  0  0  0  0  0  0  0  0  0  0  0
   50.1511   35.2308   43.1305 N   0  0  0  0  0  0  0  0  0  0  0  0
   44.0507   32.4289   41.8020 H   0  0  0  0  0  0  0  0  0  0  0  0
   43.3264   34.5991   40.9586 H   0  0  0  0  0  0  0  0  0  0  0  0
   45.1008   34.9948   40.5727 H   0  0  0  0  0  0  0  0  0  0  0  0
   43.7216   34.1339   38.6208 H   0  0  0  0  0  0  0  0  0  0  0  0
   43.6558   32.5089   39.4816 H   0  0  0  0  0  0  0  0  0  0  0  0
   45.5186   32.5359   38.0612 H   0  0  0  0  0  0  0  0  0  0  0  0
   46.1678   34.0991   38.8093 H   0  0  0  0  0  0  0  0  0  0  0  0
   47.0556   31.9114   39.6543 H   0  0  0  0  0  0  0  0  0  0  0  0
   45.4341   31.4496   40.0718 H   0  0  0  0  0  0  0  0  0  0  0  0
   46.4478   31.8845   41.9938 H   0  0  0  0  0  0  0  0  0  0  0  0
   44.1504   36.9738   44.4950 H   0  0  0  0  0  0  0  0  0  0  0  0
   44.0552   35.8508   42.3448 H   0  0  0  0  0  0  0  0  0  0  0  0
   45.6502   33.4020   46.1621 H   0  0  0  0  0  0  0  0  0  0  0  0
   47.6486   32.5212   42.4733 H   0  0  0  0  0  0  0  0  0  0  0  0
   50.9226   35.4034   43.8197 H   0  0  0  0  0  0  0  0  0  0  0  0
   51.0693   35.7365   43.1387 H   0  0  0  0  0  0  0  0  0  0  0  0
   48.9645   31.8387   40.9292 S   0  0  0  0  0  0  0  0  0  0  0  0
   50.1207   32.1687   40.2636 H   0  0  0  0  0  0  0  0  0  0  0  0
  1  9  1  0
  2  1  1  0
  3  2  1  0
  4  3  1  0
  4  5  1  0
  5  6  1  0
  6 13  1  0
  6  1  1  0
  7 12  2  0
  8  7  1  0
  9  8  2  0
  9 10  1  0
 10 11  2  0
 11 12  1  0
 13 14  1  0
 15 16  1  0
 15 14  1  0
 16 18  1  0
 17 16  2  0
  1 19  1  1
  2 20  1  0
  2 21  1  0
  3 22  1  0
  3 23  1  0
  4 24  1  0
  4 25  1  0
  5 26  1  0
  5 27  1  0
  6 28  1  1
  7 29  1  0
  8 30  1  0
 11 31  1  0
 14 32  1  1
 18 33  1  0
 18 34  1  0
 35 36  1  0
 14 35  1  0
M  ISO  8  19  13  20  13  21  13  22  13  23  13  24  13  25  13  26  13
M  ISO  7  27  13  28  13  29  14  30  14  31  14  32   8  36  11
M  END
>  <DihAtoms>  (1) 
12,13,34,35

>  <DihDeg>  (1) 
61.22049355320793

$$$$
