REMARK  Name = 
REMARK  6 active torsions:
REMARK  status: ('A' for Active; 'I' for Inactive)
REMARK    1  A    between atoms: C_1  and  C_9
REMARK    2  A    between atoms: C_6  and  O_13
REMARK    3  A    between atoms: O_13  and  C_14
REMARK    4  A    between atoms: C_14  and  O_15
REMARK    5  A    between atoms: C_14  and  S_35
REMARK    6  A    between atoms: O_15  and  C_16
REMARK                            x       y       z     vdW  Elec       q    Type
REMARK                         _______ _______ _______ _____ _____    ______ ____
ROOT
ATOM      1  C   UNL     1      44.799  33.225  41.758  0.00  0.00    +0.000 C 
ATOM      2  C   UNL     1      44.336  34.226  40.637  0.00  0.00    +0.000 C 
ATOM      3  C   UNL     1      44.183  33.472  39.371  0.00  0.00    +0.000 C 
ATOM      4  C   UNL     1      45.621  33.159  38.944  0.00  0.00    +0.000 C 
ATOM      5  C   UNL     1      46.175  32.335  39.984  0.00  0.00    +0.000 C 
ATOM      6  C   UNL     1      46.094  32.787  41.508  0.00  0.00    +0.000 C 
ATOM      7  H   UNL     1      44.051  32.429  41.802  0.00  0.00    +0.000 HD
ATOM      8  H   UNL     1      43.326  34.599  40.959  0.00  0.00    +0.000 HD
ATOM      9  H   UNL     1      45.101  34.995  40.573  0.00  0.00    +0.000 HD
ATOM     10  H   UNL     1      43.722  34.134  38.621  0.00  0.00    +0.000 HD
ATOM     11  H   UNL     1      43.656  32.509  39.482  0.00  0.00    +0.000 HD
ATOM     12  H   UNL     1      45.519  32.536  38.061  0.00  0.00    +0.000 HD
ATOM     13  H   UNL     1      46.168  34.099  38.809  0.00  0.00    +0.000 HD
ATOM     14  H   UNL     1      47.056  31.911  39.654  0.00  0.00    +0.000 HD
ATOM     15  H   UNL     1      45.434  31.450  40.072  0.00  0.00    +0.000 HD
ATOM     16  H   UNL     1      46.448  31.884  41.994  0.00  0.00    +0.000 HD
ENDROOT
BRANCH   1  19
ATOM     17  C   UNL     1      44.472  35.952  44.466  0.00  0.00    +0.000 A 
ATOM     18  C   UNL     1      44.399  35.370  43.248  0.00  0.00    +0.000 A 
ATOM     19  C   UNL     1      44.785  34.023  43.030  0.00  0.00    +0.000 A 
ATOM     20  N   UNL     1      45.218  33.377  44.093  0.00  0.00    +0.000 NA
ATOM     21  C   UNL     1      45.292  33.945  45.296  0.00  0.00    +0.000 A 
ATOM     22  N   UNL     1      44.915  35.251  45.494  0.00  0.00    +0.000 NA
ATOM     23  H   UNL     1      44.150  36.974  44.495  0.00  0.00    +0.000 HD
ATOM     24  H   UNL     1      44.055  35.851  42.345  0.00  0.00    +0.000 HD
ATOM     25  H   UNL     1      45.650  33.402  46.162  0.00  0.00    +0.000 HD
ENDBRANCH   1  19
BRANCH   6  26
ATOM     26  O   UNL     1      47.054  33.839  41.545  0.00  0.00    +0.000 OA
BRANCH  26  27
ATOM     27  C   UNL     1      48.267  33.137  42.006  0.00  0.00    +0.000 C 
ATOM     28  H   UNL     1      47.649  32.521  42.473  0.00  0.00    +0.000 HD
BRANCH  27  29
ATOM     29  S   UNL     1      48.965  31.839  40.929  0.00  0.00    +0.000 S 
ATOM     30  H   UNL     1      50.262  32.032  40.520  0.00  0.00    +0.000 HD
ENDBRANCH  27  29
BRANCH  27  31
ATOM     31  O   UNL     1      49.123  34.098  41.474  0.00  0.00    +0.000 OA
BRANCH  31  32
ATOM     32  C   UNL     1      49.469  35.293  41.940  0.00  0.00    +0.000 C 
ATOM     33  O   UNL     1      49.241  36.356  41.437  0.00  0.00    +0.000 OA
ATOM     34  N   UNL     1      50.151  35.231  43.130  0.00  0.00    +0.000 N 
ATOM     35  H   UNL     1      50.923  35.403  43.820  0.00  0.00    +0.000 HD
ATOM     36  H   UNL     1      51.069  35.736  43.139  0.00  0.00    +0.000 HD
ENDBRANCH  31  32
ENDBRANCH  27  31
ENDBRANCH  26  27
ENDBRANCH   6  26
TORSDOF 6
