
 OpenBabel03242514563D

 18 18  0  0  0  0  0  0  0  0999 V2000
   45.6050   34.6350   44.1320 C   0  0  0  0  0  0  0  0  0  0  0  0
   46.6520   33.9020   43.5340 C   0  0  0  0  0  0  0  0  0  0  0  0
   47.2630   32.9050   44.2930 C   0  0  0  0  0  0  0  0  0  0  0  0
   46.8090   32.7090   45.5540 N   0  0  0  0  0  0  0  0  0  0  0  0
   45.8090   33.4180   46.1050 C   0  0  0  0  0  0  0  0  0  0  0  0
   45.2030   34.3790   45.4080 N   0  0  0  0  0  0  0  0  0  0  0  0
   46.9710   34.1050   42.5210 H   0  0  0  0  0  0  0  0  0  0  0  0
   48.0660   32.3140   43.8910 H   0  0  0  0  0  0  0  0  0  0  0  0
   45.5140   33.1960   47.1130 H   0  0  0  0  0  0  0  0  0  0  0  0
   44.8630   35.9030   43.0770 S   0  0  0  0  0  0  0  0  0  0  0  0
   44.1290   35.2350   41.6080 C   0  0  0  0  0  0  0  0  0  0  0  0
   44.5310   35.6730   40.6680 H   0  0  0  0  0  0  0  0  0  0  0  0
   44.3890   34.1500   41.5410 H   0  0  0  0  0  0  0  0  0  0  0  0
   42.6290   35.2960   41.5760 C   0  0  0  0  0  0  0  0  0  0  0  0
   42.2850   36.1770   41.0160 H   0  0  0  0  0  0  0  0  0  0  0  0
   42.2990   35.3870   42.6430 H   0  0  0  0  0  0  0  0  0  0  0  0
   41.9450   33.7290   40.9820 S   0  0  0  0  0  0  0  0  0  0  0  0
   40.8870   33.9660   40.0630 H   0  0  0  0  0  0  0  0  0  0  0  0
  1  6  1  0  0  0  0
  2  1  2  0  0  0  0
  2  3  1  0  0  0  0
  3  4  2  0  0  0  0
  4  5  1  0  0  0  0
  5  9  1  0  0  0  0
  6  5  2  0  0  0  0
  7  2  1  0  0  0  0
  8  3  1  0  0  0  0
 10  1  1  0  0  0  0
 11 10  1  0  0  0  0
 12 11  1  0  0  0  0
 13 11  1  0  0  0  0
 14 11  1  0  0  0  0
 14 16  1  0  0  0  0
 15 14  1  0  0  0  0
 17 14  1  0  0  0  0
 18 17  1  0  0  0  0
M  END
>  <minimizedAffinity>
-2.87034178

>  <minimizedRMSD>
0.651429296

$$$$
