REMARK  Name = 
REMARK  11 active torsions:
REMARK  status: ('A' for Active; 'I' for Inactive)
REMARK    1  A    between atoms: C_1  and  C_2
REMARK    2  A    between atoms: C_1  and  C_12
REMARK    3  A    between atoms: C_5  and  O_7
REMARK    4  A    between atoms: O_7  and  P_9
REMARK    5  A    between atoms: P_9  and  O_10
REMARK    6  A    between atoms: P_9  and  O_11
REMARK    7  A    between atoms: C_12  and  C_13
REMARK    8  A    between atoms: C_14  and  S_19
REMARK    9  A    between atoms: S_19  and  C_20
REMARK   10  A    between atoms: C_20  and  C_21
REMARK   11  A    between atoms: C_21  and  S_35
REMARK                            x       y       z     vdW  Elec       q    Type
REMARK                         _______ _______ _______ _____ _____    ______ ____
ROOT
ATOM      1  C   UNL     1      47.456  34.562  40.825  0.00  0.00    +0.000 C 
ATOM      2  H   UNL     1      46.784  33.974  40.169  0.00  0.00    +0.000 HD
ATOM      3  H   UNL     1      47.728  35.473  40.216  0.00  0.00    +0.000 HD
ENDROOT
BRANCH   1   4
ATOM      4  C   UNL     1      48.701  33.844  41.129  0.00  0.00    +0.000 A 
ATOM      5  C   UNL     1      49.033  32.778  40.292  0.00  0.00    +0.000 A 
ATOM      6  C   UNL     1      50.182  32.038  40.492  0.00  0.00    +0.000 A 
ATOM      7  N   UNL     1      50.982  32.398  41.551  0.00  0.00    +0.000 NA
ATOM      8  C   UNL     1      50.618  33.455  42.350  0.00  0.00    +0.000 A 
ATOM      9  N   UNL     1      49.508  34.142  42.128  0.00  0.00    +0.000 NA
ATOM     10  H   UNL     1      50.464  31.208  39.860  0.00  0.00    +0.000 HD
ATOM     11  H   UNL     1      51.265  33.727  43.185  0.00  0.00    +0.000 HD
BRANCH   5  12
ATOM     12  S   UNL     1      47.955  32.348  38.925  0.00  0.00    +0.000 S 
BRANCH  12  13
ATOM     13  C   UNL     1      48.612  32.982  37.373  0.00  0.00    +0.000 C 
ATOM     14  H   UNL     1      48.111  32.500  36.523  0.00  0.00    +0.000 HD
ATOM     15  H   UNL     1      49.705  32.833  37.277  0.00  0.00    +0.000 HD
BRANCH  13  16
ATOM     16  C   UNL     1      48.299  34.452  37.284  0.00  0.00    +0.000 C 
ATOM     17  H   UNL     1      48.837  34.955  38.136  0.00  0.00    +0.000 HD
ATOM     18  H   UNL     1      47.231  34.653  37.427  0.00  0.00    +0.000 HD
BRANCH  16  19
ATOM     19  S   UNL     1      48.937  35.150  35.737  0.00  0.00    +0.000 S 
ATOM     20  H   UNL     1      48.905  36.556  35.814  0.00  0.00    +0.000 HD
ENDBRANCH  16  19
ENDBRANCH  13  16
ENDBRANCH  12  13
ENDBRANCH   5  12
ENDBRANCH   1   4
BRANCH   1  21
ATOM     21  C   UNL     1      46.657  34.899  42.045  0.00  0.00    +0.000 C 
ATOM     22  H   UNL     1      46.977  34.240  42.849  0.00  0.00    +0.000 HD
ATOM     23  H   UNL     1      46.935  35.960  42.308  0.00  0.00    +0.000 HD
BRANCH  21  24
ATOM     24  C   UNL     1      45.186  34.900  41.805  0.00  0.00    +0.000 A 
ATOM     25  C   UNL     1      44.314  35.530  42.731  0.00  0.00    +0.000 A 
ATOM     26  S   UNL     1      42.657  35.269  42.015  0.00  0.00    +0.000 S 
ATOM     27  C   UNL     1      43.416  34.324  40.537  0.00  0.00    +0.000 A 
ATOM     28  N   UNL     1      44.530  34.375  40.806  0.00  0.00    +0.000 NA
ATOM     29  H   UNL     1      44.554  36.048  43.650  0.00  0.00    +0.000 HD
BRANCH  27  30
ATOM     30  O   UNL     1      42.655  33.792  39.508  0.00  0.00    +0.000 OA
BRANCH  30  32
ATOM     31  O   UNL     1      40.694  34.127  37.756  0.00  0.00    +0.000 OA
ATOM     32  P   UNL     1      41.739  34.880  38.569  0.00  0.00    +0.000 P 
BRANCH  32  33
ATOM     33  O   UNL     1      40.950  35.953  39.629  0.00  0.00    +0.000 OA
ATOM     34  H   UNL     1      40.594  35.440  40.385  0.00  0.00    +0.000 HD
ENDBRANCH  32  33
BRANCH  32  35
ATOM     35  O   UNL     1      42.762  35.792  37.580  0.00  0.00    +0.000 OA
ATOM     36  H   UNL     1      43.288  35.248  36.973  0.00  0.00    +0.000 HD
ENDBRANCH  32  35
ENDBRANCH  30  32
ENDBRANCH  27  30
ENDBRANCH  21  24
ENDBRANCH   1  21
TORSDOF 11
