
 OpenBabel03252507493D

 36 37  0  0  0  0  0  0  0  0999 V2000
   36.6090   27.2360   42.7330 C   0  0  0  0  0  0  0  0  0  0  0  0
   35.7760   26.9030   43.3840 H   0  0  0  0  0  0  0  0  0  0  0  0
   36.1350   27.9620   42.0090 H   0  0  0  0  0  0  0  0  0  0  0  0
   37.1740   26.1320   41.9470 C   0  0  0  0  0  0  0  0  0  0  0  0
   37.2040   26.2960   40.5620 C   0  0  0  0  0  0  0  0  0  0  0  0
   37.7150   25.3170   39.7320 C   0  0  0  0  0  0  0  0  0  0  0  0
   38.1910   24.1740   40.3320 N   0  0  0  0  0  0  0  0  0  0  0  0
   38.1430   24.0540   41.7000 C   0  0  0  0  0  0  0  0  0  0  0  0
   37.6460   25.0140   42.4640 N   0  0  0  0  0  0  0  0  0  0  0  0
   37.7510   25.4170   38.6570 H   0  0  0  0  0  0  0  0  0  0  0  0
   38.5260   23.1410   42.1590 H   0  0  0  0  0  0  0  0  0  0  0  0
   36.5690   27.8040   39.8290 S   0  0  0  0  0  0  0  0  0  0  0  0
   35.5100   27.4310   38.4210 C   0  0  0  0  0  0  0  0  0  0  0  0
   34.4750   27.7280   38.6350 H   0  0  0  0  0  0  0  0  0  0  0  0
   35.5260   26.3590   38.1450 H   0  0  0  0  0  0  0  0  0  0  0  0
   35.9640   28.2560   37.2460 C   0  0  0  0  0  0  0  0  0  0  0  0
   35.7240   29.3300   37.4870 H   0  0  0  0  0  0  0  0  0  0  0  0
   35.4090   28.0090   36.3340 H   0  0  0  0  0  0  0  0  0  0  0  0
   37.7590   28.1250   37.0270 S   0  0  0  0  0  0  0  0  0  0  0  0
   38.1970   26.8790   37.5140 H   0  0  0  0  0  0  0  0  0  0  0  0
   37.6080   27.8890   43.6370 C   0  0  0  0  0  0  0  0  0  0  0  0
   37.0670   28.3490   44.4600 H   0  0  0  0  0  0  0  0  0  0  0  0
   38.2460   27.0510   44.0400 H   0  0  0  0  0  0  0  0  0  0  0  0
   38.5340   28.8120   42.9220 C   0  0  0  0  0  0  0  0  0  0  0  0
   39.9220   28.5210   42.8580 C   0  0  0  0  0  0  0  0  0  0  0  0
   40.6150   29.9110   41.9040 S   0  0  0  0  0  0  0  0  0  0  0  0
   38.8800   30.6940   41.7340 C   0  0  0  0  0  0  0  0  0  0  0  0
   38.2470   29.9250   42.3040 N   0  0  0  0  0  0  0  0  0  0  0  0
   40.4610   27.6790   43.2710 H   0  0  0  0  0  0  0  0  0  0  0  0
   38.6490   31.8830   41.0590 O   0  0  0  0  0  0  0  0  0  0  0  0
   37.3500   31.2320   38.8420 O   0  0  0  0  0  0  0  0  0  0  0  0
   37.2120   32.0000   40.1500 P   0  0  0  0  0  0  0  0  0  0  0  0
   35.9530   31.3130   41.0670 O   0  0  0  0  0  0  0  0  0  0  0  0
   36.2810   30.4860   41.4780 H   0  0  0  0  0  0  0  0  0  0  0  0
   36.8290   33.6240   39.8830 O   0  0  0  0  0  0  0  0  0  0  0  0
   37.5220   34.1050   39.4040 H   0  0  0  0  0  0  0  0  0  0  0  0
  1  2  1  0  0  0  0
  1 21  1  0  0  0  0
  3  1  1  0  0  0  0
  4  9  1  0  0  0  0
  4  1  1  0  0  0  0
  5  4  2  0  0  0  0
  6  7  2  0  0  0  0
  6  5  1  0  0  0  0
  7  8  1  0  0  0  0
  8 11  1  0  0  0  0
  8  9  2  0  0  0  0
 10  6  1  0  0  0  0
 12  5  1  0  0  0  0
 13 14  1  0  0  0  0
 13 12  1  0  0  0  0
 15 13  1  0  0  0  0
 16 17  1  0  0  0  0
 16 13  1  0  0  0  0
 18 16  1  0  0  0  0
 19 16  1  0  0  0  0
 19 20  1  0  0  0  0
 21 23  1  0  0  0  0
 21 22  1  0  0  0  0
 24 21  1  0  0  0  0
 25 24  2  0  0  0  0
 25 29  1  0  0  0  0
 26 25  1  0  0  0  0
 27 26  1  0  0  0  0
 27 28  2  0  0  0  0
 28 24  1  0  0  0  0
 30 27  1  0  0  0  0
 31 32  2  0  0  0  0
 32 30  1  0  0  0  0
 32 33  1  0  0  0  0
 33 34  1  0  0  0  0
 35 32  1  0  0  0  0
 36 35  1  0  0  0  0
M  END
>  <minimizedAffinity>
-4.8038435

$$$$

 OpenBabel03252507493D

 36 37  0  0  0  0  0  0  0  0999 V2000
   36.3200   30.1610   40.0350 C   0  0  0  0  0  0  0  0  0  0  0  0
   35.8850   31.0830   40.4690 H   0  0  0  0  0  0  0  0  0  0  0  0
   35.4410   29.6120   39.5860 H   0  0  0  0  0  0  0  0  0  0  0  0
   36.9090   29.2910   41.0610 C   0  0  0  0  0  0  0  0  0  0  0  0
   36.8990   27.9190   40.8040 C   0  0  0  0  0  0  0  0  0  0  0  0
   37.4280   27.0150   41.7050 C   0  0  0  0  0  0  0  0  0  0  0  0
   37.9620   27.5270   42.8640 N   0  0  0  0  0  0  0  0  0  0  0  0
   37.9510   28.8840   43.0770 C   0  0  0  0  0  0  0  0  0  0  0  0
   37.4350   29.7210   42.1910 N   0  0  0  0  0  0  0  0  0  0  0  0
   37.4340   25.9490   41.5320 H   0  0  0  0  0  0  0  0  0  0  0  0
   38.3800   29.2720   44.0020 H   0  0  0  0  0  0  0  0  0  0  0  0
   36.1890   27.3030   39.2770 S   0  0  0  0  0  0  0  0  0  0  0  0
   37.4840   26.8780   38.1000 C   0  0  0  0  0  0  0  0  0  0  0  0
   37.8500   25.8600   38.2890 H   0  0  0  0  0  0  0  0  0  0  0  0
   38.3400   27.5790   38.1310 H   0  0  0  0  0  0  0  0  0  0  0  0
   36.8910   26.8750   36.7150 C   0  0  0  0  0  0  0  0  0  0  0  0
   35.7750   26.9680   36.8350 H   0  0  0  0  0  0  0  0  0  0  0  0
   37.0720   25.9280   36.1940 H   0  0  0  0  0  0  0  0  0  0  0  0
   37.4680   28.3110   35.7690 S   0  0  0  0  0  0  0  0  0  0  0  0
   38.7380   28.6970   36.2380 H   0  0  0  0  0  0  0  0  0  0  0  0
   37.3080   30.6110   39.0050 C   0  0  0  0  0  0  0  0  0  0  0  0
   37.9720   29.7760   38.7890 H   0  0  0  0  0  0  0  0  0  0  0  0
   36.7030   30.8460   38.0830 H   0  0  0  0  0  0  0  0  0  0  0  0
   38.0130   31.8710   39.3750 C   0  0  0  0  0  0  0  0  0  0  0  0
   37.3750   32.8250   40.2110 C   0  0  0  0  0  0  0  0  0  0  0  0
   38.6100   34.1580   40.3700 S   0  0  0  0  0  0  0  0  0  0  0  0
   39.8290   33.1980   39.2550 C   0  0  0  0  0  0  0  0  0  0  0  0
   39.2090   32.2600   39.0250 N   0  0  0  0  0  0  0  0  0  0  0  0
   36.3910   32.7890   40.6580 H   0  0  0  0  0  0  0  0  0  0  0  0
   41.0880   33.6750   38.9240 O   0  0  0  0  0  0  0  0  0  0  0  0
   42.9080   31.9530   38.0580 O   0  0  0  0  0  0  0  0  0  0  0  0
   41.8680   32.9620   37.5870 P   0  0  0  0  0  0  0  0  0  0  0  0
   40.6910   32.1550   36.6610 O   0  0  0  0  0  0  0  0  0  0  0  0
   40.0890   31.6760   37.2690 H   0  0  0  0  0  0  0  0  0  0  0  0
   42.5570   34.1600   36.6150 O   0  0  0  0  0  0  0  0  0  0  0  0
   43.2100   34.7020   37.0840 H   0  0  0  0  0  0  0  0  0  0  0  0
  1  2  1  0  0  0  0
  1  4  1  0  0  0  0
  3  1  1  0  0  0  0
  4  9  1  0  0  0  0
  5  4  2  0  0  0  0
  5  6  1  0  0  0  0
  6  7  2  0  0  0  0
  7  8  1  0  0  0  0
  8 11  1  0  0  0  0
  9  8  2  0  0  0  0
 10  6  1  0  0  0  0
 12  5  1  0  0  0  0
 13 15  1  0  0  0  0
 13 14  1  0  0  0  0
 13 12  1  0  0  0  0
 16 17  1  0  0  0  0
 16 13  1  0  0  0  0
 18 16  1  0  0  0  0
 19 20  1  0  0  0  0
 19 16  1  0  0  0  0
 21 24  1  0  0  0  0
 21  1  1  0  0  0  0
 22 21  1  0  0  0  0
 23 21  1  0  0  0  0
 24 25  2  0  0  0  0
 25 26  1  0  0  0  0
 25 29  1  0  0  0  0
 27 26  1  0  0  0  0
 28 27  2  0  0  0  0
 28 24  1  0  0  0  0
 30 27  1  0  0  0  0
 32 31  2  0  0  0  0
 32 30  1  0  0  0  0
 33 34  1  0  0  0  0
 33 32  1  0  0  0  0
 35 36  1  0  0  0  0
 35 32  1  0  0  0  0
M  END
>  <minimizedAffinity>
-4.78070164

$$$$

 OpenBabel03252507493D

 36 37  0  0  0  0  0  0  0  0999 V2000
   37.2860   27.4030   42.8290 C   0  0  0  0  0  0  0  0  0  0  0  0
   36.4860   27.0140   43.4890 H   0  0  0  0  0  0  0  0  0  0  0  0
   36.9180   27.2000   41.7810 H   0  0  0  0  0  0  0  0  0  0  0  0
   38.5510   26.6780   43.0030 C   0  0  0  0  0  0  0  0  0  0  0  0
   38.5860   25.3570   42.5540 C   0  0  0  0  0  0  0  0  0  0  0  0
   39.7270   24.5880   42.6720 C   0  0  0  0  0  0  0  0  0  0  0  0
   40.8250   25.1800   43.2510 N   0  0  0  0  0  0  0  0  0  0  0  0
   40.7470   26.4840   43.6790 C   0  0  0  0  0  0  0  0  0  0  0  0
   39.6360   27.1910   43.5500 N   0  0  0  0  0  0  0  0  0  0  0  0
   39.7830   23.5630   42.3330 H   0  0  0  0  0  0  0  0  0  0  0  0
   41.6280   26.9380   44.1360 H   0  0  0  0  0  0  0  0  0  0  0  0
   37.1270   24.6300   41.8070 S   0  0  0  0  0  0  0  0  0  0  0  0
   37.0530   25.0170   40.0490 C   0  0  0  0  0  0  0  0  0  0  0  0
   38.0140   25.4260   39.7090 H   0  0  0  0  0  0  0  0  0  0  0  0
   36.2490   25.7360   39.8020 H   0  0  0  0  0  0  0  0  0  0  0  0
   36.8310   23.7380   39.2860 C   0  0  0  0  0  0  0  0  0  0  0  0
   37.2640   23.8910   38.2570 H   0  0  0  0  0  0  0  0  0  0  0  0
   35.7650   23.5230   39.1470 H   0  0  0  0  0  0  0  0  0  0  0  0
   37.7220   22.3650   40.0640 S   0  0  0  0  0  0  0  0  0  0  0  0
   37.8490   22.6150   41.4430 H   0  0  0  0  0  0  0  0  0  0  0  0
   37.3990   28.8660   43.1280 C   0  0  0  0  0  0  0  0  0  0  0  0
   36.5950   29.1320   43.8100 H   0  0  0  0  0  0  0  0  0  0  0  0
   38.3870   28.9930   43.6580 H   0  0  0  0  0  0  0  0  0  0  0  0
   37.4690   29.7150   41.9050 C   0  0  0  0  0  0  0  0  0  0  0  0
   36.3000   29.9570   41.1390 C   0  0  0  0  0  0  0  0  0  0  0  0
   36.8840   31.0230   39.7790 S   0  0  0  0  0  0  0  0  0  0  0  0
   38.6650   30.9750   40.4710 C   0  0  0  0  0  0  0  0  0  0  0  0
   38.5120   30.3110   41.3940 N   0  0  0  0  0  0  0  0  0  0  0  0
   35.2900   29.6040   41.3040 H   0  0  0  0  0  0  0  0  0  0  0  0
   39.7270   31.6350   39.8740 O   0  0  0  0  0  0  0  0  0  0  0  0
   40.2970   34.1600   39.3010 O   0  0  0  0  0  0  0  0  0  0  0  0
   40.1110   33.1890   40.4590 P   0  0  0  0  0  0  0  0  0  0  0  0
   38.8160   33.7210   41.4270 O   0  0  0  0  0  0  0  0  0  0  0  0
   37.9750   33.4920   40.9770 H   0  0  0  0  0  0  0  0  0  0  0  0
   41.4880   33.1120   41.4370 O   0  0  0  0  0  0  0  0  0  0  0  0
   42.2670   32.7710   40.9710 H   0  0  0  0  0  0  0  0  0  0  0  0
  1  4  1  0  0  0  0
  1 21  1  0  0  0  0
  1  2  1  0  0  0  0
  3  1  1  0  0  0  0
  4  9  1  0  0  0  0
  5  6  1  0  0  0  0
  5  4  2  0  0  0  0
  6  7  2  0  0  0  0
  7  8  1  0  0  0  0
  8 11  1  0  0  0  0
  9  8  2  0  0  0  0
 10  6  1  0  0  0  0
 12  5  1  0  0  0  0
 13 12  1  0  0  0  0
 14 13  1  0  0  0  0
 15 13  1  0  0  0  0
 16 13  1  0  0  0  0
 16 19  1  0  0  0  0
 17 16  1  0  0  0  0
 18 16  1  0  0  0  0
 19 20  1  0  0  0  0
 21 23  1  0  0  0  0
 21 22  1  0  0  0  0
 24 21  1  0  0  0  0
 25 29  1  0  0  0  0
 25 24  2  0  0  0  0
 26 27  1  0  0  0  0
 26 25  1  0  0  0  0
 27 28  2  0  0  0  0
 28 24  1  0  0  0  0
 30 32  1  0  0  0  0
 30 27  1  0  0  0  0
 31 32  2  0  0  0  0
 32 33  1  0  0  0  0
 32 35  1  0  0  0  0
 34 33  1  0  0  0  0
 36 35  1  0  0  0  0
M  END
>  <minimizedAffinity>
-4.76401997

$$$$

 OpenBabel03252507493D

 36 37  0  0  0  0  0  0  0  0999 V2000
   36.9600   27.3500   42.8960 C   0  0  0  0  0  0  0  0  0  0  0  0
   37.7790   26.6040   42.8720 H   0  0  0  0  0  0  0  0  0  0  0  0
   36.1170   26.8330   43.4410 H   0  0  0  0  0  0  0  0  0  0  0  0
   36.4770   27.6880   41.5510 C   0  0  0  0  0  0  0  0  0  0  0  0
   36.9190   26.8790   40.5030 C   0  0  0  0  0  0  0  0  0  0  0  0
   36.5230   27.1120   39.2000 C   0  0  0  0  0  0  0  0  0  0  0  0
   35.6780   28.1750   38.9830 N   0  0  0  0  0  0  0  0  0  0  0  0
   35.2670   28.9450   40.0440 C   0  0  0  0  0  0  0  0  0  0  0  0
   35.6670   28.6920   41.2800 N   0  0  0  0  0  0  0  0  0  0  0  0
   36.8490   26.5030   38.3690 H   0  0  0  0  0  0  0  0  0  0  0  0
   34.5950   29.7830   39.8530 H   0  0  0  0  0  0  0  0  0  0  0  0
   38.0220   25.5060   40.8390 S   0  0  0  0  0  0  0  0  0  0  0  0
   37.0860   24.0180   41.2280 C   0  0  0  0  0  0  0  0  0  0  0  0
   36.0210   24.1700   41.0070 H   0  0  0  0  0  0  0  0  0  0  0  0
   37.1930   23.7090   42.2860 H   0  0  0  0  0  0  0  0  0  0  0  0
   37.5600   22.9050   40.3320 C   0  0  0  0  0  0  0  0  0  0  0  0
   36.7010   22.6410   39.6530 H   0  0  0  0  0  0  0  0  0  0  0  0
   37.8010   21.9980   40.8980 H   0  0  0  0  0  0  0  0  0  0  0  0
   38.9360   23.4620   39.2920 S   0  0  0  0  0  0  0  0  0  0  0  0
   39.6380   24.4840   39.9580 H   0  0  0  0  0  0  0  0  0  0  0  0
   37.4950   28.5310   43.6450 C   0  0  0  0  0  0  0  0  0  0  0  0
   36.6570   29.1760   43.8970 H   0  0  0  0  0  0  0  0  0  0  0  0
   37.9370   28.1150   44.5950 H   0  0  0  0  0  0  0  0  0  0  0  0
   38.6080   29.2240   42.9350 C   0  0  0  0  0  0  0  0  0  0  0  0
   39.8810   28.6050   42.8320 C   0  0  0  0  0  0  0  0  0  0  0  0
   40.8780   29.8140   41.9010 S   0  0  0  0  0  0  0  0  0  0  0  0
   39.3840   31.0010   41.7910 C   0  0  0  0  0  0  0  0  0  0  0  0
   38.5920   30.3920   42.3540 N   0  0  0  0  0  0  0  0  0  0  0  0
   40.2050   27.6440   43.2090 H   0  0  0  0  0  0  0  0  0  0  0  0
   39.4400   32.2320   41.1550 O   0  0  0  0  0  0  0  0  0  0  0  0
   38.4420   31.5850   38.7860 O   0  0  0  0  0  0  0  0  0  0  0  0
   38.2710   32.5460   39.9550 P   0  0  0  0  0  0  0  0  0  0  0  0
   36.7330   32.3120   40.6470 O   0  0  0  0  0  0  0  0  0  0  0  0
   36.7580   31.5000   41.1950 H   0  0  0  0  0  0  0  0  0  0  0  0
   38.3730   34.1580   39.4590 O   0  0  0  0  0  0  0  0  0  0  0  0
   39.2410   34.3890   39.0930 H   0  0  0  0  0  0  0  0  0  0  0  0
  1  3  1  0  0  0  0
  1 21  1  0  0  0  0
  2  1  1  0  0  0  0
  4  1  1  0  0  0  0
  5 12  1  0  0  0  0
  5  4  2  0  0  0  0
  6  5  1  0  0  0  0
  7  6  2  0  0  0  0
  7  8  1  0  0  0  0
  8  9  2  0  0  0  0
  9  4  1  0  0  0  0
 10  6  1  0  0  0  0
 11  8  1  0  0  0  0
 12 13  1  0  0  0  0
 13 15  1  0  0  0  0
 14 13  1  0  0  0  0
 16 18  1  0  0  0  0
 16 13  1  0  0  0  0
 17 16  1  0  0  0  0
 19 20  1  0  0  0  0
 19 16  1  0  0  0  0
 21 22  1  0  0  0  0
 21 23  1  0  0  0  0
 24 21  1  0  0  0  0
 25 24  2  0  0  0  0
 25 29  1  0  0  0  0
 26 25  1  0  0  0  0
 27 26  1  0  0  0  0
 27 28  2  0  0  0  0
 28 24  1  0  0  0  0
 30 27  1  0  0  0  0
 31 32  2  0  0  0  0
 32 33  1  0  0  0  0
 32 30  1  0  0  0  0
 33 34  1  0  0  0  0
 35 32  1  0  0  0  0
 36 35  1  0  0  0  0
M  END
>  <minimizedAffinity>
-4.70246029

$$$$

 OpenBabel03252507493D

 36 37  0  0  0  0  0  0  0  0999 V2000
   40.4090   30.6800   41.8310 C   0  0  0  0  0  0  0  0  0  0  0  0
   41.4400   30.8610   42.1950 H   0  0  0  0  0  0  0  0  0  0  0  0
   40.5200   29.8900   41.0320 H   0  0  0  0  0  0  0  0  0  0  0  0
   39.8280   31.8720   41.1980 C   0  0  0  0  0  0  0  0  0  0  0  0
   40.7120   32.8950   40.8530 C   0  0  0  0  0  0  0  0  0  0  0  0
   40.2680   34.0580   40.2540 C   0  0  0  0  0  0  0  0  0  0  0  0
   38.9180   34.1610   40.0130 N   0  0  0  0  0  0  0  0  0  0  0  0
   38.0820   33.1290   40.3680 C   0  0  0  0  0  0  0  0  0  0  0  0
   38.5450   32.0290   40.9420 N   0  0  0  0  0  0  0  0  0  0  0  0
   40.9290   34.8660   39.9760 H   0  0  0  0  0  0  0  0  0  0  0  0
   37.0150   33.2280   40.1690 H   0  0  0  0  0  0  0  0  0  0  0  0
   42.4640   32.7120   41.1900 S   0  0  0  0  0  0  0  0  0  0  0  0
   43.4270   32.9300   39.6840 C   0  0  0  0  0  0  0  0  0  0  0  0
   44.4950   32.7750   39.8900 H   0  0  0  0  0  0  0  0  0  0  0  0
   43.2910   33.9310   39.2290 H   0  0  0  0  0  0  0  0  0  0  0  0
   43.0180   31.8720   38.6940 C   0  0  0  0  0  0  0  0  0  0  0  0
   42.2610   31.2160   39.2090 H   0  0  0  0  0  0  0  0  0  0  0  0
   43.8570   31.2240   38.4170 H   0  0  0  0  0  0  0  0  0  0  0  0
   42.2120   32.6210   37.2530 S   0  0  0  0  0  0  0  0  0  0  0  0
   42.7080   33.9260   37.0700 H   0  0  0  0  0  0  0  0  0  0  0  0
   39.6270   30.2010   43.0140 C   0  0  0  0  0  0  0  0  0  0  0  0
   40.3260   30.0130   43.8260 H   0  0  0  0  0  0  0  0  0  0  0  0
   38.9530   31.0590   43.3020 H   0  0  0  0  0  0  0  0  0  0  0  0
   38.7300   29.0520   42.7020 C   0  0  0  0  0  0  0  0  0  0  0  0
   38.9140   27.8070   43.3580 C   0  0  0  0  0  0  0  0  0  0  0  0
   37.6050   26.7480   42.6560 S   0  0  0  0  0  0  0  0  0  0  0  0
   36.9950   28.1880   41.5570 C   0  0  0  0  0  0  0  0  0  0  0  0
   37.7320   29.0110   41.8620 N   0  0  0  0  0  0  0  0  0  0  0  0
   39.6510   27.5290   44.1000 H   0  0  0  0  0  0  0  0  0  0  0  0
   35.9240   28.0710   40.6840 O   0  0  0  0  0  0  0  0  0  0  0  0
   35.9020   29.8090   38.6830 O   0  0  0  0  0  0  0  0  0  0  0  0
   35.2790   29.5120   40.0400 P   0  0  0  0  0  0  0  0  0  0  0  0
   33.6020   29.2950   39.8460 O   0  0  0  0  0  0  0  0  0  0  0  0
   33.4430   28.4030   39.4720 H   0  0  0  0  0  0  0  0  0  0  0  0
   35.5120   30.7850   41.1270 O   0  0  0  0  0  0  0  0  0  0  0  0
   36.4470   30.9440   41.3310 H   0  0  0  0  0  0  0  0  0  0  0  0
  1  2  1  0  0  0  0
  1 21  1  0  0  0  0
  3  1  1  0  0  0  0
  4  1  1  0  0  0  0
  5 12  1  0  0  0  0
  5  4  2  0  0  0  0
  6  5  1  0  0  0  0
  7  6  2  0  0  0  0
  7  8  1  0  0  0  0
  8  9  2  0  0  0  0
  9  4  1  0  0  0  0
 10  6  1  0  0  0  0
 11  8  1  0  0  0  0
 13 14  1  0  0  0  0
 13 12  1  0  0  0  0
 15 13  1  0  0  0  0
 16 17  1  0  0  0  0
 16 13  1  0  0  0  0
 18 16  1  0  0  0  0
 19 16  1  0  0  0  0
 20 19  1  0  0  0  0
 21 23  1  0  0  0  0
 21 22  1  0  0  0  0
 24 21  1  0  0  0  0
 24 25  2  0  0  0  0
 25 29  1  0  0  0  0
 26 25  1  0  0  0  0
 27 28  2  0  0  0  0
 27 26  1  0  0  0  0
 28 24  1  0  0  0  0
 30 27  1  0  0  0  0
 31 32  2  0  0  0  0
 32 30  1  0  0  0  0
 32 35  1  0  0  0  0
 33 32  1  0  0  0  0
 34 33  1  0  0  0  0
 35 36  1  0  0  0  0
M  END
>  <minimizedAffinity>
-4.6518774

$$$$

 OpenBabel03252507493D

 36 37  0  0  0  0  0  0  0  0999 V2000
   38.1340   28.9740   43.1270 C   0  0  0  0  0  0  0  0  0  0  0  0
   38.2240   29.5010   44.0980 H   0  0  0  0  0  0  0  0  0  0  0  0
   39.1880   28.6640   42.8680 H   0  0  0  0  0  0  0  0  0  0  0  0
   37.6570   29.8620   42.0570 C   0  0  0  0  0  0  0  0  0  0  0  0
   38.5230   30.8780   41.6520 C   0  0  0  0  0  0  0  0  0  0  0  0
   38.1700   31.7670   40.6540 C   0  0  0  0  0  0  0  0  0  0  0  0
   36.9310   31.6040   40.0810 N   0  0  0  0  0  0  0  0  0  0  0  0
   36.1110   30.5890   40.5100 C   0  0  0  0  0  0  0  0  0  0  0  0
   36.4820   29.7560   41.4700 N   0  0  0  0  0  0  0  0  0  0  0  0
   38.8200   32.5630   40.3200 H   0  0  0  0  0  0  0  0  0  0  0  0
   35.1310   30.4750   40.0430 H   0  0  0  0  0  0  0  0  0  0  0  0
   40.1280   31.0480   42.4330 S   0  0  0  0  0  0  0  0  0  0  0  0
   41.4210   31.2380   41.1940 C   0  0  0  0  0  0  0  0  0  0  0  0
   41.0660   30.8870   40.2160 H   0  0  0  0  0  0  0  0  0  0  0  0
   42.3490   30.6930   41.4560 H   0  0  0  0  0  0  0  0  0  0  0  0
   41.7290   32.7040   41.0420 C   0  0  0  0  0  0  0  0  0  0  0  0
   40.9990   33.2620   41.6930 H   0  0  0  0  0  0  0  0  0  0  0  0
   41.5630   33.0530   40.0170 H   0  0  0  0  0  0  0  0  0  0  0  0
   43.4000   33.0730   41.6410 S   0  0  0  0  0  0  0  0  0  0  0  0
   44.2100   31.9310   41.4920 H   0  0  0  0  0  0  0  0  0  0  0  0
   37.2300   27.8060   43.3690 C   0  0  0  0  0  0  0  0  0  0  0  0
   36.9780   27.7890   44.4270 H   0  0  0  0  0  0  0  0  0  0  0  0
   36.2950   28.0140   42.7730 H   0  0  0  0  0  0  0  0  0  0  0  0
   37.7770   26.5200   42.8510 C   0  0  0  0  0  0  0  0  0  0  0  0
   36.9730   25.6800   42.0370 C   0  0  0  0  0  0  0  0  0  0  0  0
   38.0600   24.2640   41.6650 S   0  0  0  0  0  0  0  0  0  0  0  0
   39.4700   25.0430   42.6930 C   0  0  0  0  0  0  0  0  0  0  0  0
   38.9640   26.0110   43.0440 N   0  0  0  0  0  0  0  0  0  0  0  0
   35.9540   25.8260   41.7040 H   0  0  0  0  0  0  0  0  0  0  0  0
   40.7090   24.4430   42.8540 O   0  0  0  0  0  0  0  0  0  0  0  0
   42.4340   25.8210   41.3870 O   0  0  0  0  0  0  0  0  0  0  0  0
   42.0790   25.4570   42.8230 P   0  0  0  0  0  0  0  0  0  0  0  0
   41.7000   26.8780   43.6790 O   0  0  0  0  0  0  0  0  0  0  0  0
   40.7960   27.1630   43.4280 H   0  0  0  0  0  0  0  0  0  0  0  0
   43.3700   24.7070   43.6150 O   0  0  0  0  0  0  0  0  0  0  0  0
   43.6210   23.8590   43.2150 H   0  0  0  0  0  0  0  0  0  0  0  0
  1 21  1  0  0  0  0
  1  2  1  0  0  0  0
  3  1  1  0  0  0  0
  4  1  1  0  0  0  0
  5  4  1  0  0  0  0
  5 12  1  0  0  0  0
  6  5  2  0  0  0  0
  7  8  2  0  0  0  0
  7  6  1  0  0  0  0
  8  9  1  0  0  0  0
  9  4  2  0  0  0  0
 10  6  1  0  0  0  0
 11  8  1  0  0  0  0
 13 15  1  0  0  0  0
 13 12  1  0  0  0  0
 14 13  1  0  0  0  0
 16 13  1  0  0  0  0
 16 19  1  0  0  0  0
 16 17  1  0  0  0  0
 18 16  1  0  0  0  0
 20 19  1  0  0  0  0
 21 22  1  0  0  0  0
 23 21  1  0  0  0  0
 24 28  1  0  0  0  0
 24 21  1  0  0  0  0
 25 24  2  0  0  0  0
 26 25  1  0  0  0  0
 26 27  1  0  0  0  0
 27 30  1  0  0  0  0
 27 28  2  0  0  0  0
 29 25  1  0  0  0  0
 31 32  2  0  0  0  0
 32 30  1  0  0  0  0
 32 35  1  0  0  0  0
 32 33  1  0  0  0  0
 34 33  1  0  0  0  0
 36 35  1  0  0  0  0
M  END
>  <minimizedAffinity>
-4.60893965

$$$$

 OpenBabel03252507493D

 36 37  0  0  0  0  0  0  0  0999 V2000
   36.3120   30.1560   39.2090 C   0  0  0  0  0  0  0  0  0  0  0  0
   36.7270   30.4090   40.2050 H   0  0  0  0  0  0  0  0  0  0  0  0
   35.2240   30.4520   39.2670 H   0  0  0  0  0  0  0  0  0  0  0  0
   36.3650   28.7140   38.9350 C   0  0  0  0  0  0  0  0  0  0  0  0
   36.5720   27.8730   40.0300 C   0  0  0  0  0  0  0  0  0  0  0  0
   36.6390   26.5020   39.8800 C   0  0  0  0  0  0  0  0  0  0  0  0
   36.4940   26.0030   38.6070 N   0  0  0  0  0  0  0  0  0  0  0  0
   36.2910   26.8670   37.5570 C   0  0  0  0  0  0  0  0  0  0  0  0
   36.2330   28.1770   37.7380 N   0  0  0  0  0  0  0  0  0  0  0  0
   36.7970   25.8270   40.7090 H   0  0  0  0  0  0  0  0  0  0  0  0
   36.1770   26.4540   36.5540 H   0  0  0  0  0  0  0  0  0  0  0  0
   36.7560   28.5740   41.6700 S   0  0  0  0  0  0  0  0  0  0  0  0
   37.9810   27.6570   42.6190 C   0  0  0  0  0  0  0  0  0  0  0  0
   38.4080   26.8490   42.0100 H   0  0  0  0  0  0  0  0  0  0  0  0
   37.5670   27.2240   43.5500 H   0  0  0  0  0  0  0  0  0  0  0  0
   39.1160   28.5850   42.9630 C   0  0  0  0  0  0  0  0  0  0  0  0
   40.0640   28.0910   42.6090 H   0  0  0  0  0  0  0  0  0  0  0  0
   39.2200   28.7220   44.0460 H   0  0  0  0  0  0  0  0  0  0  0  0
   38.9470   30.1580   42.0770 S   0  0  0  0  0  0  0  0  0  0  0  0
   37.5840   30.4060   41.8260 H   0  0  0  0  0  0  0  0  0  0  0  0
   37.0810   30.9730   38.2180 C   0  0  0  0  0  0  0  0  0  0  0  0
   37.6050   30.2900   37.5540 H   0  0  0  0  0  0  0  0  0  0  0  0
   36.3070   31.5400   37.6240 H   0  0  0  0  0  0  0  0  0  0  0  0
   37.9560   32.0000   38.8520 C   0  0  0  0  0  0  0  0  0  0  0  0
   37.3950   32.9790   39.7140 C   0  0  0  0  0  0  0  0  0  0  0  0
   38.8310   33.9800   40.2260 S   0  0  0  0  0  0  0  0  0  0  0  0
   39.9970   32.8950   39.1710 C   0  0  0  0  0  0  0  0  0  0  0  0
   39.2470   32.1480   38.7300 N   0  0  0  0  0  0  0  0  0  0  0  0
   36.3640   33.1170   40.0100 H   0  0  0  0  0  0  0  0  0  0  0  0
   41.3640   33.1120   39.0880 O   0  0  0  0  0  0  0  0  0  0  0  0
   43.4520   32.0420   37.8550 O   0  0  0  0  0  0  0  0  0  0  0  0
   42.1260   32.7490   37.6080 P   0  0  0  0  0  0  0  0  0  0  0  0
   41.1000   31.7130   36.7290 O   0  0  0  0  0  0  0  0  0  0  0  0
   40.7350   31.0410   37.3430 H   0  0  0  0  0  0  0  0  0  0  0  0
   42.3310   34.1610   36.7020 O   0  0  0  0  0  0  0  0  0  0  0  0
   42.8690   34.8290   37.1550 H   0  0  0  0  0  0  0  0  0  0  0  0
  1  3  1  0  0  0  0
  1  2  1  0  0  0  0
  4  1  1  0  0  0  0
  4  5  1  0  0  0  0
  5 12  1  0  0  0  0
  6  5  2  0  0  0  0
  6 10  1  0  0  0  0
  7  6  1  0  0  0  0
  8  9  1  0  0  0  0
  8  7  2  0  0  0  0
  9  4  2  0  0  0  0
 11  8  1  0  0  0  0
 12 13  1  0  0  0  0
 13 16  1  0  0  0  0
 13 15  1  0  0  0  0
 14 13  1  0  0  0  0
 16 18  1  0  0  0  0
 17 16  1  0  0  0  0
 19 16  1  0  0  0  0
 20 19  1  0  0  0  0
 21 24  1  0  0  0  0
 21  1  1  0  0  0  0
 22 21  1  0  0  0  0
 23 21  1  0  0  0  0
 24 25  2  0  0  0  0
 25 29  1  0  0  0  0
 25 26  1  0  0  0  0
 27 26  1  0  0  0  0
 28 24  1  0  0  0  0
 28 27  2  0  0  0  0
 30 27  1  0  0  0  0
 32 31  2  0  0  0  0
 32 30  1  0  0  0  0
 33 34  1  0  0  0  0
 33 32  1  0  0  0  0
 35 36  1  0  0  0  0
 35 32  1  0  0  0  0
M  END
>  <minimizedAffinity>
-4.58437109

$$$$

 OpenBabel03252507493D

 36 37  0  0  0  0  0  0  0  0999 V2000
   36.6270   27.6190   42.3150 C   0  0  0  0  0  0  0  0  0  0  0  0
   35.5690   27.6000   42.6430 H   0  0  0  0  0  0  0  0  0  0  0  0
   36.6690   28.4220   41.5230 H   0  0  0  0  0  0  0  0  0  0  0  0
   37.0350   26.3550   41.6880 C   0  0  0  0  0  0  0  0  0  0  0  0
   37.3170   26.3930   40.3220 C   0  0  0  0  0  0  0  0  0  0  0  0
   37.7080   25.2590   39.6370 C   0  0  0  0  0  0  0  0  0  0  0  0
   37.8070   24.0930   40.3600 N   0  0  0  0  0  0  0  0  0  0  0  0
   37.5210   24.1010   41.7040 C   0  0  0  0  0  0  0  0  0  0  0  0
   37.1480   25.2080   42.3280 N   0  0  0  0  0  0  0  0  0  0  0  0
   37.9330   25.2590   38.5800 H   0  0  0  0  0  0  0  0  0  0  0  0
   37.6060   23.1670   42.2620 H   0  0  0  0  0  0  0  0  0  0  0  0
   37.1710   27.9380   39.4230 S   0  0  0  0  0  0  0  0  0  0  0  0
   35.5530   28.0720   38.6460 C   0  0  0  0  0  0  0  0  0  0  0  0
   34.7620   28.0470   39.4080 H   0  0  0  0  0  0  0  0  0  0  0  0
   35.3640   27.2700   37.9060 H   0  0  0  0  0  0  0  0  0  0  0  0
   35.4570   29.4110   37.9650 C   0  0  0  0  0  0  0  0  0  0  0  0
   34.4740   29.8670   38.2740 H   0  0  0  0  0  0  0  0  0  0  0  0
   35.4270   29.3150   36.8740 H   0  0  0  0  0  0  0  0  0  0  0  0
   36.7810   30.5130   38.5310 S   0  0  0  0  0  0  0  0  0  0  0  0
   37.8930   29.7430   38.9170 H   0  0  0  0  0  0  0  0  0  0  0  0
   37.4330   27.9610   43.5290 C   0  0  0  0  0  0  0  0  0  0  0  0
   36.9050   28.7420   44.0730 H   0  0  0  0  0  0  0  0  0  0  0  0
   37.4510   27.0250   44.1570 H   0  0  0  0  0  0  0  0  0  0  0  0
   38.8550   28.2850   43.2210 C   0  0  0  0  0  0  0  0  0  0  0  0
   39.1860   29.5180   42.6020 C   0  0  0  0  0  0  0  0  0  0  0  0
   41.0010   29.4490   42.4380 S   0  0  0  0  0  0  0  0  0  0  0  0
   41.0340   27.7200   43.2520 C   0  0  0  0  0  0  0  0  0  0  0  0
   39.9160   27.5600   43.4490 N   0  0  0  0  0  0  0  0  0  0  0  0
   38.5330   30.3230   42.2910 H   0  0  0  0  0  0  0  0  0  0  0  0
   42.2030   27.0060   43.4630 O   0  0  0  0  0  0  0  0  0  0  0  0
   42.6190   25.4770   41.3380 O   0  0  0  0  0  0  0  0  0  0  0  0
   42.2840   25.4280   42.8220 P   0  0  0  0  0  0  0  0  0  0  0  0
   43.5170   24.5900   43.6430 O   0  0  0  0  0  0  0  0  0  0  0  0
   44.2890   25.1870   43.7410 H   0  0  0  0  0  0  0  0  0  0  0  0
   40.8300   24.6150   43.1080 O   0  0  0  0  0  0  0  0  0  0  0  0
   40.0630   25.0560   42.7110 H   0  0  0  0  0  0  0  0  0  0  0  0
  1  2  1  0  0  0  0
  1 21  1  0  0  0  0
  3  1  1  0  0  0  0
  4  1  1  0  0  0  0
  4  9  1  0  0  0  0
  5  4  2  0  0  0  0
  6  5  1  0  0  0  0
  6  7  2  0  0  0  0
  7  8  1  0  0  0  0
  8 11  1  0  0  0  0
  8  9  2  0  0  0  0
 10  6  1  0  0  0  0
 12  5  1  0  0  0  0
 13 14  1  0  0  0  0
 13 12  1  0  0  0  0
 15 13  1  0  0  0  0
 16 17  1  0  0  0  0
 16 19  1  0  0  0  0
 16 13  1  0  0  0  0
 18 16  1  0  0  0  0
 19 20  1  0  0  0  0
 21 22  1  0  0  0  0
 21 23  1  0  0  0  0
 24 28  1  0  0  0  0
 24 21  1  0  0  0  0
 25 24  2  0  0  0  0
 26 25  1  0  0  0  0
 26 27  1  0  0  0  0
 27 28  2  0  0  0  0
 27 30  1  0  0  0  0
 29 25  1  0  0  0  0
 31 32  2  0  0  0  0
 32 35  1  0  0  0  0
 32 30  1  0  0  0  0
 32 33  1  0  0  0  0
 33 34  1  0  0  0  0
 36 35  1  0  0  0  0
M  END
>  <minimizedAffinity>
-4.55328846

$$$$

 OpenBabel03252507493D

 36 37  0  0  0  0  0  0  0  0999 V2000
   39.1990   28.7270   39.2560 C   0  0  0  0  0  0  0  0  0  0  0  0
   38.6780   27.9400   39.8370 H   0  0  0  0  0  0  0  0  0  0  0  0
   40.1460   28.9330   39.8360 H   0  0  0  0  0  0  0  0  0  0  0  0
   38.4300   29.9780   39.2040 C   0  0  0  0  0  0  0  0  0  0  0  0
   38.1850   30.6170   40.4210 C   0  0  0  0  0  0  0  0  0  0  0  0
   37.4720   31.7980   40.4810 C   0  0  0  0  0  0  0  0  0  0  0  0
   37.0140   32.3140   39.2910 N   0  0  0  0  0  0  0  0  0  0  0  0
   37.2790   31.6530   38.1160 C   0  0  0  0  0  0  0  0  0  0  0  0
   37.9670   30.5220   38.0970 N   0  0  0  0  0  0  0  0  0  0  0  0
   37.2670   32.3140   41.4080 H   0  0  0  0  0  0  0  0  0  0  0  0
   36.9090   32.0780   37.1820 H   0  0  0  0  0  0  0  0  0  0  0  0
   38.8020   29.9010   41.9440 S   0  0  0  0  0  0  0  0  0  0  0  0
   37.5190   28.9350   42.7590 C   0  0  0  0  0  0  0  0  0  0  0  0
   36.7470   28.6420   42.0350 H   0  0  0  0  0  0  0  0  0  0  0  0
   37.0400   29.4780   43.5960 H   0  0  0  0  0  0  0  0  0  0  0  0
   38.1330   27.6610   43.2770 C   0  0  0  0  0  0  0  0  0  0  0  0
   37.6600   26.8130   42.7070 H   0  0  0  0  0  0  0  0  0  0  0  0
   37.9000   27.4950   44.3350 H   0  0  0  0  0  0  0  0  0  0  0  0
   39.9150   27.6280   42.9440 S   0  0  0  0  0  0  0  0  0  0  0  0
   40.4040   28.9470   42.9000 H   0  0  0  0  0  0  0  0  0  0  0  0
   39.4640   28.1410   37.9050 C   0  0  0  0  0  0  0  0  0  0  0  0
   39.3390   27.0630   37.9750 H   0  0  0  0  0  0  0  0  0  0  0  0
   38.6630   28.5590   37.2290 H   0  0  0  0  0  0  0  0  0  0  0  0
   40.7670   28.5690   37.3210 C   0  0  0  0  0  0  0  0  0  0  0  0
   41.6180   27.6140   36.7060 C   0  0  0  0  0  0  0  0  0  0  0  0
   43.0530   28.5990   36.1600 S   0  0  0  0  0  0  0  0  0  0  0  0
   42.2620   30.1900   36.8660 C   0  0  0  0  0  0  0  0  0  0  0  0
   41.2820   29.7680   37.2860 N   0  0  0  0  0  0  0  0  0  0  0  0
   41.4710   26.5500   36.5790 H   0  0  0  0  0  0  0  0  0  0  0  0
   42.8690   31.4340   36.7920 O   0  0  0  0  0  0  0  0  0  0  0  0
   42.1380   32.9610   38.8320 O   0  0  0  0  0  0  0  0  0  0  0  0
   41.9690   32.7770   37.3290 P   0  0  0  0  0  0  0  0  0  0  0  0
   42.5610   34.1590   36.5310 O   0  0  0  0  0  0  0  0  0  0  0  0
   43.5410   34.1190   36.5220 H   0  0  0  0  0  0  0  0  0  0  0  0
   40.3440   32.5920   36.9010 O   0  0  0  0  0  0  0  0  0  0  0  0
   39.9400   31.7950   37.2790 H   0  0  0  0  0  0  0  0  0  0  0  0
  1  3  1  0  0  0  0
  1  2  1  0  0  0  0
  4  1  1  0  0  0  0
  4  5  1  0  0  0  0
  5  6  2  0  0  0  0
  5 12  1  0  0  0  0
  6 10  1  0  0  0  0
  7  6  1  0  0  0  0
  8  7  2  0  0  0  0
  9  8  1  0  0  0  0
  9  4  2  0  0  0  0
 11  8  1  0  0  0  0
 12 13  1  0  0  0  0
 13 16  1  0  0  0  0
 13 15  1  0  0  0  0
 14 13  1  0  0  0  0
 16 18  1  0  0  0  0
 17 16  1  0  0  0  0
 19 16  1  0  0  0  0
 20 19  1  0  0  0  0
 21 22  1  0  0  0  0
 21  1  1  0  0  0  0
 23 21  1  0  0  0  0
 24 21  1  0  0  0  0
 25 24  2  0  0  0  0
 26 25  1  0  0  0  0
 26 27  1  0  0  0  0
 27 28  2  0  0  0  0
 28 24  1  0  0  0  0
 29 25  1  0  0  0  0
 30 27  1  0  0  0  0
 30 32  1  0  0  0  0
 32 31  2  0  0  0  0
 33 32  1  0  0  0  0
 34 33  1  0  0  0  0
 35 36  1  0  0  0  0
 35 32  1  0  0  0  0
M  END
>  <minimizedAffinity>
-4.5039525

$$$$
