
 OpenBabel03242521163D

 27 28  0  0  0  0  0  0  0  0999 V2000
   37.3490   27.5770   43.5800 C   0  0  0  0  0  0  0  0  0  0  0  0
   37.5540   28.9140   43.1470 C   0  0  0  0  0  0  0  0  0  0  0  0
   37.6060   29.1240   41.7670 C   0  0  0  0  0  0  0  0  0  0  0  0
   37.4600   28.0550   40.9100 N   0  0  0  0  0  0  0  0  0  0  0  0
   37.2700   26.8120   41.3780 C   0  0  0  0  0  0  0  0  0  0  0  0
   37.2100   26.5500   42.7090 N   0  0  0  0  0  0  0  0  0  0  0  0
   37.2970   27.3340   44.6330 H   0  0  0  0  0  0  0  0  0  0  0  0
   37.6560   29.6870   43.8820 H   0  0  0  0  0  0  0  0  0  0  0  0
   37.8100   30.4530   41.3120 N   0  0  0  0  0  0  0  0  0  0  0  0
   39.0250   30.9980   41.4330 C   0  0  0  0  0  0  0  0  0  0  0  0
   39.2350   32.2930   40.9910 C   0  0  0  0  0  0  0  0  0  0  0  0
   38.1770   32.9610   40.4460 C   0  0  0  0  0  0  0  0  0  0  0  0
   38.3710   34.1610   40.0360 O   0  0  0  0  0  0  0  0  0  0  0  0
   36.9400   32.4400   40.3100 N   0  0  0  0  0  0  0  0  0  0  0  0
   36.8050   31.1790   40.7580 C   0  0  0  0  0  0  0  0  0  0  0  0
   35.6990   30.5890   40.6840 O   0  0  0  0  0  0  0  0  0  0  0  0
   39.8150   30.4040   41.8770 H   0  0  0  0  0  0  0  0  0  0  0  0
   40.2160   32.7160   41.0970 H   0  0  0  0  0  0  0  0  0  0  0  0
   36.1720   32.9780   39.8930 H   0  0  0  0  0  0  0  0  0  0  0  0
   37.1420   25.8420   40.2740 C   0  0  0  0  0  0  0  0  0  0  0  0
   38.1760   25.7040   39.8520 H   0  0  0  0  0  0  0  0  0  0  0  0
   36.4470   26.1710   39.4830 H   0  0  0  0  0  0  0  0  0  0  0  0
   36.7550   24.4560   40.7820 C   0  0  0  0  0  0  0  0  0  0  0  0
   36.5400   24.5970   41.8810 H   0  0  0  0  0  0  0  0  0  0  0  0
   35.8050   24.1150   40.3460 H   0  0  0  0  0  0  0  0  0  0  0  0
   38.1040   23.2720   40.6810 S   0  0  0  0  0  0  0  0  0  0  0  0
   39.2950   23.9340   41.0530 H   0  0  0  0  0  0  0  0  0  0  0  0
  1  7  1  0  0  0  0
  2  1  1  0  0  0  0
  2  8  1  0  0  0  0
  3  2  2  0  0  0  0
  4  5  2  0  0  0  0
  4  3  1  0  0  0  0
  5  6  1  0  0  0  0
  6  1  2  0  0  0  0
  9 10  1  0  0  0  0
  9  3  1  0  0  0  0
 10 17  1  0  0  0  0
 11 18  1  0  0  0  0
 11 10  2  0  0  0  0
 12 11  1  0  0  0  0
 13 12  2  0  0  0  0
 14 12  1  0  0  0  0
 14 15  1  0  0  0  0
 15  9  1  0  0  0  0
 16 15  2  0  0  0  0
 19 14  1  0  0  0  0
 20 23  1  0  0  0  0
 20  5  1  0  0  0  0
 21 20  1  0  0  0  0
 22 20  1  0  0  0  0
 23 24  1  0  0  0  0
 25 23  1  0  0  0  0
 26 23  1  0  0  0  0
 26 27  1  0  0  0  0
M  END
>  <minimizedAffinity>
-4.96738291

$$$$

 OpenBabel03242521163D

 27 28  0  0  0  0  0  0  0  0999 V2000
   40.0790   25.5900   43.6750 C   0  0  0  0  0  0  0  0  0  0  0  0
   39.6340   26.8830   43.2920 C   0  0  0  0  0  0  0  0  0  0  0  0
   38.6600   26.9380   42.2920 C   0  0  0  0  0  0  0  0  0  0  0  0
   38.1870   25.7680   41.7380 N   0  0  0  0  0  0  0  0  0  0  0  0
   38.6460   24.5740   42.1400 C   0  0  0  0  0  0  0  0  0  0  0  0
   39.5920   24.4610   43.1080 N   0  0  0  0  0  0  0  0  0  0  0  0
   40.8320   25.4650   44.4430 H   0  0  0  0  0  0  0  0  0  0  0  0
   40.0550   27.7420   43.7760 H   0  0  0  0  0  0  0  0  0  0  0  0
   38.2000   28.2200   41.8930 N   0  0  0  0  0  0  0  0  0  0  0  0
   38.8240   28.8470   40.8890 C   0  0  0  0  0  0  0  0  0  0  0  0
   38.3830   30.0970   40.4920 C   0  0  0  0  0  0  0  0  0  0  0  0
   37.3170   30.6380   41.1510 C   0  0  0  0  0  0  0  0  0  0  0  0
   36.9080   31.7970   40.7840 O   0  0  0  0  0  0  0  0  0  0  0  0
   36.6670   30.0320   42.1670 N   0  0  0  0  0  0  0  0  0  0  0  0
   37.1460   28.8210   42.5020 C   0  0  0  0  0  0  0  0  0  0  0  0
   36.6200   28.1620   43.4330 O   0  0  0  0  0  0  0  0  0  0  0  0
   39.6630   28.3520   40.4150 H   0  0  0  0  0  0  0  0  0  0  0  0
   38.8950   30.5870   39.6860 H   0  0  0  0  0  0  0  0  0  0  0  0
   35.8690   30.4760   42.6360 H   0  0  0  0  0  0  0  0  0  0  0  0
   37.9920   23.4760   41.4040 C   0  0  0  0  0  0  0  0  0  0  0  0
   37.6110   22.7570   42.1810 H   0  0  0  0  0  0  0  0  0  0  0  0
   38.6690   22.9580   40.7040 H   0  0  0  0  0  0  0  0  0  0  0  0
   36.7360   23.9500   40.6800 C   0  0  0  0  0  0  0  0  0  0  0  0
   35.8870   23.7220   41.3890 H   0  0  0  0  0  0  0  0  0  0  0  0
   36.7240   25.0420   40.5620 H   0  0  0  0  0  0  0  0  0  0  0  0
   36.4010   23.0200   39.1790 S   0  0  0  0  0  0  0  0  0  0  0  0
   36.6880   21.6610   39.4340 H   0  0  0  0  0  0  0  0  0  0  0  0
  1  7  1  0  0  0  0
  2  1  1  0  0  0  0
  2  8  1  0  0  0  0
  3  2  2  0  0  0  0
  4  5  2  0  0  0  0
  4  3  1  0  0  0  0
  5  6  1  0  0  0  0
  6  1  2  0  0  0  0
  9  3  1  0  0  0  0
  9 15  1  0  0  0  0
 10  9  1  0  0  0  0
 11 10  2  0  0  0  0
 11 12  1  0  0  0  0
 12 14  1  0  0  0  0
 13 12  2  0  0  0  0
 14 15  1  0  0  0  0
 14 19  1  0  0  0  0
 15 16  2  0  0  0  0
 17 10  1  0  0  0  0
 18 11  1  0  0  0  0
 20  5  1  0  0  0  0
 20 21  1  0  0  0  0
 22 20  1  0  0  0  0
 23 24  1  0  0  0  0
 23 20  1  0  0  0  0
 25 23  1  0  0  0  0
 26 27  1  0  0  0  0
 26 23  1  0  0  0  0
M  END
>  <minimizedAffinity>
-4.42957401

$$$$

 OpenBabel03242521163D

 27 28  0  0  0  0  0  0  0  0999 V2000
   36.9300   26.8710   38.8060 C   0  0  0  0  0  0  0  0  0  0  0  0
   37.1720   28.2700   38.7930 C   0  0  0  0  0  0  0  0  0  0  0  0
   37.5030   28.8590   40.0160 C   0  0  0  0  0  0  0  0  0  0  0  0
   37.5770   28.0790   41.1490 N   0  0  0  0  0  0  0  0  0  0  0  0
   37.3370   26.7610   41.1000 C   0  0  0  0  0  0  0  0  0  0  0  0
   37.0120   26.1350   39.9400 N   0  0  0  0  0  0  0  0  0  0  0  0
   36.6690   26.3420   37.8990 H   0  0  0  0  0  0  0  0  0  0  0  0
   37.0930   28.8020   37.8660 H   0  0  0  0  0  0  0  0  0  0  0  0
   37.7490   30.2580   40.0260 N   0  0  0  0  0  0  0  0  0  0  0  0
   38.9030   30.7140   39.5290 C   0  0  0  0  0  0  0  0  0  0  0  0
   39.1530   32.0760   39.5340 C   0  0  0  0  0  0  0  0  0  0  0  0
   38.1950   32.8990   40.0530 C   0  0  0  0  0  0  0  0  0  0  0  0
   38.4250   34.1610   40.0580 O   0  0  0  0  0  0  0  0  0  0  0  0
   37.0220   32.4690   40.5620 N   0  0  0  0  0  0  0  0  0  0  0  0
   36.8430   31.1370   40.5270 C   0  0  0  0  0  0  0  0  0  0  0  0
   35.7890   30.6210   40.9720 O   0  0  0  0  0  0  0  0  0  0  0  0
   39.6130   29.9980   39.1340 H   0  0  0  0  0  0  0  0  0  0  0  0
   40.0840   32.4260   39.1320 H   0  0  0  0  0  0  0  0  0  0  0  0
   36.3290   33.1240   40.9440 H   0  0  0  0  0  0  0  0  0  0  0  0
   37.4770   26.1440   42.4330 C   0  0  0  0  0  0  0  0  0  0  0  0
   37.6220   25.0420   42.2580 H   0  0  0  0  0  0  0  0  0  0  0  0
   36.6050   26.3160   43.0860 H   0  0  0  0  0  0  0  0  0  0  0  0
   38.7610   26.5870   43.1280 C   0  0  0  0  0  0  0  0  0  0  0  0
   39.2320   27.3330   42.4240 H   0  0  0  0  0  0  0  0  0  0  0  0
   38.5500   27.1540   44.0460 H   0  0  0  0  0  0  0  0  0  0  0  0
   39.9500   25.2530   43.3180 S   0  0  0  0  0  0  0  0  0  0  0  0
   39.9310   24.4790   42.1360 H   0  0  0  0  0  0  0  0  0  0  0  0
  1  6  1  0  0  0  0
  2  1  2  0  0  0  0
  2  3  1  0  0  0  0
  3  9  1  0  0  0  0
  3  4  2  0  0  0  0
  5  4  1  0  0  0  0
  5 20  1  0  0  0  0
  6  5  2  0  0  0  0
  7  1  1  0  0  0  0
  8  2  1  0  0  0  0
  9 15  1  0  0  0  0
 10 11  2  0  0  0  0
 10  9  1  0  0  0  0
 11 12  1  0  0  0  0
 12 13  2  0  0  0  0
 12 14  1  0  0  0  0
 14 19  1  0  0  0  0
 15 14  1  0  0  0  0
 15 16  2  0  0  0  0
 17 10  1  0  0  0  0
 18 11  1  0  0  0  0
 20 22  1  0  0  0  0
 20 23  1  0  0  0  0
 21 20  1  0  0  0  0
 23 26  1  0  0  0  0
 23 25  1  0  0  0  0
 24 23  1  0  0  0  0
 27 26  1  0  0  0  0
M  END
>  <minimizedAffinity>
-4.35422134

$$$$

 OpenBabel03242521163D

 27 28  0  0  0  0  0  0  0  0999 V2000
   39.4930   34.0320   40.3330 C   0  0  0  0  0  0  0  0  0  0  0  0
   38.9000   33.0170   41.1310 C   0  0  0  0  0  0  0  0  0  0  0  0
   38.9630   31.7130   40.6320 C   0  0  0  0  0  0  0  0  0  0  0  0
   39.5800   31.4760   39.4230 N   0  0  0  0  0  0  0  0  0  0  0  0
   40.1230   32.4760   38.7130 C   0  0  0  0  0  0  0  0  0  0  0  0
   40.0910   33.7620   39.1490 N   0  0  0  0  0  0  0  0  0  0  0  0
   39.4850   35.0660   40.6520 H   0  0  0  0  0  0  0  0  0  0  0  0
   38.4410   33.2890   42.0600 H   0  0  0  0  0  0  0  0  0  0  0  0
   38.3760   30.6820   41.4130 N   0  0  0  0  0  0  0  0  0  0  0  0
   39.1440   30.0090   42.2760 C   0  0  0  0  0  0  0  0  0  0  0  0
   38.5820   29.0030   43.0420 C   0  0  0  0  0  0  0  0  0  0  0  0
   37.2520   28.7420   42.8770 C   0  0  0  0  0  0  0  0  0  0  0  0
   36.7300   27.8090   43.5860 O   0  0  0  0  0  0  0  0  0  0  0  0
   36.4510   29.4020   42.0150 N   0  0  0  0  0  0  0  0  0  0  0  0
   37.0600   30.3660   41.3030 C   0  0  0  0  0  0  0  0  0  0  0  0
   36.4160   31.0490   40.4690 O   0  0  0  0  0  0  0  0  0  0  0  0
   40.1920   30.2750   42.3500 H   0  0  0  0  0  0  0  0  0  0  0  0
   39.2110   28.4720   43.7300 H   0  0  0  0  0  0  0  0  0  0  0  0
   35.4550   29.1730   41.9220 H   0  0  0  0  0  0  0  0  0  0  0  0
   40.7220   31.9770   37.4610 C   0  0  0  0  0  0  0  0  0  0  0  0
   40.8180   32.8670   36.7790 H   0  0  0  0  0  0  0  0  0  0  0  0
   40.1230   31.1870   36.9770 H   0  0  0  0  0  0  0  0  0  0  0  0
   42.1580   31.5050   37.6710 C   0  0  0  0  0  0  0  0  0  0  0  0
   42.1960   31.1540   38.7430 H   0  0  0  0  0  0  0  0  0  0  0  0
   42.3830   30.6130   37.0700 H   0  0  0  0  0  0  0  0  0  0  0  0
   43.3590   32.8350   37.5330 S   0  0  0  0  0  0  0  0  0  0  0  0
   42.8160   33.9800   38.1580 H   0  0  0  0  0  0  0  0  0  0  0  0
  1  7  1  0  0  0  0
  1  2  1  0  0  0  0
  2  8  1  0  0  0  0
  3  2  2  0  0  0  0
  3  9  1  0  0  0  0
  4  3  1  0  0  0  0
  5  6  1  0  0  0  0
  5  4  2  0  0  0  0
  6  1  2  0  0  0  0
  9 10  1  0  0  0  0
 10 17  1  0  0  0  0
 10 11  2  0  0  0  0
 11 18  1  0  0  0  0
 12 11  1  0  0  0  0
 12 13  2  0  0  0  0
 14 12  1  0  0  0  0
 15  9  1  0  0  0  0
 15 14  1  0  0  0  0
 16 15  2  0  0  0  0
 19 14  1  0  0  0  0
 20 23  1  0  0  0  0
 20  5  1  0  0  0  0
 21 20  1  0  0  0  0
 22 20  1  0  0  0  0
 23 24  1  0  0  0  0
 25 23  1  0  0  0  0
 26 23  1  0  0  0  0
 26 27  1  0  0  0  0
M  END
>  <minimizedAffinity>
-4.33321381

$$$$

 OpenBabel03242521163D

 27 28  0  0  0  0  0  0  0  0999 V2000
   34.9540   27.2260   37.8830 C   0  0  0  0  0  0  0  0  0  0  0  0
   35.2170   28.6030   38.1120 C   0  0  0  0  0  0  0  0  0  0  0  0
   36.3920   28.9080   38.8040 C   0  0  0  0  0  0  0  0  0  0  0  0
   37.2210   27.8890   39.2210 N   0  0  0  0  0  0  0  0  0  0  0  0
   36.9190   26.6050   38.9750 C   0  0  0  0  0  0  0  0  0  0  0  0
   35.7910   26.2510   38.3070 N   0  0  0  0  0  0  0  0  0  0  0  0
   34.0640   26.9100   37.3540 H   0  0  0  0  0  0  0  0  0  0  0  0
   34.5190   29.3320   37.7530 H   0  0  0  0  0  0  0  0  0  0  0  0
   36.6760   30.2780   39.0450 N   0  0  0  0  0  0  0  0  0  0  0  0
   37.2340   31.0040   38.0700 C   0  0  0  0  0  0  0  0  0  0  0  0
   37.5140   32.3410   38.2960 C   0  0  0  0  0  0  0  0  0  0  0  0
   37.2020   32.8610   39.5180 C   0  0  0  0  0  0  0  0  0  0  0  0
   37.4620   34.1000   39.7280 O   0  0  0  0  0  0  0  0  0  0  0  0
   36.6390   32.1560   40.5220 N   0  0  0  0  0  0  0  0  0  0  0  0
   36.3940   30.8650   40.2370 C   0  0  0  0  0  0  0  0  0  0  0  0
   35.8710   30.1100   41.0930 O   0  0  0  0  0  0  0  0  0  0  0  0
   37.4520   30.5190   37.1270 H   0  0  0  0  0  0  0  0  0  0  0  0
   37.9630   32.9090   37.5040 H   0  0  0  0  0  0  0  0  0  0  0  0
   36.4210   32.5880   41.4270 H   0  0  0  0  0  0  0  0  0  0  0  0
   37.9520   25.7020   39.5160 C   0  0  0  0  0  0  0  0  0  0  0  0
   38.9370   26.0700   39.1130 H   0  0  0  0  0  0  0  0  0  0  0  0
   37.7960   24.6460   39.2370 H   0  0  0  0  0  0  0  0  0  0  0  0
   38.0880   25.8400   41.0290 C   0  0  0  0  0  0  0  0  0  0  0  0
   39.1640   25.5800   41.2500 H   0  0  0  0  0  0  0  0  0  0  0  0
   37.9740   26.8830   41.3530 H   0  0  0  0  0  0  0  0  0  0  0  0
   37.0870   24.6510   41.9330 S   0  0  0  0  0  0  0  0  0  0  0  0
   37.1580   23.4140   41.2530 H   0  0  0  0  0  0  0  0  0  0  0  0
  1  2  2  0  0  0  0
  1  6  1  0  0  0  0
  2  3  1  0  0  0  0
  3  9  1  0  0  0  0
  3  4  2  0  0  0  0
  5  4  1  0  0  0  0
  5 20  1  0  0  0  0
  6  5  2  0  0  0  0
  7  1  1  0  0  0  0
  8  2  1  0  0  0  0
  9 15  1  0  0  0  0
 10 11  2  0  0  0  0
 10  9  1  0  0  0  0
 11 12  1  0  0  0  0
 12 13  2  0  0  0  0
 12 14  1  0  0  0  0
 14 19  1  0  0  0  0
 15 14  1  0  0  0  0
 15 16  2  0  0  0  0
 17 10  1  0  0  0  0
 18 11  1  0  0  0  0
 20 23  1  0  0  0  0
 21 20  1  0  0  0  0
 22 20  1  0  0  0  0
 23 24  1  0  0  0  0
 23 25  1  0  0  0  0
 23 26  1  0  0  0  0
 27 26  1  0  0  0  0
M  END
>  <minimizedAffinity>
-4.25478601

$$$$

 OpenBabel03242521163D

 27 28  0  0  0  0  0  0  0  0999 V2000
   37.3640   28.4660   43.6800 C   0  0  0  0  0  0  0  0  0  0  0  0
   37.2140   27.1450   43.1800 C   0  0  0  0  0  0  0  0  0  0  0  0
   37.9100   26.8370   42.0080 C   0  0  0  0  0  0  0  0  0  0  0  0
   38.6890   27.8010   41.4060 N   0  0  0  0  0  0  0  0  0  0  0  0
   38.7910   29.0340   41.9240 C   0  0  0  0  0  0  0  0  0  0  0  0
   38.1380   29.3890   43.0610 N   0  0  0  0  0  0  0  0  0  0  0  0
   36.8570   28.7810   44.5820 H   0  0  0  0  0  0  0  0  0  0  0  0
   36.5880   26.4570   43.7120 H   0  0  0  0  0  0  0  0  0  0  0  0
   37.7750   25.5220   41.4900 N   0  0  0  0  0  0  0  0  0  0  0  0
   36.8650   25.2940   40.5360 C   0  0  0  0  0  0  0  0  0  0  0  0
   36.7270   24.0150   40.0240 C   0  0  0  0  0  0  0  0  0  0  0  0
   37.5350   23.0360   40.5230 C   0  0  0  0  0  0  0  0  0  0  0  0
   37.4070   21.8510   40.0490 O   0  0  0  0  0  0  0  0  0  0  0  0
   38.4610   23.2340   41.4850 N   0  0  0  0  0  0  0  0  0  0  0  0
   38.5440   24.4970   41.9380 C   0  0  0  0  0  0  0  0  0  0  0  0
   39.3710   24.8020   42.8330 O   0  0  0  0  0  0  0  0  0  0  0  0
   36.2610   26.1240   40.1910 H   0  0  0  0  0  0  0  0  0  0  0  0
   35.9920   23.8480   39.2600 H   0  0  0  0  0  0  0  0  0  0  0  0
   39.0490   22.4670   41.8320 H   0  0  0  0  0  0  0  0  0  0  0  0
   39.6770   29.8840   41.1070 C   0  0  0  0  0  0  0  0  0  0  0  0
   40.3370   29.1840   40.5220 H   0  0  0  0  0  0  0  0  0  0  0  0
   40.2910   30.5760   41.7070 H   0  0  0  0  0  0  0  0  0  0  0  0
   38.9000   30.6480   40.0390 C   0  0  0  0  0  0  0  0  0  0  0  0
   39.6420   30.8230   39.2070 H   0  0  0  0  0  0  0  0  0  0  0  0
   38.1090   30.0300   39.5920 H   0  0  0  0  0  0  0  0  0  0  0  0
   38.3690   32.2750   40.5900 S   0  0  0  0  0  0  0  0  0  0  0  0
   39.4180   32.8430   41.3480 H   0  0  0  0  0  0  0  0  0  0  0  0
  1  7  1  0  0  0  0
  2  1  1  0  0  0  0
  2  8  1  0  0  0  0
  3  2  2  0  0  0  0
  4  5  2  0  0  0  0
  4  3  1  0  0  0  0
  5  6  1  0  0  0  0
  6  1  2  0  0  0  0
  9 15  1  0  0  0  0
  9  3  1  0  0  0  0
 10  9  1  0  0  0  0
 11 12  1  0  0  0  0
 11 10  2  0  0  0  0
 12 14  1  0  0  0  0
 13 12  2  0  0  0  0
 14 19  1  0  0  0  0
 14 15  1  0  0  0  0
 15 16  2  0  0  0  0
 17 10  1  0  0  0  0
 18 11  1  0  0  0  0
 20 22  1  0  0  0  0
 20  5  1  0  0  0  0
 21 20  1  0  0  0  0
 23 26  1  0  0  0  0
 23 20  1  0  0  0  0
 24 23  1  0  0  0  0
 25 23  1  0  0  0  0
 26 27  1  0  0  0  0
M  END
>  <minimizedAffinity>
-4.24320984

$$$$

 OpenBabel03242521163D

 27 28  0  0  0  0  0  0  0  0999 V2000
   39.7390   31.4770   37.8560 C   0  0  0  0  0  0  0  0  0  0  0  0
   39.1170   30.5920   38.7770 C   0  0  0  0  0  0  0  0  0  0  0  0
   39.1330   30.9760   40.1200 C   0  0  0  0  0  0  0  0  0  0  0  0
   39.7360   32.1610   40.4830 N   0  0  0  0  0  0  0  0  0  0  0  0
   40.3090   32.9560   39.5670 C   0  0  0  0  0  0  0  0  0  0  0  0
   40.3220   32.6340   38.2480 N   0  0  0  0  0  0  0  0  0  0  0  0
   39.7670   31.2500   36.7980 H   0  0  0  0  0  0  0  0  0  0  0  0
   38.6700   29.6900   38.4100 H   0  0  0  0  0  0  0  0  0  0  0  0
   38.5170   30.1070   41.0590 N   0  0  0  0  0  0  0  0  0  0  0  0
   39.2370   29.1110   41.5870 C   0  0  0  0  0  0  0  0  0  0  0  0
   38.6460   28.2590   42.5050 C   0  0  0  0  0  0  0  0  0  0  0  0
   37.3390   28.4790   42.8300 C   0  0  0  0  0  0  0  0  0  0  0  0
   36.7900   27.6900   43.6790 O   0  0  0  0  0  0  0  0  0  0  0  0
   36.5860   29.4730   42.3140 N   0  0  0  0  0  0  0  0  0  0  0  0
   37.2210   30.2630   41.4310 C   0  0  0  0  0  0  0  0  0  0  0  0
   36.6210   31.2230   40.8860 O   0  0  0  0  0  0  0  0  0  0  0  0
   40.2700   29.0020   41.2790 H   0  0  0  0  0  0  0  0  0  0  0  0
   39.2370   27.4650   42.9190 H   0  0  0  0  0  0  0  0  0  0  0  0
   35.6050   29.6020   42.5870 H   0  0  0  0  0  0  0  0  0  0  0  0
   40.8840   34.1610   40.1930 C   0  0  0  0  0  0  0  0  0  0  0  0
   40.1950   34.4380   41.0390 H   0  0  0  0  0  0  0  0  0  0  0  0
   40.9880   35.0080   39.4930 H   0  0  0  0  0  0  0  0  0  0  0  0
   42.2170   33.8640   40.8730 C   0  0  0  0  0  0  0  0  0  0  0  0
   42.4160   34.7610   41.5290 H   0  0  0  0  0  0  0  0  0  0  0  0
   42.1380   33.0150   41.5660 H   0  0  0  0  0  0  0  0  0  0  0  0
   43.5890   33.7730   39.7150 S   0  0  0  0  0  0  0  0  0  0  0  0
   43.4150   34.7920   38.7510 H   0  0  0  0  0  0  0  0  0  0  0  0
  1  6  2  0  0  0  0
  1  2  1  0  0  0  0
  2  3  2  0  0  0  0
  3  4  1  0  0  0  0
  3  9  1  0  0  0  0
  5 20  1  0  0  0  0
  5  4  2  0  0  0  0
  6  5  1  0  0  0  0
  7  1  1  0  0  0  0
  8  2  1  0  0  0  0
  9 15  1  0  0  0  0
  9 10  1  0  0  0  0
 10 11  2  0  0  0  0
 11 12  1  0  0  0  0
 11 18  1  0  0  0  0
 12 13  2  0  0  0  0
 14 19  1  0  0  0  0
 14 12  1  0  0  0  0
 15 14  1  0  0  0  0
 16 15  2  0  0  0  0
 17 10  1  0  0  0  0
 20 23  1  0  0  0  0
 20 21  1  0  0  0  0
 22 20  1  0  0  0  0
 23 24  1  0  0  0  0
 23 25  1  0  0  0  0
 26 23  1  0  0  0  0
 27 26  1  0  0  0  0
M  END
>  <minimizedAffinity>
-4.17392588

$$$$

 OpenBabel03242521163D

 27 28  0  0  0  0  0  0  0  0999 V2000
   37.7190   31.1980   37.3130 C   0  0  0  0  0  0  0  0  0  0  0  0
   37.2660   30.2690   38.2870 C   0  0  0  0  0  0  0  0  0  0  0  0
   38.0670   30.1110   39.4200 C   0  0  0  0  0  0  0  0  0  0  0  0
   39.2290   30.8420   39.5400 N   0  0  0  0  0  0  0  0  0  0  0  0
   39.6060   31.7050   38.5860 C   0  0  0  0  0  0  0  0  0  0  0  0
   38.8670   31.9000   37.4640 N   0  0  0  0  0  0  0  0  0  0  0  0
   37.1530   31.3760   36.4080 H   0  0  0  0  0  0  0  0  0  0  0  0
   36.3480   29.7420   38.1150 H   0  0  0  0  0  0  0  0  0  0  0  0
   37.6330   29.1870   40.4080 N   0  0  0  0  0  0  0  0  0  0  0  0
   38.0550   27.9190   40.3360 C   0  0  0  0  0  0  0  0  0  0  0  0
   37.6380   27.0110   41.2940 C   0  0  0  0  0  0  0  0  0  0  0  0
   36.8070   27.4590   42.2800 C   0  0  0  0  0  0  0  0  0  0  0  0
   36.4210   26.6180   43.1680 O   0  0  0  0  0  0  0  0  0  0  0  0
   36.3650   28.7300   42.3800 N   0  0  0  0  0  0  0  0  0  0  0  0
   36.8060   29.5590   41.4180 C   0  0  0  0  0  0  0  0  0  0  0  0
   36.4620   30.7670   41.4080 O   0  0  0  0  0  0  0  0  0  0  0  0
   38.7140   27.6410   39.5230 H   0  0  0  0  0  0  0  0  0  0  0  0
   37.9840   25.9980   41.2220 H   0  0  0  0  0  0  0  0  0  0  0  0
   35.7400   29.0240   43.1390 H   0  0  0  0  0  0  0  0  0  0  0  0
   40.8770   32.3660   38.9380 C   0  0  0  0  0  0  0  0  0  0  0  0
   41.0510   33.1550   38.1550 H   0  0  0  0  0  0  0  0  0  0  0  0
   41.7330   31.6710   38.9760 H   0  0  0  0  0  0  0  0  0  0  0  0
   40.7650   33.1470   40.2430 C   0  0  0  0  0  0  0  0  0  0  0  0
   40.6590   32.3610   41.0460 H   0  0  0  0  0  0  0  0  0  0  0  0
   41.7000   33.6740   40.4820 H   0  0  0  0  0  0  0  0  0  0  0  0
   39.2820   34.1590   40.3290 S   0  0  0  0  0  0  0  0  0  0  0  0
   38.2160   33.4190   39.7700 H   0  0  0  0  0  0  0  0  0  0  0  0
  1  6  2  0  0  0  0
  1  2  1  0  0  0  0
  2  3  2  0  0  0  0
  3  4  1  0  0  0  0
  3  9  1  0  0  0  0
  5 20  1  0  0  0  0
  5  4  2  0  0  0  0
  6  5  1  0  0  0  0
  7  1  1  0  0  0  0
  8  2  1  0  0  0  0
  9 15  1  0  0  0  0
 10  9  1  0  0  0  0
 10 11  2  0  0  0  0
 11 12  1  0  0  0  0
 12 14  1  0  0  0  0
 12 13  2  0  0  0  0
 14 19  1  0  0  0  0
 15 14  1  0  0  0  0
 16 15  2  0  0  0  0
 17 10  1  0  0  0  0
 18 11  1  0  0  0  0
 20 22  1  0  0  0  0
 20 23  1  0  0  0  0
 21 20  1  0  0  0  0
 23 26  1  0  0  0  0
 23 25  1  0  0  0  0
 23 24  1  0  0  0  0
 27 26  1  0  0  0  0
M  END
>  <minimizedAffinity>
-4.16163015

$$$$

 OpenBabel03242521163D

 27 28  0  0  0  0  0  0  0  0999 V2000
   39.6210   27.1430   43.3810 C   0  0  0  0  0  0  0  0  0  0  0  0
   39.3120   28.2980   42.6140 C   0  0  0  0  0  0  0  0  0  0  0  0
   38.2340   28.1910   41.7310 C   0  0  0  0  0  0  0  0  0  0  0  0
   37.5400   27.0040   41.6440 N   0  0  0  0  0  0  0  0  0  0  0  0
   37.8800   25.9450   42.3950 C   0  0  0  0  0  0  0  0  0  0  0  0
   38.9170   25.9920   43.2700 N   0  0  0  0  0  0  0  0  0  0  0  0
   40.4410   27.1470   44.0870 H   0  0  0  0  0  0  0  0  0  0  0  0
   39.9030   29.1820   42.7440 H   0  0  0  0  0  0  0  0  0  0  0  0
   37.9060   29.3330   40.9530 N   0  0  0  0  0  0  0  0  0  0  0  0
   37.0310   30.2180   41.4430 C   0  0  0  0  0  0  0  0  0  0  0  0
   36.7050   31.3350   40.6930 C   0  0  0  0  0  0  0  0  0  0  0  0
   37.3010   31.4820   39.4740 C   0  0  0  0  0  0  0  0  0  0  0  0
   36.9990   32.5170   38.7780 O   0  0  0  0  0  0  0  0  0  0  0  0
   38.1870   30.6080   38.9520 N   0  0  0  0  0  0  0  0  0  0  0  0
   38.4590   29.5460   39.7310 C   0  0  0  0  0  0  0  0  0  0  0  0
   39.2690   28.6660   39.3510 O   0  0  0  0  0  0  0  0  0  0  0  0
   36.6010   30.0320   42.4190 H   0  0  0  0  0  0  0  0  0  0  0  0
   36.0010   32.0350   41.0990 H   0  0  0  0  0  0  0  0  0  0  0  0
   38.6110   30.7570   38.0300 H   0  0  0  0  0  0  0  0  0  0  0  0
   36.9940   24.7970   42.1280 C   0  0  0  0  0  0  0  0  0  0  0  0
   35.9400   25.1790   42.2300 H   0  0  0  0  0  0  0  0  0  0  0  0
   37.1610   23.9490   42.8140 H   0  0  0  0  0  0  0  0  0  0  0  0
   37.0880   24.3350   40.6760 C   0  0  0  0  0  0  0  0  0  0  0  0
   36.0640   23.9260   40.4340 H   0  0  0  0  0  0  0  0  0  0  0  0
   37.2270   25.1820   39.9900 H   0  0  0  0  0  0  0  0  0  0  0  0
   38.2410   22.9760   40.4480 S   0  0  0  0  0  0  0  0  0  0  0  0
   38.0950   22.0910   41.5390 H   0  0  0  0  0  0  0  0  0  0  0  0
  1  7  1  0  0  0  0
  2  8  1  0  0  0  0
  2  1  2  0  0  0  0
  3  2  1  0  0  0  0
  4  3  2  0  0  0  0
  4  5  1  0  0  0  0
  5  6  2  0  0  0  0
  6  1  1  0  0  0  0
  9 10  1  0  0  0  0
  9  3  1  0  0  0  0
 10 17  1  0  0  0  0
 11 18  1  0  0  0  0
 11 10  2  0  0  0  0
 12 11  1  0  0  0  0
 13 12  2  0  0  0  0
 14 12  1  0  0  0  0
 14 15  1  0  0  0  0
 15  9  1  0  0  0  0
 16 15  2  0  0  0  0
 19 14  1  0  0  0  0
 20 21  1  0  0  0  0
 20  5  1  0  0  0  0
 20 22  1  0  0  0  0
 23 20  1  0  0  0  0
 24 23  1  0  0  0  0
 25 23  1  0  0  0  0
 26 23  1  0  0  0  0
 26 27  1  0  0  0  0
M  END
>  <minimizedAffinity>
-4.1294589

$$$$
