
     RDKit          3D

 38 39  0  0  0  0  0  0  0  0999 V2000
   43.6562   34.9608   41.8791 C   0  0  0  0  0  0  0  0  0  0  0  0
   43.9136   33.6229   42.1857 C   0  0  0  0  0  0  0  0  0  0  0  0
   44.9754   33.3321   43.0089 C   0  0  0  0  0  0  0  0  0  0  0  0
   45.7507   34.3433   43.5064 C   0  0  0  0  0  0  0  0  0  0  0  0
   45.5270   35.6568   43.2271 C   0  0  0  0  0  0  0  0  0  0  0  0
   44.4509   35.9130   42.3962 C   0  0  0  0  0  0  0  0  0  0  0  0
   40.2222   35.8012   40.5246 C   0  0  0  0  0  0  0  0  0  0  0  0
   41.2583   35.5837   41.4647 C   0  0  0  0  0  0  0  0  0  0  0  0
   42.5175   35.2104   41.0016 C   0  0  0  0  0  0  0  0  0  0  0  0
   42.6844   35.0737   39.6558 N   0  0  0  0  0  0  0  0  0  0  0  0
   41.6794   35.2864   38.7703 C   0  0  0  0  0  0  0  0  0  0  0  0
   40.4640   35.6466   39.2143 N   0  0  0  0  0  0  0  0  0  0  0  0
   43.0487   32.5483   41.6262 C   0  0  0  0  0  0  0  0  0  0  0  0
   42.7120   31.5098   42.5662 N   0  0  0  0  0  0  0  0  0  0  0  0
   41.0314   31.1427   42.5591 S   0  0  0  0  0  0  0  0  0  0  0  0
   40.2015   32.3957   42.4487 O   0  0  0  0  0  0  0  0  0  0  0  0
   40.6353   30.3719   43.7651 O   0  0  0  0  0  0  0  0  0  0  0  0
   40.7374   30.1997   41.1934 O   0  0  0  0  0  0  0  0  0  0  0  0
   40.0925   29.0519   41.6085 C   0  0  0  0  0  0  0  0  0  0  0  0
   40.9367   27.8250   41.2290 C   0  0  0  0  0  0  0  0  0  0  0  0
   45.1732   32.2921   43.2455 H   0  0  0  0  0  0  0  0  0  0  0  0
   46.5790   34.0418   44.1548 H   0  0  0  0  0  0  0  0  0  0  0  0
   46.1561   36.4416   43.6339 H   0  0  0  0  0  0  0  0  0  0  0  0
   44.2321   36.9485   42.1442 H   0  0  0  0  0  0  0  0  0  0  0  0
   39.2597   36.0896   40.9227 H   0  0  0  0  0  0  0  0  0  0  0  0
   41.1101   35.6963   42.5295 H   0  0  0  0  0  0  0  0  0  0  0  0
   41.8842   35.1591   37.7139 H   0  0  0  0  0  0  0  0  0  0  0  0
   42.1274   32.9946   41.1992 H   0  0  0  0  0  0  0  0  0  0  0  0
   43.6060   32.1499   40.7326 H   0  0  0  0  0  0  0  0  0  0  0  0
   42.9583   31.8126   43.5172 H   0  0  0  0  0  0  0  0  0  0  0  0
   39.8004   32.6162   41.5480 H   0  0  0  0  0  0  0  0  0  0  0  0
   41.2032   30.2543   44.5534 H   0  0  0  0  0  0  0  0  0  0  0  0
   39.1363   28.8979   41.0312 H   0  0  0  0  0  0  0  0  0  0  0  0
   39.8270   29.0097   42.6615 H   0  0  0  0  0  0  0  0  0  0  0  0
   41.0754   27.7603   40.1437 H   0  0  0  0  0  0  0  0  0  0  0  0
   41.8860   27.8441   41.8031 H   0  0  0  0  0  0  0  0  0  0  0  0
   39.9948   26.3718   41.8219 S   0  0  0  0  0  0  0  0  0  0  0  0
   40.0463   26.2980   43.2277 H   0  0  0  0  0  0  0  0  0  0  0  0
  1  2  2  0
  1  6  1  0
  2  3  1  0
  3  4  2  0
  5  4  1  0
  6  5  2  0
  7  8  2  0
  9  8  1  0
  9  1  1  0
 10  9  2  0
 11 12  2  0
 11 10  1  0
 12  7  1  0
 13  2  1  0
 13 14  1  0
 15 14  1  0
 15 17  1  0
 16 15  1  0
 18 19  1  0
 18 15  1  0
 20 19  1  0
  3 21  1  0
  4 22  1  0
  5 23  1  0
  6 24  1  0
  7 25  1  0
  8 26  1  0
 11 27  1  0
 13 28  1  0
 13 29  1  0
 14 30  1  0
 16 31  1  0
 17 32  1  0
 19 33  1  0
 19 34  1  0
 20 35  1  0
 20 36  1  0
 37 38  1  0
 20 37  1  0
M  ISO  8  21  14  22  14  23  14  24  14  25  14  26  14  27  14  28   8
M  ISO  8  29   8  30   5  31   3  32   3  33   8  34   8  35   8  36   8
M  ISO  1  38  11
M  END
>  <DihAtoms>  (1) 
18,19,36,37

>  <DihDeg>  (1) 
-42.04760815919897

$$$$
