
 OpenBabel03242518563D

 39 41  0  0  1  0  0  0  0  0999 V2000
   37.3370   26.1620   41.7440 C   0  0  2  0  0  0  0  0  0  0  0  0
   36.8140   24.8450   42.2200 C   0  0  0  0  0  0  0  0  0  0  0  0
   37.3890   23.8030   41.3280 C   0  0  0  0  0  0  0  0  0  0  0  0
   38.2320   24.3080   40.2020 C   0  0  0  0  0  0  0  0  0  0  0  0
   39.3260   25.2010   40.7210 C   0  0  0  0  0  0  0  0  0  0  0  0
   38.8530   26.1190   41.7470 C   0  0  2  0  0  0  0  0  0  0  0  0
   37.0760   26.2930   40.6740 H   0  0  0  0  0  0  0  0  0  0  0  0
   36.9770   24.6720   43.3020 H   0  0  0  0  0  0  0  0  0  0  0  0
   35.6830   24.8980   42.1360 H   0  0  0  0  0  0  0  0  0  0  0  0
   36.5130   23.2940   40.8200 H   0  0  0  0  0  0  0  0  0  0  0  0
   37.8850   22.9500   41.8480 H   0  0  0  0  0  0  0  0  0  0  0  0
   37.6260   24.7940   39.4040 H   0  0  0  0  0  0  0  0  0  0  0  0
   38.6710   23.4120   39.7130 H   0  0  0  0  0  0  0  0  0  0  0  0
   39.6690   25.7920   39.8160 H   0  0  0  0  0  0  0  0  0  0  0  0
   40.1840   24.5440   40.9410 H   0  0  0  0  0  0  0  0  0  0  0  0
   39.1730   27.1540   41.5270 H   0  0  0  0  0  0  0  0  0  0  0  0
   39.3510   25.5970   43.0440 C   0  0  0  0  0  0  0  0  0  0  0  0
   39.5800   24.5160   42.9550 H   0  0  0  0  0  0  0  0  0  0  0  0
   38.5240   25.7630   43.7940 H   0  0  0  0  0  0  0  0  0  0  0  0
   40.5700   26.2300   43.6250 C   0  0  0  0  0  3  0  0  0  0  0  0
   41.8400   25.4800   43.3190 C   0  0  0  0  0  2  0  0  0  0  0  0
   42.8340   26.3350   42.5550 C   0  0  0  0  0  2  0  0  0  0  0  0
   43.0940   27.5810   43.3730 C   0  0  0  0  0  2  0  0  0  0  0  0
   41.8300   28.3870   43.3540 C   0  0  0  0  0  2  0  0  0  0  0  0
   40.6060   27.6290   42.9940 C   0  0  0  0  0  2  0  0  0  0  0  0
   36.7990   27.3270   42.4940 C   0  0  0  0  0  0  0  0  0  0  0  0
   36.3360   27.2470   43.6550 O   0  0  0  0  0  0  0  0  0  0  0  0
   35.8430   30.1570   40.3890 C   0  0  0  0  0  0  0  0  0  0  0  0
   36.9250   31.0640   40.5010 C   0  0  0  0  0  0  0  0  0  0  0  0
   37.9690   30.6710   41.3180 C   0  0  0  0  0  0  0  0  0  0  0  0
   37.8240   29.4800   41.9010 N   0  0  0  0  0  0  0  0  0  0  0  0
   36.8260   28.6310   41.8030 C   0  0  0  0  0  0  0  0  0  0  0  0
   35.8000   28.9900   41.0160 N   0  0  0  0  0  0  0  0  0  0  0  0
   34.9930   30.4410   39.7450 H   0  0  0  0  0  0  0  0  0  0  0  0
   36.9120   32.0070   39.9670 H   0  0  0  0  0  0  0  0  0  0  0  0
   39.0900   31.5890   41.4350 C   0  0  0  0  0  0  0  0  0  0  0  0
   40.0120   31.3360   40.4240 F   0  0  0  0  0  0  0  0  0  0  0  0
   39.6780   31.3490   42.6340 F   0  0  0  0  0  0  0  0  0  0  0  0
   38.7080   32.9150   41.2620 F   0  0  0  0  0  0  0  0  0  0  0  0
  1  7  1  6  0  0  0
  1  6  1  0  0  0  0
  1  2  1  0  0  0  0
  1 26  1  0  0  0  0
  2  8  1  0  0  0  0
  3 11  1  0  0  0  0
  3  2  1  0  0  0  0
  4  5  1  0  0  0  0
  4  3  1  0  0  0  0
  5 15  1  0  0  0  0
  5  6  1  0  0  0  0
  6 16  1  6  0  0  0
  6 17  1  0  0  0  0
  9  2  1  0  0  0  0
 10  3  1  0  0  0  0
 12  4  1  0  0  0  0
 13  4  1  0  0  0  0
 14  5  1  0  0  0  0
 17 20  1  0  0  0  0
 17 19  1  0  0  0  0
 18 17  1  0  0  0  0
 21 20  1  0  0  0  0
 22 21  1  0  0  0  0
 22 23  1  0  0  0  0
 24 23  1  0  0  0  0
 25 24  1  0  0  0  0
 25 20  1  0  0  0  0
 26 27  2  0  0  0  0
 28 29  2  0  0  0  0
 28 33  1  0  0  0  0
 29 30  1  0  0  0  0
 30 36  1  0  0  0  0
 30 31  2  0  0  0  0
 32 31  1  0  0  0  0
 32 26  1  0  0  0  0
 33 32  2  0  0  0  0
 34 28  1  0  0  0  0
 35 29  1  0  0  0  0
 36 38  1  0  0  0  0
 37 36  1  0  0  0  0
 39 36  1  0  0  0  0
M  END
>  <minimizedAffinity>
-5.93403053

$$$$

 OpenBabel03242518563D

 39 41  0  0  1  0  0  0  0  0999 V2000
   39.3620   29.5470   42.0120 C   0  0  2  0  0  0  0  0  0  0  0  0
   39.7230   30.8670   42.6140 C   0  0  0  0  0  0  0  0  0  0  0  0
   40.6080   31.5590   41.6390 C   0  0  0  0  0  0  0  0  0  0  0  0
   40.9550   30.7800   40.4120 C   0  0  0  0  0  0  0  0  0  0  0  0
   39.7080   30.2980   39.7220 C   0  0  0  0  0  0  0  0  0  0  0  0
   38.7200   29.7820   40.6590 C   0  0  2  0  0  0  0  0  0  0  0  0
   40.2910   28.9890   41.7730 H   0  0  0  0  0  0  0  0  0  0  0  0
   38.8440   31.4560   42.9430 H   0  0  0  0  0  0  0  0  0  0  0  0
   40.2610   30.6410   43.5880 H   0  0  0  0  0  0  0  0  0  0  0  0
   41.6000   31.7220   42.1630 H   0  0  0  0  0  0  0  0  0  0  0  0
   40.3080   32.6020   41.3790 H   0  0  0  0  0  0  0  0  0  0  0  0
   41.6730   29.9550   40.6240 H   0  0  0  0  0  0  0  0  0  0  0  0
   41.5150   31.4740   39.7490 H   0  0  0  0  0  0  0  0  0  0  0  0
   40.0590   29.4580   39.0460 H   0  0  0  0  0  0  0  0  0  0  0  0
   39.4170   31.0940   39.0170 H   0  0  0  0  0  0  0  0  0  0  0  0
   38.3510   28.7920   40.3370 H   0  0  0  0  0  0  0  0  0  0  0  0
   37.6590   30.8160   40.7650 C   0  0  0  0  0  0  0  0  0  0  0  0
   38.0740   31.8120   40.5160 H   0  0  0  0  0  0  0  0  0  0  0  0
   37.3000   30.7950   41.8350 H   0  0  0  0  0  0  0  0  0  0  0  0
   36.4440   30.6510   39.9170 C   0  0  0  0  0  3  0  0  0  0  0  0
   36.7360   30.6710   38.4390 C   0  0  0  0  0  2  0  0  0  0  0  0
   36.3070   29.3840   37.7590 C   0  0  0  0  0  2  0  0  0  0  0  0
   34.8350   29.1810   38.0440 C   0  0  0  0  0  2  0  0  0  0  0  0
   34.7120   28.8780   39.5070 C   0  0  0  0  0  2  0  0  0  0  0  0
   35.8730   29.2880   40.3340 C   0  0  0  0  0  2  0  0  0  0  0  0
   38.5290   28.6930   42.8970 C   0  0  0  0  0  0  0  0  0  0  0  0
   37.6610   29.1480   43.6790 O   0  0  0  0  0  0  0  0  0  0  0  0
   39.9870   25.3840   43.4310 C   0  0  0  0  0  0  0  0  0  0  0  0
   39.1890   24.5150   42.6470 C   0  0  0  0  0  0  0  0  0  0  0  0
   38.1490   25.1030   41.9500 C   0  0  0  0  0  0  0  0  0  0  0  0
   38.0280   26.4220   42.1050 N   0  0  0  0  0  0  0  0  0  0  0  0
   38.7620   27.2370   42.8280 C   0  0  0  0  0  0  0  0  0  0  0  0
   39.7780   26.6910   43.5140 N   0  0  0  0  0  0  0  0  0  0  0  0
   40.8240   24.9470   44.0000 H   0  0  0  0  0  0  0  0  0  0  0  0
   39.4010   23.4530   42.6130 H   0  0  0  0  0  0  0  0  0  0  0  0
   37.3280   24.2220   41.1350 C   0  0  0  0  0  0  0  0  0  0  0  0
   36.0600   24.1080   41.6990 F   0  0  0  0  0  0  0  0  0  0  0  0
   37.9220   23.0020   41.1450 F   0  0  0  0  0  0  0  0  0  0  0  0
   37.1190   24.7250   39.8560 F   0  0  0  0  0  0  0  0  0  0  0  0
  1  7  1  6  0  0  0
  1  2  1  0  0  0  0
  1 26  1  0  0  0  0
  2  8  1  0  0  0  0
  2  9  1  0  0  0  0
  3 10  1  0  0  0  0
  3  2  1  0  0  0  0
  4 12  1  0  0  0  0
  4  3  1  0  0  0  0
  5  4  1  0  0  0  0
  5  6  1  0  0  0  0
  6 16  1  6  0  0  0
  6 17  1  0  0  0  0
  6  1  1  0  0  0  0
 11  3  1  0  0  0  0
 13  4  1  0  0  0  0
 14  5  1  0  0  0  0
 15  5  1  0  0  0  0
 17 19  1  0  0  0  0
 18 17  1  0  0  0  0
 20 25  1  0  0  0  0
 20 17  1  0  0  0  0
 21 20  1  0  0  0  0
 22 23  1  0  0  0  0
 22 21  1  0  0  0  0
 23 24  1  0  0  0  0
 24 25  1  0  0  0  0
 26 27  2  0  0  0  0
 28 33  1  0  0  0  0
 28 34  1  0  0  0  0
 29 28  2  0  0  0  0
 30 31  2  0  0  0  0
 30 29  1  0  0  0  0
 31 32  1  0  0  0  0
 32 26  1  0  0  0  0
 32 33  2  0  0  0  0
 35 29  1  0  0  0  0
 36 38  1  0  0  0  0
 36 37  1  0  0  0  0
 36 30  1  0  0  0  0
 39 36  1  0  0  0  0
M  END
>  <minimizedAffinity>
-5.8820734

$$$$

 OpenBabel03242518563D

 39 41  0  0  1  0  0  0  0  0999 V2000
   37.4180   26.1470   41.6350 C   0  0  2  0  0  0  0  0  0  0  0  0
   36.9380   24.8670   42.2410 C   0  0  0  0  0  0  0  0  0  0  0  0
   37.6100   23.7620   41.5070 C   0  0  0  0  0  0  0  0  0  0  0  0
   38.4840   24.1780   40.3680 C   0  0  0  0  0  0  0  0  0  0  0  0
   39.5030   25.1860   40.8250 C   0  0  0  0  0  0  0  0  0  0  0  0
   38.9320   26.1900   41.7110 C   0  0  2  0  0  0  0  0  0  0  0  0
   37.2060   26.1360   40.5460 H   0  0  0  0  0  0  0  0  0  0  0  0
   37.0540   24.8310   43.3430 H   0  0  0  0  0  0  0  0  0  0  0  0
   35.8120   24.8460   42.1010 H   0  0  0  0  0  0  0  0  0  0  0  0
   36.7880   23.1480   41.0250 H   0  0  0  0  0  0  0  0  0  0  0  0
   38.1210   23.0040   42.1470 H   0  0  0  0  0  0  0  0  0  0  0  0
   37.8950   24.5320   39.4910 H   0  0  0  0  0  0  0  0  0  0  0  0
   38.9910   23.2560   40.0100 H   0  0  0  0  0  0  0  0  0  0  0  0
   39.8610   25.6850   39.8720 H   0  0  0  0  0  0  0  0  0  0  0  0
   40.3810   24.6080   41.1600 H   0  0  0  0  0  0  0  0  0  0  0  0
   39.2100   27.2070   41.3840 H   0  0  0  0  0  0  0  0  0  0  0  0
   39.3890   25.8510   43.0830 C   0  0  0  0  0  0  0  0  0  0  0  0
   39.7530   24.8060   43.1150 H   0  0  0  0  0  0  0  0  0  0  0  0
   38.4920   25.9760   43.7570 H   0  0  0  0  0  0  0  0  0  0  0  0
   40.4730   26.6840   43.6770 C   0  0  0  0  0  3  0  0  0  0  0  0
   41.8190   26.0050   43.6790 C   0  0  0  0  0  2  0  0  0  0  0  0
   42.8520   26.7930   42.8940 C   0  0  0  0  0  2  0  0  0  0  0  0
   42.9170   28.1840   43.4850 C   0  0  0  0  0  2  0  0  0  0  0  0
   41.6190   28.8580   43.1580 C   0  0  0  0  0  2  0  0  0  0  0  0
   40.5070   27.9430   42.8000 C   0  0  0  0  0  2  0  0  0  0  0  0
   36.7840   27.3590   42.2150 C   0  0  0  0  0  0  0  0  0  0  0  0
   36.3490   27.4170   43.3890 O   0  0  0  0  0  0  0  0  0  0  0  0
   36.7460   30.8200   41.0410 C   0  0  0  0  0  0  0  0  0  0  0  0
   36.4350   30.7230   39.6620 C   0  0  0  0  0  0  0  0  0  0  0  0
   36.2500   29.4450   39.1670 C   0  0  0  0  0  0  0  0  0  0  0  0
   36.3900   28.4600   40.0540 N   0  0  0  0  0  0  0  0  0  0  0  0
   36.6770   28.5380   41.3340 C   0  0  0  0  0  0  0  0  0  0  0  0
   36.8610   29.7670   41.8400 N   0  0  0  0  0  0  0  0  0  0  0  0
   36.8990   31.8250   41.4680 H   0  0  0  0  0  0  0  0  0  0  0  0
   36.3520   31.6140   39.0520 H   0  0  0  0  0  0  0  0  0  0  0  0
   35.9220   29.3330   37.7550 C   0  0  0  0  0  0  0  0  0  0  0  0
   34.5530   29.5120   37.5750 F   0  0  0  0  0  0  0  0  0  0  0  0
   36.2540   28.0750   37.3680 F   0  0  0  0  0  0  0  0  0  0  0  0
   36.5270   30.3240   36.9900 F   0  0  0  0  0  0  0  0  0  0  0  0
  1  7  1  6  0  0  0
  1  6  1  0  0  0  0
  1 26  1  0  0  0  0
  1  2  1  0  0  0  0
  2  8  1  0  0  0  0
  3 11  1  0  0  0  0
  3  2  1  0  0  0  0
  4  5  1  0  0  0  0
  4  3  1  0  0  0  0
  5 15  1  0  0  0  0
  5  6  1  0  0  0  0
  6 16  1  6  0  0  0
  6 17  1  0  0  0  0
  9  2  1  0  0  0  0
 10  3  1  0  0  0  0
 12  4  1  0  0  0  0
 13  4  1  0  0  0  0
 14  5  1  0  0  0  0
 17 18  1  0  0  0  0
 17 20  1  0  0  0  0
 17 19  1  0  0  0  0
 20 21  1  0  0  0  0
 22 23  1  0  0  0  0
 22 21  1  0  0  0  0
 24 23  1  0  0  0  0
 25 24  1  0  0  0  0
 25 20  1  0  0  0  0
 26 27  2  0  0  0  0
 28 34  1  0  0  0  0
 28 33  1  0  0  0  0
 29 28  2  0  0  0  0
 30 29  1  0  0  0  0
 30 31  2  0  0  0  0
 31 32  1  0  0  0  0
 32 33  2  0  0  0  0
 32 26  1  0  0  0  0
 35 29  1  0  0  0  0
 36 30  1  0  0  0  0
 37 36  1  0  0  0  0
 38 36  1  0  0  0  0
 39 36  1  0  0  0  0
M  END
>  <minimizedAffinity>
-5.73369455

$$$$

 OpenBabel03242518563D

 39 41  0  0  1  0  0  0  0  0999 V2000
   37.5750   30.6230   40.2140 C   0  0  2  0  0  0  0  0  0  0  0  0
   36.9370   31.9720   40.1310 C   0  0  0  0  0  0  0  0  0  0  0  0
   37.8950   32.8600   39.4190 C   0  0  0  0  0  0  0  0  0  0  0  0
   39.2040   32.2400   39.0550 C   0  0  0  0  0  0  0  0  0  0  0  0
   38.9900   30.9780   38.2660 C   0  0  0  0  0  0  0  0  0  0  0  0
   37.9220   30.1550   38.8140 C   0  0  2  0  0  0  0  0  0  0  0  0
   38.5600   30.7160   40.7160 H   0  0  0  0  0  0  0  0  0  0  0  0
   35.9160   31.9510   39.7010 H   0  0  0  0  0  0  0  0  0  0  0  0
   36.7590   32.3110   41.2000 H   0  0  0  0  0  0  0  0  0  0  0  0
   38.1640   33.6900   40.1430 H   0  0  0  0  0  0  0  0  0  0  0  0
   37.4690   33.4300   38.5600 H   0  0  0  0  0  0  0  0  0  0  0  0
   39.8600   32.0840   39.9430 H   0  0  0  0  0  0  0  0  0  0  0  0
   39.7450   32.9900   38.4380 H   0  0  0  0  0  0  0  0  0  0  0  0
   39.9740   30.4180   38.3450 H   0  0  0  0  0  0  0  0  0  0  0  0
   38.9490   31.2790   37.2060 H   0  0  0  0  0  0  0  0  0  0  0  0
   38.2520   29.1080   38.9310 H   0  0  0  0  0  0  0  0  0  0  0  0
   36.7540   30.3230   37.9110 C   0  0  0  0  0  0  0  0  0  0  0  0
   37.0130   31.0080   37.0800 H   0  0  0  0  0  0  0  0  0  0  0  0
   35.9260   30.7610   38.5400 H   0  0  0  0  0  0  0  0  0  0  0  0
   36.1890   29.0980   37.2760 C   0  0  0  0  0  3  0  0  0  0  0  0
   36.8520   27.8240   37.7330 C   0  0  0  0  0  2  0  0  0  0  0  0
   35.8630   26.8730   38.3830 C   0  0  0  0  0  2  0  0  0  0  0  0
   34.7540   26.6110   37.3880 C   0  0  0  0  0  2  0  0  0  0  0  0
   33.9870   27.8900   37.2430 C   0  0  0  0  0  2  0  0  0  0  0  0
   34.7090   29.1100   37.6810 C   0  0  0  0  0  2  0  0  0  0  0  0
   36.7690   29.6240   40.9650 C   0  0  0  0  0  0  0  0  0  0  0  0
   35.5160   29.6270   40.9910 O   0  0  0  0  0  0  0  0  0  0  0  0
   39.1860   28.0140   43.1840 C   0  0  0  0  0  0  0  0  0  0  0  0
   38.9150   26.6300   43.0580 C   0  0  0  0  0  0  0  0  0  0  0  0
   37.8850   26.2850   42.2020 C   0  0  0  0  0  0  0  0  0  0  0  0
   37.2730   27.3050   41.6000 N   0  0  0  0  0  0  0  0  0  0  0  0
   37.5170   28.5920   41.7080 C   0  0  0  0  0  0  0  0  0  0  0  0
   38.5120   28.9530   42.5330 N   0  0  0  0  0  0  0  0  0  0  0  0
   40.0020   28.3230   43.8590 H   0  0  0  0  0  0  0  0  0  0  0  0
   39.4950   25.9020   43.6120 H   0  0  0  0  0  0  0  0  0  0  0  0
   37.6020   24.8660   42.0580 C   0  0  0  0  0  0  0  0  0  0  0  0
   37.5640   24.5290   40.7080 F   0  0  0  0  0  0  0  0  0  0  0  0
   36.3760   24.6470   42.5980 F   0  0  0  0  0  0  0  0  0  0  0  0
   38.5990   24.0680   42.6090 F   0  0  0  0  0  0  0  0  0  0  0  0
  1  7  1  1  0  0  0
  1 26  1  0  0  0  0
  2  1  1  0  0  0  0
  2  9  1  0  0  0  0
  3  2  1  0  0  0  0
  3 10  1  0  0  0  0
  4  3  1  0  0  0  0
  4 12  1  0  0  0  0
  5 14  1  0  0  0  0
  5  6  1  0  0  0  0
  5  4  1  0  0  0  0
  6 16  1  1  0  0  0
  6  1  1  0  0  0  0
  8  2  1  0  0  0  0
 11  3  1  0  0  0  0
 13  4  1  0  0  0  0
 15  5  1  0  0  0  0
 17 19  1  0  0  0  0
 17  6  1  0  0  0  0
 18 17  1  0  0  0  0
 20 25  1  0  0  0  0
 20 21  1  0  0  0  0
 20 17  1  0  0  0  0
 21 22  1  0  0  0  0
 23 22  1  0  0  0  0
 24 23  1  0  0  0  0
 24 25  1  0  0  0  0
 26 27  2  0  0  0  0
 26 32  1  0  0  0  0
 28 34  1  0  0  0  0
 29 28  1  0  0  0  0
 29 35  1  0  0  0  0
 30 29  2  0  0  0  0
 31 32  2  0  0  0  0
 31 30  1  0  0  0  0
 32 33  1  0  0  0  0
 33 28  2  0  0  0  0
 36 30  1  0  0  0  0
 36 38  1  0  0  0  0
 36 39  1  0  0  0  0
 37 36  1  0  0  0  0
M  END
>  <minimizedAffinity>
-5.70539093

$$$$

 OpenBabel03242518563D

 39 41  0  0  1  0  0  0  0  0999 V2000
   35.4090   29.2820   37.5640 C   0  0  2  0  0  0  0  0  0  0  0  0
   36.7360   28.8380   37.0380 C   0  0  0  0  0  0  0  0  0  0  0  0
   37.7410   29.8270   37.5100 C   0  0  0  0  0  0  0  0  0  0  0  0
   37.1960   30.9870   38.2790 C   0  0  0  0  0  0  0  0  0  0  0  0
   36.3630   30.5090   39.4370 C   0  0  0  0  0  0  0  0  0  0  0  0
   35.4920   29.4010   39.0730 C   0  0  2  0  0  0  0  0  0  0  0  0
   35.2110   30.3200   37.2240 H   0  0  0  0  0  0  0  0  0  0  0  0
   36.9740   27.7830   37.2800 H   0  0  0  0  0  0  0  0  0  0  0  0
   36.6480   28.8290   35.9060 H   0  0  0  0  0  0  0  0  0  0  0  0
   38.1980   30.2910   36.5810 H   0  0  0  0  0  0  0  0  0  0  0  0
   38.6350   29.3950   38.0180 H   0  0  0  0  0  0  0  0  0  0  0  0
   36.6510   31.7080   37.6270 H   0  0  0  0  0  0  0  0  0  0  0  0
   38.0760   31.5570   38.6500 H   0  0  0  0  0  0  0  0  0  0  0  0
   35.7320   31.4050   39.7260 H   0  0  0  0  0  0  0  0  0  0  0  0
   37.0550   30.3940   40.2880 H   0  0  0  0  0  0  0  0  0  0  0  0
   34.4560   29.5900   39.4070 H   0  0  0  0  0  0  0  0  0  0  0  0
   36.1000   28.1770   39.6540 C   0  0  0  0  0  0  0  0  0  0  0  0
   36.7140   27.6600   38.8900 H   0  0  0  0  0  0  0  0  0  0  0  0
   35.2430   27.5200   39.9810 H   0  0  0  0  0  0  0  0  0  0  0  0
   36.9770   28.3390   40.8480 C   0  0  0  0  0  3  0  0  0  0  0  0
   36.3230   27.9110   42.1360 C   0  0  0  0  0  2  0  0  0  0  0  0
   37.0920   26.7950   42.8190 C   0  0  0  0  0  2  0  0  0  0  0  0
   38.5100   27.2780   43.0350 C   0  0  0  0  0  2  0  0  0  0  0  0
   39.1460   27.3840   41.6820 C   0  0  0  0  0  2  0  0  0  0  0  0
   38.1960   27.4570   40.5450 C   0  0  0  0  0  2  0  0  0  0  0  0
   34.2740   28.4300   37.1220 C   0  0  0  0  0  0  0  0  0  0  0  0
   34.3570   27.1890   36.9760 O   0  0  0  0  0  0  0  0  0  0  0  0
   31.6090   30.2370   35.3930 C   0  0  0  0  0  0  0  0  0  0  0  0
   30.6090   30.4230   36.3780 C   0  0  0  0  0  0  0  0  0  0  0  0
   30.8830   29.9060   37.6310 C   0  0  0  0  0  0  0  0  0  0  0  0
   32.0620   29.2940   37.7540 N   0  0  0  0  0  0  0  0  0  0  0  0
   32.9960   29.1170   36.8470 C   0  0  0  0  0  0  0  0  0  0  0  0
   32.7540   29.6090   35.6230 N   0  0  0  0  0  0  0  0  0  0  0  0
   31.4210   30.6380   34.3820 H   0  0  0  0  0  0  0  0  0  0  0  0
   29.6900   30.9440   36.1400 H   0  0  0  0  0  0  0  0  0  0  0  0
   29.8690   30.0980   38.6550 C   0  0  0  0  0  0  0  0  0  0  0  0
   29.4940   31.4380   38.6990 F   0  0  0  0  0  0  0  0  0  0  0  0
   30.4320   29.7620   39.8420 F   0  0  0  0  0  0  0  0  0  0  0  0
   28.6990   29.3970   38.3790 F   0  0  0  0  0  0  0  0  0  0  0  0
  1  7  1  6  0  0  0
  1  6  1  0  0  0  0
  2  8  1  0  0  0  0
  2  3  1  0  0  0  0
  2  1  1  0  0  0  0
  3 11  1  0  0  0  0
  3  4  1  0  0  0  0
  4 13  1  0  0  0  0
  4  5  1  0  0  0  0
  5 14  1  0  0  0  0
  5 15  1  0  0  0  0
  6 16  1  1  0  0  0
  6  5  1  0  0  0  0
  6 17  1  0  0  0  0
  9  2  1  0  0  0  0
 10  3  1  0  0  0  0
 12  4  1  0  0  0  0
 17 19  1  0  0  0  0
 17 20  1  0  0  0  0
 18 17  1  0  0  0  0
 20 21  1  0  0  0  0
 21 22  1  0  0  0  0
 22 23  1  0  0  0  0
 24 23  1  0  0  0  0
 25 20  1  0  0  0  0
 25 24  1  0  0  0  0
 26  1  1  0  0  0  0
 27 26  2  0  0  0  0
 28 33  2  0  0  0  0
 28 29  1  0  0  0  0
 29 30  2  0  0  0  0
 30 31  1  0  0  0  0
 30 36  1  0  0  0  0
 32 26  1  0  0  0  0
 32 31  2  0  0  0  0
 33 32  1  0  0  0  0
 34 28  1  0  0  0  0
 35 29  1  0  0  0  0
 36 37  1  0  0  0  0
 36 38  1  0  0  0  0
 39 36  1  0  0  0  0
M  END
>  <minimizedAffinity>
-5.66368103

$$$$

 OpenBabel03242518563D

 39 41  0  0  1  0  0  0  0  0999 V2000
   37.7090   30.3230   40.1150 C   0  0  2  0  0  0  0  0  0  0  0  0
   37.0910   31.6410   40.4540 C   0  0  0  0  0  0  0  0  0  0  0  0
   37.1200   32.4630   39.2140 C   0  0  0  0  0  0  0  0  0  0  0  0
   37.7870   31.8330   38.0350 C   0  0  0  0  0  0  0  0  0  0  0  0
   37.1840   30.4860   37.7440 C   0  0  0  0  0  0  0  0  0  0  0  0
   36.9530   29.7080   38.9530 C   0  0  2  0  0  0  0  0  0  0  0  0
   38.7290   30.4910   39.7120 H   0  0  0  0  0  0  0  0  0  0  0  0
   36.0930   31.5510   40.9280 H   0  0  0  0  0  0  0  0  0  0  0  0
   37.7270   32.0940   41.2770 H   0  0  0  0  0  0  0  0  0  0  0  0
   37.7540   33.3740   39.4460 H   0  0  0  0  0  0  0  0  0  0  0  0
   36.1460   32.9240   38.9240 H   0  0  0  0  0  0  0  0  0  0  0  0
   38.8950   31.7910   38.1480 H   0  0  0  0  0  0  0  0  0  0  0  0
   37.6200   32.5200   37.1770 H   0  0  0  0  0  0  0  0  0  0  0  0
   37.9540   29.9590   37.0990 H   0  0  0  0  0  0  0  0  0  0  0  0
   36.3450   30.6650   37.0510 H   0  0  0  0  0  0  0  0  0  0  0  0
   37.3620   28.6880   38.8480 H   0  0  0  0  0  0  0  0  0  0  0  0
   35.4920   29.7500   39.2100 C   0  0  0  0  0  0  0  0  0  0  0  0
   35.0400   30.6190   38.6920 H   0  0  0  0  0  0  0  0  0  0  0  0
   35.3670   29.8490   40.3270 H   0  0  0  0  0  0  0  0  0  0  0  0
   34.6840   28.5640   38.8060 C   0  0  0  0  0  3  0  0  0  0  0  0
   33.6830   28.8610   37.7200 C   0  0  0  0  0  2  0  0  0  0  0  0
   33.9220   28.0150   36.4820 C   0  0  0  0  0  2  0  0  0  0  0  0
   33.8870   26.5620   36.9040 C   0  0  0  0  0  2  0  0  0  0  0  0
   35.1030   26.3240   37.7480 C   0  0  0  0  0  2  0  0  0  0  0  0
   35.7230   27.5460   38.3160 C   0  0  0  0  0  2  0  0  0  0  0  0
   37.8210   29.3990   41.2740 C   0  0  0  0  0  0  0  0  0  0  0  0
   37.5750   29.7380   42.4550 O   0  0  0  0  0  0  0  0  0  0  0  0
   39.7940   26.5510   40.1100 C   0  0  0  0  0  0  0  0  0  0  0  0
   39.0020   25.4190   40.4220 C   0  0  0  0  0  0  0  0  0  0  0  0
   37.7920   25.6730   41.0430 C   0  0  0  0  0  0  0  0  0  0  0  0
   37.5220   26.9600   41.2690 N   0  0  0  0  0  0  0  0  0  0  0  0
   38.2490   28.0170   40.9820 C   0  0  0  0  0  0  0  0  0  0  0  0
   39.4280   27.7970   40.3810 N   0  0  0  0  0  0  0  0  0  0  0  0
   40.7650   26.3820   39.6150 H   0  0  0  0  0  0  0  0  0  0  0  0
   39.3460   24.4210   40.1800 H   0  0  0  0  0  0  0  0  0  0  0  0
   36.9650   24.5210   41.3610 C   0  0  0  0  0  0  0  0  0  0  0  0
   37.7560   23.3760   41.4140 F   0  0  0  0  0  0  0  0  0  0  0  0
   36.0660   24.3850   40.3550 F   0  0  0  0  0  0  0  0  0  0  0  0
   36.3780   24.6210   42.6180 F   0  0  0  0  0  0  0  0  0  0  0  0
  1  7  1  6  0  0  0
  1  2  1  0  0  0  0
  1 26  1  0  0  0  0
  2  8  1  0  0  0  0
  2  9  1  0  0  0  0
  3 10  1  0  0  0  0
  3  2  1  0  0  0  0
  4 12  1  0  0  0  0
  4  3  1  0  0  0  0
  5  4  1  0  0  0  0
  5  6  1  0  0  0  0
  6 16  1  6  0  0  0
  6 17  1  0  0  0  0
  6  1  1  0  0  0  0
 11  3  1  0  0  0  0
 13  4  1  0  0  0  0
 14  5  1  0  0  0  0
 15  5  1  0  0  0  0
 17 19  1  0  0  0  0
 18 17  1  0  0  0  0
 20 17  1  0  0  0  0
 21 20  1  0  0  0  0
 22 23  1  0  0  0  0
 22 21  1  0  0  0  0
 23 24  1  0  0  0  0
 24 25  1  0  0  0  0
 25 20  1  0  0  0  0
 26 27  2  0  0  0  0
 28 33  2  0  0  0  0
 28 29  1  0  0  0  0
 29 30  2  0  0  0  0
 30 31  1  0  0  0  0
 30 36  1  0  0  0  0
 32 31  2  0  0  0  0
 32 26  1  0  0  0  0
 33 32  1  0  0  0  0
 34 28  1  0  0  0  0
 35 29  1  0  0  0  0
 36 37  1  0  0  0  0
 36 39  1  0  0  0  0
 38 36  1  0  0  0  0
M  END
>  <minimizedAffinity>
-5.65978193

$$$$

 OpenBabel03242518563D

 39 41  0  0  1  0  0  0  0  0999 V2000
   38.5230   27.0560   43.1200 C   0  0  2  0  0  0  0  0  0  0  0  0
   39.5800   27.9890   42.6220 C   0  0  0  0  0  0  0  0  0  0  0  0
   40.8920   27.3590   42.9280 C   0  0  0  0  0  0  0  0  0  0  0  0
   40.8310   26.0690   43.6800 C   0  0  0  0  0  0  0  0  0  0  0  0
   39.9430   25.0840   42.9680 C   0  0  0  0  0  0  0  0  0  0  0  0
   38.7200   25.6990   42.4730 C   0  0  2  0  0  0  0  0  0  0  0  0
   38.6870   26.8630   44.2000 H   0  0  0  0  0  0  0  0  0  0  0  0
   39.4430   28.2840   41.5620 H   0  0  0  0  0  0  0  0  0  0  0  0
   39.4380   28.9660   43.1810 H   0  0  0  0  0  0  0  0  0  0  0  0
   41.4350   28.0690   43.6260 H   0  0  0  0  0  0  0  0  0  0  0  0
   41.6010   27.2890   42.0700 H   0  0  0  0  0  0  0  0  0  0  0  0
   40.5420   26.2130   44.7460 H   0  0  0  0  0  0  0  0  0  0  0  0
   41.8730   25.6820   43.7230 H   0  0  0  0  0  0  0  0  0  0  0  0
   39.6830   24.3100   43.7550 H   0  0  0  0  0  0  0  0  0  0  0  0
   40.5910   24.5340   42.2670 H   0  0  0  0  0  0  0  0  0  0  0  0
   37.8350   25.1070   42.7680 H   0  0  0  0  0  0  0  0  0  0  0  0
   38.8850   25.8470   41.0050 C   0  0  0  0  0  0  0  0  0  0  0  0
   39.9480   25.7040   40.7270 H   0  0  0  0  0  0  0  0  0  0  0  0
   38.5500   26.8940   40.7500 H   0  0  0  0  0  0  0  0  0  0  0  0
   38.1020   24.9350   40.1240 C   0  0  0  0  0  3  0  0  0  0  0  0
   38.8400   23.6730   39.7580 C   0  0  0  0  0  2  0  0  0  0  0  0
   38.0990   22.4300   40.2170 C   0  0  0  0  0  2  0  0  0  0  0  0
   36.7120   22.4720   39.6140 C   0  0  0  0  0  2  0  0  0  0  0  0
   35.9810   23.5980   40.2800 C   0  0  0  0  0  2  0  0  0  0  0  0
   36.8450   24.6050   40.9420 C   0  0  0  0  0  2  0  0  0  0  0  0
   37.1400   27.5730   42.9510 C   0  0  0  0  0  0  0  0  0  0  0  0
   36.1800   27.2280   43.6780 O   0  0  0  0  0  0  0  0  0  0  0  0
   36.8820   30.7100   41.0940 C   0  0  0  0  0  0  0  0  0  0  0  0
   36.4700   30.3210   39.7960 C   0  0  0  0  0  0  0  0  0  0  0  0
   36.2970   28.9640   39.5910 C   0  0  0  0  0  0  0  0  0  0  0  0
   36.5400   28.1890   40.6490 N   0  0  0  0  0  0  0  0  0  0  0  0
   36.9210   28.5390   41.8570 C   0  0  0  0  0  0  0  0  0  0  0  0
   37.0970   29.8500   42.0810 N   0  0  0  0  0  0  0  0  0  0  0  0
   37.0290   31.7860   41.2900 H   0  0  0  0  0  0  0  0  0  0  0  0
   36.3080   31.0630   39.0230 H   0  0  0  0  0  0  0  0  0  0  0  0
   35.8670   28.5520   38.2650 C   0  0  0  0  0  0  0  0  0  0  0  0
   34.4790   28.4460   38.2340 F   0  0  0  0  0  0  0  0  0  0  0  0
   36.4050   27.3280   38.0340 F   0  0  0  0  0  0  0  0  0  0  0  0
   36.1860   29.4900   37.2890 F   0  0  0  0  0  0  0  0  0  0  0  0
  1  7  1  1  0  0  0
  2  3  1  0  0  0  0
  2  1  1  0  0  0  0
  2  9  1  0  0  0  0
  3 10  1  0  0  0  0
  3  4  1  0  0  0  0
  4 13  1  0  0  0  0
  4 12  1  0  0  0  0
  5  4  1  0  0  0  0
  5 14  1  0  0  0  0
  6 16  1  1  0  0  0
  6  5  1  0  0  0  0
  6  1  1  0  0  0  0
  8  2  1  0  0  0  0
 11  3  1  0  0  0  0
 15  5  1  0  0  0  0
 17  6  1  0  0  0  0
 18 17  1  0  0  0  0
 19 17  1  0  0  0  0
 20 25  1  0  0  0  0
 20 17  1  0  0  0  0
 21 20  1  0  0  0  0
 21 22  1  0  0  0  0
 23 22  1  0  0  0  0
 23 24  1  0  0  0  0
 24 25  1  0  0  0  0
 26  1  1  0  0  0  0
 26 27  2  0  0  0  0
 28 34  1  0  0  0  0
 28 33  1  0  0  0  0
 29 28  2  0  0  0  0
 30 29  1  0  0  0  0
 30 31  2  0  0  0  0
 31 32  1  0  0  0  0
 32 33  2  0  0  0  0
 32 26  1  0  0  0  0
 35 29  1  0  0  0  0
 36 30  1  0  0  0  0
 37 36  1  0  0  0  0
 38 36  1  0  0  0  0
 39 36  1  0  0  0  0
M  END
>  <minimizedAffinity>
-5.65854311

$$$$

 OpenBabel03242518563D

 39 41  0  0  1  0  0  0  0  0999 V2000
   36.2680   30.5650   39.6770 C   0  0  2  0  0  0  0  0  0  0  0  0
   36.8840   30.6190   38.3160 C   0  0  0  0  0  0  0  0  0  0  0  0
   37.5080   31.9630   38.1780 C   0  0  0  0  0  0  0  0  0  0  0  0
   37.3090   32.8910   39.3310 C   0  0  0  0  0  0  0  0  0  0  0  0
   37.7600   32.2460   40.6130 C   0  0  0  0  0  0  0  0  0  0  0  0
   37.3370   30.8570   40.7130 C   0  0  2  0  0  0  0  0  0  0  0  0
   35.5530   31.4060   39.7880 H   0  0  0  0  0  0  0  0  0  0  0  0
   37.5630   29.7680   38.1060 H   0  0  0  0  0  0  0  0  0  0  0  0
   36.0400   30.4650   37.5730 H   0  0  0  0  0  0  0  0  0  0  0  0
   36.9860   32.4720   37.3090 H   0  0  0  0  0  0  0  0  0  0  0  0
   38.5720   31.9630   37.8420 H   0  0  0  0  0  0  0  0  0  0  0  0
   36.2650   33.2760   39.3900 H   0  0  0  0  0  0  0  0  0  0  0  0
   37.9260   33.7910   39.1180 H   0  0  0  0  0  0  0  0  0  0  0  0
   37.2610   32.8510   41.4310 H   0  0  0  0  0  0  0  0  0  0  0  0
   38.8290   32.4920   40.7240 H   0  0  0  0  0  0  0  0  0  0  0  0
   36.8560   30.6610   41.6880 H   0  0  0  0  0  0  0  0  0  0  0  0
   38.5410   30.0280   40.4580 C   0  0  0  0  0  0  0  0  0  0  0  0
   39.3800   30.6700   40.1240 H   0  0  0  0  0  0  0  0  0  0  0  0
   38.2590   29.2960   39.6460 H   0  0  0  0  0  0  0  0  0  0  0  0
   39.0720   29.2100   41.5860 C   0  0  0  0  0  3  0  0  0  0  0  0
   38.4440   29.5420   42.9150 C   0  0  0  0  0  2  0  0  0  0  0  0
   37.7510   28.3410   43.5310 C   0  0  0  0  0  2  0  0  0  0  0  0
   38.7720   27.2300   43.6470 C   0  0  0  0  0  2  0  0  0  0  0  0
   39.0960   26.7880   42.2520 C   0  0  0  0  0  2  0  0  0  0  0  0
   38.7530   27.7620   41.1880 C   0  0  0  0  0  2  0  0  0  0  0  0
   35.5370   29.3010   39.9540 C   0  0  0  0  0  0  0  0  0  0  0  0
   35.4040   28.8170   41.1020 O   0  0  0  0  0  0  0  0  0  0  0  0
   34.9590   26.8390   37.3150 C   0  0  0  0  0  0  0  0  0  0  0  0
   33.8510   27.3460   36.5940 C   0  0  0  0  0  0  0  0  0  0  0  0
   33.3200   28.5400   37.0490 C   0  0  0  0  0  0  0  0  0  0  0  0
   33.9230   29.0650   38.1160 N   0  0  0  0  0  0  0  0  0  0  0  0
   34.9520   28.6040   38.7920 C   0  0  0  0  0  0  0  0  0  0  0  0
   35.4850   27.4470   38.3700 N   0  0  0  0  0  0  0  0  0  0  0  0
   35.4060   25.8890   36.9780 H   0  0  0  0  0  0  0  0  0  0  0  0
   33.4590   26.8110   35.7380 H   0  0  0  0  0  0  0  0  0  0  0  0
   32.1870   29.0750   36.3120 C   0  0  0  0  0  0  0  0  0  0  0  0
   31.1220   28.1800   36.3730 F   0  0  0  0  0  0  0  0  0  0  0  0
   32.5780   29.2020   35.0190 F   0  0  0  0  0  0  0  0  0  0  0  0
   31.7070   30.2580   36.8640 F   0  0  0  0  0  0  0  0  0  0  0  0
  1  7  1  1  0  0  0
  1 26  1  0  0  0  0
  1  6  1  0  0  0  0
  2  1  1  0  0  0  0
  3  2  1  0  0  0  0
  3  4  1  0  0  0  0
  4 12  1  0  0  0  0
  4  5  1  0  0  0  0
  5  6  1  0  0  0  0
  5 15  1  0  0  0  0
  5 14  1  0  0  0  0
  6 16  1  1  0  0  0
  8  2  1  0  0  0  0
  9  2  1  0  0  0  0
 10  3  1  0  0  0  0
 11  3  1  0  0  0  0
 13  4  1  0  0  0  0
 17  6  1  0  0  0  0
 17 20  1  0  0  0  0
 18 17  1  0  0  0  0
 19 17  1  0  0  0  0
 20 21  1  0  0  0  0
 21 22  1  0  0  0  0
 22 23  1  0  0  0  0
 24 23  1  0  0  0  0
 25 20  1  0  0  0  0
 25 24  1  0  0  0  0
 26 27  2  0  0  0  0
 28 33  1  0  0  0  0
 29 30  1  0  0  0  0
 29 28  2  0  0  0  0
 30 31  2  0  0  0  0
 31 32  1  0  0  0  0
 32 26  1  0  0  0  0
 33 32  2  0  0  0  0
 34 28  1  0  0  0  0
 35 29  1  0  0  0  0
 36 37  1  0  0  0  0
 36 39  1  0  0  0  0
 36 30  1  0  0  0  0
 38 36  1  0  0  0  0
M  END
>  <minimizedAffinity>
-5.6462326

$$$$

 OpenBabel03242518563D

 39 41  0  0  1  0  0  0  0  0999 V2000
   36.5350   29.5300   39.4710 C   0  0  2  0  0  0  0  0  0  0  0  0
   35.0840   29.2400   39.2540 C   0  0  0  0  0  0  0  0  0  0  0  0
   35.0100   28.0700   38.3390 C   0  0  0  0  0  0  0  0  0  0  0  0
   36.3200   27.5570   37.8360 C   0  0  0  0  0  0  0  0  0  0  0  0
   37.2440   27.2530   38.9840 C   0  0  0  0  0  0  0  0  0  0  0  0
   37.2110   28.2840   40.0110 C   0  0  2  0  0  0  0  0  0  0  0  0
   37.0250   29.6960   38.4890 H   0  0  0  0  0  0  0  0  0  0  0  0
   34.5120   29.1300   40.1970 H   0  0  0  0  0  0  0  0  0  0  0  0
   34.6350   30.1720   38.7880 H   0  0  0  0  0  0  0  0  0  0  0  0
   34.4660   28.4220   37.4090 H   0  0  0  0  0  0  0  0  0  0  0  0
   34.3580   27.2330   38.6860 H   0  0  0  0  0  0  0  0  0  0  0  0
   36.7810   28.2380   37.0840 H   0  0  0  0  0  0  0  0  0  0  0  0
   36.0950   26.6270   37.2700 H   0  0  0  0  0  0  0  0  0  0  0  0
   38.2780   27.2180   38.5190 H   0  0  0  0  0  0  0  0  0  0  0  0
   37.0520   26.2050   39.2670 H   0  0  0  0  0  0  0  0  0  0  0  0
   38.2330   28.6030   40.2820 H   0  0  0  0  0  0  0  0  0  0  0  0
   36.4320   27.7260   41.1450 C   0  0  0  0  0  0  0  0  0  0  0  0
   35.8340   26.8580   40.8040 H   0  0  0  0  0  0  0  0  0  0  0  0
   35.7540   28.5540   41.5040 H   0  0  0  0  0  0  0  0  0  0  0  0
   37.1890   27.2620   42.3420 C   0  0  0  0  0  3  0  0  0  0  0  0
   37.5100   25.7900   42.3160 C   0  0  0  0  0  2  0  0  0  0  0  0
   39.0060   25.5350   42.3660 C   0  0  0  0  0  2  0  0  0  0  0  0
   39.5460   26.2120   43.6060 C   0  0  0  0  0  2  0  0  0  0  0  0
   39.4360   27.6900   43.3800 C   0  0  0  0  0  2  0  0  0  0  0  0
   38.4780   28.0940   42.3220 C   0  0  0  0  0  2  0  0  0  0  0  0
   36.7870   30.7260   40.3170 C   0  0  0  0  0  0  0  0  0  0  0  0
   36.0640   31.0490   41.2890 O   0  0  0  0  0  0  0  0  0  0  0  0
   39.1390   33.5180   40.1640 C   0  0  0  0  0  0  0  0  0  0  0  0
   40.1390   33.0910   39.2560 C   0  0  0  0  0  0  0  0  0  0  0  0
   39.9740   31.8270   38.7180 C   0  0  0  0  0  0  0  0  0  0  0  0
   38.8890   31.1670   39.1240 N   0  0  0  0  0  0  0  0  0  0  0  0
   37.9560   31.5550   39.9650 C   0  0  0  0  0  0  0  0  0  0  0  0
   38.0930   32.7770   40.5010 N   0  0  0  0  0  0  0  0  0  0  0  0
   39.2420   34.5210   40.6120 H   0  0  0  0  0  0  0  0  0  0  0  0
   40.9750   33.7340   39.0130 H   0  0  0  0  0  0  0  0  0  0  0  0
   40.9880   31.3800   37.7770 C   0  0  0  0  0  0  0  0  0  0  0  0
   42.2160   31.2770   38.4260 F   0  0  0  0  0  0  0  0  0  0  0  0
   41.0820   32.3280   36.8110 F   0  0  0  0  0  0  0  0  0  0  0  0
   40.7270   30.1080   37.2810 F   0  0  0  0  0  0  0  0  0  0  0  0
  1  7  1  6  0  0  0
  1  6  1  0  0  0  0
  1 26  1  0  0  0  0
  2  1  1  0  0  0  0
  2  8  1  0  0  0  0
  3 11  1  0  0  0  0
  3  2  1  0  0  0  0
  4  3  1  0  0  0  0
  4  5  1  0  0  0  0
  5 15  1  0  0  0  0
  5  6  1  0  0  0  0
  6 16  1  1  0  0  0
  6 17  1  0  0  0  0
  9  2  1  0  0  0  0
 10  3  1  0  0  0  0
 12  4  1  0  0  0  0
 13  4  1  0  0  0  0
 14  5  1  0  0  0  0
 17 19  1  0  0  0  0
 17 20  1  0  0  0  0
 18 17  1  0  0  0  0
 21 20  1  0  0  0  0
 21 22  1  0  0  0  0
 22 23  1  0  0  0  0
 24 23  1  0  0  0  0
 25 20  1  0  0  0  0
 25 24  1  0  0  0  0
 26 27  2  0  0  0  0
 28 33  1  0  0  0  0
 28 34  1  0  0  0  0
 29 28  2  0  0  0  0
 30 31  2  0  0  0  0
 30 29  1  0  0  0  0
 31 32  1  0  0  0  0
 32 26  1  0  0  0  0
 32 33  2  0  0  0  0
 35 29  1  0  0  0  0
 36 37  1  0  0  0  0
 36 30  1  0  0  0  0
 38 36  1  0  0  0  0
 39 36  1  0  0  0  0
M  END
>  <minimizedAffinity>
-5.61572361

$$$$
