REMARK  Name = 
REMARK  7 active torsions:
REMARK  status: ('A' for Active; 'I' for Inactive)
REMARK    1  A    between atoms: P_2  and  O_3
REMARK    2  A    between atoms: P_2  and  O_10
REMARK    3  A    between atoms: P_2  and  O_13
REMARK    4  A    between atoms: O_3  and  C_6
REMARK    5  A    between atoms: O_10  and  C_11
REMARK    6  A    between atoms: C_11  and  C_21
REMARK    7  A    between atoms: O_13  and  C_14
REMARK                            x       y       z     vdW  Elec       q    Type
REMARK                         _______ _______ _______ _____ _____    ______ ____
ROOT
ATOM      1  O   UNL     1      48.025  32.865  41.835  0.00  0.00    +0.000 OA
ATOM      2  P   UNL     1      47.179  34.016  41.343  0.00  0.00    +0.000 P 
ENDROOT
BRANCH   2   3
ATOM      3  O   UNL     1      45.583  33.873  41.983  0.00  0.00    +0.000 OA
BRANCH   3   6
ATOM      4  C   UNL     1      44.381  35.937  44.693  0.00  0.00    +0.000 A 
ATOM      5  C   UNL     1      44.673  35.490  43.389  0.00  0.00    +0.000 A 
ATOM      6  C   UNL     1      45.320  34.260  43.254  0.00  0.00    +0.000 A 
ATOM      7  N   UNL     1      45.640  33.549  44.355  0.00  0.00    +0.000 NA
ATOM      8  C   UNL     1      45.348  34.002  45.596  0.00  0.00    +0.000 A 
ATOM      9  N   UNL     1      44.724  35.186  45.773  0.00  0.00    +0.000 NA
ATOM     10  H   UNL     1      43.887  36.875  44.812  0.00  0.00    +0.000 HD
ATOM     11  H   UNL     1      44.395  36.095  42.551  0.00  0.00    +0.000 HD
ATOM     12  H   UNL     1      45.636  33.377  46.431  0.00  0.00    +0.000 HD
ENDBRANCH   3   6
ENDBRANCH   2   3
BRANCH   2  13
ATOM     13  O   UNL     1      46.965  34.013  39.699  0.00  0.00    +0.000 OA
BRANCH  13  14
ATOM     14  C   UNL     1      46.340  33.154  38.885  0.00  0.00    +0.000 C 
ATOM     15  O   UNL     1      46.548  33.368  37.634  0.00  0.00    +0.000 OA
BRANCH  14  16
ATOM     16  C   UNL     1      45.616  32.172  38.194  0.00  0.00    +0.000 C 
ATOM     17  C   UNL     1      45.091  31.057  39.070  0.00  0.00    +0.000 C 
ATOM     18  C   UNL     1      46.125  29.973  39.277  0.00  0.00    +0.000 C 
ATOM     19  C   UNL     1      46.154  29.201  37.978  0.00  0.00    +0.000 C 
ATOM     20  C   UNL     1      46.300  30.114  36.838  0.00  0.00    +0.000 C 
ATOM     21  C   UNL     1      46.413  31.547  37.015  0.00  0.00    +0.000 C 
ENDBRANCH  14  16
ENDBRANCH  13  14
ENDBRANCH   2  13
BRANCH   2  22
ATOM     22  O   UNL     1      47.776  35.440  41.932  0.00  0.00    +0.000 OA
BRANCH  22  23
ATOM     23  C   UNL     1      49.001  35.736  41.364  0.00  0.00    +0.000 C 
ATOM     24  F   UNL     1      49.433  37.019  41.688  0.00  0.00    +0.000 F 
ATOM     25  F   UNL     1      49.913  34.788  41.698  0.00  0.00    +0.000 F 
ATOM     26  F   UNL     1      48.816  35.725  39.989  0.00  0.00    +0.000 F 
ENDBRANCH  22  23
ENDBRANCH   2  22
TORSDOF 7
