
 OpenBabel03252507043D

 44 47  0  0  0  0  0  0  0  0999 V2000
   41.6470   30.4540   40.6920 C   0  0  0  0  0  0  0  0  0  0  0  0
   42.5490   29.9180   40.2390 H   0  0  0  0  0  0  0  0  0  0  0  0
   40.7870   29.8980   40.2600 H   0  0  0  0  0  0  0  0  0  0  0  0
   41.6440   30.4750   42.0260 N   0  0  0  0  0  0  0  0  0  0  0  0
   40.5860   30.8520   42.9000 C   0  0  0  0  0  0  0  0  0  0  0  0
   40.1790   29.4630   43.3890 C   0  0  0  0  0  0  0  0  0  0  0  0
   41.2400   28.7400   44.0670 C   0  0  0  0  0  0  0  0  0  0  0  0
   42.6180   29.0790   43.7890 C   0  0  0  0  0  0  0  0  0  0  0  0
   42.9140   30.0260   42.6500 C   0  0  0  0  0  0  0  0  0  0  0  0
   39.7410   31.2010   42.2400 H   0  0  0  0  0  0  0  0  0  0  0  0
   40.7740   31.5690   43.6810 H   0  0  0  0  0  0  0  0  0  0  0  0
   39.2990   29.6360   44.0530 H   0  0  0  0  0  0  0  0  0  0  0  0
   39.7600   28.9400   42.4870 H   0  0  0  0  0  0  0  0  0  0  0  0
   41.1040   28.8360   45.1840 H   0  0  0  0  0  0  0  0  0  0  0  0
   41.1140   27.6380   43.8910 H   0  0  0  0  0  0  0  0  0  0  0  0
   43.4720   28.7160   44.2880 H   0  0  0  0  0  0  0  0  0  0  0  0
   44.5180   30.4480   42.1660 S   0  0  0  0  0  0  0  0  0  0  0  0
   45.4640   29.3130   41.2000 C   0  0  0  0  0  3  0  0  0  0  0  0
   44.9490   28.9950   39.8300 C   0  0  0  0  0  2  0  0  0  0  0  0
   45.7290   27.8070   39.2970 C   0  0  0  0  0  2  0  0  0  0  0  0
   47.1430   27.7500   39.8380 C   0  0  0  0  0  2  0  0  0  0  0  0
   47.1520   27.5620   41.3410 C   0  0  0  0  0  2  0  0  0  0  0  0
   45.7850   27.9950   41.8890 C   0  0  0  0  0  2  0  0  0  0  0  0
   41.6820   31.8090   40.0780 C   0  0  0  0  0  0  0  0  0  0  0  0
   40.6710   32.0110   39.6170 H   0  0  0  0  0  0  0  0  0  0  0  0
   41.8990   32.5910   40.8290 H   0  0  0  0  0  0  0  0  0  0  0  0
   42.6740   31.8010   38.9920 C   0  0  0  0  0  0  0  0  0  0  0  0
   42.4090   31.1540   37.8090 C   0  0  0  0  0  0  0  0  0  0  0  0
   43.3780   31.1600   36.8180 C   0  0  0  0  0  0  0  0  0  0  0  0
   44.5540   31.8170   37.0700 N   0  0  0  0  0  0  0  0  0  0  0  0
   44.7740   32.4330   38.2260 C   0  0  0  0  0  0  0  0  0  0  0  0
   43.8250   32.4110   39.1630 N   0  0  0  0  0  0  0  0  0  0  0  0
   41.5640   30.6100   37.4200 H   0  0  0  0  0  0  0  0  0  0  0  0
   43.3490   30.7050   35.8300 H   0  0  0  0  0  0  0  0  0  0  0  0
   46.0470   33.1340   38.3910 C   0  0  0  0  0  0  0  0  0  0  0  0
   46.4920   33.4910   39.6600 C   0  0  0  0  0  0  0  0  0  0  0  0
   47.6870   34.1600   39.8090 C   0  0  0  0  0  0  0  0  0  0  0  0
   48.3450   34.4180   38.6350 C   0  0  0  0  0  0  0  0  0  0  0  0
   47.9480   34.0850   37.3380 C   0  0  0  0  0  0  0  0  0  0  0  0
   46.7600   33.4270   37.2870 N   0  0  0  0  0  0  0  0  0  0  0  0
   45.9180   33.2560   40.5560 H   0  0  0  0  0  0  0  0  0  0  0  0
   48.1150   34.4790   40.7480 H   0  0  0  0  0  0  0  0  0  0  0  0
   49.3020   34.9510   38.7020 H   0  0  0  0  0  0  0  0  0  0  0  0
   48.5340   34.3320   36.4890 H   0  0  0  0  0  0  0  0  0  0  0  0
  1  4  1  0  0  0  0
  2  1  1  0  0  0  0
  3  1  1  0  0  0  0
  4  9  1  0  0  0  0
  4  5  1  0  0  0  0
  5  6  1  0  0  0  0
  5 11  1  0  0  0  0
  6 12  1  0  0  0  0
  6  7  1  0  0  0  0
  7 14  1  0  0  0  0
  8  7  1  0  0  0  0
  8 16  1  0  0  0  0
  9  8  2  0  0  0  0
 10  5  1  0  0  0  0
 13  6  1  0  0  0  0
 15  7  1  0  0  0  0
 17  9  1  0  0  0  0
 18 23  1  0  0  0  0
 18 17  1  0  0  0  0
 19 18  1  0  0  0  0
 20 19  1  0  0  0  0
 20 21  1  0  0  0  0
 21 22  1  0  0  0  0
 22 23  1  0  0  0  0
 24  1  1  0  0  0  0
 24 26  1  0  0  0  0
 25 24  1  0  0  0  0
 27 32  1  0  0  0  0
 27 24  1  0  0  0  0
 28 27  2  0  0  0  0
 29 30  2  0  0  0  0
 29 28  1  0  0  0  0
 30 31  1  0  0  0  0
 31 35  1  0  0  0  0
 31 32  2  0  0  0  0
 33 28  1  0  0  0  0
 34 29  1  0  0  0  0
 35 36  1  0  0  0  0
 36 37  2  0  0  0  0
 36 41  1  0  0  0  0
 37 42  1  0  0  0  0
 38 43  1  0  0  0  0
 38 37  1  0  0  0  0
 39 38  2  0  0  0  0
 40 39  1  0  0  0  0
 40 35  2  0  0  0  0
 44 39  1  0  0  0  0
M  END
>  <minimizedAffinity>
-3.14866328

>  <minimizedRMSD>
7.24303246

$$$$
