
 OpenBabel03252500253D

 34 36  0  0  1  0  0  0  0  0999 V2000
   47.0730   30.5310   48.3050 C   0  0  2  0  0  0  0  0  0  0  0  0
   45.6450   30.8270   48.5390 C   0  0  2  0  0  0  0  0  0  0  0  0
   44.9360   29.9030   47.6200 C   0  0  0  0  0  0  0  0  0  0  0  0
   45.7230   28.7750   47.4750 O   0  0  0  0  0  0  0  0  0  0  0  0
   46.9380   29.0120   48.0280 C   0  0  0  0  0  0  0  0  0  0  0  0
   47.6430   30.8390   47.4790 H   0  0  0  0  0  0  0  0  0  0  0  0
   45.4130   30.5960   49.5880 H   0  0  0  0  0  0  0  0  0  0  0  0
   44.4780   30.3030   46.7220 H   0  0  0  0  0  0  0  0  0  0  0  0
   44.0330   29.5020   48.1820 H   0  0  0  0  0  0  0  0  0  0  0  0
   46.9790   28.5200   49.0420 H   0  0  0  0  0  0  0  0  0  0  0  0
   47.7810   28.6070   47.4740 H   0  0  0  0  0  0  0  0  0  0  0  0
   45.3180   32.1500   48.3440 O   0  0  0  0  0  0  0  0  0  0  0  0
   47.2830   32.9050   46.8770 O   0  0  0  0  0  0  0  0  0  0  0  0
   45.8040   32.6370   46.8270 P   0  0  1  0  0  0  0  0  0  0  0  0
   45.5170   31.3940   45.7140 O   0  0  0  0  0  0  0  0  0  0  0  0
   46.1390   31.3920   44.9610 H   0  0  0  0  0  0  0  0  0  0  0  0
   45.0380   34.0790   46.3290 O   0  0  0  0  0  0  0  0  0  0  0  0
   44.9760   36.3200   43.5480 C   0  0  0  0  0  0  0  0  0  0  0  0
   45.0300   35.4610   42.4080 C   0  0  0  0  0  0  0  0  0  0  0  0
   45.0890   34.0790   42.6710 C   0  0  0  0  0  0  0  0  0  0  0  0
   45.0890   33.6610   43.9540 N   0  0  0  0  0  0  0  0  0  0  0  0
   45.0370   34.5060   44.9980 C   0  0  0  0  0  0  0  0  0  0  0  0
   44.9810   35.8320   44.7900 N   0  0  0  0  0  0  0  0  0  0  0  0
   45.0280   35.8220   41.3960 H   0  0  0  0  0  0  0  0  0  0  0  0
   45.1310   33.3730   41.8460 H   0  0  0  0  0  0  0  0  0  0  0  0
   44.9180   37.6690   43.3120 O   0  0  0  0  0  0  0  0  0  0  0  0
   44.0620   38.1980   43.4400 H   0  0  0  0  0  0  0  0  0  0  0  0
   47.9100   30.7750   49.3600 O   0  0  0  0  0  0  0  0  0  0  0  0
   49.2330   30.7270   49.2650 C   0  0  0  0  0  0  0  0  0  0  0  0
   49.7350   29.8830   50.4420 C   0  0  0  0  0  0  0  0  0  0  0  0
   51.2100   29.6860   50.3470 C   0  0  0  0  0  0  0  0  0  0  0  0
   51.8890   31.0220   50.3840 C   0  0  0  0  0  0  0  0  0  0  0  0
   50.8760   32.1180   50.5820 C   0  0  0  0  0  0  0  0  0  0  0  0
   49.8120   32.1040   49.5210 C   0  0  0  0  0  0  0  0  0  0  0  0
  1  6  1  6  0  0  0
  1  2  1  0  0  0  0
  1 28  1  0  0  0  0
  2  7  1  1  0  0  0
  3  9  1  0  0  0  0
  3  2  1  0  0  0  0
  4  3  1  0  0  0  0
  4  5  1  0  0  0  0
  5  1  1  0  0  0  0
  5 10  1  0  0  0  0
  8  3  1  0  0  0  0
 11  5  1  0  0  0  0
 12  2  1  0  0  0  0
 14 13  2  1  0  0  0
 14 12  1  0  0  0  0
 15 14  1  0  0  0  0
 16 15  1  0  0  0  0
 17 14  1  0  0  0  0
 18 23  1  0  0  0  0
 19 20  1  0  0  0  0
 19 18  2  0  0  0  0
 20 21  2  0  0  0  0
 21 22  1  0  0  0  0
 22 17  1  0  0  0  0
 23 22  2  0  0  0  0
 24 19  1  0  0  0  0
 25 20  1  0  0  0  0
 26 27  1  0  0  0  0
 26 18  1  0  0  0  0
 29 28  1  0  0  0  0
 29 34  1  0  0  0  0
 29 30  1  0  0  0  0
 31 32  1  0  0  0  0
 31 30  1  0  0  0  0
 32 33  1  0  0  0  0
 34 33  1  0  0  0  0
M  END
>  <minimizedAffinity>
-5.44549608

>  <minimizedRMSD>
1.28566337

$$$$
