
 OpenBabel03252508523D

 25 27  0  0  0  0  0  0  0  0999 V2000
   38.9740   31.5870   40.3790 C   0  0  0  0  0  0  0  0  0  0  0  0
   37.6490   31.9080   40.1060 C   0  0  0  0  0  0  0  0  0  0  0  0
   37.3440   33.2510   39.8610 C   0  0  0  0  0  0  0  0  0  0  0  0
   38.3530   34.1610   39.9040 N   0  0  0  0  0  0  0  0  0  0  0  0
   39.6240   33.8060   40.1740 C   0  0  0  0  0  0  0  0  0  0  0  0
   39.9330   32.5100   40.4120 N   0  0  0  0  0  0  0  0  0  0  0  0
   36.3080   33.5320   39.6420 H   0  0  0  0  0  0  0  0  0  0  0  0
   40.4150   34.5420   40.2060 H   0  0  0  0  0  0  0  0  0  0  0  0
   36.6300   30.8570   40.0800 C   0  0  0  0  0  0  0  0  0  0  0  0
   36.3460   30.1070   38.9630 C   0  0  0  0  0  0  0  0  0  0  0  0
   35.3480   29.2590   39.3770 C   0  0  0  0  0  0  0  0  0  0  0  0
   35.0350   29.4820   40.6840 N   0  0  0  0  0  0  0  0  0  0  0  0
   35.8280   30.4530   41.0760 N   0  0  0  0  0  0  0  0  0  0  0  0
   36.8160   30.1930   38.0150 H   0  0  0  0  0  0  0  0  0  0  0  0
   34.8490   28.5040   38.7790 H   0  0  0  0  0  0  0  0  0  0  0  0
   34.3170   28.9790   41.2380 H   0  0  0  0  0  0  0  0  0  0  0  0
   39.2770   30.2690   40.6200 O   0  0  0  0  0  0  0  0  0  0  0  0
   39.2700   29.6360   41.8300 C   0  0  0  0  0  0  0  0  0  0  0  0
   39.7280   30.0670   42.9390 O   0  0  0  0  0  0  0  0  0  0  0  0
   38.7710   28.2970   42.3260 C   0  0  0  0  0  3  0  0  0  0  0  0
   38.2330   27.4840   41.1780 C   0  0  0  0  0  2  0  0  0  0  0  0
   38.0200   26.0860   41.7270 C   0  0  0  0  0  2  0  0  0  0  0  0
   36.8660   26.1330   42.6950 C   0  0  0  0  0  2  0  0  0  0  0  0
   36.5780   27.4810   43.2620 C   0  0  0  0  0  2  0  0  0  0  0  0
   37.7580   28.3890   43.4030 C   0  0  0  0  0  2  0  0  0  0  0  0
  1  6  1  0  0  0  0
  1 17  1  0  0  0  0
  2  1  2  0  0  0  0
  3  4  2  0  0  0  0
  3  2  1  0  0  0  0
  4  5  1  0  0  0  0
  5  8  1  0  0  0  0
  5  6  2  0  0  0  0
  7  3  1  0  0  0  0
  9  2  1  0  0  0  0
  9 13  2  0  0  0  0
 10 11  2  0  0  0  0
 10  9  1  0  0  0  0
 11 12  1  0  0  0  0
 12 13  1  0  0  0  0
 12 16  1  0  0  0  0
 14 10  1  0  0  0  0
 15 11  1  0  0  0  0
 17 18  1  0  0  0  0
 18 20  1  0  0  0  0
 18 19  2  0  0  0  0
 20 25  1  0  0  0  0
 21 22  1  0  0  0  0
 21 20  1  0  0  0  0
 22 23  1  0  0  0  0
 23 24  1  0  0  0  0
 24 25  1  0  0  0  0
M  END
>  <minimizedAffinity>
-5.38652849

$$$$

 OpenBabel03252508523D

 25 27  0  0  0  0  0  0  0  0999 V2000
   36.5730   30.3500   39.2100 C   0  0  0  0  0  0  0  0  0  0  0  0
   37.3910   31.3250   38.6510 C   0  0  0  0  0  0  0  0  0  0  0  0
   37.5870   31.2920   37.2670 C   0  0  0  0  0  0  0  0  0  0  0  0
   36.9710   30.3140   36.5500 N   0  0  0  0  0  0  0  0  0  0  0  0
   36.1870   29.3870   37.1330 C   0  0  0  0  0  0  0  0  0  0  0  0
   35.9890   29.4080   38.4720 N   0  0  0  0  0  0  0  0  0  0  0  0
   38.2260   32.0480   36.7990 H   0  0  0  0  0  0  0  0  0  0  0  0
   35.7050   28.6150   36.5510 H   0  0  0  0  0  0  0  0  0  0  0  0
   38.0110   32.3400   39.5040 C   0  0  0  0  0  0  0  0  0  0  0  0
   39.2790   32.2190   40.0230 C   0  0  0  0  0  0  0  0  0  0  0  0
   39.4530   33.3730   40.7480 C   0  0  0  0  0  0  0  0  0  0  0  0
   38.3440   34.1600   40.6760 N   0  0  0  0  0  0  0  0  0  0  0  0
   37.4940   33.5060   39.9190 N   0  0  0  0  0  0  0  0  0  0  0  0
   39.9420   31.4040   39.8720 H   0  0  0  0  0  0  0  0  0  0  0  0
   40.3340   33.6570   41.3130 H   0  0  0  0  0  0  0  0  0  0  0  0
   38.2160   35.0830   41.1330 H   0  0  0  0  0  0  0  0  0  0  0  0
   36.3790   30.3790   40.5710 O   0  0  0  0  0  0  0  0  0  0  0  0
   36.7250   29.4100   41.4680 C   0  0  0  0  0  0  0  0  0  0  0  0
   36.0490   28.3830   41.8060 O   0  0  0  0  0  0  0  0  0  0  0  0
   37.9260   29.1590   42.3520 C   0  0  0  0  0  3  0  0  0  0  0  0
   39.1170   28.7720   41.5140 C   0  0  0  0  0  2  0  0  0  0  0  0
   40.3100   28.8130   42.4510 C   0  0  0  0  0  2  0  0  0  0  0  0
   40.1800   27.6710   43.4250 C   0  0  0  0  0  2  0  0  0  0  0  0
   38.7950   27.1480   43.5990 C   0  0  0  0  0  2  0  0  0  0  0  0
   37.6980   28.1480   43.4100 C   0  0  0  0  0  2  0  0  0  0  0  0
  1 17  1  0  0  0  0
  2  1  1  0  0  0  0
  2  9  1  0  0  0  0
  3  2  2  0  0  0  0
  4  5  2  0  0  0  0
  4  3  1  0  0  0  0
  5  6  1  0  0  0  0
  6  1  2  0  0  0  0
  7  3  1  0  0  0  0
  8  5  1  0  0  0  0
  9 13  2  0  0  0  0
  9 10  1  0  0  0  0
 10 11  2  0  0  0  0
 11 15  1  0  0  0  0
 12 11  1  0  0  0  0
 12 16  1  0  0  0  0
 13 12  1  0  0  0  0
 14 10  1  0  0  0  0
 17 18  1  0  0  0  0
 18 19  2  0  0  0  0
 18 20  1  0  0  0  0
 20 25  1  0  0  0  0
 21 20  1  0  0  0  0
 21 22  1  0  0  0  0
 22 23  1  0  0  0  0
 23 24  1  0  0  0  0
 25 24  1  0  0  0  0
M  END
>  <minimizedAffinity>
-5.30853605

$$$$

 OpenBabel03252508523D

 25 27  0  0  0  0  0  0  0  0999 V2000
   37.4160   28.4740   39.4250 C   0  0  0  0  0  0  0  0  0  0  0  0
   36.7870   29.5290   38.7740 C   0  0  0  0  0  0  0  0  0  0  0  0
   35.9890   29.2240   37.6660 C   0  0  0  0  0  0  0  0  0  0  0  0
   35.8750   27.9220   37.2910 N   0  0  0  0  0  0  0  0  0  0  0  0
   36.5040   26.9300   37.9510 C   0  0  0  0  0  0  0  0  0  0  0  0
   37.2790   27.2120   39.0250 N   0  0  0  0  0  0  0  0  0  0  0  0
   35.4810   30.0350   37.1350 H   0  0  0  0  0  0  0  0  0  0  0  0
   36.4050   25.9000   37.6400 H   0  0  0  0  0  0  0  0  0  0  0  0
   36.9680   30.9000   39.2530 C   0  0  0  0  0  0  0  0  0  0  0  0
   37.7000   31.8470   38.5750 C   0  0  0  0  0  0  0  0  0  0  0  0
   37.6080   32.9670   39.3660 C   0  0  0  0  0  0  0  0  0  0  0  0
   36.8580   32.7150   40.4740 N   0  0  0  0  0  0  0  0  0  0  0  0
   36.4890   31.4590   40.3740 N   0  0  0  0  0  0  0  0  0  0  0  0
   38.2050   31.7050   37.6520 H   0  0  0  0  0  0  0  0  0  0  0  0
   38.0560   33.9350   39.1720 H   0  0  0  0  0  0  0  0  0  0  0  0
   36.6360   33.3900   41.2310 H   0  0  0  0  0  0  0  0  0  0  0  0
   38.2010   28.7710   40.5140 O   0  0  0  0  0  0  0  0  0  0  0  0
   37.9810   28.3950   41.8080 C   0  0  0  0  0  0  0  0  0  0  0  0
   37.3290   29.0260   42.7040 O   0  0  0  0  0  0  0  0  0  0  0  0
   38.3700   27.1990   42.6480 C   0  0  0  0  0  3  0  0  0  0  0  0
   39.8630   26.9980   42.6070 C   0  0  0  0  0  2  0  0  0  0  0  0
   40.1690   25.9670   43.6780 C   0  0  0  0  0  2  0  0  0  0  0  0
   39.6230   24.6400   43.2220 C   0  0  0  0  0  2  0  0  0  0  0  0
   38.5380   24.7240   42.2030 C   0  0  0  0  0  2  0  0  0  0  0  0
   37.6770   25.9450   42.2740 C   0  0  0  0  0  2  0  0  0  0  0  0
  1 17  1  0  0  0  0
  2  9  1  0  0  0  0
  2  1  2  0  0  0  0
  3  2  1  0  0  0  0
  4  3  2  0  0  0  0
  4  5  1  0  0  0  0
  5  6  2  0  0  0  0
  6  1  1  0  0  0  0
  7  3  1  0  0  0  0
  8  5  1  0  0  0  0
  9 13  2  0  0  0  0
 10  9  1  0  0  0  0
 10 11  2  0  0  0  0
 11 12  1  0  0  0  0
 12 16  1  0  0  0  0
 13 12  1  0  0  0  0
 14 10  1  0  0  0  0
 15 11  1  0  0  0  0
 17 18  1  0  0  0  0
 18 20  1  0  0  0  0
 18 19  2  0  0  0  0
 21 20  1  0  0  0  0
 21 22  1  0  0  0  0
 23 22  1  0  0  0  0
 24 25  1  0  0  0  0
 24 23  1  0  0  0  0
 25 20  1  0  0  0  0
M  END
>  <minimizedAffinity>
-5.14452028

$$$$

 OpenBabel03252508523D

 25 27  0  0  0  0  0  0  0  0999 V2000
   36.8980   25.9160   40.4000 C   0  0  0  0  0  0  0  0  0  0  0  0
   37.6130   26.0260   41.5870 C   0  0  0  0  0  0  0  0  0  0  0  0
   38.3270   24.9050   42.0210 C   0  0  0  0  0  0  0  0  0  0  0  0
   38.2820   23.7770   41.2630 N   0  0  0  0  0  0  0  0  0  0  0  0
   37.5750   23.7130   40.1180 C   0  0  0  0  0  0  0  0  0  0  0  0
   36.8790   24.7910   39.6870 N   0  0  0  0  0  0  0  0  0  0  0  0
   38.9000   24.9630   42.9520 H   0  0  0  0  0  0  0  0  0  0  0  0
   37.5480   22.8090   39.5270 H   0  0  0  0  0  0  0  0  0  0  0  0
   37.6030   27.2840   42.3350 C   0  0  0  0  0  0  0  0  0  0  0  0
   38.6030   28.2240   42.2480 C   0  0  0  0  0  0  0  0  0  0  0  0
   38.1960   29.2230   43.0990 C   0  0  0  0  0  0  0  0  0  0  0  0
   37.0050   28.9070   43.6790 N   0  0  0  0  0  0  0  0  0  0  0  0
   36.6760   27.7310   43.1960 N   0  0  0  0  0  0  0  0  0  0  0  0
   39.4750   28.1560   41.6470 H   0  0  0  0  0  0  0  0  0  0  0  0
   38.7200   30.1490   43.3090 H   0  0  0  0  0  0  0  0  0  0  0  0
   36.4800   29.4890   44.3600 H   0  0  0  0  0  0  0  0  0  0  0  0
   36.1940   27.0160   39.9710 O   0  0  0  0  0  0  0  0  0  0  0  0
   36.6160   27.9600   39.0790 C   0  0  0  0  0  0  0  0  0  0  0  0
   37.2860   27.7790   38.0100 O   0  0  0  0  0  0  0  0  0  0  0  0
   36.4850   29.4630   38.9820 C   0  0  0  0  0  3  0  0  0  0  0  0
   37.8280   30.0850   38.6960 C   0  0  0  0  0  2  0  0  0  0  0  0
   37.5440   31.5360   38.3510 C   0  0  0  0  0  2  0  0  0  0  0  0
   37.0930   32.2370   39.6050 C   0  0  0  0  0  2  0  0  0  0  0  0
   36.5470   31.3400   40.6630 C   0  0  0  0  0  2  0  0  0  0  0  0
   35.8750   30.0960   40.1740 C   0  0  0  0  0  2  0  0  0  0  0  0
  1  2  1  0  0  0  0
  2  3  2  0  0  0  0
  2  9  1  0  0  0  0
  3  7  1  0  0  0  0
  4  3  1  0  0  0  0
  5  4  2  0  0  0  0
  6  5  1  0  0  0  0
  6  1  2  0  0  0  0
  8  5  1  0  0  0  0
  9 13  2  0  0  0  0
 10  9  1  0  0  0  0
 10 11  2  0  0  0  0
 11 15  1  0  0  0  0
 11 12  1  0  0  0  0
 12 16  1  0  0  0  0
 13 12  1  0  0  0  0
 14 10  1  0  0  0  0
 17  1  1  0  0  0  0
 18 17  1  0  0  0  0
 19 18  2  0  0  0  0
 20 18  1  0  0  0  0
 20 25  1  0  0  0  0
 21 20  1  0  0  0  0
 22 21  1  0  0  0  0
 22 23  1  0  0  0  0
 23 24  1  0  0  0  0
 25 24  1  0  0  0  0
M  END
>  <minimizedAffinity>
-5.11091423

$$$$

 OpenBabel03252508523D

 25 27  0  0  0  0  0  0  0  0999 V2000
   38.9740   29.8270   39.0470 C   0  0  0  0  0  0  0  0  0  0  0  0
   38.3500   30.9330   38.4800 C   0  0  0  0  0  0  0  0  0  0  0  0
   37.5200   30.7150   37.3760 C   0  0  0  0  0  0  0  0  0  0  0  0
   37.3700   29.4430   36.9220 N   0  0  0  0  0  0  0  0  0  0  0  0
   37.9930   28.3990   37.5020 C   0  0  0  0  0  0  0  0  0  0  0  0
   38.8000   28.5960   38.5720 N   0  0  0  0  0  0  0  0  0  0  0  0
   37.0170   31.5680   36.9100 H   0  0  0  0  0  0  0  0  0  0  0  0
   37.8640   27.3920   37.1290 H   0  0  0  0  0  0  0  0  0  0  0  0
   38.5730   32.2680   39.0400 C   0  0  0  0  0  0  0  0  0  0  0  0
   37.6050   32.9770   39.7120 C   0  0  0  0  0  0  0  0  0  0  0  0
   38.2310   34.1500   40.0550 C   0  0  0  0  0  0  0  0  0  0  0  0
   39.5180   34.1590   39.6120 N   0  0  0  0  0  0  0  0  0  0  0  0
   39.6910   33.0080   39.0030 N   0  0  0  0  0  0  0  0  0  0  0  0
   36.6120   32.6540   39.9030 H   0  0  0  0  0  0  0  0  0  0  0  0
   37.7960   34.9810   40.6010 H   0  0  0  0  0  0  0  0  0  0  0  0
   40.2060   34.9260   39.7390 H   0  0  0  0  0  0  0  0  0  0  0  0
   39.7910   30.0390   40.1320 O   0  0  0  0  0  0  0  0  0  0  0  0
   39.4020   30.1910   41.4320 C   0  0  0  0  0  0  0  0  0  0  0  0
   39.7560   31.1010   42.2510 O   0  0  0  0  0  0  0  0  0  0  0  0
   38.4820   29.4310   42.3620 C   0  0  0  0  0  3  0  0  0  0  0  0
   38.9730   28.0170   42.5380 C   0  0  0  0  0  2  0  0  0  0  0  0
   38.1580   27.4380   43.6790 C   0  0  0  0  0  2  0  0  0  0  0  0
   36.7400   27.2600   43.2000 C   0  0  0  0  0  2  0  0  0  0  0  0
   36.3610   28.1110   42.0360 C   0  0  0  0  0  2  0  0  0  0  0  0
   37.0630   29.4280   41.9410 C   0  0  0  0  0  2  0  0  0  0  0  0
  1 17  1  0  0  0  0
  2  9  1  0  0  0  0
  2  1  2  0  0  0  0
  3  2  1  0  0  0  0
  4  3  2  0  0  0  0
  4  5  1  0  0  0  0
  5  6  2  0  0  0  0
  6  1  1  0  0  0  0
  7  3  1  0  0  0  0
  8  5  1  0  0  0  0
  9 10  1  0  0  0  0
 10 14  1  0  0  0  0
 10 11  2  0  0  0  0
 11 15  1  0  0  0  0
 12 16  1  0  0  0  0
 12 11  1  0  0  0  0
 13  9  2  0  0  0  0
 13 12  1  0  0  0  0
 17 18  1  0  0  0  0
 18 19  2  0  0  0  0
 18 20  1  0  0  0  0
 20 21  1  0  0  0  0
 21 22  1  0  0  0  0
 23 22  1  0  0  0  0
 24 23  1  0  0  0  0
 25 24  1  0  0  0  0
 25 20  1  0  0  0  0
M  END
>  <minimizedAffinity>
-5.08123779

$$$$

 OpenBabel03252508523D

 25 27  0  0  0  0  0  0  0  0999 V2000
   39.1900   28.1190   41.2850 C   0  0  0  0  0  0  0  0  0  0  0  0
   37.9910   28.2240   41.9810 C   0  0  0  0  0  0  0  0  0  0  0  0
   37.9020   27.5880   43.2230 C   0  0  0  0  0  0  0  0  0  0  0  0
   38.9870   26.9070   43.6780 N   0  0  0  0  0  0  0  0  0  0  0  0
   40.1310   26.8290   42.9700 C   0  0  0  0  0  0  0  0  0  0  0  0
   40.2300   27.4400   41.7670 N   0  0  0  0  0  0  0  0  0  0  0  0
   36.9700   27.6550   43.7930 H   0  0  0  0  0  0  0  0  0  0  0  0
   40.9850   26.2820   43.3450 H   0  0  0  0  0  0  0  0  0  0  0  0
   36.8750   28.9820   41.4100 C   0  0  0  0  0  0  0  0  0  0  0  0
   36.0320   28.4770   40.4480 C   0  0  0  0  0  0  0  0  0  0  0  0
   35.1510   29.5030   40.2070 C   0  0  0  0  0  0  0  0  0  0  0  0
   35.4440   30.5840   40.9820 N   0  0  0  0  0  0  0  0  0  0  0  0
   36.4900   30.2350   41.6950 N   0  0  0  0  0  0  0  0  0  0  0  0
   36.0820   27.5080   40.0180 H   0  0  0  0  0  0  0  0  0  0  0  0
   34.3240   29.4960   39.5050 H   0  0  0  0  0  0  0  0  0  0  0  0
   34.9340   31.4880   40.9930 H   0  0  0  0  0  0  0  0  0  0  0  0
   39.2790   28.7430   40.0640 O   0  0  0  0  0  0  0  0  0  0  0  0
   39.9580   29.8930   39.7800 C   0  0  0  0  0  0  0  0  0  0  0  0
   41.2150   30.0390   39.6240 O   0  0  0  0  0  0  0  0  0  0  0  0
   39.5590   31.3330   39.5510 C   0  0  0  0  0  3  0  0  0  0  0  0
   39.2640   32.0070   40.8660 C   0  0  0  0  0  2  0  0  0  0  0  0
   39.1460   33.4870   40.5530 C   0  0  0  0  0  2  0  0  0  0  0  0
   37.8830   33.7000   39.7590 C   0  0  0  0  0  2  0  0  0  0  0  0
   37.3740   32.4890   39.0540 C   0  0  0  0  0  2  0  0  0  0  0  0
   38.4160   31.5050   38.6240 C   0  0  0  0  0  2  0  0  0  0  0  0
  1  6  2  0  0  0  0
  1  2  1  0  0  0  0
  2  3  2  0  0  0  0
  3  4  1  0  0  0  0
  3  7  1  0  0  0  0
  5  8  1  0  0  0  0
  5  4  2  0  0  0  0
  6  5  1  0  0  0  0
  9 13  2  0  0  0  0
  9  2  1  0  0  0  0
 10  9  1  0  0  0  0
 11 10  2  0  0  0  0
 11 12  1  0  0  0  0
 12 16  1  0  0  0  0
 12 13  1  0  0  0  0
 14 10  1  0  0  0  0
 15 11  1  0  0  0  0
 17  1  1  0  0  0  0
 18 17  1  0  0  0  0
 19 18  2  0  0  0  0
 20 18  1  0  0  0  0
 20 21  1  0  0  0  0
 22 21  1  0  0  0  0
 23 22  1  0  0  0  0
 24 23  1  0  0  0  0
 25 24  1  0  0  0  0
 25 20  1  0  0  0  0
M  END
>  <minimizedAffinity>
-5.03944254

$$$$

 OpenBabel03252508523D

 25 27  0  0  0  0  0  0  0  0999 V2000
   37.8970   28.5870   37.8740 C   0  0  0  0  0  0  0  0  0  0  0  0
   36.7470   29.3600   37.9910 C   0  0  0  0  0  0  0  0  0  0  0  0
   35.8470   29.3510   36.9200 C   0  0  0  0  0  0  0  0  0  0  0  0
   36.1450   28.5910   35.8330 N   0  0  0  0  0  0  0  0  0  0  0  0
   37.2720   27.8560   35.7610 C   0  0  0  0  0  0  0  0  0  0  0  0
   38.1510   27.8570   36.7900 N   0  0  0  0  0  0  0  0  0  0  0  0
   34.9330   29.9500   36.9850 H   0  0  0  0  0  0  0  0  0  0  0  0
   37.4950   27.2580   34.8890 H   0  0  0  0  0  0  0  0  0  0  0  0
   36.5110   30.1460   39.2030 C   0  0  0  0  0  0  0  0  0  0  0  0
   37.2260   31.2770   39.5220 C   0  0  0  0  0  0  0  0  0  0  0  0
   36.6860   31.6850   40.7170 C   0  0  0  0  0  0  0  0  0  0  0  0
   35.6900   30.8440   41.1100 N   0  0  0  0  0  0  0  0  0  0  0  0
   35.6120   29.9270   40.1740 N   0  0  0  0  0  0  0  0  0  0  0  0
   38.0100   31.7050   38.9470 H   0  0  0  0  0  0  0  0  0  0  0  0
   36.9830   32.5510   41.3000 H   0  0  0  0  0  0  0  0  0  0  0  0
   35.1220   30.9270   41.9750 H   0  0  0  0  0  0  0  0  0  0  0  0
   38.7830   28.5950   38.9250 O   0  0  0  0  0  0  0  0  0  0  0  0
   38.9820   27.5960   39.8340 C   0  0  0  0  0  0  0  0  0  0  0  0
   39.6200   26.5050   39.6680 O   0  0  0  0  0  0  0  0  0  0  0  0
   38.5800   27.3760   41.2750 C   0  0  0  0  0  3  0  0  0  0  0  0
   37.1320   26.9630   41.3530 C   0  0  0  0  0  2  0  0  0  0  0  0
   36.9110   26.5090   42.7840 C   0  0  0  0  0  2  0  0  0  0  0  0
   36.9790   27.7200   43.6770 C   0  0  0  0  0  2  0  0  0  0  0  0
   37.7180   28.8810   43.1040 C   0  0  0  0  0  2  0  0  0  0  0  0
   38.8250   28.5400   42.1580 C   0  0  0  0  0  2  0  0  0  0  0  0
  1  2  1  0  0  0  0
  1 17  1  0  0  0  0
  2  9  1  0  0  0  0
  3  7  1  0  0  0  0
  3  2  2  0  0  0  0
  4  3  1  0  0  0  0
  5  4  2  0  0  0  0
  5  6  1  0  0  0  0
  6  1  2  0  0  0  0
  8  5  1  0  0  0  0
  9 10  1  0  0  0  0
  9 13  2  0  0  0  0
 10 11  2  0  0  0  0
 11 12  1  0  0  0  0
 11 15  1  0  0  0  0
 12 16  1  0  0  0  0
 13 12  1  0  0  0  0
 14 10  1  0  0  0  0
 17 18  1  0  0  0  0
 18 20  1  0  0  0  0
 19 18  2  0  0  0  0
 20 21  1  0  0  0  0
 20 25  1  0  0  0  0
 21 22  1  0  0  0  0
 22 23  1  0  0  0  0
 24 23  1  0  0  0  0
 25 24  1  0  0  0  0
M  END
>  <minimizedAffinity>
-5.00186062

$$$$

 OpenBabel03252508523D

 25 27  0  0  0  0  0  0  0  0999 V2000
   36.8940   30.4700   40.1470 C   0  0  0  0  0  0  0  0  0  0  0  0
   37.1560   30.2330   38.8030 C   0  0  0  0  0  0  0  0  0  0  0  0
   36.2630   29.4170   38.1010 C   0  0  0  0  0  0  0  0  0  0  0  0
   35.1960   28.9040   38.7690 N   0  0  0  0  0  0  0  0  0  0  0  0
   34.9790   29.1590   40.0740 C   0  0  0  0  0  0  0  0  0  0  0  0
   35.8350   29.9480   40.7650 N   0  0  0  0  0  0  0  0  0  0  0  0
   36.4450   29.2130   37.0410 H   0  0  0  0  0  0  0  0  0  0  0  0
   34.1260   28.7440   40.5910 H   0  0  0  0  0  0  0  0  0  0  0  0
   38.3330   30.8300   38.1690 C   0  0  0  0  0  0  0  0  0  0  0  0
   39.5890   30.2730   38.2280 C   0  0  0  0  0  0  0  0  0  0  0  0
   40.3740   31.1440   37.5130 C   0  0  0  0  0  0  0  0  0  0  0  0
   39.6340   32.1850   37.0420 N   0  0  0  0  0  0  0  0  0  0  0  0
   38.4070   31.9640   37.4560 N   0  0  0  0  0  0  0  0  0  0  0  0
   39.8500   29.3700   38.7230 H   0  0  0  0  0  0  0  0  0  0  0  0
   41.4380   31.0540   37.3280 H   0  0  0  0  0  0  0  0  0  0  0  0
   39.9840   32.9800   36.4740 H   0  0  0  0  0  0  0  0  0  0  0  0
   37.7700   31.2710   40.8400 O   0  0  0  0  0  0  0  0  0  0  0  0
   38.7920   30.8600   41.6460 C   0  0  0  0  0  0  0  0  0  0  0  0
   39.8600   31.4930   41.9360 O   0  0  0  0  0  0  0  0  0  0  0  0
   39.0700   29.6150   42.4570 C   0  0  0  0  0  3  0  0  0  0  0  0
   39.4050   28.4630   41.5440 C   0  0  0  0  0  2  0  0  0  0  0  0
   39.9260   27.3600   42.4470 C   0  0  0  0  0  2  0  0  0  0  0  0
   38.7720   26.8380   43.2630 C   0  0  0  0  0  2  0  0  0  0  0  0
   37.6250   27.7780   43.4010 C   0  0  0  0  0  2  0  0  0  0  0  0
   37.9740   29.2330   43.3760 C   0  0  0  0  0  2  0  0  0  0  0  0
  1  6  1  0  0  0  0
  1 17  1  0  0  0  0
  2  1  2  0  0  0  0
  3  4  2  0  0  0  0
  3  2  1  0  0  0  0
  4  5  1  0  0  0  0
  5  8  1  0  0  0  0
  5  6  2  0  0  0  0
  7  3  1  0  0  0  0
  9 10  1  0  0  0  0
  9  2  1  0  0  0  0
 10 14  1  0  0  0  0
 11 10  2  0  0  0  0
 12 13  1  0  0  0  0
 12 11  1  0  0  0  0
 13  9  2  0  0  0  0
 15 11  1  0  0  0  0
 16 12  1  0  0  0  0
 17 18  1  0  0  0  0
 18 19  2  0  0  0  0
 18 20  1  0  0  0  0
 20 25  1  0  0  0  0
 21 22  1  0  0  0  0
 21 20  1  0  0  0  0
 22 23  1  0  0  0  0
 23 24  1  0  0  0  0
 25 24  1  0  0  0  0
M  END
>  <minimizedAffinity>
-5.00056267

$$$$

 OpenBabel03252508523D

 25 27  0  0  0  0  0  0  0  0999 V2000
   37.9240   29.9490   38.8180 C   0  0  0  0  0  0  0  0  0  0  0  0
   37.6560   30.7350   39.9330 C   0  0  0  0  0  0  0  0  0  0  0  0
   37.3490   32.0830   39.7200 C   0  0  0  0  0  0  0  0  0  0  0  0
   37.3300   32.5460   38.4410 N   0  0  0  0  0  0  0  0  0  0  0  0
   37.5970   31.7490   37.3880 C   0  0  0  0  0  0  0  0  0  0  0  0
   37.8960   30.4430   37.5820 N   0  0  0  0  0  0  0  0  0  0  0  0
   37.1330   32.7240   40.5800 H   0  0  0  0  0  0  0  0  0  0  0  0
   37.5800   32.1320   36.3780 H   0  0  0  0  0  0  0  0  0  0  0  0
   37.6990   30.1460   41.2730 C   0  0  0  0  0  0  0  0  0  0  0  0
   38.8580   30.0000   41.9980 C   0  0  0  0  0  0  0  0  0  0  0  0
   38.4460   29.4160   43.1710 C   0  0  0  0  0  0  0  0  0  0  0  0
   37.1000   29.2140   43.1630 N   0  0  0  0  0  0  0  0  0  0  0  0
   36.6810   29.6660   42.0030 N   0  0  0  0  0  0  0  0  0  0  0  0
   39.8320   30.2880   41.6860 H   0  0  0  0  0  0  0  0  0  0  0  0
   39.0720   29.1380   44.0110 H   0  0  0  0  0  0  0  0  0  0  0  0
   36.5380   28.7890   43.9250 H   0  0  0  0  0  0  0  0  0  0  0  0
   38.2270   28.6250   39.0260 O   0  0  0  0  0  0  0  0  0  0  0  0
   37.3580   27.5720   38.9950 C   0  0  0  0  0  0  0  0  0  0  0  0
   36.7270   27.1100   37.9880 O   0  0  0  0  0  0  0  0  0  0  0  0
   36.8250   26.6040   40.0270 C   0  0  0  0  0  3  0  0  0  0  0  0
   37.8620   26.3550   41.0920 C   0  0  0  0  0  2  0  0  0  0  0  0
   37.1440   25.6060   42.1990 C   0  0  0  0  0  2  0  0  0  0  0  0
   36.8190   24.2230   41.6950 C   0  0  0  0  0  2  0  0  0  0  0  0
   36.7740   24.0910   40.2120 C   0  0  0  0  0  2  0  0  0  0  0  0
   36.3550   25.3170   39.4650 C   0  0  0  0  0  2  0  0  0  0  0  0
  1 17  1  0  0  0  0
  1  2  1  0  0  0  0
  2  9  1  0  0  0  0
  3  2  2  0  0  0  0
  3  7  1  0  0  0  0
  4  3  1  0  0  0  0
  5  6  1  0  0  0  0
  5  4  2  0  0  0  0
  6  1  2  0  0  0  0
  8  5  1  0  0  0  0
  9 10  1  0  0  0  0
  9 13  2  0  0  0  0
 10 11  2  0  0  0  0
 11 15  1  0  0  0  0
 12 11  1  0  0  0  0
 12 16  1  0  0  0  0
 13 12  1  0  0  0  0
 14 10  1  0  0  0  0
 18 17  1  0  0  0  0
 18 20  1  0  0  0  0
 19 18  2  0  0  0  0
 20 21  1  0  0  0  0
 21 22  1  0  0  0  0
 23 22  1  0  0  0  0
 24 23  1  0  0  0  0
 25 20  1  0  0  0  0
 25 24  1  0  0  0  0
M  END
>  <minimizedAffinity>
-4.93593645

$$$$
