
 OpenBabel03242515243D

 18 19  0  0  0  0  0  0  0  0999 V2000
   37.5550   29.7660   41.9050 C   0  0  0  0  0  0  0  0  0  0  0  0
   36.5960   28.7400   41.8300 C   0  0  0  0  0  0  0  0  0  0  0  0
   35.6060   28.8470   40.8640 C   0  0  0  0  0  0  0  0  0  0  0  0
   35.6150   29.9240   40.0490 N   0  0  0  0  0  0  0  0  0  0  0  0
   36.5480   30.8940   40.1440 C   0  0  0  0  0  0  0  0  0  0  0  0
   37.5290   30.8250   41.0740 N   0  0  0  0  0  0  0  0  0  0  0  0
   38.3480   29.7400   42.6360 H   0  0  0  0  0  0  0  0  0  0  0  0
   34.8880   28.0430   40.8350 H   0  0  0  0  0  0  0  0  0  0  0  0
   36.3870   31.6740   39.4040 H   0  0  0  0  0  0  0  0  0  0  0  0
   36.7560   27.6470   42.8080 C   0  0  0  0  0  0  0  0  0  0  0  0
   35.8140   27.0400   42.8270 H   0  0  0  0  0  0  0  0  0  0  0  0
   36.8140   28.0850   43.8350 H   0  0  0  0  0  0  0  0  0  0  0  0
   37.9380   26.7470   42.5270 C   0  0  0  0  0  3  0  0  0  0  0  0
   38.9140   26.8030   43.6800 C   0  0  0  0  0  2  0  0  0  0  0  0
   40.1200   26.0040   43.2170 C   0  0  0  0  0  2  0  0  0  0  0  0
   39.7040   24.5860   43.0660 C   0  0  0  0  0  2  0  0  0  0  0  0
   38.5150   24.3170   42.2250 C   0  0  0  0  0  2  0  0  0  0  0  0
   37.4460   25.3620   42.2510 C   0  0  0  0  0  2  0  0  0  0  0  0
  1  7  1  0  0  0  0
  2  1  1  0  0  0  0
  2 10  1  0  0  0  0
  3  2  2  0  0  0  0
  4  5  2  0  0  0  0
  4  3  1  0  0  0  0
  5  6  1  0  0  0  0
  6  1  2  0  0  0  0
  8  3  1  0  0  0  0
  9  5  1  0  0  0  0
 10 11  1  0  0  0  0
 10 12  1  0  0  0  0
 13 10  1  0  0  0  0
 13 14  1  0  0  0  0
 15 14  1  0  0  0  0
 16 15  1  0  0  0  0
 17 18  1  0  0  0  0
 17 16  1  0  0  0  0
 18 13  1  0  0  0  0
M  END
>  <minimizedAffinity>
-4.43615961

$$$$

 OpenBabel03242515243D

 18 19  0  0  0  0  0  0  0  0999 V2000
   36.7020   29.9180   41.7610 C   0  0  0  0  0  0  0  0  0  0  0  0
   37.8960   29.6120   42.4380 C   0  0  0  0  0  0  0  0  0  0  0  0
   39.0040   30.4080   42.1890 C   0  0  0  0  0  0  0  0  0  0  0  0
   38.8790   31.4320   41.3170 N   0  0  0  0  0  0  0  0  0  0  0  0
   37.7200   31.7030   40.6830 C   0  0  0  0  0  0  0  0  0  0  0  0
   36.6180   30.9480   40.8980 N   0  0  0  0  0  0  0  0  0  0  0  0
   35.8060   29.3340   41.9120 H   0  0  0  0  0  0  0  0  0  0  0  0
   39.9020   30.1450   42.7250 H   0  0  0  0  0  0  0  0  0  0  0  0
   37.8190   32.5610   40.0240 H   0  0  0  0  0  0  0  0  0  0  0  0
   37.8310   28.4540   43.3500 C   0  0  0  0  0  0  0  0  0  0  0  0
   36.7660   28.3070   43.6680 H   0  0  0  0  0  0  0  0  0  0  0  0
   38.3610   28.7100   44.3010 H   0  0  0  0  0  0  0  0  0  0  0  0
   38.3670   27.1750   42.7510 C   0  0  0  0  0  3  0  0  0  0  0  0
   39.4010   26.5680   43.6700 C   0  0  0  0  0  2  0  0  0  0  0  0
   39.9800   25.3960   42.8960 C   0  0  0  0  0  2  0  0  0  0  0  0
   38.9080   24.3840   42.7180 C   0  0  0  0  0  2  0  0  0  0  0  0
   37.6320   24.8500   42.1280 C   0  0  0  0  0  2  0  0  0  0  0  0
   37.2270   26.2480   42.4690 C   0  0  0  0  0  2  0  0  0  0  0  0
  1  7  1  0  0  0  0
  1  2  1  0  0  0  0
  2 10  1  0  0  0  0
  3  2  2  0  0  0  0
  3  8  1  0  0  0  0
  4  3  1  0  0  0  0
  5  6  1  0  0  0  0
  5  4  2  0  0  0  0
  6  1  2  0  0  0  0
  9  5  1  0  0  0  0
 10 11  1  0  0  0  0
 10 12  1  0  0  0  0
 13 10  1  0  0  0  0
 13 14  1  0  0  0  0
 15 14  1  0  0  0  0
 16 15  1  0  0  0  0
 17 18  1  0  0  0  0
 17 16  1  0  0  0  0
 18 13  1  0  0  0  0
M  END
>  <minimizedAffinity>
-4.30053186

$$$$

 OpenBabel03242515243D

 18 19  0  0  0  0  0  0  0  0999 V2000
   36.8560   30.0770   39.0100 C   0  0  0  0  0  0  0  0  0  0  0  0
   36.8370   30.9010   40.1490 C   0  0  0  0  0  0  0  0  0  0  0  0
   37.1750   32.2360   39.9880 C   0  0  0  0  0  0  0  0  0  0  0  0
   37.5030   32.6740   38.7530 N   0  0  0  0  0  0  0  0  0  0  0  0
   37.5120   31.8590   37.6770 C   0  0  0  0  0  0  0  0  0  0  0  0
   37.1890   30.5510   37.7940 N   0  0  0  0  0  0  0  0  0  0  0  0
   36.6030   29.0290   39.0710 H   0  0  0  0  0  0  0  0  0  0  0  0
   37.1500   32.8390   40.8820 H   0  0  0  0  0  0  0  0  0  0  0  0
   37.8020   32.3950   36.7770 H   0  0  0  0  0  0  0  0  0  0  0  0
   36.4520   30.2360   41.4080 C   0  0  0  0  0  0  0  0  0  0  0  0
   35.3960   29.8730   41.3150 H   0  0  0  0  0  0  0  0  0  0  0  0
   36.4010   31.0010   42.2220 H   0  0  0  0  0  0  0  0  0  0  0  0
   37.3560   29.0870   41.7910 C   0  0  0  0  0  3  0  0  0  0  0  0
   38.3430   29.5350   42.8430 C   0  0  0  0  0  2  0  0  0  0  0  0
   39.2910   28.3620   43.0220 C   0  0  0  0  0  2  0  0  0  0  0  0
   38.5220   27.2300   43.6000 C   0  0  0  0  0  2  0  0  0  0  0  0
   37.2830   26.8270   42.8970 C   0  0  0  0  0  2  0  0  0  0  0  0
   36.5180   27.9300   42.2370 C   0  0  0  0  0  2  0  0  0  0  0  0
  1  7  1  0  0  0  0
  1  2  1  0  0  0  0
  2 10  1  0  0  0  0
  3  2  2  0  0  0  0
  3  8  1  0  0  0  0
  4  3  1  0  0  0  0
  5  6  1  0  0  0  0
  5  4  2  0  0  0  0
  6  1  2  0  0  0  0
  9  5  1  0  0  0  0
 10 13  1  0  0  0  0
 10 12  1  0  0  0  0
 11 10  1  0  0  0  0
 13 18  1  0  0  0  0
 13 14  1  0  0  0  0
 14 15  1  0  0  0  0
 15 16  1  0  0  0  0
 17 16  1  0  0  0  0
 18 17  1  0  0  0  0
M  END
>  <minimizedAffinity>
-4.25825691

$$$$

 OpenBabel03242515243D

 18 19  0  0  0  0  0  0  0  0999 V2000
   37.4960   25.4030   42.2110 C   0  0  0  0  0  0  0  0  0  0  0  0
   37.7280   26.6410   42.8360 C   0  0  0  0  0  0  0  0  0  0  0  0
   38.9160   26.8030   43.5320 C   0  0  0  0  0  0  0  0  0  0  0  0
   39.7850   25.7700   43.5730 N   0  0  0  0  0  0  0  0  0  0  0  0
   39.5360   24.5930   42.9630 C   0  0  0  0  0  0  0  0  0  0  0  0
   38.3880   24.3960   42.2760 N   0  0  0  0  0  0  0  0  0  0  0  0
   36.5890   25.2160   41.6560 H   0  0  0  0  0  0  0  0  0  0  0  0
   39.0610   27.7650   43.9980 H   0  0  0  0  0  0  0  0  0  0  0  0
   40.3520   23.8890   43.1100 H   0  0  0  0  0  0  0  0  0  0  0  0
   36.6570   27.6440   42.6760 C   0  0  0  0  0  0  0  0  0  0  0  0
   36.5850   28.2460   43.6200 H   0  0  0  0  0  0  0  0  0  0  0  0
   35.6730   27.1180   42.6180 H   0  0  0  0  0  0  0  0  0  0  0  0
   36.8580   28.5670   41.4970 C   0  0  0  0  0  3  0  0  0  0  0  0
   35.5320   28.8470   40.8290 C   0  0  0  0  0  2  0  0  0  0  0  0
   35.8770   29.6360   39.5780 C   0  0  0  0  0  2  0  0  0  0  0  0
   36.4400   30.9450   39.9970 C   0  0  0  0  0  2  0  0  0  0  0  0
   37.5700   30.9190   40.9540 C   0  0  0  0  0  2  0  0  0  0  0  0
   37.5500   29.8110   41.9570 C   0  0  0  0  0  2  0  0  0  0  0  0
  1  6  2  0  0  0  0
  1  2  1  0  0  0  0
  2  3  2  0  0  0  0
  3  4  1  0  0  0  0
  3  8  1  0  0  0  0
  5  9  1  0  0  0  0
  5  4  2  0  0  0  0
  6  5  1  0  0  0  0
  7  1  1  0  0  0  0
 10  2  1  0  0  0  0
 10 11  1  0  0  0  0
 12 10  1  0  0  0  0
 13 18  1  0  0  0  0
 13 10  1  0  0  0  0
 14 13  1  0  0  0  0
 15 16  1  0  0  0  0
 15 14  1  0  0  0  0
 16 17  1  0  0  0  0
 17 18  1  0  0  0  0
M  END
>  <minimizedAffinity>
-4.25080109

$$$$

 OpenBabel03242515243D

 18 19  0  0  0  0  0  0  0  0999 V2000
   36.5180   30.2490   38.6350 C   0  0  0  0  0  0  0  0  0  0  0  0
   36.2810   30.2500   40.0210 C   0  0  0  0  0  0  0  0  0  0  0  0
   36.6510   31.3760   40.7410 C   0  0  0  0  0  0  0  0  0  0  0  0
   37.2150   32.4090   40.0770 N   0  0  0  0  0  0  0  0  0  0  0  0
   37.4290   32.3800   38.7460 C   0  0  0  0  0  0  0  0  0  0  0  0
   37.0830   31.2990   38.0100 N   0  0  0  0  0  0  0  0  0  0  0  0
   36.2530   29.4010   38.0210 H   0  0  0  0  0  0  0  0  0  0  0  0
   36.4550   31.3420   41.8010 H   0  0  0  0  0  0  0  0  0  0  0  0
   37.8900   33.3010   38.3980 H   0  0  0  0  0  0  0  0  0  0  0  0
   35.6560   29.0260   40.5600 C   0  0  0  0  0  0  0  0  0  0  0  0
   34.9920   28.5860   39.7730 H   0  0  0  0  0  0  0  0  0  0  0  0
   34.9500   29.3100   41.3790 H   0  0  0  0  0  0  0  0  0  0  0  0
   36.6510   27.9890   41.0280 C   0  0  0  0  0  3  0  0  0  0  0  0
   36.4310   27.6860   42.4920 C   0  0  0  0  0  2  0  0  0  0  0  0
   37.5780   26.7710   42.8840 C   0  0  0  0  0  2  0  0  0  0  0  0
   37.4220   25.4920   42.1460 C   0  0  0  0  0  2  0  0  0  0  0  0
   37.2690   25.5760   40.6750 C   0  0  0  0  0  2  0  0  0  0  0  0
   36.5390   26.7750   40.1620 C   0  0  0  0  0  2  0  0  0  0  0  0
  1  2  1  0  0  0  0
  2 10  1  0  0  0  0
  2  3  2  0  0  0  0
  3  8  1  0  0  0  0
  4  3  1  0  0  0  0
  5  4  2  0  0  0  0
  6  1  2  0  0  0  0
  6  5  1  0  0  0  0
  7  1  1  0  0  0  0
  9  5  1  0  0  0  0
 10 13  1  0  0  0  0
 10 12  1  0  0  0  0
 11 10  1  0  0  0  0
 13 14  1  0  0  0  0
 14 15  1  0  0  0  0
 16 15  1  0  0  0  0
 17 16  1  0  0  0  0
 18 17  1  0  0  0  0
 18 13  1  0  0  0  0
M  END
>  <minimizedAffinity>
-4.22626877

$$$$

 OpenBabel03242515243D

 18 19  0  0  0  0  0  0  0  0999 V2000
   36.8140   27.2800   40.8260 C   0  0  0  0  0  0  0  0  0  0  0  0
   36.5580   28.5720   41.3190 C   0  0  0  0  0  0  0  0  0  0  0  0
   37.3490   29.0370   42.3590 C   0  0  0  0  0  0  0  0  0  0  0  0
   38.3190   28.2300   42.8420 N   0  0  0  0  0  0  0  0  0  0  0  0
   38.5410   26.9950   42.3480 C   0  0  0  0  0  0  0  0  0  0  0  0
   37.7900   26.5060   41.3350 N   0  0  0  0  0  0  0  0  0  0  0  0
   36.2320   26.8630   40.0180 H   0  0  0  0  0  0  0  0  0  0  0  0
   37.1260   30.0320   42.7110 H   0  0  0  0  0  0  0  0  0  0  0  0
   39.3610   26.5020   42.8660 H   0  0  0  0  0  0  0  0  0  0  0  0
   35.4550   29.2980   40.6590 C   0  0  0  0  0  0  0  0  0  0  0  0
   34.8090   29.7620   41.4480 H   0  0  0  0  0  0  0  0  0  0  0  0
   34.7810   28.5580   40.1600 H   0  0  0  0  0  0  0  0  0  0  0  0
   35.9190   30.3590   39.6890 C   0  0  0  0  0  3  0  0  0  0  0  0
   36.8130   31.3510   40.3970 C   0  0  0  0  0  2  0  0  0  0  0  0
   37.0760   32.4460   39.3780 C   0  0  0  0  0  2  0  0  0  0  0  0
   37.8680   31.8620   38.2650 C   0  0  0  0  0  2  0  0  0  0  0  0
   37.3320   30.6380   37.6250 C   0  0  0  0  0  2  0  0  0  0  0  0
   36.5900   29.7020   38.5250 C   0  0  0  0  0  2  0  0  0  0  0  0
  1  2  2  0  0  0  0
  1  6  1  0  0  0  0
  2  3  1  0  0  0  0
  3  8  1  0  0  0  0
  3  4  2  0  0  0  0
  5  4  1  0  0  0  0
  5  9  1  0  0  0  0
  6  5  2  0  0  0  0
  7  1  1  0  0  0  0
 10  2  1  0  0  0  0
 10 11  1  0  0  0  0
 12 10  1  0  0  0  0
 13 14  1  0  0  0  0
 13 10  1  0  0  0  0
 15 14  1  0  0  0  0
 16 15  1  0  0  0  0
 17 16  1  0  0  0  0
 17 18  1  0  0  0  0
 18 13  1  0  0  0  0
M  END
>  <minimizedAffinity>
-4.06141806

$$$$

 OpenBabel03242515243D

 18 19  0  0  0  0  0  0  0  0999 V2000
   36.7770   31.1980   39.2050 C   0  0  0  0  0  0  0  0  0  0  0  0
   36.8760   29.8070   39.3880 C   0  0  0  0  0  0  0  0  0  0  0  0
   37.9360   29.1480   38.7840 C   0  0  0  0  0  0  0  0  0  0  0  0
   38.8140   29.8710   38.0560 N   0  0  0  0  0  0  0  0  0  0  0  0
   38.6950   31.2060   37.8990 C   0  0  0  0  0  0  0  0  0  0  0  0
   37.6740   31.8840   38.4710 N   0  0  0  0  0  0  0  0  0  0  0  0
   35.9740   31.7670   39.6490 H   0  0  0  0  0  0  0  0  0  0  0  0
   37.9800   28.0830   38.9450 H   0  0  0  0  0  0  0  0  0  0  0  0
   39.4950   31.6060   37.2820 H   0  0  0  0  0  0  0  0  0  0  0  0
   35.8180   29.1990   40.2170 C   0  0  0  0  0  0  0  0  0  0  0  0
   35.3170   28.3900   39.6240 H   0  0  0  0  0  0  0  0  0  0  0  0
   35.0070   29.9510   40.3810 H   0  0  0  0  0  0  0  0  0  0  0  0
   36.3180   28.6360   41.5270 C   0  0  0  0  0  3  0  0  0  0  0  0
   36.8830   27.2510   41.3120 C   0  0  0  0  0  2  0  0  0  0  0  0
   37.1960   26.7300   42.7030 C   0  0  0  0  0  2  0  0  0  0  0  0
   38.2860   27.5610   43.2750 C   0  0  0  0  0  2  0  0  0  0  0  0
   38.0860   29.0290   43.2740 C   0  0  0  0  0  2  0  0  0  0  0  0
   37.3140   29.5820   42.1200 C   0  0  0  0  0  2  0  0  0  0  0  0
  1  2  1  0  0  0  0
  1  7  1  0  0  0  0
  2 10  1  0  0  0  0
  3  8  1  0  0  0  0
  3  2  2  0  0  0  0
  4  3  1  0  0  0  0
  5  4  2  0  0  0  0
  5  6  1  0  0  0  0
  6  1  2  0  0  0  0
  9  5  1  0  0  0  0
 10 12  1  0  0  0  0
 10 13  1  0  0  0  0
 11 10  1  0  0  0  0
 13 18  1  0  0  0  0
 14 13  1  0  0  0  0
 14 15  1  0  0  0  0
 15 16  1  0  0  0  0
 17 16  1  0  0  0  0
 18 17  1  0  0  0  0
M  END
>  <minimizedAffinity>
-3.94231343

$$$$

 OpenBabel03242515243D

 18 19  0  0  0  0  0  0  0  0999 V2000
   37.7200   28.6700   40.3570 C   0  0  0  0  0  0  0  0  0  0  0  0
   37.5230   28.7960   41.7430 C   0  0  0  0  0  0  0  0  0  0  0  0
   38.1790   29.8270   42.4000 C   0  0  0  0  0  0  0  0  0  0  0  0
   38.9670   30.6520   41.6780 N   0  0  0  0  0  0  0  0  0  0  0  0
   39.1380   30.5070   40.3480 C   0  0  0  0  0  0  0  0  0  0  0  0
   38.5160   29.5130   39.6720 N   0  0  0  0  0  0  0  0  0  0  0  0
   37.2390   27.8870   39.7900 H   0  0  0  0  0  0  0  0  0  0  0  0
   38.0040   29.8940   43.4620 H   0  0  0  0  0  0  0  0  0  0  0  0
   39.8070   31.2650   39.9480 H   0  0  0  0  0  0  0  0  0  0  0  0
   36.6240   27.7960   42.3510 C   0  0  0  0  0  0  0  0  0  0  0  0
   35.7980   27.5700   41.6290 H   0  0  0  0  0  0  0  0  0  0  0  0
   36.0990   28.2610   43.2220 H   0  0  0  0  0  0  0  0  0  0  0  0
   37.3190   26.5150   42.7500 C   0  0  0  0  0  3  0  0  0  0  0  0
   37.2410   25.5130   41.6210 C   0  0  0  0  0  2  0  0  0  0  0  0
   37.8160   24.2280   42.1910 C   0  0  0  0  0  2  0  0  0  0  0  0
   39.2570   24.4520   42.4760 C   0  0  0  0  0  2  0  0  0  0  0  0
   39.6050   25.6240   43.3120 C   0  0  0  0  0  2  0  0  0  0  0  0
   38.7260   26.8230   43.1530 C   0  0  0  0  0  2  0  0  0  0  0  0
  1  2  1  0  0  0  0
  2 10  1  0  0  0  0
  2  3  2  0  0  0  0
  3  8  1  0  0  0  0
  4  3  1  0  0  0  0
  5  4  2  0  0  0  0
  6  5  1  0  0  0  0
  6  1  2  0  0  0  0
  7  1  1  0  0  0  0
  9  5  1  0  0  0  0
 10 13  1  0  0  0  0
 10 12  1  0  0  0  0
 11 10  1  0  0  0  0
 13 18  1  0  0  0  0
 14 15  1  0  0  0  0
 14 13  1  0  0  0  0
 15 16  1  0  0  0  0
 16 17  1  0  0  0  0
 18 17  1  0  0  0  0
M  END
>  <minimizedAffinity>
-3.93694377

$$$$

 OpenBabel03242515243D

 18 19  0  0  0  0  0  0  0  0999 V2000
   37.9020   23.2490   41.0180 C   0  0  0  0  0  0  0  0  0  0  0  0
   37.0170   24.3420   41.0050 C   0  0  0  0  0  0  0  0  0  0  0  0
   36.3240   24.6010   39.8330 C   0  0  0  0  0  0  0  0  0  0  0  0
   36.5320   23.7940   38.7690 N   0  0  0  0  0  0  0  0  0  0  0  0
   37.3870   22.7520   38.8100 C   0  0  0  0  0  0  0  0  0  0  0  0
   38.0820   22.4680   39.9360 N   0  0  0  0  0  0  0  0  0  0  0  0
   38.4710   22.9980   41.9000 H   0  0  0  0  0  0  0  0  0  0  0  0
   35.6540   25.4460   39.8590 H   0  0  0  0  0  0  0  0  0  0  0  0
   37.4170   22.2260   37.8600 H   0  0  0  0  0  0  0  0  0  0  0  0
   36.9280   25.1020   42.2670 C   0  0  0  0  0  0  0  0  0  0  0  0
   37.4350   24.5150   43.0760 H   0  0  0  0  0  0  0  0  0  0  0  0
   35.8600   25.1410   42.5930 H   0  0  0  0  0  0  0  0  0  0  0  0
   37.5280   26.4860   42.1870 C   0  0  0  0  0  3  0  0  0  0  0  0
   36.5290   27.5110   42.6710 C   0  0  0  0  0  2  0  0  0  0  0  0
   37.1730   28.8570   42.3900 C   0  0  0  0  0  2  0  0  0  0  0  0
   38.3770   28.9820   43.2520 C   0  0  0  0  0  2  0  0  0  0  0  0
   39.3660   27.8810   43.1930 C   0  0  0  0  0  2  0  0  0  0  0  0
   38.8070   26.5140   42.9630 C   0  0  0  0  0  2  0  0  0  0  0  0
  1  7  1  0  0  0  0
  2  1  1  0  0  0  0
  2 10  1  0  0  0  0
  3  8  1  0  0  0  0
  3  2  2  0  0  0  0
  4  5  2  0  0  0  0
  4  3  1  0  0  0  0
  5  6  1  0  0  0  0
  6  1  2  0  0  0  0
  9  5  1  0  0  0  0
 10 12  1  0  0  0  0
 10 11  1  0  0  0  0
 13 10  1  0  0  0  0
 13 14  1  0  0  0  0
 13 18  1  0  0  0  0
 15 14  1  0  0  0  0
 15 16  1  0  0  0  0
 17 16  1  0  0  0  0
 18 17  1  0  0  0  0
M  END
>  <minimizedAffinity>
-3.92501974

$$$$
