
     RDKit          3D

 38 40  0  0  0  0  0  0  0  0999 V2000
   44.6761   35.3774   45.1515 C   0  0  0  0  0  0  0  0  0  0  0  0
   45.1280   35.6979   43.8388 C   0  0  0  0  0  0  0  0  0  0  0  0
   46.0689   34.8615   43.3358 C   0  0  0  0  0  0  0  0  0  0  0  0
   46.5505   33.7834   44.0482 N   0  0  0  0  0  0  0  0  0  0  0  0
   46.0953   33.5106   45.2971 C   0  0  0  0  0  0  0  0  0  0  0  0
   45.1492   34.3196   45.8463 N   0  0  0  0  0  0  0  0  0  0  0  0
   46.5746   35.0677   41.9286 C   0  0  1  0  0  0  0  0  0  0  0  0
   48.1151   35.2897   41.9314 C   0  0  0  0  0  0  0  0  0  0  0  0
   47.3514   34.0746   41.3115 C   0  0  2  0  0  0  0  0  0  0  0  0
   47.3943   33.9089   39.8072 C   0  0  0  0  0  0  0  0  0  0  0  0
   44.6545   36.8157   43.1125 N   0  0  0  0  0  0  0  0  0  0  0  0
   43.9157   36.0548   45.5536 H   0  0  0  0  0  0  0  0  0  0  0  0
   46.4390   32.6871   45.8853 H   0  0  0  0  0  0  0  0  0  0  0  0
   46.0261   35.8523   41.3645 H   0  0  0  0  0  0  0  0  0  0  0  0
   48.4889   35.9910   41.1576 H   0  0  0  0  0  0  0  0  0  0  0  0
   48.6739   35.1359   42.8478 H   0  0  0  0  0  0  0  0  0  0  0  0
   47.5500   33.1331   41.9116 H   0  0  0  0  0  0  0  0  0  0  0  0
   46.3697   33.7090   39.4240 H   0  0  0  0  0  0  0  0  0  0  0  0
   47.7564   34.8665   39.3511 H   0  0  0  0  0  0  0  0  0  0  0  0
   43.9994   36.8097   42.2823 H   0  0  0  0  0  0  0  0  0  0  0  0
   44.9203   37.8210   43.3367 H   0  0  0  0  0  0  0  0  0  0  0  0
   48.3194   32.7558   39.4652 C   0  0  0  0  0  0  0  0  0  0  0  0
   49.4043   32.5974   40.4690 C   0  0  0  0  0  0  0  0  0  0  0  0
   49.8823   31.2299   40.7629 C   0  0  0  0  0  0  0  0  0  0  0  0
   49.5094   30.2933   39.6321 C   0  0  0  0  0  0  0  0  0  0  0  0
   47.9924   30.2591   39.6858 C   0  0  0  0  0  0  0  0  0  0  0  0
   47.5109   31.5689   39.1321 C   0  0  0  0  0  0  0  0  0  0  0  0
   48.8291   33.1010   38.5232 H   0  0  0  0  0  0  0  0  0  0  0  0
   50.2860   33.2442   40.2399 H   0  0  0  0  0  0  0  0  0  0  0  0
   48.9982   33.0301   41.4305 H   0  0  0  0  0  0  0  0  0  0  0  0
   50.9849   31.1884   40.8525 H   0  0  0  0  0  0  0  0  0  0  0  0
   49.4688   30.8008   41.6992 H   0  0  0  0  0  0  0  0  0  0  0  0
   49.9229   29.2804   39.7352 H   0  0  0  0  0  0  0  0  0  0  0  0
   49.7781   30.7907   38.6654 H   0  0  0  0  0  0  0  0  0  0  0  0
   47.5596   29.4454   39.0830 H   0  0  0  0  0  0  0  0  0  0  0  0
   47.6531   30.1929   40.7599 H   0  0  0  0  0  0  0  0  0  0  0  0
   47.4044   31.4276   38.0188 H   0  0  0  0  0  0  0  0  0  0  0  0
   46.4480   31.6608   39.4869 H   0  0  0  0  0  0  0  0  0  0  0  0
  1  6  2  0
  2  1  1  0
  3  2  2  0
  3  4  1  0
  4  5  2  0
  5  6  1  0
  7  3  1  0
  8  7  1  0
  9  8  1  0
  9  7  1  0
 10  9  1  0
 11  2  1  0
  1 12  1  0
  5 13  1  0
  7 14  1  6
  8 15  1  0
  8 16  1  0
  9 17  1  1
 10 18  1  0
 10 19  1  0
 11 20  1  0
 11 21  1  0
 22 23  1  0
 23 24  1  0
 24 25  1  0
 25 26  1  0
 26 27  1  0
 27 22  1  0
 22 28  1  0
 23 29  1  0
 23 30  1  0
 24 31  1  0
 24 32  1  0
 25 33  1  0
 25 34  1  0
 26 35  1  0
 26 36  1  0
 27 37  1  0
 27 38  1  0
 10 22  1  0
M  ISO  8  12  14  13  14  14  13  15  13  16  13  17  13  18   8  19   8
M  END
>  <DihAtoms>  (1) 
8,9,21,22

>  <DihDeg>  (1) 
179.99900460009806

$$$$
