
     RDKit          3D

 38 40  0  0  0  0  0  0  0  0999 V2000
   44.6761   35.3774   45.1515 C   0  0  0  0  0  0  0  0  0  0  0  0
   45.1280   35.6979   43.8388 C   0  0  0  0  0  0  0  0  0  0  0  0
   46.0689   34.8615   43.3358 C   0  0  0  0  0  0  0  0  0  0  0  0
   46.5505   33.7834   44.0482 N   0  0  0  0  0  0  0  0  0  0  0  0
   46.0953   33.5106   45.2971 C   0  0  0  0  0  0  0  0  0  0  0  0
   45.1492   34.3196   45.8463 N   0  0  0  0  0  0  0  0  0  0  0  0
   46.5746   35.0677   41.9286 C   0  0  1  0  0  0  0  0  0  0  0  0
   48.1151   35.2897   41.9314 C   0  0  0  0  0  0  0  0  0  0  0  0
   47.3514   34.0746   41.3115 C   0  0  2  0  0  0  0  0  0  0  0  0
   47.3943   33.9089   39.8072 C   0  0  0  0  0  0  0  0  0  0  0  0
   44.6545   36.8157   43.1125 N   0  0  0  0  0  0  0  0  0  0  0  0
   43.9157   36.0548   45.5536 H   0  0  0  0  0  0  0  0  0  0  0  0
   46.4390   32.6871   45.8853 H   0  0  0  0  0  0  0  0  0  0  0  0
   46.0261   35.8523   41.3645 H   0  0  0  0  0  0  0  0  0  0  0  0
   48.4889   35.9910   41.1576 H   0  0  0  0  0  0  0  0  0  0  0  0
   48.6739   35.1359   42.8478 H   0  0  0  0  0  0  0  0  0  0  0  0
   47.5500   33.1331   41.9116 H   0  0  0  0  0  0  0  0  0  0  0  0
   46.3697   33.7090   39.4240 H   0  0  0  0  0  0  0  0  0  0  0  0
   47.7564   34.8665   39.3511 H   0  0  0  0  0  0  0  0  0  0  0  0
   43.9994   36.8097   42.2823 H   0  0  0  0  0  0  0  0  0  0  0  0
   44.9203   37.8210   43.3367 H   0  0  0  0  0  0  0  0  0  0  0  0
   48.3194   32.7558   39.4652 C   0  0  0  0  0  0  0  0  0  0  0  0
   48.3397   31.7238   40.5349 C   0  0  0  0  0  0  0  0  0  0  0  0
   48.5037   30.3111   40.1319 C   0  0  0  0  0  0  0  0  0  0  0  0
   49.1040   30.2317   38.7432 C   0  0  0  0  0  0  0  0  0  0  0  0
   48.0258   30.8285   37.8564 C   0  0  0  0  0  0  0  0  0  0  0  0
   48.0503   32.3121   38.0853 C   0  0  0  0  0  0  0  0  0  0  0  0
   49.3411   33.2272   39.4825 H   0  0  0  0  0  0  0  0  0  0  0  0
   49.0873   31.9589   41.3311 H   0  0  0  0  0  0  0  0  0  0  0  0
   47.3465   31.8131   41.0662 H   0  0  0  0  0  0  0  0  0  0  0  0
   49.1963   29.7681   40.8034 H   0  0  0  0  0  0  0  0  0  0  0  0
   47.5552   29.7350   40.1168 H   0  0  0  0  0  0  0  0  0  0  0  0
   49.3496   29.2107   38.4196 H   0  0  0  0  0  0  0  0  0  0  0  0
   49.9728   30.9369   38.6989 H   0  0  0  0  0  0  0  0  0  0  0  0
   48.1968   30.6380   36.7852 H   0  0  0  0  0  0  0  0  0  0  0  0
   47.0149   30.4460   38.1801 H   0  0  0  0  0  0  0  0  0  0  0  0
   48.7916   32.7386   37.3509 H   0  0  0  0  0  0  0  0  0  0  0  0
   47.0600   32.6814   37.7017 H   0  0  0  0  0  0  0  0  0  0  0  0
  1  6  2  0
  2  1  1  0
  3  2  2  0
  3  4  1  0
  4  5  2  0
  5  6  1  0
  7  3  1  0
  8  7  1  0
  9  8  1  0
  9  7  1  0
 10  9  1  0
 11  2  1  0
  1 12  1  0
  5 13  1  0
  7 14  1  6
  8 15  1  0
  8 16  1  0
  9 17  1  1
 10 18  1  0
 10 19  1  0
 11 20  1  0
 11 21  1  0
 22 23  1  0
 23 24  1  0
 24 25  1  0
 25 26  1  0
 26 27  1  0
 27 22  1  0
 22 28  1  0
 23 29  1  0
 23 30  1  0
 24 31  1  0
 24 32  1  0
 25 33  1  0
 25 34  1  0
 26 35  1  0
 26 36  1  0
 27 37  1  0
 27 38  1  0
 10 22  1  0
M  ISO  8  12  14  13  14  14  13  15  13  16  13  17  13  18   8  19   8
M  END
>  <DihAtoms>  (1) 
8,9,21,22

>  <DihDeg>  (1) 
179.99900460009806

$$$$
