
 OpenBabel03242515003D

 34 36  0  0  0  0  0  0  0  0999 V2000
   42.2780   34.7310   41.4700 C   0  0  0  0  0  0  0  0  0  0  0  0
   42.3110   34.8550   42.5780 H   0  0  0  0  0  0  0  0  0  0  0  0
   41.7810   33.7320   41.2960 H   0  0  0  0  0  0  0  0  0  0  0  0
   41.4310   35.7690   40.8100 C   0  0  0  0  0  0  0  0  0  0  0  0
   40.7940   36.2240   41.6070 H   0  0  0  0  0  0  0  0  0  0  0  0
   42.0040   36.5910   40.3530 H   0  0  0  0  0  0  0  0  0  0  0  0
   42.1020   36.0480   37.8540 Cl  0  0  0  0  0  0  0  0  0  0  0  0
   40.7080   35.2170   38.4580 C   0  0  0  0  0  0  0  0  0  0  0  0
   40.4870   35.1450   39.8510 C   0  0  0  0  0  0  0  0  0  0  0  0
   39.3640   34.4710   40.2420 C   0  0  0  0  0  0  0  0  0  0  0  0
   38.4270   33.8570   39.4270 C   0  0  0  0  0  0  0  0  0  0  0  0
   38.6610   33.9400   38.0640 C   0  0  0  0  0  0  0  0  0  0  0  0
   37.5330   33.1940   36.9360 Cl  0  0  0  0  0  0  0  0  0  0  0  0
   39.7790   34.6070   37.6050 C   0  0  0  0  0  0  0  0  0  0  0  0
   39.1680   34.4000   41.3170 H   0  0  0  0  0  0  0  0  0  0  0  0
   37.5690   33.3480   39.8360 H   0  0  0  0  0  0  0  0  0  0  0  0
   39.9550   34.6660   36.5320 H   0  0  0  0  0  0  0  0  0  0  0  0
   43.9470   34.6330   40.7990 S   0  0  0  0  0  0  0  0  0  0  0  0
   45.1850   34.3490   42.0710 C   0  0  0  0  0  0  0  0  0  0  0  0
   46.5230   34.4710   41.6790 C   0  0  0  0  0  0  0  0  0  0  0  0
   47.5190   34.2590   42.6330 C   0  0  0  0  0  0  0  0  0  0  0  0
   47.1300   33.9440   43.8960 N   0  0  0  0  0  0  0  0  0  0  0  0
   45.8410   33.8310   44.2570 C   0  0  0  0  0  0  0  0  0  0  0  0
   44.8930   34.0350   43.3360 N   0  0  0  0  0  0  0  0  0  0  0  0
   46.7620   34.7250   40.6570 H   0  0  0  0  0  0  0  0  0  0  0  0
   48.5540   34.3500   42.3490 H   0  0  0  0  0  0  0  0  0  0  0  0
   45.5320   33.4900   45.6310 C   0  0  0  0  0  0  0  0  0  0  0  0
   45.0690   34.4070   46.3580 O   0  0  0  0  0  0  0  0  0  0  0  0
   45.7410   32.1110   46.1970 C   0  0  0  0  0  3  0  0  0  0  0  0
   45.6620   31.1270   45.0490 C   0  0  0  0  0  2  0  0  0  0  0  0
   46.0740   29.7500   45.4540 C   0  0  0  0  0  2  0  0  0  0  0  0
   47.4810   29.7460   45.9550 C   0  0  0  0  0  2  0  0  0  0  0  0
   47.9930   31.1680   46.0500 C   0  0  0  0  0  2  0  0  0  0  0  0
   47.0380   31.9830   46.9290 C   0  0  0  0  0  2  0  0  0  0  0  0
  1  2  1  0  0  0  0
  3  1  1  0  0  0  0
  4  1  1  0  0  0  0
  4  5  1  0  0  0  0
  6  4  1  0  0  0  0
  7  8  1  0  0  0  0
  8  9  1  0  0  0  0
  9 10  2  0  0  0  0
  9  4  1  0  0  0  0
 10 15  1  0  0  0  0
 11 16  1  0  0  0  0
 11 10  1  0  0  0  0
 12 11  2  0  0  0  0
 13 12  1  0  0  0  0
 14 12  1  0  0  0  0
 14  8  2  0  0  0  0
 17 14  1  0  0  0  0
 18  1  1  0  0  0  0
 18 19  1  0  0  0  0
 19 24  1  0  0  0  0
 20 19  2  0  0  0  0
 20 21  1  0  0  0  0
 21 22  2  0  0  0  0
 22 23  1  0  0  0  0
 23 27  1  0  0  0  0
 24 23  2  0  0  0  0
 25 20  1  0  0  0  0
 26 21  1  0  0  0  0
 27 29  1  0  0  0  0
 27 28  2  0  0  0  0
 29 34  1  0  0  0  0
 30 31  1  0  0  0  0
 30 29  1  0  0  0  0
 31 32  1  0  0  0  0
 32 33  1  0  0  0  0
 33 34  1  0  0  0  0
M  END
>  <minimizedAffinity>
-5.74193048

>  <minimizedRMSD>
0.87752527

$$$$
