REMARK  Name = 
REMARK  10 active torsions:
REMARK  status: ('A' for Active; 'I' for Inactive)
REMARK    1  A    between atoms: C_1  and  N_2
REMARK    2  A    between atoms: C_1  and  S_8
REMARK    3  A    between atoms: N_2  and  S_3
REMARK    4  A    between atoms: S_3  and  O_4
REMARK    5  A    between atoms: S_3  and  O_5
REMARK    6  A    between atoms: S_3  and  O_6
REMARK    7  A    between atoms: O_6  and  C_7
REMARK    8  A    between atoms: S_8  and  C_10
REMARK    9  A    between atoms: C_13  and  O_15
REMARK   10  A    between atoms: O_15  and  C_26
REMARK                            x       y       z     vdW  Elec       q    Type
REMARK                         _______ _______ _______ _____ _____    ______ ____
ROOT
ATOM      1  S   UNL     1      43.405  34.105  41.003  0.00  0.00    +0.000 S 
ENDROOT
BRANCH   1   3
ATOM      2  C   UNL     1      40.884  33.030  41.364  0.00  0.00    +0.000 A 
ATOM      3  C   UNL     1      41.632  33.971  40.676  0.00  0.00    +0.000 A 
ATOM      4  C   UNL     1      41.038  34.808  39.740  0.00  0.00    +0.000 A 
ATOM      5  N   UNL     1      39.706  34.661  39.534  0.00  0.00    +0.000 NA
ATOM      6  C   UNL     1      39.009  33.733  40.223  0.00  0.00    +0.000 A 
ATOM      7  N   UNL     1      39.557  32.917  41.128  0.00  0.00    +0.000 NA
ATOM      8  H   UNL     1      41.362  32.385  42.091  0.00  0.00    +0.000 HD
ATOM      9  H   UNL     1      41.632  35.539  39.209  0.00  0.00    +0.000 HD
BRANCH   6  10
ATOM     10  O   UNL     1      37.632  33.578  40.012  0.00  0.00    +0.000 OA
BRANCH  10  11
ATOM     11  C   UNL     1      37.055  34.447  39.048  0.00  0.00    +0.000 C 
ATOM     12  C   UNL     1      38.187  35.097  38.280  0.00  0.00    +0.000 C 
ATOM     13  C   UNL     1      37.612  36.044  37.250  0.00  0.00    +0.000 C 
ATOM     14  C   UNL     1      36.641  35.331  36.333  0.00  0.00    +0.000 C 
ATOM     15  C   UNL     1      35.522  34.708  37.164  0.00  0.00    +0.000 C 
ATOM     16  C   UNL     1      36.129  33.728  38.116  0.00  0.00    +0.000 C 
ENDBRANCH  10  11
ENDBRANCH   6  10
ENDBRANCH   1   3
BRANCH   1  17
ATOM     17  C   UNL     1      43.761  35.709  41.700  0.00  0.00    +0.000 C 
ATOM     18  H   UNL     1      44.868  35.866  41.645  0.00  0.00    +0.000 HD
ATOM     19  H   UNL     1      43.247  36.540  41.191  0.00  0.00    +0.000 HD
BRANCH  17  20
ATOM     20  N   UNL     1      43.436  35.656  43.118  0.00  0.00    +0.000 NA
ATOM     21  H   UNL     1      42.779  36.441  43.328  0.00  0.00    +0.000 HD
BRANCH  20  22
ATOM     22  S   UNL     1      44.826  35.837  44.104  0.00  0.00    +0.000 S 
BRANCH  22  23
ATOM     23  O   UNL     1      46.072  35.348  43.430  0.00  0.00    +0.000 OA
ATOM     24  H   UNL     1      46.089  34.539  42.835  0.00  0.00    +0.000 HD
ENDBRANCH  22  23
BRANCH  22  25
ATOM     25  O   UNL     1      44.961  37.329  44.366  0.00  0.00    +0.000 OA
ATOM     26  H   UNL     1      45.597  37.714  45.017  0.00  0.00    +0.000 HD
ENDBRANCH  22  25
BRANCH  22  27
ATOM     27  O   UNL     1      44.588  35.085  45.573  0.00  0.00    +0.000 OA
BRANCH  27  28
ATOM     28  C   UNL     1      45.419  34.005  45.749  0.00  0.00    +0.000 C 
ATOM     29  H   UNL     1      44.884  33.239  46.347  0.00  0.00    +0.000 HD
ATOM     30  H   UNL     1      45.638  33.577  44.740  0.00  0.00    +0.000 HD
ATOM     31  H   UNL     1      46.364  34.297  46.261  0.00  0.00    +0.000 HD
ENDBRANCH  27  28
ENDBRANCH  22  27
ENDBRANCH  20  22
ENDBRANCH  17  20
ENDBRANCH   1  17
TORSDOF 10
