
 OpenBabel03242517013D

 29 31  0  0  0  0  0  0  0  0999 V2000
   37.3620   31.4120   39.8530 C   0  0  0  0  0  0  0  0  0  0  0  0
   37.1880   32.7420   39.5110 C   0  0  0  0  0  0  0  0  0  0  0  0
   38.0650   33.6790   40.0250 C   0  0  0  0  0  0  0  0  0  0  0  0
   39.0810   33.2790   40.8560 C   0  0  0  0  0  0  0  0  0  0  0  0
   39.2770   31.9740   41.2110 C   0  0  0  0  0  0  0  0  0  0  0  0
   38.3770   31.0450   40.6780 C   0  0  0  0  0  0  0  0  0  0  0  0
   36.3800   33.0620   38.8510 H   0  0  0  0  0  0  0  0  0  0  0  0
   37.9080   34.7040   39.7450 H   0  0  0  0  0  0  0  0  0  0  0  0
   39.7360   34.0530   41.2290 H   0  0  0  0  0  0  0  0  0  0  0  0
   40.0740   31.6380   41.8660 H   0  0  0  0  0  0  0  0  0  0  0  0
   35.4510   29.1010   37.5530 C   0  0  0  0  0  0  0  0  0  0  0  0
   36.4360   30.0150   37.9830 C   0  0  0  0  0  0  0  0  0  0  0  0
   36.4070   30.4680   39.2800 C   0  0  0  0  0  0  0  0  0  0  0  0
   35.4080   29.9920   40.0790 N   0  0  0  0  0  0  0  0  0  0  0  0
   34.4660   29.1190   39.6730 C   0  0  0  0  0  0  0  0  0  0  0  0
   34.4930   28.6660   38.3810 N   0  0  0  0  0  0  0  0  0  0  0  0
   35.5480   28.7970   36.5220 H   0  0  0  0  0  0  0  0  0  0  0  0
   37.2190   30.3840   37.3410 H   0  0  0  0  0  0  0  0  0  0  0  0
   33.7040   28.7880   40.3750 H   0  0  0  0  0  0  0  0  0  0  0  0
   38.0280   28.8330   42.0310 C   0  0  0  0  0  0  0  0  0  0  0  0
   37.4170   29.1760   43.0440 O   0  0  0  0  0  0  0  0  0  0  0  0
   38.4670   29.6590   40.9650 N   0  0  0  0  0  0  0  0  0  0  0  0
   38.9910   29.3030   40.1290 H   0  0  0  0  0  0  0  0  0  0  0  0
   38.3800   27.3750   41.8450 C   0  0  0  0  0  3  0  0  0  0  0  0
   38.2480   27.1180   40.3770 C   0  0  0  0  0  2  0  0  0  0  0  0
   36.8490   26.5460   40.1660 C   0  0  0  0  0  2  0  0  0  0  0  0
   36.9460   25.1120   40.6970 C   0  0  0  0  0  2  0  0  0  0  0  0
   37.0800   25.2310   42.1850 C   0  0  0  0  0  2  0  0  0  0  0  0
   37.4300   26.5930   42.6890 C   0  0  0  0  0  2  0  0  0  0  0  0
  1  6  1  0  0  0  0
  2  1  2  0  0  0  0
  2  3  1  0  0  0  0
  3  4  2  0  0  0  0
  4  5  1  0  0  0  0
  4  9  1  0  0  0  0
  5 10  1  0  0  0  0
  6 22  1  0  0  0  0
  6  5  2  0  0  0  0
  7  2  1  0  0  0  0
  8  3  1  0  0  0  0
 11 12  2  0  0  0  0
 11 16  1  0  0  0  0
 12 13  1  0  0  0  0
 13  1  1  0  0  0  0
 13 14  2  0  0  0  0
 15 14  1  0  0  0  0
 15 19  1  0  0  0  0
 16 15  2  0  0  0  0
 17 11  1  0  0  0  0
 18 12  1  0  0  0  0
 20 21  2  0  0  0  0
 22 20  1  0  0  0  0
 23 22  1  0  0  0  0
 24 20  1  0  0  0  0
 24 29  1  0  0  0  0
 25 24  1  0  0  0  0
 26 25  1  0  0  0  0
 26 27  1  0  0  0  0
 27 28  1  0  0  0  0
 28 29  1  0  0  0  0
M  END
>  <minimizedAffinity>
-5.70127487

$$$$

 OpenBabel03242517013D

 29 31  0  0  0  0  0  0  0  0999 V2000
   37.4820   31.8870   40.0240 C   0  0  0  0  0  0  0  0  0  0  0  0
   37.2760   33.0530   39.3080 C   0  0  0  0  0  0  0  0  0  0  0  0
   38.0470   34.1610   39.6070 C   0  0  0  0  0  0  0  0  0  0  0  0
   38.9910   34.0870   40.6000 C   0  0  0  0  0  0  0  0  0  0  0  0
   39.2160   32.9490   41.3240 C   0  0  0  0  0  0  0  0  0  0  0  0
   38.4240   31.8420   41.0020 C   0  0  0  0  0  0  0  0  0  0  0  0
   36.5250   33.1140   38.5180 H   0  0  0  0  0  0  0  0  0  0  0  0
   37.8660   35.0530   39.0370 H   0  0  0  0  0  0  0  0  0  0  0  0
   39.5640   34.9820   40.7930 H   0  0  0  0  0  0  0  0  0  0  0  0
   39.9580   32.8710   42.1120 H   0  0  0  0  0  0  0  0  0  0  0  0
   35.7550   29.0600   38.2050 C   0  0  0  0  0  0  0  0  0  0  0  0
   36.6160   30.1550   38.4250 C   0  0  0  0  0  0  0  0  0  0  0  0
   36.6400   30.7500   39.6640 C   0  0  0  0  0  0  0  0  0  0  0  0
   35.8110   30.2300   40.6150 N   0  0  0  0  0  0  0  0  0  0  0  0
   34.9870   29.1850   40.4100 C   0  0  0  0  0  0  0  0  0  0  0  0
   34.9620   28.5900   39.1760 N   0  0  0  0  0  0  0  0  0  0  0  0
   35.8000   28.6530   37.2070 H   0  0  0  0  0  0  0  0  0  0  0  0
   37.2660   30.5570   37.6650 H   0  0  0  0  0  0  0  0  0  0  0  0
   34.3570   28.8310   41.2240 H   0  0  0  0  0  0  0  0  0  0  0  0
   39.5650   29.6090   41.7460 C   0  0  0  0  0  0  0  0  0  0  0  0
   40.6570   29.6060   41.1760 O   0  0  0  0  0  0  0  0  0  0  0  0
   38.5550   30.6010   41.6750 N   0  0  0  0  0  0  0  0  0  0  0  0
   37.6390   30.5390   42.1840 H   0  0  0  0  0  0  0  0  0  0  0  0
   39.2020   28.4450   42.6400 C   0  0  0  0  0  3  0  0  0  0  0  0
   39.1730   27.2490   41.7420 C   0  0  0  0  0  2  0  0  0  0  0  0
   37.7160   27.0580   41.3280 C   0  0  0  0  0  2  0  0  0  0  0  0
   37.0430   26.4880   42.5810 C   0  0  0  0  0  2  0  0  0  0  0  0
   37.0050   27.6090   43.5750 C   0  0  0  0  0  2  0  0  0  0  0  0
   37.8860   28.7740   43.2600 C   0  0  0  0  0  2  0  0  0  0  0  0
  1  6  1  0  0  0  0
  2  3  1  0  0  0  0
  2  1  2  0  0  0  0
  3  4  2  0  0  0  0
  4  9  1  0  0  0  0
  4  5  1  0  0  0  0
  5 10  1  0  0  0  0
  6  5  2  0  0  0  0
  6 22  1  0  0  0  0
  7  2  1  0  0  0  0
  8  3  1  0  0  0  0
 11 12  2  0  0  0  0
 11 16  1  0  0  0  0
 12 13  1  0  0  0  0
 13  1  1  0  0  0  0
 13 14  2  0  0  0  0
 15 14  1  0  0  0  0
 15 19  1  0  0  0  0
 16 15  2  0  0  0  0
 17 11  1  0  0  0  0
 18 12  1  0  0  0  0
 20 24  1  0  0  0  0
 21 20  2  0  0  0  0
 22 20  1  0  0  0  0
 22 23  1  0  0  0  0
 24 29  1  0  0  0  0
 25 24  1  0  0  0  0
 26 25  1  0  0  0  0
 26 27  1  0  0  0  0
 27 28  1  0  0  0  0
 29 28  1  0  0  0  0
M  END
>  <minimizedAffinity>
-5.68792915

$$$$

 OpenBabel03242517013D

 29 31  0  0  0  0  0  0  0  0999 V2000
   36.9890   26.0880   40.7980 C   0  0  0  0  0  0  0  0  0  0  0  0
   37.1480   24.8030   41.2850 C   0  0  0  0  0  0  0  0  0  0  0  0
   36.7320   23.7410   40.5020 C   0  0  0  0  0  0  0  0  0  0  0  0
   36.1730   23.9790   39.2720 C   0  0  0  0  0  0  0  0  0  0  0  0
   36.0030   25.2370   38.7660 C   0  0  0  0  0  0  0  0  0  0  0  0
   36.4330   26.2940   39.5760 C   0  0  0  0  0  0  0  0  0  0  0  0
   37.5910   24.6120   42.2630 H   0  0  0  0  0  0  0  0  0  0  0  0
   36.8660   22.7540   40.9030 H   0  0  0  0  0  0  0  0  0  0  0  0
   35.8650   23.1130   38.7040 H   0  0  0  0  0  0  0  0  0  0  0  0
   35.5640   25.4450   37.7960 H   0  0  0  0  0  0  0  0  0  0  0  0
   37.4230   28.5590   43.6250 C   0  0  0  0  0  0  0  0  0  0  0  0
   36.8840   27.4890   42.8800 C   0  0  0  0  0  0  0  0  0  0  0  0
   37.4470   27.1690   41.6680 C   0  0  0  0  0  0  0  0  0  0  0  0
   38.5090   27.9230   41.2600 N   0  0  0  0  0  0  0  0  0  0  0  0
   39.0260   28.9450   41.9670 C   0  0  0  0  0  0  0  0  0  0  0  0
   38.4680   29.2660   43.1770 N   0  0  0  0  0  0  0  0  0  0  0  0
   36.9220   28.7420   44.5640 H   0  0  0  0  0  0  0  0  0  0  0  0
   36.0440   26.9010   43.2130 H   0  0  0  0  0  0  0  0  0  0  0  0
   39.8750   29.4970   41.5710 H   0  0  0  0  0  0  0  0  0  0  0  0
   36.6640   28.3730   38.0060 C   0  0  0  0  0  0  0  0  0  0  0  0
   37.2070   27.9420   36.9870 O   0  0  0  0  0  0  0  0  0  0  0  0
   36.3150   27.6480   39.1730 N   0  0  0  0  0  0  0  0  0  0  0  0
   35.8570   28.0800   40.0130 H   0  0  0  0  0  0  0  0  0  0  0  0
   36.3050   29.8400   38.0790 C   0  0  0  0  0  3  0  0  0  0  0  0
   37.2780   30.5320   37.1780 C   0  0  0  0  0  2  0  0  0  0  0  0
   38.4130   31.0260   38.0720 C   0  0  0  0  0  2  0  0  0  0  0  0
   37.8110   32.2240   38.8140 C   0  0  0  0  0  2  0  0  0  0  0  0
   36.8060   31.6550   39.7690 C   0  0  0  0  0  2  0  0  0  0  0  0
   36.4110   30.2370   39.5130 C   0  0  0  0  0  2  0  0  0  0  0  0
  1  2  1  0  0  0  0
  1 13  1  0  0  0  0
  2  7  1  0  0  0  0
  3  8  1  0  0  0  0
  3  2  2  0  0  0  0
  4  3  1  0  0  0  0
  5  4  2  0  0  0  0
  5  6  1  0  0  0  0
  6  1  2  0  0  0  0
  9  4  1  0  0  0  0
 10  5  1  0  0  0  0
 11 17  1  0  0  0  0
 12 18  1  0  0  0  0
 12 11  2  0  0  0  0
 13 12  1  0  0  0  0
 14 13  2  0  0  0  0
 14 15  1  0  0  0  0
 15 16  2  0  0  0  0
 16 11  1  0  0  0  0
 19 15  1  0  0  0  0
 20 24  1  0  0  0  0
 20 22  1  0  0  0  0
 21 20  2  0  0  0  0
 22  6  1  0  0  0  0
 22 23  1  0  0  0  0
 24 29  1  0  0  0  0
 25 26  1  0  0  0  0
 25 24  1  0  0  0  0
 26 27  1  0  0  0  0
 27 28  1  0  0  0  0
 29 28  1  0  0  0  0
M  END
>  <minimizedAffinity>
-5.49380016

$$$$

 OpenBabel03242517013D

 29 31  0  0  0  0  0  0  0  0999 V2000
   35.5220   28.6320   38.1300 C   0  0  0  0  0  0  0  0  0  0  0  0
   34.7390   28.9600   37.0370 C   0  0  0  0  0  0  0  0  0  0  0  0
   34.2050   27.9380   36.2740 C   0  0  0  0  0  0  0  0  0  0  0  0
   34.4590   26.6320   36.6080 C   0  0  0  0  0  0  0  0  0  0  0  0
   35.2290   26.2790   37.6810 C   0  0  0  0  0  0  0  0  0  0  0  0
   35.7570   27.3300   38.4380 C   0  0  0  0  0  0  0  0  0  0  0  0
   34.5360   29.9980   36.7690 H   0  0  0  0  0  0  0  0  0  0  0  0
   33.6010   28.2200   35.4310 H   0  0  0  0  0  0  0  0  0  0  0  0
   34.0170   25.8750   35.9770 H   0  0  0  0  0  0  0  0  0  0  0  0
   35.4410   25.2530   37.9630 H   0  0  0  0  0  0  0  0  0  0  0  0
   37.3150   31.7700   39.2350 C   0  0  0  0  0  0  0  0  0  0  0  0
   36.8620   30.7410   38.3840 C   0  0  0  0  0  0  0  0  0  0  0  0
   36.0580   29.7520   38.8990 C   0  0  0  0  0  0  0  0  0  0  0  0
   35.7470   29.8360   40.2250 N   0  0  0  0  0  0  0  0  0  0  0  0
   36.1770   30.8170   41.0410 C   0  0  0  0  0  0  0  0  0  0  0  0
   36.9780   31.8040   40.5310 N   0  0  0  0  0  0  0  0  0  0  0  0
   37.9400   32.5040   38.7500 H   0  0  0  0  0  0  0  0  0  0  0  0
   37.1160   30.6850   37.3370 H   0  0  0  0  0  0  0  0  0  0  0  0
   35.8820   30.8110   42.0880 H   0  0  0  0  0  0  0  0  0  0  0  0
   36.9030   25.9650   40.3520 C   0  0  0  0  0  0  0  0  0  0  0  0
   36.5100   24.8080   40.1950 O   0  0  0  0  0  0  0  0  0  0  0  0
   36.5720   27.1040   39.5760 N   0  0  0  0  0  0  0  0  0  0  0  0
   36.9390   28.0680   39.7690 H   0  0  0  0  0  0  0  0  0  0  0  0
   37.8510   26.2680   41.4900 C   0  0  0  0  0  3  0  0  0  0  0  0
   37.0420   26.0970   42.7370 C   0  0  0  0  0  2  0  0  0  0  0  0
   36.5430   27.4890   43.1180 C   0  0  0  0  0  2  0  0  0  0  0  0
   37.7840   28.1920   43.6790 C   0  0  0  0  0  2  0  0  0  0  0  0
   38.6890   28.4280   42.5080 C   0  0  0  0  0  2  0  0  0  0  0  0
   38.3530   27.6560   41.2730 C   0  0  0  0  0  2  0  0  0  0  0  0
  1  6  1  0  0  0  0
  1 13  1  0  0  0  0
  2  1  2  0  0  0  0
  3  4  2  0  0  0  0
  3  2  1  0  0  0  0
  4  5  1  0  0  0  0
  5 10  1  0  0  0  0
  5  6  2  0  0  0  0
  6 22  1  0  0  0  0
  7  2  1  0  0  0  0
  8  3  1  0  0  0  0
  9  4  1  0  0  0  0
 11 16  1  0  0  0  0
 12 13  1  0  0  0  0
 12 11  2  0  0  0  0
 13 14  2  0  0  0  0
 14 15  1  0  0  0  0
 15 19  1  0  0  0  0
 16 15  2  0  0  0  0
 17 11  1  0  0  0  0
 18 12  1  0  0  0  0
 20 24  1  0  0  0  0
 21 20  2  0  0  0  0
 22 23  1  0  0  0  0
 22 20  1  0  0  0  0
 24 25  1  0  0  0  0
 25 26  1  0  0  0  0
 26 27  1  0  0  0  0
 28 27  1  0  0  0  0
 29 24  1  0  0  0  0
 29 28  1  0  0  0  0
M  END
>  <minimizedAffinity>
-5.46477842

$$$$

 OpenBabel03242517013D

 29 31  0  0  0  0  0  0  0  0999 V2000
   37.2570   27.8980   41.4190 C   0  0  0  0  0  0  0  0  0  0  0  0
   37.0670   26.8030   42.2430 C   0  0  0  0  0  0  0  0  0  0  0  0
   37.9460   26.6010   43.2910 C   0  0  0  0  0  0  0  0  0  0  0  0
   38.9800   27.4810   43.4930 C   0  0  0  0  0  0  0  0  0  0  0  0
   39.1910   28.5710   42.6960 C   0  0  0  0  0  0  0  0  0  0  0  0
   38.2890   28.7530   41.6430 C   0  0  0  0  0  0  0  0  0  0  0  0
   36.2470   26.1020   42.0830 H   0  0  0  0  0  0  0  0  0  0  0  0
   37.7770   25.7440   43.9150 H   0  0  0  0  0  0  0  0  0  0  0  0
   39.6360   27.2750   44.3260 H   0  0  0  0  0  0  0  0  0  0  0  0
   40.0020   29.2780   42.8400 H   0  0  0  0  0  0  0  0  0  0  0  0
   35.3520   27.6220   38.1670 C   0  0  0  0  0  0  0  0  0  0  0  0
   36.3410   27.3720   39.1410 C   0  0  0  0  0  0  0  0  0  0  0  0
   36.2980   28.0600   40.3290 C   0  0  0  0  0  0  0  0  0  0  0  0
   35.2800   28.9560   40.4890 N   0  0  0  0  0  0  0  0  0  0  0  0
   34.3340   29.1970   39.5620 C   0  0  0  0  0  0  0  0  0  0  0  0
   34.3740   28.5120   38.3760 N   0  0  0  0  0  0  0  0  0  0  0  0
   35.4600   27.0390   37.2650 H   0  0  0  0  0  0  0  0  0  0  0  0
   37.1410   26.6620   39.0020 H   0  0  0  0  0  0  0  0  0  0  0  0
   33.5550   29.9280   39.7690 H   0  0  0  0  0  0  0  0  0  0  0  0
   39.3210   30.2170   39.7360 C   0  0  0  0  0  0  0  0  0  0  0  0
   40.3440   29.6190   39.3970 O   0  0  0  0  0  0  0  0  0  0  0  0
   38.3940   29.8420   40.7410 N   0  0  0  0  0  0  0  0  0  0  0  0
   37.5410   30.4020   40.9860 H   0  0  0  0  0  0  0  0  0  0  0  0
   38.9590   31.5060   39.0340 C   0  0  0  0  0  3  0  0  0  0  0  0
   39.9350   32.5210   39.5400 C   0  0  0  0  0  2  0  0  0  0  0  0
   39.2410   33.2470   40.6890 C   0  0  0  0  0  2  0  0  0  0  0  0
   38.2200   34.1560   39.9950 C   0  0  0  0  0  2  0  0  0  0  0  0
   37.1670   33.2460   39.4400 C   0  0  0  0  0  2  0  0  0  0  0  0
   37.5380   31.7990   39.3820 C   0  0  0  0  0  2  0  0  0  0  0  0
  1  6  2  0  0  0  0
  1  2  1  0  0  0  0
  2  3  2  0  0  0  0
  3  4  1  0  0  0  0
  3  8  1  0  0  0  0
  4  9  1  0  0  0  0
  5 10  1  0  0  0  0
  5  4  2  0  0  0  0
  6  5  1  0  0  0  0
  7  2  1  0  0  0  0
 11 16  2  0  0  0  0
 11 12  1  0  0  0  0
 12 13  2  0  0  0  0
 13 14  1  0  0  0  0
 13  1  1  0  0  0  0
 15 19  1  0  0  0  0
 15 14  2  0  0  0  0
 16 15  1  0  0  0  0
 17 11  1  0  0  0  0
 18 12  1  0  0  0  0
 20 22  1  0  0  0  0
 21 20  2  0  0  0  0
 22 23  1  0  0  0  0
 22  6  1  0  0  0  0
 24 29  1  0  0  0  0
 24 25  1  0  0  0  0
 24 20  1  0  0  0  0
 25 26  1  0  0  0  0
 27 26  1  0  0  0  0
 28 27  1  0  0  0  0
 29 28  1  0  0  0  0
M  END
>  <minimizedAffinity>
-5.35453176

$$$$

 OpenBabel03242517013D

 29 31  0  0  0  0  0  0  0  0999 V2000
   36.6350   26.7130   39.9570 C   0  0  0  0  0  0  0  0  0  0  0  0
   36.5190   25.3480   39.7650 C   0  0  0  0  0  0  0  0  0  0  0  0
   36.7200   24.5060   40.8440 C   0  0  0  0  0  0  0  0  0  0  0  0
   37.0300   25.0330   42.0720 C   0  0  0  0  0  0  0  0  0  0  0  0
   37.1520   26.3770   42.2910 C   0  0  0  0  0  0  0  0  0  0  0  0
   36.9430   27.2070   41.1850 C   0  0  0  0  0  0  0  0  0  0  0  0
   36.2740   24.9260   38.7890 H   0  0  0  0  0  0  0  0  0  0  0  0
   36.6250   23.4510   40.6670 H   0  0  0  0  0  0  0  0  0  0  0  0
   37.1770   24.3300   42.8780 H   0  0  0  0  0  0  0  0  0  0  0  0
   37.3950   26.8130   43.2540 H   0  0  0  0  0  0  0  0  0  0  0  0
   35.0990   28.7840   37.1950 C   0  0  0  0  0  0  0  0  0  0  0  0
   35.1790   27.9740   38.3470 C   0  0  0  0  0  0  0  0  0  0  0  0
   36.4120   27.5520   38.7830 C   0  0  0  0  0  0  0  0  0  0  0  0
   37.4960   27.9530   38.0570 N   0  0  0  0  0  0  0  0  0  0  0  0
   37.4240   28.7260   36.9570 C   0  0  0  0  0  0  0  0  0  0  0  0
   36.1960   29.1490   36.5200 N   0  0  0  0  0  0  0  0  0  0  0  0
   34.0950   29.0710   36.9230 H   0  0  0  0  0  0  0  0  0  0  0  0
   34.3150   27.6640   38.9120 H   0  0  0  0  0  0  0  0  0  0  0  0
   38.3380   29.0020   36.4360 H   0  0  0  0  0  0  0  0  0  0  0  0
   38.1080   29.5480   41.2340 C   0  0  0  0  0  0  0  0  0  0  0  0
   39.3100   29.3070   41.1060 O   0  0  0  0  0  0  0  0  0  0  0  0
   37.0380   28.6190   41.2740 N   0  0  0  0  0  0  0  0  0  0  0  0
   36.0320   28.8930   41.3920 H   0  0  0  0  0  0  0  0  0  0  0  0
   37.6610   30.9860   41.3690 C   0  0  0  0  0  3  0  0  0  0  0  0
   36.4730   31.1180   40.4700 C   0  0  0  0  0  2  0  0  0  0  0  0
   36.9960   31.6700   39.1460 C   0  0  0  0  0  2  0  0  0  0  0  0
   37.2900   33.1440   39.4460 C   0  0  0  0  0  2  0  0  0  0  0  0
   38.4850   33.1510   40.3510 C   0  0  0  0  0  2  0  0  0  0  0  0
   38.8230   31.8360   40.9750 C   0  0  0  0  0  2  0  0  0  0  0  0
  1  6  1  0  0  0  0
  2  1  2  0  0  0  0
  2  3  1  0  0  0  0
  3  4  2  0  0  0  0
  4  5  1  0  0  0  0
  4  9  1  0  0  0  0
  5 10  1  0  0  0  0
  6 22  1  0  0  0  0
  6  5  2  0  0  0  0
  7  2  1  0  0  0  0
  8  3  1  0  0  0  0
 11 12  1  0  0  0  0
 12 13  2  0  0  0  0
 12 18  1  0  0  0  0
 13  1  1  0  0  0  0
 14 13  1  0  0  0  0
 15 14  2  0  0  0  0
 16 15  1  0  0  0  0
 16 11  2  0  0  0  0
 17 11  1  0  0  0  0
 19 15  1  0  0  0  0
 20 22  1  0  0  0  0
 20 24  1  0  0  0  0
 21 20  2  0  0  0  0
 22 23  1  0  0  0  0
 25 24  1  0  0  0  0
 26 27  1  0  0  0  0
 26 25  1  0  0  0  0
 27 28  1  0  0  0  0
 28 29  1  0  0  0  0
 29 24  1  0  0  0  0
M  END
>  <minimizedAffinity>
-5.31076908

$$$$

 OpenBabel03242517013D

 29 31  0  0  0  0  0  0  0  0999 V2000
   36.5740   26.2200   39.6910 C   0  0  0  0  0  0  0  0  0  0  0  0
   35.9270   25.4970   38.7040 C   0  0  0  0  0  0  0  0  0  0  0  0
   35.7960   24.1290   38.8620 C   0  0  0  0  0  0  0  0  0  0  0  0
   36.3060   23.5200   39.9810 C   0  0  0  0  0  0  0  0  0  0  0  0
   36.9500   24.2080   40.9700 C   0  0  0  0  0  0  0  0  0  0  0  0
   37.0690   25.5900   40.7880 C   0  0  0  0  0  0  0  0  0  0  0  0
   35.5220   25.9800   37.8140 H   0  0  0  0  0  0  0  0  0  0  0  0
   35.2900   23.5920   38.0820 H   0  0  0  0  0  0  0  0  0  0  0  0
   36.1760   22.4500   40.0520 H   0  0  0  0  0  0  0  0  0  0  0  0
   37.3600   23.7450   41.8620 H   0  0  0  0  0  0  0  0  0  0  0  0
   37.5910   29.6620   38.5050 C   0  0  0  0  0  0  0  0  0  0  0  0
   37.5910   28.2560   38.6290 C   0  0  0  0  0  0  0  0  0  0  0  0
   36.6820   27.6600   39.4710 C   0  0  0  0  0  0  0  0  0  0  0  0
   35.8260   28.4840   40.1420 N   0  0  0  0  0  0  0  0  0  0  0  0
   35.8230   29.8260   40.0270 C   0  0  0  0  0  0  0  0  0  0  0  0
   36.7270   30.4230   39.1880 N   0  0  0  0  0  0  0  0  0  0  0  0
   38.3340   30.0470   37.8250 H   0  0  0  0  0  0  0  0  0  0  0  0
   38.2720   27.6160   38.0940 H   0  0  0  0  0  0  0  0  0  0  0  0
   35.1060   30.4110   40.5970 H   0  0  0  0  0  0  0  0  0  0  0  0
   37.3120   27.0620   42.9370 C   0  0  0  0  0  0  0  0  0  0  0  0
   36.1990   27.0360   43.4650 O   0  0  0  0  0  0  0  0  0  0  0  0
   37.7150   26.4220   41.7370 N   0  0  0  0  0  0  0  0  0  0  0  0
   38.6820   26.4900   41.3370 H   0  0  0  0  0  0  0  0  0  0  0  0
   38.4180   27.8520   43.5980 C   0  0  0  0  0  3  0  0  0  0  0  0
   38.1170   29.2860   43.2970 C   0  0  0  0  0  2  0  0  0  0  0  0
   38.9390   29.6480   42.0640 C   0  0  0  0  0  2  0  0  0  0  0  0
   40.3740   29.7650   42.5910 C   0  0  0  0  0  2  0  0  0  0  0  0
   40.8030   28.3700   42.9300 C   0  0  0  0  0  2  0  0  0  0  0  0
   39.7020   27.3630   43.0150 C   0  0  0  0  0  2  0  0  0  0  0  0
  1  6  1  0  0  0  0
  2  3  1  0  0  0  0
  2  1  2  0  0  0  0
  3  4  2  0  0  0  0
  4  9  1  0  0  0  0
  4  5  1  0  0  0  0
  5 10  1  0  0  0  0
  6  5  2  0  0  0  0
  6 22  1  0  0  0  0
  7  2  1  0  0  0  0
  8  3  1  0  0  0  0
 11 12  2  0  0  0  0
 11 16  1  0  0  0  0
 12 13  1  0  0  0  0
 13  1  1  0  0  0  0
 13 14  2  0  0  0  0
 15 14  1  0  0  0  0
 15 19  1  0  0  0  0
 16 15  2  0  0  0  0
 17 11  1  0  0  0  0
 18 12  1  0  0  0  0
 20 21  2  0  0  0  0
 20 24  1  0  0  0  0
 22 20  1  0  0  0  0
 23 22  1  0  0  0  0
 25 24  1  0  0  0  0
 26 27  1  0  0  0  0
 26 25  1  0  0  0  0
 27 28  1  0  0  0  0
 28 29  1  0  0  0  0
 29 24  1  0  0  0  0
M  END
>  <minimizedAffinity>
-5.29095221

$$$$

 OpenBabel03242517013D

 29 31  0  0  0  0  0  0  0  0999 V2000
   37.3800   30.0730   38.1070 C   0  0  0  0  0  0  0  0  0  0  0  0
   37.1140   30.2270   36.7580 C   0  0  0  0  0  0  0  0  0  0  0  0
   36.1100   29.4660   36.1880 C   0  0  0  0  0  0  0  0  0  0  0  0
   35.4040   28.5790   36.9620 C   0  0  0  0  0  0  0  0  0  0  0  0
   35.6460   28.4050   38.2960 C   0  0  0  0  0  0  0  0  0  0  0  0
   36.6650   29.1870   38.8490 C   0  0  0  0  0  0  0  0  0  0  0  0
   37.6740   30.9310   36.1410 H   0  0  0  0  0  0  0  0  0  0  0  0
   35.9240   29.6050   35.1400 H   0  0  0  0  0  0  0  0  0  0  0  0
   34.6320   28.0100   36.4650 H   0  0  0  0  0  0  0  0  0  0  0  0
   35.0980   27.7100   38.9240 H   0  0  0  0  0  0  0  0  0  0  0  0
   39.4360   32.9240   39.4940 C   0  0  0  0  0  0  0  0  0  0  0  0
   38.3220   32.2340   38.9720 C   0  0  0  0  0  0  0  0  0  0  0  0
   38.4500   30.9030   38.6530 C   0  0  0  0  0  0  0  0  0  0  0  0
   39.6700   30.3300   38.8680 N   0  0  0  0  0  0  0  0  0  0  0  0
   40.7350   30.9850   39.3660 C   0  0  0  0  0  0  0  0  0  0  0  0
   40.6110   32.3120   39.6850 N   0  0  0  0  0  0  0  0  0  0  0  0
   39.2490   33.9640   39.7170 H   0  0  0  0  0  0  0  0  0  0  0  0
   37.3640   32.6980   38.8060 H   0  0  0  0  0  0  0  0  0  0  0  0
   41.6740   30.4530   39.5080 H   0  0  0  0  0  0  0  0  0  0  0  0
   36.7750   29.9130   41.3600 C   0  0  0  0  0  0  0  0  0  0  0  0
   36.1460   30.9700   41.4110 O   0  0  0  0  0  0  0  0  0  0  0  0
   37.0180   29.1060   40.2190 N   0  0  0  0  0  0  0  0  0  0  0  0
   37.5710   28.2140   40.2430 H   0  0  0  0  0  0  0  0  0  0  0  0
   37.3840   29.3600   42.6280 C   0  0  0  0  0  3  0  0  0  0  0  0
   38.7920   29.8640   42.6460 C   0  0  0  0  0  2  0  0  0  0  0  0
   39.6520   28.7530   42.0490 C   0  0  0  0  0  2  0  0  0  0  0  0
   39.7170   27.6940   43.1560 C   0  0  0  0  0  2  0  0  0  0  0  0
   38.3430   27.0990   43.2370 C   0  0  0  0  0  2  0  0  0  0  0  0
   37.2680   27.8740   42.5480 C   0  0  0  0  0  2  0  0  0  0  0  0
  1 13  1  0  0  0  0
  1  6  1  0  0  0  0
  2  1  2  0  0  0  0
  3  2  1  0  0  0  0
  3  4  2  0  0  0  0
  4  5  1  0  0  0  0
  5  6  2  0  0  0  0
  5 10  1  0  0  0  0
  6 22  1  0  0  0  0
  7  2  1  0  0  0  0
  8  3  1  0  0  0  0
  9  4  1  0  0  0  0
 11 16  1  0  0  0  0
 11 17  1  0  0  0  0
 12 11  2  0  0  0  0
 13 14  2  0  0  0  0
 13 12  1  0  0  0  0
 14 15  1  0  0  0  0
 15 19  1  0  0  0  0
 15 16  2  0  0  0  0
 18 12  1  0  0  0  0
 20 21  2  0  0  0  0
 20 24  1  0  0  0  0
 22 23  1  0  0  0  0
 22 20  1  0  0  0  0
 24 25  1  0  0  0  0
 26 25  1  0  0  0  0
 26 27  1  0  0  0  0
 27 28  1  0  0  0  0
 29 24  1  0  0  0  0
 29 28  1  0  0  0  0
M  END
>  <minimizedAffinity>
-5.27834511

$$$$

 OpenBabel03242517013D

 29 31  0  0  0  0  0  0  0  0999 V2000
   40.1970   28.8740   42.3110 C   0  0  0  0  0  0  0  0  0  0  0  0
   41.1300   28.1050   42.9840 C   0  0  0  0  0  0  0  0  0  0  0  0
   40.6970   26.9800   43.6620 C   0  0  0  0  0  0  0  0  0  0  0  0
   39.3660   26.6500   43.6570 C   0  0  0  0  0  0  0  0  0  0  0  0
   38.4220   27.3910   43.0010 C   0  0  0  0  0  0  0  0  0  0  0  0
   38.8840   28.5240   42.3230 C   0  0  0  0  0  0  0  0  0  0  0  0
   42.1890   28.3660   42.9900 H   0  0  0  0  0  0  0  0  0  0  0  0
   41.4420   26.4010   44.1760 H   0  0  0  0  0  0  0  0  0  0  0  0
   39.0840   25.7620   44.2030 H   0  0  0  0  0  0  0  0  0  0  0  0
   37.3650   27.1470   42.9850 H   0  0  0  0  0  0  0  0  0  0  0  0
   41.8030   32.1800   41.4310 C   0  0  0  0  0  0  0  0  0  0  0  0
   41.3530   31.1020   42.2210 C   0  0  0  0  0  0  0  0  0  0  0  0
   40.7110   30.0490   41.6130 C   0  0  0  0  0  0  0  0  0  0  0  0
   40.5510   30.1210   40.2590 N   0  0  0  0  0  0  0  0  0  0  0  0
   40.9780   31.1480   39.5010 C   0  0  0  0  0  0  0  0  0  0  0  0
   41.6190   32.1990   40.1050 N   0  0  0  0  0  0  0  0  0  0  0  0
   42.2960   32.9620   41.9870 H   0  0  0  0  0  0  0  0  0  0  0  0
   41.4850   31.0570   43.2900 H   0  0  0  0  0  0  0  0  0  0  0  0
   40.8110   31.1280   38.4270 H   0  0  0  0  0  0  0  0  0  0  0  0
   36.7360   29.2240   41.0040 C   0  0  0  0  0  0  0  0  0  0  0  0
   36.0400   28.2080   40.9700 O   0  0  0  0  0  0  0  0  0  0  0  0
   38.0120   29.3790   41.6030 N   0  0  0  0  0  0  0  0  0  0  0  0
   38.5570   30.2750   41.5910 H   0  0  0  0  0  0  0  0  0  0  0  0
   36.2230   30.4850   40.3470 C   0  0  0  0  0  3  0  0  0  0  0  0
   36.1770   30.1800   38.8840 C   0  0  0  0  0  2  0  0  0  0  0  0
   37.4830   30.7070   38.2940 C   0  0  0  0  0  2  0  0  0  0  0  0
   37.2970   32.2280   38.2730 C   0  0  0  0  0  2  0  0  0  0  0  0
   37.3300   32.6680   39.7050 C   0  0  0  0  0  2  0  0  0  0  0  0
   37.1720   31.5760   40.7140 C   0  0  0  0  0  2  0  0  0  0  0  0
  1  6  2  0  0  0  0
  1  2  1  0  0  0  0
  2  7  1  0  0  0  0
  2  3  2  0  0  0  0
  3  8  1  0  0  0  0
  4  3  1  0  0  0  0
  4  9  1  0  0  0  0
  5  4  2  0  0  0  0
  6  5  1  0  0  0  0
 10  5  1  0  0  0  0
 11 17  1  0  0  0  0
 11 12  1  0  0  0  0
 12 18  1  0  0  0  0
 13 12  2  0  0  0  0
 13  1  1  0  0  0  0
 14 13  1  0  0  0  0
 15 16  1  0  0  0  0
 15 14  2  0  0  0  0
 16 11  2  0  0  0  0
 19 15  1  0  0  0  0
 20 22  1  0  0  0  0
 21 20  2  0  0  0  0
 22  6  1  0  0  0  0
 23 22  1  0  0  0  0
 24 29  1  0  0  0  0
 24 20  1  0  0  0  0
 25 24  1  0  0  0  0
 26 25  1  0  0  0  0
 27 26  1  0  0  0  0
 27 28  1  0  0  0  0
 28 29  1  0  0  0  0
M  END
>  <minimizedAffinity>
-5.27797174

$$$$
