REMARK  Name = 
REMARK  3 active torsions:
REMARK  status: ('A' for Active; 'I' for Inactive)
REMARK    1  A    between atoms: C_2  and  C_7
REMARK    2  A    between atoms: C_7  and  C_8
REMARK    3  A    between atoms: C_7  and  C_16
REMARK                            x       y       z     vdW  Elec       q    Type
REMARK                         _______ _______ _______ _____ _____    ______ ____
ROOT
ATOM      1  C   UNL     1      46.542  34.987  42.012  0.00  0.00    +0.000 C 
ATOM      2  H   UNL     1      46.010  35.953  41.849  0.00  0.00    +0.000 HD
ENDROOT
BRANCH   1   4
ATOM      3  C   UNL     1      45.187  35.221  44.047  0.00  0.00    +0.000 A 
ATOM      4  C   UNL     1      46.239  34.552  43.372  0.00  0.00    +0.000 A 
ATOM      5  C   UNL     1      46.912  33.540  44.061  0.00  0.00    +0.000 A 
ATOM      6  N   UNL     1      46.513  33.265  45.326  0.00  0.00    +0.000 NA
ATOM      7  C   UNL     1      45.516  33.918  45.929  0.00  0.00    +0.000 A 
ATOM      8  N   UNL     1      44.840  34.897  45.312  0.00  0.00    +0.000 NA
ATOM      9  H   UNL     1      44.628  36.014  43.569  0.00  0.00    +0.000 HD
ATOM     10  H   UNL     1      47.721  33.016  43.576  0.00  0.00    +0.000 HD
ATOM     11  H   UNL     1      45.182  33.711  46.947  0.00  0.00    +0.000 HD
ENDBRANCH   1   4
BRANCH   1  12
ATOM     12  C   UNL     1      46.033  34.066  40.923  0.00  0.00    +0.000 C 
ATOM     13  C   UNL     1      47.066  33.831  39.861  0.00  0.00    +0.000 C 
ATOM     14  C   UNL     1      46.849  32.555  39.090  0.00  0.00    +0.000 C 
ATOM     15  C   UNL     1      45.373  32.199  39.056  0.00  0.00    +0.000 C 
ATOM     16  C   UNL     1      45.019  31.806  40.453  0.00  0.00    +0.000 C 
ATOM     17  C   UNL     1      45.401  32.822  41.455  0.00  0.00    +0.000 C 
ENDBRANCH   1  12
BRANCH   1  18
ATOM     18  C   UNL     1      48.047  35.205  41.947  0.00  0.00    +0.000 C 
ATOM     19  H   UNL     1      48.500  35.340  42.951  0.00  0.00    +0.000 HD
ATOM     20  H   UNL     1      48.549  34.428  41.348  0.00  0.00    +0.000 HD
ATOM     21  H   UNL     1      48.209  36.153  41.394  0.00  0.00    +0.000 HD
ENDBRANCH   1  18
TORSDOF 3
