
     RDKit          3D

 34 35  0  0  0  0  0  0  0  0999 V2000
   46.5344   33.6265   44.3369 C   0  0  0  0  0  0  0  0  0  0  0  0
   46.2439   33.2138   45.6486 C   0  0  0  0  0  0  0  0  0  0  0  0
   45.2991   33.9066   46.3654 C   0  0  0  0  0  0  0  0  0  0  0  0
   44.6936   34.9572   45.7640 N   0  0  0  0  0  0  0  0  0  0  0  0
   44.9648   35.3556   44.5156 C   0  0  0  0  0  0  0  0  0  0  0  0
   45.8956   34.6815   43.7969 N   0  0  0  0  0  0  0  0  0  0  0  0
   45.0494   33.4665   47.6478 O   0  0  0  0  0  0  0  0  0  0  0  0
   45.3361   30.8670   47.4643 O   0  0  0  0  0  0  0  0  0  0  0  0
   45.8136   32.0962   48.2684 P   0  0  2  0  0  0  0  0  0  0  0  0
   45.3256   31.8283   49.8548 O   0  0  0  0  0  0  0  0  0  0  0  0
   47.4563   32.2219   48.1226 O   0  0  0  0  0  0  0  0  0  0  0  0
   48.4676   31.4328   48.5453 C   0  0  0  0  0  0  0  0  0  0  0  0
   49.2101   31.9881   49.4325 O   0  0  0  0  0  0  0  0  0  0  0  0
   47.2580   33.1538   43.6879 H   0  0  0  0  0  0  0  0  0  0  0  0
   46.8281   32.3735   45.9150 H   0  0  0  0  0  0  0  0  0  0  0  0
   44.3804   36.2130   44.2084 H   0  0  0  0  0  0  0  0  0  0  0  0
   45.6500   32.4884   50.4983 H   0  0  0  0  0  0  0  0  0  0  0  0
   49.2854   30.1934   48.5782 C   0  0  0  0  0  0  0  0  0  0  0  0
   50.1867   30.1526   49.7811 C   0  0  0  0  0  0  0  0  0  0  0  0
   51.4035   30.9871   49.7306 C   0  0  0  0  0  0  0  0  0  0  0  0
   52.1308   30.9530   48.4123 C   0  0  0  0  0  0  0  0  0  0  0  0
   51.1977   31.1463   47.2681 C   0  0  0  0  0  0  0  0  0  0  0  0
   50.0575   30.1574   47.2775 C   0  0  0  0  0  0  0  0  0  0  0  0
   48.7325   29.2481   48.6175 H   0  0  0  0  0  0  0  0  0  0  0  0
   49.6018   30.4036   50.6863 H   0  0  0  0  0  0  0  0  0  0  0  0
   50.5035   29.0808   49.9641 H   0  0  0  0  0  0  0  0  0  0  0  0
   52.1378   30.5387   50.4666 H   0  0  0  0  0  0  0  0  0  0  0  0
   51.2558   32.0160   50.1043 H   0  0  0  0  0  0  0  0  0  0  0  0
   52.8213   31.8415   48.4324 H   0  0  0  0  0  0  0  0  0  0  0  0
   52.6744   30.0048   48.2768 H   0  0  0  0  0  0  0  0  0  0  0  0
   50.8382   32.1831   47.1739 H   0  0  0  0  0  0  0  0  0  0  0  0
   51.7666   30.9491   46.3248 H   0  0  0  0  0  0  0  0  0  0  0  0
   50.4165   29.1421   47.0131 H   0  0  0  0  0  0  0  0  0  0  0  0
   49.3536   30.4599   46.4744 H   0  0  0  0  0  0  0  0  0  0  0  0
  1  2  2  0
  2  3  1  0
  3  7  1  0
  4  3  2  0
  5  4  1  0
  6  1  1  0
  6  5  2  0
  9  7  1  6
  9  8  2  0
  9 10  1  0
 11  9  1  0
 11 12  1  0
 12 13  2  0
  1 14  1  0
  2 15  1  0
  5 16  1  0
 10 17  1  0
 18 19  1  0
 19 20  1  0
 20 21  1  0
 21 22  1  0
 22 23  1  0
 23 18  1  0
 18 24  1  0
 19 25  1  0
 19 26  1  0
 20 27  1  0
 20 28  1  0
 21 29  1  0
 21 30  1  0
 22 31  1  0
 22 32  1  0
 23 33  1  0
 23 34  1  0
 12 18  1  0
M  ISO  4  14  14  15  14  16  14  17   3
M  END
>  <DihAtoms>  (1) 
10,11,17,18

>  <DihDeg>  (1) 
179.48205074285886

$$$$
