
     RDKit          3D

 34 35  0  0  0  0  0  0  0  0999 V2000
   46.5344   33.6265   44.3369 C   0  0  0  0  0  0  0  0  0  0  0  0
   46.2439   33.2138   45.6486 C   0  0  0  0  0  0  0  0  0  0  0  0
   45.2991   33.9066   46.3654 C   0  0  0  0  0  0  0  0  0  0  0  0
   44.6936   34.9572   45.7640 N   0  0  0  0  0  0  0  0  0  0  0  0
   44.9648   35.3556   44.5156 C   0  0  0  0  0  0  0  0  0  0  0  0
   45.8956   34.6815   43.7969 N   0  0  0  0  0  0  0  0  0  0  0  0
   45.0494   33.4665   47.6478 O   0  0  0  0  0  0  0  0  0  0  0  0
   45.3361   30.8670   47.4643 O   0  0  0  0  0  0  0  0  0  0  0  0
   45.8136   32.0962   48.2684 P   0  0  2  0  0  0  0  0  0  0  0  0
   45.3256   31.8283   49.8548 O   0  0  0  0  0  0  0  0  0  0  0  0
   47.4563   32.2219   48.1226 O   0  0  0  0  0  0  0  0  0  0  0  0
   48.4676   31.4328   48.5453 C   0  0  0  0  0  0  0  0  0  0  0  0
   49.2101   31.9881   49.4325 O   0  0  0  0  0  0  0  0  0  0  0  0
   47.2580   33.1538   43.6879 H   0  0  0  0  0  0  0  0  0  0  0  0
   46.8281   32.3735   45.9150 H   0  0  0  0  0  0  0  0  0  0  0  0
   44.3804   36.2130   44.2084 H   0  0  0  0  0  0  0  0  0  0  0  0
   45.6500   32.4884   50.4983 H   0  0  0  0  0  0  0  0  0  0  0  0
   49.2854   30.1934   48.5782 C   0  0  0  0  0  0  0  0  0  0  0  0
   49.9069   29.9719   49.9294 C   0  0  0  0  0  0  0  0  0  0  0  0
   51.0878   30.7929   50.2623 C   0  0  0  0  0  0  0  0  0  0  0  0
   52.0828   30.9406   49.1415 C   0  0  0  0  0  0  0  0  0  0  0  0
   51.4143   31.3050   47.8617 C   0  0  0  0  0  0  0  0  0  0  0  0
   50.3203   30.3363   47.4838 C   0  0  0  0  0  0  0  0  0  0  0  0
   48.7574   29.2578   48.3624 H   0  0  0  0  0  0  0  0  0  0  0  0
   49.1353   30.0965   50.7128 H   0  0  0  0  0  0  0  0  0  0  0  0
   50.1997   28.8818   50.0226 H   0  0  0  0  0  0  0  0  0  0  0  0
   51.6557   30.2365   51.0686 H   0  0  0  0  0  0  0  0  0  0  0  0
   50.8410   31.7591   50.7373 H   0  0  0  0  0  0  0  0  0  0  0  0
   52.7335   31.8102   49.4364 H   0  0  0  0  0  0  0  0  0  0  0  0
   52.6629   30.0162   48.9936 H   0  0  0  0  0  0  0  0  0  0  0  0
   51.0615   32.3482   47.8400 H   0  0  0  0  0  0  0  0  0  0  0  0
   52.1773   31.2392   47.0457 H   0  0  0  0  0  0  0  0  0  0  0  0
   50.7495   29.3658   47.1620 H   0  0  0  0  0  0  0  0  0  0  0  0
   49.7998   30.7576   46.5986 H   0  0  0  0  0  0  0  0  0  0  0  0
  1  2  2  0
  2  3  1  0
  3  7  1  0
  4  3  2  0
  5  4  1  0
  6  1  1  0
  6  5  2  0
  9  7  1  6
  9  8  2  0
  9 10  1  0
 11  9  1  0
 11 12  1  0
 12 13  2  0
  1 14  1  0
  2 15  1  0
  5 16  1  0
 10 17  1  0
 18 19  1  0
 19 20  1  0
 20 21  1  0
 21 22  1  0
 22 23  1  0
 23 18  1  0
 18 24  1  0
 19 25  1  0
 19 26  1  0
 20 27  1  0
 20 28  1  0
 21 29  1  0
 21 30  1  0
 22 31  1  0
 22 32  1  0
 23 33  1  0
 23 34  1  0
 12 18  1  0
M  ISO  4  14  14  15  14  16  14  17   3
M  END
>  <DihAtoms>  (1) 
10,11,17,18

>  <DihDeg>  (1) 
179.48205074285886

$$$$
