
 OpenBabel03252509263D

 27 29  0  0  1  0  0  0  0  0999 V2000
   47.0550   35.2050   41.7860 C   0  0  1  0  0  0  0  0  0  0  0  0
   48.5540   35.6090   41.8920 C   0  0  0  0  0  0  0  0  0  0  0  0
   47.9710   34.3960   41.0970 C   0  0  2  0  0  0  0  0  0  0  0  0
   46.4320   35.9800   41.2900 H   0  0  0  0  0  0  0  0  0  0  0  0
   48.8640   36.4390   41.2260 H   0  0  0  0  0  0  0  0  0  0  0  0
   49.0940   35.4120   42.8120 H   0  0  0  0  0  0  0  0  0  0  0  0
   48.2650   33.4180   41.5920 H   0  0  0  0  0  0  0  0  0  0  0  0
   44.9870   34.8480   44.8970 C   0  0  0  0  0  0  0  0  0  0  0  0
   45.4360   35.3780   43.6540 C   0  0  0  0  0  0  0  0  0  0  0  0
   46.5290   34.7680   43.1320 C   0  0  0  0  0  0  0  0  0  0  0  0
   47.1550   33.7150   43.7640 N   0  0  0  0  0  0  0  0  0  0  0  0
   46.6980   33.2390   44.9490 C   0  0  0  0  0  0  0  0  0  0  0  0
   45.6030   33.8160   45.5140 N   0  0  0  0  0  0  0  0  0  0  0  0
   44.1040   35.3430   45.3160 H   0  0  0  0  0  0  0  0  0  0  0  0
   47.1520   32.4260   45.4750 H   0  0  0  0  0  0  0  0  0  0  0  0
   44.8100   36.4720   43.0110 N   0  0  0  0  0  0  0  0  0  0  0  0
   44.2040   36.4460   42.1450 H   0  0  0  0  0  0  0  0  0  0  0  0
   44.8890   37.4780   43.3490 H   0  0  0  0  0  0  0  0  0  0  0  0
   48.0890   34.4220   39.5870 C   0  0  0  0  0  0  0  0  0  0  0  0
   47.1860   34.9020   39.1510 H   0  0  0  0  0  0  0  0  0  0  0  0
   48.9820   35.0390   39.3080 H   0  0  0  0  0  0  0  0  0  0  0  0
   48.2260   32.9990   39.0790 C   0  0  0  0  0  3  0  0  0  0  0  0
   49.2190   32.2210   39.8670 C   0  0  0  0  0  2  0  0  0  0  0  0
   48.9690   30.7780   40.0660 C   0  0  0  0  0  2  0  0  0  0  0  0
   47.9970   30.2690   39.0210 C   0  0  0  0  0  2  0  0  0  0  0  0
   46.7060   30.9970   39.3520 C   0  0  0  0  0  2  0  0  0  0  0  0
   46.8830   32.4170   38.8980 C   0  0  0  0  0  2  0  0  0  0  0  0
  1  4  1  6  0  0  0
  1  2  1  0  0  0  0
  1 10  1  0  0  0  0
  2  6  1  0  0  0  0
  3  7  1  1  0  0  0
  3  1  1  0  0  0  0
  3  2  1  0  0  0  0
  5  2  1  0  0  0  0
  8 14  1  0  0  0  0
  8 13  1  0  0  0  0
  9  8  2  0  0  0  0
 10  9  1  0  0  0  0
 10 11  2  0  0  0  0
 11 12  1  0  0  0  0
 12 15  1  0  0  0  0
 12 13  2  0  0  0  0
 16 18  1  0  0  0  0
 16  9  1  0  0  0  0
 17 16  1  0  0  0  0
 19  3  1  0  0  0  0
 20 19  1  0  0  0  0
 21 19  1  0  0  0  0
 22 19  1  0  0  0  0
 22 23  1  0  0  0  0
 23 24  1  0  0  0  0
 25 26  1  0  0  0  0
 25 24  1  0  0  0  0
 27 22  1  0  0  0  0
 27 26  1  0  0  0  0
M  END
>  <minimizedAffinity>
-4.50676632

>  <minimizedRMSD>
0.979480982

$$$$
