
 OpenBabel03242518543D

 39 41  0  0  1  0  0  0  0  0999 V2000
   45.8470   31.3030   46.4370 C   0  0  2  0  0  0  0  0  0  0  0  0
   45.5110   30.6560   47.7430 C   0  0  0  0  0  0  0  0  0  0  0  0
   44.8900   29.3420   47.4270 C   0  0  0  0  0  0  0  0  0  0  0  0
   44.6990   29.0490   45.9740 C   0  0  0  0  0  0  0  0  0  0  0  0
   45.9980   29.1940   45.2300 C   0  0  0  0  0  0  0  0  0  0  0  0
   46.7450   30.3740   45.6440 C   0  0  2  0  0  0  0  0  0  0  0  0
   44.9270   31.3770   45.8200 H   0  0  0  0  0  0  0  0  0  0  0  0
   46.3690   30.6080   48.4430 H   0  0  0  0  0  0  0  0  0  0  0  0
   44.7860   31.3520   48.2710 H   0  0  0  0  0  0  0  0  0  0  0  0
   43.8400   29.3720   47.8520 H   0  0  0  0  0  0  0  0  0  0  0  0
   45.3310   28.4660   47.9580 H   0  0  0  0  0  0  0  0  0  0  0  0
   43.8780   29.6530   45.5250 H   0  0  0  0  0  0  0  0  0  0  0  0
   44.3380   27.9990   45.9120 H   0  0  0  0  0  0  0  0  0  0  0  0
   45.6960   29.3030   44.1430 H   0  0  0  0  0  0  0  0  0  0  0  0
   46.4880   28.2070   45.2660 H   0  0  0  0  0  0  0  0  0  0  0  0
   47.0680   30.9620   44.7670 H   0  0  0  0  0  0  0  0  0  0  0  0
   47.8630   29.8900   46.4920 C   0  0  0  0  0  0  0  0  0  0  0  0
   47.5730   29.9280   47.5600 H   0  0  0  0  0  0  0  0  0  0  0  0
   48.7340   30.5810   46.2960 H   0  0  0  0  0  0  0  0  0  0  0  0
   48.3680   28.5080   46.2510 C   0  0  0  0  0  3  0  0  0  0  0  0
   49.7430   28.4690   45.6340 C   0  0  0  0  0  2  0  0  0  0  0  0
   50.7360   27.7310   46.5140 C   0  0  0  0  0  2  0  0  0  0  0  0
   50.1870   26.3440   46.7630 C   0  0  0  0  0  2  0  0  0  0  0  0
   48.9800   26.5040   47.6360 C   0  0  0  0  0  2  0  0  0  0  0  0
   48.3830   27.8620   47.6440 C   0  0  0  0  0  2  0  0  0  0  0  0
   46.4190   32.6680   46.5740 C   0  0  0  0  0  0  0  0  0  0  0  0
   47.2200   32.9930   47.4820 O   0  0  0  0  0  0  0  0  0  0  0  0
   44.6320   35.4120   44.9510 C   0  0  0  0  0  0  0  0  0  0  0  0
   45.2160   35.5040   43.6640 C   0  0  0  0  0  0  0  0  0  0  0  0
   46.2320   34.6050   43.3900 C   0  0  0  0  0  0  0  0  0  0  0  0
   46.5340   33.7620   44.3770 N   0  0  0  0  0  0  0  0  0  0  0  0
   45.9990   33.6680   45.5740 C   0  0  0  0  0  0  0  0  0  0  0  0
   45.0120   34.5290   45.8650 N   0  0  0  0  0  0  0  0  0  0  0  0
   43.8200   36.1150   45.2020 H   0  0  0  0  0  0  0  0  0  0  0  0
   44.8710   36.2440   42.9530 H   0  0  0  0  0  0  0  0  0  0  0  0
   46.8340   34.6830   42.0690 C   0  0  0  0  0  0  0  0  0  0  0  0
   47.5850   33.5360   41.8270 F   0  0  0  0  0  0  0  0  0  0  0  0
   47.6640   35.7570   42.0720 F   0  0  0  0  0  0  0  0  0  0  0  0
   45.8840   34.7210   41.0540 F   0  0  0  0  0  0  0  0  0  0  0  0
  1  7  1  6  0  0  0
  1 26  1  0  0  0  0
  1  2  1  0  0  0  0
  2  9  1  0  0  0  0
  2  8  1  0  0  0  0
  3  2  1  0  0  0  0
  3 10  1  0  0  0  0
  3 11  1  0  0  0  0
  4  3  1  0  0  0  0
  5 15  1  0  0  0  0
  5  6  1  0  0  0  0
  5  4  1  0  0  0  0
  6 16  1  6  0  0  0
  6  1  1  0  0  0  0
  6 17  1  0  0  0  0
 12  4  1  0  0  0  0
 13  4  1  0  0  0  0
 14  5  1  0  0  0  0
 17 18  1  0  0  0  0
 19 17  1  0  0  0  0
 20 17  1  0  0  0  0
 20 25  1  0  0  0  0
 21 20  1  0  0  0  0
 21 22  1  0  0  0  0
 22 23  1  0  0  0  0
 23 24  1  0  0  0  0
 24 25  1  0  0  0  0
 26 27  2  0  0  0  0
 28 34  1  0  0  0  0
 28 33  1  0  0  0  0
 29 28  2  0  0  0  0
 30 29  1  0  0  0  0
 30 31  2  0  0  0  0
 31 32  1  0  0  0  0
 32 33  2  0  0  0  0
 32 26  1  0  0  0  0
 35 29  1  0  0  0  0
 36 38  1  0  0  0  0
 36 30  1  0  0  0  0
 37 36  1  0  0  0  0
 39 36  1  0  0  0  0
M  END
>  <minimizedAffinity>
-5.16401291

>  <minimizedRMSD>
0.675572157

$$$$
