
     RDKit          3D

 55 58  0  0  0  0  0  0  0  0999 V2000
   43.1982   33.2309   41.1641 C   0  0  0  0  0  0  0  0  0  0  0  0
   44.2285   34.0778   41.7862 C   0  0  0  0  0  0  0  0  0  0  0  0
   43.8837   35.2585   42.4012 C   0  0  0  0  0  0  0  0  0  0  0  0
   44.8878   36.0312   42.9609 C   0  0  0  0  0  0  0  0  0  0  0  0
   46.1781   35.5748   42.8737 N   0  0  0  0  0  0  0  0  0  0  0  0
   46.4720   34.4279   42.2734 C   0  0  0  0  0  0  0  0  0  0  0  0
   45.4857   33.7042   41.7410 N   0  0  0  0  0  0  0  0  0  0  0  0
   47.8726   34.0092   42.2566 C   0  0  0  0  0  0  0  0  0  0  0  0
   48.2046   32.6774   42.0279 C   0  0  0  0  0  0  0  0  0  0  0  0
   49.5262   32.2857   42.0254 C   0  0  0  0  0  0  0  0  0  0  0  0
   50.4205   33.2978   42.2598 C   0  0  0  0  0  0  0  0  0  0  0  0
   50.1446   34.6472   42.4946 C   0  0  0  0  0  0  0  0  0  0  0  0
   48.8186   34.9408   42.4787 N   0  0  0  0  0  0  0  0  0  0  0  0
   41.8999   33.9555   41.2146 C   0  0  0  0  0  0  0  0  0  0  0  0
   41.0031   33.5020   40.3388 N   0  0  0  0  0  0  0  0  0  0  0  0
   40.3354   32.2453   40.3311 C   0  0  0  0  0  0  0  0  0  0  0  0
   38.9539   32.7101   40.7914 C   0  0  0  0  0  0  0  0  0  0  0  0
   38.3328   33.6843   39.9115 C   0  0  0  0  0  0  0  0  0  0  0  0
   39.1680   34.4984   39.0551 C   0  0  0  0  0  0  0  0  0  0  0  0
   40.6645   34.4593   39.2553 C   0  0  0  0  0  0  0  0  0  0  0  0
   41.7632   35.4406   38.3538 S   0  0  0  0  0  0  0  0  0  0  0  0
   43.1022   32.2955   41.7882 H   0  0  0  0  0  0  0  0  0  0  0  0
   43.4661   32.9485   40.1292 H   0  0  0  0  0  0  0  0  0  0  0  0
   42.9534   35.7676   42.5849 H   0  0  0  0  0  0  0  0  0  0  0  0
   44.8087   36.9836   43.4804 H   0  0  0  0  0  0  0  0  0  0  0  0
   47.4425   31.9190   41.8477 H   0  0  0  0  0  0  0  0  0  0  0  0
   49.8817   31.2801   41.8581 H   0  0  0  0  0  0  0  0  0  0  0  0
   51.4848   33.0345   42.2676 H   0  0  0  0  0  0  0  0  0  0  0  0
   50.9152   35.3559   42.6666 H   0  0  0  0  0  0  0  0  0  0  0  0
   42.1855   35.0516   41.0612 H   0  0  0  0  0  0  0  0  0  0  0  0
   41.5340   33.9408   42.2650 H   0  0  0  0  0  0  0  0  0  0  0  0
   40.7599   31.6558   41.1929 H   0  0  0  0  0  0  0  0  0  0  0  0
   40.3363   31.6510   39.4334 H   0  0  0  0  0  0  0  0  0  0  0  0
   38.3479   31.7763   40.8765 H   0  0  0  0  0  0  0  0  0  0  0  0
   39.0946   33.0601   41.8502 H   0  0  0  0  0  0  0  0  0  0  0  0
   37.5930   33.1615   39.2366 H   0  0  0  0  0  0  0  0  0  0  0  0
   37.6831   34.3720   40.5137 H   0  0  0  0  0  0  0  0  0  0  0  0
   38.8449   35.1550   38.2972 H   0  0  0  0  0  0  0  0  0  0  0  0
   41.1398   36.5394   37.1200 C   0  0  0  0  0  0  0  0  0  0  0  0
   42.1498   37.2420   36.2661 C   0  0  0  0  0  0  0  0  0  0  0  0
   41.4332   38.3318   35.4891 C   0  0  0  0  0  0  0  0  0  0  0  0
   39.9895   37.9795   35.1917 C   0  0  0  0  0  0  0  0  0  0  0  0
   39.1831   37.8347   36.4669 C   0  0  0  0  0  0  0  0  0  0  0  0
   40.1575   37.5832   37.6266 C   0  0  0  0  0  0  0  0  0  0  0  0
   40.5425   35.8966   36.3874 H   0  0  0  0  0  0  0  0  0  0  0  0
   42.9627   37.7126   36.8303 H   0  0  0  0  0  0  0  0  0  0  0  0
   42.5541   36.5426   35.5039 H   0  0  0  0  0  0  0  0  0  0  0  0
   41.4295   39.3067   36.0177 H   0  0  0  0  0  0  0  0  0  0  0  0
   41.8963   38.5334   34.5031 H   0  0  0  0  0  0  0  0  0  0  0  0
   39.8894   37.1005   34.5261 H   0  0  0  0  0  0  0  0  0  0  0  0
   39.5752   38.8493   34.6434 H   0  0  0  0  0  0  0  0  0  0  0  0
   38.5218   36.9494   36.4434 H   0  0  0  0  0  0  0  0  0  0  0  0
   38.5776   38.7286   36.6989 H   0  0  0  0  0  0  0  0  0  0  0  0
   39.6516   37.3016   38.5483 H   0  0  0  0  0  0  0  0  0  0  0  0
   40.6452   38.5783   37.7836 H   0  0  0  0  0  0  0  0  0  0  0  0
  1 14  1  0
  1  2  1  0
  2  3  2  0
  3  4  1  0
  5  4  2  0
  6  5  1  0
  7  2  1  0
  7  6  2  0
  8  6  1  0
  8 13  1  0
  9  8  2  0
 10  9  1  0
 10 11  2  0
 11 12  1  0
 13 12  2  0
 15 14  1  0
 16 15  1  0
 16 17  1  0
 18 17  1  0
 19 20  2  0
 19 18  1  0
 20 15  1  0
 21 20  1  0
  1 22  1  0
  1 23  1  0
  3 24  1  0
  4 25  1  0
  9 26  1  0
 10 27  1  0
 11 28  1  0
 12 29  1  0
 14 30  1  0
 14 31  1  0
 16 32  1  0
 16 33  1  0
 17 34  1  0
 17 35  1  0
 18 36  1  0
 18 37  1  0
 19 38  1  0
 39 40  1  0
 40 41  1  0
 41 42  1  0
 42 43  1  0
 43 44  1  0
 44 39  1  0
 39 45  1  0
 40 46  1  0
 40 47  1  0
 41 48  1  0
 41 49  1  0
 42 50  1  0
 42 51  1  0
 43 52  1  0
 43 53  1  0
 44 54  1  0
 44 55  1  0
 21 39  1  0
M  ISO  8  22   8  23   8  24  14  25  14  26  14  27  14  28  14  29  14
M  ISO  8  30   8  31   8  32  13  33  13  34  13  35  13  36  13  37  13
M  ISO  1  38  13
M  END
>  <DihAtoms>  (1) 
19,20,38,39

>  <DihDeg>  (1) 
66.94366861289711

$$$$
