
 OpenBabel03252509293D

 18 19  0  0  0  0  0  0  0  0999 V2000
   44.7320   35.2600   44.9940 C   0  0  0  0  0  0  0  0  0  0  0  0
   45.7320   34.7510   44.1300 C   0  0  0  0  0  0  0  0  0  0  0  0
   46.5230   33.7110   44.6120 C   0  0  0  0  0  0  0  0  0  0  0  0
   46.3100   33.2330   45.8700 N   0  0  0  0  0  0  0  0  0  0  0  0
   45.3320   33.7580   46.6660 C   0  0  0  0  0  0  0  0  0  0  0  0
   44.5520   34.7620   46.2270 N   0  0  0  0  0  0  0  0  0  0  0  0
   44.1100   36.0660   44.6380 H   0  0  0  0  0  0  0  0  0  0  0  0
   45.8360   35.1820   43.1560 H   0  0  0  0  0  0  0  0  0  0  0  0
   45.1650   33.3830   47.6540 H   0  0  0  0  0  0  0  0  0  0  0  0
   47.5520   33.1900   43.7150 C   0  0  0  0  0  0  0  0  0  0  0  0
   48.5070   33.1760   44.2820 H   0  0  0  0  0  0  0  0  0  0  0  0
   47.3650   32.1650   43.3710 H   0  0  0  0  0  0  0  0  0  0  0  0
   47.8010   34.0600   42.5130 C   0  0  0  0  0  3  0  0  0  0  0  0
   49.1250   34.7620   42.5120 C   0  0  0  0  0  2  0  0  0  0  0  0
   48.9990   35.8780   41.4730 C   0  0  0  0  0  2  0  0  0  0  0  0
   48.8100   35.2130   40.1370 C   0  0  0  0  0  2  0  0  0  0  0  0
   47.5540   34.3740   40.1300 C   0  0  0  0  0  2  0  0  0  0  0  0
   47.6880   33.2940   41.2100 C   0  0  0  0  0  2  0  0  0  0  0  0
  1  6  1  0  0  0  0
  2  3  1  0  0  0  0
  2  1  2  0  0  0  0
  3  4  2  0  0  0  0
  4  5  1  0  0  0  0
  5  9  1  0  0  0  0
  6  5  2  0  0  0  0
  7  1  1  0  0  0  0
  8  2  1  0  0  0  0
 10 11  1  0  0  0  0
 10  3  1  0  0  0  0
 12 10  1  0  0  0  0
 13 10  1  0  0  0  0
 14 13  1  0  0  0  0
 15 14  1  0  0  0  0
 16 15  1  0  0  0  0
 17 16  1  0  0  0  0
 17 18  1  0  0  0  0
 18 13  1  0  0  0  0
M  END
>  <minimizedAffinity>
-4.35766315

>  <minimizedRMSD>
2.06979156

$$$$
