
 OpenBabel03252504513D

 31 33  0  0  0  0  0  0  0  0999 V2000
   46.6770   34.8090   42.6880 C   0  0  0  0  0  0  0  0  0  0  0  0
   47.8780   34.4630   42.0560 C   0  0  0  0  0  0  0  0  0  0  0  0
   48.6190   33.4040   42.6110 C   0  0  0  0  0  0  0  0  0  0  0  0
   48.1180   32.7910   43.7190 N   0  0  0  0  0  0  0  0  0  0  0  0
   46.9550   33.1550   44.2970 C   0  0  0  0  0  0  0  0  0  0  0  0
   46.2420   34.1620   43.7780 N   0  0  0  0  0  0  0  0  0  0  0  0
   46.0680   35.6120   42.3070 H   0  0  0  0  0  0  0  0  0  0  0  0
   49.5350   33.1190   42.1530 H   0  0  0  0  0  0  0  0  0  0  0  0
   45.9540   30.3150   43.7880 Cl  0  0  0  0  0  0  0  0  0  0  0  0
   46.0100   31.1480   45.3500 C   0  0  0  0  0  0  0  0  0  0  0  0
   46.4850   32.4490   45.4830 C   0  0  0  0  0  0  0  0  0  0  0  0
   46.5180   33.0750   46.7080 C   0  0  0  0  0  0  0  0  0  0  0  0
   46.0630   32.3770   47.8260 C   0  0  0  0  0  0  0  0  0  0  0  0
   45.6020   31.0980   47.6570 C   0  0  0  0  0  0  0  0  0  0  0  0
   45.0420   30.2670   49.0900 Cl  0  0  0  0  0  0  0  0  0  0  0  0
   45.5570   30.4490   46.4470 C   0  0  0  0  0  0  0  0  0  0  0  0
   46.8920   34.0950   46.8120 H   0  0  0  0  0  0  0  0  0  0  0  0
   46.0890   32.8730   48.7990 H   0  0  0  0  0  0  0  0  0  0  0  0
   45.1760   29.4280   46.3920 H   0  0  0  0  0  0  0  0  0  0  0  0
   48.3080   35.1990   40.8730 C   0  0  0  0  0  0  0  0  0  0  0  0
   47.4830   35.8480   40.5300 H   0  0  0  0  0  0  0  0  0  0  0  0
   49.1260   35.8470   41.1700 H   0  0  0  0  0  0  0  0  0  0  0  0
   48.6460   34.2120   39.8010 C   0  0  0  0  0  0  0  0  0  0  0  0
   49.6590   34.4320   39.3860 H   0  0  0  0  0  0  0  0  0  0  0  0
   48.7050   33.1920   40.2310 H   0  0  0  0  0  0  0  0  0  0  0  0
   47.6800   34.1490   38.6450 C   0  0  0  0  0  0  0  0  0  0  0  0
   46.7700   32.9600   38.7050 C   0  0  0  0  0  0  0  0  0  0  0  0
   47.1330   31.8080   37.8330 C   0  0  0  0  0  0  0  0  0  0  0  0
   47.7070   32.1600   36.5020 C   0  0  0  0  0  0  0  0  0  0  0  0
   48.6910   33.2690   36.4990 C   0  0  0  0  0  0  0  0  0  0  0  0
   48.2760   34.4350   37.3120 C   0  0  0  0  0  0  0  0  0  0  0  0
  1  6  1  0  0  0  0
  2  3  1  0  0  0  0
  2  1  2  0  0  0  0
  3  4  2  0  0  0  0
  4  5  1  0  0  0  0
  5 11  1  0  0  0  0
  6  5  2  0  0  0  0
  7  1  1  0  0  0  0
  8  3  1  0  0  0  0
  9 10  1  0  0  0  0
 10 11  2  0  0  0  0
 10 16  1  0  0  0  0
 11 12  1  0  0  0  0
 12 17  1  0  0  0  0
 12 13  2  0  0  0  0
 13 18  1  0  0  0  0
 14 13  1  0  0  0  0
 14 15  1  0  0  0  0
 16 14  2  0  0  0  0
 19 16  1  0  0  0  0
 20 22  1  0  0  0  0
 20  2  1  0  0  0  0
 21 20  1  0  0  0  0
 23 25  1  0  0  0  0
 23 20  1  0  0  0  0
 24 23  1  0  0  0  0
 26 27  1  0  0  0  0
 26 23  1  0  0  0  0
 28 27  1  0  0  0  0
 29 28  1  0  0  0  0
 30 29  1  0  0  0  0
 30 31  1  0  0  0  0
 31 26  1  0  0  0  0
M  END
>  <minimizedAffinity>
-5.11128235

>  <minimizedRMSD>
1.33047462

$$$$
