
 OpenBabel03242522503D

 23 24  0  0  0  0  0  0  0  0999 V2000
   45.5790   30.5780   47.7060 O   0  0  0  0  0  0  0  0  0  0  0  0
   45.9760   31.8890   48.4190 P   0  0  2  0  0  0  0  0  0  0  0  0
   45.3230   31.7880   49.9660 O   0  0  0  0  0  0  0  0  0  0  0  0
   45.5810   32.5150   50.5650 H   0  0  0  0  0  0  0  0  0  0  0  0
   45.2860   33.1800   47.5800 O   0  0  0  0  0  0  0  0  0  0  0  0
   47.1140   33.0030   44.4460 C   0  0  0  0  0  0  0  0  0  0  0  0
   46.6940   32.7370   45.7610 C   0  0  0  0  0  0  0  0  0  0  0  0
   45.6630   33.4750   46.2860 C   0  0  0  0  0  0  0  0  0  0  0  0
   45.1020   34.4260   45.5030 N   0  0  0  0  0  0  0  0  0  0  0  0
   45.4970   34.6850   44.2510 C   0  0  0  0  0  0  0  0  0  0  0  0
   46.5150   33.9630   43.7200 N   0  0  0  0  0  0  0  0  0  0  0  0
   47.9140   32.4830   43.9380 H   0  0  0  0  0  0  0  0  0  0  0  0
   47.2650   31.9540   46.1860 H   0  0  0  0  0  0  0  0  0  0  0  0
   44.9290   35.4790   43.7830 H   0  0  0  0  0  0  0  0  0  0  0  0
   47.6250   32.0090   48.4340 O   0  0  0  0  0  0  0  0  0  0  0  0
   48.5860   31.2430   48.9930 C   0  0  0  0  0  0  0  0  0  0  0  0
   49.4900   31.9220   49.5990 O   0  0  0  0  0  0  0  0  0  0  0  0
   49.2570   29.9630   49.3400 C   0  0  0  0  0  3  0  0  0  0  0  0
   50.7510   30.1200   49.4080 C   0  0  0  0  0  2  0  0  0  0  0  0
   51.4740   30.1830   48.1230 C   0  0  0  0  0  2  0  0  0  0  0  0
   51.0020   29.1920   47.0910 C   0  0  0  0  0  2  0  0  0  0  0  0
   49.5180   29.1940   46.9690 C   0  0  0  0  0  2  0  0  0  0  0  0
   48.8290   28.9600   48.2920 C   0  0  0  0  0  2  0  0  0  0  0  0
  2  1  2  6  0  0  0
  2 15  1  0  0  0  0
  2  3  1  0  0  0  0
  3  4  1  0  0  0  0
  5  2  1  0  0  0  0
  6  7  1  0  0  0  0
  7 13  1  0  0  0  0
  7  8  2  0  0  0  0
  8  5  1  0  0  0  0
  9  8  1  0  0  0  0
 10  9  2  0  0  0  0
 11 10  1  0  0  0  0
 11  6  2  0  0  0  0
 12  6  1  0  0  0  0
 14 10  1  0  0  0  0
 15 16  1  0  0  0  0
 16 18  1  0  0  0  0
 16 17  2  0  0  0  0
 18 19  1  0  0  0  0
 20 19  1  0  0  0  0
 21 20  1  0  0  0  0
 22 21  1  0  0  0  0
 22 23  1  0  0  0  0
 23 18  1  0  0  0  0
M  END
>  <minimizedAffinity>
-4.58081961

>  <minimizedRMSD>
0.796222806

$$$$
