
 OpenBabel03252503353D

 19 20  0  0  0  0  0  0  0  0999 V2000
   45.4530   35.1010   42.3780 C   0  0  0  0  0  0  0  0  0  0  0  0
   44.5160   35.5200   43.1080 O   0  0  0  0  0  0  0  0  0  0  0  0
   45.0280   34.4600   41.1840 N   0  0  0  0  0  0  0  0  0  0  0  0
   45.6630   34.0750   40.4590 H   0  0  0  0  0  0  0  0  0  0  0  0
   41.5730   33.0710   40.9650 C   0  0  0  0  0  0  0  0  0  0  0  0
   42.9330   33.1680   41.3080 C   0  0  0  0  0  0  0  0  0  0  0  0
   43.6500   34.2880   40.8780 C   0  0  0  0  0  0  0  0  0  0  0  0
   43.0100   35.2420   40.1470 N   0  0  0  0  0  0  0  0  0  0  0  0
   41.6950   35.1180   39.8320 C   0  0  0  0  0  0  0  0  0  0  0  0
   41.0010   34.0400   40.2450 N   0  0  0  0  0  0  0  0  0  0  0  0
   41.0050   32.2110   41.2910 H   0  0  0  0  0  0  0  0  0  0  0  0
   43.4320   32.4060   41.8900 H   0  0  0  0  0  0  0  0  0  0  0  0
   41.2120   35.8960   39.2460 H   0  0  0  0  0  0  0  0  0  0  0  0
   46.9290   35.1890   42.5980 C   0  0  0  0  0  0  0  0  0  0  0  0
   47.6800   35.1510   41.2780 C   0  0  0  0  0  0  0  0  0  0  0  0
   49.0930   35.6120   41.6390 C   0  0  0  0  0  0  0  0  0  0  0  0
   49.7500   34.5030   42.4250 C   0  0  0  0  0  0  0  0  0  0  0  0
   48.7670   33.4900   42.9350 C   0  0  0  0  0  0  0  0  0  0  0  0
   47.4720   34.0560   43.4210 C   0  0  0  0  0  0  0  0  0  0  0  0
  1 14  1  0  0  0  0
  1  2  2  0  0  0  0
  3  1  1  0  0  0  0
  4  3  1  0  0  0  0
  5 11  1  0  0  0  0
  5  6  1  0  0  0  0
  6 12  1  0  0  0  0
  7  3  1  0  0  0  0
  7  6  2  0  0  0  0
  8  7  1  0  0  0  0
  9  8  2  0  0  0  0
  9 10  1  0  0  0  0
 10  5  2  0  0  0  0
 13  9  1  0  0  0  0
 14 19  1  0  0  0  0
 15 16  1  0  0  0  0
 15 14  1  0  0  0  0
 16 17  1  0  0  0  0
 17 18  1  0  0  0  0
 18 19  1  0  0  0  0
M  END
>  <minimizedAffinity>
-4.77526474

>  <minimizedRMSD>
4.48995972

$$$$
