REMARK  Name = 
REMARK  3 active torsions:
REMARK  status: ('A' for Active; 'I' for Inactive)
REMARK    1  A    between atoms: C_2  and  C_7
REMARK    2  A    between atoms: C_5  and  O_11
REMARK    3  A    between atoms: O_11  and  C_14
REMARK                            x       y       z     vdW  Elec       q    Type
REMARK                         _______ _______ _______ _____ _____    ______ ____
ROOT
ATOM      1  C   UNL     1      44.915  35.106  44.943  0.00  0.00    +0.000 A 
ATOM      2  C   UNL     1      45.827  34.755  43.949  0.00  0.00    +0.000 A 
ATOM      3  C   UNL     1      46.682  33.698  44.219  0.00  0.00    +0.000 A 
ATOM      4  N   UNL     1      46.605  33.059  45.408  0.00  0.00    +0.000 NA
ATOM      5  C   UNL     1      45.709  33.433  46.338  0.00  0.00    +0.000 A 
ATOM      6  N   UNL     1      44.854  34.453  46.128  0.00  0.00    +0.000 NA
ATOM      7  H   UNL     1      44.220  35.916  44.803  0.00  0.00    +0.000 HD
ATOM      8  H   UNL     1      47.377  33.445  43.437  0.00  0.00    +0.000 HD
ENDROOT
BRANCH   2   9
ATOM      9  C   UNL     1      45.797  35.554  42.679  0.00  0.00    +0.000 C 
ATOM     10  F   UNL     1      45.349  36.806  43.031  0.00  0.00    +0.000 F 
ATOM     11  F   UNL     1      44.910  34.946  41.829  0.00  0.00    +0.000 F 
ATOM     12  F   UNL     1      47.075  35.549  42.155  0.00  0.00    +0.000 F 
ENDBRANCH   2   9
BRANCH   5  13
ATOM     13  O   UNL     1      45.623  32.777  47.570  0.00  0.00    +0.000 OA
BRANCH  13  14
ATOM     14  C   UNL     1      46.469  31.693  47.902  0.00  0.00    +0.000 C 
ATOM     15  C   UNL     1      46.136  31.161  49.266  0.00  0.00    +0.000 C 
ATOM     16  C   UNL     1      47.087  31.587  50.337  0.00  0.00    +0.000 C 
ATOM     17  C   UNL     1      48.530  31.338  50.002  0.00  0.00    +0.000 C 
ATOM     18  C   UNL     1      48.819  31.266  48.528  0.00  0.00    +0.000 C 
ATOM     19  C   UNL     1      47.892  32.205  47.814  0.00  0.00    +0.000 C 
ENDBRANCH  13  14
ENDBRANCH   5  13
TORSDOF 3
