
     RDKit          3D

 33 34  0  0  0  0  0  0  0  0999 V2000
   44.7192   35.3927   45.0207 C   0  0  0  0  0  0  0  0  0  0  0  0
   45.5908   34.9145   44.0427 C   0  0  0  0  0  0  0  0  0  0  0  0
   46.3444   33.7653   44.3279 C   0  0  0  0  0  0  0  0  0  0  0  0
   46.1910   33.1827   45.5280 N   0  0  0  0  0  0  0  0  0  0  0  0
   45.3369   33.6764   46.4519 C   0  0  0  0  0  0  0  0  0  0  0  0
   44.6003   34.7673   46.2198 N   0  0  0  0  0  0  0  0  0  0  0  0
   45.6622   35.6866   42.7640 C   0  0  0  0  0  0  0  0  0  0  0  0
   45.2395   36.9673   43.0776 F   0  0  0  0  0  0  0  0  0  0  0  0
   44.8157   35.0777   41.8753 F   0  0  0  0  0  0  0  0  0  0  0  0
   46.9794   35.6673   42.3266 F   0  0  0  0  0  0  0  0  0  0  0  0
   45.1796   33.0801   47.6922 O   0  0  0  0  0  0  0  0  0  0  0  0
   46.1189   32.2362   48.2811 C   0  0  0  0  0  0  0  0  0  0  0  0
   44.1277   36.2795   44.8167 H   0  0  0  0  0  0  0  0  0  0  0  0
   46.9857   33.4566   43.5396 H   0  0  0  0  0  0  0  0  0  0  0  0
   45.7115   31.9605   49.2766 H   0  0  0  0  0  0  0  0  0  0  0  0
   46.1922   31.2859   47.7208 H   0  0  0  0  0  0  0  0  0  0  0  0
   47.4742   32.8490   48.5246 C   0  0  0  0  0  0  0  0  0  0  0  0
   48.3904   32.2663   47.4577 C   0  0  0  0  0  0  0  0  0  0  0  0
   49.7394   31.8734   48.0156 C   0  0  0  0  0  0  0  0  0  0  0  0
   49.6264   30.7124   48.9818 C   0  0  0  0  0  0  0  0  0  0  0  0
   48.4657   30.9814   49.9025 C   0  0  0  0  0  0  0  0  0  0  0  0
   48.0481   32.4254   49.8588 C   0  0  0  0  0  0  0  0  0  0  0  0
   47.4727   33.9577   48.5176 H   0  0  0  0  0  0  0  0  0  0  0  0
   48.5970   33.0090   46.6570 H   0  0  0  0  0  0  0  0  0  0  0  0
   47.9537   31.3773   46.9577 H   0  0  0  0  0  0  0  0  0  0  0  0
   50.2845   32.7354   48.4318 H   0  0  0  0  0  0  0  0  0  0  0  0
   50.3195   31.5015   47.1461 H   0  0  0  0  0  0  0  0  0  0  0  0
   49.4731   29.7855   48.3932 H   0  0  0  0  0  0  0  0  0  0  0  0
   50.5751   30.6350   49.5335 H   0  0  0  0  0  0  0  0  0  0  0  0
   48.7938   30.7941   50.9457 H   0  0  0  0  0  0  0  0  0  0  0  0
   47.6280   30.3237   49.6684 H   0  0  0  0  0  0  0  0  0  0  0  0
   47.3459   32.6275   50.6991 H   0  0  0  0  0  0  0  0  0  0  0  0
   48.9379   33.0779   50.0385 H   0  0  0  0  0  0  0  0  0  0  0  0
  1  6  2  0
  2  3  2  0
  2  1  1  0
  3  4  1  0
  4  5  2  0
  5 11  1  0
  6  5  1  0
  7  8  1  0
  7  2  1  0
  9  7  1  0
 10  7  1  0
 11 12  1  0
  1 13  1  0
  3 14  1  0
 12 15  1  0
 12 16  1  0
 17 18  1  0
 18 19  1  0
 19 20  1  0
 20 21  1  0
 21 22  1  0
 22 17  1  0
 17 23  1  0
 18 24  1  0
 18 25  1  0
 19 26  1  0
 19 27  1  0
 20 28  1  0
 20 29  1  0
 21 30  1  0
 21 31  1  0
 22 32  1  0
 22 33  1  0
 12 17  1  0
M  ISO  4  13  14  14  14  15   8  16   8
M  END
>  <DihAtoms>  (1) 
10,11,16,17

>  <DihDeg>  (1) 
-179.97952329639324

$$$$
