
     RDKit          3D

 30 31  0  0  0  0  0  0  0  0999 V2000
   44.9148   35.1057   44.9432 C   0  0  0  0  0  0  0  0  0  0  0  0
   45.8265   34.7551   43.9485 C   0  0  0  0  0  0  0  0  0  0  0  0
   46.6824   33.6977   44.2188 C   0  0  0  0  0  0  0  0  0  0  0  0
   46.6051   33.0593   45.4078 N   0  0  0  0  0  0  0  0  0  0  0  0
   45.7088   33.4327   46.3383 C   0  0  0  0  0  0  0  0  0  0  0  0
   44.8536   34.4533   46.1276 N   0  0  0  0  0  0  0  0  0  0  0  0
   45.7967   35.5537   42.6794 C   0  0  0  0  0  0  0  0  0  0  0  0
   45.3491   36.8055   43.0307 F   0  0  0  0  0  0  0  0  0  0  0  0
   44.9101   34.9457   41.8287 F   0  0  0  0  0  0  0  0  0  0  0  0
   47.0755   35.5490   42.1553 F   0  0  0  0  0  0  0  0  0  0  0  0
   45.6234   32.7772   47.5696 O   0  0  0  0  0  0  0  0  0  0  0  0
   44.2201   35.9163   44.8026 H   0  0  0  0  0  0  0  0  0  0  0  0
   47.3775   33.4447   43.4367 H   0  0  0  0  0  0  0  0  0  0  0  0
   46.4690   31.6929   47.9022 C   0  0  0  0  0  0  0  0  0  0  0  0
   46.6830   31.6243   49.3868 C   0  0  0  0  0  0  0  0  0  0  0  0
   48.0066   32.1509   49.8385 C   0  0  0  0  0  0  0  0  0  0  0  0
   49.1767   31.5654   49.1003 C   0  0  0  0  0  0  0  0  0  0  0  0
   48.8440   31.0412   47.7308 C   0  0  0  0  0  0  0  0  0  0  0  0
   47.7627   31.8974   47.1416 C   0  0  0  0  0  0  0  0  0  0  0  0
   46.0309   30.7178   47.6026 H   0  0  0  0  0  0  0  0  0  0  0  0
   46.5383   30.5885   49.8039 H   0  0  0  0  0  0  0  0  0  0  0  0
   45.8962   32.2452   49.8699 H   0  0  0  0  0  0  0  0  0  0  0  0
   48.1156   31.8521   50.9153 H   0  0  0  0  0  0  0  0  0  0  0  0
   47.9850   33.2441   49.7869 H   0  0  0  0  0  0  0  0  0  0  0  0
   49.9257   32.3786   48.9772 H   0  0  0  0  0  0  0  0  0  0  0  0
   49.6837   30.7570   49.6860 H   0  0  0  0  0  0  0  0  0  0  0  0
   48.5429   29.9902   47.7843 H   0  0  0  0  0  0  0  0  0  0  0  0
   49.7498   31.1594   47.0696 H   0  0  0  0  0  0  0  0  0  0  0  0
   47.5998   31.6799   46.0727 H   0  0  0  0  0  0  0  0  0  0  0  0
   48.0290   32.9804   47.3215 H   0  0  0  0  0  0  0  0  0  0  0  0
  1  6  2  0
  2  3  2  0
  2  1  1  0
  3  4  1  0
  4  5  2  0
  5 11  1  0
  6  5  1  0
  7  8  1  0
  7  2  1  0
  9  7  1  0
 10  7  1  0
  1 12  1  0
  3 13  1  0
 14 15  1  0
 15 16  1  0
 16 17  1  0
 17 18  1  0
 18 19  1  0
 19 14  1  0
 14 20  1  0
 15 21  1  0
 15 22  1  0
 16 23  1  0
 16 24  1  0
 17 25  1  0
 17 26  1  0
 18 27  1  0
 18 28  1  0
 19 29  1  0
 19 30  1  0
 11 14  1  0
M  ISO  2  12  14  13  14
M  END
>  <DihAtoms>  (1) 
4,10,13,14

>  <DihDeg>  (1) 
-118.56017576723124

$$$$
