
 OpenBabel03252506393D

 41 44  0  0  1  0  0  0  0  0999 V2000
   36.9120   29.7130   36.7330 C   0  0  0  0  0  0  0  0  0  0  0  0
   37.9300   28.7550   36.5590 C   0  0  0  0  0  0  0  0  0  0  0  0
   39.0610   28.8410   37.3050 C   0  0  0  0  0  0  0  0  0  0  0  0
   39.1390   29.8670   38.1890 N   0  0  0  0  0  0  0  0  0  0  0  0
   38.1790   30.7660   38.3490 C   0  0  0  0  0  0  0  0  0  0  0  0
   37.0570   30.7030   37.6280 N   0  0  0  0  0  0  0  0  0  0  0  0
   38.3660   31.8150   39.3140 N   0  0  0  0  0  0  0  0  0  0  0  0
   37.3400   32.6930   39.7520 C   0  0  0  0  0  0  0  0  0  0  0  0
   38.0740   34.0140   39.9300 C   0  0  0  0  0  0  0  0  0  0  0  0
   39.5220   33.7190   39.7420 C   0  0  0  0  0  0  0  0  0  0  0  0
   39.5790   32.2110   39.9850 C   0  0  1  0  0  0  0  0  0  0  0  0
   36.0020   29.6430   36.1310 H   0  0  0  0  0  0  0  0  0  0  0  0
   39.8420   28.1260   37.1870 H   0  0  0  0  0  0  0  0  0  0  0  0
   36.6430   32.4730   40.5020 H   0  0  0  0  0  0  0  0  0  0  0  0
   36.7030   32.8970   38.8310 H   0  0  0  0  0  0  0  0  0  0  0  0
   37.6640   34.8460   39.3640 H   0  0  0  0  0  0  0  0  0  0  0  0
   37.9000   34.2790   41.0150 H   0  0  0  0  0  0  0  0  0  0  0  0
   39.8170   33.9740   38.6990 H   0  0  0  0  0  0  0  0  0  0  0  0
   40.1100   34.2810   40.4890 H   0  0  0  0  0  0  0  0  0  0  0  0
   40.4930   31.8440   39.4970 H   0  0  0  0  0  0  0  0  0  0  0  0
   37.6990   27.7280   35.5820 N   0  0  0  0  0  0  0  0  0  0  0  0
   36.7470   27.3600   35.4410 H   0  0  0  0  0  0  0  0  0  0  0  0
   38.5640   27.4420   35.0870 H   0  0  0  0  0  0  0  0  0  0  0  0
   39.5110   31.9030   41.7330 S   0  0  0  0  0  0  0  0  0  0  0  0
   37.1710   29.5340   41.7270 O   0  0  0  0  0  0  0  0  0  0  0  0
   38.3710   29.4010   42.0130 C   0  0  0  0  0  0  0  0  0  0  0  0
   39.5750   30.2380   42.2500 C   0  0  1  0  0  0  0  0  0  0  0  0
   40.6580   29.4140   41.6010 C   0  0  0  0  0  0  0  0  0  0  0  0
   40.3690   28.0960   42.3270 C   0  0  0  0  0  0  0  0  0  0  0  0
   38.9160   28.0810   42.2070 N   0  0  0  0  0  0  0  0  0  0  0  0
   39.7430   30.0170   43.3380 H   0  0  0  0  0  0  0  0  0  0  0  0
   40.5210   29.2480   40.5310 H   0  0  0  0  0  0  0  0  0  0  0  0
   41.6640   29.7910   41.8720 H   0  0  0  0  0  0  0  0  0  0  0  0
   40.6980   28.1320   43.3770 H   0  0  0  0  0  0  0  0  0  0  0  0
   40.8770   27.3410   41.6990 H   0  0  0  0  0  0  0  0  0  0  0  0
   38.3350   26.7490   42.3080 C   0  0  0  0  0  3  0  0  0  0  0  0
   39.2480   25.7680   43.0020 C   0  0  0  0  0  2  0  0  0  0  0  0
   39.0270   24.3480   42.5550 C   0  0  0  0  0  2  0  0  0  0  0  0
   37.6300   24.0430   42.1490 C   0  0  0  0  0  2  0  0  0  0  0  0
   36.9490   25.0710   41.3160 C   0  0  0  0  0  2  0  0  0  0  0  0
   37.9520   26.1680   41.0100 C   0  0  0  0  0  2  0  0  0  0  0  0
  1  6  1  0  0  0  0
  2  1  2  0  0  0  0
  2  3  1  0  0  0  0
  3  4  2  0  0  0  0
  4  5  1  0  0  0  0
  5  7  1  0  0  0  0
  6  5  2  0  0  0  0
  7  8  1  0  0  0  0
  7 11  1  0  0  0  0
  8  9  1  0  0  0  0
  8 14  1  0  0  0  0
  9 17  1  0  0  0  0
 10  9  1  0  0  0  0
 10 11  1  0  0  0  0
 10 19  1  0  0  0  0
 11 20  1  6  0  0  0
 11 24  1  0  0  0  0
 12  1  1  0  0  0  0
 13  3  1  0  0  0  0
 15  8  1  0  0  0  0
 16  9  1  0  0  0  0
 18 10  1  0  0  0  0
 21  2  1  0  0  0  0
 22 21  1  0  0  0  0
 23 21  1  0  0  0  0
 24 27  1  0  0  0  0
 25 26  2  0  0  0  0
 26 30  1  0  0  0  0
 26 27  1  0  0  0  0
 27 31  1  1  0  0  0
 28 33  1  0  0  0  0
 28 27  1  0  0  0  0
 28 29  1  0  0  0  0
 29 34  1  0  0  0  0
 30 36  1  0  0  0  0
 30 29  1  0  0  0  0
 32 28  1  0  0  0  0
 35 29  1  0  0  0  0
 36 37  1  0  0  0  0
 38 37  1  0  0  0  0
 39 38  1  0  0  0  0
 40 39  1  0  0  0  0
 41 40  1  0  0  0  0
 41 36  1  0  0  0  0
M  END
>  <minimizedAffinity>
-5.66270447

$$$$

 OpenBabel03252506393D

 41 44  0  0  1  0  0  0  0  0999 V2000
   37.9990   26.3800   36.0600 C   0  0  0  0  0  0  0  0  0  0  0  0
   37.1100   27.4700   35.9750 C   0  0  0  0  0  0  0  0  0  0  0  0
   36.4440   27.8740   37.0870 C   0  0  0  0  0  0  0  0  0  0  0  0
   36.6830   27.1870   38.2320 N   0  0  0  0  0  0  0  0  0  0  0  0
   37.5200   26.1630   38.3060 C   0  0  0  0  0  0  0  0  0  0  0  0
   38.1870   25.7470   37.2280 N   0  0  0  0  0  0  0  0  0  0  0  0
   37.6980   25.5050   39.5710 N   0  0  0  0  0  0  0  0  0  0  0  0
   38.7230   24.5610   39.8480 C   0  0  0  0  0  0  0  0  0  0  0  0
   38.0310   23.5640   40.7640 C   0  0  0  0  0  0  0  0  0  0  0  0
   36.6930   24.1380   41.0770 C   0  0  0  0  0  0  0  0  0  0  0  0
   36.8960   25.6210   40.7640 C   0  0  1  0  0  0  0  0  0  0  0  0
   38.5350   26.0560   35.1630 H   0  0  0  0  0  0  0  0  0  0  0  0
   35.7670   28.6960   37.0430 H   0  0  0  0  0  0  0  0  0  0  0  0
   39.7030   24.8050   40.1230 H   0  0  0  0  0  0  0  0  0  0  0  0
   38.8450   23.9590   38.8890 H   0  0  0  0  0  0  0  0  0  0  0  0
   38.0560   22.5330   40.4210 H   0  0  0  0  0  0  0  0  0  0  0  0
   38.6570   23.5790   41.7050 H   0  0  0  0  0  0  0  0  0  0  0  0
   35.9310   23.6810   40.4060 H   0  0  0  0  0  0  0  0  0  0  0  0
   36.4620   23.9680   42.1440 H   0  0  0  0  0  0  0  0  0  0  0  0
   35.8990   26.0470   40.5850 H   0  0  0  0  0  0  0  0  0  0  0  0
   36.9630   28.0940   34.6900 N   0  0  0  0  0  0  0  0  0  0  0  0
   37.7750   28.1650   34.0590 H   0  0  0  0  0  0  0  0  0  0  0  0
   35.9990   28.4320   34.5150 H   0  0  0  0  0  0  0  0  0  0  0  0
   37.7860   26.3780   42.1020 S   0  0  0  0  0  0  0  0  0  0  0  0
   36.4740   29.1790   40.8700 O   0  0  0  0  0  0  0  0  0  0  0  0
   37.6150   29.0270   41.3330 C   0  0  0  0  0  0  0  0  0  0  0  0
   38.5110   27.9350   41.7930 C   0  0  1  0  0  0  0  0  0  0  0  0
   39.1860   28.5680   42.9840 C   0  0  0  0  0  0  0  0  0  0  0  0
   39.6710   29.8420   42.2840 C   0  0  0  0  0  0  0  0  0  0  0  0
   38.4570   30.1770   41.5480 N   0  0  0  0  0  0  0  0  0  0  0  0
   39.3120   28.0100   41.0110 H   0  0  0  0  0  0  0  0  0  0  0  0
   38.5060   28.8590   43.7860 H   0  0  0  0  0  0  0  0  0  0  0  0
   40.0480   27.9620   43.3230 H   0  0  0  0  0  0  0  0  0  0  0  0
   40.5200   29.6370   41.6140 H   0  0  0  0  0  0  0  0  0  0  0  0
   39.8870   30.5280   43.1240 H   0  0  0  0  0  0  0  0  0  0  0  0
   38.3600   31.5850   41.1920 C   0  0  0  0  0  3  0  0  0  0  0  0
   37.1100   31.9030   40.4090 C   0  0  0  0  0  2  0  0  0  0  0  0
   37.2790   33.0840   39.4930 C   0  0  0  0  0  2  0  0  0  0  0  0
   38.2380   34.1090   39.9830 C   0  0  0  0  0  2  0  0  0  0  0  0
   39.5030   33.5950   40.5750 C   0  0  0  0  0  2  0  0  0  0  0  0
   39.5130   32.0860   40.4230 C   0  0  0  0  0  2  0  0  0  0  0  0
  1  6  1  0  0  0  0
  2  1  2  0  0  0  0
  2  3  1  0  0  0  0
  3  4  2  0  0  0  0
  4  5  1  0  0  0  0
  5  7  1  0  0  0  0
  6  5  2  0  0  0  0
  7  8  1  0  0  0  0
  7 11  1  0  0  0  0
  8 14  1  0  0  0  0
  8  9  1  0  0  0  0
  9 10  1  0  0  0  0
  9 17  1  0  0  0  0
 10 19  1  0  0  0  0
 11 20  1  6  0  0  0
 11 10  1  0  0  0  0
 11 24  1  0  0  0  0
 12  1  1  0  0  0  0
 13  3  1  0  0  0  0
 15  8  1  0  0  0  0
 16  9  1  0  0  0  0
 18 10  1  0  0  0  0
 21  2  1  0  0  0  0
 22 21  1  0  0  0  0
 23 21  1  0  0  0  0
 25 26  2  0  0  0  0
 26 30  1  0  0  0  0
 26 27  1  0  0  0  0
 27 31  1  6  0  0  0
 27 24  1  0  0  0  0
 27 28  1  0  0  0  0
 28 33  1  0  0  0  0
 28 32  1  0  0  0  0
 29 28  1  0  0  0  0
 29 35  1  0  0  0  0
 30 29  1  0  0  0  0
 34 29  1  0  0  0  0
 36 30  1  0  0  0  0
 37 36  1  0  0  0  0
 38 39  1  0  0  0  0
 38 37  1  0  0  0  0
 39 40  1  0  0  0  0
 41 40  1  0  0  0  0
 41 36  1  0  0  0  0
M  END
>  <minimizedAffinity>
-5.58080912

$$$$

 OpenBabel03252506393D

 41 44  0  0  1  0  0  0  0  0999 V2000
   40.0860   32.6760   38.9030 C   0  0  0  0  0  0  0  0  0  0  0  0
   39.8610   31.7490   37.8660 C   0  0  0  0  0  0  0  0  0  0  0  0
   40.1300   30.4360   38.0780 C   0  0  0  0  0  0  0  0  0  0  0  0
   40.6080   30.0940   39.3000 N   0  0  0  0  0  0  0  0  0  0  0  0
   40.8180   30.9700   40.2710 C   0  0  0  0  0  0  0  0  0  0  0  0
   40.5610   32.2670   40.0890 N   0  0  0  0  0  0  0  0  0  0  0  0
   41.3300   30.4990   41.5290 N   0  0  0  0  0  0  0  0  0  0  0  0
   41.3780   31.2770   42.7170 C   0  0  0  0  0  0  0  0  0  0  0  0
   42.6790   30.8280   43.3660 C   0  0  0  0  0  0  0  0  0  0  0  0
   43.1780   29.6810   42.5590 C   0  0  0  0  0  0  0  0  0  0  0  0
   41.9120   29.2170   41.8390 C   0  0  1  0  0  0  0  0  0  0  0  0
   39.8680   33.7340   38.7310 H   0  0  0  0  0  0  0  0  0  0  0  0
   39.9670   29.7190   37.3060 H   0  0  0  0  0  0  0  0  0  0  0  0
   40.5780   31.4090   43.3800 H   0  0  0  0  0  0  0  0  0  0  0  0
   41.6340   32.3330   42.3760 H   0  0  0  0  0  0  0  0  0  0  0  0
   43.3850   31.6270   43.5760 H   0  0  0  0  0  0  0  0  0  0  0  0
   42.3590   30.4420   44.3790 H   0  0  0  0  0  0  0  0  0  0  0  0
   43.9460   30.0440   41.8390 H   0  0  0  0  0  0  0  0  0  0  0  0
   43.5770   28.9040   43.2360 H   0  0  0  0  0  0  0  0  0  0  0  0
   42.2380   28.6560   40.9520 H   0  0  0  0  0  0  0  0  0  0  0  0
   39.3510   32.2660   36.6270 N   0  0  0  0  0  0  0  0  0  0  0  0
   38.6890   33.0560   36.6350 H   0  0  0  0  0  0  0  0  0  0  0  0
   39.7220   31.7640   35.7990 H   0  0  0  0  0  0  0  0  0  0  0  0
   40.9120   28.2810   42.9700 S   0  0  0  0  0  0  0  0  0  0  0  0
   39.9620   26.0790   40.6590 O   0  0  0  0  0  0  0  0  0  0  0  0
   39.2310   26.7090   41.4390 C   0  0  0  0  0  0  0  0  0  0  0  0
   39.3200   27.8150   42.4260 C   0  0  1  0  0  0  0  0  0  0  0  0
   38.3930   27.3360   43.5150 C   0  0  0  0  0  0  0  0  0  0  0  0
   37.1710   27.0670   42.6310 C   0  0  0  0  0  0  0  0  0  0  0  0
   37.8310   26.3800   41.5270 N   0  0  0  0  0  0  0  0  0  0  0  0
   38.6840   28.5800   41.9060 H   0  0  0  0  0  0  0  0  0  0  0  0
   38.6900   26.3940   43.9790 H   0  0  0  0  0  0  0  0  0  0  0  0
   38.1760   28.1450   44.2390 H   0  0  0  0  0  0  0  0  0  0  0  0
   36.6910   28.0030   42.3090 H   0  0  0  0  0  0  0  0  0  0  0  0
   36.5430   26.4050   43.2570 H   0  0  0  0  0  0  0  0  0  0  0  0
   36.9420   25.5190   40.7600 C   0  0  0  0  0  3  0  0  0  0  0  0
   37.0780   24.0630   41.1320 C   0  0  0  0  0  2  0  0  0  0  0  0
   36.7350   23.1350   39.9970 C   0  0  0  0  0  2  0  0  0  0  0  0
   35.7070   23.6640   39.0640 C   0  0  0  0  0  2  0  0  0  0  0  0
   35.8430   25.0940   38.6780 C   0  0  0  0  0  2  0  0  0  0  0  0
   37.1180   25.6300   39.3020 C   0  0  0  0  0  2  0  0  0  0  0  0
  1  6  1  0  0  0  0
  2  3  1  0  0  0  0
  2  1  2  0  0  0  0
  3  4  2  0  0  0  0
  4  5  1  0  0  0  0
  5  7  1  0  0  0  0
  6  5  2  0  0  0  0
  7 11  1  0  0  0  0
  7  8  1  0  0  0  0
  8  9  1  0  0  0  0
  8 14  1  0  0  0  0
  9 16  1  0  0  0  0
  9 17  1  0  0  0  0
 10 19  1  0  0  0  0
 10  9  1  0  0  0  0
 11 20  1  6  0  0  0
 11 10  1  0  0  0  0
 11 24  1  0  0  0  0
 12  1  1  0  0  0  0
 13  3  1  0  0  0  0
 15  8  1  0  0  0  0
 18 10  1  0  0  0  0
 21 22  1  0  0  0  0
 21  2  1  0  0  0  0
 23 21  1  0  0  0  0
 25 26  2  0  0  0  0
 26 30  1  0  0  0  0
 26 27  1  0  0  0  0
 27 31  1  6  0  0  0
 27 24  1  0  0  0  0
 27 28  1  0  0  0  0
 28 32  1  0  0  0  0
 28 33  1  0  0  0  0
 29 35  1  0  0  0  0
 29 28  1  0  0  0  0
 30 29  1  0  0  0  0
 34 29  1  0  0  0  0
 36 37  1  0  0  0  0
 36 30  1  0  0  0  0
 38 37  1  0  0  0  0
 39 38  1  0  0  0  0
 40 39  1  0  0  0  0
 40 41  1  0  0  0  0
 41 36  1  0  0  0  0
M  END
>  <minimizedAffinity>
-5.54128933

$$$$

 OpenBabel03252506393D

 41 44  0  0  1  0  0  0  0  0999 V2000
   41.3000   29.6920   37.6100 C   0  0  0  0  0  0  0  0  0  0  0  0
   41.8990   28.9440   38.6430 C   0  0  0  0  0  0  0  0  0  0  0  0
   41.3390   28.9500   39.8790 C   0  0  0  0  0  0  0  0  0  0  0  0
   40.2150   29.6910   40.0440 N   0  0  0  0  0  0  0  0  0  0  0  0
   39.6560   30.3930   39.0690 C   0  0  0  0  0  0  0  0  0  0  0  0
   40.1860   30.4040   37.8440 N   0  0  0  0  0  0  0  0  0  0  0  0
   38.4650   31.1460   39.3530 N   0  0  0  0  0  0  0  0  0  0  0  0
   37.6390   31.7430   38.3640 C   0  0  0  0  0  0  0  0  0  0  0  0
   37.1940   33.0370   39.0280 C   0  0  0  0  0  0  0  0  0  0  0  0
   37.6750   32.9760   40.4350 C   0  0  0  0  0  0  0  0  0  0  0  0
   37.8970   31.4770   40.6360 C   0  0  1  0  0  0  0  0  0  0  0  0
   41.7520   29.6870   36.6140 H   0  0  0  0  0  0  0  0  0  0  0  0
   41.7770   28.3900   40.6740 H   0  0  0  0  0  0  0  0  0  0  0  0
   36.8910   31.2440   37.8270 H   0  0  0  0  0  0  0  0  0  0  0  0
   38.3530   32.1200   37.5610 H   0  0  0  0  0  0  0  0  0  0  0  0
   37.4220   33.9410   38.4680 H   0  0  0  0  0  0  0  0  0  0  0  0
   36.0650   32.9680   39.0310 H   0  0  0  0  0  0  0  0  0  0  0  0
   38.6290   33.5430   40.5230 H   0  0  0  0  0  0  0  0  0  0  0  0
   36.8930   33.3720   41.1080 H   0  0  0  0  0  0  0  0  0  0  0  0
   38.6020   31.3690   41.4710 H   0  0  0  0  0  0  0  0  0  0  0  0
   43.0880   28.2100   38.3120 N   0  0  0  0  0  0  0  0  0  0  0  0
   43.1870   27.7880   37.3770 H   0  0  0  0  0  0  0  0  0  0  0  0
   43.7690   28.1750   39.0930 H   0  0  0  0  0  0  0  0  0  0  0  0
   36.3270   30.6890   40.8990 S   0  0  0  0  0  0  0  0  0  0  0  0
   37.0210   28.0780   38.9530 O   0  0  0  0  0  0  0  0  0  0  0  0
   36.8070   28.0660   40.1750 C   0  0  0  0  0  0  0  0  0  0  0  0
   36.3440   28.9800   41.2500 C   0  0  1  0  0  0  0  0  0  0  0  0
   37.2300   28.5780   42.4020 C   0  0  0  0  0  0  0  0  0  0  0  0
   36.9360   27.0750   42.3650 C   0  0  0  0  0  0  0  0  0  0  0  0
   37.0330   26.8560   40.9260 N   0  0  0  0  0  0  0  0  0  0  0  0
   35.3780   28.4750   41.5190 H   0  0  0  0  0  0  0  0  0  0  0  0
   38.2970   28.7190   42.2230 H   0  0  0  0  0  0  0  0  0  0  0  0
   36.8720   29.0170   43.3540 H   0  0  0  0  0  0  0  0  0  0  0  0
   35.9310   26.8490   42.7510 H   0  0  0  0  0  0  0  0  0  0  0  0
   37.7720   26.6360   42.9400 H   0  0  0  0  0  0  0  0  0  0  0  0
   37.3350   25.4790   40.5630 C   0  0  0  0  0  3  0  0  0  0  0  0
   36.2750   24.8640   39.6830 C   0  0  0  0  0  2  0  0  0  0  0  0
   36.1810   23.3700   39.8380 C   0  0  0  0  0  2  0  0  0  0  0  0
   37.4670   22.7070   40.1810 C   0  0  0  0  0  2  0  0  0  0  0  0
   38.3020   23.3880   41.2070 C   0  0  0  0  0  2  0  0  0  0  0  0
   37.5310   24.5890   41.7210 C   0  0  0  0  0  2  0  0  0  0  0  0
  1  6  2  0  0  0  0
  1  2  1  0  0  0  0
  2  3  2  0  0  0  0
  3  4  1  0  0  0  0
  3 13  1  0  0  0  0
  5  7  1  0  0  0  0
  5  4  2  0  0  0  0
  6  5  1  0  0  0  0
  7 11  1  0  0  0  0
  8  9  1  0  0  0  0
  8  7  1  0  0  0  0
  9 17  1  0  0  0  0
  9 10  1  0  0  0  0
 10 18  1  0  0  0  0
 10 11  1  0  0  0  0
 10 19  1  0  0  0  0
 11 24  1  0  0  0  0
 11 20  1  1  0  0  0
 12  1  1  0  0  0  0
 14  8  1  0  0  0  0
 15  8  1  0  0  0  0
 16  9  1  0  0  0  0
 21  2  1  0  0  0  0
 21 23  1  0  0  0  0
 22 21  1  0  0  0  0
 24 27  1  0  0  0  0
 25 26  2  0  0  0  0
 26 30  1  0  0  0  0
 26 27  1  0  0  0  0
 27 31  1  1  0  0  0
 27 28  1  0  0  0  0
 28 33  1  0  0  0  0
 29 28  1  0  0  0  0
 29 34  1  0  0  0  0
 29 35  1  0  0  0  0
 30 29  1  0  0  0  0
 32 28  1  0  0  0  0
 36 30  1  0  0  0  0
 36 41  1  0  0  0  0
 37 38  1  0  0  0  0
 37 36  1  0  0  0  0
 38 39  1  0  0  0  0
 39 40  1  0  0  0  0
 40 41  1  0  0  0  0
M  END
>  <minimizedAffinity>
-5.48822641

$$$$

 OpenBabel03252506393D

 41 44  0  0  1  0  0  0  0  0999 V2000
   42.9820   30.0160   35.8800 C   0  0  0  0  0  0  0  0  0  0  0  0
   43.2030   28.7630   36.4860 C   0  0  0  0  0  0  0  0  0  0  0  0
   42.8480   28.5780   37.7830 C   0  0  0  0  0  0  0  0  0  0  0  0
   42.2910   29.6350   38.4250 N   0  0  0  0  0  0  0  0  0  0  0  0
   42.0860   30.8110   37.8510 C   0  0  0  0  0  0  0  0  0  0  0  0
   42.4250   31.0190   36.5770 N   0  0  0  0  0  0  0  0  0  0  0  0
   41.4890   31.8650   38.6260 N   0  0  0  0  0  0  0  0  0  0  0  0
   41.0010   33.0830   38.0830 C   0  0  0  0  0  0  0  0  0  0  0  0
   41.3560   34.1020   39.1540 C   0  0  0  0  0  0  0  0  0  0  0  0
   41.8680   33.3270   40.3180 C   0  0  0  0  0  0  0  0  0  0  0  0
   41.3000   31.9320   40.0540 C   0  0  1  0  0  0  0  0  0  0  0  0
   43.2690   30.1630   34.8350 H   0  0  0  0  0  0  0  0  0  0  0  0
   43.0070   27.6380   38.2580 H   0  0  0  0  0  0  0  0  0  0  0  0
   40.0560   33.2100   37.6500 H   0  0  0  0  0  0  0  0  0  0  0  0
   41.7270   33.3530   37.2470 H   0  0  0  0  0  0  0  0  0  0  0  0
   41.9640   34.9350   38.8120 H   0  0  0  0  0  0  0  0  0  0  0  0
   40.3610   34.5580   39.4370 H   0  0  0  0  0  0  0  0  0  0  0  0
   42.9810   33.3240   40.2970 H   0  0  0  0  0  0  0  0  0  0  0  0
   41.4720   33.7650   41.2530 H   0  0  0  0  0  0  0  0  0  0  0  0
   41.9240   31.2240   40.6150 H   0  0  0  0  0  0  0  0  0  0  0  0
   43.8030   27.7420   35.6730 N   0  0  0  0  0  0  0  0  0  0  0  0
   43.5790   27.6890   34.6680 H   0  0  0  0  0  0  0  0  0  0  0  0
   44.4390   27.1230   36.2090 H   0  0  0  0  0  0  0  0  0  0  0  0
   39.5820   31.9110   40.5060 S   0  0  0  0  0  0  0  0  0  0  0  0
   39.3020   28.7800   39.4100 O   0  0  0  0  0  0  0  0  0  0  0  0
   39.0960   29.1920   40.5620 C   0  0  0  0  0  0  0  0  0  0  0  0
   38.9870   30.4760   41.3000 C   0  0  1  0  0  0  0  0  0  0  0  0
   39.6680   30.1430   42.6030 C   0  0  0  0  0  0  0  0  0  0  0  0
   38.8570   28.8870   42.9380 C   0  0  0  0  0  0  0  0  0  0  0  0
   38.8730   28.2470   41.6270 N   0  0  0  0  0  0  0  0  0  0  0  0
   37.9040   30.4320   41.5910 H   0  0  0  0  0  0  0  0  0  0  0  0
   40.7160   29.8540   42.5050 H   0  0  0  0  0  0  0  0  0  0  0  0
   39.4890   30.9320   43.3610 H   0  0  0  0  0  0  0  0  0  0  0  0
   37.8370   29.1400   43.2630 H   0  0  0  0  0  0  0  0  0  0  0  0
   39.4800   28.3740   43.6930 H   0  0  0  0  0  0  0  0  0  0  0  0
   38.6640   26.8070   41.6790 C   0  0  0  0  0  3  0  0  0  0  0  0
   37.2190   26.4220   41.4790 C   0  0  0  0  0  2  0  0  0  0  0  0
   36.8590   25.1280   42.1580 C   0  0  0  0  0  2  0  0  0  0  0  0
   37.9760   24.1520   42.2480 C   0  0  0  0  0  2  0  0  0  0  0  0
   39.3030   24.7070   42.6290 C   0  0  0  0  0  2  0  0  0  0  0  0
   39.1260   26.1830   42.9310 C   0  0  0  0  0  2  0  0  0  0  0  0
  1  2  2  0  0  0  0
  1  6  1  0  0  0  0
  2  3  1  0  0  0  0
  3 13  1  0  0  0  0
  3  4  2  0  0  0  0
  5  4  1  0  0  0  0
  5  7  1  0  0  0  0
  6  5  2  0  0  0  0
  7 11  1  0  0  0  0
  8  7  1  0  0  0  0
  8  9  1  0  0  0  0
  9 17  1  0  0  0  0
  9 10  1  0  0  0  0
 10 19  1  0  0  0  0
 11 10  1  0  0  0  0
 11 24  1  0  0  0  0
 11 20  1  1  0  0  0
 12  1  1  0  0  0  0
 14  8  1  0  0  0  0
 15  8  1  0  0  0  0
 16  9  1  0  0  0  0
 18 10  1  0  0  0  0
 21 23  1  0  0  0  0
 21  2  1  0  0  0  0
 22 21  1  0  0  0  0
 24 27  1  0  0  0  0
 25 26  2  0  0  0  0
 26 27  1  0  0  0  0
 26 30  1  0  0  0  0
 27 31  1  1  0  0  0
 27 28  1  0  0  0  0
 28 29  1  0  0  0  0
 28 33  1  0  0  0  0
 29 34  1  0  0  0  0
 29 35  1  0  0  0  0
 30 36  1  0  0  0  0
 30 29  1  0  0  0  0
 32 28  1  0  0  0  0
 36 41  1  0  0  0  0
 37 36  1  0  0  0  0
 37 38  1  0  0  0  0
 38 39  1  0  0  0  0
 39 40  1  0  0  0  0
 40 41  1  0  0  0  0
M  END
>  <minimizedAffinity>
-5.44482422

$$$$

 OpenBabel03252506393D

 41 44  0  0  1  0  0  0  0  0999 V2000
   37.9000   32.6960   39.1310 C   0  0  0  0  0  0  0  0  0  0  0  0
   38.1090   32.5560   40.5180 C   0  0  0  0  0  0  0  0  0  0  0  0
   37.6710   31.4370   41.1480 C   0  0  0  0  0  0  0  0  0  0  0  0
   37.0460   30.5050   40.3850 N   0  0  0  0  0  0  0  0  0  0  0  0
   36.8510   30.6410   39.0820 C   0  0  0  0  0  0  0  0  0  0  0  0
   37.2730   31.7320   38.4390 N   0  0  0  0  0  0  0  0  0  0  0  0
   36.1750   29.5920   38.3700 N   0  0  0  0  0  0  0  0  0  0  0  0
   36.1080   29.4970   36.9540 C   0  0  0  0  0  0  0  0  0  0  0  0
   34.7110   28.9480   36.7140 C   0  0  0  0  0  0  0  0  0  0  0  0
   34.1570   28.6040   38.0530 C   0  0  0  0  0  0  0  0  0  0  0  0
   35.4220   28.4840   38.9050 C   0  0  1  0  0  0  0  0  0  0  0  0
   38.2530   33.5980   38.6250 H   0  0  0  0  0  0  0  0  0  0  0  0
   37.8200   31.3130   42.1960 H   0  0  0  0  0  0  0  0  0  0  0  0
   36.8540   29.0840   36.3460 H   0  0  0  0  0  0  0  0  0  0  0  0
   36.0100   30.5700   36.5840 H   0  0  0  0  0  0  0  0  0  0  0  0
   34.0850   29.5540   36.0640 H   0  0  0  0  0  0  0  0  0  0  0  0
   34.8890   27.9880   36.1430 H   0  0  0  0  0  0  0  0  0  0  0  0
   33.5060   29.4350   38.4060 H   0  0  0  0  0  0  0  0  0  0  0  0
   33.6100   27.6460   37.9890 H   0  0  0  0  0  0  0  0  0  0  0  0
   35.1150   28.6240   39.9500 H   0  0  0  0  0  0  0  0  0  0  0  0
   38.7870   33.6310   41.1870 N   0  0  0  0  0  0  0  0  0  0  0  0
   39.5330   34.1480   40.6990 H   0  0  0  0  0  0  0  0  0  0  0  0
   38.4380   33.7880   42.1500 H   0  0  0  0  0  0  0  0  0  0  0  0
   36.1980   26.9220   38.5720 S   0  0  0  0  0  0  0  0  0  0  0  0
   39.2780   28.0260   39.1870 O   0  0  0  0  0  0  0  0  0  0  0  0
   38.6540   27.1580   39.8160 C   0  0  0  0  0  0  0  0  0  0  0  0
   37.3980   26.3720   39.7130 C   0  0  1  0  0  0  0  0  0  0  0  0
   36.9370   26.3330   41.1490 C   0  0  0  0  0  0  0  0  0  0  0  0
   38.2380   25.8020   41.7610 C   0  0  0  0  0  0  0  0  0  0  0  0
   39.1890   26.6530   41.0560 N   0  0  0  0  0  0  0  0  0  0  0  0
   37.8320   25.3450   39.5860 H   0  0  0  0  0  0  0  0  0  0  0  0
   36.7330   27.3120   41.5850 H   0  0  0  0  0  0  0  0  0  0  0  0
   36.1180   25.6000   41.2860 H   0  0  0  0  0  0  0  0  0  0  0  0
   38.3860   24.7350   41.5330 H   0  0  0  0  0  0  0  0  0  0  0  0
   38.1330   26.0450   42.8350 H   0  0  0  0  0  0  0  0  0  0  0  0
   40.4610   26.8050   41.7480 C   0  0  0  0  0  3  0  0  0  0  0  0
   41.1560   25.4880   41.9850 C   0  0  0  0  0  2  0  0  0  0  0  0
   42.0440   25.5060   43.2000 C   0  0  0  0  0  2  0  0  0  0  0  0
   42.6460   26.8310   43.4990 C   0  0  0  0  0  2  0  0  0  0  0  0
   41.7430   28.0070   43.3720 C   0  0  0  0  0  2  0  0  0  0  0  0
   40.3520   27.4970   43.0440 C   0  0  0  0  0  2  0  0  0  0  0  0
  1  2  1  0  0  0  0
  2  3  2  0  0  0  0
  2 21  1  0  0  0  0
  3 13  1  0  0  0  0
  4  3  1  0  0  0  0
  5  4  2  0  0  0  0
  6  5  1  0  0  0  0
  6  1  2  0  0  0  0
  7 11  1  0  0  0  0
  7  5  1  0  0  0  0
  8  7  1  0  0  0  0
  9  8  1  0  0  0  0
  9 10  1  0  0  0  0
 10 18  1  0  0  0  0
 10 11  1  0  0  0  0
 11 20  1  1  0  0  0
 12  1  1  0  0  0  0
 14  8  1  0  0  0  0
 15  8  1  0  0  0  0
 16  9  1  0  0  0  0
 17  9  1  0  0  0  0
 19 10  1  0  0  0  0
 21 23  1  0  0  0  0
 22 21  1  0  0  0  0
 24 11  1  0  0  0  0
 24 27  1  0  0  0  0
 25 26  2  0  0  0  0
 26 30  1  0  0  0  0
 27 31  1  6  0  0  0
 27 26  1  0  0  0  0
 27 28  1  0  0  0  0
 28 33  1  0  0  0  0
 28 32  1  0  0  0  0
 28 29  1  0  0  0  0
 29 35  1  0  0  0  0
 30 36  1  0  0  0  0
 30 29  1  0  0  0  0
 34 29  1  0  0  0  0
 36 37  1  0  0  0  0
 36 41  1  0  0  0  0
 37 38  1  0  0  0  0
 38 39  1  0  0  0  0
 40 39  1  0  0  0  0
 41 40  1  0  0  0  0
M  END
>  <minimizedAffinity>
-5.43688965

$$$$

 OpenBabel03252506393D

 41 44  0  0  1  0  0  0  0  0999 V2000
   38.2120   27.5010   36.5860 C   0  0  0  0  0  0  0  0  0  0  0  0
   37.3940   28.5400   36.0990 C   0  0  0  0  0  0  0  0  0  0  0  0
   36.7200   29.3240   36.9780 C   0  0  0  0  0  0  0  0  0  0  0  0
   36.8810   29.0510   38.2970 N   0  0  0  0  0  0  0  0  0  0  0  0
   37.6510   28.0720   38.7490 C   0  0  0  0  0  0  0  0  0  0  0  0
   38.3250   27.2870   37.9060 N   0  0  0  0  0  0  0  0  0  0  0  0
   37.7480   27.8690   40.1690 N   0  0  0  0  0  0  0  0  0  0  0  0
   38.7040   27.0250   40.7950 C   0  0  0  0  0  0  0  0  0  0  0  0
   37.9240   26.4260   41.9550 C   0  0  0  0  0  0  0  0  0  0  0  0
   36.6150   27.1340   41.9920 C   0  0  0  0  0  0  0  0  0  0  0  0
   36.9180   28.4150   41.2140 C   0  0  1  0  0  0  0  0  0  0  0  0
   38.7550   26.8700   35.8770 H   0  0  0  0  0  0  0  0  0  0  0  0
   36.0970   30.1150   36.6290 H   0  0  0  0  0  0  0  0  0  0  0  0
   39.6890   27.3000   41.0210 H   0  0  0  0  0  0  0  0  0  0  0  0
   38.8200   26.1310   40.0980 H   0  0  0  0  0  0  0  0  0  0  0  0
   37.8970   25.3400   41.9770 H   0  0  0  0  0  0  0  0  0  0  0  0
   38.5200   26.7260   42.8680 H   0  0  0  0  0  0  0  0  0  0  0  0
   35.8480   26.5160   41.4740 H   0  0  0  0  0  0  0  0  0  0  0  0
   36.3410   27.3430   43.0420 H   0  0  0  0  0  0  0  0  0  0  0  0
   35.9560   28.8030   40.8530 H   0  0  0  0  0  0  0  0  0  0  0  0
   37.3270   28.7040   34.6740 N   0  0  0  0  0  0  0  0  0  0  0  0
   38.1610   28.5200   34.0970 H   0  0  0  0  0  0  0  0  0  0  0  0
   36.3910   29.0080   34.3480 H   0  0  0  0  0  0  0  0  0  0  0  0
   37.8110   29.5340   42.2650 S   0  0  0  0  0  0  0  0  0  0  0  0
   40.4750   30.0610   40.3400 O   0  0  0  0  0  0  0  0  0  0  0  0
   39.5880   30.8770   40.6290 C   0  0  0  0  0  0  0  0  0  0  0  0
   38.4160   30.9990   41.5350 C   0  0  1  0  0  0  0  0  0  0  0  0
   37.4250   31.7300   40.6640 C   0  0  0  0  0  0  0  0  0  0  0  0
   38.3320   32.8990   40.2690 C   0  0  0  0  0  0  0  0  0  0  0  0
   39.5490   32.1550   39.9640 N   0  0  0  0  0  0  0  0  0  0  0  0
   38.7830   31.8220   42.2030 H   0  0  0  0  0  0  0  0  0  0  0  0
   37.1430   31.1970   39.7550 H   0  0  0  0  0  0  0  0  0  0  0  0
   36.5630   32.0930   41.2580 H   0  0  0  0  0  0  0  0  0  0  0  0
   38.4740   33.6010   41.1050 H   0  0  0  0  0  0  0  0  0  0  0  0
   37.8320   33.3210   39.3780 H   0  0  0  0  0  0  0  0  0  0  0  0
   40.4520   32.8570   39.0630 C   0  0  0  0  0  3  0  0  0  0  0  0
   40.5670   32.1870   37.7160 C   0  0  0  0  0  2  0  0  0  0  0  0
   41.8920   32.4370   37.0500 C   0  0  0  0  0  2  0  0  0  0  0  0
   42.5080   33.7480   37.3820 C   0  0  0  0  0  2  0  0  0  0  0  0
   42.4420   34.1610   38.8110 C   0  0  0  0  0  2  0  0  0  0  0  0
   41.8140   33.0270   39.5990 C   0  0  0  0  0  2  0  0  0  0  0  0
  1  6  1  0  0  0  0
  2  1  2  0  0  0  0
  2  3  1  0  0  0  0
  3  4  2  0  0  0  0
  4  5  1  0  0  0  0
  5  7  1  0  0  0  0
  6  5  2  0  0  0  0
  7  8  1  0  0  0  0
  7 11  1  0  0  0  0
  8 14  1  0  0  0  0
  8  9  1  0  0  0  0
  9 16  1  0  0  0  0
  9 10  1  0  0  0  0
  9 17  1  0  0  0  0
 10 19  1  0  0  0  0
 11 20  1  6  0  0  0
 11 10  1  0  0  0  0
 11 24  1  0  0  0  0
 12  1  1  0  0  0  0
 13  3  1  0  0  0  0
 15  8  1  0  0  0  0
 18 10  1  0  0  0  0
 21  2  1  0  0  0  0
 22 21  1  0  0  0  0
 23 21  1  0  0  0  0
 25 26  2  0  0  0  0
 26 27  1  0  0  0  0
 27 31  1  1  0  0  0
 27 24  1  0  0  0  0
 28 33  1  0  0  0  0
 28 27  1  0  0  0  0
 29 28  1  0  0  0  0
 29 34  1  0  0  0  0
 30 29  1  0  0  0  0
 30 26  1  0  0  0  0
 32 28  1  0  0  0  0
 35 29  1  0  0  0  0
 36 41  1  0  0  0  0
 36 30  1  0  0  0  0
 37 36  1  0  0  0  0
 38 39  1  0  0  0  0
 38 37  1  0  0  0  0
 39 40  1  0  0  0  0
 40 41  1  0  0  0  0
M  END
>  <minimizedAffinity>
-5.41794395

$$$$

 OpenBabel03252506393D

 41 44  0  0  1  0  0  0  0  0999 V2000
   38.5480   27.1340   36.4110 C   0  0  0  0  0  0  0  0  0  0  0  0
   37.4600   27.9770   36.1110 C   0  0  0  0  0  0  0  0  0  0  0  0
   36.5260   28.2250   37.0640 C   0  0  0  0  0  0  0  0  0  0  0  0
   36.7050   27.6310   38.2710 N   0  0  0  0  0  0  0  0  0  0  0  0
   37.7290   26.8390   38.5480 C   0  0  0  0  0  0  0  0  0  0  0  0
   38.6620   26.5800   37.6290 N   0  0  0  0  0  0  0  0  0  0  0  0
   37.8210   26.2590   39.8600 N   0  0  0  0  0  0  0  0  0  0  0  0
   38.9700   25.5930   40.3650 C   0  0  0  0  0  0  0  0  0  0  0  0
   38.3740   24.4710   41.2010 C   0  0  0  0  0  0  0  0  0  0  0  0
   36.9050   24.7110   41.2430 C   0  0  0  0  0  0  0  0  0  0  0  0
   36.8100   26.1950   40.8860 C   0  0  1  0  0  0  0  0  0  0  0  0
   39.2990   26.9350   35.6420 H   0  0  0  0  0  0  0  0  0  0  0  0
   35.6960   28.8600   36.8560 H   0  0  0  0  0  0  0  0  0  0  0  0
   39.7990   26.0690   40.7930 H   0  0  0  0  0  0  0  0  0  0  0  0
   39.4030   25.0250   39.4770 H   0  0  0  0  0  0  0  0  0  0  0  0
   38.7020   23.4720   40.9270 H   0  0  0  0  0  0  0  0  0  0  0  0
   38.7960   24.6480   42.2350 H   0  0  0  0  0  0  0  0  0  0  0  0
   36.4070   24.0760   40.4760 H   0  0  0  0  0  0  0  0  0  0  0  0
   36.5290   24.5060   42.2610 H   0  0  0  0  0  0  0  0  0  0  0  0
   35.7920   26.3680   40.5120 H   0  0  0  0  0  0  0  0  0  0  0  0
   37.4090   28.5310   34.7870 N   0  0  0  0  0  0  0  0  0  0  0  0
   38.2840   28.7850   34.3040 H   0  0  0  0  0  0  0  0  0  0  0  0
   36.4410   28.6250   34.4270 H   0  0  0  0  0  0  0  0  0  0  0  0
   37.2380   27.1620   42.3130 S   0  0  0  0  0  0  0  0  0  0  0  0
   39.9730   28.8230   41.3910 O   0  0  0  0  0  0  0  0  0  0  0  0
   38.8310   29.2850   41.5430 C   0  0  0  0  0  0  0  0  0  0  0  0
   37.5050   28.8690   42.0660 C   0  0  1  0  0  0  0  0  0  0  0  0
   36.5650   29.5220   41.0830 C   0  0  0  0  0  0  0  0  0  0  0  0
   37.1240   30.9440   41.1880 C   0  0  0  0  0  0  0  0  0  0  0  0
   38.5480   30.6380   41.1320 N   0  0  0  0  0  0  0  0  0  0  0  0
   37.4270   29.5600   42.9470 H   0  0  0  0  0  0  0  0  0  0  0  0
   36.6840   29.1850   40.0520 H   0  0  0  0  0  0  0  0  0  0  0  0
   35.5200   29.4890   41.4480 H   0  0  0  0  0  0  0  0  0  0  0  0
   36.8390   31.4220   42.1380 H   0  0  0  0  0  0  0  0  0  0  0  0
   36.7380   31.4390   40.2770 H   0  0  0  0  0  0  0  0  0  0  0  0
   39.3680   31.7520   40.6780 C   0  0  0  0  0  3  0  0  0  0  0  0
   38.7420   33.0930   40.9730 C   0  0  0  0  0  2  0  0  0  0  0  0
   39.1590   34.1600   39.9970 C   0  0  0  0  0  2  0  0  0  0  0  0
   40.5260   33.9830   39.4420 C   0  0  0  0  0  2  0  0  0  0  0  0
   40.9000   32.5980   39.0470 C   0  0  0  0  0  2  0  0  0  0  0  0
   39.6850   31.7100   39.2400 C   0  0  0  0  0  2  0  0  0  0  0  0
  1  6  1  0  0  0  0
  2  1  2  0  0  0  0
  2  3  1  0  0  0  0
  3  4  2  0  0  0  0
  4  5  1  0  0  0  0
  5  7  1  0  0  0  0
  6  5  2  0  0  0  0
  7  8  1  0  0  0  0
  7 11  1  0  0  0  0
  8 14  1  0  0  0  0
  8  9  1  0  0  0  0
  9 10  1  0  0  0  0
  9 17  1  0  0  0  0
 10 19  1  0  0  0  0
 11 20  1  6  0  0  0
 11 10  1  0  0  0  0
 11 24  1  0  0  0  0
 12  1  1  0  0  0  0
 13  3  1  0  0  0  0
 15  8  1  0  0  0  0
 16  9  1  0  0  0  0
 18 10  1  0  0  0  0
 21  2  1  0  0  0  0
 22 21  1  0  0  0  0
 23 21  1  0  0  0  0
 25 26  2  0  0  0  0
 26 27  1  0  0  0  0
 27 24  1  0  0  0  0
 27 31  1  1  0  0  0
 28 29  1  0  0  0  0
 28 33  1  0  0  0  0
 28 27  1  0  0  0  0
 29 34  1  0  0  0  0
 30 29  1  0  0  0  0
 30 26  1  0  0  0  0
 32 28  1  0  0  0  0
 35 29  1  0  0  0  0
 36 37  1  0  0  0  0
 36 30  1  0  0  0  0
 38 37  1  0  0  0  0
 39 38  1  0  0  0  0
 40 41  1  0  0  0  0
 40 39  1  0  0  0  0
 41 36  1  0  0  0  0
M  END
>  <minimizedAffinity>
-5.36138773

$$$$

 OpenBabel03252506393D

 41 44  0  0  1  0  0  0  0  0999 V2000
   39.1360   26.3620   43.2360 C   0  0  0  0  0  0  0  0  0  0  0  0
   39.0920   25.0970   42.6160 C   0  0  0  0  0  0  0  0  0  0  0  0
   38.4500   24.9600   41.4280 C   0  0  0  0  0  0  0  0  0  0  0  0
   37.8800   26.0740   40.9030 N   0  0  0  0  0  0  0  0  0  0  0  0
   37.9240   27.2610   41.4900 C   0  0  0  0  0  0  0  0  0  0  0  0
   38.5490   27.4220   42.6590 N   0  0  0  0  0  0  0  0  0  0  0  0
   37.2840   28.3750   40.8470 N   0  0  0  0  0  0  0  0  0  0  0  0
   37.4520   29.7310   41.2370 C   0  0  0  0  0  0  0  0  0  0  0  0
   36.0700   30.3250   41.0090 C   0  0  0  0  0  0  0  0  0  0  0  0
   35.2670   29.2730   40.3270 C   0  0  0  0  0  0  0  0  0  0  0  0
   36.3510   28.3630   39.7480 C   0  0  1  0  0  0  0  0  0  0  0  0
   39.6540   26.4710   44.1930 H   0  0  0  0  0  0  0  0  0  0  0  0
   38.4060   24.0120   40.9440 H   0  0  0  0  0  0  0  0  0  0  0  0
   38.2480   30.3440   40.9450 H   0  0  0  0  0  0  0  0  0  0  0  0
   37.5180   29.7120   42.3740 H   0  0  0  0  0  0  0  0  0  0  0  0
   35.6240   30.7960   41.8810 H   0  0  0  0  0  0  0  0  0  0  0  0
   36.2530   31.1670   40.2780 H   0  0  0  0  0  0  0  0  0  0  0  0
   34.6460   28.7380   41.0800 H   0  0  0  0  0  0  0  0  0  0  0  0
   34.6510   29.7380   39.5350 H   0  0  0  0  0  0  0  0  0  0  0  0
   35.8850   27.3830   39.5770 H   0  0  0  0  0  0  0  0  0  0  0  0
   39.7430   24.0140   43.2970 N   0  0  0  0  0  0  0  0  0  0  0  0
   40.6070   24.1900   43.8320 H   0  0  0  0  0  0  0  0  0  0  0  0
   39.2510   23.1090   43.1760 H   0  0  0  0  0  0  0  0  0  0  0  0
   37.0230   29.1190   38.2880 S   0  0  0  0  0  0  0  0  0  0  0  0
   39.4350   27.7210   36.4680 O   0  0  0  0  0  0  0  0  0  0  0  0
   39.5440   28.6830   37.2440 C   0  0  0  0  0  0  0  0  0  0  0  0
   38.7440   29.4080   38.2630 C   0  0  1  0  0  0  0  0  0  0  0  0
   39.1420   30.8400   38.0090 C   0  0  0  0  0  0  0  0  0  0  0  0
   40.6590   30.6420   38.0880 C   0  0  0  0  0  0  0  0  0  0  0  0
   40.7760   29.4310   37.2840 N   0  0  0  0  0  0  0  0  0  0  0  0
   39.3440   29.1640   39.1790 H   0  0  0  0  0  0  0  0  0  0  0  0
   38.8990   31.2070   37.0100 H   0  0  0  0  0  0  0  0  0  0  0  0
   38.7960   31.5030   38.8270 H   0  0  0  0  0  0  0  0  0  0  0  0
   40.9930   30.4860   39.1250 H   0  0  0  0  0  0  0  0  0  0  0  0
   41.0610   31.5460   37.5940 H   0  0  0  0  0  0  0  0  0  0  0  0
   42.0960   29.2420   36.7020 C   0  0  0  0  0  3  0  0  0  0  0  0
   43.0310   28.4860   37.6130 C   0  0  0  0  0  2  0  0  0  0  0  0
   44.4770   28.8380   37.3900 C   0  0  0  0  0  2  0  0  0  0  0  0
   44.8060   29.2210   35.9920 C   0  0  0  0  0  2  0  0  0  0  0  0
   43.8340   30.1200   35.3120 C   0  0  0  0  0  2  0  0  0  0  0  0
   42.7620   30.4980   36.3150 C   0  0  0  0  0  2  0  0  0  0  0  0
  1 12  1  0  0  0  0
  2  1  2  0  0  0  0
  2 21  1  0  0  0  0
  3  2  1  0  0  0  0
  4  3  2  0  0  0  0
  4  5  1  0  0  0  0
  5  6  2  0  0  0  0
  6  1  1  0  0  0  0
  7  8  1  0  0  0  0
  7  5  1  0  0  0  0
  8 15  1  0  0  0  0
  9  8  1  0  0  0  0
  9 16  1  0  0  0  0
 10  9  1  0  0  0  0
 10 18  1  0  0  0  0
 11 20  1  6  0  0  0
 11 10  1  0  0  0  0
 11  7  1  0  0  0  0
 13  3  1  0  0  0  0
 14  8  1  0  0  0  0
 17  9  1  0  0  0  0
 19 10  1  0  0  0  0
 21 22  1  0  0  0  0
 23 21  1  0  0  0  0
 24 11  1  0  0  0  0
 25 26  2  0  0  0  0
 26 30  1  0  0  0  0
 26 27  1  0  0  0  0
 27 24  1  0  0  0  0
 27 31  1  1  0  0  0
 28 29  1  0  0  0  0
 28 27  1  0  0  0  0
 28 33  1  0  0  0  0
 29 34  1  0  0  0  0
 30 29  1  0  0  0  0
 32 28  1  0  0  0  0
 35 29  1  0  0  0  0
 36 30  1  0  0  0  0
 36 37  1  0  0  0  0
 38 37  1  0  0  0  0
 39 38  1  0  0  0  0
 40 39  1  0  0  0  0
 40 41  1  0  0  0  0
 41 36  1  0  0  0  0
M  END
>  <minimizedAffinity>
-5.31486559

$$$$
