
     RDKit          3D

 37 39  0  0  0  0  0  0  0  0999 V2000
   45.2640   36.1562   43.1801 C   0  0  0  0  0  0  0  0  0  0  0  0
   45.8743   34.9104   42.8912 C   0  0  0  0  0  0  0  0  0  0  0  0
   45.8269   33.9514   43.9011 C   0  0  0  0  0  0  0  0  0  0  0  0
   45.2265   34.2270   45.0738 N   0  0  0  0  0  0  0  0  0  0  0  0
   44.6465   35.4465   45.3152 C   0  0  0  0  0  0  0  0  0  0  0  0
   44.6821   36.3729   44.3640 N   0  0  0  0  0  0  0  0  0  0  0  0
   46.4479   32.6567   43.6321 C   0  0  0  0  0  0  0  0  0  0  0  0
   45.6661   31.5760   43.2982 C   0  0  0  0  0  0  0  0  0  0  0  0
   46.2775   30.3676   43.0498 C   0  0  0  0  0  0  0  0  0  0  0  0
   47.6519   30.1807   43.1191 C   0  0  0  0  0  0  0  0  0  0  0  0
   48.3810   31.3158   43.4621 C   0  0  0  0  0  0  0  0  0  0  0  0
   47.7664   32.4829   43.6999 N   0  0  0  0  0  0  0  0  0  0  0  0
   46.4930   34.6759   41.6360 C   0  0  0  0  0  0  0  0  0  0  0  0
   47.6657   35.1380   41.4864 O   0  0  0  0  0  0  0  0  0  0  0  0
   45.2755   36.9454   42.4145 H   0  0  0  0  0  0  0  0  0  0  0  0
   44.2074   35.5124   46.2999 H   0  0  0  0  0  0  0  0  0  0  0  0
   44.5704   31.6418   43.2223 H   0  0  0  0  0  0  0  0  0  0  0  0
   45.6863   29.4829   42.7806 H   0  0  0  0  0  0  0  0  0  0  0  0
   48.1446   29.2424   42.9278 H   0  0  0  0  0  0  0  0  0  0  0  0
   49.4619   31.2711   43.5419 H   0  0  0  0  0  0  0  0  0  0  0  0
   46.0432   33.9720   40.3978 C   0  0  0  0  0  0  0  0  0  0  0  0
   46.9836   34.3823   39.3089 C   0  0  0  0  0  0  0  0  0  0  0  0
   46.4720   34.1424   37.9180 C   0  0  0  0  0  0  0  0  0  0  0  0
   45.0621   34.5947   37.7119 C   0  0  0  0  0  0  0  0  0  0  0  0
   44.4062   35.1477   38.9362 C   0  0  0  0  0  0  0  0  0  0  0  0
   44.6035   34.2533   40.1303 C   0  0  0  0  0  0  0  0  0  0  0  0
   46.1359   32.8758   40.5773 H   0  0  0  0  0  0  0  0  0  0  0  0
   47.3259   35.4219   39.4758 H   0  0  0  0  0  0  0  0  0  0  0  0
   47.9160   33.7576   39.4311 H   0  0  0  0  0  0  0  0  0  0  0  0
   46.6184   33.0494   37.6873 H   0  0  0  0  0  0  0  0  0  0  0  0
   47.1371   34.7389   37.2367 H   0  0  0  0  0  0  0  0  0  0  0  0
   44.9930   35.3750   36.9276 H   0  0  0  0  0  0  0  0  0  0  0  0
   44.4527   33.7281   37.3523 H   0  0  0  0  0  0  0  0  0  0  0  0
   43.3119   35.1681   38.7236 H   0  0  0  0  0  0  0  0  0  0  0  0
   44.7235   36.2079   39.1343 H   0  0  0  0  0  0  0  0  0  0  0  0
   44.0907   34.7470   40.9920 H   0  0  0  0  0  0  0  0  0  0  0  0
   44.0133   33.3385   39.9420 H   0  0  0  0  0  0  0  0  0  0  0  0
  1  6  2  0
  2  1  1  0
  2  3  2  0
  3  4  1  0
  4  5  2  0
  6  5  1  0
  7 12  1  0
  7  3  1  0
  8  7  2  0
  9 10  2  0
  9  8  1  0
 10 11  1  0
 11 12  2  0
 13  2  1  0
 14 13  2  0
  1 15  1  0
  5 16  1  0
  8 17  1  0
  9 18  1  0
 10 19  1  0
 11 20  1  0
 21 22  1  0
 22 23  1  0
 23 24  1  0
 24 25  1  0
 25 26  1  0
 26 21  1  0
 21 27  1  0
 22 28  1  0
 22 29  1  0
 23 30  1  0
 23 31  1  0
 24 32  1  0
 24 33  1  0
 25 34  1  0
 25 35  1  0
 26 36  1  0
 26 37  1  0
 13 21  1  0
M  ISO  6  15  14  16  14  17  14  18  14  19  14  20  14
M  END
>  <DihAtoms>  (1) 
1,12,20,21

>  <DihDeg>  (1) 
179.99079589226383

$$$$
