
     RDKit          3D

 32 33  0  0  0  0  0  0  0  0999 V2000
   45.1871   35.2212   44.0471 C   0  0  0  0  0  0  0  0  0  0  0  0
   46.2395   34.5524   43.3723 C   0  0  0  0  0  0  0  0  0  0  0  0
   46.9117   33.5401   44.0609 C   0  0  0  0  0  0  0  0  0  0  0  0
   46.5133   33.2652   45.3261 N   0  0  0  0  0  0  0  0  0  0  0  0
   45.5160   33.9183   45.9287 C   0  0  0  0  0  0  0  0  0  0  0  0
   44.8404   34.8967   45.3117 N   0  0  0  0  0  0  0  0  0  0  0  0
   46.5416   34.9872   42.0121 C   0  0  1  0  0  0  0  0  0  0  0  0
   48.0465   35.2049   41.9471 C   0  0  0  0  0  0  0  0  0  0  0  0
   44.6279   36.0137   43.5694 H   0  0  0  0  0  0  0  0  0  0  0  0
   47.7207   33.0159   43.5756 H   0  0  0  0  0  0  0  0  0  0  0  0
   45.1816   33.7106   46.9468 H   0  0  0  0  0  0  0  0  0  0  0  0
   46.0101   35.9525   41.8493 H   0  0  0  0  0  0  0  0  0  0  0  0
   48.4999   35.3401   42.9514 H   0  0  0  0  0  0  0  0  0  0  0  0
   48.5493   34.4275   41.3480 H   0  0  0  0  0  0  0  0  0  0  0  0
   48.2090   36.1534   41.3940 H   0  0  0  0  0  0  0  0  0  0  0  0
   46.0328   34.0664   40.9227 C   0  0  0  0  0  0  0  0  0  0  0  0
   46.8682   32.8255   40.8031 C   0  0  0  0  0  0  0  0  0  0  0  0
   46.1344   31.6724   40.1698 C   0  0  0  0  0  0  0  0  0  0  0  0
   45.0688   32.1798   39.2146 C   0  0  0  0  0  0  0  0  0  0  0  0
   44.0201   32.8072   40.0734 C   0  0  0  0  0  0  0  0  0  0  0  0
   44.5630   33.8142   41.0073 C   0  0  0  0  0  0  0  0  0  0  0  0
   46.2040   34.6274   39.9770 H   0  0  0  0  0  0  0  0  0  0  0  0
   47.8129   32.9555   40.2395 H   0  0  0  0  0  0  0  0  0  0  0  0
   47.1564   32.5016   41.8225 H   0  0  0  0  0  0  0  0  0  0  0  0
   45.5994   31.1124   40.9474 H   0  0  0  0  0  0  0  0  0  0  0  0
   46.8412   31.0161   39.6416 H   0  0  0  0  0  0  0  0  0  0  0  0
   45.4693   32.9192   38.5029 H   0  0  0  0  0  0  0  0  0  0  0  0
   44.6266   31.2981   38.7111 H   0  0  0  0  0  0  0  0  0  0  0  0
   43.2261   33.2952   39.4334 H   0  0  0  0  0  0  0  0  0  0  0  0
   43.4631   31.9699   40.5612 H   0  0  0  0  0  0  0  0  0  0  0  0
   43.9669   34.7388   40.9438 H   0  0  0  0  0  0  0  0  0  0  0  0
   44.3476   33.4084   42.0422 H   0  0  0  0  0  0  0  0  0  0  0  0
  1  6  2  0
  2  1  1  0
  2  3  2  0
  3  4  1  0
  4  5  2  0
  6  5  1  0
  7  2  1  0
  8  7  1  0
  1  9  1  0
  3 10  1  0
  5 11  1  0
  7 12  1  6
  8 13  1  0
  8 14  1  0
  8 15  1  0
 16 17  1  0
 17 18  1  0
 18 19  1  0
 19 20  1  0
 20 21  1  0
 21 16  1  0
 16 22  1  0
 17 23  1  0
 17 24  1  0
 18 25  1  0
 18 26  1  0
 19 27  1  0
 19 28  1  0
 20 29  1  0
 20 30  1  0
 21 31  1  0
 21 32  1  0
  7 16  1  0
M  ISO  7   9  14  10  14  11  14  12   8  13   8  14   8  15   8
M  END
>  <DihAtoms>  (1) 
1,6,15,16

>  <DihDeg>  (1) 
179.6809176550922

$$$$
