
     RDKit          3D

 38 39  0  0  0  0  0  0  0  0999 V2000
   42.4903   33.7992   41.1364 S   0  0  0  0  0  0  0  0  0  0  0  0
   39.8282   34.0600   40.4214 C   0  0  0  0  0  0  0  0  0  0  0  0
   41.1371   34.0598   39.9632 C   0  0  0  0  0  0  0  0  0  0  0  0
   41.4195   34.2586   38.6062 C   0  0  0  0  0  0  0  0  0  0  0  0
   40.3516   34.4488   37.7777 N   0  0  0  0  0  0  0  0  0  0  0  0
   39.1062   34.4398   38.2720 C   0  0  0  0  0  0  0  0  0  0  0  0
   38.8037   34.2559   39.5418 N   0  0  0  0  0  0  0  0  0  0  0  0
   43.7358   35.0677   40.8921 C   0  0  0  0  0  0  0  0  0  0  0  0
   43.5765   36.0478   41.9727 N   0  0  0  0  0  0  0  0  0  0  0  0
   44.8436   35.9241   43.1391 S   0  0  0  0  0  0  0  0  0  0  0  0
   45.9862   35.1169   42.6279 O   0  0  0  0  0  0  0  0  0  0  0  0
   45.2886   37.3597   43.4041 O   0  0  0  0  0  0  0  0  0  0  0  0
   44.2087   35.3556   44.5694 O   0  0  0  0  0  0  0  0  0  0  0  0
   39.5834   33.9088   41.4644 H   0  0  0  0  0  0  0  0  0  0  0  0
   42.4667   34.2435   38.3340 H   0  0  0  0  0  0  0  0  0  0  0  0
   38.3960   34.6093   37.4486 H   0  0  0  0  0  0  0  0  0  0  0  0
   43.5653   35.6082   39.9463 H   0  0  0  0  0  0  0  0  0  0  0  0
   44.7366   34.6143   40.8876 H   0  0  0  0  0  0  0  0  0  0  0  0
   43.4846   37.0087   41.6099 H   0  0  0  0  0  0  0  0  0  0  0  0
   46.7212   35.5576   42.1001 H   0  0  0  0  0  0  0  0  0  0  0  0
   46.2333   37.5294   43.6603 H   0  0  0  0  0  0  0  0  0  0  0  0
   43.9924   36.3423   45.5227 C   0  0  0  0  0  0  0  0  0  0  0  0
   43.3870   37.5357   44.8585 C   0  0  0  0  0  0  0  0  0  0  0  0
   43.9587   38.8544   45.2725 C   0  0  0  0  0  0  0  0  0  0  0  0
   45.4420   38.9691   45.1664 C   0  0  0  0  0  0  0  0  0  0  0  0
   46.1206   37.6339   45.2655 C   0  0  0  0  0  0  0  0  0  0  0  0
   45.2728   36.7879   46.1848 C   0  0  0  0  0  0  0  0  0  0  0  0
   43.3345   35.9544   46.3249 H   0  0  0  0  0  0  0  0  0  0  0  0
   43.3678   37.4607   43.7526 H   0  0  0  0  0  0  0  0  0  0  0  0
   42.2989   37.5743   45.1473 H   0  0  0  0  0  0  0  0  0  0  0  0
   43.5308   39.6086   44.5556 H   0  0  0  0  0  0  0  0  0  0  0  0
   43.5961   39.1873   46.2672 H   0  0  0  0  0  0  0  0  0  0  0  0
   45.8140   39.6140   45.9950 H   0  0  0  0  0  0  0  0  0  0  0  0
   45.8001   39.4447   44.2134 H   0  0  0  0  0  0  0  0  0  0  0  0
   47.0999   37.7522   45.7813 H   0  0  0  0  0  0  0  0  0  0  0  0
   46.2651   37.1354   44.2892 H   0  0  0  0  0  0  0  0  0  0  0  0
   45.8937   35.9721   46.5803 H   0  0  0  0  0  0  0  0  0  0  0  0
   44.9875   37.4294   47.0539 H   0  0  0  0  0  0  0  0  0  0  0  0
  3  2  2  0
  3  1  1  0
  4  3  1  0
  5  6  1  0
  5  4  2  0
  6  7  2  0
  7  2  1  0
  8  1  1  0
  8  9  1  0
  9 10  1  0
 10 12  1  0
 10 13  1  0
 11 10  1  0
  2 14  1  0
  4 15  1  0
  6 16  1  0
  8 17  1  0
  8 18  1  0
  9 19  1  0
 11 20  1  0
 12 21  1  0
 22 23  1  0
 23 24  1  0
 24 25  1  0
 25 26  1  0
 26 27  1  0
 27 22  1  0
 22 28  1  0
 23 29  1  0
 23 30  1  0
 24 31  1  0
 24 32  1  0
 25 33  1  0
 25 34  1  0
 26 35  1  0
 26 36  1  0
 27 37  1  0
 27 38  1  0
 13 22  1  0
M  ISO  8  14  14  15  14  16  14  17   8  18   8  19   5  20   3  21   3
M  END
>  <DihAtoms>  (1) 
9,12,21,22

>  <DihDeg>  (1) 
-122.05664937246465

$$$$
