
 OpenBabel03242522393D

 37 39  0  0  0  0  0  0  0  0999 V2000
   46.2650   31.7060   45.4210 C   0  0  0  0  0  0  0  0  0  0  0  0
   46.2000   30.7510   44.8270 H   0  0  0  0  0  0  0  0  0  0  0  0
   45.2530   31.9430   45.7330 H   0  0  0  0  0  0  0  0  0  0  0  0
   47.2910   32.3920   47.6030 C   0  0  0  0  0  0  0  0  0  0  0  0
   47.0950   31.4020   46.5900 C   0  0  0  0  0  0  0  0  0  0  0  0
   47.7180   30.1620   46.7640 C   0  0  0  0  0  0  0  0  0  0  0  0
   48.4760   29.9720   47.8900 N   0  0  0  0  0  0  0  0  0  0  0  0
   48.6250   30.9230   48.7980 C   0  0  0  0  0  0  0  0  0  0  0  0
   48.0520   32.1150   48.6730 N   0  0  0  0  0  0  0  0  0  0  0  0
   46.8350   33.3480   47.5080 H   0  0  0  0  0  0  0  0  0  0  0  0
   47.5750   29.4190   46.0120 H   0  0  0  0  0  0  0  0  0  0  0  0
   49.4610   30.6090   50.0110 C   0  0  0  0  0  0  0  0  0  0  0  0
   49.9070   29.6140   49.9250 H   0  0  0  0  0  0  0  0  0  0  0  0
   48.7900   30.5970   50.8990 H   0  0  0  0  0  0  0  0  0  0  0  0
   50.5220   31.6240   50.2730 C   0  0  0  0  0  0  0  0  0  0  0  0
   51.6570   31.3320   49.2980 C   0  0  0  0  0  0  0  0  0  0  0  0
   52.8110   32.2740   49.4950 C   0  0  0  0  0  0  0  0  0  0  0  0
   53.2720   32.1710   50.9230 C   0  0  0  0  0  0  0  0  0  0  0  0
   52.1570   32.5830   51.8310 C   0  0  0  0  0  0  0  0  0  0  0  0
   51.0020   31.6140   51.6960 C   0  0  0  0  0  0  0  0  0  0  0  0
   46.9780   32.7670   44.6250 C   0  0  0  0  0  0  0  0  0  0  0  0
   47.3380   32.3080   43.6590 H   0  0  0  0  0  0  0  0  0  0  0  0
   47.9260   33.1100   45.1240 H   0  0  0  0  0  0  0  0  0  0  0  0
   46.4270   34.6420   43.1520 C   0  0  0  0  0  0  0  0  0  0  0  0
   46.2060   33.9670   44.3360 C   0  0  0  0  0  0  0  0  0  0  0  0
   45.2910   34.3660   45.2620 C   0  0  0  0  0  0  0  0  0  0  0  0
   44.5400   35.4980   45.0210 C   0  0  0  0  0  0  0  0  0  0  0  0
   44.6910   36.2270   43.8800 C   0  0  0  0  0  0  0  0  0  0  0  0
   45.6470   35.7670   42.9670 C   0  0  0  0  0  0  0  0  0  0  0  0
   45.0440   33.9180   46.2100 H   0  0  0  0  0  0  0  0  0  0  0  0
   43.7850   35.8970   45.6980 H   0  0  0  0  0  0  0  0  0  0  0  0
   44.1330   37.1280   43.6260 H   0  0  0  0  0  0  0  0  0  0  0  0
   45.7770   36.3430   42.0480 H   0  0  0  0  0  0  0  0  0  0  0  0
   47.5810   34.1760   41.9430 S   0  0  0  0  0  0  0  0  0  0  0  0
   48.8350   35.0310   41.9670 O   0  0  0  0  0  0  0  0  0  0  0  0
   46.9840   34.4380   40.5690 O   0  0  0  0  0  0  0  0  0  0  0  0
   47.8780   32.8390   41.9730 H   0  0  0  0  0  0  0  0  0  0  0  0
  1  3  1  0  0  0  0
  1  5  1  0  0  0  0
  2  1  1  0  0  0  0
  4  9  1  0  0  0  0
  5  6  1  0  0  0  0
  5  4  2  0  0  0  0
  6  7  2  0  0  0  0
  7  8  1  0  0  0  0
  8 12  1  0  0  0  0
  9  8  2  0  0  0  0
 10  4  1  0  0  0  0
 11  6  1  0  0  0  0
 12 15  1  0  0  0  0
 12 14  1  0  0  0  0
 13 12  1  0  0  0  0
 15 20  1  0  0  0  0
 16 17  1  0  0  0  0
 16 15  1  0  0  0  0
 17 18  1  0  0  0  0
 18 19  1  0  0  0  0
 20 19  1  0  0  0  0
 21 23  1  0  0  0  0
 21  1  1  0  0  0  0
 22 21  1  0  0  0  0
 24 25  1  0  0  0  0
 25 21  1  0  0  0  0
 25 26  2  0  0  0  0
 26 30  1  0  0  0  0
 27 26  1  0  0  0  0
 27 31  1  0  0  0  0
 28 27  2  0  0  0  0
 29 24  2  0  0  0  0
 29 28  1  0  0  0  0
 32 28  1  0  0  0  0
 33 29  1  0  0  0  0
 34 35  2  0  0  0  0
 34 37  1  0  0  0  0
 34 24  1  0  0  0  0
 36 34  2  0  0  0  0
M  END
>  <minimizedAffinity>
-5.83913565

>  <minimizedRMSD>
1.0749985

$$$$
