
 OpenBabel03242522503D

 23 24  0  0  0  0  0  0  0  0999 V2000
   44.8040   30.6390   47.8260 O   0  0  0  0  0  0  0  0  0  0  0  0
   45.6490   31.8060   48.3830 P   0  0  2  0  0  0  0  0  0  0  0  0
   45.2910   31.8930   50.0240 O   0  0  0  0  0  0  0  0  0  0  0  0
   45.8330   32.5320   50.5260 H   0  0  0  0  0  0  0  0  0  0  0  0
   45.1700   33.2270   47.6070 O   0  0  0  0  0  0  0  0  0  0  0  0
   47.0140   32.9740   44.4880 C   0  0  0  0  0  0  0  0  0  0  0  0
   46.5720   32.7250   45.7990 C   0  0  0  0  0  0  0  0  0  0  0  0
   45.5690   33.5060   46.3170 C   0  0  0  0  0  0  0  0  0  0  0  0
   45.0560   34.4810   45.5310 N   0  0  0  0  0  0  0  0  0  0  0  0
   45.4710   34.7240   44.2830 C   0  0  0  0  0  0  0  0  0  0  0  0
   46.4610   33.9600   43.7580 N   0  0  0  0  0  0  0  0  0  0  0  0
   47.7950   32.4210   43.9850 H   0  0  0  0  0  0  0  0  0  0  0  0
   47.1060   31.9180   46.2280 H   0  0  0  0  0  0  0  0  0  0  0  0
   44.9410   35.5420   43.8110 H   0  0  0  0  0  0  0  0  0  0  0  0
   47.2460   31.4900   48.0990 O   0  0  0  0  0  0  0  0  0  0  0  0
   47.9990   30.3830   48.2790 C   0  0  0  0  0  0  0  0  0  0  0  0
   48.6500   30.3840   49.3850 O   0  0  0  0  0  0  0  0  0  0  0  0
   48.5540   29.0570   47.9060 C   0  0  0  0  0  3  0  0  0  0  0  0
   49.6520   29.1800   46.8870 C   0  0  0  0  0  2  0  0  0  0  0  0
   49.2400   29.4290   45.4910 C   0  0  0  0  0  2  0  0  0  0  0  0
   48.0580   28.6160   45.0320 C   0  0  0  0  0  2  0  0  0  0  0  0
   46.9480   28.6560   46.0240 C   0  0  0  0  0  2  0  0  0  0  0  0
   47.3900   28.2320   47.4040 C   0  0  0  0  0  2  0  0  0  0  0  0
  2  1  2  6  0  0  0
  2  3  1  0  0  0  0
  3  4  1  0  0  0  0
  5  2  1  0  0  0  0
  6  7  1  0  0  0  0
  7 13  1  0  0  0  0
  7  8  2  0  0  0  0
  8  5  1  0  0  0  0
  9  8  1  0  0  0  0
 10  9  2  0  0  0  0
 11 10  1  0  0  0  0
 11  6  2  0  0  0  0
 12  6  1  0  0  0  0
 14 10  1  0  0  0  0
 15 16  1  0  0  0  0
 15  2  1  0  0  0  0
 16 17  2  0  0  0  0
 18 16  1  0  0  0  0
 19 18  1  0  0  0  0
 20 19  1  0  0  0  0
 21 20  1  0  0  0  0
 21 22  1  0  0  0  0
 22 23  1  0  0  0  0
 23 18  1  0  0  0  0
M  END
>  <minimizedAffinity>
-4.33346033

>  <minimizedRMSD>
1.30723321

$$$$
