
 OpenBabel03242519503D

 47 50  0  0  1  0  0  0  0  0999 V2000
   38.3530   34.0600   40.2440 C   0  0  0  0  0  0  0  0  0  0  0  0
   38.4090   33.9760   41.2920 H   0  0  0  0  0  0  0  0  0  0  0  0
   38.2480   35.3060   40.2450 H   0  0  0  0  0  0  0  0  0  0  0  0
   37.0940   33.7230   39.4520 C   0  0  0  0  0  0  0  0  0  0  0  0
   37.0570   34.4440   38.5940 H   0  0  0  0  0  0  0  0  0  0  0  0
   36.1880   33.8540   40.0250 H   0  0  0  0  0  0  0  0  0  0  0  0
   36.7960   31.3280   39.7310 C   0  0  0  0  0  0  0  0  0  0  0  0
   37.2150   32.3740   38.8940 C   0  0  0  0  0  0  0  0  0  0  0  0
   37.7000   31.9560   37.6760 C   0  0  0  0  0  0  0  0  0  0  0  0
   37.7900   30.6600   37.2670 C   0  0  0  0  0  0  0  0  0  0  0  0
   37.3710   29.6430   38.1100 C   0  0  0  0  0  0  0  0  0  0  0  0
   36.8610   29.9930   39.3760 C   0  0  0  0  0  0  0  0  0  0  0  0
   38.0150   32.7990   37.0550 H   0  0  0  0  0  0  0  0  0  0  0  0
   38.1970   30.5000   36.2750 H   0  0  0  0  0  0  0  0  0  0  0  0
   37.4600   28.6290   37.7470 H   0  0  0  0  0  0  0  0  0  0  0  0
   36.2660   31.4450   40.9990 O   0  0  0  0  0  0  0  0  0  0  0  0
   35.2940   31.7240   41.1050 H   0  0  0  0  0  0  0  0  0  0  0  0
   36.4880   28.9290   40.0990 O   0  0  0  0  0  0  0  0  0  0  0  0
   37.0810   27.8680   40.7070 C   0  0  0  0  0  3  0  0  0  0  0  0
   36.4620   27.7800   42.1200 C   0  0  0  0  0  2  0  0  0  0  0  0
   37.2020   26.7170   42.8780 C   0  0  0  0  0  2  0  0  0  0  0  0
   37.0530   25.3800   42.1860 C   0  0  0  0  0  2  0  0  0  0  0  0
   37.3610   25.4360   40.7270 C   0  0  0  0  0  2  0  0  0  0  0  0
   36.6110   26.5540   40.0470 C   0  0  0  0  0  2  0  0  0  0  0  0
   39.4800   33.9640   39.5270 O   0  0  0  0  0  0  0  0  0  0  0  0
   41.7360   33.3550   39.0820 C   0  0  2  0  0  0  0  0  0  0  0  0
   41.8740   31.9110   39.2690 C   0  0  1  0  0  0  0  0  0  0  0  0
   40.5460   31.5160   39.8050 O   0  0  0  0  0  0  0  0  0  0  0  0
   40.5290   32.3980   40.8820 C   0  0  0  0  0  0  0  0  0  0  0  0
   40.6940   33.7890   40.0560 C   0  0  2  0  0  0  0  0  0  0  0  0
   42.6780   33.9290   39.1650 H   0  0  0  0  0  0  0  0  0  0  0  0
   42.5480   31.6890   40.1410 H   0  0  0  0  0  0  0  0  0  0  0  0
   41.4160   32.3040   41.5180 H   0  0  0  0  0  0  0  0  0  0  0  0
   39.5660   32.4470   41.3880 H   0  0  0  0  0  0  0  0  0  0  0  0
   40.9820   34.3660   40.9510 H   0  0  0  0  0  0  0  0  0  0  0  0
   43.6050   30.8000   36.2610 C   0  0  0  0  0  0  0  0  0  0  0  0
   42.8780   29.6860   35.8500 C   0  0  0  0  0  0  0  0  0  0  0  0
   41.7550   29.3000   36.6090 C   0  0  0  0  0  0  0  0  0  0  0  0
   41.4250   30.0190   37.7030 N   0  0  0  0  0  0  0  0  0  0  0  0
   42.1440   31.1000   38.0860 C   0  0  0  0  0  0  0  0  0  0  0  0
   43.2380   31.5000   37.3700 N   0  0  0  0  0  0  0  0  0  0  0  0
   43.2240   29.1720   34.9560 H   0  0  0  0  0  0  0  0  0  0  0  0
   41.2140   28.4460   36.2770 H   0  0  0  0  0  0  0  0  0  0  0  0
   44.7240   31.2250   35.5480 O   0  0  0  0  0  0  0  0  0  0  0  0
   44.7230   31.4410   34.5710 H   0  0  0  0  0  0  0  0  0  0  0  0
   41.1930   33.5910   37.7490 O   0  0  0  0  0  0  0  0  0  0  0  0
   40.5990   34.3840   37.8360 H   0  0  0  0  0  0  0  0  0  0  0  0
  1  3  1  0  0  0  0
  1  2  1  0  0  0  0
  4  6  1  0  0  0  0
  4  1  1  0  0  0  0
  5  4  1  0  0  0  0
  7 16  1  0  0  0  0
  8  4  1  0  0  0  0
  8  7  2  0  0  0  0
  9  8  1  0  0  0  0
 10  9  2  0  0  0  0
 10 11  1  0  0  0  0
 11 12  2  0  0  0  0
 12  7  1  0  0  0  0
 12 18  1  0  0  0  0
 13  9  1  0  0  0  0
 14 10  1  0  0  0  0
 15 11  1  0  0  0  0
 16 17  1  0  0  0  0
 18 19  1  0  0  0  0
 19 20  1  0  0  0  0
 20 21  1  0  0  0  0
 22 21  1  0  0  0  0
 23 22  1  0  0  0  0
 24 19  1  0  0  0  0
 24 23  1  0  0  0  0
 25 30  1  0  0  0  0
 25  1  1  0  0  0  0
 26 31  1  1  0  0  0
 26 27  1  0  0  0  0
 26 30  1  0  0  0  0
 27 28  1  0  0  0  0
 27 32  1  1  0  0  0
 28 29  1  0  0  0  0
 29 34  1  0  0  0  0
 29 33  1  0  0  0  0
 30 29  1  0  0  0  0
 30 35  1  1  0  0  0
 36 41  1  0  0  0  0
 37 36  2  0  0  0  0
 37 38  1  0  0  0  0
 38 39  2  0  0  0  0
 39 40  1  0  0  0  0
 40 27  1  0  0  0  0
 41 40  2  0  0  0  0
 42 37  1  0  0  0  0
 43 38  1  0  0  0  0
 44 36  1  0  0  0  0
 45 44  1  0  0  0  0
 46 47  1  0  0  0  0
 46 26  1  0  0  0  0
M  END
>  <minimizedAffinity>
-6.59180593

$$$$

 OpenBabel03242519503D

 47 50  0  0  1  0  0  0  0  0999 V2000
   41.4220   33.0840   38.8410 C   0  0  0  0  0  0  0  0  0  0  0  0
   42.2590   32.5730   38.4590 H   0  0  0  0  0  0  0  0  0  0  0  0
   41.6440   34.1370   38.2040 H   0  0  0  0  0  0  0  0  0  0  0  0
   41.3810   33.6700   40.2480 C   0  0  0  0  0  0  0  0  0  0  0  0
   40.3630   34.1240   40.3720 H   0  0  0  0  0  0  0  0  0  0  0  0
   42.1070   34.4560   40.4000 H   0  0  0  0  0  0  0  0  0  0  0  0
   40.3280   31.8920   41.5260 C   0  0  0  0  0  0  0  0  0  0  0  0
   41.5090   32.5910   41.2310 C   0  0  0  0  0  0  0  0  0  0  0  0
   42.6060   32.1600   41.9380 C   0  0  0  0  0  0  0  0  0  0  0  0
   42.6060   31.1520   42.8550 C   0  0  0  0  0  0  0  0  0  0  0  0
   41.4280   30.4760   43.1320 C   0  0  0  0  0  0  0  0  0  0  0  0
   40.2600   30.8610   42.4440 C   0  0  0  0  0  0  0  0  0  0  0  0
   43.5040   32.7280   41.6800 H   0  0  0  0  0  0  0  0  0  0  0  0
   43.5580   30.9350   43.3260 H   0  0  0  0  0  0  0  0  0  0  0  0
   41.4710   29.6840   43.8660 H   0  0  0  0  0  0  0  0  0  0  0  0
   39.0820   32.1010   40.9710 O   0  0  0  0  0  0  0  0  0  0  0  0
   38.8890   31.7420   40.0400 H   0  0  0  0  0  0  0  0  0  0  0  0
   39.1880   30.1370   42.7940 O   0  0  0  0  0  0  0  0  0  0  0  0
   38.8600   28.8250   42.9240 C   0  0  0  0  0  3  0  0  0  0  0  0
   37.3820   28.7930   43.3740 C   0  0  0  0  0  2  0  0  0  0  0  0
   37.0280   27.3670   43.6800 C   0  0  0  0  0  2  0  0  0  0  0  0
   37.1890   26.5110   42.4430 C   0  0  0  0  0  2  0  0  0  0  0  0
   38.5070   26.6960   41.7670 C   0  0  0  0  0  2  0  0  0  0  0  0
   38.8070   28.1560   41.5340 C   0  0  0  0  0  2  0  0  0  0  0  0
   40.2120   32.8080   38.3390 O   0  0  0  0  0  0  0  0  0  0  0  0
   38.5810   31.5100   37.1930 C   0  0  2  0  0  0  0  0  0  0  0  0
   38.5380   30.1790   37.7960 C   0  0  1  0  0  0  0  0  0  0  0  0
   39.6630   30.2150   38.7650 O   0  0  0  0  0  0  0  0  0  0  0  0
   40.6550   30.5800   37.8600 C   0  0  0  0  0  0  0  0  0  0  0  0
   39.9940   31.9670   37.3250 C   0  0  2  0  0  0  0  0  0  0  0  0
   38.1980   31.5660   36.1570 H   0  0  0  0  0  0  0  0  0  0  0  0
   38.8920   29.4030   37.0630 H   0  0  0  0  0  0  0  0  0  0  0  0
   40.7080   29.9060   36.9980 H   0  0  0  0  0  0  0  0  0  0  0  0
   41.5990   30.8470   38.3330 H   0  0  0  0  0  0  0  0  0  0  0  0
   40.6440   32.0130   36.4340 H   0  0  0  0  0  0  0  0  0  0  0  0
   35.9490   30.3430   40.3550 C   0  0  0  0  0  0  0  0  0  0  0  0
   35.0710   29.3200   40.0070 C   0  0  0  0  0  0  0  0  0  0  0  0
   35.3670   28.5370   38.8740 C   0  0  0  0  0  0  0  0  0  0  0  0
   36.4860   28.8060   38.1670 N   0  0  0  0  0  0  0  0  0  0  0  0
   37.3280   29.8040   38.5210 C   0  0  0  0  0  0  0  0  0  0  0  0
   37.0670   30.5810   39.6170 N   0  0  0  0  0  0  0  0  0  0  0  0
   34.1960   29.1820   40.6400 H   0  0  0  0  0  0  0  0  0  0  0  0
   34.6840   27.7610   38.6260 H   0  0  0  0  0  0  0  0  0  0  0  0
   35.7040   31.1480   41.4660 O   0  0  0  0  0  0  0  0  0  0  0  0
   35.5560   30.8000   42.3930 H   0  0  0  0  0  0  0  0  0  0  0  0
   37.7700   32.4060   38.0100 O   0  0  0  0  0  0  0  0  0  0  0  0
   38.2290   33.2880   37.9820 H   0  0  0  0  0  0  0  0  0  0  0  0
  1  4  1  0  0  0  0
  2  1  1  0  0  0  0
  3  1  1  0  0  0  0
  4  5  1  0  0  0  0
  4  6  1  0  0  0  0
  4  8  1  0  0  0  0
  7 12  1  0  0  0  0
  8  7  2  0  0  0  0
  8  9  1  0  0  0  0
  9 10  2  0  0  0  0
 10 11  1  0  0  0  0
 10 14  1  0  0  0  0
 11 15  1  0  0  0  0
 12 18  1  0  0  0  0
 12 11  2  0  0  0  0
 13  9  1  0  0  0  0
 16  7  1  0  0  0  0
 17 16  1  0  0  0  0
 18 19  1  0  0  0  0
 19 20  1  0  0  0  0
 20 21  1  0  0  0  0
 22 21  1  0  0  0  0
 23 22  1  0  0  0  0
 24 23  1  0  0  0  0
 24 19  1  0  0  0  0
 25  1  1  0  0  0  0
 26 31  1  6  0  0  0
 26 30  1  0  0  0  0
 26 27  1  0  0  0  0
 26 46  1  0  0  0  0
 27 32  1  6  0  0  0
 27 40  1  0  0  0  0
 27 28  1  0  0  0  0
 29 34  1  0  0  0  0
 29 28  1  0  0  0  0
 30 35  1  6  0  0  0
 30 29  1  0  0  0  0
 30 25  1  0  0  0  0
 33 29  1  0  0  0  0
 36 44  1  0  0  0  0
 37 36  1  0  0  0  0
 37 42  1  0  0  0  0
 38 37  2  0  0  0  0
 39 40  2  0  0  0  0
 39 38  1  0  0  0  0
 40 41  1  0  0  0  0
 41 36  2  0  0  0  0
 43 38  1  0  0  0  0
 44 45  1  0  0  0  0
 47 46  1  0  0  0  0
M  END
>  <minimizedAffinity>
-6.2212224

$$$$

 OpenBabel03242519503D

 47 50  0  0  1  0  0  0  0  0999 V2000
   38.3340   32.9970   40.1950 C   0  0  0  0  0  0  0  0  0  0  0  0
   38.6850   33.5530   41.0170 H   0  0  0  0  0  0  0  0  0  0  0  0
   37.6230   33.9200   39.7420 H   0  0  0  0  0  0  0  0  0  0  0  0
   37.2610   31.9200   40.3220 C   0  0  0  0  0  0  0  0  0  0  0  0
   37.0850   31.5260   39.2870 H   0  0  0  0  0  0  0  0  0  0  0  0
   36.3190   32.3040   40.6870 H   0  0  0  0  0  0  0  0  0  0  0  0
   37.0670   29.6060   41.0370 C   0  0  0  0  0  0  0  0  0  0  0  0
   37.7720   30.8160   41.1380 C   0  0  0  0  0  0  0  0  0  0  0  0
   38.8290   30.7760   42.0170 C   0  0  0  0  0  0  0  0  0  0  0  0
   39.2030   29.6900   42.7500 C   0  0  0  0  0  0  0  0  0  0  0  0
   38.4920   28.5060   42.6350 C   0  0  0  0  0  0  0  0  0  0  0  0
   37.3940   28.4700   41.7520 C   0  0  0  0  0  0  0  0  0  0  0  0
   39.3510   31.7360   42.0680 H   0  0  0  0  0  0  0  0  0  0  0  0
   40.0610   29.8250   43.3980 H   0  0  0  0  0  0  0  0  0  0  0  0
   38.8210   27.6690   43.2340 H   0  0  0  0  0  0  0  0  0  0  0  0
   35.9720   29.3510   40.2370 O   0  0  0  0  0  0  0  0  0  0  0  0
   36.1140   29.1830   39.2440 H   0  0  0  0  0  0  0  0  0  0  0  0
   36.7880   27.2750   41.7250 O   0  0  0  0  0  0  0  0  0  0  0  0
   36.9340   26.0880   41.0820 C   0  0  0  0  0  3  0  0  0  0  0  0
   38.1340   26.2610   40.1230 C   0  0  0  0  0  2  0  0  0  0  0  0
   38.2300   25.0220   39.2820 C   0  0  0  0  0  2  0  0  0  0  0  0
   38.4650   23.8110   40.1580 C   0  0  0  0  0  2  0  0  0  0  0  0
   37.5100   23.7170   41.3010 C   0  0  0  0  0  2  0  0  0  0  0  0
   37.4400   25.0140   42.0690 C   0  0  0  0  0  2  0  0  0  0  0  0
   39.1350   32.8340   39.1350 O   0  0  0  0  0  0  0  0  0  0  0  0
   41.1110   32.9410   37.8150 C   0  0  2  0  0  0  0  0  0  0  0  0
   42.0380   31.9120   38.2820 C   0  0  1  0  0  0  0  0  0  0  0  0
   41.3570   31.3680   39.4840 O   0  0  0  0  0  0  0  0  0  0  0  0
   41.2050   32.5790   40.1540 C   0  0  0  0  0  0  0  0  0  0  0  0
   40.3500   33.3750   39.0220 C   0  0  2  0  0  0  0  0  0  0  0  0
   41.5810   33.7810   37.2700 H   0  0  0  0  0  0  0  0  0  0  0  0
   42.9560   32.3830   38.7320 H   0  0  0  0  0  0  0  0  0  0  0  0
   42.1510   33.1180   40.2700 H   0  0  0  0  0  0  0  0  0  0  0  0
   40.5680   32.5110   41.0360 H   0  0  0  0  0  0  0  0  0  0  0  0
   40.5470   34.3640   39.4710 H   0  0  0  0  0  0  0  0  0  0  0  0
   43.6650   30.0860   35.5800 C   0  0  0  0  0  0  0  0  0  0  0  0
   43.0630   28.8320   35.6150 C   0  0  0  0  0  0  0  0  0  0  0  0
   42.0620   28.5940   36.5780 C   0  0  0  0  0  0  0  0  0  0  0  0
   41.7250   29.5860   37.4300 N   0  0  0  0  0  0  0  0  0  0  0  0
   42.3220   30.7990   37.3800 C   0  0  0  0  0  0  0  0  0  0  0  0
   43.2960   31.0600   36.4560 N   0  0  0  0  0  0  0  0  0  0  0  0
   43.4040   28.0990   34.8870 H   0  0  0  0  0  0  0  0  0  0  0  0
   41.6150   27.6290   36.5870 H   0  0  0  0  0  0  0  0  0  0  0  0
   44.6610   30.3750   34.6480 O   0  0  0  0  0  0  0  0  0  0  0  0
   44.5560   30.2680   33.6590 H   0  0  0  0  0  0  0  0  0  0  0  0
   40.1510   32.3140   36.9140 O   0  0  0  0  0  0  0  0  0  0  0  0
   39.2870   32.7820   37.0700 H   0  0  0  0  0  0  0  0  0  0  0  0
  1  4  1  0  0  0  0
  1  2  1  0  0  0  0
  3  1  1  0  0  0  0
  4  6  1  0  0  0  0
  4  8  1  0  0  0  0
  5  4  1  0  0  0  0
  7  8  2  0  0  0  0
  7 12  1  0  0  0  0
  8  9  1  0  0  0  0
  9 13  1  0  0  0  0
  9 10  2  0  0  0  0
 10 14  1  0  0  0  0
 11 10  1  0  0  0  0
 11 15  1  0  0  0  0
 12 11  2  0  0  0  0
 16  7  1  0  0  0  0
 17 16  1  0  0  0  0
 18 12  1  0  0  0  0
 19 18  1  0  0  0  0
 19 24  1  0  0  0  0
 20 19  1  0  0  0  0
 21 20  1  0  0  0  0
 21 22  1  0  0  0  0
 22 23  1  0  0  0  0
 23 24  1  0  0  0  0
 25  1  1  0  0  0  0
 26 31  1  6  0  0  0
 26 27  1  0  0  0  0
 26 30  1  0  0  0  0
 27 32  1  1  0  0  0
 27 28  1  0  0  0  0
 28 29  1  0  0  0  0
 29 33  1  0  0  0  0
 29 34  1  0  0  0  0
 30 25  1  0  0  0  0
 30 35  1  1  0  0  0
 30 29  1  0  0  0  0
 36 37  2  0  0  0  0
 36 41  1  0  0  0  0
 37 38  1  0  0  0  0
 38 43  1  0  0  0  0
 38 39  2  0  0  0  0
 40 39  1  0  0  0  0
 40 27  1  0  0  0  0
 41 40  2  0  0  0  0
 42 37  1  0  0  0  0
 44 36  1  0  0  0  0
 45 44  1  0  0  0  0
 46 47  1  0  0  0  0
 46 26  1  0  0  0  0
M  END
>  <minimizedAffinity>
-6.1200757

$$$$

 OpenBabel03242519503D

 47 50  0  0  1  0  0  0  0  0999 V2000
   37.9750   31.5840   37.3840 C   0  0  0  0  0  0  0  0  0  0  0  0
   37.4740   32.5010   37.5150 H   0  0  0  0  0  0  0  0  0  0  0  0
   38.0140   31.6640   36.1370 H   0  0  0  0  0  0  0  0  0  0  0  0
   37.2750   30.2350   37.5070 C   0  0  0  0  0  0  0  0  0  0  0  0
   38.0190   29.4620   37.1800 H   0  0  0  0  0  0  0  0  0  0  0  0
   36.4120   30.1470   36.8630 H   0  0  0  0  0  0  0  0  0  0  0  0
   37.1540   28.6580   39.3520 C   0  0  0  0  0  0  0  0  0  0  0  0
   36.9550   29.9770   38.9130 C   0  0  0  0  0  0  0  0  0  0  0  0
   36.4620   30.8200   39.8810 C   0  0  0  0  0  0  0  0  0  0  0  0
   36.1740   30.4630   41.1640 C   0  0  0  0  0  0  0  0  0  0  0  0
   36.3780   29.1560   41.5760 C   0  0  0  0  0  0  0  0  0  0  0  0
   36.8820   28.2320   40.6380 C   0  0  0  0  0  0  0  0  0  0  0  0
   36.3210   31.8360   39.5010 H   0  0  0  0  0  0  0  0  0  0  0  0
   35.7910   31.2510   41.8040 H   0  0  0  0  0  0  0  0  0  0  0  0
   36.1360   28.9150   42.6010 H   0  0  0  0  0  0  0  0  0  0  0  0
   37.6390   27.6030   38.6070 O   0  0  0  0  0  0  0  0  0  0  0  0
   38.6380   27.5400   38.4300 H   0  0  0  0  0  0  0  0  0  0  0  0
   37.0370   27.0040   41.1510 O   0  0  0  0  0  0  0  0  0  0  0  0
   37.7450   26.4130   42.1480 C   0  0  0  0  0  3  0  0  0  0  0  0
   38.3920   25.1530   41.5290 C   0  0  0  0  0  2  0  0  0  0  0  0
   39.0550   24.3880   42.6370 C   0  0  0  0  0  2  0  0  0  0  0  0
   40.1310   25.2320   43.2850 C   0  0  0  0  0  2  0  0  0  0  0  0
   39.6600   26.5970   43.6630 C   0  0  0  0  0  2  0  0  0  0  0  0
   38.9690   27.2810   42.5100 C   0  0  0  0  0  2  0  0  0  0  0  0
   39.2920   31.5280   37.6140 O   0  0  0  0  0  0  0  0  0  0  0  0
   41.1590   32.8300   38.3060 C   0  0  2  0  0  0  0  0  0  0  0  0
   42.2440   31.9240   38.6810 C   0  0  1  0  0  0  0  0  0  0  0  0
   41.6070   30.5860   38.5940 O   0  0  0  0  0  0  0  0  0  0  0  0
   40.5420   30.8490   39.4490 C   0  0  0  0  0  0  0  0  0  0  0  0
   39.8990   32.1120   38.6510 C   0  0  2  0  0  0  0  0  0  0  0  0
   41.2210   33.8420   38.7490 H   0  0  0  0  0  0  0  0  0  0  0  0
   42.4610   32.0040   39.7820 H   0  0  0  0  0  0  0  0  0  0  0  0
   40.8680   31.2280   40.4240 H   0  0  0  0  0  0  0  0  0  0  0  0
   39.7850   30.0660   39.4560 H   0  0  0  0  0  0  0  0  0  0  0  0
   39.2970   32.4410   39.5160 H   0  0  0  0  0  0  0  0  0  0  0  0
   44.4890   30.8450   36.0210 C   0  0  0  0  0  0  0  0  0  0  0  0
   45.5540   31.7370   36.1010 C   0  0  0  0  0  0  0  0  0  0  0  0
   45.5220   32.7350   37.0950 C   0  0  0  0  0  0  0  0  0  0  0  0
   44.4630   32.7910   37.9320 N   0  0  0  0  0  0  0  0  0  0  0  0
   43.4370   31.9140   37.8390 C   0  0  0  0  0  0  0  0  0  0  0  0
   43.4400   30.9350   36.8840 N   0  0  0  0  0  0  0  0  0  0  0  0
   46.3610   31.6110   35.3810 H   0  0  0  0  0  0  0  0  0  0  0  0
   46.3450   33.4060   37.1390 H   0  0  0  0  0  0  0  0  0  0  0  0
   44.4700   29.8400   35.0560 O   0  0  0  0  0  0  0  0  0  0  0  0
   45.1980   29.1640   34.9300 H   0  0  0  0  0  0  0  0  0  0  0  0
   41.1750   32.9830   36.8560 O   0  0  0  0  0  0  0  0  0  0  0  0
   40.2220   33.0640   36.5820 H   0  0  0  0  0  0  0  0  0  0  0  0
  1  4  1  0  0  0  0
  1  2  1  0  0  0  0
  1 25  1  0  0  0  0
  3  1  1  0  0  0  0
  4  8  1  0  0  0  0
  5  4  1  0  0  0  0
  6  4  1  0  0  0  0
  7 12  1  0  0  0  0
  8  7  2  0  0  0  0
  8  9  1  0  0  0  0
  9 10  2  0  0  0  0
 10 11  1  0  0  0  0
 10 14  1  0  0  0  0
 11 15  1  0  0  0  0
 12 18  1  0  0  0  0
 12 11  2  0  0  0  0
 13  9  1  0  0  0  0
 16  7  1  0  0  0  0
 17 16  1  0  0  0  0
 18 19  1  0  0  0  0
 19 24  1  0  0  0  0
 20 19  1  0  0  0  0
 20 21  1  0  0  0  0
 21 22  1  0  0  0  0
 22 23  1  0  0  0  0
 24 23  1  0  0  0  0
 25 30  1  0  0  0  0
 26 30  1  0  0  0  0
 26 27  1  0  0  0  0
 26 31  1  1  0  0  0
 27 32  1  1  0  0  0
 28 27  1  0  0  0  0
 28 29  1  0  0  0  0
 29 34  1  0  0  0  0
 29 33  1  0  0  0  0
 30 29  1  0  0  0  0
 30 35  1  1  0  0  0
 36 37  2  0  0  0  0
 36 41  1  0  0  0  0
 37 38  1  0  0  0  0
 38 43  1  0  0  0  0
 38 39  2  0  0  0  0
 40 39  1  0  0  0  0
 40 27  1  0  0  0  0
 41 40  2  0  0  0  0
 42 37  1  0  0  0  0
 44 36  1  0  0  0  0
 45 44  1  0  0  0  0
 46 26  1  0  0  0  0
 47 46  1  0  0  0  0
M  END
>  <minimizedAffinity>
-6.02732706

$$$$

 OpenBabel03242519503D

 47 50  0  0  1  0  0  0  0  0999 V2000
   38.6490   27.2920   43.2960 C   0  0  0  0  0  0  0  0  0  0  0  0
   39.3090   26.4710   43.2790 H   0  0  0  0  0  0  0  0  0  0  0  0
   38.5820   27.3440   44.5430 H   0  0  0  0  0  0  0  0  0  0  0  0
   37.1610   27.1650   42.9890 C   0  0  0  0  0  0  0  0  0  0  0  0
   36.7270   28.1940   43.0950 H   0  0  0  0  0  0  0  0  0  0  0  0
   36.6410   26.5210   43.6840 H   0  0  0  0  0  0  0  0  0  0  0  0
   36.8210   27.7850   40.6650 C   0  0  0  0  0  0  0  0  0  0  0  0
   36.9830   26.7470   41.5960 C   0  0  0  0  0  0  0  0  0  0  0  0
   36.9230   25.4880   41.0470 C   0  0  0  0  0  0  0  0  0  0  0  0
   36.7270   25.2120   39.7280 C   0  0  0  0  0  0  0  0  0  0  0  0
   36.5690   26.2520   38.8250 C   0  0  0  0  0  0  0  0  0  0  0  0
   36.6180   27.5730   39.3140 C   0  0  0  0  0  0  0  0  0  0  0  0
   37.0530   24.7090   41.8040 H   0  0  0  0  0  0  0  0  0  0  0  0
   36.7060   24.1630   39.4580 H   0  0  0  0  0  0  0  0  0  0  0  0
   36.4150   25.9910   37.7880 H   0  0  0  0  0  0  0  0  0  0  0  0
   36.8390   29.1400   40.9240 O   0  0  0  0  0  0  0  0  0  0  0  0
   37.7320   29.6040   41.0670 H   0  0  0  0  0  0  0  0  0  0  0  0
   36.4550   28.4900   38.3510 O   0  0  0  0  0  0  0  0  0  0  0  0
   35.4290   29.0460   37.6550 C   0  0  0  0  0  3  0  0  0  0  0  0
   35.5210   28.4750   36.2220 C   0  0  0  0  0  2  0  0  0  0  0  0
   34.4990   29.1830   35.3810 C   0  0  0  0  0  2  0  0  0  0  0  0
   33.1100   28.9350   35.9260 C   0  0  0  0  0  2  0  0  0  0  0  0
   32.9980   29.1920   37.3920 C   0  0  0  0  0  2  0  0  0  0  0  0
   34.0840   28.4800   38.1610 C   0  0  0  0  0  2  0  0  0  0  0  0
   39.1390   28.5190   43.0780 O   0  0  0  0  0  0  0  0  0  0  0  0
   40.7100   30.2160   42.5230 C   0  0  2  0  0  0  0  0  0  0  0  0
   40.6160   30.4870   41.0890 C   0  0  1  0  0  0  0  0  0  0  0  0
   39.6670   29.4470   40.6150 O   0  0  0  0  0  0  0  0  0  0  0  0
   40.3600   28.3470   41.1110 C   0  0  0  0  0  0  0  0  0  0  0  0
   40.3900   28.7690   42.6820 C   0  0  2  0  0  0  0  0  0  0  0  0
   41.6700   30.5050   42.9910 H   0  0  0  0  0  0  0  0  0  0  0  0
   41.5660   30.1840   40.5680 H   0  0  0  0  0  0  0  0  0  0  0  0
   41.4020   28.3180   40.7750 H   0  0  0  0  0  0  0  0  0  0  0  0
   39.7980   27.4150   41.0490 H   0  0  0  0  0  0  0  0  0  0  0  0
   41.1900   28.0510   42.9300 H   0  0  0  0  0  0  0  0  0  0  0  0
   38.1410   33.0320   40.2670 C   0  0  0  0  0  0  0  0  0  0  0  0
   38.9050   34.1610   39.9860 C   0  0  0  0  0  0  0  0  0  0  0  0
   40.3080   34.0600   40.0660 C   0  0  0  0  0  0  0  0  0  0  0  0
   40.8600   32.8770   40.4110 N   0  0  0  0  0  0  0  0  0  0  0  0
   40.1010   31.7900   40.6800 C   0  0  0  0  0  0  0  0  0  0  0  0
   38.7370   31.8570   40.6100 N   0  0  0  0  0  0  0  0  0  0  0  0
   38.3670   35.0680   39.7170 H   0  0  0  0  0  0  0  0  0  0  0  0
   40.8720   34.9340   39.8470 H   0  0  0  0  0  0  0  0  0  0  0  0
   36.7490   33.0760   40.2030 O   0  0  0  0  0  0  0  0  0  0  0  0
   36.2300   33.3720   39.4000 H   0  0  0  0  0  0  0  0  0  0  0  0
   39.6520   30.9600   43.1970 O   0  0  0  0  0  0  0  0  0  0  0  0
   39.3560   30.3840   43.9520 H   0  0  0  0  0  0  0  0  0  0  0  0
  1  3  1  0  0  0  0
  2  1  1  0  0  0  0
  4  5  1  0  0  0  0
  4  1  1  0  0  0  0
  4  6  1  0  0  0  0
  7 16  1  0  0  0  0
  7  8  1  0  0  0  0
  8  4  1  0  0  0  0
  9  8  2  0  0  0  0
  9 13  1  0  0  0  0
 10  9  1  0  0  0  0
 11 12  1  0  0  0  0
 11 10  2  0  0  0  0
 12  7  2  0  0  0  0
 14 10  1  0  0  0  0
 15 11  1  0  0  0  0
 16 17  1  0  0  0  0
 18 12  1  0  0  0  0
 19 24  1  0  0  0  0
 19 18  1  0  0  0  0
 20 19  1  0  0  0  0
 21 22  1  0  0  0  0
 21 20  1  0  0  0  0
 22 23  1  0  0  0  0
 23 24  1  0  0  0  0
 25  1  1  0  0  0  0
 26 30  1  0  0  0  0
 26 31  1  1  0  0  0
 26 46  1  0  0  0  0
 27 32  1  6  0  0  0
 27 26  1  0  0  0  0
 28 27  1  0  0  0  0
 28 29  1  0  0  0  0
 29 30  1  0  0  0  0
 30 35  1  1  0  0  0
 30 25  1  0  0  0  0
 33 29  1  0  0  0  0
 34 29  1  0  0  0  0
 36 41  1  0  0  0  0
 37 38  1  0  0  0  0
 37 36  2  0  0  0  0
 38 39  2  0  0  0  0
 39 40  1  0  0  0  0
 40 27  1  0  0  0  0
 41 40  2  0  0  0  0
 42 37  1  0  0  0  0
 43 38  1  0  0  0  0
 44 36  1  0  0  0  0
 45 44  1  0  0  0  0
 46 47  1  0  0  0  0
M  END
>  <minimizedAffinity>
-5.98986435

$$$$

 OpenBabel03242519503D

 47 50  0  0  1  0  0  0  0  0999 V2000
   39.5900   30.7870   42.2560 C   0  0  0  0  0  0  0  0  0  0  0  0
   40.0490   31.6920   42.5380 H   0  0  0  0  0  0  0  0  0  0  0  0
   38.6240   30.9130   43.0390 H   0  0  0  0  0  0  0  0  0  0  0  0
   40.0900   29.4250   42.7240 C   0  0  0  0  0  0  0  0  0  0  0  0
   40.5370   29.5830   43.7410 H   0  0  0  0  0  0  0  0  0  0  0  0
   40.8660   29.0190   42.0900 H   0  0  0  0  0  0  0  0  0  0  0  0
   39.0150   27.3320   42.1180 C   0  0  0  0  0  0  0  0  0  0  0  0
   38.9540   28.5120   42.8750 C   0  0  0  0  0  0  0  0  0  0  0  0
   37.8110   28.6350   43.6290 C   0  0  0  0  0  0  0  0  0  0  0  0
   36.7960   27.7270   43.6760 C   0  0  0  0  0  0  0  0  0  0  0  0
   36.8770   26.5690   42.9190 C   0  0  0  0  0  0  0  0  0  0  0  0
   38.0210   26.3720   42.1190 C   0  0  0  0  0  0  0  0  0  0  0  0
   37.8010   29.5660   44.2040 H   0  0  0  0  0  0  0  0  0  0  0  0
   35.9630   27.9750   44.3230 H   0  0  0  0  0  0  0  0  0  0  0  0
   36.0510   25.8750   42.9840 H   0  0  0  0  0  0  0  0  0  0  0  0
   40.0360   26.9410   41.2760 O   0  0  0  0  0  0  0  0  0  0  0  0
   40.8860   26.5540   41.6780 H   0  0  0  0  0  0  0  0  0  0  0  0
   37.9860   25.2200   41.4360 O   0  0  0  0  0  0  0  0  0  0  0  0
   37.4870   24.7640   40.2580 C   0  0  0  0  0  3  0  0  0  0  0  0
   38.5150   23.7430   39.7200 C   0  0  0  0  0  2  0  0  0  0  0  0
   38.0750   23.3330   38.3450 C   0  0  0  0  0  2  0  0  0  0  0  0
   36.7120   22.6800   38.4040 C   0  0  0  0  0  2  0  0  0  0  0  0
   35.7090   23.4800   39.1680 C   0  0  0  0  0  2  0  0  0  0  0  0
   36.2420   23.8880   40.5190 C   0  0  0  0  0  2  0  0  0  0  0  0
   38.9030   30.7410   41.1080 O   0  0  0  0  0  0  0  0  0  0  0  0
   36.7710   31.1040   40.1180 C   0  0  2  0  0  0  0  0  0  0  0  0
   36.9470   31.2430   38.6730 C   0  0  1  0  0  0  0  0  0  0  0  0
   38.4240   31.2410   38.5150 O   0  0  0  0  0  0  0  0  0  0  0  0
   38.6890   32.2890   39.3920 C   0  0  0  0  0  0  0  0  0  0  0  0
   38.0110   31.6610   40.7300 C   0  0  2  0  0  0  0  0  0  0  0  0
   35.8450   31.5530   40.5210 H   0  0  0  0  0  0  0  0  0  0  0  0
   36.6830   32.2850   38.3420 H   0  0  0  0  0  0  0  0  0  0  0  0
   38.1230   33.1950   39.1490 H   0  0  0  0  0  0  0  0  0  0  0  0
   39.7490   32.4160   39.6090 H   0  0  0  0  0  0  0  0  0  0  0  0
   37.9790   32.6320   41.2530 H   0  0  0  0  0  0  0  0  0  0  0  0
   36.7630   28.9260   35.8670 C   0  0  0  0  0  0  0  0  0  0  0  0
   35.5950   28.2070   36.1030 C   0  0  0  0  0  0  0  0  0  0  0  0
   34.8330   28.5210   37.2460 C   0  0  0  0  0  0  0  0  0  0  0  0
   35.2610   29.5030   38.0680 N   0  0  0  0  0  0  0  0  0  0  0  0
   36.4000   30.1910   37.8210 C   0  0  0  0  0  0  0  0  0  0  0  0
   37.1600   29.9090   36.7200 N   0  0  0  0  0  0  0  0  0  0  0  0
   35.3350   27.4340   35.3820 H   0  0  0  0  0  0  0  0  0  0  0  0
   33.9440   27.9600   37.4080 H   0  0  0  0  0  0  0  0  0  0  0  0
   37.5540   28.6550   34.7510 O   0  0  0  0  0  0  0  0  0  0  0  0
   37.2200   28.6610   33.8080 H   0  0  0  0  0  0  0  0  0  0  0  0
   36.7440   29.6810   40.4370 O   0  0  0  0  0  0  0  0  0  0  0  0
   37.1920   29.5940   41.3220 H   0  0  0  0  0  0  0  0  0  0  0  0
  1  2  1  0  0  0  0
  1  4  1  0  0  0  0
  1  3  1  0  0  0  0
  4  8  1  0  0  0  0
  4  5  1  0  0  0  0
  6  4  1  0  0  0  0
  7 12  2  0  0  0  0
  7  8  1  0  0  0  0
  8  9  2  0  0  0  0
  9 10  1  0  0  0  0
  9 13  1  0  0  0  0
 10 14  1  0  0  0  0
 11 15  1  0  0  0  0
 11 10  2  0  0  0  0
 12 11  1  0  0  0  0
 16 17  1  0  0  0  0
 16  7  1  0  0  0  0
 18 12  1  0  0  0  0
 19 24  1  0  0  0  0
 19 18  1  0  0  0  0
 20 19  1  0  0  0  0
 21 22  1  0  0  0  0
 21 20  1  0  0  0  0
 22 23  1  0  0  0  0
 23 24  1  0  0  0  0
 25  1  1  0  0  0  0
 26 46  1  0  0  0  0
 26 31  1  1  0  0  0
 26 30  1  0  0  0  0
 27 32  1  6  0  0  0
 27 26  1  0  0  0  0
 28 27  1  0  0  0  0
 28 29  1  0  0  0  0
 29 34  1  0  0  0  0
 29 30  1  0  0  0  0
 30 25  1  0  0  0  0
 30 35  1  1  0  0  0
 33 29  1  0  0  0  0
 36 37  2  0  0  0  0
 36 41  1  0  0  0  0
 37 38  1  0  0  0  0
 38 43  1  0  0  0  0
 38 39  2  0  0  0  0
 40 39  1  0  0  0  0
 40 27  1  0  0  0  0
 41 40  2  0  0  0  0
 42 37  1  0  0  0  0
 44 36  1  0  0  0  0
 45 44  1  0  0  0  0
 46 47  1  0  0  0  0
M  END
>  <minimizedAffinity>
-5.98436785

$$$$

 OpenBabel03242519503D

 47 50  0  0  1  0  0  0  0  0999 V2000
   38.7210   27.3520   43.6120 C   0  0  0  0  0  0  0  0  0  0  0  0
   39.4970   26.6410   43.6120 H   0  0  0  0  0  0  0  0  0  0  0  0
   38.7700   27.5600   44.8440 H   0  0  0  0  0  0  0  0  0  0  0  0
   37.2490   26.9720   43.5000 C   0  0  0  0  0  0  0  0  0  0  0  0
   36.6750   27.9350   43.4600 H   0  0  0  0  0  0  0  0  0  0  0  0
   36.8900   26.4160   44.3550 H   0  0  0  0  0  0  0  0  0  0  0  0
   36.7890   27.0790   41.1160 C   0  0  0  0  0  0  0  0  0  0  0  0
   37.0210   26.2660   42.2360 C   0  0  0  0  0  0  0  0  0  0  0  0
   36.9730   24.9180   41.9690 C   0  0  0  0  0  0  0  0  0  0  0  0
   36.7260   24.3660   40.7480 C   0  0  0  0  0  0  0  0  0  0  0  0
   36.5000   25.1880   39.6560 C   0  0  0  0  0  0  0  0  0  0  0  0
   36.5330   26.5830   39.8520 C   0  0  0  0  0  0  0  0  0  0  0  0
   37.1580   24.3190   42.8650 H   0  0  0  0  0  0  0  0  0  0  0  0
   36.7230   23.2820   40.7060 H   0  0  0  0  0  0  0  0  0  0  0  0
   36.3070   24.7100   38.7060 H   0  0  0  0  0  0  0  0  0  0  0  0
   36.7800   28.4590   41.0840 O   0  0  0  0  0  0  0  0  0  0  0  0
   37.6650   28.9590   41.0820 H   0  0  0  0  0  0  0  0  0  0  0  0
   36.3010   27.2720   38.7270 O   0  0  0  0  0  0  0  0  0  0  0  0
   35.2750   27.4630   37.8570 C   0  0  0  0  0  3  0  0  0  0  0  0
   34.4930   28.6900   38.3760 C   0  0  0  0  0  2  0  0  0  0  0  0
   33.2620   28.8390   37.5300 C   0  0  0  0  0  2  0  0  0  0  0  0
   33.6440   29.0670   36.0850 C   0  0  0  0  0  2  0  0  0  0  0  0
   34.6360   28.0760   35.5740 C   0  0  0  0  0  2  0  0  0  0  0  0
   35.8210   27.9550   36.4990 C   0  0  0  0  0  2  0  0  0  0  0  0
   38.9860   28.5970   43.1970 O   0  0  0  0  0  0  0  0  0  0  0  0
   40.1000   30.1780   41.8130 C   0  0  2  0  0  0  0  0  0  0  0  0
   40.1600   29.6460   40.4520 C   0  0  1  0  0  0  0  0  0  0  0  0
   39.6170   28.2720   40.6080 O   0  0  0  0  0  0  0  0  0  0  0  0
   40.4980   27.8530   41.6000 C   0  0  0  0  0  0  0  0  0  0  0  0
   40.1670   28.9920   42.7130 C   0  0  2  0  0  0  0  0  0  0  0  0
   40.8600   30.9470   42.0470 H   0  0  0  0  0  0  0  0  0  0  0  0
   41.2250   29.4380   40.1570 H   0  0  0  0  0  0  0  0  0  0  0  0
   41.5470   27.9880   41.3170 H   0  0  0  0  0  0  0  0  0  0  0  0
   40.2290   26.8950   42.0450 H   0  0  0  0  0  0  0  0  0  0  0  0
   41.0840   28.7910   43.2920 H   0  0  0  0  0  0  0  0  0  0  0  0
   39.5040   31.7610   37.5590 C   0  0  0  0  0  0  0  0  0  0  0  0
   38.1280   31.6600   37.3760 C   0  0  0  0  0  0  0  0  0  0  0  0
   37.3900   30.8580   38.2690 C   0  0  0  0  0  0  0  0  0  0  0  0
   38.0400   30.2170   39.2640 N   0  0  0  0  0  0  0  0  0  0  0  0
   39.3780   30.3280   39.4250 C   0  0  0  0  0  0  0  0  0  0  0  0
   40.1220   31.0990   38.5760 N   0  0  0  0  0  0  0  0  0  0  0  0
   37.6970   32.2150   36.5450 H   0  0  0  0  0  0  0  0  0  0  0  0
   36.3400   30.7950   38.1120 H   0  0  0  0  0  0  0  0  0  0  0  0
   40.2830   32.5410   36.7050 O   0  0  0  0  0  0  0  0  0  0  0  0
   40.1180   33.5110   36.5190 H   0  0  0  0  0  0  0  0  0  0  0  0
   38.7880   30.7840   42.0070 O   0  0  0  0  0  0  0  0  0  0  0  0
   38.5460   30.6070   42.9560 H   0  0  0  0  0  0  0  0  0  0  0  0
  1  3  1  0  0  0  0
  2  1  1  0  0  0  0
  4  1  1  0  0  0  0
  4  6  1  0  0  0  0
  5  4  1  0  0  0  0
  7  8  1  0  0  0  0
  8  4  1  0  0  0  0
  9  8  2  0  0  0  0
  9 13  1  0  0  0  0
 10  9  1  0  0  0  0
 11 12  1  0  0  0  0
 11 10  2  0  0  0  0
 12  7  2  0  0  0  0
 14 10  1  0  0  0  0
 15 11  1  0  0  0  0
 16  7  1  0  0  0  0
 17 16  1  0  0  0  0
 18 12  1  0  0  0  0
 19 20  1  0  0  0  0
 19 18  1  0  0  0  0
 21 20  1  0  0  0  0
 22 21  1  0  0  0  0
 23 22  1  0  0  0  0
 23 24  1  0  0  0  0
 24 19  1  0  0  0  0
 25  1  1  0  0  0  0
 26 46  1  0  0  0  0
 26 31  1  1  0  0  0
 26 30  1  0  0  0  0
 27 32  1  6  0  0  0
 27 28  1  0  0  0  0
 27 26  1  0  0  0  0
 28 29  1  0  0  0  0
 29 34  1  0  0  0  0
 29 30  1  0  0  0  0
 30 25  1  0  0  0  0
 30 35  1  1  0  0  0
 33 29  1  0  0  0  0
 36 41  1  0  0  0  0
 37 36  2  0  0  0  0
 37 38  1  0  0  0  0
 38 39  2  0  0  0  0
 39 40  1  0  0  0  0
 40 27  1  0  0  0  0
 41 40  2  0  0  0  0
 42 37  1  0  0  0  0
 43 38  1  0  0  0  0
 44 36  1  0  0  0  0
 45 44  1  0  0  0  0
 46 47  1  0  0  0  0
M  END
>  <minimizedAffinity>
-5.97100544

$$$$

 OpenBabel03242519503D

 47 50  0  0  1  0  0  0  0  0999 V2000
   38.0580   25.7920   42.7390 C   0  0  0  0  0  0  0  0  0  0  0  0
   39.0410   25.4350   42.6160 H   0  0  0  0  0  0  0  0  0  0  0  0
   37.9250   25.3300   43.8930 H   0  0  0  0  0  0  0  0  0  0  0  0
   36.8500   25.1320   42.0850 C   0  0  0  0  0  0  0  0  0  0  0  0
   35.9700   25.7910   42.3060 H   0  0  0  0  0  0  0  0  0  0  0  0
   36.6320   24.1540   42.4900 H   0  0  0  0  0  0  0  0  0  0  0  0
   36.7530   26.3100   39.9620 C   0  0  0  0  0  0  0  0  0  0  0  0
   37.0330   25.1090   40.6310 C   0  0  0  0  0  0  0  0  0  0  0  0
   37.4170   24.0820   39.8010 C   0  0  0  0  0  0  0  0  0  0  0  0
   37.5310   24.1660   38.4460 C   0  0  0  0  0  0  0  0  0  0  0  0
   37.2490   25.3620   37.8060 C   0  0  0  0  0  0  0  0  0  0  0  0
   36.8490   26.4610   38.5920 C   0  0  0  0  0  0  0  0  0  0  0  0
   37.6250   23.1650   40.3590 H   0  0  0  0  0  0  0  0  0  0  0  0
   37.8460   23.2620   37.9370 H   0  0  0  0  0  0  0  0  0  0  0  0
   37.3510   25.3860   36.7300 H   0  0  0  0  0  0  0  0  0  0  0  0
   36.3520   27.5010   40.5330 O   0  0  0  0  0  0  0  0  0  0  0  0
   37.0460   28.0870   40.9910 H   0  0  0  0  0  0  0  0  0  0  0  0
   36.6050   27.5600   37.8640 O   0  0  0  0  0  0  0  0  0  0  0  0
   36.1320   27.8620   36.6270 C   0  0  0  0  0  3  0  0  0  0  0  0
   34.8910   28.7560   36.8470 C   0  0  0  0  0  2  0  0  0  0  0  0
   34.2480   28.9840   35.5100 C   0  0  0  0  0  2  0  0  0  0  0  0
   35.2100   29.6880   34.5800 C   0  0  0  0  0  2  0  0  0  0  0  0
   36.5540   29.0430   34.5240 C   0  0  0  0  0  2  0  0  0  0  0  0
   37.1130   28.8110   35.9060 C   0  0  0  0  0  2  0  0  0  0  0  0
   37.8720   27.0860   43.0270 O   0  0  0  0  0  0  0  0  0  0  0  0
   38.5170   29.3750   42.9630 C   0  0  2  0  0  0  0  0  0  0  0  0
   39.0960   29.6580   41.6510 C   0  0  1  0  0  0  0  0  0  0  0  0
   39.1470   28.3190   41.0120 O   0  0  0  0  0  0  0  0  0  0  0  0
   39.8730   27.6810   42.0130 C   0  0  0  0  0  0  0  0  0  0  0  0
   38.8610   27.9540   43.2570 C   0  0  2  0  0  0  0  0  0  0  0  0
   38.8180   30.0720   43.7670 H   0  0  0  0  0  0  0  0  0  0  0  0
   40.1880   29.9080   41.7480 H   0  0  0  0  0  0  0  0  0  0  0  0
   40.8090   28.2000   42.2510 H   0  0  0  0  0  0  0  0  0  0  0  0
   39.9310   26.6000   41.8880 H   0  0  0  0  0  0  0  0  0  0  0  0
   39.6240   27.7180   44.0190 H   0  0  0  0  0  0  0  0  0  0  0  0
   37.8930   32.8120   40.2780 C   0  0  0  0  0  0  0  0  0  0  0  0
   37.1050   32.4270   39.1980 C   0  0  0  0  0  0  0  0  0  0  0  0
   36.9630   31.0520   38.9260 C   0  0  0  0  0  0  0  0  0  0  0  0
   37.5950   30.1600   39.7200 N   0  0  0  0  0  0  0  0  0  0  0  0
   38.3570   30.5540   40.7660 C   0  0  0  0  0  0  0  0  0  0  0  0
   38.5130   31.8820   41.0540 N   0  0  0  0  0  0  0  0  0  0  0  0
   36.6380   33.2210   38.6180 H   0  0  0  0  0  0  0  0  0  0  0  0
   36.3560   30.7790   38.0970 H   0  0  0  0  0  0  0  0  0  0  0  0
   38.0680   34.1600   40.5900 O   0  0  0  0  0  0  0  0  0  0  0  0
   37.3190   34.8020   40.7570 H   0  0  0  0  0  0  0  0  0  0  0  0
   37.0650   29.4420   42.8440 O   0  0  0  0  0  0  0  0  0  0  0  0
   36.7110   28.7450   43.4600 H   0  0  0  0  0  0  0  0  0  0  0  0
  1 25  1  0  0  0  0
  1  3  1  0  0  0  0
  2  1  1  0  0  0  0
  4  5  1  0  0  0  0
  4  6  1  0  0  0  0
  4  1  1  0  0  0  0
  7 16  1  0  0  0  0
  7  8  1  0  0  0  0
  8  4  1  0  0  0  0
  9 13  1  0  0  0  0
  9  8  2  0  0  0  0
 10  9  1  0  0  0  0
 11 10  2  0  0  0  0
 11 12  1  0  0  0  0
 12  7  2  0  0  0  0
 14 10  1  0  0  0  0
 15 11  1  0  0  0  0
 16 17  1  0  0  0  0
 18 12  1  0  0  0  0
 19 20  1  0  0  0  0
 19 18  1  0  0  0  0
 21 20  1  0  0  0  0
 22 21  1  0  0  0  0
 23 22  1  0  0  0  0
 23 24  1  0  0  0  0
 24 19  1  0  0  0  0
 25 30  1  0  0  0  0
 26 30  1  0  0  0  0
 26 31  1  1  0  0  0
 27 32  1  1  0  0  0
 27 26  1  0  0  0  0
 28 27  1  0  0  0  0
 28 29  1  0  0  0  0
 29 33  1  0  0  0  0
 29 30  1  0  0  0  0
 30 35  1  1  0  0  0
 34 29  1  0  0  0  0
 36 44  1  0  0  0  0
 36 41  1  0  0  0  0
 37 36  2  0  0  0  0
 38 37  1  0  0  0  0
 38 39  2  0  0  0  0
 39 40  1  0  0  0  0
 40 41  2  0  0  0  0
 40 27  1  0  0  0  0
 42 37  1  0  0  0  0
 43 38  1  0  0  0  0
 44 45  1  0  0  0  0
 46 26  1  0  0  0  0
 46 47  1  0  0  0  0
M  END
>  <minimizedAffinity>
-5.93777943

$$$$

 OpenBabel03242519503D

 47 50  0  0  1  0  0  0  0  0999 V2000
   41.7150   26.9100   42.4250 C   0  0  0  0  0  0  0  0  0  0  0  0
   42.3120   26.1980   41.9300 H   0  0  0  0  0  0  0  0  0  0  0  0
   42.6790   27.4970   42.9630 H   0  0  0  0  0  0  0  0  0  0  0  0
   40.9110   26.5870   43.6800 C   0  0  0  0  0  0  0  0  0  0  0  0
   41.1810   27.3680   44.4380 H   0  0  0  0  0  0  0  0  0  0  0  0
   41.1590   25.6240   44.1040 H   0  0  0  0  0  0  0  0  0  0  0  0
   38.8630   25.5940   42.8300 C   0  0  0  0  0  0  0  0  0  0  0  0
   39.4810   26.7220   43.3920 C   0  0  0  0  0  0  0  0  0  0  0  0
   38.6380   27.7950   43.5630 C   0  0  0  0  0  0  0  0  0  0  0  0
   37.3160   27.8180   43.2340 C   0  0  0  0  0  0  0  0  0  0  0  0
   36.7260   26.6930   42.6800 C   0  0  0  0  0  0  0  0  0  0  0  0
   37.5280   25.5520   42.4750 C   0  0  0  0  0  0  0  0  0  0  0  0
   39.1560   28.6520   44.0030 H   0  0  0  0  0  0  0  0  0  0  0  0
   36.7910   28.7450   43.4340 H   0  0  0  0  0  0  0  0  0  0  0  0
   35.6760   26.7530   42.4330 H   0  0  0  0  0  0  0  0  0  0  0  0
   39.4550   24.3800   42.5490 O   0  0  0  0  0  0  0  0  0  0  0  0
   39.6270   23.7260   43.3090 H   0  0  0  0  0  0  0  0  0  0  0  0
   36.8490   24.5300   41.9360 O   0  0  0  0  0  0  0  0  0  0  0  0
   36.4690   24.1160   40.6990 C   0  0  0  0  0  3  0  0  0  0  0  0
   36.9150   25.2230   39.7180 C   0  0  0  0  0  2  0  0  0  0  0  0
   36.3750   24.8770   38.3610 C   0  0  0  0  0  2  0  0  0  0  0  0
   36.9330   23.5490   37.8990 C   0  0  0  0  0  2  0  0  0  0  0  0
   36.8000   22.4670   38.9190 C   0  0  0  0  0  2  0  0  0  0  0  0
   37.3260   22.9080   40.2620 C   0  0  0  0  0  2  0  0  0  0  0  0
   41.2270   27.9420   41.7260 O   0  0  0  0  0  0  0  0  0  0  0  0
   41.0190   29.4440   39.8940 C   0  0  2  0  0  0  0  0  0  0  0  0
   39.6680   29.3270   39.3470 C   0  0  1  0  0  0  0  0  0  0  0  0
   39.0940   28.1930   40.1150 O   0  0  0  0  0  0  0  0  0  0  0  0
   40.0900   27.2670   39.8190 C   0  0  0  0  0  0  0  0  0  0  0  0
   41.3650   28.0880   40.4060 C   0  0  2  0  0  0  0  0  0  0  0  0
   41.7720   29.8530   39.1940 H   0  0  0  0  0  0  0  0  0  0  0  0
   39.6990   28.9050   38.3050 H   0  0  0  0  0  0  0  0  0  0  0  0
   40.2560   27.1580   38.7410 H   0  0  0  0  0  0  0  0  0  0  0  0
   40.0160   26.3480   40.3990 H   0  0  0  0  0  0  0  0  0  0  0  0
   42.1010   27.4660   39.8660 H   0  0  0  0  0  0  0  0  0  0  0  0
   36.8130   31.2480   40.5480 C   0  0  0  0  0  0  0  0  0  0  0  0
   36.9910   32.5040   39.9750 C   0  0  0  0  0  0  0  0  0  0  0  0
   38.1090   32.7100   39.1430 C   0  0  0  0  0  0  0  0  0  0  0  0
   38.9660   31.6870   38.9330 N   0  0  0  0  0  0  0  0  0  0  0  0
   38.7760   30.4730   39.4980 C   0  0  0  0  0  0  0  0  0  0  0  0
   37.6990   30.2420   40.3090 N   0  0  0  0  0  0  0  0  0  0  0  0
   36.2460   33.2630   40.2050 H   0  0  0  0  0  0  0  0  0  0  0  0
   38.2270   33.6760   38.7150 H   0  0  0  0  0  0  0  0  0  0  0  0
   35.7240   30.9890   41.3790 O   0  0  0  0  0  0  0  0  0  0  0  0
   34.7690   31.1360   41.1190 H   0  0  0  0  0  0  0  0  0  0  0  0
   40.9660   30.3320   41.0500 O   0  0  0  0  0  0  0  0  0  0  0  0
   41.6320   29.9730   41.6960 H   0  0  0  0  0  0  0  0  0  0  0  0
  1  3  1  0  0  0  0
  1  4  1  0  0  0  0
  2  1  1  0  0  0  0
  4  6  1  0  0  0  0
  4  5  1  0  0  0  0
  7  8  1  0  0  0  0
  8  9  2  0  0  0  0
  8  4  1  0  0  0  0
  9 13  1  0  0  0  0
 10 14  1  0  0  0  0
 10  9  1  0  0  0  0
 11 10  2  0  0  0  0
 12 11  1  0  0  0  0
 12  7  2  0  0  0  0
 15 11  1  0  0  0  0
 16  7  1  0  0  0  0
 16 17  1  0  0  0  0
 18 12  1  0  0  0  0
 19 18  1  0  0  0  0
 20 19  1  0  0  0  0
 21 20  1  0  0  0  0
 22 21  1  0  0  0  0
 22 23  1  0  0  0  0
 23 24  1  0  0  0  0
 24 19  1  0  0  0  0
 25  1  1  0  0  0  0
 26 31  1  6  0  0  0
 26 30  1  0  0  0  0
 26 46  1  0  0  0  0
 27 32  1  6  0  0  0
 27 40  1  0  0  0  0
 27 26  1  0  0  0  0
 27 28  1  0  0  0  0
 29 28  1  0  0  0  0
 29 34  1  0  0  0  0
 29 30  1  0  0  0  0
 30 35  1  6  0  0  0
 30 25  1  0  0  0  0
 33 29  1  0  0  0  0
 36 44  1  0  0  0  0
 37 42  1  0  0  0  0
 37 36  2  0  0  0  0
 38 37  1  0  0  0  0
 39 38  2  0  0  0  0
 39 40  1  0  0  0  0
 40 41  2  0  0  0  0
 41 36  1  0  0  0  0
 43 38  1  0  0  0  0
 45 44  1  0  0  0  0
 46 47  1  0  0  0  0
M  END
>  <minimizedAffinity>
-5.92055845

$$$$
