
 OpenBabel03252505313D

 24 25  0  0  1  0  0  0  0  0999 V2000
   37.7490   29.8770   42.6610 O   0  0  0  0  0  0  0  0  0  0  0  0
   36.9570   29.9020   41.3440 P   0  0  1  0  0  0  0  0  0  0  0  0
   35.6500   30.9420   41.4150 O   0  0  0  0  0  0  0  0  0  0  0  0
   35.7120   31.4160   42.2900 H   0  0  0  0  0  0  0  0  0  0  0  0
   38.0470   30.3840   40.1350 O   0  0  0  0  0  0  0  0  0  0  0  0
   40.3820   32.8510   39.1220 C   0  0  0  0  0  0  0  0  0  0  0  0
   39.9380   34.0380   39.7450 C   0  0  0  0  0  0  0  0  0  0  0  0
   38.7760   33.9330   40.5410 C   0  0  0  0  0  0  0  0  0  0  0  0
   38.1830   32.7080   40.6430 N   0  0  0  0  0  0  0  0  0  0  0  0
   38.6520   31.6180   40.0270 C   0  0  0  0  0  0  0  0  0  0  0  0
   39.7420   31.6860   39.2730 N   0  0  0  0  0  0  0  0  0  0  0  0
   41.2800   32.9680   38.5160 H   0  0  0  0  0  0  0  0  0  0  0  0
   40.4300   34.9820   39.6420 H   0  0  0  0  0  0  0  0  0  0  0  0
   38.3570   34.7880   41.0600 H   0  0  0  0  0  0  0  0  0  0  0  0
   36.3980   28.3390   41.1030 O   0  0  0  0  0  0  0  0  0  0  0  0
   36.5820   27.6300   42.2680 C   0  0  0  0  0  0  0  0  0  0  0  0
   37.1050   28.2730   43.0180 H   0  0  0  0  0  0  0  0  0  0  0  0
   35.6090   27.3090   42.6840 H   0  0  0  0  0  0  0  0  0  0  0  0
   37.5110   26.4830   41.9810 C   0  0  1  0  0  3  0  0  0  0  0  0
   38.6510   26.5170   42.9550 C   0  0  0  0  0  2  0  0  0  0  0  0
   39.5120   25.3170   42.9870 C   0  0  0  0  0  3  0  0  0  0  0  0
   39.1540   24.1590   42.1440 C   0  0  0  0  0  3  0  0  0  0  0  0
   37.7790   24.1320   41.5720 C   0  0  0  0  0  2  0  0  0  0  0  0
   36.8410   25.1390   42.1950 C   0  0  0  0  0  2  0  0  0  0  0  0
  2  3  1  0  0  0  0
  2  1  2  1  0  0  0
  3  4  1  0  0  0  0
  5  2  1  0  0  0  0
  6 11  2  0  0  0  0
  6  7  1  0  0  0  0
  7  8  2  0  0  0  0
  8  9  1  0  0  0  0
  8 14  1  0  0  0  0
 10  5  1  0  0  0  0
 10  9  2  0  0  0  0
 11 10  1  0  0  0  0
 12  6  1  0  0  0  0
 13  7  1  0  0  0  0
 15  2  1  0  0  0  0
 15 16  1  0  0  0  0
 16 18  1  0  0  0  0
 16 17  1  0  0  0  0
 19 24  1  0  0  0  0
 19 16  1  1  0  0  0
 19 20  1  0  0  0  0
 20 21  1  0  0  0  0
 22 21  2  0  0  0  0
 23 22  1  0  0  0  0
 23 24  1  0  0  0  0
M  END
>  <minimizedAffinity>
-5.12307405

$$$$

 OpenBabel03252505313D

 24 25  0  0  1  0  0  0  0  0999 V2000
   38.3400   30.4800   41.8320 O   0  0  0  0  0  0  0  0  0  0  0  0
   37.0490   30.0130   41.1410 P   0  0  1  0  0  0  0  0  0  0  0  0
   35.7660   31.0410   41.4440 O   0  0  0  0  0  0  0  0  0  0  0  0
   36.1370   31.8180   41.9450 H   0  0  0  0  0  0  0  0  0  0  0  0
   37.3890   29.9440   39.4790 O   0  0  0  0  0  0  0  0  0  0  0  0
   39.8320   31.8960   37.8110 C   0  0  0  0  0  0  0  0  0  0  0  0
   40.9360   31.0290   37.6560 C   0  0  0  0  0  0  0  0  0  0  0  0
   40.7830   29.7210   38.1660 C   0  0  0  0  0  0  0  0  0  0  0  0
   39.5960   29.4040   38.7610 N   0  0  0  0  0  0  0  0  0  0  0  0
   38.5850   30.2710   38.8770 C   0  0  0  0  0  0  0  0  0  0  0  0
   38.6990   31.5070   38.4080 N   0  0  0  0  0  0  0  0  0  0  0  0
   39.9840   32.8960   37.4070 H   0  0  0  0  0  0  0  0  0  0  0  0
   41.8520   31.3130   37.1840 H   0  0  0  0  0  0  0  0  0  0  0  0
   41.5730   28.9820   38.0960 H   0  0  0  0  0  0  0  0  0  0  0  0
   36.6970   28.5010   41.7760 O   0  0  0  0  0  0  0  0  0  0  0  0
   37.1230   28.4730   43.0850 C   0  0  0  0  0  0  0  0  0  0  0  0
   37.8560   29.2990   43.2570 H   0  0  0  0  0  0  0  0  0  0  0  0
   36.2670   28.6000   43.7740 H   0  0  0  0  0  0  0  0  0  0  0  0
   37.8780   27.1920   43.3080 C   0  0  1  0  0  3  0  0  0  0  0  0
   37.4580   26.1870   42.2780 C   0  0  0  0  0  2  0  0  0  0  0  0
   38.2880   24.9680   42.1850 C   0  0  0  0  0  3  0  0  0  0  0  0
   39.4930   24.8590   43.0310 C   0  0  0  0  0  3  0  0  0  0  0  0
   39.9900   26.1080   43.6730 C   0  0  0  0  0  2  0  0  0  0  0  0
   39.3720   27.3670   43.1120 C   0  0  0  0  0  2  0  0  0  0  0  0
  2  3  1  0  0  0  0
  2 15  1  0  0  0  0
  2  1  2  1  0  0  0
  3  4  1  0  0  0  0
  5  2  1  0  0  0  0
  6 11  1  0  0  0  0
  7  6  2  0  0  0  0
  7  8  1  0  0  0  0
  8  9  2  0  0  0  0
  9 10  1  0  0  0  0
 10  5  1  0  0  0  0
 11 10  2  0  0  0  0
 12  6  1  0  0  0  0
 13  7  1  0  0  0  0
 14  8  1  0  0  0  0
 15 16  1  0  0  0  0
 16 17  1  0  0  0  0
 16 18  1  0  0  0  0
 19 16  1  6  0  0  0
 20 19  1  0  0  0  0
 21 20  1  0  0  0  0
 21 22  2  0  0  0  0
 22 23  1  0  0  0  0
 24 19  1  0  0  0  0
 24 23  1  0  0  0  0
M  END
>  <minimizedAffinity>
-4.76063251

$$$$

 OpenBabel03252505313D

 24 25  0  0  1  0  0  0  0  0999 V2000
   38.4520   31.2010   41.3950 O   0  0  0  0  0  0  0  0  0  0  0  0
   37.2120   30.3110   41.2180 P   0  0  1  0  0  0  0  0  0  0  0  0
   35.8040   31.2080   41.1180 O   0  0  0  0  0  0  0  0  0  0  0  0
   36.0780   32.1660   41.0980 H   0  0  0  0  0  0  0  0  0  0  0  0
   37.4590   29.4160   39.7970 O   0  0  0  0  0  0  0  0  0  0  0  0
   35.6730   26.8090   38.1940 C   0  0  0  0  0  0  0  0  0  0  0  0
   34.5900   27.4560   37.5600 C   0  0  0  0  0  0  0  0  0  0  0  0
   34.5150   28.8570   37.7210 C   0  0  0  0  0  0  0  0  0  0  0  0
   35.4820   29.4650   38.4680 N   0  0  0  0  0  0  0  0  0  0  0  0
   36.4860   28.7950   39.0450 C   0  0  0  0  0  0  0  0  0  0  0  0
   36.5830   27.4780   38.9100 N   0  0  0  0  0  0  0  0  0  0  0  0
   35.7000   25.7290   38.0480 H   0  0  0  0  0  0  0  0  0  0  0  0
   33.8490   26.9460   36.9820 H   0  0  0  0  0  0  0  0  0  0  0  0
   33.7210   29.4440   37.2740 H   0  0  0  0  0  0  0  0  0  0  0  0
   37.1390   29.3320   42.5770 O   0  0  0  0  0  0  0  0  0  0  0  0
   38.4260   29.0480   42.9740 C   0  0  0  0  0  0  0  0  0  0  0  0
   39.1450   29.6680   42.3830 H   0  0  0  0  0  0  0  0  0  0  0  0
   38.5570   29.2700   44.0500 H   0  0  0  0  0  0  0  0  0  0  0  0
   38.7230   27.6170   42.6250 C   0  0  1  0  0  3  0  0  0  0  0  0
   39.6780   27.0520   43.6330 C   0  0  0  0  0  2  0  0  0  0  0  0
   39.8700   25.5870   43.5960 C   0  0  0  0  0  3  0  0  0  0  0  0
   39.0670   24.7860   42.6500 C   0  0  0  0  0  3  0  0  0  0  0  0
   37.8820   25.4460   42.0330 C   0  0  0  0  0  2  0  0  0  0  0  0
   37.4880   26.7400   42.7060 C   0  0  0  0  0  2  0  0  0  0  0  0
  2  1  2  1  0  0  0
  2 15  1  0  0  0  0
  3  2  1  0  0  0  0
  4  3  1  0  0  0  0
  5  2  1  0  0  0  0
  6 11  1  0  0  0  0
  7  8  1  0  0  0  0
  7  6  2  0  0  0  0
  8  9  2  0  0  0  0
  9 10  1  0  0  0  0
 10  5  1  0  0  0  0
 11 10  2  0  0  0  0
 12  6  1  0  0  0  0
 13  7  1  0  0  0  0
 14  8  1  0  0  0  0
 15 16  1  0  0  0  0
 16 18  1  0  0  0  0
 17 16  1  0  0  0  0
 19 24  1  0  0  0  0
 19 16  1  1  0  0  0
 19 20  1  0  0  0  0
 21 20  1  0  0  0  0
 22 21  2  0  0  0  0
 23 22  1  0  0  0  0
 23 24  1  0  0  0  0
M  END
>  <minimizedAffinity>
-4.70924377

$$$$

 OpenBabel03252505313D

 24 25  0  0  1  0  0  0  0  0999 V2000
   39.8570   31.1870   39.8800 O   0  0  0  0  0  0  0  0  0  0  0  0
   39.0420   31.8730   40.9870 P   0  0  1  0  0  0  0  0  0  0  0  0
   39.6740   33.3650   41.4000 O   0  0  0  0  0  0  0  0  0  0  0  0
   40.4140   33.5480   40.7570 H   0  0  0  0  0  0  0  0  0  0  0  0
   37.4590   32.0310   40.3950 O   0  0  0  0  0  0  0  0  0  0  0  0
   35.1160   29.3720   40.4160 C   0  0  0  0  0  0  0  0  0  0  0  0
   35.0310   28.9600   39.0680 C   0  0  0  0  0  0  0  0  0  0  0  0
   35.8390   29.6610   38.1460 C   0  0  0  0  0  0  0  0  0  0  0  0
   36.6260   30.6690   38.6260 N   0  0  0  0  0  0  0  0  0  0  0  0
   36.6620   31.0130   39.9180 C   0  0  0  0  0  0  0  0  0  0  0  0
   35.9140   30.3720   40.8080 N   0  0  0  0  0  0  0  0  0  0  0  0
   34.4800   28.8100   41.1000 H   0  0  0  0  0  0  0  0  0  0  0  0
   34.4020   28.1650   38.7290 H   0  0  0  0  0  0  0  0  0  0  0  0
   35.8450   29.4200   37.0900 H   0  0  0  0  0  0  0  0  0  0  0  0
   39.1180   30.8610   42.3220 O   0  0  0  0  0  0  0  0  0  0  0  0
   39.8830   29.7660   41.9900 C   0  0  0  0  0  0  0  0  0  0  0  0
   40.0440   29.7430   40.8850 H   0  0  0  0  0  0  0  0  0  0  0  0
   40.8660   29.8120   42.4970 H   0  0  0  0  0  0  0  0  0  0  0  0
   39.1030   28.5260   42.3250 C   0  0  1  0  0  3  0  0  0  0  0  0
   37.9920   28.8820   43.2670 C   0  0  0  0  0  2  0  0  0  0  0  0
   36.9700   27.8380   43.4900 C   0  0  0  0  0  3  0  0  0  0  0  0
   37.0600   26.5780   42.7250 C   0  0  0  0  0  3  0  0  0  0  0  0
   37.9640   26.5610   41.5410 C   0  0  0  0  0  2  0  0  0  0  0  0
   38.4200   27.9340   41.1060 C   0  0  0  0  0  2  0  0  0  0  0  0
  2  1  2  6  0  0  0
  2  3  1  0  0  0  0
  2 15  1  0  0  0  0
  4  3  1  0  0  0  0
  5  2  1  0  0  0  0
  6 11  1  0  0  0  0
  6 12  1  0  0  0  0
  7  6  2  0  0  0  0
  8  9  2  0  0  0  0
  8  7  1  0  0  0  0
  9 10  1  0  0  0  0
 10  5  1  0  0  0  0
 10 11  2  0  0  0  0
 13  7  1  0  0  0  0
 14  8  1  0  0  0  0
 16 15  1  0  0  0  0
 16 18  1  0  0  0  0
 17 16  1  0  0  0  0
 19 16  1  6  0  0  0
 19 20  1  0  0  0  0
 20 21  1  0  0  0  0
 22 21  2  0  0  0  0
 23 22  1  0  0  0  0
 24 23  1  0  0  0  0
 24 19  1  0  0  0  0
M  END
>  <minimizedAffinity>
-4.68901396

$$$$

 OpenBabel03252505313D

 24 25  0  0  1  0  0  0  0  0999 V2000
   34.2070   29.2440   39.6230 O   0  0  0  0  0  0  0  0  0  0  0  0
   35.5800   29.5490   40.2440 P   0  0  1  0  0  0  0  0  0  0  0  0
   35.5080   30.8130   41.3370 O   0  0  0  0  0  0  0  0  0  0  0  0
   34.5450   31.0500   41.4330 H   0  0  0  0  0  0  0  0  0  0  0  0
   36.0950   28.1210   41.0040 O   0  0  0  0  0  0  0  0  0  0  0  0
   38.5700   26.5330   42.9810 C   0  0  0  0  0  0  0  0  0  0  0  0
   39.4250   27.5800   43.3910 C   0  0  0  0  0  0  0  0  0  0  0  0
   39.0900   28.8760   42.9410 C   0  0  0  0  0  0  0  0  0  0  0  0
   37.9820   29.0110   42.1540 N   0  0  0  0  0  0  0  0  0  0  0  0
   37.2120   27.9780   41.7980 C   0  0  0  0  0  0  0  0  0  0  0  0
   37.5010   26.7480   42.2070 N   0  0  0  0  0  0  0  0  0  0  0  0
   38.8580   25.5470   43.3460 H   0  0  0  0  0  0  0  0  0  0  0  0
   40.2850   27.4360   44.0090 H   0  0  0  0  0  0  0  0  0  0  0  0
   39.6830   29.7450   43.2020 H   0  0  0  0  0  0  0  0  0  0  0  0
   36.5840   29.9840   38.9730 O   0  0  0  0  0  0  0  0  0  0  0  0
   36.7760   31.3470   39.0220 C   0  0  0  0  0  0  0  0  0  0  0  0
   36.4130   31.8100   38.0710 H   0  0  0  0  0  0  0  0  0  0  0  0
   36.2210   31.7860   39.8720 H   0  0  0  0  0  0  0  0  0  0  0  0
   38.2540   31.6130   39.0780 C   0  0  1  0  0  3  0  0  0  0  0  0
   38.8150   31.5730   37.6880 C   0  0  0  0  0  2  0  0  0  0  0  0
   40.1960   32.0730   37.5310 C   0  0  0  0  0  3  0  0  0  0  0  0
   40.8860   32.6440   38.7050 C   0  0  0  0  0  3  0  0  0  0  0  0
   40.0470   32.9930   39.8860 C   0  0  0  0  0  2  0  0  0  0  0  0
   38.5650   33.0060   39.5950 C   0  0  0  0  0  2  0  0  0  0  0  0
  2  1  2  6  0  0  0
  2  5  1  0  0  0  0
  2  3  1  0  0  0  0
  3  4  1  0  0  0  0
  5 10  1  0  0  0  0
  6 12  1  0  0  0  0
  6  7  1  0  0  0  0
  7 13  1  0  0  0  0
  8 14  1  0  0  0  0
  8  7  2  0  0  0  0
  9  8  1  0  0  0  0
 10  9  2  0  0  0  0
 10 11  1  0  0  0  0
 11  6  2  0  0  0  0
 15 16  1  0  0  0  0
 15  2  1  0  0  0  0
 16 18  1  0  0  0  0
 17 16  1  0  0  0  0
 19 16  1  6  0  0  0
 19 24  1  0  0  0  0
 20 19  1  0  0  0  0
 21 20  1  0  0  0  0
 21 22  2  0  0  0  0
 22 23  1  0  0  0  0
 24 23  1  0  0  0  0
M  END
>  <minimizedAffinity>
-4.67256975

$$$$

 OpenBabel03252505313D

 24 25  0  0  1  0  0  0  0  0999 V2000
   38.9780   28.5490   42.0910 O   0  0  0  0  0  0  0  0  0  0  0  0
   37.4760   28.3760   42.3680 P   0  0  1  0  0  0  0  0  0  0  0  0
   36.9700   29.2810   43.6800 O   0  0  0  0  0  0  0  0  0  0  0  0
   37.7500   29.8350   43.9600 H   0  0  0  0  0  0  0  0  0  0  0  0
   36.6660   28.8560   40.9550 O   0  0  0  0  0  0  0  0  0  0  0  0
   37.3260   32.2820   40.3320 C   0  0  0  0  0  0  0  0  0  0  0  0
   37.3310   32.3940   38.9240 C   0  0  0  0  0  0  0  0  0  0  0  0
   37.0910   31.2060   38.2000 C   0  0  0  0  0  0  0  0  0  0  0  0
   36.8760   30.0600   38.9090 N   0  0  0  0  0  0  0  0  0  0  0  0
   36.8840   30.0180   40.2450 C   0  0  0  0  0  0  0  0  0  0  0  0
   37.1070   31.1180   40.9540 N   0  0  0  0  0  0  0  0  0  0  0  0
   37.5150   33.2170   40.8600 H   0  0  0  0  0  0  0  0  0  0  0  0
   37.5030   33.3110   38.4030 H   0  0  0  0  0  0  0  0  0  0  0  0
   37.0740   31.1890   37.1160 H   0  0  0  0  0  0  0  0  0  0  0  0
   37.2450   26.7500   42.7060 O   0  0  0  0  0  0  0  0  0  0  0  0
   38.3540   26.0580   42.2750 C   0  0  0  0  0  0  0  0  0  0  0  0
   39.0570   26.7600   41.7630 H   0  0  0  0  0  0  0  0  0  0  0  0
   38.8740   25.5870   43.1310 H   0  0  0  0  0  0  0  0  0  0  0  0
   37.9180   25.0690   41.2310 C   0  0  1  0  0  3  0  0  0  0  0  0
   38.8500   23.8950   41.2450 C   0  0  0  0  0  2  0  0  0  0  0  0
   38.4170   22.7130   40.4700 C   0  0  0  0  0  3  0  0  0  0  0  0
   37.0910   22.7330   39.8200 C   0  0  0  0  0  3  0  0  0  0  0  0
   36.1340   23.7890   40.2550 C   0  0  0  0  0  2  0  0  0  0  0  0
   36.5450   24.4940   41.5270 C   0  0  0  0  0  2  0  0  0  0  0  0
  2  1  2  6  0  0  0
  2 15  1  0  0  0  0
  2  3  1  0  0  0  0
  3  4  1  0  0  0  0
  5  2  1  0  0  0  0
  6 12  1  0  0  0  0
  6 11  1  0  0  0  0
  7  6  2  0  0  0  0
  8  9  2  0  0  0  0
  8  7  1  0  0  0  0
  9 10  1  0  0  0  0
 10 11  2  0  0  0  0
 10  5  1  0  0  0  0
 13  7  1  0  0  0  0
 14  8  1  0  0  0  0
 16 15  1  0  0  0  0
 16 18  1  0  0  0  0
 17 16  1  0  0  0  0
 19 20  1  0  0  0  0
 19 24  1  0  0  0  0
 19 16  1  1  0  0  0
 21 20  1  0  0  0  0
 22 23  1  0  0  0  0
 22 21  2  0  0  0  0
 23 24  1  0  0  0  0
M  END
>  <minimizedAffinity>
-4.62007999

$$$$

 OpenBabel03252505313D

 24 25  0  0  1  0  0  0  0  0999 V2000
   36.2720   28.0770   39.7490 O   0  0  0  0  0  0  0  0  0  0  0  0
   36.6130   28.9080   40.9970 P   0  0  1  0  0  0  0  0  0  0  0  0
   35.5140   30.1430   41.2490 O   0  0  0  0  0  0  0  0  0  0  0  0
   34.7910   30.0210   40.5740 H   0  0  0  0  0  0  0  0  0  0  0  0
   36.6220   27.8300   42.3080 O   0  0  0  0  0  0  0  0  0  0  0  0
   38.3340   24.7270   42.3130 C   0  0  0  0  0  0  0  0  0  0  0  0
   39.4890   24.9580   43.0920 C   0  0  0  0  0  0  0  0  0  0  0  0
   39.6400   26.2590   43.6190 C   0  0  0  0  0  0  0  0  0  0  0  0
   38.6700   27.1780   43.3360 N   0  0  0  0  0  0  0  0  0  0  0  0
   37.5970   26.8980   42.5890 C   0  0  0  0  0  0  0  0  0  0  0  0
   37.4280   25.6830   42.0810 N   0  0  0  0  0  0  0  0  0  0  0  0
   38.2490   23.7130   41.9220 H   0  0  0  0  0  0  0  0  0  0  0  0
   40.2280   24.2120   43.2930 H   0  0  0  0  0  0  0  0  0  0  0  0
   40.4920   26.5360   44.2290 H   0  0  0  0  0  0  0  0  0  0  0  0
   38.1260   29.5750   40.7180 O   0  0  0  0  0  0  0  0  0  0  0  0
   38.4220   30.4250   41.7600 C   0  0  0  0  0  0  0  0  0  0  0  0
   37.4740   30.7890   42.2260 H   0  0  0  0  0  0  0  0  0  0  0  0
   39.0240   29.9020   42.5270 H   0  0  0  0  0  0  0  0  0  0  0  0
   39.1060   31.6400   41.1980 C   0  0  1  0  0  3  0  0  0  0  0  0
   40.0110   31.2230   40.0780 C   0  0  0  0  0  2  0  0  0  0  0  0
   40.5560   32.3130   39.2430 C   0  0  0  0  0  3  0  0  0  0  0  0
   40.1180   33.6990   39.5050 C   0  0  0  0  0  3  0  0  0  0  0  0
   38.9110   33.8820   40.3590 C   0  0  0  0  0  2  0  0  0  0  0  0
   38.1210   32.6130   40.5760 C   0  0  0  0  0  2  0  0  0  0  0  0
  2  1  2  6  0  0  0
  2  3  1  0  0  0  0
  2  5  1  0  0  0  0
  4  3  1  0  0  0  0
  5 10  1  0  0  0  0
  6  7  1  0  0  0  0
  7 13  1  0  0  0  0
  7  8  2  0  0  0  0
  8 14  1  0  0  0  0
  9  8  1  0  0  0  0
 10  9  2  0  0  0  0
 11  6  2  0  0  0  0
 11 10  1  0  0  0  0
 12  6  1  0  0  0  0
 15  2  1  0  0  0  0
 15 16  1  0  0  0  0
 16 17  1  0  0  0  0
 16 18  1  0  0  0  0
 19 16  1  6  0  0  0
 20 19  1  0  0  0  0
 21 22  2  0  0  0  0
 21 20  1  0  0  0  0
 22 23  1  0  0  0  0
 23 24  1  0  0  0  0
 24 19  1  0  0  0  0
M  END
>  <minimizedAffinity>
-4.45905733

$$$$

 OpenBabel03252505313D

 24 25  0  0  1  0  0  0  0  0999 V2000
   42.5400   29.7100   41.6960 O   0  0  0  0  0  0  0  0  0  0  0  0
   41.4130   30.7030   42.0220 P   0  0  1  0  0  0  0  0  0  0  0  0
   41.8530   31.7820   43.2220 O   0  0  0  0  0  0  0  0  0  0  0  0
   42.8160   31.6130   43.4150 H   0  0  0  0  0  0  0  0  0  0  0  0
   41.0550   31.5190   40.5770 O   0  0  0  0  0  0  0  0  0  0  0  0
   37.7720   32.0980   39.3740 C   0  0  0  0  0  0  0  0  0  0  0  0
   37.5170   33.4540   39.6720 C   0  0  0  0  0  0  0  0  0  0  0  0
   38.5560   34.1600   40.3180 C   0  0  0  0  0  0  0  0  0  0  0  0
   39.7080   33.4840   40.5990 N   0  0  0  0  0  0  0  0  0  0  0  0
   39.8890   32.1960   40.2910 C   0  0  0  0  0  0  0  0  0  0  0  0
   38.9310   31.5060   39.6830 N   0  0  0  0  0  0  0  0  0  0  0  0
   36.9500   31.5830   38.8760 H   0  0  0  0  0  0  0  0  0  0  0  0
   36.6010   33.9510   39.4360 H   0  0  0  0  0  0  0  0  0  0  0  0
   38.4570   35.2050   40.5880 H   0  0  0  0  0  0  0  0  0  0  0  0
   40.1200   29.7840   42.5640 O   0  0  0  0  0  0  0  0  0  0  0  0
   40.5820   28.5210   42.8620 C   0  0  0  0  0  0  0  0  0  0  0  0
   41.2010   28.1400   42.0140 H   0  0  0  0  0  0  0  0  0  0  0  0
   41.2000   28.5410   43.7800 H   0  0  0  0  0  0  0  0  0  0  0  0
   39.4000   27.5980   42.9650 C   0  0  1  0  0  3  0  0  0  0  0  0
   38.1990   28.3820   43.4020 C   0  0  0  0  0  2  0  0  0  0  0  0
   36.8980   27.6890   43.2990 C   0  0  0  0  0  3  0  0  0  0  0  0
   36.8560   26.3360   42.7080 C   0  0  0  0  0  3  0  0  0  0  0  0
   38.0570   25.8860   41.9480 C   0  0  0  0  0  2  0  0  0  0  0  0
   39.0220   27.0010   41.6230 C   0  0  0  0  0  2  0  0  0  0  0  0
  2  1  2  6  0  0  0
  2 15  1  0  0  0  0
  2  3  1  0  0  0  0
  3  4  1  0  0  0  0
  5  2  1  0  0  0  0
  6  7  2  0  0  0  0
  6 11  1  0  0  0  0
  7  8  1  0  0  0  0
  8 14  1  0  0  0  0
  8  9  2  0  0  0  0
 10  5  1  0  0  0  0
 10  9  1  0  0  0  0
 11 10  2  0  0  0  0
 12  6  1  0  0  0  0
 13  7  1  0  0  0  0
 15 16  1  0  0  0  0
 16 18  1  0  0  0  0
 17 16  1  0  0  0  0
 19 16  1  6  0  0  0
 19 20  1  0  0  0  0
 21 20  1  0  0  0  0
 22 21  2  0  0  0  0
 23 22  1  0  0  0  0
 24 23  1  0  0  0  0
 24 19  1  0  0  0  0
M  END
>  <minimizedAffinity>
-4.44690847

$$$$

 OpenBabel03252505313D

 24 25  0  0  1  0  0  0  0  0999 V2000
   36.6340   31.0080   38.8010 O   0  0  0  0  0  0  0  0  0  0  0  0
   37.2490   31.5180   40.1130 P   0  0  1  0  0  0  0  0  0  0  0  0
   36.9910   33.1560   40.3340 O   0  0  0  0  0  0  0  0  0  0  0  0
   36.3920   33.4500   39.5940 H   0  0  0  0  0  0  0  0  0  0  0  0
   36.5340   30.6200   41.3630 O   0  0  0  0  0  0  0  0  0  0  0  0
   37.8020   28.0180   43.4080 C   0  0  0  0  0  0  0  0  0  0  0  0
   37.6260   26.8450   42.6420 C   0  0  0  0  0  0  0  0  0  0  0  0
   37.0410   27.0090   41.3670 C   0  0  0  0  0  0  0  0  0  0  0  0
   36.6950   28.2730   40.9840 N   0  0  0  0  0  0  0  0  0  0  0  0
   36.8860   29.3470   41.7570 C   0  0  0  0  0  0  0  0  0  0  0  0
   37.4340   29.2230   42.9600 N   0  0  0  0  0  0  0  0  0  0  0  0
   38.2560   27.8540   44.3850 H   0  0  0  0  0  0  0  0  0  0  0  0
   37.9110   25.8690   42.9760 H   0  0  0  0  0  0  0  0  0  0  0  0
   36.8650   26.1700   40.7040 H   0  0  0  0  0  0  0  0  0  0  0  0
   38.8990   31.2380   39.9990 O   0  0  0  0  0  0  0  0  0  0  0  0
   39.5400   32.0660   40.8920 C   0  0  0  0  0  0  0  0  0  0  0  0
   40.2880   32.6940   40.3480 H   0  0  0  0  0  0  0  0  0  0  0  0
   38.8130   32.7280   41.3980 H   0  0  0  0  0  0  0  0  0  0  0  0
   40.3270   31.2120   41.8470 C   0  0  1  0  0  3  0  0  0  0  0  0
   40.4790   29.8380   41.2680 C   0  0  0  0  0  2  0  0  0  0  0  0
   41.4470   28.9510   41.9470 C   0  0  0  0  0  3  0  0  0  0  0  0
   42.2410   29.4890   43.0700 C   0  0  0  0  0  3  0  0  0  0  0  0
   42.2720   30.9690   43.2350 C   0  0  0  0  0  2  0  0  0  0  0  0
   41.7420   31.7250   42.0400 C   0  0  0  0  0  2  0  0  0  0  0  0
  2  1  2  6  0  0  0
  2  3  1  0  0  0  0
  2  5  1  0  0  0  0
  4  3  1  0  0  0  0
  5 10  1  0  0  0  0
  6 12  1  0  0  0  0
  7 13  1  0  0  0  0
  7  6  2  0  0  0  0
  8  7  1  0  0  0  0
  9  8  2  0  0  0  0
  9 10  1  0  0  0  0
 10 11  2  0  0  0  0
 11  6  1  0  0  0  0
 14  8  1  0  0  0  0
 15  2  1  0  0  0  0
 15 16  1  0  0  0  0
 16 18  1  0  0  0  0
 17 16  1  0  0  0  0
 19 16  1  6  0  0  0
 19 24  1  0  0  0  0
 20 19  1  0  0  0  0
 20 21  1  0  0  0  0
 21 22  2  0  0  0  0
 22 23  1  0  0  0  0
 24 23  1  0  0  0  0
M  END
>  <minimizedAffinity>
-4.40927792

$$$$
