
 OpenBabel03242512053D

 17 18  0  0  0  0  0  0  0  0999 V2000
   35.6500   28.8000   40.9140 C   0  0  0  0  0  0  0  0  0  0  0  0
   36.6820   28.5870   41.8390 C   0  0  0  0  0  0  0  0  0  0  0  0
   37.6020   29.6170   42.0200 C   0  0  0  0  0  0  0  0  0  0  0  0
   37.4620   30.7630   41.3070 N   0  0  0  0  0  0  0  0  0  0  0  0
   36.4490   30.9380   40.4160 C   0  0  0  0  0  0  0  0  0  0  0  0
   35.5520   29.9520   40.2310 N   0  0  0  0  0  0  0  0  0  0  0  0
   34.9120   28.0350   40.7360 H   0  0  0  0  0  0  0  0  0  0  0  0
   38.4250   29.5260   42.7170 H   0  0  0  0  0  0  0  0  0  0  0  0
   36.4480   31.8950   39.9110 H   0  0  0  0  0  0  0  0  0  0  0  0
   36.7870   27.3670   42.5650 C   0  0  0  0  0  0  0  0  0  0  0  0
   36.2040   27.2870   43.6760 O   0  0  0  0  0  0  0  0  0  0  0  0
   37.5660   26.2050   42.0380 C   0  0  0  0  0  3  0  0  0  0  0  0
   38.8330   26.0550   42.8580 C   0  0  0  0  0  2  0  0  0  0  0  0
   39.6070   24.8470   42.4530 C   0  0  0  0  0  2  0  0  0  0  0  0
   39.0070   24.0300   41.3570 C   0  0  0  0  0  2  0  0  0  0  0  0
   37.5230   23.8410   41.4490 C   0  0  0  0  0  2  0  0  0  0  0  0
   36.8050   24.9110   42.2220 C   0  0  0  0  0  2  0  0  0  0  0  0
  1  2  1  0  0  0  0
  2  3  2  0  0  0  0
  2 10  1  0  0  0  0
  3  8  1  0  0  0  0
  4  3  1  0  0  0  0
  5  4  2  0  0  0  0
  6  5  1  0  0  0  0
  6  1  2  0  0  0  0
  7  1  1  0  0  0  0
  9  5  1  0  0  0  0
 10 11  2  0  0  0  0
 12 17  1  0  0  0  0
 12 10  1  0  0  0  0
 12 13  1  0  0  0  0
 14 13  1  0  0  0  0
 15 16  1  0  0  0  0
 15 14  1  0  0  0  0
 16 17  1  0  0  0  0
M  END
>  <minimizedAffinity>
-4.60809517

$$$$

 OpenBabel03242512053D

 17 18  0  0  0  0  0  0  0  0999 V2000
   36.6130   27.7280   42.1860 C   0  0  0  0  0  0  0  0  0  0  0  0
   37.0850   28.9870   41.7890 C   0  0  0  0  0  0  0  0  0  0  0  0
   38.2930   29.4180   42.3320 C   0  0  0  0  0  0  0  0  0  0  0  0
   38.9500   28.6140   43.2070 N   0  0  0  0  0  0  0  0  0  0  0  0
   38.4630   27.3980   43.5720 C   0  0  0  0  0  0  0  0  0  0  0  0
   37.2980   26.9680   43.0550 N   0  0  0  0  0  0  0  0  0  0  0  0
   35.6820   27.3480   41.7960 H   0  0  0  0  0  0  0  0  0  0  0  0
   38.7200   30.3780   42.0730 H   0  0  0  0  0  0  0  0  0  0  0  0
   39.0800   26.8540   44.2760 H   0  0  0  0  0  0  0  0  0  0  0  0
   36.3610   29.7940   40.8670 C   0  0  0  0  0  0  0  0  0  0  0  0
   36.0940   30.9760   41.1980 O   0  0  0  0  0  0  0  0  0  0  0  0
   35.9200   29.2660   39.5390 C   0  0  0  0  0  3  0  0  0  0  0  0
   34.4050   29.2070   39.5160 C   0  0  0  0  0  2  0  0  0  0  0  0
   33.8930   28.7890   38.1800 C   0  0  0  0  0  2  0  0  0  0  0  0
   34.9330   28.5220   37.1430 C   0  0  0  0  0  2  0  0  0  0  0  0
   36.0680   29.5000   37.1180 C   0  0  0  0  0  2  0  0  0  0  0  0
   36.3090   30.2080   38.4220 C   0  0  0  0  0  2  0  0  0  0  0  0
  1  6  1  0  0  0  0
  2  1  2  0  0  0  0
  2  3  1  0  0  0  0
  3  4  2  0  0  0  0
  4  5  1  0  0  0  0
  5  9  1  0  0  0  0
  6  5  2  0  0  0  0
  7  1  1  0  0  0  0
  8  3  1  0  0  0  0
 10 11  2  0  0  0  0
 10  2  1  0  0  0  0
 12 10  1  0  0  0  0
 13 12  1  0  0  0  0
 14 13  1  0  0  0  0
 15 14  1  0  0  0  0
 16 15  1  0  0  0  0
 16 17  1  0  0  0  0
 17 12  1  0  0  0  0
M  END
>  <minimizedAffinity>
-4.33675385

$$$$

 OpenBabel03242512053D

 17 18  0  0  0  0  0  0  0  0999 V2000
   36.9310   29.6500   38.1770 C   0  0  0  0  0  0  0  0  0  0  0  0
   36.3890   30.1670   39.3620 C   0  0  0  0  0  0  0  0  0  0  0  0
   36.6550   31.5010   39.6590 C   0  0  0  0  0  0  0  0  0  0  0  0
   37.4130   32.2320   38.8030 N   0  0  0  0  0  0  0  0  0  0  0  0
   37.9250   31.7000   37.6610 C   0  0  0  0  0  0  0  0  0  0  0  0
   37.6770   30.4120   37.3610 N   0  0  0  0  0  0  0  0  0  0  0  0
   36.7560   28.6230   37.9010 H   0  0  0  0  0  0  0  0  0  0  0  0
   36.2700   31.9690   40.5560 H   0  0  0  0  0  0  0  0  0  0  0  0
   38.5130   32.3850   37.0640 H   0  0  0  0  0  0  0  0  0  0  0  0
   35.5970   29.3610   40.2280 C   0  0  0  0  0  0  0  0  0  0  0  0
   34.3760   29.2310   39.9650 O   0  0  0  0  0  0  0  0  0  0  0  0
   36.1860   28.6820   41.4240 C   0  0  0  0  0  3  0  0  0  0  0  0
   36.7240   27.3290   41.0010 C   0  0  0  0  0  2  0  0  0  0  0  0
   37.4210   26.6410   42.1240 C   0  0  0  0  0  2  0  0  0  0  0  0
   37.4680   27.3920   43.4140 C   0  0  0  0  0  2  0  0  0  0  0  0
   37.7510   28.8570   43.2840 C   0  0  0  0  0  2  0  0  0  0  0  0
   37.3780   29.4480   41.9530 C   0  0  0  0  0  2  0  0  0  0  0  0
  1  2  1  0  0  0  0
  2  3  2  0  0  0  0
  2 10  1  0  0  0  0
  3  8  1  0  0  0  0
  4  3  1  0  0  0  0
  5  4  2  0  0  0  0
  6  5  1  0  0  0  0
  6  1  2  0  0  0  0
  7  1  1  0  0  0  0
  9  5  1  0  0  0  0
 10 12  1  0  0  0  0
 11 10  2  0  0  0  0
 12 17  1  0  0  0  0
 13 12  1  0  0  0  0
 13 14  1  0  0  0  0
 14 15  1  0  0  0  0
 16 15  1  0  0  0  0
 17 16  1  0  0  0  0
M  END
>  <minimizedAffinity>
-4.33047104

$$$$

 OpenBabel03242512053D

 17 18  0  0  0  0  0  0  0  0999 V2000
   38.0500   32.7250   40.4980 C   0  0  0  0  0  0  0  0  0  0  0  0
   38.2890   31.3500   40.6210 C   0  0  0  0  0  0  0  0  0  0  0  0
   39.5210   30.8730   40.1810 C   0  0  0  0  0  0  0  0  0  0  0  0
   40.4220   31.7450   39.6620 N   0  0  0  0  0  0  0  0  0  0  0  0
   40.1580   33.0750   39.5560 C   0  0  0  0  0  0  0  0  0  0  0  0
   38.9720   33.5510   39.9770 N   0  0  0  0  0  0  0  0  0  0  0  0
   37.1110   33.1460   40.8230 H   0  0  0  0  0  0  0  0  0  0  0  0
   39.7780   29.8230   40.2440 H   0  0  0  0  0  0  0  0  0  0  0  0
   40.9570   33.6650   39.1250 H   0  0  0  0  0  0  0  0  0  0  0  0
   37.3130   30.4730   41.1730 C   0  0  0  0  0  0  0  0  0  0  0  0
   36.1320   30.8900   41.2730 O   0  0  0  0  0  0  0  0  0  0  0  0
   37.6650   29.0930   41.6290 C   0  0  0  0  0  3  0  0  0  0  0  0
   37.9210   29.1230   43.1230 C   0  0  0  0  0  2  0  0  0  0  0  0
   38.1740   27.7570   43.6630 C   0  0  0  0  0  2  0  0  0  0  0  0
   38.1230   26.6470   42.6660 C   0  0  0  0  0  2  0  0  0  0  0  0
   37.0120   26.7460   41.6650 C   0  0  0  0  0  2  0  0  0  0  0  0
   36.5060   28.1420   41.4320 C   0  0  0  0  0  2  0  0  0  0  0  0
  1  2  1  0  0  0  0
  1  7  1  0  0  0  0
  2 10  1  0  0  0  0
  3  8  1  0  0  0  0
  3  2  2  0  0  0  0
  4  3  1  0  0  0  0
  5  4  2  0  0  0  0
  5  6  1  0  0  0  0
  6  1  2  0  0  0  0
  9  5  1  0  0  0  0
 10 11  2  0  0  0  0
 10 12  1  0  0  0  0
 12 13  1  0  0  0  0
 13 14  1  0  0  0  0
 15 14  1  0  0  0  0
 16 15  1  0  0  0  0
 17 12  1  0  0  0  0
 17 16  1  0  0  0  0
M  END
>  <minimizedAffinity>
-4.25553226

$$$$

 OpenBabel03242512053D

 17 18  0  0  0  0  0  0  0  0999 V2000
   38.0480   28.9200   40.1050 C   0  0  0  0  0  0  0  0  0  0  0  0
   37.4610   29.2060   41.3460 C   0  0  0  0  0  0  0  0  0  0  0  0
   36.5680   30.2730   41.4000 C   0  0  0  0  0  0  0  0  0  0  0  0
   36.3080   30.9760   40.2690 N   0  0  0  0  0  0  0  0  0  0  0  0
   36.8940   30.6720   39.0810 C   0  0  0  0  0  0  0  0  0  0  0  0
   37.7600   29.6450   39.0130 N   0  0  0  0  0  0  0  0  0  0  0  0
   38.7470   28.1040   40.0090 H   0  0  0  0  0  0  0  0  0  0  0  0
   36.0760   30.5540   42.3220 H   0  0  0  0  0  0  0  0  0  0  0  0
   36.6040   31.3090   38.2550 H   0  0  0  0  0  0  0  0  0  0  0  0
   37.7660   28.4380   42.5050 C   0  0  0  0  0  0  0  0  0  0  0  0
   37.4890   28.9270   43.6290 O   0  0  0  0  0  0  0  0  0  0  0  0
   38.3980   27.0860   42.4070 C   0  0  0  0  0  3  0  0  0  0  0  0
   39.2950   26.8790   43.6120 C   0  0  0  0  0  2  0  0  0  0  0  0
   39.8760   25.5060   43.6330 C   0  0  0  0  0  2  0  0  0  0  0  0
   39.4720   24.6150   42.5050 C   0  0  0  0  0  2  0  0  0  0  0  0
   38.0260   24.6950   42.1210 C   0  0  0  0  0  2  0  0  0  0  0  0
   37.3570   25.9910   42.4810 C   0  0  0  0  0  2  0  0  0  0  0  0
  1  2  1  0  0  0  0
  2  3  2  0  0  0  0
  2 10  1  0  0  0  0
  3  8  1  0  0  0  0
  4  3  1  0  0  0  0
  5  4  2  0  0  0  0
  6  5  1  0  0  0  0
  6  1  2  0  0  0  0
  7  1  1  0  0  0  0
  9  5  1  0  0  0  0
 10 11  2  0  0  0  0
 12 17  1  0  0  0  0
 12 10  1  0  0  0  0
 12 13  1  0  0  0  0
 13 14  1  0  0  0  0
 15 14  1  0  0  0  0
 16 17  1  0  0  0  0
 16 15  1  0  0  0  0
M  END
>  <minimizedAffinity>
-4.24818039

$$$$

 OpenBabel03242512053D

 17 18  0  0  0  0  0  0  0  0999 V2000
   36.3120   29.6590   38.3110 C   0  0  0  0  0  0  0  0  0  0  0  0
   35.6550   29.5290   39.5420 C   0  0  0  0  0  0  0  0  0  0  0  0
   34.3260   29.1130   39.5170 C   0  0  0  0  0  0  0  0  0  0  0  0
   33.7360   28.8530   38.3230 N   0  0  0  0  0  0  0  0  0  0  0  0
   34.4020   28.9890   37.1460 C   0  0  0  0  0  0  0  0  0  0  0  0
   35.6860   29.3910   37.1540 N   0  0  0  0  0  0  0  0  0  0  0  0
   37.3410   29.9790   38.2750 H   0  0  0  0  0  0  0  0  0  0  0  0
   33.7530   28.9900   40.4270 H   0  0  0  0  0  0  0  0  0  0  0  0
   33.8210   28.7520   36.2640 H   0  0  0  0  0  0  0  0  0  0  0  0
   36.3170   29.8120   40.7700 C   0  0  0  0  0  0  0  0  0  0  0  0
   36.1340   30.9390   41.2950 O   0  0  0  0  0  0  0  0  0  0  0  0
   37.2090   28.8100   41.4300 C   0  0  0  0  0  3  0  0  0  0  0  0
   38.1880   29.5440   42.3260 C   0  0  0  0  0  2  0  0  0  0  0  0
   39.0410   28.5960   43.0980 C   0  0  0  0  0  2  0  0  0  0  0  0
   38.7760   27.1450   42.8600 C   0  0  0  0  0  2  0  0  0  0  0  0
   37.3270   26.7740   42.7640 C   0  0  0  0  0  2  0  0  0  0  0  0
   36.4220   27.8990   42.3450 C   0  0  0  0  0  2  0  0  0  0  0  0
  1  2  1  0  0  0  0
  2 10  1  0  0  0  0
  3  2  2  0  0  0  0
  3  8  1  0  0  0  0
  4  3  1  0  0  0  0
  5  6  1  0  0  0  0
  5  4  2  0  0  0  0
  6  1  2  0  0  0  0
  7  1  1  0  0  0  0
  9  5  1  0  0  0  0
 10 11  2  0  0  0  0
 10 12  1  0  0  0  0
 12 13  1  0  0  0  0
 12 17  1  0  0  0  0
 13 14  1  0  0  0  0
 15 14  1  0  0  0  0
 16 15  1  0  0  0  0
 17 16  1  0  0  0  0
M  END
>  <minimizedAffinity>
-4.19226646

$$$$

 OpenBabel03242512053D

 17 18  0  0  0  0  0  0  0  0999 V2000
   39.4260   31.1260   39.7030 C   0  0  0  0  0  0  0  0  0  0  0  0
   38.5890   30.9930   40.8200 C   0  0  0  0  0  0  0  0  0  0  0  0
   37.2890   31.4790   40.7070 C   0  0  0  0  0  0  0  0  0  0  0  0
   36.8940   32.0490   39.5400 N   0  0  0  0  0  0  0  0  0  0  0  0
   37.7310   32.1620   38.4740 C   0  0  0  0  0  0  0  0  0  0  0  0
   38.9900   31.6980   38.5690 N   0  0  0  0  0  0  0  0  0  0  0  0
   40.4420   30.7670   39.7380 H   0  0  0  0  0  0  0  0  0  0  0  0
   36.5860   31.4120   41.5270 H   0  0  0  0  0  0  0  0  0  0  0  0
   37.2970   32.6360   37.6030 H   0  0  0  0  0  0  0  0  0  0  0  0
   39.0490   30.3870   42.0220 C   0  0  0  0  0  0  0  0  0  0  0  0
   39.7120   31.0910   42.8250 O   0  0  0  0  0  0  0  0  0  0  0  0
   38.7620   28.9530   42.3380 C   0  0  0  0  0  3  0  0  0  0  0  0
   39.9770   28.3510   43.0170 C   0  0  0  0  0  2  0  0  0  0  0  0
   39.7200   26.9490   43.4560 C   0  0  0  0  0  2  0  0  0  0  0  0
   38.3560   26.4180   43.1620 C   0  0  0  0  0  2  0  0  0  0  0  0
   37.2360   27.3820   43.4050 C   0  0  0  0  0  2  0  0  0  0  0  0
   37.6330   28.8300   43.3360 C   0  0  0  0  0  2  0  0  0  0  0  0
  1  7  1  0  0  0  0
  1  2  1  0  0  0  0
  2 10  1  0  0  0  0
  3  2  2  0  0  0  0
  3  8  1  0  0  0  0
  4  3  1  0  0  0  0
  5  6  1  0  0  0  0
  5  4  2  0  0  0  0
  6  1  2  0  0  0  0
  9  5  1  0  0  0  0
 10 12  1  0  0  0  0
 10 11  2  0  0  0  0
 12 13  1  0  0  0  0
 12 17  1  0  0  0  0
 13 14  1  0  0  0  0
 15 16  1  0  0  0  0
 15 14  1  0  0  0  0
 17 16  1  0  0  0  0
M  END
>  <minimizedAffinity>
-4.09909725

$$$$

 OpenBabel03242512053D

 17 18  0  0  0  0  0  0  0  0999 V2000
   37.5420   27.5720   40.3440 C   0  0  0  0  0  0  0  0  0  0  0  0
   36.6140   28.2980   41.1020 C   0  0  0  0  0  0  0  0  0  0  0  0
   36.5010   27.9780   42.4530 C   0  0  0  0  0  0  0  0  0  0  0  0
   37.2830   26.9950   42.9680 N   0  0  0  0  0  0  0  0  0  0  0  0
   38.1750   26.3100   42.2040 C   0  0  0  0  0  0  0  0  0  0  0  0
   38.2950   26.6080   40.8980 N   0  0  0  0  0  0  0  0  0  0  0  0
   37.6680   27.7800   39.2930 H   0  0  0  0  0  0  0  0  0  0  0  0
   35.8060   28.4940   43.1020 H   0  0  0  0  0  0  0  0  0  0  0  0
   38.7380   25.5510   42.7320 H   0  0  0  0  0  0  0  0  0  0  0  0
   35.8160   29.3210   40.5170 C   0  0  0  0  0  0  0  0  0  0  0  0
   34.6150   29.0590   40.2570 O   0  0  0  0  0  0  0  0  0  0  0  0
   36.3750   30.6750   40.2130 C   0  0  0  0  0  3  0  0  0  0  0  0
   37.5750   30.9190   41.1070 C   0  0  0  0  0  2  0  0  0  0  0  0
   38.2470   32.2090   40.7810 C   0  0  0  0  0  2  0  0  0  0  0  0
   37.6380   32.9930   39.6650 C   0  0  0  0  0  2  0  0  0  0  0  0
   37.2030   32.1790   38.4840 C   0  0  0  0  0  2  0  0  0  0  0  0
   36.9000   30.7400   38.7960 C   0  0  0  0  0  2  0  0  0  0  0  0
  1  6  2  0  0  0  0
  1  2  1  0  0  0  0
  2  3  2  0  0  0  0
  3  4  1  0  0  0  0
  3  8  1  0  0  0  0
  5  9  1  0  0  0  0
  5  4  2  0  0  0  0
  6  5  1  0  0  0  0
  7  1  1  0  0  0  0
 10  2  1  0  0  0  0
 11 10  2  0  0  0  0
 12 10  1  0  0  0  0
 12 13  1  0  0  0  0
 14 13  1  0  0  0  0
 15 14  1  0  0  0  0
 16 17  1  0  0  0  0
 16 15  1  0  0  0  0
 17 12  1  0  0  0  0
M  END
>  <minimizedAffinity>
-4.09036541

$$$$

 OpenBabel03242512053D

 17 18  0  0  0  0  0  0  0  0999 V2000
   37.5010   26.7700   41.9600 C   0  0  0  0  0  0  0  0  0  0  0  0
   37.6180   28.1630   41.8670 C   0  0  0  0  0  0  0  0  0  0  0  0
   38.6450   28.7690   42.5870 C   0  0  0  0  0  0  0  0  0  0  0  0
   39.4750   27.9960   43.3320 N   0  0  0  0  0  0  0  0  0  0  0  0
   39.3350   26.6460   43.4000 C   0  0  0  0  0  0  0  0  0  0  0  0
   38.3470   26.0470   42.7110 N   0  0  0  0  0  0  0  0  0  0  0  0
   36.7220   26.2520   41.4230 H   0  0  0  0  0  0  0  0  0  0  0  0
   38.7980   29.8400   42.5650 H   0  0  0  0  0  0  0  0  0  0  0  0
   40.0590   26.1440   44.0290 H   0  0  0  0  0  0  0  0  0  0  0  0
   36.7220   28.9310   41.0710 C   0  0  0  0  0  0  0  0  0  0  0  0
   35.5010   28.6390   41.1030 O   0  0  0  0  0  0  0  0  0  0  0  0
   37.2040   30.0570   40.2120 C   0  0  0  0  0  3  0  0  0  0  0  0
   36.7180   29.8300   38.7930 C   0  0  0  0  0  2  0  0  0  0  0  0
   37.0740   30.9720   37.9030 C   0  0  0  0  0  2  0  0  0  0  0  0
   37.8120   32.0960   38.5550 C   0  0  0  0  0  2  0  0  0  0  0  0
   37.3160   32.4730   39.9170 C   0  0  0  0  0  2  0  0  0  0  0  0
   36.5980   31.3720   40.6460 C   0  0  0  0  0  2  0  0  0  0  0  0
  1  6  1  0  0  0  0
  2  1  2  0  0  0  0
  2  3  1  0  0  0  0
  3  4  2  0  0  0  0
  4  5  1  0  0  0  0
  5  9  1  0  0  0  0
  6  5  2  0  0  0  0
  7  1  1  0  0  0  0
  8  3  1  0  0  0  0
 10 11  2  0  0  0  0
 10  2  1  0  0  0  0
 12 17  1  0  0  0  0
 12 10  1  0  0  0  0
 13 12  1  0  0  0  0
 14 15  1  0  0  0  0
 14 13  1  0  0  0  0
 15 16  1  0  0  0  0
 16 17  1  0  0  0  0
M  END
>  <minimizedAffinity>
-4.08509159

$$$$
