
     RDKit          3D

 30 31  0  0  0  0  0  0  0  0999 V2000
   44.9148   35.1057   44.9432 C   0  0  0  0  0  0  0  0  0  0  0  0
   45.8265   34.7551   43.9485 C   0  0  0  0  0  0  0  0  0  0  0  0
   46.6824   33.6977   44.2188 C   0  0  0  0  0  0  0  0  0  0  0  0
   46.6051   33.0593   45.4078 N   0  0  0  0  0  0  0  0  0  0  0  0
   45.7088   33.4327   46.3383 C   0  0  0  0  0  0  0  0  0  0  0  0
   44.8536   34.4533   46.1276 N   0  0  0  0  0  0  0  0  0  0  0  0
   45.7967   35.5537   42.6794 C   0  0  0  0  0  0  0  0  0  0  0  0
   45.3491   36.8055   43.0307 F   0  0  0  0  0  0  0  0  0  0  0  0
   44.9101   34.9457   41.8287 F   0  0  0  0  0  0  0  0  0  0  0  0
   47.0755   35.5490   42.1553 F   0  0  0  0  0  0  0  0  0  0  0  0
   45.6234   32.7772   47.5696 O   0  0  0  0  0  0  0  0  0  0  0  0
   44.2201   35.9163   44.8026 H   0  0  0  0  0  0  0  0  0  0  0  0
   47.3775   33.4447   43.4367 H   0  0  0  0  0  0  0  0  0  0  0  0
   46.4690   31.6929   47.9022 C   0  0  0  0  0  0  0  0  0  0  0  0
   45.7628   30.7308   48.8133 C   0  0  0  0  0  0  0  0  0  0  0  0
   46.1652   30.8405   50.2483 C   0  0  0  0  0  0  0  0  0  0  0  0
   47.6506   30.7947   50.4674 C   0  0  0  0  0  0  0  0  0  0  0  0
   48.4645   31.2193   49.2764 C   0  0  0  0  0  0  0  0  0  0  0  0
   47.7099   32.2845   48.5379 C   0  0  0  0  0  0  0  0  0  0  0  0
   46.7714   31.1122   47.0057 H   0  0  0  0  0  0  0  0  0  0  0  0
   45.8651   29.6588   48.4843 H   0  0  0  0  0  0  0  0  0  0  0  0
   44.6734   30.9500   48.7561 H   0  0  0  0  0  0  0  0  0  0  0  0
   45.7292   29.9461   50.7688 H   0  0  0  0  0  0  0  0  0  0  0  0
   45.7081   31.7401   50.6726 H   0  0  0  0  0  0  0  0  0  0  0  0
   47.8801   31.4959   51.2999 H   0  0  0  0  0  0  0  0  0  0  0  0
   47.9969   29.7842   50.8029 H   0  0  0  0  0  0  0  0  0  0  0  0
   48.6831   30.3602   48.6343 H   0  0  0  0  0  0  0  0  0  0  0  0
   49.4205   31.6920   49.6430 H   0  0  0  0  0  0  0  0  0  0  0  0
   48.3278   32.7657   47.7614 H   0  0  0  0  0  0  0  0  0  0  0  0
   47.3153   33.0280   49.2914 H   0  0  0  0  0  0  0  0  0  0  0  0
  1  6  2  0
  2  3  2  0
  2  1  1  0
  3  4  1  0
  4  5  2  0
  5 11  1  0
  6  5  1  0
  7  8  1  0
  7  2  1  0
  9  7  1  0
 10  7  1  0
  1 12  1  0
  3 13  1  0
 14 15  1  0
 15 16  1  0
 16 17  1  0
 17 18  1  0
 18 19  1  0
 19 14  1  0
 14 20  1  0
 15 21  1  0
 15 22  1  0
 16 23  1  0
 16 24  1  0
 17 25  1  0
 17 26  1  0
 18 27  1  0
 18 28  1  0
 19 29  1  0
 19 30  1  0
 11 14  1  0
M  ISO  2  12  14  13  14
M  END
>  <DihAtoms>  (1) 
4,10,13,14

>  <DihDeg>  (1) 
-118.56017576723124

$$$$
