
 OpenBabel03252501573D

 28 30  0  0  0  0  0  0  0  0999 V2000
   45.6270   34.0830   45.5100 C   0  0  0  0  0  0  0  0  0  0  0  0
   46.3500   33.9090   44.3160 C   0  0  0  0  0  0  0  0  0  0  0  0
   46.0410   34.8170   43.3010 C   0  0  0  0  0  0  0  0  0  0  0  0
   45.1030   35.7750   43.5080 N   0  0  0  0  0  0  0  0  0  0  0  0
   44.4410   35.8880   44.6870 C   0  0  0  0  0  0  0  0  0  0  0  0
   44.7080   35.0280   45.7030 N   0  0  0  0  0  0  0  0  0  0  0  0
   45.7660   33.4700   46.3840 H   0  0  0  0  0  0  0  0  0  0  0  0
   43.7200   36.6940   44.7270 H   0  0  0  0  0  0  0  0  0  0  0  0
   46.7490   34.7000   42.0290 C   0  0  0  0  0  0  0  0  0  0  0  0
   46.3760   34.0110   40.9070 C   0  0  0  0  0  0  0  0  0  0  0  0
   47.2160   34.0290   39.7990 C   0  0  0  0  0  0  0  0  0  0  0  0
   48.3990   34.7180   39.8100 C   0  0  0  0  0  0  0  0  0  0  0  0
   48.7860   35.4160   40.9330 C   0  0  0  0  0  0  0  0  0  0  0  0
   47.9590   35.4090   42.0450 C   0  0  0  0  0  0  0  0  0  0  0  0
   45.4310   33.5010   40.9900 H   0  0  0  0  0  0  0  0  0  0  0  0
   46.8920   33.4720   38.9250 H   0  0  0  0  0  0  0  0  0  0  0  0
   49.0680   34.7510   38.9760 H   0  0  0  0  0  0  0  0  0  0  0  0
   49.7220   35.9620   40.9500 H   0  0  0  0  0  0  0  0  0  0  0  0
   48.3340   35.9860   42.9040 H   0  0  0  0  0  0  0  0  0  0  0  0
   47.3370   32.8590   44.1880 C   0  0  0  0  0  0  0  0  0  0  0  0
   48.0440   32.9940   45.0720 H   0  0  0  0  0  0  0  0  0  0  0  0
   48.0140   33.1320   43.3240 H   0  0  0  0  0  0  0  0  0  0  0  0
   46.9010   31.4510   44.1010 C   0  0  0  0  0  0  0  0  0  0  0  0
   48.0650   30.6880   43.4080 C   0  0  0  0  0  0  0  0  0  0  0  0
   47.9560   30.8360   41.8870 C   0  0  0  0  0  0  0  0  0  0  0  0
   46.7170   30.1100   41.3840 C   0  0  0  0  0  0  0  0  0  0  0  0
   45.7110   29.9690   42.5030 C   0  0  0  0  0  0  0  0  0  0  0  0
   45.6820   31.3400   43.1890 C   0  0  0  0  0  0  0  0  0  0  0  0
  1  6  1  0  0  0  0
  1  7  1  0  0  0  0
  2  1  2  0  0  0  0
  3  4  2  0  0  0  0
  3  2  1  0  0  0  0
  4  5  1  0  0  0  0
  5  8  1  0  0  0  0
  5  6  2  0  0  0  0
  9 14  1  0  0  0  0
  9  3  1  0  0  0  0
 10 15  1  0  0  0  0
 10  9  2  0  0  0  0
 11 12  2  0  0  0  0
 11 10  1  0  0  0  0
 12 13  1  0  0  0  0
 13 18  1  0  0  0  0
 13 14  2  0  0  0  0
 14 19  1  0  0  0  0
 16 11  1  0  0  0  0
 17 12  1  0  0  0  0
 20  2  1  0  0  0  0
 20 21  1  0  0  0  0
 22 20  1  0  0  0  0
 23 20  1  0  0  0  0
 24 23  1  0  0  0  0
 25 24  1  0  0  0  0
 26 25  1  0  0  0  0
 26 27  1  0  0  0  0
 27 28  1  0  0  0  0
 28 23  1  0  0  0  0
M  END
>  <minimizedAffinity>
-5.19764805

>  <minimizedRMSD>
5.3579917

$$$$
