
 OpenBabel03252505493D

 19 20  0  0  0  0  0  0  0  0999 V2000
   44.3490   35.7110   43.9260 C   0  0  0  0  0  0  0  0  0  0  0  0
   44.3060   34.8870   42.8020 C   0  0  0  0  0  0  0  0  0  0  0  0
   44.8220   33.6080   42.9350 C   0  0  0  0  0  0  0  0  0  0  0  0
   45.3370   33.2110   44.1200 N   0  0  0  0  0  0  0  0  0  0  0  0
   45.3580   34.0410   45.1780 C   0  0  0  0  0  0  0  0  0  0  0  0
   44.8700   35.2950   45.1050 N   0  0  0  0  0  0  0  0  0  0  0  0
   43.9650   36.7170   43.8970 H   0  0  0  0  0  0  0  0  0  0  0  0
   44.7780   32.9900   42.0550 H   0  0  0  0  0  0  0  0  0  0  0  0
   43.7030   35.4630   41.5540 C   0  0  0  0  0  0  0  0  0  0  0  0
   44.0290   36.8000   41.5590 F   0  0  0  0  0  0  0  0  0  0  0  0
   42.3450   35.2970   41.6360 F   0  0  0  0  0  0  0  0  0  0  0  0
   44.2280   34.7690   40.4810 F   0  0  0  0  0  0  0  0  0  0  0  0
   45.8890   33.6380   46.4080 O   0  0  0  0  0  0  0  0  0  0  0  0
   45.9370   32.2780   46.7930 C   0  0  0  0  0  3  0  0  0  0  0  0
   45.0460   32.0330   47.9770 C   0  0  0  0  0  2  0  0  0  0  0  0
   45.7750   31.9140   49.2760 C   0  0  0  0  0  2  0  0  0  0  0  0
   46.9110   30.9310   49.2470 C   0  0  0  0  0  2  0  0  0  0  0  0
   47.4810   30.6850   47.8780 C   0  0  0  0  0  2  0  0  0  0  0  0
   47.3880   31.9570   47.0870 C   0  0  0  0  0  2  0  0  0  0  0  0
  1  6  1  0  0  0  0
  2  3  1  0  0  0  0
  2  1  2  0  0  0  0
  3  4  2  0  0  0  0
  4  5  1  0  0  0  0
  5 13  1  0  0  0  0
  6  5  2  0  0  0  0
  7  1  1  0  0  0  0
  8  3  1  0  0  0  0
  9 10  1  0  0  0  0
  9 11  1  0  0  0  0
  9  2  1  0  0  0  0
 12  9  1  0  0  0  0
 13 14  1  0  0  0  0
 14 19  1  0  0  0  0
 14 15  1  0  0  0  0
 15 16  1  0  0  0  0
 17 16  1  0  0  0  0
 18 17  1  0  0  0  0
 19 18  1  0  0  0  0
M  END
>  <minimizedAffinity>
-4.80997658

>  <minimizedRMSD>
1.91778541

$$$$
