
 OpenBabel03252507123D

 25 26  0  0  0  0  0  0  0  0999 V2000
   37.1300   31.6870   39.5220 C   0  0  0  0  0  0  0  0  0  0  0  0
   36.9030   30.3220   39.7540 C   0  0  0  0  0  0  0  0  0  0  0  0
   37.0760   29.4380   38.6900 C   0  0  0  0  0  0  0  0  0  0  0  0
   37.4500   29.9270   37.4840 N   0  0  0  0  0  0  0  0  0  0  0  0
   37.6590   31.2290   37.2890 C   0  0  0  0  0  0  0  0  0  0  0  0
   37.4970   32.1120   38.3140 N   0  0  0  0  0  0  0  0  0  0  0  0
   36.8930   28.3890   38.8990 H   0  0  0  0  0  0  0  0  0  0  0  0
   37.9580   31.5540   36.3000 H   0  0  0  0  0  0  0  0  0  0  0  0
   38.3560   33.4800   40.6960 C   0  0  0  0  0  0  0  0  0  0  0  0
   39.4880   32.8960   40.6140 O   0  0  0  0  0  0  0  0  0  0  0  0
   37.1080   32.9460   40.1860 N   0  0  0  0  0  0  0  0  0  0  0  0
   38.4940   34.4260   41.2080 H   0  0  0  0  0  0  0  0  0  0  0  0
   36.2930   33.5450   40.3520 H   0  0  0  0  0  0  0  0  0  0  0  0
   36.5300   29.9840   41.0250 O   0  0  0  0  0  0  0  0  0  0  0  0
   38.8680   30.1800   42.2430 O   0  0  0  0  0  0  0  0  0  0  0  0
   37.6450   29.3070   42.1480 P   0  0  1  0  0  0  0  0  0  0  0  0
   36.9490   29.2360   43.6790 O   0  0  0  0  0  0  0  0  0  0  0  0
   37.1280   30.0470   44.2070 H   0  0  0  0  0  0  0  0  0  0  0  0
   38.1160   27.7640   41.6610 O   0  0  0  0  0  0  0  0  0  0  0  0
   37.9460   26.8320   42.6900 C   0  0  0  0  0  3  0  0  0  0  0  0
   37.1230   25.6480   42.3190 C   0  0  0  0  0  2  0  0  0  0  0  0
   37.8480   24.5740   41.5680 C   0  0  0  0  0  2  0  0  0  0  0  0
   39.3090   24.4630   41.8700 C   0  0  0  0  0  2  0  0  0  0  0  0
   39.5830   24.9940   43.2480 C   0  0  0  0  0  2  0  0  0  0  0  0
   39.3020   26.4780   43.2630 C   0  0  0  0  0  2  0  0  0  0  0  0
  1  2  1  0  0  0  0
  1 11  1  0  0  0  0
  2 14  1  0  0  0  0
  3  7  1  0  0  0  0
  3  2  2  0  0  0  0
  4  3  1  0  0  0  0
  5  4  2  0  0  0  0
  5  6  1  0  0  0  0
  6  1  2  0  0  0  0
  8  5  1  0  0  0  0
  9 12  1  0  0  0  0
 10  9  2  0  0  0  0
 11 13  1  0  0  0  0
 11  9  1  0  0  0  0
 14 16  1  0  0  0  0
 16 15  2  1  0  0  0
 16 17  1  0  0  0  0
 17 18  1  0  0  0  0
 19 16  1  0  0  0  0
 19 20  1  0  0  0  0
 20 25  1  0  0  0  0
 21 20  1  0  0  0  0
 22 23  1  0  0  0  0
 22 21  1  0  0  0  0
 23 24  1  0  0  0  0
 24 25  1  0  0  0  0
M  END
>  <minimizedAffinity>
-5.46305656

$$$$

 OpenBabel03252507123D

 25 26  0  0  0  0  0  0  0  0999 V2000
   37.1070   31.9820   39.6390 C   0  0  0  0  0  0  0  0  0  0  0  0
   36.6770   30.6670   39.8780 C   0  0  0  0  0  0  0  0  0  0  0  0
   36.5750   29.8020   38.7900 C   0  0  0  0  0  0  0  0  0  0  0  0
   36.8920   30.2590   37.5550 N   0  0  0  0  0  0  0  0  0  0  0  0
   37.2980   31.5130   37.3540 C   0  0  0  0  0  0  0  0  0  0  0  0
   37.4050   32.3770   38.4020 N   0  0  0  0  0  0  0  0  0  0  0  0
   36.2400   28.7930   39.0050 H   0  0  0  0  0  0  0  0  0  0  0  0
   37.5370   31.8150   36.3420 H   0  0  0  0  0  0  0  0  0  0  0  0
   38.6700   33.3740   40.9480 C   0  0  0  0  0  0  0  0  0  0  0  0
   39.5970   32.4970   40.9620 O   0  0  0  0  0  0  0  0  0  0  0  0
   37.3750   33.2040   40.3170 N   0  0  0  0  0  0  0  0  0  0  0  0
   39.0180   34.2500   41.4840 H   0  0  0  0  0  0  0  0  0  0  0  0
   36.7480   34.0080   40.4170 H   0  0  0  0  0  0  0  0  0  0  0  0
   36.3940   30.3570   41.1790 O   0  0  0  0  0  0  0  0  0  0  0  0
   38.6740   29.1020   41.6450 O   0  0  0  0  0  0  0  0  0  0  0  0
   37.2130   29.0880   42.0060 P   0  0  1  0  0  0  0  0  0  0  0  0
   37.0960   29.3170   43.6700 O   0  0  0  0  0  0  0  0  0  0  0  0
   37.8470   29.8430   44.0270 H   0  0  0  0  0  0  0  0  0  0  0  0
   36.5640   27.5900   41.5880 O   0  0  0  0  0  0  0  0  0  0  0  0
   37.5440   26.7400   41.0650 C   0  0  0  0  0  3  0  0  0  0  0  0
   38.0060   25.6810   42.0050 C   0  0  0  0  0  2  0  0  0  0  0  0
   37.1190   24.4770   42.0990 C   0  0  0  0  0  2  0  0  0  0  0  0
   36.3480   24.1580   40.8580 C   0  0  0  0  0  2  0  0  0  0  0  0
   37.0710   24.6980   39.6580 C   0  0  0  0  0  2  0  0  0  0  0  0
   37.0720   26.2070   39.7290 C   0  0  0  0  0  2  0  0  0  0  0  0
  1  2  1  0  0  0  0
  1 11  1  0  0  0  0
  2 14  1  0  0  0  0
  3  7  1  0  0  0  0
  3  2  2  0  0  0  0
  4  3  1  0  0  0  0
  5  4  2  0  0  0  0
  5  6  1  0  0  0  0
  6  1  2  0  0  0  0
  8  5  1  0  0  0  0
  9 10  2  0  0  0  0
  9 12  1  0  0  0  0
 11 13  1  0  0  0  0
 11  9  1  0  0  0  0
 14 16  1  0  0  0  0
 16 15  2  6  0  0  0
 16 17  1  0  0  0  0
 17 18  1  0  0  0  0
 19 16  1  0  0  0  0
 20 19  1  0  0  0  0
 20 21  1  0  0  0  0
 21 22  1  0  0  0  0
 23 22  1  0  0  0  0
 24 25  1  0  0  0  0
 24 23  1  0  0  0  0
 25 20  1  0  0  0  0
M  END
>  <minimizedAffinity>
-5.36662388

$$$$

 OpenBabel03252507123D

 25 26  0  0  0  0  0  0  0  0999 V2000
   38.3680   31.7430   38.4990 C   0  0  0  0  0  0  0  0  0  0  0  0
   37.9170   30.4170   38.4080 C   0  0  0  0  0  0  0  0  0  0  0  0
   38.8270   29.4400   38.0060 C   0  0  0  0  0  0  0  0  0  0  0  0
   40.0990   29.8050   37.7200 N   0  0  0  0  0  0  0  0  0  0  0  0
   40.5030   31.0720   37.8140 C   0  0  0  0  0  0  0  0  0  0  0  0
   39.6320   32.0440   38.2050 N   0  0  0  0  0  0  0  0  0  0  0  0
   38.4500   28.4250   37.9450 H   0  0  0  0  0  0  0  0  0  0  0  0
   41.5350   31.2970   37.5720 H   0  0  0  0  0  0  0  0  0  0  0  0
   38.2540   33.5900   40.1340 C   0  0  0  0  0  0  0  0  0  0  0  0
   38.9200   32.9700   41.0290 O   0  0  0  0  0  0  0  0  0  0  0  0
   37.9160   33.0510   38.8310 N   0  0  0  0  0  0  0  0  0  0  0  0
   37.9920   34.5690   40.5170 H   0  0  0  0  0  0  0  0  0  0  0  0
   37.3630   33.6830   38.2430 H   0  0  0  0  0  0  0  0  0  0  0  0
   36.6050   30.2070   38.7290 O   0  0  0  0  0  0  0  0  0  0  0  0
   36.1730   31.2040   41.1400 O   0  0  0  0  0  0  0  0  0  0  0  0
   36.1030   29.9240   40.3520 P   0  0  1  0  0  0  0  0  0  0  0  0
   34.5050   29.3960   40.3760 O   0  0  0  0  0  0  0  0  0  0  0  0
   33.8680   30.1410   40.4600 H   0  0  0  0  0  0  0  0  0  0  0  0
   37.0960   28.7780   41.0890 O   0  0  0  0  0  0  0  0  0  0  0  0
   37.7720   29.3210   42.1860 C   0  0  0  0  0  3  0  0  0  0  0  0
   37.5420   28.6010   43.4690 C   0  0  0  0  0  2  0  0  0  0  0  0
   38.3680   27.3670   43.6680 C   0  0  0  0  0  2  0  0  0  0  0  0
   39.7010   27.3800   42.9900 C   0  0  0  0  0  2  0  0  0  0  0  0
   40.1620   28.7960   42.8030 C   0  0  0  0  0  2  0  0  0  0  0  0
   39.2340   29.4860   41.8320 C   0  0  0  0  0  2  0  0  0  0  0  0
  1 11  1  0  0  0  0
  2  1  1  0  0  0  0
  2 14  1  0  0  0  0
  3  2  2  0  0  0  0
  4  5  2  0  0  0  0
  4  3  1  0  0  0  0
  5  6  1  0  0  0  0
  6  1  2  0  0  0  0
  7  3  1  0  0  0  0
  8  5  1  0  0  0  0
  9 12  1  0  0  0  0
  9 10  2  0  0  0  0
 11  9  1  0  0  0  0
 13 11  1  0  0  0  0
 14 16  1  0  0  0  0
 16 17  1  0  0  0  0
 16 19  1  0  0  0  0
 16 15  2  1  0  0  0
 17 18  1  0  0  0  0
 19 20  1  0  0  0  0
 20 21  1  0  0  0  0
 21 22  1  0  0  0  0
 23 22  1  0  0  0  0
 24 23  1  0  0  0  0
 25 20  1  0  0  0  0
 25 24  1  0  0  0  0
M  END
>  <minimizedAffinity>
-5.05266476

$$$$

 OpenBabel03252507123D

 25 26  0  0  0  0  0  0  0  0999 V2000
   36.7040   29.0370   37.1610 C   0  0  0  0  0  0  0  0  0  0  0  0
   35.9440   29.6160   38.1900 C   0  0  0  0  0  0  0  0  0  0  0  0
   34.6890   29.0750   38.4620 C   0  0  0  0  0  0  0  0  0  0  0  0
   34.2540   28.0220   37.7300 N   0  0  0  0  0  0  0  0  0  0  0  0
   34.9950   27.4900   36.7580 C   0  0  0  0  0  0  0  0  0  0  0  0
   36.2250   28.0020   36.4730 N   0  0  0  0  0  0  0  0  0  0  0  0
   34.1250   29.5430   39.2620 H   0  0  0  0  0  0  0  0  0  0  0  0
   34.5890   26.6480   36.2110 H   0  0  0  0  0  0  0  0  0  0  0  0
   39.1410   28.6410   37.1470 C   0  0  0  0  0  0  0  0  0  0  0  0
   39.1560   28.0800   38.2940 O   0  0  0  0  0  0  0  0  0  0  0  0
   37.9560   29.1650   36.4960 N   0  0  0  0  0  0  0  0  0  0  0  0
   40.1530   28.6550   36.7590 H   0  0  0  0  0  0  0  0  0  0  0  0
   38.1320   29.5950   35.5830 H   0  0  0  0  0  0  0  0  0  0  0  0
   36.5200   30.6740   38.8370 O   0  0  0  0  0  0  0  0  0  0  0  0
   37.9860   31.6200   40.8240 O   0  0  0  0  0  0  0  0  0  0  0  0
   36.9220   30.6020   40.5090 P   0  0  1  0  0  0  0  0  0  0  0  0
   35.5700   30.9720   41.4430 O   0  0  0  0  0  0  0  0  0  0  0  0
   35.5090   31.9330   41.6440 H   0  0  0  0  0  0  0  0  0  0  0  0
   37.4980   29.0720   40.9180 O   0  0  0  0  0  0  0  0  0  0  0  0
   37.4210   28.8510   42.2960 C   0  0  0  0  0  3  0  0  0  0  0  0
   36.5170   27.7350   42.6920 C   0  0  0  0  0  2  0  0  0  0  0  0
   37.1070   26.3630   42.5810 C   0  0  0  0  0  2  0  0  0  0  0  0
   38.5880   26.2910   42.7720 C   0  0  0  0  0  2  0  0  0  0  0  0
   39.0470   27.4440   43.6180 C   0  0  0  0  0  2  0  0  0  0  0  0
   38.8230   28.7280   42.8550 C   0  0  0  0  0  2  0  0  0  0  0  0
  1  2  1  0  0  0  0
  2  3  2  0  0  0  0
  2 14  1  0  0  0  0
  3  7  1  0  0  0  0
  4  3  1  0  0  0  0
  5  4  2  0  0  0  0
  6  5  1  0  0  0  0
  6  1  2  0  0  0  0
  8  5  1  0  0  0  0
  9 10  2  0  0  0  0
 11  9  1  0  0  0  0
 11  1  1  0  0  0  0
 12  9  1  0  0  0  0
 13 11  1  0  0  0  0
 14 16  1  0  0  0  0
 16 15  2  1  0  0  0
 16 19  1  0  0  0  0
 16 17  1  0  0  0  0
 17 18  1  0  0  0  0
 19 20  1  0  0  0  0
 20 21  1  0  0  0  0
 20 25  1  0  0  0  0
 22 21  1  0  0  0  0
 22 23  1  0  0  0  0
 23 24  1  0  0  0  0
 25 24  1  0  0  0  0
M  END
>  <minimizedAffinity>
-5.00786686

$$$$

 OpenBabel03252507123D

 25 26  0  0  0  0  0  0  0  0999 V2000
   39.2800   32.3190   40.7590 C   0  0  0  0  0  0  0  0  0  0  0  0
   38.4080   31.4510   40.0850 C   0  0  0  0  0  0  0  0  0  0  0  0
   37.3640   32.0100   39.3490 C   0  0  0  0  0  0  0  0  0  0  0  0
   37.2330   33.3570   39.3140 N   0  0  0  0  0  0  0  0  0  0  0  0
   38.0750   34.1610   39.9640 C   0  0  0  0  0  0  0  0  0  0  0  0
   39.1030   33.6380   40.6890 N   0  0  0  0  0  0  0  0  0  0  0  0
   36.7060   31.3140   38.8390 H   0  0  0  0  0  0  0  0  0  0  0  0
   37.9150   35.2300   39.8940 H   0  0  0  0  0  0  0  0  0  0  0  0
   41.7320   32.1320   40.9830 C   0  0  0  0  0  0  0  0  0  0  0  0
   41.9330   31.9630   39.7340 O   0  0  0  0  0  0  0  0  0  0  0  0
   40.4310   32.3100   41.5970 N   0  0  0  0  0  0  0  0  0  0  0  0
   42.6900   32.1170   41.4900 H   0  0  0  0  0  0  0  0  0  0  0  0
   40.4560   32.4180   42.6160 H   0  0  0  0  0  0  0  0  0  0  0  0
   38.6710   30.1160   40.2170 O   0  0  0  0  0  0  0  0  0  0  0  0
   39.1370   29.5900   42.7670 O   0  0  0  0  0  0  0  0  0  0  0  0
   38.2180   29.2390   41.6280 P   0  0  1  0  0  0  0  0  0  0  0  0
   36.6530   29.6570   42.0880 O   0  0  0  0  0  0  0  0  0  0  0  0
   36.6410   30.4070   42.7230 H   0  0  0  0  0  0  0  0  0  0  0  0
   38.3080   27.5790   41.3490 O   0  0  0  0  0  0  0  0  0  0  0  0
   38.1990   26.8570   42.5420 C   0  0  0  0  0  3  0  0  0  0  0  0
   36.9460   26.0620   42.6690 C   0  0  0  0  0  2  0  0  0  0  0  0
   36.9490   24.7430   41.9590 C   0  0  0  0  0  2  0  0  0  0  0  0
   38.2910   24.0960   41.8280 C   0  0  0  0  0  2  0  0  0  0  0  0
   39.1920   24.5690   42.9310 C   0  0  0  0  0  2  0  0  0  0  0  0
   39.4600   26.0430   42.7430 C   0  0  0  0  0  2  0  0  0  0  0  0
  1 11  1  0  0  0  0
  2 14  1  0  0  0  0
  2  1  2  0  0  0  0
  3  2  1  0  0  0  0
  4  3  2  0  0  0  0
  4  5  1  0  0  0  0
  5  6  2  0  0  0  0
  6  1  1  0  0  0  0
  7  3  1  0  0  0  0
  8  5  1  0  0  0  0
  9 12  1  0  0  0  0
  9 11  1  0  0  0  0
 10  9  2  0  0  0  0
 11 13  1  0  0  0  0
 14 16  1  0  0  0  0
 16 17  1  0  0  0  0
 16 15  2  1  0  0  0
 17 18  1  0  0  0  0
 19 16  1  0  0  0  0
 19 20  1  0  0  0  0
 20 21  1  0  0  0  0
 20 25  1  0  0  0  0
 22 21  1  0  0  0  0
 23 22  1  0  0  0  0
 23 24  1  0  0  0  0
 25 24  1  0  0  0  0
M  END
>  <minimizedAffinity>
-4.98829031

$$$$

 OpenBabel03252507123D

 25 26  0  0  0  0  0  0  0  0999 V2000
   38.9340   31.9790   40.6500 C   0  0  0  0  0  0  0  0  0  0  0  0
   39.2420   30.6130   40.5540 C   0  0  0  0  0  0  0  0  0  0  0  0
   40.5760   30.2310   40.6830 C   0  0  0  0  0  0  0  0  0  0  0  0
   41.5160   31.1840   40.8930 N   0  0  0  0  0  0  0  0  0  0  0  0
   41.1970   32.4750   40.9800 C   0  0  0  0  0  0  0  0  0  0  0  0
   39.9000   32.8730   40.8580 N   0  0  0  0  0  0  0  0  0  0  0  0
   40.7850   29.1690   40.6050 H   0  0  0  0  0  0  0  0  0  0  0  0
   41.9960   33.1860   41.1500 H   0  0  0  0  0  0  0  0  0  0  0  0
   37.1100   33.0160   39.3490 C   0  0  0  0  0  0  0  0  0  0  0  0
   37.4000   32.4050   38.2670 O   0  0  0  0  0  0  0  0  0  0  0  0
   37.8290   32.8760   40.6000 N   0  0  0  0  0  0  0  0  0  0  0  0
   36.2470   33.6470   39.1660 H   0  0  0  0  0  0  0  0  0  0  0  0
   37.4650   33.4540   41.3640 H   0  0  0  0  0  0  0  0  0  0  0  0
   38.1850   29.7740   40.3400 O   0  0  0  0  0  0  0  0  0  0  0  0
   37.7260   29.4780   42.9280 O   0  0  0  0  0  0  0  0  0  0  0  0
   37.0510   29.4100   41.5840 P   0  0  1  0  0  0  0  0  0  0  0  0
   35.8070   30.5440   41.5800 O   0  0  0  0  0  0  0  0  0  0  0  0
   35.9970   31.3060   42.1720 H   0  0  0  0  0  0  0  0  0  0  0  0
   36.4150   27.8630   41.3750 O   0  0  0  0  0  0  0  0  0  0  0  0
   37.3210   27.0250   40.7170 C   0  0  0  0  0  3  0  0  0  0  0  0
   38.1810   26.2150   41.6240 C   0  0  0  0  0  2  0  0  0  0  0  0
   37.5450   24.9730   42.1690 C   0  0  0  0  0  2  0  0  0  0  0  0
   36.5110   24.3500   41.2870 C   0  0  0  0  0  2  0  0  0  0  0  0
   36.7780   24.7160   39.8560 C   0  0  0  0  0  2  0  0  0  0  0  0
   36.5760   26.2030   39.6880 C   0  0  0  0  0  2  0  0  0  0  0  0
  1  6  1  0  0  0  0
  2  1  2  0  0  0  0
  2  3  1  0  0  0  0
  3  4  2  0  0  0  0
  4  5  1  0  0  0  0
  5  8  1  0  0  0  0
  6  5  2  0  0  0  0
  7  3  1  0  0  0  0
  9 11  1  0  0  0  0
 10  9  2  0  0  0  0
 11  1  1  0  0  0  0
 11 13  1  0  0  0  0
 12  9  1  0  0  0  0
 14  2  1  0  0  0  0
 14 16  1  0  0  0  0
 16 15  2  1  0  0  0
 17 16  1  0  0  0  0
 17 18  1  0  0  0  0
 19 16  1  0  0  0  0
 20 19  1  0  0  0  0
 20 21  1  0  0  0  0
 21 22  1  0  0  0  0
 23 22  1  0  0  0  0
 24 23  1  0  0  0  0
 25 24  1  0  0  0  0
 25 20  1  0  0  0  0
M  END
>  <minimizedAffinity>
-4.98279142

$$$$

 OpenBabel03252507123D

 25 26  0  0  0  0  0  0  0  0999 V2000
   37.0630   29.8190   41.3920 C   0  0  0  0  0  0  0  0  0  0  0  0
   38.3300   30.0280   40.8260 C   0  0  0  0  0  0  0  0  0  0  0  0
   39.4500   29.6490   41.5640 C   0  0  0  0  0  0  0  0  0  0  0  0
   39.2730   29.0980   42.7890 N   0  0  0  0  0  0  0  0  0  0  0  0
   38.0590   28.9100   43.3050 C   0  0  0  0  0  0  0  0  0  0  0  0
   36.9490   29.2730   42.6020 N   0  0  0  0  0  0  0  0  0  0  0  0
   40.4150   29.8230   41.1020 H   0  0  0  0  0  0  0  0  0  0  0  0
   37.9870   28.4640   44.2900 H   0  0  0  0  0  0  0  0  0  0  0  0
   35.0600   29.1590   40.1060 C   0  0  0  0  0  0  0  0  0  0  0  0
   35.6700   28.2710   39.4220 O   0  0  0  0  0  0  0  0  0  0  0  0
   35.6780   29.9980   41.1160 N   0  0  0  0  0  0  0  0  0  0  0  0
   34.0200   29.1730   39.8020 H   0  0  0  0  0  0  0  0  0  0  0  0
   35.0400   30.6680   41.5560 H   0  0  0  0  0  0  0  0  0  0  0  0
   38.3440   30.5940   39.5820 O   0  0  0  0  0  0  0  0  0  0  0  0
   37.3430   32.4690   38.0090 O   0  0  0  0  0  0  0  0  0  0  0  0
   38.0090   32.2660   39.3430 P   0  0  1  0  0  0  0  0  0  0  0  0
   36.9490   32.8160   40.5310 O   0  0  0  0  0  0  0  0  0  0  0  0
   36.0080   32.7340   40.2560 H   0  0  0  0  0  0  0  0  0  0  0  0
   39.4320   33.1690   39.3830 O   0  0  0  0  0  0  0  0  0  0  0  0
   40.5370   32.3920   39.0240 C   0  0  0  0  0  3  0  0  0  0  0  0
   41.1200   32.7280   37.6950 C   0  0  0  0  0  2  0  0  0  0  0  0
   42.0410   33.9090   37.6800 C   0  0  0  0  0  2  0  0  0  0  0  0
   42.7790   34.1560   38.9570 C   0  0  0  0  0  2  0  0  0  0  0  0
   42.9160   32.8700   39.7200 C   0  0  0  0  0  2  0  0  0  0  0  0
   41.5430   32.4130   40.1550 C   0  0  0  0  0  2  0  0  0  0  0  0
  1  6  1  0  0  0  0
  2  1  2  0  0  0  0
  2  3  1  0  0  0  0
  3  4  2  0  0  0  0
  4  5  1  0  0  0  0
  5  8  1  0  0  0  0
  6  5  2  0  0  0  0
  7  3  1  0  0  0  0
  9 11  1  0  0  0  0
 10  9  2  0  0  0  0
 11  1  1  0  0  0  0
 11 13  1  0  0  0  0
 12  9  1  0  0  0  0
 14  2  1  0  0  0  0
 16 15  2  6  0  0  0
 16 19  1  0  0  0  0
 16 14  1  0  0  0  0
 16 17  1  0  0  0  0
 18 17  1  0  0  0  0
 20 19  1  0  0  0  0
 20 25  1  0  0  0  0
 21 20  1  0  0  0  0
 22 21  1  0  0  0  0
 22 23  1  0  0  0  0
 23 24  1  0  0  0  0
 24 25  1  0  0  0  0
M  END
>  <minimizedAffinity>
-4.87344313

$$$$

 OpenBabel03252507123D

 25 26  0  0  0  0  0  0  0  0999 V2000
   37.0080   29.8770   38.8620 C   0  0  0  0  0  0  0  0  0  0  0  0
   36.8160   30.7090   39.9750 C   0  0  0  0  0  0  0  0  0  0  0  0
   37.0410   32.0760   39.8200 C   0  0  0  0  0  0  0  0  0  0  0  0
   37.4340   32.5440   38.6120 N   0  0  0  0  0  0  0  0  0  0  0  0
   37.6100   31.7330   37.5690 C   0  0  0  0  0  0  0  0  0  0  0  0
   37.3960   30.3930   37.6960 N   0  0  0  0  0  0  0  0  0  0  0  0
   36.8840   32.6940   40.6980 H   0  0  0  0  0  0  0  0  0  0  0  0
   37.9240   32.1710   36.6290 H   0  0  0  0  0  0  0  0  0  0  0  0
   35.6240   27.9180   38.2780 C   0  0  0  0  0  0  0  0  0  0  0  0
   34.5140   28.5240   38.4540 O   0  0  0  0  0  0  0  0  0  0  0  0
   36.9330   28.5110   38.4680 N   0  0  0  0  0  0  0  0  0  0  0  0
   35.4130   26.9000   37.9680 H   0  0  0  0  0  0  0  0  0  0  0  0
   37.7150   27.8720   38.2940 H   0  0  0  0  0  0  0  0  0  0  0  0
   36.4180   30.0870   41.1260 O   0  0  0  0  0  0  0  0  0  0  0  0
   38.8730   29.8080   42.0700 O   0  0  0  0  0  0  0  0  0  0  0  0
   37.5130   29.1630   42.0810 P   0  0  1  0  0  0  0  0  0  0  0  0
   36.9840   29.1140   43.6790 O   0  0  0  0  0  0  0  0  0  0  0  0
   37.3580   29.8480   44.2160 H   0  0  0  0  0  0  0  0  0  0  0  0
   37.6510   27.5950   41.4760 O   0  0  0  0  0  0  0  0  0  0  0  0
   37.6480   26.6510   42.5070 C   0  0  0  0  0  3  0  0  0  0  0  0
   36.8870   25.4080   42.2010 C   0  0  0  0  0  2  0  0  0  0  0  0
   37.6210   24.3940   41.3770 C   0  0  0  0  0  2  0  0  0  0  0  0
   39.1070   24.3960   41.5430 C   0  0  0  0  0  2  0  0  0  0  0  0
   39.4650   24.9420   42.8950 C   0  0  0  0  0  2  0  0  0  0  0  0
   39.0730   26.4000   42.9510 C   0  0  0  0  0  2  0  0  0  0  0  0
  1  2  1  0  0  0  0
  2 14  1  0  0  0  0
  3  2  2  0  0  0  0
  3  7  1  0  0  0  0
  4  3  1  0  0  0  0
  5  6  1  0  0  0  0
  5  4  2  0  0  0  0
  6  1  2  0  0  0  0
  8  5  1  0  0  0  0
  9 10  2  0  0  0  0
  9 11  1  0  0  0  0
 11  1  1  0  0  0  0
 12  9  1  0  0  0  0
 13 11  1  0  0  0  0
 14 16  1  0  0  0  0
 16 15  2  6  0  0  0
 16 17  1  0  0  0  0
 17 18  1  0  0  0  0
 19 16  1  0  0  0  0
 19 20  1  0  0  0  0
 20 25  1  0  0  0  0
 21 20  1  0  0  0  0
 22 23  1  0  0  0  0
 22 21  1  0  0  0  0
 23 24  1  0  0  0  0
 24 25  1  0  0  0  0
M  END
>  <minimizedAffinity>
-4.84821701

$$$$

 OpenBabel03252507123D

 25 26  0  0  0  0  0  0  0  0999 V2000
   36.5220   29.9860   38.9060 C   0  0  0  0  0  0  0  0  0  0  0  0
   35.6550   29.6850   39.9680 C   0  0  0  0  0  0  0  0  0  0  0  0
   34.4200   29.1140   39.6650 C   0  0  0  0  0  0  0  0  0  0  0  0
   34.1070   28.8750   38.3700 N   0  0  0  0  0  0  0  0  0  0  0  0
   34.9480   29.1700   37.3790 C   0  0  0  0  0  0  0  0  0  0  0  0
   36.1610   29.7280   37.6500 N   0  0  0  0  0  0  0  0  0  0  0  0
   33.7710   28.8930   40.5060 H   0  0  0  0  0  0  0  0  0  0  0  0
   34.6360   28.9530   36.3640 H   0  0  0  0  0  0  0  0  0  0  0  0
   37.9930   31.9660   38.7930 C   0  0  0  0  0  0  0  0  0  0  0  0
   37.0780   32.7890   39.1310 O   0  0  0  0  0  0  0  0  0  0  0  0
   37.8090   30.5350   38.6430 N   0  0  0  0  0  0  0  0  0  0  0  0
   38.9130   32.5190   38.6400 H   0  0  0  0  0  0  0  0  0  0  0  0
   38.6510   30.0290   38.3510 H   0  0  0  0  0  0  0  0  0  0  0  0
   36.1150   29.9860   41.2200 O   0  0  0  0  0  0  0  0  0  0  0  0
   38.5860   29.0790   41.4750 O   0  0  0  0  0  0  0  0  0  0  0  0
   37.2040   28.9490   42.0580 P   0  0  1  0  0  0  0  0  0  0  0  0
   37.2910   29.3960   43.6800 O   0  0  0  0  0  0  0  0  0  0  0  0
   38.0070   30.0490   43.8470 H   0  0  0  0  0  0  0  0  0  0  0  0
   36.7110   27.3420   41.9330 O   0  0  0  0  0  0  0  0  0  0  0  0
   37.5770   26.6070   41.1180 C   0  0  0  0  0  3  0  0  0  0  0  0
   38.2450   25.4640   41.8020 C   0  0  0  0  0  2  0  0  0  0  0  0
   37.4210   24.2190   41.9210 C   0  0  0  0  0  2  0  0  0  0  0  0
   36.4150   24.0160   40.8330 C   0  0  0  0  0  2  0  0  0  0  0  0
   36.8630   24.7290   39.5900 C   0  0  0  0  0  2  0  0  0  0  0  0
   36.8490   26.2170   39.8500 C   0  0  0  0  0  2  0  0  0  0  0  0
  1  2  1  0  0  0  0
  2 14  1  0  0  0  0
  3  2  2  0  0  0  0
  3  7  1  0  0  0  0
  4  3  1  0  0  0  0
  5  6  1  0  0  0  0
  5  4  2  0  0  0  0
  6  1  2  0  0  0  0
  8  5  1  0  0  0  0
  9 10  2  0  0  0  0
 11  9  1  0  0  0  0
 11  1  1  0  0  0  0
 12  9  1  0  0  0  0
 13 11  1  0  0  0  0
 14 16  1  0  0  0  0
 16 15  2  6  0  0  0
 16 17  1  0  0  0  0
 17 18  1  0  0  0  0
 19 16  1  0  0  0  0
 20 21  1  0  0  0  0
 20 19  1  0  0  0  0
 21 22  1  0  0  0  0
 23 22  1  0  0  0  0
 24 25  1  0  0  0  0
 24 23  1  0  0  0  0
 25 20  1  0  0  0  0
M  END
>  <minimizedAffinity>
-4.82152128

$$$$
