
     RDKit          3D

 32 33  0  0  0  0  0  0  0  0999 V2000
   45.1871   35.2212   44.0471 C   0  0  0  0  0  0  0  0  0  0  0  0
   46.2395   34.5524   43.3723 C   0  0  0  0  0  0  0  0  0  0  0  0
   46.9117   33.5401   44.0609 C   0  0  0  0  0  0  0  0  0  0  0  0
   46.5133   33.2652   45.3261 N   0  0  0  0  0  0  0  0  0  0  0  0
   45.5160   33.9183   45.9287 C   0  0  0  0  0  0  0  0  0  0  0  0
   44.8404   34.8967   45.3117 N   0  0  0  0  0  0  0  0  0  0  0  0
   46.5416   34.9872   42.0121 C   0  0  1  0  0  0  0  0  0  0  0  0
   48.0465   35.2049   41.9471 C   0  0  0  0  0  0  0  0  0  0  0  0
   44.6279   36.0137   43.5694 H   0  0  0  0  0  0  0  0  0  0  0  0
   47.7207   33.0159   43.5756 H   0  0  0  0  0  0  0  0  0  0  0  0
   45.1816   33.7106   46.9468 H   0  0  0  0  0  0  0  0  0  0  0  0
   46.0101   35.9525   41.8493 H   0  0  0  0  0  0  0  0  0  0  0  0
   48.4999   35.3401   42.9514 H   0  0  0  0  0  0  0  0  0  0  0  0
   48.5493   34.4275   41.3480 H   0  0  0  0  0  0  0  0  0  0  0  0
   48.2090   36.1534   41.3940 H   0  0  0  0  0  0  0  0  0  0  0  0
   46.0328   34.0664   40.9227 C   0  0  0  0  0  0  0  0  0  0  0  0
   46.6211   32.6903   41.0329 C   0  0  0  0  0  0  0  0  0  0  0  0
   45.7812   31.6290   40.3715 C   0  0  0  0  0  0  0  0  0  0  0  0
   44.9883   32.2191   39.2190 C   0  0  0  0  0  0  0  0  0  0  0  0
   43.9644   33.1085   39.8447 C   0  0  0  0  0  0  0  0  0  0  0  0
   44.5461   34.0916   40.7807 C   0  0  0  0  0  0  0  0  0  0  0  0
   46.4482   34.4884   39.9805 H   0  0  0  0  0  0  0  0  0  0  0  0
   47.6464   32.5908   40.6256 H   0  0  0  0  0  0  0  0  0  0  0  0
   46.6861   32.4255   42.1065 H   0  0  0  0  0  0  0  0  0  0  0  0
   45.0383   31.2560   41.0881 H   0  0  0  0  0  0  0  0  0  0  0  0
   46.4187   30.8062   40.0163 H   0  0  0  0  0  0  0  0  0  0  0  0
   45.6257   32.7984   38.5320 H   0  0  0  0  0  0  0  0  0  0  0  0
   44.4643   31.3843   38.7140 H   0  0  0  0  0  0  0  0  0  0  0  0
   43.3841   33.6630   39.0486 H   0  0  0  0  0  0  0  0  0  0  0  0
   43.1897   32.4387   40.2926 H   0  0  0  0  0  0  0  0  0  0  0  0
   44.1561   35.0967   40.5528 H   0  0  0  0  0  0  0  0  0  0  0  0
   44.1045   33.8386   41.7921 H   0  0  0  0  0  0  0  0  0  0  0  0
  1  6  2  0
  2  1  1  0
  2  3  2  0
  3  4  1  0
  4  5  2  0
  6  5  1  0
  7  2  1  0
  8  7  1  0
  1  9  1  0
  3 10  1  0
  5 11  1  0
  7 12  1  6
  8 13  1  0
  8 14  1  0
  8 15  1  0
 16 17  1  0
 17 18  1  0
 18 19  1  0
 19 20  1  0
 20 21  1  0
 21 16  1  0
 16 22  1  0
 17 23  1  0
 17 24  1  0
 18 25  1  0
 18 26  1  0
 19 27  1  0
 19 28  1  0
 20 29  1  0
 20 30  1  0
 21 31  1  0
 21 32  1  0
  7 16  1  0
M  ISO  7   9  14  10  14  11  14  12   8  13   8  14   8  15   8
M  END
>  <DihAtoms>  (1) 
1,6,15,16

>  <DihDeg>  (1) 
179.6809176550922

$$$$
