REMARK  Name = 
REMARK  2 active torsions:
REMARK  status: ('A' for Active; 'I' for Inactive)
REMARK    1  A    between atoms: C_3  and  C_7
REMARK    2  A    between atoms: C_7  and  C_13
REMARK                            x       y       z     vdW  Elec       q    Type
REMARK                         _______ _______ _______ _____ _____    ______ ____
ROOT
ATOM      1  C   UNL     1      44.560  36.010  44.496  0.00  0.00    +0.000 A 
ATOM      2  C   UNL     1      45.306  35.923  43.295  0.00  0.00    +0.000 A 
ATOM      3  C   UNL     1      46.194  34.858  43.171  0.00  0.00    +0.000 A 
ATOM      4  N   UNL     1      46.311  33.959  44.188  0.00  0.00    +0.000 NA
ATOM      5  C   UNL     1      45.569  34.086  45.328  0.00  0.00    +0.000 A 
ATOM      6  N   UNL     1      44.702  35.104  45.476  0.00  0.00    +0.000 NA
ATOM      7  H   UNL     1      43.867  36.828  44.610  0.00  0.00    +0.000 HD
ATOM      8  H   UNL     1      45.156  36.670  42.544  0.00  0.00    +0.000 HD
ATOM      9  H   UNL     1      45.661  33.380  46.127  0.00  0.00    +0.000 HD
ENDROOT
BRANCH   3  10
ATOM     10  C   UNL     1      46.960  34.774  41.929  0.00  0.00    +0.000 C 
ATOM     11  H   UNL     1      47.215  33.705  41.770  0.00  0.00    +0.000 HD
ATOM     12  H   UNL     1      46.408  35.111  41.043  0.00  0.00    +0.000 HD
BRANCH  10  13
ATOM     13  C   UNL     1      48.273  35.506  41.981  0.00  0.00    +0.000 C 
ATOM     14  C   UNL     1      48.419  36.601  40.968  0.00  0.00    +0.000 C 
ATOM     15  C   UNL     1      49.917  36.907  40.907  0.00  0.00    +0.000 C 
ATOM     16  C   UNL     1      50.308  37.450  42.255  0.00  0.00    +0.000 C 
ATOM     17  C   UNL     1      50.047  36.430  43.338  0.00  0.00    +0.000 C 
ATOM     18  C   UNL     1      48.547  36.108  43.346  0.00  0.00    +0.000 C 
ENDBRANCH  10  13
ENDBRANCH   3  10
TORSDOF 2
