
     RDKit          3D

 45 47  0  0  0  0  0  0  0  0999 V2000
   41.8957   35.2353   41.5268 C   0  0  0  0  0  0  0  0  0  0  0  0
   40.9640   36.1016   40.7450 C   0  0  0  0  0  0  0  0  0  0  0  0
   41.7644   36.2916   37.8150 Cl  0  0  0  0  0  0  0  0  0  0  0  0
   40.4662   35.3105   38.4045 C   0  0  0  0  0  0  0  0  0  0  0  0
   40.1747   35.2921   39.7864 C   0  0  0  0  0  0  0  0  0  0  0  0
   39.1346   34.4909   40.1649 C   0  0  0  0  0  0  0  0  0  0  0  0
   38.3416   33.7012   39.3476 C   0  0  0  0  0  0  0  0  0  0  0  0
   38.6432   33.7329   37.9963 C   0  0  0  0  0  0  0  0  0  0  0  0
   37.6978   32.7664   36.8665 Cl  0  0  0  0  0  0  0  0  0  0  0  0
   39.6826   34.5225   37.5493 C   0  0  0  0  0  0  0  0  0  0  0  0
   43.5260   35.0726   40.7761 S   0  0  0  0  0  0  0  0  0  0  0  0
   44.8088   34.7168   41.9840 C   0  0  0  0  0  0  0  0  0  0  0  0
   46.1057   34.5514   41.4873 C   0  0  0  0  0  0  0  0  0  0  0  0
   47.1353   34.2735   42.3884 C   0  0  0  0  0  0  0  0  0  0  0  0
   46.8153   34.1792   43.7052 N   0  0  0  0  0  0  0  0  0  0  0  0
   45.5639   34.3407   44.1668 C   0  0  0  0  0  0  0  0  0  0  0  0
   44.5840   34.6066   43.2964 N   0  0  0  0  0  0  0  0  0  0  0  0
   45.3281   34.2199   45.5907 C   0  0  0  0  0  0  0  0  0  0  0  0
   44.5642   35.0692   46.1190 O   0  0  0  0  0  0  0  0  0  0  0  0
   41.9892   35.5638   42.5882 H   0  0  0  0  0  0  0  0  0  0  0  0
   41.4380   34.2044   41.5724 H   0  0  0  0  0  0  0  0  0  0  0  0
   40.2229   36.5178   41.4699 H   0  0  0  0  0  0  0  0  0  0  0  0
   41.4515   36.9623   40.2596 H   0  0  0  0  0  0  0  0  0  0  0  0
   38.8874   34.4582   41.2306 H   0  0  0  0  0  0  0  0  0  0  0  0
   37.5400   33.1012   39.7476 H   0  0  0  0  0  0  0  0  0  0  0  0
   39.9124   34.5410   36.4848 H   0  0  0  0  0  0  0  0  0  0  0  0
   46.2910   34.6398   40.4263 H   0  0  0  0  0  0  0  0  0  0  0  0
   48.1396   34.1433   42.0226 H   0  0  0  0  0  0  0  0  0  0  0  0
   45.9521   33.1388   46.4334 C   0  0  0  0  0  0  0  0  0  0  0  0
   47.4075   33.5014   46.6385 C   0  0  0  0  0  0  0  0  0  0  0  0
   48.0741   32.6187   47.6415 C   0  0  0  0  0  0  0  0  0  0  0  0
   47.3946   32.7194   48.9675 C   0  0  0  0  0  0  0  0  0  0  0  0
   46.1419   33.5587   48.8351 C   0  0  0  0  0  0  0  0  0  0  0  0
   45.2524   32.9576   47.7420 C   0  0  0  0  0  0  0  0  0  0  0  0
   45.9465   32.1967   45.8326 H   0  0  0  0  0  0  0  0  0  0  0  0
   47.5419   34.5821   46.8365 H   0  0  0  0  0  0  0  0  0  0  0  0
   47.9098   33.3139   45.6447 H   0  0  0  0  0  0  0  0  0  0  0  0
   48.1557   31.5953   47.2320 H   0  0  0  0  0  0  0  0  0  0  0  0
   49.1367   32.9797   47.7214 H   0  0  0  0  0  0  0  0  0  0  0  0
   47.1488   31.6972   49.3074 H   0  0  0  0  0  0  0  0  0  0  0  0
   48.0594   33.2575   49.6867 H   0  0  0  0  0  0  0  0  0  0  0  0
   46.3959   34.5822   48.5591 H   0  0  0  0  0  0  0  0  0  0  0  0
   45.6412   33.5771   49.8200 H   0  0  0  0  0  0  0  0  0  0  0  0
   45.2464   31.8560   47.9760 H   0  0  0  0  0  0  0  0  0  0  0  0
   44.2597   33.3973   47.8195 H   0  0  0  0  0  0  0  0  0  0  0  0
  2  1  1  0
  3  4  1  0
  4  5  2  0
  5  6  1  0
  5  2  1  0
  7  6  2  0
  8  7  1  0
  9  8  1  0
 10  8  2  0
 10  4  1  0
 11  1  1  0
 11 12  1  0
 12 17  1  0
 13 12  2  0
 13 14  1  0
 14 15  2  0
 15 16  1  0
 16 18  1  0
 17 16  2  0
 18 19  2  0
  1 20  1  0
  1 21  1  0
  2 22  1  0
  2 23  1  0
  6 24  1  0
  7 25  1  0
 10 26  1  0
 13 27  1  0
 14 28  1  0
 29 30  1  0
 30 31  1  0
 31 32  1  0
 32 33  1  0
 33 34  1  0
 34 29  1  0
 29 35  1  0
 30 36  1  0
 30 37  1  0
 31 38  1  0
 31 39  1  0
 32 40  1  0
 32 41  1  0
 33 42  1  0
 33 43  1  0
 34 44  1  0
 34 45  1  0
 18 29  1  0
M  ISO  8  20   8  21   8  22   8  23   8  24  14  25  14  26  14  27  14
M  ISO  1  28  14
M  END
>  <DihAtoms>  (1) 
15,17,28,29

>  <DihDeg>  (1) 
-179.99765208854572

$$$$
