
 OpenBabel03242519403D

 24 25  0  0  0  0  0  0  0  0999 V2000
   37.7000   28.9460   38.1840 O   0  0  0  0  0  0  0  0  0  0  0  0
   36.6720   29.9690   38.6750 P   0  0  2  0  0  0  0  0  0  0  0  0
   37.1820   31.5240   38.1530 O   0  0  0  0  0  0  0  0  0  0  0  0
   38.4760   34.0980   40.4070 C   0  0  0  0  0  0  0  0  0  0  0  0
   37.5590   33.3690   39.6100 C   0  0  0  0  0  0  0  0  0  0  0  0
   38.0650   32.2570   38.9420 C   0  0  0  0  0  0  0  0  0  0  0  0
   39.3780   31.9240   39.0780 N   0  0  0  0  0  0  0  0  0  0  0  0
   40.2080   32.6530   39.8500 C   0  0  0  0  0  0  0  0  0  0  0  0
   39.7810   33.7280   40.5120 N   0  0  0  0  0  0  0  0  0  0  0  0
   38.1060   34.9680   40.9360 H   0  0  0  0  0  0  0  0  0  0  0  0
   36.5310   33.6880   39.5470 H   0  0  0  0  0  0  0  0  0  0  0  0
   41.2360   32.3090   39.8940 H   0  0  0  0  0  0  0  0  0  0  0  0
   36.5230   29.9510   40.3300 O   0  0  0  0  0  0  0  0  0  0  0  0
   37.3010   28.9630   40.9060 C   0  0  0  0  0  3  0  0  0  0  0  0
   38.4280   29.5220   41.7230 C   0  0  0  0  0  2  0  0  0  0  0  0
   38.2450   29.2830   43.2070 C   0  0  0  0  0  2  0  0  0  0  0  0
   38.2050   27.7830   43.4190 C   0  0  0  0  0  2  0  0  0  0  0  0
   37.1920   27.1090   42.5310 C   0  0  0  0  0  2  0  0  0  0  0  0
   36.4010   28.1570   41.8180 C   0  0  0  0  0  2  0  0  0  0  0  0
   35.2200   29.6170   37.9040 O   0  0  0  0  0  0  0  0  0  0  0  0
   34.5000   28.6370   38.5470 C   0  0  0  0  0  0  0  0  0  0  0  0
   35.2420   27.4920   38.8000 F   0  0  0  0  0  0  0  0  0  0  0  0
   33.9180   29.1440   39.6820 F   0  0  0  0  0  0  0  0  0  0  0  0
   33.4920   28.2570   37.6770 F   0  0  0  0  0  0  0  0  0  0  0  0
  2  1  2  6  0  0  0
  2 13  1  0  0  0  0
  3  2  1  0  0  0  0
  3  6  1  0  0  0  0
  4  9  1  0  0  0  0
  4 10  1  0  0  0  0
  5  4  2  0  0  0  0
  6  7  2  0  0  0  0
  6  5  1  0  0  0  0
  7  8  1  0  0  0  0
  8 12  1  0  0  0  0
  8  9  2  0  0  0  0
 11  5  1  0  0  0  0
 13 14  1  0  0  0  0
 14 15  1  0  0  0  0
 14 19  1  0  0  0  0
 15 16  1  0  0  0  0
 16 17  1  0  0  0  0
 18 17  1  0  0  0  0
 19 18  1  0  0  0  0
 20 21  1  0  0  0  0
 20  2  1  0  0  0  0
 21 22  1  0  0  0  0
 21 23  1  0  0  0  0
 24 21  1  0  0  0  0
M  END
>  <minimizedAffinity>
-4.88832664

$$$$

 OpenBabel03242519403D

 24 25  0  0  0  0  0  0  0  0999 V2000
   37.8780   29.6130   39.6820 O   0  0  0  0  0  0  0  0  0  0  0  0
   37.1980   30.1910   40.9260 P   0  0  2  0  0  0  0  0  0  0  0  0
   37.7250   31.8160   41.1080 O   0  0  0  0  0  0  0  0  0  0  0  0
   40.7060   33.3300   39.6250 C   0  0  0  0  0  0  0  0  0  0  0  0
   39.3410   33.0230   39.8410 C   0  0  0  0  0  0  0  0  0  0  0  0
   39.0600   32.1340   40.8760 C   0  0  0  0  0  0  0  0  0  0  0  0
   40.0780   31.6140   41.6170 N   0  0  0  0  0  0  0  0  0  0  0  0
   41.3610   31.9410   41.3680 C   0  0  0  0  0  0  0  0  0  0  0  0
   41.6890   32.7850   40.3900 N   0  0  0  0  0  0  0  0  0  0  0  0
   40.9490   34.0200   38.8250 H   0  0  0  0  0  0  0  0  0  0  0  0
   38.5840   33.4720   39.2170 H   0  0  0  0  0  0  0  0  0  0  0  0
   42.1000   31.4750   42.0110 H   0  0  0  0  0  0  0  0  0  0  0  0
   37.5680   29.3220   42.2930 O   0  0  0  0  0  0  0  0  0  0  0  0
   38.2340   28.1480   41.9920 C   0  0  0  0  0  3  0  0  0  0  0  0
   39.6200   28.1100   42.5630 C   0  0  0  0  0  2  0  0  0  0  0  0
   39.7630   27.0970   43.6790 C   0  0  0  0  0  2  0  0  0  0  0  0
   39.4550   25.7350   43.0920 C   0  0  0  0  0  2  0  0  0  0  0  0
   38.1340   25.7110   42.3680 C   0  0  0  0  0  2  0  0  0  0  0  0
   37.4350   27.0120   42.5960 C   0  0  0  0  0  2  0  0  0  0  0  0
   35.5460   30.2160   40.6180 O   0  0  0  0  0  0  0  0  0  0  0  0
   35.1600   29.2620   39.7060 C   0  0  0  0  0  0  0  0  0  0  0  0
   35.4750   29.5990   38.3970 F   0  0  0  0  0  0  0  0  0  0  0  0
   35.6600   28.0340   40.0640 F   0  0  0  0  0  0  0  0  0  0  0  0
   33.7780   29.2000   39.7650 F   0  0  0  0  0  0  0  0  0  0  0  0
  2  1  2  6  0  0  0
  2  3  1  0  0  0  0
  2 13  1  0  0  0  0
  4  5  2  0  0  0  0
  4  9  1  0  0  0  0
  5  6  1  0  0  0  0
  6  3  1  0  0  0  0
  6  7  2  0  0  0  0
  8  7  1  0  0  0  0
  8 12  1  0  0  0  0
  9  8  2  0  0  0  0
 10  4  1  0  0  0  0
 11  5  1  0  0  0  0
 14 13  1  0  0  0  0
 14 15  1  0  0  0  0
 14 19  1  0  0  0  0
 15 16  1  0  0  0  0
 17 16  1  0  0  0  0
 18 19  1  0  0  0  0
 18 17  1  0  0  0  0
 20  2  1  0  0  0  0
 21 24  1  0  0  0  0
 21 23  1  0  0  0  0
 21 20  1  0  0  0  0
 22 21  1  0  0  0  0
M  END
>  <minimizedAffinity>
-4.71401405

$$$$

 OpenBabel03242519403D

 24 25  0  0  0  0  0  0  0  0999 V2000
   39.9910   29.1370   40.0040 O   0  0  0  0  0  0  0  0  0  0  0  0
   39.0040   29.3180   41.1600 P   0  0  2  0  0  0  0  0  0  0  0  0
   39.4350   30.7520   42.0030 O   0  0  0  0  0  0  0  0  0  0  0  0
   39.2200   33.9050   40.1610 C   0  0  0  0  0  0  0  0  0  0  0  0
   38.8090   32.7630   40.8910 C   0  0  0  0  0  0  0  0  0  0  0  0
   39.8140   31.8820   41.2830 C   0  0  0  0  0  0  0  0  0  0  0  0
   41.1100   32.1460   40.9600 N   0  0  0  0  0  0  0  0  0  0  0  0
   41.4460   33.2490   40.2620 C   0  0  0  0  0  0  0  0  0  0  0  0
   40.5270   34.1270   39.8600 N   0  0  0  0  0  0  0  0  0  0  0  0
   38.4550   34.6050   39.8450 H   0  0  0  0  0  0  0  0  0  0  0  0
   37.7640   32.6150   41.1140 H   0  0  0  0  0  0  0  0  0  0  0  0
   42.5030   33.3710   40.0520 H   0  0  0  0  0  0  0  0  0  0  0  0
   39.0270   28.0240   42.2020 O   0  0  0  0  0  0  0  0  0  0  0  0
   38.6150   26.8580   41.5830 C   0  0  0  0  0  3  0  0  0  0  0  0
   39.6810   25.8030   41.5730 C   0  0  0  0  0  2  0  0  0  0  0  0
   39.3490   24.6310   42.4720 C   0  0  0  0  0  2  0  0  0  0  0  0
   38.0670   24.0130   41.9500 C   0  0  0  0  0  2  0  0  0  0  0  0
   36.9680   25.0310   41.7900 C   0  0  0  0  0  2  0  0  0  0  0  0
   37.4280   26.3330   42.3630 C   0  0  0  0  0  2  0  0  0  0  0  0
   37.4860   29.5570   40.4800 O   0  0  0  0  0  0  0  0  0  0  0  0
   36.5210   29.8410   41.4180 C   0  0  0  0  0  0  0  0  0  0  0  0
   36.9680   29.6900   42.7230 F   0  0  0  0  0  0  0  0  0  0  0  0
   35.9870   31.0840   41.1880 F   0  0  0  0  0  0  0  0  0  0  0  0
   35.5180   28.9010   41.2440 F   0  0  0  0  0  0  0  0  0  0  0  0
  2  1  2  6  0  0  0
  2  3  1  0  0  0  0
  2 13  1  0  0  0  0
  4  5  1  0  0  0  0
  5 11  1  0  0  0  0
  5  6  2  0  0  0  0
  6  3  1  0  0  0  0
  7  6  1  0  0  0  0
  8  7  2  0  0  0  0
  9  4  2  0  0  0  0
  9  8  1  0  0  0  0
 10  4  1  0  0  0  0
 12  8  1  0  0  0  0
 14 13  1  0  0  0  0
 14 19  1  0  0  0  0
 15 14  1  0  0  0  0
 15 16  1  0  0  0  0
 17 16  1  0  0  0  0
 18 17  1  0  0  0  0
 18 19  1  0  0  0  0
 20  2  1  0  0  0  0
 20 21  1  0  0  0  0
 21 22  1  0  0  0  0
 23 21  1  0  0  0  0
 24 21  1  0  0  0  0
M  END
>  <minimizedAffinity>
-4.68460369

$$$$

 OpenBabel03242519403D

 24 25  0  0  0  0  0  0  0  0999 V2000
   39.5860   28.9560   40.6490 O   0  0  0  0  0  0  0  0  0  0  0  0
   38.8380   29.8190   41.6690 P   0  0  2  0  0  0  0  0  0  0  0  0
   38.6300   28.8880   43.0980 O   0  0  0  0  0  0  0  0  0  0  0  0
   40.2040   25.6290   43.6260 C   0  0  0  0  0  0  0  0  0  0  0  0
   40.0000   27.0300   43.6800 C   0  0  0  0  0  0  0  0  0  0  0  0
   38.8510   27.5140   43.0590 C   0  0  0  0  0  0  0  0  0  0  0  0
   37.9970   26.6500   42.4460 N   0  0  0  0  0  0  0  0  0  0  0  0
   38.2390   25.3240   42.4250 C   0  0  0  0  0  0  0  0  0  0  0  0
   39.3220   24.8040   43.0020 N   0  0  0  0  0  0  0  0  0  0  0  0
   41.0910   25.2280   44.1030 H   0  0  0  0  0  0  0  0  0  0  0  0
   40.7180   27.6580   44.1830 H   0  0  0  0  0  0  0  0  0  0  0  0
   37.5000   24.7180   41.9120 H   0  0  0  0  0  0  0  0  0  0  0  0
   37.3580   30.3100   41.0950 O   0  0  0  0  0  0  0  0  0  0  0  0
   36.9180   29.5130   40.0550 C   0  0  0  0  0  3  0  0  0  0  0  0
   35.7150   28.6980   40.4230 C   0  0  0  0  0  2  0  0  0  0  0  0
   34.4640   29.1460   39.6960 C   0  0  0  0  0  2  0  0  0  0  0  0
   34.7190   28.9710   38.2120 C   0  0  0  0  0  2  0  0  0  0  0  0
   35.9930   29.6420   37.7700 C   0  0  0  0  0  2  0  0  0  0  0  0
   36.5440   30.4330   38.9120 C   0  0  0  0  0  2  0  0  0  0  0  0
   39.8360   31.1190   42.0420 O   0  0  0  0  0  0  0  0  0  0  0  0
   39.7830   32.1180   41.0980 C   0  0  0  0  0  0  0  0  0  0  0  0
   39.7450   31.6380   39.7960 F   0  0  0  0  0  0  0  0  0  0  0  0
   38.7440   32.9730   41.3710 F   0  0  0  0  0  0  0  0  0  0  0  0
   40.9680   32.8280   41.2120 F   0  0  0  0  0  0  0  0  0  0  0  0
  2  1  2  6  0  0  0
  2 20  1  0  0  0  0
  2  3  1  0  0  0  0
  4  5  1  0  0  0  0
  4 10  1  0  0  0  0
  5 11  1  0  0  0  0
  6  3  1  0  0  0  0
  6  5  2  0  0  0  0
  7  6  1  0  0  0  0
  8  7  2  0  0  0  0
  8  9  1  0  0  0  0
  9  4  2  0  0  0  0
 12  8  1  0  0  0  0
 13  2  1  0  0  0  0
 14 15  1  0  0  0  0
 14 13  1  0  0  0  0
 16 15  1  0  0  0  0
 17 16  1  0  0  0  0
 18 17  1  0  0  0  0
 18 19  1  0  0  0  0
 19 14  1  0  0  0  0
 21 24  1  0  0  0  0
 21 23  1  0  0  0  0
 21 20  1  0  0  0  0
 22 21  1  0  0  0  0
M  END
>  <minimizedAffinity>
-4.67179346

$$$$

 OpenBabel03242519403D

 24 25  0  0  0  0  0  0  0  0999 V2000
   38.1400   29.9090   39.5660 O   0  0  0  0  0  0  0  0  0  0  0  0
   36.6730   30.3150   39.7340 P   0  0  2  0  0  0  0  0  0  0  0  0
   36.0400   29.4610   41.0830 O   0  0  0  0  0  0  0  0  0  0  0  0
   37.6840   26.3720   42.1500 C   0  0  0  0  0  0  0  0  0  0  0  0
   36.8390   27.2430   41.4180 C   0  0  0  0  0  0  0  0  0  0  0  0
   36.8620   28.5850   41.7880 C   0  0  0  0  0  0  0  0  0  0  0  0
   37.6700   28.9950   42.8040 N   0  0  0  0  0  0  0  0  0  0  0  0
   38.4550   28.1230   43.4670 C   0  0  0  0  0  0  0  0  0  0  0  0
   38.4750   26.8270   43.1580 N   0  0  0  0  0  0  0  0  0  0  0  0
   37.6840   25.3220   41.8800 H   0  0  0  0  0  0  0  0  0  0  0  0
   36.2240   26.8510   40.6230 H   0  0  0  0  0  0  0  0  0  0  0  0
   39.0630   28.5450   44.2610 H   0  0  0  0  0  0  0  0  0  0  0  0
   35.7770   29.9710   38.3780 O   0  0  0  0  0  0  0  0  0  0  0  0
   35.1250   28.7570   38.4860 C   0  0  0  0  0  3  0  0  0  0  0  0
   33.7340   28.7980   37.9260 C   0  0  0  0  0  2  0  0  0  0  0  0
   33.5920   27.9810   36.6590 C   0  0  0  0  0  2  0  0  0  0  0  0
   33.9170   26.5430   37.0130 C   0  0  0  0  0  2  0  0  0  0  0  0
   35.2440   26.4150   37.7150 C   0  0  0  0  0  2  0  0  0  0  0  0
   35.9290   27.7440   37.7000 C   0  0  0  0  0  2  0  0  0  0  0  0
   36.6540   31.9540   40.1070 O   0  0  0  0  0  0  0  0  0  0  0  0
   37.3940   32.7090   39.2270 C   0  0  0  0  0  0  0  0  0  0  0  0
   38.7370   32.7840   39.5680 F   0  0  0  0  0  0  0  0  0  0  0  0
   37.2050   32.2600   37.9430 F   0  0  0  0  0  0  0  0  0  0  0  0
   36.9030   34.0010   39.3100 F   0  0  0  0  0  0  0  0  0  0  0  0
  2  1  2  6  0  0  0
  2 20  1  0  0  0  0
  2  3  1  0  0  0  0
  3  6  1  0  0  0  0
  4  9  1  0  0  0  0
  5  6  1  0  0  0  0
  5  4  2  0  0  0  0
  6  7  2  0  0  0  0
  7  8  1  0  0  0  0
  8 12  1  0  0  0  0
  9  8  2  0  0  0  0
 10  4  1  0  0  0  0
 11  5  1  0  0  0  0
 13 14  1  0  0  0  0
 13  2  1  0  0  0  0
 15 14  1  0  0  0  0
 16 17  1  0  0  0  0
 16 15  1  0  0  0  0
 17 18  1  0  0  0  0
 19 18  1  0  0  0  0
 19 14  1  0  0  0  0
 21 24  1  0  0  0  0
 21 22  1  0  0  0  0
 21 20  1  0  0  0  0
 23 21  1  0  0  0  0
M  END
>  <minimizedAffinity>
-4.64980698

$$$$

 OpenBabel03242519403D

 24 25  0  0  0  0  0  0  0  0999 V2000
   38.9820   29.8960   40.0780 O   0  0  0  0  0  0  0  0  0  0  0  0
   37.8230   30.7220   40.6460 P   0  0  2  0  0  0  0  0  0  0  0  0
   37.3700   30.0290   42.1510 O   0  0  0  0  0  0  0  0  0  0  0  0
   37.2590   26.3740   42.2510 C   0  0  0  0  0  0  0  0  0  0  0  0
   36.8830   27.7060   41.9530 C   0  0  0  0  0  0  0  0  0  0  0  0
   37.7200   28.7100   42.4320 C   0  0  0  0  0  0  0  0  0  0  0  0
   38.8320   28.3820   43.1460 N   0  0  0  0  0  0  0  0  0  0  0  0
   39.1440   27.0960   43.4010 C   0  0  0  0  0  0  0  0  0  0  0  0
   38.3810   26.0940   42.9690 N   0  0  0  0  0  0  0  0  0  0  0  0
   36.6230   25.5740   41.8890 H   0  0  0  0  0  0  0  0  0  0  0  0
   35.9870   27.8960   41.3820 H   0  0  0  0  0  0  0  0  0  0  0  0
   40.0490   26.9360   43.9770 H   0  0  0  0  0  0  0  0  0  0  0  0
   36.5180   30.7430   39.6190 O   0  0  0  0  0  0  0  0  0  0  0  0
   36.5760   29.7200   38.6910 C   0  0  0  0  0  3  0  0  0  0  0  0
   35.3340   28.8800   38.6800 C   0  0  0  0  0  2  0  0  0  0  0  0
   34.5230   29.0560   37.4140 C   0  0  0  0  0  2  0  0  0  0  0  0
   35.3980   28.6210   36.2550 C   0  0  0  0  0  2  0  0  0  0  0  0
   36.7370   29.3130   36.2620 C   0  0  0  0  0  2  0  0  0  0  0  0
   36.7340   30.3600   37.3280 C   0  0  0  0  0  2  0  0  0  0  0  0
   38.4180   32.2650   40.9470 O   0  0  0  0  0  0  0  0  0  0  0  0
   38.3530   33.0840   39.8450 C   0  0  0  0  0  0  0  0  0  0  0  0
   38.8450   32.4890   38.6920 F   0  0  0  0  0  0  0  0  0  0  0  0
   37.0750   33.5600   39.6830 F   0  0  0  0  0  0  0  0  0  0  0  0
   39.1850   34.1600   40.1070 F   0  0  0  0  0  0  0  0  0  0  0  0
  2  1  2  6  0  0  0
  2 20  1  0  0  0  0
  2  3  1  0  0  0  0
  3  6  1  0  0  0  0
  4  9  1  0  0  0  0
  5  4  2  0  0  0  0
  5  6  1  0  0  0  0
  6  7  2  0  0  0  0
  7  8  1  0  0  0  0
  8 12  1  0  0  0  0
  9  8  2  0  0  0  0
 10  4  1  0  0  0  0
 11  5  1  0  0  0  0
 13  2  1  0  0  0  0
 14 13  1  0  0  0  0
 15 14  1  0  0  0  0
 16 15  1  0  0  0  0
 17 18  1  0  0  0  0
 17 16  1  0  0  0  0
 18 19  1  0  0  0  0
 19 14  1  0  0  0  0
 21 24  1  0  0  0  0
 21 20  1  0  0  0  0
 22 21  1  0  0  0  0
 23 21  1  0  0  0  0
M  END
>  <minimizedAffinity>
-4.62193775

$$$$

 OpenBabel03242519403D

 24 25  0  0  0  0  0  0  0  0999 V2000
   38.2160   29.5250   37.1640 O   0  0  0  0  0  0  0  0  0  0  0  0
   38.5580   29.6210   38.6540 P   0  0  2  0  0  0  0  0  0  0  0  0
   40.2300   29.2740   38.8350 O   0  0  0  0  0  0  0  0  0  0  0  0
   42.3340   31.5130   36.8500 C   0  0  0  0  0  0  0  0  0  0  0  0
   41.4160   31.0840   37.8380 C   0  0  0  0  0  0  0  0  0  0  0  0
   41.1310   29.7210   37.8710 C   0  0  0  0  0  0  0  0  0  0  0  0
   41.7300   28.8820   36.9810 N   0  0  0  0  0  0  0  0  0  0  0  0
   42.5980   29.3450   36.0600 C   0  0  0  0  0  0  0  0  0  0  0  0
   42.9080   30.6380   35.9800 N   0  0  0  0  0  0  0  0  0  0  0  0
   42.5720   32.5700   36.8040 H   0  0  0  0  0  0  0  0  0  0  0  0
   40.9780   31.8030   38.5130 H   0  0  0  0  0  0  0  0  0  0  0  0
   43.0220   28.5990   35.3960 H   0  0  0  0  0  0  0  0  0  0  0  0
   37.6600   28.5590   39.5630 O   0  0  0  0  0  0  0  0  0  0  0  0
   37.4550   29.0270   40.8480 C   0  0  0  0  0  3  0  0  0  0  0  0
   36.2530   28.4110   41.5000 C   0  0  0  0  0  2  0  0  0  0  0  0
   36.6190   27.4800   42.6360 C   0  0  0  0  0  2  0  0  0  0  0  0
   37.3510   28.3050   43.6760 C   0  0  0  0  0  2  0  0  0  0  0  0
   38.5000   29.0790   43.0840 C   0  0  0  0  0  2  0  0  0  0  0  0
   38.6800   28.6620   41.6600 C   0  0  0  0  0  2  0  0  0  0  0  0
   38.3090   31.2180   39.1150 O   0  0  0  0  0  0  0  0  0  0  0  0
   37.2440   31.7990   38.4670 C   0  0  0  0  0  0  0  0  0  0  0  0
   36.7420   32.9100   39.1300 F   0  0  0  0  0  0  0  0  0  0  0  0
   37.5760   32.0740   37.1630 F   0  0  0  0  0  0  0  0  0  0  0  0
   36.2270   30.8590   38.4660 F   0  0  0  0  0  0  0  0  0  0  0  0
  2  1  2  6  0  0  0
  2  3  1  0  0  0  0
  2 20  1  0  0  0  0
  2 13  1  0  0  0  0
  4  5  1  0  0  0  0
  5  6  2  0  0  0  0
  5 11  1  0  0  0  0
  6  3  1  0  0  0  0
  7  6  1  0  0  0  0
  8  7  2  0  0  0  0
  9  8  1  0  0  0  0
  9  4  2  0  0  0  0
 10  4  1  0  0  0  0
 12  8  1  0  0  0  0
 13 14  1  0  0  0  0
 14 15  1  0  0  0  0
 14 19  1  0  0  0  0
 15 16  1  0  0  0  0
 16 17  1  0  0  0  0
 18 17  1  0  0  0  0
 19 18  1  0  0  0  0
 21 20  1  0  0  0  0
 21 22  1  0  0  0  0
 23 21  1  0  0  0  0
 24 21  1  0  0  0  0
M  END
>  <minimizedAffinity>
-4.57522631

$$$$

 OpenBabel03242519403D

 24 25  0  0  0  0  0  0  0  0999 V2000
   36.4500   30.5180   41.4060 O   0  0  0  0  0  0  0  0  0  0  0  0
   37.2190   29.3120   40.8580 P   0  0  2  0  0  0  0  0  0  0  0  0
   37.3360   29.4910   39.1540 O   0  0  0  0  0  0  0  0  0  0  0  0
   39.7650   31.9230   37.9030 C   0  0  0  0  0  0  0  0  0  0  0  0
   38.5750   31.4070   38.4720 C   0  0  0  0  0  0  0  0  0  0  0  0
   38.4970   30.0220   38.5970 C   0  0  0  0  0  0  0  0  0  0  0  0
   39.5340   29.2440   38.1830 N   0  0  0  0  0  0  0  0  0  0  0  0
   40.6450   29.7890   37.6490 C   0  0  0  0  0  0  0  0  0  0  0  0
   40.7760   31.1070   37.5030 N   0  0  0  0  0  0  0  0  0  0  0  0
   39.8490   32.9990   37.7950 H   0  0  0  0  0  0  0  0  0  0  0  0
   37.7900   32.0810   38.7790 H   0  0  0  0  0  0  0  0  0  0  0  0
   41.4170   29.0880   37.3490 H   0  0  0  0  0  0  0  0  0  0  0  0
   36.4630   27.8790   41.2250 O   0  0  0  0  0  0  0  0  0  0  0  0
   37.2830   26.7900   40.9930 C   0  0  0  0  0  3  0  0  0  0  0  0
   37.4680   25.9380   42.2140 C   0  0  0  0  0  2  0  0  0  0  0  0
   36.7950   24.5870   42.0880 C   0  0  0  0  0  2  0  0  0  0  0  0
   37.4340   23.8750   40.9120 C   0  0  0  0  0  2  0  0  0  0  0  0
   37.4240   24.7160   39.6620 C   0  0  0  0  0  2  0  0  0  0  0  0
   36.6240   25.9520   39.9180 C   0  0  0  0  0  2  0  0  0  0  0  0
   38.7740   29.3890   41.4920 O   0  0  0  0  0  0  0  0  0  0  0  0
   38.7880   29.3980   42.8670 C   0  0  0  0  0  0  0  0  0  0  0  0
   37.5290   29.2290   43.4270 F   0  0  0  0  0  0  0  0  0  0  0  0
   39.6970   28.4830   43.3380 F   0  0  0  0  0  0  0  0  0  0  0  0
   39.2110   30.6620   43.2460 F   0  0  0  0  0  0  0  0  0  0  0  0
  2 13  1  0  0  0  0
  2  1  2  1  0  0  0
  2 20  1  0  0  0  0
  3  2  1  0  0  0  0
  4  5  1  0  0  0  0
  5  6  2  0  0  0  0
  5 11  1  0  0  0  0
  6  3  1  0  0  0  0
  7  6  1  0  0  0  0
  8  7  2  0  0  0  0
  9  8  1  0  0  0  0
  9  4  2  0  0  0  0
 10  4  1  0  0  0  0
 12  8  1  0  0  0  0
 14 13  1  0  0  0  0
 14 15  1  0  0  0  0
 16 15  1  0  0  0  0
 17 16  1  0  0  0  0
 18 19  1  0  0  0  0
 18 17  1  0  0  0  0
 19 14  1  0  0  0  0
 20 21  1  0  0  0  0
 21 24  1  0  0  0  0
 21 23  1  0  0  0  0
 21 22  1  0  0  0  0
M  END
>  <minimizedAffinity>
-4.52701569

$$$$

 OpenBabel03242519403D

 24 25  0  0  0  0  0  0  0  0999 V2000
   38.7290   29.9410   38.5000 O   0  0  0  0  0  0  0  0  0  0  0  0
   39.1790   31.0390   39.4690 P   0  0  2  0  0  0  0  0  0  0  0  0
   40.8730   31.2500   39.2780 O   0  0  0  0  0  0  0  0  0  0  0  0
   42.9010   32.2690   42.1460 C   0  0  0  0  0  0  0  0  0  0  0  0
   42.2000   31.4290   41.2480 C   0  0  0  0  0  0  0  0  0  0  0  0
   41.5680   32.0560   40.1760 C   0  0  0  0  0  0  0  0  0  0  0  0
   41.6480   33.4080   40.0400 N   0  0  0  0  0  0  0  0  0  0  0  0
   42.3290   34.1610   40.9260 C   0  0  0  0  0  0  0  0  0  0  0  0
   42.9530   33.6170   41.9700 N   0  0  0  0  0  0  0  0  0  0  0  0
   43.4010   31.8050   42.9890 H   0  0  0  0  0  0  0  0  0  0  0  0
   42.1780   30.3630   41.4150 H   0  0  0  0  0  0  0  0  0  0  0  0
   42.3340   35.2280   40.7320 H   0  0  0  0  0  0  0  0  0  0  0  0
   38.8330   30.6500   41.0470 O   0  0  0  0  0  0  0  0  0  0  0  0
   38.4090   29.3400   41.1730 C   0  0  0  0  0  3  0  0  0  0  0  0
   39.3810   28.4930   41.9400 C   0  0  0  0  0  2  0  0  0  0  0  0
   38.8460   28.0730   43.2930 C   0  0  0  0  0  2  0  0  0  0  0  0
   37.5940   27.2540   43.0470 C   0  0  0  0  0  2  0  0  0  0  0  0
   36.6090   27.9710   42.1610 C   0  0  0  0  0  2  0  0  0  0  0  0
   37.0950   29.3640   41.9260 C   0  0  0  0  0  2  0  0  0  0  0  0
   38.4240   32.4610   38.9860 O   0  0  0  0  0  0  0  0  0  0  0  0
   37.6710   33.0300   39.9860 C   0  0  0  0  0  0  0  0  0  0  0  0
   36.6500   32.2050   40.4370 F   0  0  0  0  0  0  0  0  0  0  0  0
   38.4840   33.4600   41.0050 F   0  0  0  0  0  0  0  0  0  0  0  0
   37.0530   34.1370   39.4290 F   0  0  0  0  0  0  0  0  0  0  0  0
  2  1  2  6  0  0  0
  2 13  1  0  0  0  0
  3  2  1  0  0  0  0
  3  6  1  0  0  0  0
  4 10  1  0  0  0  0
  5 11  1  0  0  0  0
  5  4  2  0  0  0  0
  6  5  1  0  0  0  0
  7  6  2  0  0  0  0
  7  8  1  0  0  0  0
  8  9  2  0  0  0  0
  9  4  1  0  0  0  0
 12  8  1  0  0  0  0
 13 14  1  0  0  0  0
 14 19  1  0  0  0  0
 14 15  1  0  0  0  0
 15 16  1  0  0  0  0
 17 16  1  0  0  0  0
 18 17  1  0  0  0  0
 19 18  1  0  0  0  0
 20  2  1  0  0  0  0
 20 21  1  0  0  0  0
 21 22  1  0  0  0  0
 21 23  1  0  0  0  0
 24 21  1  0  0  0  0
M  END
>  <minimizedAffinity>
-4.48558474

$$$$
