REMARK  Name = 
REMARK  3 active torsions:
REMARK  status: ('A' for Active; 'I' for Inactive)
REMARK    1  A    between atoms: C_3  and  C_7
REMARK    2  A    between atoms: C_7  and  C_8
REMARK    3  A    between atoms: C_8  and  C_16
REMARK                            x       y       z     vdW  Elec       q    Type
REMARK                         _______ _______ _______ _____ _____    ______ ____
ROOT
ATOM      1  C   UNL     1      46.783  34.776  41.718  0.00  0.00    +0.000 C 
ATOM      2  H   UNL     1      46.762  33.696  41.454  0.00  0.00    +0.000 HD
ATOM      3  H   UNL     1      46.204  35.320  40.968  0.00  0.00    +0.000 HD
ENDROOT
BRANCH   1   6
ATOM      4  C   UNL     1      44.558  36.042  44.478  0.00  0.00    +0.000 A 
ATOM      5  C   UNL     1      45.224  35.935  43.249  0.00  0.00    +0.000 A 
ATOM      6  C   UNL     1      46.087  34.873  43.026  0.00  0.00    +0.000 A 
ATOM      7  N   UNL     1      46.237  33.978  44.041  0.00  0.00    +0.000 NA
ATOM      8  C   UNL     1      45.588  34.101  45.212  0.00  0.00    +0.000 A 
ATOM      9  N   UNL     1      44.758  35.111  45.443  0.00  0.00    +0.000 NA
ATOM     10  H   UNL     1      43.914  36.910  44.533  0.00  0.00    +0.000 HD
ATOM     11  H   UNL     1      45.097  36.652  42.451  0.00  0.00    +0.000 HD
ATOM     12  H   UNL     1      45.737  33.356  46.007  0.00  0.00    +0.000 HD
ENDBRANCH   1   6
BRANCH   1  13
ATOM     13  C   UNL     1      48.183  35.307  41.875  0.00  0.00    +0.000 C 
ATOM     14  H   UNL     1      48.108  36.352  42.220  0.00  0.00    +0.000 HD
ATOM     15  H   UNL     1      48.671  34.740  42.694  0.00  0.00    +0.000 HD
BRANCH  13  16
ATOM     16  C   UNL     1      49.004  35.267  40.617  0.00  0.00    +0.000 C 
ATOM     17  C   UNL     1      48.305  34.363  39.642  0.00  0.00    +0.000 C 
ATOM     18  C   UNL     1      48.337  34.885  38.229  0.00  0.00    +0.000 C 
ATOM     19  C   UNL     1      49.771  35.354  37.985  0.00  0.00    +0.000 C 
ATOM     20  C   UNL     1      49.950  36.624  38.765  0.00  0.00    +0.000 C 
ATOM     21  C   UNL     1      49.253  36.657  40.078  0.00  0.00    +0.000 C 
ENDBRANCH  13  16
ENDBRANCH   1  13
TORSDOF 3
