REMARK  Name = 
REMARK  4 active torsions:
REMARK  status: ('A' for Active; 'I' for Inactive)
REMARK    1  A    between atoms: C_2  and  C_7
REMARK    2  A    between atoms: C_5  and  O_11
REMARK    3  A    between atoms: O_11  and  C_12
REMARK    4  A    between atoms: C_12  and  C_17
REMARK                            x       y       z     vdW  Elec       q    Type
REMARK                         _______ _______ _______ _____ _____    ______ ____
ROOT
ATOM      1  C   UNL     1      44.719  35.393  45.021  0.00  0.00    +0.000 A 
ATOM      2  C   UNL     1      45.591  34.914  44.043  0.00  0.00    +0.000 A 
ATOM      3  C   UNL     1      46.344  33.765  44.328  0.00  0.00    +0.000 A 
ATOM      4  N   UNL     1      46.191  33.183  45.528  0.00  0.00    +0.000 NA
ATOM      5  C   UNL     1      45.337  33.676  46.452  0.00  0.00    +0.000 A 
ATOM      6  N   UNL     1      44.600  34.767  46.220  0.00  0.00    +0.000 NA
ATOM      7  H   UNL     1      44.128  36.279  44.817  0.00  0.00    +0.000 HD
ATOM      8  H   UNL     1      46.986  33.457  43.540  0.00  0.00    +0.000 HD
ENDROOT
BRANCH   2   9
ATOM      9  C   UNL     1      45.662  35.687  42.764  0.00  0.00    +0.000 C 
ATOM     10  F   UNL     1      45.239  36.967  43.078  0.00  0.00    +0.000 F 
ATOM     11  F   UNL     1      44.816  35.078  41.875  0.00  0.00    +0.000 F 
ATOM     12  F   UNL     1      46.979  35.667  42.327  0.00  0.00    +0.000 F 
ENDBRANCH   2   9
BRANCH   5  13
ATOM     13  O   UNL     1      45.180  33.080  47.692  0.00  0.00    +0.000 OA
BRANCH  13  14
ATOM     14  C   UNL     1      46.119  32.236  48.281  0.00  0.00    +0.000 C 
ATOM     15  H   UNL     1      45.712  31.960  49.277  0.00  0.00    +0.000 HD
ATOM     16  H   UNL     1      46.192  31.286  47.721  0.00  0.00    +0.000 HD
BRANCH  14  17
ATOM     17  C   UNL     1      47.474  32.849  48.525  0.00  0.00    +0.000 C 
ATOM     18  C   UNL     1      48.460  32.005  47.728  0.00  0.00    +0.000 C 
ATOM     19  C   UNL     1      49.723  31.715  48.507  0.00  0.00    +0.000 C 
ATOM     20  C   UNL     1      49.451  30.817  49.696  0.00  0.00    +0.000 C 
ATOM     21  C   UNL     1      48.220  31.329  50.397  0.00  0.00    +0.000 C 
ATOM     22  C   UNL     1      47.888  32.734  49.975  0.00  0.00    +0.000 C 
ENDBRANCH  14  17
ENDBRANCH  13  14
ENDBRANCH   5  13
TORSDOF 4
