
 OpenBabel03242519493D

 47 50  0  0  1  0  0  0  0  0999 V2000
   45.1930   27.6550   47.7440 C   0  0  0  0  0  0  0  0  0  0  0  0
   45.7660   27.2040   48.5030 H   0  0  0  0  0  0  0  0  0  0  0  0
   44.1020   27.5060   48.3370 H   0  0  0  0  0  0  0  0  0  0  0  0
   44.8450   26.9480   46.4390 C   0  0  0  0  0  0  0  0  0  0  0  0
   45.2290   25.8980   46.5350 H   0  0  0  0  0  0  0  0  0  0  0  0
   45.3250   27.3900   45.5780 H   0  0  0  0  0  0  0  0  0  0  0  0
   42.7870   27.9630   45.6390 C   0  0  0  0  0  0  0  0  0  0  0  0
   43.3890   26.8770   46.2940 C   0  0  0  0  0  0  0  0  0  0  0  0
   42.4990   25.9190   46.7220 C   0  0  0  0  0  0  0  0  0  0  0  0
   41.1480   25.9680   46.5540 C   0  0  0  0  0  0  0  0  0  0  0  0
   40.5760   27.0500   45.9050 C   0  0  0  0  0  0  0  0  0  0  0  0
   41.4240   28.0730   45.4370 C   0  0  0  0  0  0  0  0  0  0  0  0
   43.0060   25.0910   47.2260 H   0  0  0  0  0  0  0  0  0  0  0  0
   40.5870   25.1290   46.9510 H   0  0  0  0  0  0  0  0  0  0  0  0
   39.5010   27.0500   45.7930 H   0  0  0  0  0  0  0  0  0  0  0  0
   43.4260   29.0630   45.1040 O   0  0  0  0  0  0  0  0  0  0  0  0
   43.8980   28.9720   44.2080 H   0  0  0  0  0  0  0  0  0  0  0  0
   40.7580   29.0630   44.8270 O   0  0  0  0  0  0  0  0  0  0  0  0
   40.1550   29.2810   43.6300 C   0  0  0  0  0  3  0  0  0  0  0  0
   40.6920   30.6360   43.1160 C   0  0  0  0  0  2  0  0  0  0  0  0
   39.9340   30.9860   41.8700 C   0  0  0  0  0  2  0  0  0  0  0  0
   40.1540   29.9310   40.8090 C   0  0  0  0  0  2  0  0  0  0  0  0
   39.9300   28.5410   41.3060 C   0  0  0  0  0  2  0  0  0  0  0  0
   40.6930   28.2820   42.5810 C   0  0  0  0  0  2  0  0  0  0  0  0
   45.1800   28.9900   47.6500 O   0  0  0  0  0  0  0  0  0  0  0  0
   45.9500   31.2350   47.8140 C   0  0  2  0  0  0  0  0  0  0  0  0
   46.6670   31.5720   46.5850 C   0  0  1  0  0  0  0  0  0  0  0  0
   46.7070   30.2780   45.8570 O   0  0  0  0  0  0  0  0  0  0  0  0
   47.2990   29.5310   46.8710 C   0  0  0  0  0  0  0  0  0  0  0  0
   46.1880   29.7790   48.0330 C   0  0  2  0  0  0  0  0  0  0  0  0
   46.2100   31.8570   48.6910 H   0  0  0  0  0  0  0  0  0  0  0  0
   47.7570   31.7470   46.8000 H   0  0  0  0  0  0  0  0  0  0  0  0
   48.2330   29.9750   47.2310 H   0  0  0  0  0  0  0  0  0  0  0  0
   47.3090   28.4600   46.6730 H   0  0  0  0  0  0  0  0  0  0  0  0
   46.8600   29.4460   48.8420 H   0  0  0  0  0  0  0  0  0  0  0  0
   44.9790   34.6580   45.6350 C   0  0  0  0  0  0  0  0  0  0  0  0
   44.9320   34.5990   44.2450 C   0  0  0  0  0  0  0  0  0  0  0  0
   45.4800   33.4710   43.6020 C   0  0  0  0  0  0  0  0  0  0  0  0
   46.0290   32.4930   44.3530 N   0  0  0  0  0  0  0  0  0  0  0  0
   46.0650   32.5680   45.7040 C   0  0  0  0  0  0  0  0  0  0  0  0
   45.5420   33.6500   46.3560 N   0  0  0  0  0  0  0  0  0  0  0  0
   44.4690   35.4380   43.7300 H   0  0  0  0  0  0  0  0  0  0  0  0
   45.4330   33.4450   42.5400 H   0  0  0  0  0  0  0  0  0  0  0  0
   44.4530   35.7510   46.3220 O   0  0  0  0  0  0  0  0  0  0  0  0
   43.5130   36.0810   46.2220 H   0  0  0  0  0  0  0  0  0  0  0  0
   44.5220   31.3980   47.5670 O   0  0  0  0  0  0  0  0  0  0  0  0
   44.0730   30.6840   48.0950 H   0  0  0  0  0  0  0  0  0  0  0  0
  1  3  1  0  0  0  0
  1  2  1  0  0  0  0
  4  5  1  0  0  0  0
  4  1  1  0  0  0  0
  6  4  1  0  0  0  0
  7  8  1  0  0  0  0
  8  4  1  0  0  0  0
  8  9  2  0  0  0  0
  9 13  1  0  0  0  0
 10  9  1  0  0  0  0
 10 14  1  0  0  0  0
 11 10  2  0  0  0  0
 12  7  2  0  0  0  0
 12 11  1  0  0  0  0
 15 11  1  0  0  0  0
 16  7  1  0  0  0  0
 17 16  1  0  0  0  0
 18 12  1  0  0  0  0
 19 18  1  0  0  0  0
 20 19  1  0  0  0  0
 21 20  1  0  0  0  0
 22 23  1  0  0  0  0
 22 21  1  0  0  0  0
 23 24  1  0  0  0  0
 24 19  1  0  0  0  0
 25  1  1  0  0  0  0
 25 30  1  0  0  0  0
 26 30  1  0  0  0  0
 26 31  1  1  0  0  0
 27 32  1  1  0  0  0
 27 26  1  0  0  0  0
 28 27  1  0  0  0  0
 28 29  1  0  0  0  0
 29 33  1  0  0  0  0
 29 30  1  0  0  0  0
 30 35  1  1  0  0  0
 34 29  1  0  0  0  0
 36 44  1  0  0  0  0
 36 41  1  0  0  0  0
 37 36  2  0  0  0  0
 38 37  1  0  0  0  0
 38 39  2  0  0  0  0
 39 40  1  0  0  0  0
 40 41  2  0  0  0  0
 40 27  1  0  0  0  0
 42 37  1  0  0  0  0
 43 38  1  0  0  0  0
 45 44  1  0  0  0  0
 46 26  1  0  0  0  0
 46 47  1  0  0  0  0
M  END
>  <minimizedAffinity>
-6.16020489

>  <minimizedRMSD>
1.45178199

$$$$
