
     RDKit          3D

 34 35  0  0  0  0  0  0  0  0999 V2000
   46.5344   33.6265   44.3369 C   0  0  0  0  0  0  0  0  0  0  0  0
   46.2439   33.2138   45.6486 C   0  0  0  0  0  0  0  0  0  0  0  0
   45.2991   33.9066   46.3654 C   0  0  0  0  0  0  0  0  0  0  0  0
   44.6936   34.9572   45.7640 N   0  0  0  0  0  0  0  0  0  0  0  0
   44.9648   35.3556   44.5156 C   0  0  0  0  0  0  0  0  0  0  0  0
   45.8956   34.6815   43.7969 N   0  0  0  0  0  0  0  0  0  0  0  0
   45.0494   33.4665   47.6478 O   0  0  0  0  0  0  0  0  0  0  0  0
   45.3361   30.8670   47.4643 O   0  0  0  0  0  0  0  0  0  0  0  0
   45.8136   32.0962   48.2684 P   0  0  2  0  0  0  0  0  0  0  0  0
   45.3256   31.8283   49.8548 O   0  0  0  0  0  0  0  0  0  0  0  0
   47.4563   32.2219   48.1226 O   0  0  0  0  0  0  0  0  0  0  0  0
   48.4676   31.4328   48.5453 C   0  0  0  0  0  0  0  0  0  0  0  0
   49.2101   31.9881   49.4325 O   0  0  0  0  0  0  0  0  0  0  0  0
   47.2580   33.1538   43.6879 H   0  0  0  0  0  0  0  0  0  0  0  0
   46.8281   32.3735   45.9150 H   0  0  0  0  0  0  0  0  0  0  0  0
   44.3804   36.2130   44.2084 H   0  0  0  0  0  0  0  0  0  0  0  0
   45.6500   32.4884   50.4983 H   0  0  0  0  0  0  0  0  0  0  0  0
   49.2854   30.1934   48.5782 C   0  0  0  0  0  0  0  0  0  0  0  0
   48.4263   28.9603   48.6272 C   0  0  0  0  0  0  0  0  0  0  0  0
   47.8156   28.6250   49.9287 C   0  0  0  0  0  0  0  0  0  0  0  0
   48.7354   28.7842   51.1105 C   0  0  0  0  0  0  0  0  0  0  0  0
   49.4467   30.0920   51.0772 C   0  0  0  0  0  0  0  0  0  0  0  0
   50.1921   30.3128   49.7836 C   0  0  0  0  0  0  0  0  0  0  0  0
   49.9524   30.0293   47.7243 H   0  0  0  0  0  0  0  0  0  0  0  0
   47.6373   29.0321   47.8545 H   0  0  0  0  0  0  0  0  0  0  0  0
   49.0423   28.0721   48.2892 H   0  0  0  0  0  0  0  0  0  0  0  0
   47.5816   27.5174   49.9040 H   0  0  0  0  0  0  0  0  0  0  0  0
   46.8302   29.0956   50.0948 H   0  0  0  0  0  0  0  0  0  0  0  0
   48.0606   28.7952   52.0112 H   0  0  0  0  0  0  0  0  0  0  0  0
   49.4780   27.9721   51.1551 H   0  0  0  0  0  0  0  0  0  0  0  0
   48.7948   30.9450   51.3236 H   0  0  0  0  0  0  0  0  0  0  0  0
   50.2250   30.0794   51.8811 H   0  0  0  0  0  0  0  0  0  0  0  0
   51.0813   29.6528   49.7255 H   0  0  0  0  0  0  0  0  0  0  0  0
   50.5754   31.3543   49.7988 H   0  0  0  0  0  0  0  0  0  0  0  0
  1  2  2  0
  2  3  1  0
  3  7  1  0
  4  3  2  0
  5  4  1  0
  6  1  1  0
  6  5  2  0
  9  7  1  6
  9  8  2  0
  9 10  1  0
 11  9  1  0
 11 12  1  0
 12 13  2  0
  1 14  1  0
  2 15  1  0
  5 16  1  0
 10 17  1  0
 18 19  1  0
 19 20  1  0
 20 21  1  0
 21 22  1  0
 22 23  1  0
 23 18  1  0
 18 24  1  0
 19 25  1  0
 19 26  1  0
 20 27  1  0
 20 28  1  0
 21 29  1  0
 21 30  1  0
 22 31  1  0
 22 32  1  0
 23 33  1  0
 23 34  1  0
 12 18  1  0
M  ISO  4  14  14  15  14  16  14  17   3
M  END
>  <DihAtoms>  (1) 
10,11,17,18

>  <DihDeg>  (1) 
179.48205074285886

$$$$
