
     RDKit          3D

 30 31  0  0  0  0  0  0  0  0999 V2000
   44.9148   35.1057   44.9432 C   0  0  0  0  0  0  0  0  0  0  0  0
   45.8265   34.7551   43.9485 C   0  0  0  0  0  0  0  0  0  0  0  0
   46.6824   33.6977   44.2188 C   0  0  0  0  0  0  0  0  0  0  0  0
   46.6051   33.0593   45.4078 N   0  0  0  0  0  0  0  0  0  0  0  0
   45.7088   33.4327   46.3383 C   0  0  0  0  0  0  0  0  0  0  0  0
   44.8536   34.4533   46.1276 N   0  0  0  0  0  0  0  0  0  0  0  0
   45.7967   35.5537   42.6794 C   0  0  0  0  0  0  0  0  0  0  0  0
   45.3491   36.8055   43.0307 F   0  0  0  0  0  0  0  0  0  0  0  0
   44.9101   34.9457   41.8287 F   0  0  0  0  0  0  0  0  0  0  0  0
   47.0755   35.5490   42.1553 F   0  0  0  0  0  0  0  0  0  0  0  0
   45.6234   32.7772   47.5696 O   0  0  0  0  0  0  0  0  0  0  0  0
   44.2201   35.9163   44.8026 H   0  0  0  0  0  0  0  0  0  0  0  0
   47.3775   33.4447   43.4367 H   0  0  0  0  0  0  0  0  0  0  0  0
   46.4690   31.6929   47.9022 C   0  0  0  0  0  0  0  0  0  0  0  0
   47.8425   32.1828   48.2599 C   0  0  0  0  0  0  0  0  0  0  0  0
   48.8578   31.9989   47.1789 C   0  0  0  0  0  0  0  0  0  0  0  0
   48.9129   30.6018   46.6294 C   0  0  0  0  0  0  0  0  0  0  0  0
   47.6411   29.8186   46.8032 C   0  0  0  0  0  0  0  0  0  0  0  0
   46.4811   30.7642   46.7058 C   0  0  0  0  0  0  0  0  0  0  0  0
   46.0962   31.1312   48.7843 H   0  0  0  0  0  0  0  0  0  0  0  0
   48.2355   31.7310   49.2134 H   0  0  0  0  0  0  0  0  0  0  0  0
   47.7687   33.2742   48.4638 H   0  0  0  0  0  0  0  0  0  0  0  0
   49.8579   32.2076   47.6448 H   0  0  0  0  0  0  0  0  0  0  0  0
   48.6799   32.7472   46.4000 H   0  0  0  0  0  0  0  0  0  0  0  0
   49.1097   30.6873   45.5379 H   0  0  0  0  0  0  0  0  0  0  0  0
   49.7639   30.0132   47.0571 H   0  0  0  0  0  0  0  0  0  0  0  0
   47.6469   29.2834   47.7580 H   0  0  0  0  0  0  0  0  0  0  0  0
   47.5438   29.0940   45.9447 H   0  0  0  0  0  0  0  0  0  0  0  0
   45.5176   30.2312   46.6436 H   0  0  0  0  0  0  0  0  0  0  0  0
   46.6507   31.4450   45.8204 H   0  0  0  0  0  0  0  0  0  0  0  0
  1  6  2  0
  2  3  2  0
  2  1  1  0
  3  4  1  0
  4  5  2  0
  5 11  1  0
  6  5  1  0
  7  8  1  0
  7  2  1  0
  9  7  1  0
 10  7  1  0
  1 12  1  0
  3 13  1  0
 14 15  1  0
 15 16  1  0
 16 17  1  0
 17 18  1  0
 18 19  1  0
 19 14  1  0
 14 20  1  0
 15 21  1  0
 15 22  1  0
 16 23  1  0
 16 24  1  0
 17 25  1  0
 17 26  1  0
 18 27  1  0
 18 28  1  0
 19 29  1  0
 19 30  1  0
 11 14  1  0
M  ISO  2  12  14  13  14
M  END
>  <DihAtoms>  (1) 
4,10,13,14

>  <DihDeg>  (1) 
-118.56017576723124

$$$$
