
     RDKit          3D

 32 33  0  0  0  0  0  0  0  0999 V2000
   45.1871   35.2212   44.0471 C   0  0  0  0  0  0  0  0  0  0  0  0
   46.2395   34.5524   43.3723 C   0  0  0  0  0  0  0  0  0  0  0  0
   46.9117   33.5401   44.0609 C   0  0  0  0  0  0  0  0  0  0  0  0
   46.5133   33.2652   45.3261 N   0  0  0  0  0  0  0  0  0  0  0  0
   45.5160   33.9183   45.9287 C   0  0  0  0  0  0  0  0  0  0  0  0
   44.8404   34.8967   45.3117 N   0  0  0  0  0  0  0  0  0  0  0  0
   46.5416   34.9872   42.0121 C   0  0  1  0  0  0  0  0  0  0  0  0
   48.0465   35.2049   41.9471 C   0  0  0  0  0  0  0  0  0  0  0  0
   44.6279   36.0137   43.5694 H   0  0  0  0  0  0  0  0  0  0  0  0
   47.7207   33.0159   43.5756 H   0  0  0  0  0  0  0  0  0  0  0  0
   45.1816   33.7106   46.9468 H   0  0  0  0  0  0  0  0  0  0  0  0
   46.0101   35.9525   41.8493 H   0  0  0  0  0  0  0  0  0  0  0  0
   48.4999   35.3401   42.9514 H   0  0  0  0  0  0  0  0  0  0  0  0
   48.5493   34.4275   41.3480 H   0  0  0  0  0  0  0  0  0  0  0  0
   48.2090   36.1534   41.3940 H   0  0  0  0  0  0  0  0  0  0  0  0
   46.0328   34.0664   40.9227 C   0  0  0  0  0  0  0  0  0  0  0  0
   44.5484   34.1853   40.7372 C   0  0  0  0  0  0  0  0  0  0  0  0
   44.0820   33.7495   39.3728 C   0  0  0  0  0  0  0  0  0  0  0  0
   45.0159   32.6971   38.8020 C   0  0  0  0  0  0  0  0  0  0  0  0
   46.2943   33.4091   38.5025 C   0  0  0  0  0  0  0  0  0  0  0  0
   46.8217   34.1625   39.6580 C   0  0  0  0  0  0  0  0  0  0  0  0
   46.1973   33.0406   41.3214 H   0  0  0  0  0  0  0  0  0  0  0  0
   43.9428   33.6281   41.4786 H   0  0  0  0  0  0  0  0  0  0  0  0
   44.2694   35.2518   40.8464 H   0  0  0  0  0  0  0  0  0  0  0  0
   44.1320   34.6019   38.6833 H   0  0  0  0  0  0  0  0  0  0  0  0
   43.0549   33.3605   39.4284 H   0  0  0  0  0  0  0  0  0  0  0  0
   45.1966   31.8750   39.5129 H   0  0  0  0  0  0  0  0  0  0  0  0
   44.5785   32.3474   37.8466 H   0  0  0  0  0  0  0  0  0  0  0  0
   47.0821   32.6762   38.1556 H   0  0  0  0  0  0  0  0  0  0  0  0
   46.1107   34.0248   37.5878 H   0  0  0  0  0  0  0  0  0  0  0  0
   47.8880   33.9242   39.8009 H   0  0  0  0  0  0  0  0  0  0  0  0
   46.8144   35.2478   39.3353 H   0  0  0  0  0  0  0  0  0  0  0  0
  1  6  2  0
  2  1  1  0
  2  3  2  0
  3  4  1  0
  4  5  2  0
  6  5  1  0
  7  2  1  0
  8  7  1  0
  1  9  1  0
  3 10  1  0
  5 11  1  0
  7 12  1  6
  8 13  1  0
  8 14  1  0
  8 15  1  0
 16 17  1  0
 17 18  1  0
 18 19  1  0
 19 20  1  0
 20 21  1  0
 21 16  1  0
 16 22  1  0
 17 23  1  0
 17 24  1  0
 18 25  1  0
 18 26  1  0
 19 27  1  0
 19 28  1  0
 20 29  1  0
 20 30  1  0
 21 31  1  0
 21 32  1  0
  7 16  1  0
M  ISO  7   9  14  10  14  11  14  12   8  13   8  14   8  15   8
M  END
>  <DihAtoms>  (1) 
1,6,15,16

>  <DihDeg>  (1) 
179.6809176550922

$$$$
