
     RDKit          3D

 30 31  0  0  0  0  0  0  0  0999 V2000
   44.9148   35.1057   44.9432 C   0  0  0  0  0  0  0  0  0  0  0  0
   45.8265   34.7551   43.9485 C   0  0  0  0  0  0  0  0  0  0  0  0
   46.6824   33.6977   44.2188 C   0  0  0  0  0  0  0  0  0  0  0  0
   46.6051   33.0593   45.4078 N   0  0  0  0  0  0  0  0  0  0  0  0
   45.7088   33.4327   46.3383 C   0  0  0  0  0  0  0  0  0  0  0  0
   44.8536   34.4533   46.1276 N   0  0  0  0  0  0  0  0  0  0  0  0
   45.7967   35.5537   42.6794 C   0  0  0  0  0  0  0  0  0  0  0  0
   45.3491   36.8055   43.0307 F   0  0  0  0  0  0  0  0  0  0  0  0
   44.9101   34.9457   41.8287 F   0  0  0  0  0  0  0  0  0  0  0  0
   47.0755   35.5490   42.1553 F   0  0  0  0  0  0  0  0  0  0  0  0
   45.6234   32.7772   47.5696 O   0  0  0  0  0  0  0  0  0  0  0  0
   44.2201   35.9163   44.8026 H   0  0  0  0  0  0  0  0  0  0  0  0
   47.3775   33.4447   43.4367 H   0  0  0  0  0  0  0  0  0  0  0  0
   46.4690   31.6929   47.9022 C   0  0  0  0  0  0  0  0  0  0  0  0
   46.5942   30.7446   46.7448 C   0  0  0  0  0  0  0  0  0  0  0  0
   45.7743   29.5027   46.8807 C   0  0  0  0  0  0  0  0  0  0  0  0
   45.9713   28.7851   48.1857 C   0  0  0  0  0  0  0  0  0  0  0  0
   46.4563   29.6625   49.3065 C   0  0  0  0  0  0  0  0  0  0  0  0
   45.8722   31.0322   49.1275 C   0  0  0  0  0  0  0  0  0  0  0  0
   47.4986   32.0290   48.1457 H   0  0  0  0  0  0  0  0  0  0  0  0
   47.6607   30.4582   46.5252 H   0  0  0  0  0  0  0  0  0  0  0  0
   46.2422   31.2769   45.8332 H   0  0  0  0  0  0  0  0  0  0  0  0
   46.1167   28.8066   46.0689 H   0  0  0  0  0  0  0  0  0  0  0  0
   44.7248   29.7537   46.6966 H   0  0  0  0  0  0  0  0  0  0  0  0
   44.9824   28.3724   48.4845 H   0  0  0  0  0  0  0  0  0  0  0  0
   46.6606   27.9085   48.0856 H   0  0  0  0  0  0  0  0  0  0  0  0
   47.5504   29.6895   49.3274 H   0  0  0  0  0  0  0  0  0  0  0  0
   46.0524   29.2606   50.2796 H   0  0  0  0  0  0  0  0  0  0  0  0
   46.0409   31.6720   50.0099 H   0  0  0  0  0  0  0  0  0  0  0  0
   44.7747   30.9216   48.8836 H   0  0  0  0  0  0  0  0  0  0  0  0
  1  6  2  0
  2  3  2  0
  2  1  1  0
  3  4  1  0
  4  5  2  0
  5 11  1  0
  6  5  1  0
  7  8  1  0
  7  2  1  0
  9  7  1  0
 10  7  1  0
  1 12  1  0
  3 13  1  0
 14 15  1  0
 15 16  1  0
 16 17  1  0
 17 18  1  0
 18 19  1  0
 19 14  1  0
 14 20  1  0
 15 21  1  0
 15 22  1  0
 16 23  1  0
 16 24  1  0
 17 25  1  0
 17 26  1  0
 18 27  1  0
 18 28  1  0
 19 29  1  0
 19 30  1  0
 11 14  1  0
M  ISO  2  12  14  13  14
M  END
>  <DihAtoms>  (1) 
4,10,13,14

>  <DihDeg>  (1) 
-118.56017576723124

$$$$
