
 OpenBabel03252508503D

 25 27  0  0  0  0  0  0  0  0999 V2000
   45.9060   34.1430   41.0190 C   0  0  0  0  0  0  0  0  0  0  0  0
   46.5020   34.6960   42.1470 C   0  0  0  0  0  0  0  0  0  0  0  0
   47.8500   35.0570   42.0590 C   0  0  0  0  0  0  0  0  0  0  0  0
   48.4990   34.8470   40.8820 N   0  0  0  0  0  0  0  0  0  0  0  0
   47.8830   34.3070   39.8130 C   0  0  0  0  0  0  0  0  0  0  0  0
   46.5780   33.9540   39.8850 N   0  0  0  0  0  0  0  0  0  0  0  0
   48.3440   35.4950   42.9310 H   0  0  0  0  0  0  0  0  0  0  0  0
   48.4120   34.1460   38.8840 H   0  0  0  0  0  0  0  0  0  0  0  0
   45.7210   34.8850   43.3710 C   0  0  0  0  0  0  0  0  0  0  0  0
   45.0910   36.0640   43.6920 C   0  0  0  0  0  0  0  0  0  0  0  0
   44.4900   35.8020   44.8990 C   0  0  0  0  0  0  0  0  0  0  0  0
   44.7420   34.5250   45.2970 N   0  0  0  0  0  0  0  0  0  0  0  0
   45.4880   34.0000   44.3520 N   0  0  0  0  0  0  0  0  0  0  0  0
   45.0920   36.9530   43.1110 H   0  0  0  0  0  0  0  0  0  0  0  0
   43.8900   36.4890   45.4870 H   0  0  0  0  0  0  0  0  0  0  0  0
   44.4050   34.0760   46.1700 H   0  0  0  0  0  0  0  0  0  0  0  0
   44.5810   33.7870   41.1030 O   0  0  0  0  0  0  0  0  0  0  0  0
   43.5110   34.5070   40.6550 C   0  0  0  0  0  0  0  0  0  0  0  0
   43.3410   35.7690   40.7100 O   0  0  0  0  0  0  0  0  0  0  0  0
   42.2070   34.1580   39.9740 C   0  0  0  0  0  3  0  0  0  0  0  0
   41.7950   35.2660   39.0390 C   0  0  0  0  0  2  0  0  0  0  0  0
   40.6470   34.7070   38.2180 C   0  0  0  0  0  2  0  0  0  0  0  0
   39.4540   34.5520   39.1250 C   0  0  0  0  0  2  0  0  0  0  0  0
   39.7780   34.4590   40.5770 C   0  0  0  0  0  2  0  0  0  0  0  0
   41.1010   33.8430   40.9070 C   0  0  0  0  0  2  0  0  0  0  0  0
  1 17  1  0  0  0  0
  1  2  1  0  0  0  0
  2  9  1  0  0  0  0
  3  2  2  0  0  0  0
  3  7  1  0  0  0  0
  4  3  1  0  0  0  0
  5  6  1  0  0  0  0
  5  4  2  0  0  0  0
  6  1  2  0  0  0  0
  8  5  1  0  0  0  0
  9 10  1  0  0  0  0
  9 13  2  0  0  0  0
 10 11  2  0  0  0  0
 11 12  1  0  0  0  0
 11 15  1  0  0  0  0
 12 16  1  0  0  0  0
 13 12  1  0  0  0  0
 14 10  1  0  0  0  0
 18 19  2  0  0  0  0
 18 17  1  0  0  0  0
 20 18  1  0  0  0  0
 20 25  1  0  0  0  0
 21 20  1  0  0  0  0
 22 21  1  0  0  0  0
 22 23  1  0  0  0  0
 23 24  1  0  0  0  0
 24 25  1  0  0  0  0
M  END
>  <minimizedAffinity>
-5.91064787

>  <minimizedRMSD>
0.748082638

$$$$
