
 OpenBabel03242518543D

 39 41  0  0  1  0  0  0  0  0999 V2000
   45.8530   31.3810   46.3290 C   0  0  2  0  0  0  0  0  0  0  0  0
   45.3510   30.7400   47.5830 C   0  0  0  0  0  0  0  0  0  0  0  0
   44.8400   29.3950   47.2060 C   0  0  0  0  0  0  0  0  0  0  0  0
   44.8840   29.0700   45.7480 C   0  0  0  0  0  0  0  0  0  0  0  0
   46.2740   29.2620   45.2060 C   0  0  0  0  0  0  0  0  0  0  0  0
   46.8990   30.4800   45.7010 C   0  0  2  0  0  0  0  0  0  0  0  0
   45.0360   31.4040   45.5790 H   0  0  0  0  0  0  0  0  0  0  0  0
   46.0930   30.7420   48.4060 H   0  0  0  0  0  0  0  0  0  0  0  0
   44.5250   31.4110   47.9790 H   0  0  0  0  0  0  0  0  0  0  0  0
   43.7370   29.3840   47.4670 H   0  0  0  0  0  0  0  0  0  0  0  0
   45.2320   28.5470   47.8170 H   0  0  0  0  0  0  0  0  0  0  0  0
   44.1160   29.6300   45.1670 H   0  0  0  0  0  0  0  0  0  0  0  0
   44.5810   28.0050   45.6560 H   0  0  0  0  0  0  0  0  0  0  0  0
   46.1370   29.3400   44.0830 H   0  0  0  0  0  0  0  0  0  0  0  0
   46.7940   28.2980   45.3370 H   0  0  0  0  0  0  0  0  0  0  0  0
   47.3270   31.0690   44.8700 H   0  0  0  0  0  0  0  0  0  0  0  0
   47.8950   30.0600   46.7190 C   0  0  0  0  0  0  0  0  0  0  0  0
   47.3990   29.9210   47.7000 H   0  0  0  0  0  0  0  0  0  0  0  0
   48.6590   30.8890   46.7790 H   0  0  0  0  0  0  0  0  0  0  0  0
   48.6620   28.8080   46.4630 C   0  0  0  0  0  3  0  0  0  0  0  0
   49.9930   29.0430   45.7960 C   0  0  0  0  0  2  0  0  0  0  0  0
   51.1460   28.5310   46.6390 C   0  0  0  0  0  2  0  0  0  0  0  0
   50.9010   27.0640   46.9130 C   0  0  0  0  0  2  0  0  0  0  0  0
   49.7180   26.9840   47.8290 C   0  0  0  0  0  2  0  0  0  0  0  0
   48.8580   28.1930   47.8570 C   0  0  0  0  0  2  0  0  0  0  0  0
   46.3400   32.7720   46.5200 C   0  0  0  0  0  0  0  0  0  0  0  0
   47.0480   33.1280   47.4910 O   0  0  0  0  0  0  0  0  0  0  0  0
   44.6190   35.5120   44.8220 C   0  0  0  0  0  0  0  0  0  0  0  0
   45.2230   35.5710   43.5420 C   0  0  0  0  0  0  0  0  0  0  0  0
   46.2290   34.6530   43.2990 C   0  0  0  0  0  0  0  0  0  0  0  0
   46.5040   33.8230   44.3060 N   0  0  0  0  0  0  0  0  0  0  0  0
   45.9500   33.7590   45.4960 C   0  0  0  0  0  0  0  0  0  0  0  0
   44.9710   34.6400   45.7570 N   0  0  0  0  0  0  0  0  0  0  0  0
   43.8130   36.2310   45.0480 H   0  0  0  0  0  0  0  0  0  0  0  0
   44.8990   36.3030   42.8130 H   0  0  0  0  0  0  0  0  0  0  0  0
   46.8510   34.6980   41.9860 C   0  0  0  0  0  0  0  0  0  0  0  0
   47.5960   33.5400   41.7790 F   0  0  0  0  0  0  0  0  0  0  0  0
   47.6910   35.7640   41.9800 F   0  0  0  0  0  0  0  0  0  0  0  0
   45.9170   34.7230   40.9570 F   0  0  0  0  0  0  0  0  0  0  0  0
  1  7  1  6  0  0  0
  1 26  1  0  0  0  0
  1  2  1  0  0  0  0
  2  9  1  0  0  0  0
  2  8  1  0  0  0  0
  3 10  1  0  0  0  0
  3  2  1  0  0  0  0
  3 11  1  0  0  0  0
  4  3  1  0  0  0  0
  5 15  1  0  0  0  0
  5  6  1  0  0  0  0
  5  4  1  0  0  0  0
  6 16  1  6  0  0  0
  6  1  1  0  0  0  0
  6 17  1  0  0  0  0
 12  4  1  0  0  0  0
 13  4  1  0  0  0  0
 14  5  1  0  0  0  0
 17 19  1  0  0  0  0
 17 18  1  0  0  0  0
 20 17  1  0  0  0  0
 20 25  1  0  0  0  0
 21 20  1  0  0  0  0
 21 22  1  0  0  0  0
 22 23  1  0  0  0  0
 23 24  1  0  0  0  0
 24 25  1  0  0  0  0
 26 27  2  0  0  0  0
 28 34  1  0  0  0  0
 28 33  1  0  0  0  0
 29 28  2  0  0  0  0
 30 29  1  0  0  0  0
 30 31  2  0  0  0  0
 31 32  1  0  0  0  0
 32 33  2  0  0  0  0
 32 26  1  0  0  0  0
 35 29  1  0  0  0  0
 36 30  1  0  0  0  0
 37 36  1  0  0  0  0
 38 36  1  0  0  0  0
 39 36  1  0  0  0  0
M  END
>  <minimizedAffinity>
-5.26083612

>  <minimizedRMSD>
0.848599434

$$$$
