
 OpenBabel03252504173D

 35 37  0  0  0  0  0  0  0  0999 V2000
   47.7750   30.1040   44.9260 F   0  0  0  0  0  0  0  0  0  0  0  0
   47.5690   30.8610   46.0590 C   0  0  0  0  0  0  0  0  0  0  0  0
   46.9330   32.0670   45.9710 C   0  0  0  0  0  0  0  0  0  0  0  0
   46.7680   32.7590   47.1530 C   0  0  0  0  0  0  0  0  0  0  0  0
   47.2240   32.2470   48.3460 C   0  0  0  0  0  0  0  0  0  0  0  0
   47.8600   31.0260   48.3820 C   0  0  0  0  0  0  0  0  0  0  0  0
   48.0520   30.2880   47.2170 C   0  0  0  0  0  0  0  0  0  0  0  0
   46.2680   33.7300   47.1510 H   0  0  0  0  0  0  0  0  0  0  0  0
   47.0910   32.7990   49.2760 H   0  0  0  0  0  0  0  0  0  0  0  0
   48.2230   30.6130   49.3120 H   0  0  0  0  0  0  0  0  0  0  0  0
   46.7870   34.1200   42.9430 C   0  0  0  0  0  0  0  0  0  0  0  0
   45.6630   33.6470   42.2830 C   0  0  0  0  0  0  0  0  0  0  0  0
   44.9450   32.6060   42.8890 C   0  0  0  0  0  0  0  0  0  0  0  0
   45.3600   32.1000   44.0770 N   0  0  0  0  0  0  0  0  0  0  0  0
   46.4540   32.5900   44.6800 C   0  0  0  0  0  0  0  0  0  0  0  0
   47.1650   33.5920   44.1200 N   0  0  0  0  0  0  0  0  0  0  0  0
   44.0620   32.2110   42.4050 H   0  0  0  0  0  0  0  0  0  0  0  0
   45.2680   34.2390   40.9970 C   0  0  0  0  0  0  0  0  0  0  0  0
   44.9270   35.5760   41.1760 F   0  0  0  0  0  0  0  0  0  0  0  0
   46.3770   34.2190   40.1590 F   0  0  0  0  0  0  0  0  0  0  0  0
   44.2390   33.6280   40.3690 F   0  0  0  0  0  0  0  0  0  0  0  0
   47.4760   35.1200   42.3580 O   0  0  0  0  0  0  0  0  0  0  0  0
   48.8110   35.0850   41.8980 C   0  0  0  0  0  0  0  0  0  0  0  0
   49.6350   35.3380   42.9730 F   0  0  0  0  0  0  0  0  0  0  0  0
   49.0430   33.8660   41.3060 F   0  0  0  0  0  0  0  0  0  0  0  0
   49.0260   36.1300   41.0230 F   0  0  0  0  0  0  0  0  0  0  0  0
   48.7410   28.9570   47.2220 C   0  0  0  0  0  0  0  0  0  0  0  0
   49.1960   28.8180   46.2230 H   0  0  0  0  0  0  0  0  0  0  0  0
   47.9480   28.1890   47.3810 H   0  0  0  0  0  0  0  0  0  0  0  0
   49.7890   28.8950   48.3050 C   0  0  0  0  0  0  0  0  0  0  0  0
   49.8720   27.5640   48.9690 C   0  0  0  0  0  0  0  0  0  0  0  0
   51.2730   27.0740   49.1760 C   0  0  0  0  0  0  0  0  0  0  0  0
   52.2400   28.1080   49.6470 C   0  0  0  0  0  0  0  0  0  0  0  0
   51.9690   29.5030   49.1180 C   0  0  0  0  0  0  0  0  0  0  0  0
   51.1450   29.3010   47.8380 C   0  0  0  0  0  0  0  0  0  0  0  0
  1  2  1  0  0  0  0
  2  7  1  0  0  0  0
  3  2  2  0  0  0  0
  3  4  1  0  0  0  0
  4  5  2  0  0  0  0
  5  6  1  0  0  0  0
  5  9  1  0  0  0  0
  6 10  1  0  0  0  0
  7 27  1  0  0  0  0
  7  6  2  0  0  0  0
  8  4  1  0  0  0  0
 11 16  1  0  0  0  0
 12 13  1  0  0  0  0
 12 11  2  0  0  0  0
 13 14  2  0  0  0  0
 14 15  1  0  0  0  0
 15  3  1  0  0  0  0
 16 15  2  0  0  0  0
 17 13  1  0  0  0  0
 18 19  1  0  0  0  0
 18 12  1  0  0  0  0
 20 18  1  0  0  0  0
 21 18  1  0  0  0  0
 22 11  1  0  0  0  0
 23 22  1  0  0  0  0
 23 24  1  0  0  0  0
 25 23  1  0  0  0  0
 26 23  1  0  0  0  0
 27 29  1  0  0  0  0
 27 30  1  0  0  0  0
 28 27  1  0  0  0  0
 30 31  1  0  0  0  0
 31 32  1  0  0  0  0
 32 33  1  0  0  0  0
 34 33  1  0  0  0  0
 35 30  1  0  0  0  0
 35 34  1  0  0  0  0
M  END
>  <minimizedAffinity>
-5.67926598

>  <minimizedRMSD>
1.67573631

$$$$
