
 OpenBabel03242522523D

 23 24  0  0  0  0  0  0  0  0999 V2000
   36.0180   30.1180   39.0590 O   0  0  0  0  0  0  0  0  0  0  0  0
   36.7070   30.8710   40.2180 P   0  0  2  0  0  0  0  0  0  0  0  0
   35.5620   30.9770   41.4450 O   0  0  0  0  0  0  0  0  0  0  0  0
   35.8970   31.3480   42.2840 H   0  0  0  0  0  0  0  0  0  0  0  0
   37.1230   32.4150   39.6760 O   0  0  0  0  0  0  0  0  0  0  0  0
   40.2560   34.1460   40.2920 C   0  0  0  0  0  0  0  0  0  0  0  0
   38.9170   33.7310   40.4060 C   0  0  0  0  0  0  0  0  0  0  0  0
   38.4420   32.7900   39.5270 C   0  0  0  0  0  0  0  0  0  0  0  0
   39.2930   32.3090   38.5930 N   0  0  0  0  0  0  0  0  0  0  0  0
   40.5680   32.6990   38.4780 C   0  0  0  0  0  0  0  0  0  0  0  0
   41.0520   33.6280   39.3400 N   0  0  0  0  0  0  0  0  0  0  0  0
   40.7300   34.8800   40.9300 H   0  0  0  0  0  0  0  0  0  0  0  0
   38.4370   34.2310   41.2050 H   0  0  0  0  0  0  0  0  0  0  0  0
   41.0930   32.2020   37.6730 H   0  0  0  0  0  0  0  0  0  0  0  0
   38.0520   30.0270   40.6780 O   0  0  0  0  0  0  0  0  0  0  0  0
   38.5300   29.6700   41.8900 C   0  0  0  0  0  0  0  0  0  0  0  0
   39.1320   30.6250   42.5000 O   0  0  0  0  0  0  0  0  0  0  0  0
   38.7830   28.7360   43.0160 C   0  0  0  0  0  3  0  0  0  0  0  0
   39.4320   27.4630   42.5470 C   0  0  0  0  0  2  0  0  0  0  0  0
   38.5560   26.4740   41.8860 C   0  0  0  0  0  2  0  0  0  0  0  0
   37.2200   26.2780   42.5510 C   0  0  0  0  0  2  0  0  0  0  0  0
   36.5650   27.5800   42.8550 C   0  0  0  0  0  2  0  0  0  0  0  0
   37.4440   28.4920   43.6760 C   0  0  0  0  0  2  0  0  0  0  0  0
  2  1  2  6  0  0  0
  2 15  1  0  0  0  0
  2  3  1  0  0  0  0
  3  4  1  0  0  0  0
  5  2  1  0  0  0  0
  6  7  1  0  0  0  0
  6 12  1  0  0  0  0
  7 13  1  0  0  0  0
  8  5  1  0  0  0  0
  8  7  2  0  0  0  0
  9  8  1  0  0  0  0
 10  9  2  0  0  0  0
 10 11  1  0  0  0  0
 11  6  2  0  0  0  0
 14 10  1  0  0  0  0
 15 16  1  0  0  0  0
 16 17  2  0  0  0  0
 16 18  1  0  0  0  0
 18 23  1  0  0  0  0
 19 18  1  0  0  0  0
 20 19  1  0  0  0  0
 20 21  1  0  0  0  0
 21 22  1  0  0  0  0
 22 23  1  0  0  0  0
M  END
>  <minimizedAffinity>
-5.45345402

$$$$

 OpenBabel03242522523D

 23 24  0  0  0  0  0  0  0  0999 V2000
   34.6880   29.3530   39.6940 O   0  0  0  0  0  0  0  0  0  0  0  0
   36.0100   29.9400   40.2370 P   0  0  2  0  0  0  0  0  0  0  0  0
   35.5710   31.0210   41.4490 O   0  0  0  0  0  0  0  0  0  0  0  0
   36.3200   31.3970   41.9500 H   0  0  0  0  0  0  0  0  0  0  0  0
   36.7840   30.7580   38.9800 O   0  0  0  0  0  0  0  0  0  0  0  0
   39.9020   32.6220   38.9670 C   0  0  0  0  0  0  0  0  0  0  0  0
   38.9510   31.6140   38.7320 C   0  0  0  0  0  0  0  0  0  0  0  0
   37.6830   31.7730   39.2340 C   0  0  0  0  0  0  0  0  0  0  0  0
   37.4160   32.9000   39.9330 N   0  0  0  0  0  0  0  0  0  0  0  0
   38.3160   33.8640   40.1610 C   0  0  0  0  0  0  0  0  0  0  0  0
   39.5720   33.7200   39.6700 N   0  0  0  0  0  0  0  0  0  0  0  0
   40.9250   32.5970   38.6180 H   0  0  0  0  0  0  0  0  0  0  0  0
   39.3710   30.8270   38.1620 H   0  0  0  0  0  0  0  0  0  0  0  0
   37.9180   34.6890   40.7370 H   0  0  0  0  0  0  0  0  0  0  0  0
   36.9500   28.7030   40.8020 O   0  0  0  0  0  0  0  0  0  0  0  0
   37.1660   28.2220   42.0460 C   0  0  0  0  0  0  0  0  0  0  0  0
   37.2950   29.1410   42.9310 O   0  0  0  0  0  0  0  0  0  0  0  0
   37.3580   27.1570   43.0640 C   0  0  0  0  0  3  0  0  0  0  0  0
   38.7330   27.2080   43.6690 C   0  0  0  0  0  2  0  0  0  0  0  0
   39.8400   26.6670   42.8540 C   0  0  0  0  0  2  0  0  0  0  0  0
   39.5230   25.3760   42.1470 C   0  0  0  0  0  2  0  0  0  0  0  0
   38.2120   25.4450   41.4440 C   0  0  0  0  0  2  0  0  0  0  0  0
   37.0830   25.8450   42.3640 C   0  0  0  0  0  2  0  0  0  0  0  0
  2  1  2  6  0  0  0
  2 15  1  0  0  0  0
  2  3  1  0  0  0  0
  3  4  1  0  0  0  0
  5  8  1  0  0  0  0
  5  2  1  0  0  0  0
  6 11  1  0  0  0  0
  7  6  2  0  0  0  0
  7  8  1  0  0  0  0
  8  9  2  0  0  0  0
  9 10  1  0  0  0  0
 10 14  1  0  0  0  0
 11 10  2  0  0  0  0
 12  6  1  0  0  0  0
 13  7  1  0  0  0  0
 15 16  1  0  0  0  0
 16 17  2  0  0  0  0
 16 18  1  0  0  0  0
 18 19  1  0  0  0  0
 20 19  1  0  0  0  0
 21 20  1  0  0  0  0
 22 21  1  0  0  0  0
 22 23  1  0  0  0  0
 23 18  1  0  0  0  0
M  END
>  <minimizedAffinity>
-5.33468342

$$$$

 OpenBabel03242522523D

 23 24  0  0  0  0  0  0  0  0999 V2000
   34.7790   29.4170   39.5300 O   0  0  0  0  0  0  0  0  0  0  0  0
   35.9950   29.7000   40.4390 P   0  0  2  0  0  0  0  0  0  0  0  0
   35.5510   30.9980   41.4120 O   0  0  0  0  0  0  0  0  0  0  0  0
   36.1970   31.2240   42.1090 H   0  0  0  0  0  0  0  0  0  0  0  0
   37.3020   30.1270   39.4600 O   0  0  0  0  0  0  0  0  0  0  0  0
   39.8830   32.6830   39.4770 C   0  0  0  0  0  0  0  0  0  0  0  0
   39.2470   31.4320   39.3950 C   0  0  0  0  0  0  0  0  0  0  0  0
   37.8830   31.3750   39.5470 C   0  0  0  0  0  0  0  0  0  0  0  0
   37.2220   32.5340   39.7690 N   0  0  0  0  0  0  0  0  0  0  0  0
   37.8210   33.7280   39.8480 C   0  0  0  0  0  0  0  0  0  0  0  0
   39.1670   33.7990   39.7000 N   0  0  0  0  0  0  0  0  0  0  0  0
   40.9480   32.8400   39.3730 H   0  0  0  0  0  0  0  0  0  0  0  0
   39.9510   30.6640   39.2130 H   0  0  0  0  0  0  0  0  0  0  0  0
   37.1280   34.5390   40.0290 H   0  0  0  0  0  0  0  0  0  0  0  0
   36.3340   28.3390   41.3140 O   0  0  0  0  0  0  0  0  0  0  0  0
   36.9350   28.1550   42.5100 C   0  0  0  0  0  0  0  0  0  0  0  0
   36.3090   27.3340   43.2720 O   0  0  0  0  0  0  0  0  0  0  0  0
   37.9860   28.3720   43.5370 C   0  0  0  0  0  3  0  0  0  0  0  0
   38.9000   29.5070   43.1660 C   0  0  0  0  0  2  0  0  0  0  0  0
   39.9220   29.2290   42.1370 C   0  0  0  0  0  2  0  0  0  0  0  0
   40.6150   27.9010   42.2860 C   0  0  0  0  0  2  0  0  0  0  0  0
   39.6400   26.7970   42.5050 C   0  0  0  0  0  2  0  0  0  0  0  0
   38.7230   27.0580   43.6750 C   0  0  0  0  0  2  0  0  0  0  0  0
  2  1  2  6  0  0  0
  2 15  1  0  0  0  0
  2  3  1  0  0  0  0
  3  4  1  0  0  0  0
  5  8  1  0  0  0  0
  5  2  1  0  0  0  0
  6 11  1  0  0  0  0
  7  6  2  0  0  0  0
  7  8  1  0  0  0  0
  8  9  2  0  0  0  0
  9 10  1  0  0  0  0
 10 14  1  0  0  0  0
 11 10  2  0  0  0  0
 12  6  1  0  0  0  0
 13  7  1  0  0  0  0
 15 16  1  0  0  0  0
 16 17  2  0  0  0  0
 16 18  1  0  0  0  0
 18 23  1  0  0  0  0
 19 18  1  0  0  0  0
 20 21  1  0  0  0  0
 20 19  1  0  0  0  0
 21 22  1  0  0  0  0
 22 23  1  0  0  0  0
M  END
>  <minimizedAffinity>
-5.19186068

$$$$

 OpenBabel03242522523D

 23 24  0  0  0  0  0  0  0  0999 V2000
   34.4860   28.7950   38.8410 O   0  0  0  0  0  0  0  0  0  0  0  0
   35.8040   29.3330   39.4390 P   0  0  2  0  0  0  0  0  0  0  0  0
   35.4370   29.8160   41.0080 O   0  0  0  0  0  0  0  0  0  0  0  0
   36.2090   30.0900   41.5410 H   0  0  0  0  0  0  0  0  0  0  0  0
   36.3010   30.6610   38.5230 O   0  0  0  0  0  0  0  0  0  0  0  0
   39.5820   32.2140   38.6260 C   0  0  0  0  0  0  0  0  0  0  0  0
   38.5040   31.4040   38.2330 C   0  0  0  0  0  0  0  0  0  0  0  0
   37.3310   31.4750   38.9440 C   0  0  0  0  0  0  0  0  0  0  0  0
   37.2770   32.3290   39.9920 N   0  0  0  0  0  0  0  0  0  0  0  0
   38.3000   33.1040   40.3720 C   0  0  0  0  0  0  0  0  0  0  0  0
   39.4640   33.0430   39.6790 N   0  0  0  0  0  0  0  0  0  0  0  0
   40.5470   32.2360   38.1380 H   0  0  0  0  0  0  0  0  0  0  0  0
   38.7620   30.8190   37.3900 H   0  0  0  0  0  0  0  0  0  0  0  0
   38.0690   33.7210   41.2300 H   0  0  0  0  0  0  0  0  0  0  0  0
   36.9380   28.1310   39.3960 O   0  0  0  0  0  0  0  0  0  0  0  0
   37.1810   27.0810   40.2110 C   0  0  0  0  0  0  0  0  0  0  0  0
   36.5490   26.0170   39.8710 O   0  0  0  0  0  0  0  0  0  0  0  0
   37.8060   26.3900   41.3670 C   0  0  0  0  0  3  0  0  0  0  0  0
   36.8430   26.2410   42.5130 C   0  0  0  0  0  2  0  0  0  0  0  0
   36.5900   27.4430   43.3310 C   0  0  0  0  0  2  0  0  0  0  0  0
   37.8200   28.2470   43.6590 C   0  0  0  0  0  2  0  0  0  0  0  0
   38.6560   28.4840   42.4500 C   0  0  0  0  0  2  0  0  0  0  0  0
   39.0250   27.2040   41.7410 C   0  0  0  0  0  2  0  0  0  0  0  0
  2  1  2  6  0  0  0
  2  3  1  0  0  0  0
  3  4  1  0  0  0  0
  5  8  1  0  0  0  0
  5  2  1  0  0  0  0
  6 11  1  0  0  0  0
  7  6  2  0  0  0  0
  7  8  1  0  0  0  0
  8  9  2  0  0  0  0
  9 10  1  0  0  0  0
 10 14  1  0  0  0  0
 11 10  2  0  0  0  0
 12  6  1  0  0  0  0
 13  7  1  0  0  0  0
 15  2  1  0  0  0  0
 15 16  1  0  0  0  0
 16 18  1  0  0  0  0
 17 16  2  0  0  0  0
 18 23  1  0  0  0  0
 18 19  1  0  0  0  0
 19 20  1  0  0  0  0
 20 21  1  0  0  0  0
 22 21  1  0  0  0  0
 23 22  1  0  0  0  0
M  END
>  <minimizedAffinity>
-4.78027487

$$$$

 OpenBabel03242522523D

 23 24  0  0  0  0  0  0  0  0999 V2000
   39.1090   29.2210   40.9740 O   0  0  0  0  0  0  0  0  0  0  0  0
   37.8720   29.2720   41.8960 P   0  0  2  0  0  0  0  0  0  0  0  0
   38.4280   29.8250   43.3840 O   0  0  0  0  0  0  0  0  0  0  0  0
   37.7270   29.9990   44.0420 H   0  0  0  0  0  0  0  0  0  0  0  0
   37.2580   27.7070   42.0500 O   0  0  0  0  0  0  0  0  0  0  0  0
   38.5470   24.3230   42.3380 C   0  0  0  0  0  0  0  0  0  0  0  0
   37.7580   25.4200   41.9510 C   0  0  0  0  0  0  0  0  0  0  0  0
   38.0610   26.6610   42.4560 C   0  0  0  0  0  0  0  0  0  0  0  0
   39.1100   26.7600   43.3040 N   0  0  0  0  0  0  0  0  0  0  0  0
   39.8650   25.7200   43.6770 C   0  0  0  0  0  0  0  0  0  0  0  0
   39.5770   24.4890   43.1860 N   0  0  0  0  0  0  0  0  0  0  0  0
   38.3960   23.3060   42.0010 H   0  0  0  0  0  0  0  0  0  0  0  0
   36.9970   25.1170   41.2810 H   0  0  0  0  0  0  0  0  0  0  0  0
   40.6580   25.9950   44.3600 H   0  0  0  0  0  0  0  0  0  0  0  0
   36.7480   30.2810   41.2250 O   0  0  0  0  0  0  0  0  0  0  0  0
   36.6980   30.9230   40.0380 C   0  0  0  0  0  0  0  0  0  0  0  0
   36.0860   30.2600   39.1260 O   0  0  0  0  0  0  0  0  0  0  0  0
   36.9640   32.0450   39.1010 C   0  0  0  0  0  3  0  0  0  0  0  0
   37.8740   31.6290   37.9800 C   0  0  0  0  0  2  0  0  0  0  0  0
   39.3120   31.5150   38.2960 C   0  0  0  0  0  2  0  0  0  0  0  0
   39.8540   32.6290   39.1510 C   0  0  0  0  0  2  0  0  0  0  0  0
   38.9790   32.8920   40.3270 C   0  0  0  0  0  2  0  0  0  0  0  0
   37.5480   33.1650   39.9330 C   0  0  0  0  0  2  0  0  0  0  0  0
  2  1  2  6  0  0  0
  2  5  1  0  0  0  0
  2  3  1  0  0  0  0
  3  4  1  0  0  0  0
  5  8  1  0  0  0  0
  6 11  1  0  0  0  0
  7  6  2  0  0  0  0
  7  8  1  0  0  0  0
  8  9  2  0  0  0  0
  9 10  1  0  0  0  0
 10 14  1  0  0  0  0
 11 10  2  0  0  0  0
 12  6  1  0  0  0  0
 13  7  1  0  0  0  0
 15  2  1  0  0  0  0
 16 15  1  0  0  0  0
 17 16  2  0  0  0  0
 18 23  1  0  0  0  0
 18 16  1  0  0  0  0
 19 20  1  0  0  0  0
 19 18  1  0  0  0  0
 20 21  1  0  0  0  0
 21 22  1  0  0  0  0
 23 22  1  0  0  0  0
M  END
>  <minimizedAffinity>
-4.74863529

$$$$

 OpenBabel03242522523D

 23 24  0  0  0  0  0  0  0  0999 V2000
   37.8540   29.4200   37.1700 O   0  0  0  0  0  0  0  0  0  0  0  0
   36.9590   29.9080   38.3310 P   0  0  2  0  0  0  0  0  0  0  0  0
   35.4210   29.3090   38.0110 O   0  0  0  0  0  0  0  0  0  0  0  0
   34.7680   29.4620   38.7220 H   0  0  0  0  0  0  0  0  0  0  0  0
   36.9410   31.5960   38.3140 O   0  0  0  0  0  0  0  0  0  0  0  0
   38.6020   33.9960   40.4760 C   0  0  0  0  0  0  0  0  0  0  0  0
   37.5980   33.2260   39.8630 C   0  0  0  0  0  0  0  0  0  0  0  0
   37.9590   32.3280   38.8890 C   0  0  0  0  0  0  0  0  0  0  0  0
   39.2700   32.2320   38.5710 N   0  0  0  0  0  0  0  0  0  0  0  0
   40.2310   32.9620   39.1500 C   0  0  0  0  0  0  0  0  0  0  0  0
   39.8890   33.8530   40.1130 N   0  0  0  0  0  0  0  0  0  0  0  0
   38.4280   34.7300   41.2510 H   0  0  0  0  0  0  0  0  0  0  0  0
   36.6480   33.4590   40.2660 H   0  0  0  0  0  0  0  0  0  0  0  0
   41.2190   32.7460   38.7650 H   0  0  0  0  0  0  0  0  0  0  0  0
   37.5770   29.3400   39.7550 O   0  0  0  0  0  0  0  0  0  0  0  0
   37.0980   29.3430   41.0180 C   0  0  0  0  0  0  0  0  0  0  0  0
   35.8550   29.6520   41.0900 O   0  0  0  0  0  0  0  0  0  0  0  0
   37.1860   29.1830   42.4920 C   0  0  0  0  0  3  0  0  0  0  0  0
   38.5840   29.4170   42.9940 C   0  0  0  0  0  2  0  0  0  0  0  0
   39.5570   28.3250   42.7890 C   0  0  0  0  0  2  0  0  0  0  0  0
   39.0200   26.9480   43.0740 C   0  0  0  0  0  2  0  0  0  0  0  0
   37.6980   26.7310   42.4250 C   0  0  0  0  0  2  0  0  0  0  0  0
   36.6890   27.7880   42.7990 C   0  0  0  0  0  2  0  0  0  0  0  0
  2  1  2  6  0  0  0
  2 15  1  0  0  0  0
  3  2  1  0  0  0  0
  3  4  1  0  0  0  0
  5  2  1  0  0  0  0
  5  8  1  0  0  0  0
  6 12  1  0  0  0  0
  7 13  1  0  0  0  0
  7  6  2  0  0  0  0
  8  7  1  0  0  0  0
  9  8  2  0  0  0  0
  9 10  1  0  0  0  0
 10 11  2  0  0  0  0
 11  6  1  0  0  0  0
 14 10  1  0  0  0  0
 15 16  1  0  0  0  0
 16 17  2  0  0  0  0
 16 18  1  0  0  0  0
 18 23  1  0  0  0  0
 18 19  1  0  0  0  0
 20 19  1  0  0  0  0
 20 21  1  0  0  0  0
 22 23  1  0  0  0  0
 22 21  1  0  0  0  0
M  END
>  <minimizedAffinity>
-4.7457695

$$$$

 OpenBabel03242522523D

 23 24  0  0  0  0  0  0  0  0999 V2000
   37.4080   31.3440   38.6160 O   0  0  0  0  0  0  0  0  0  0  0  0
   37.3400   31.8470   40.0750 P   0  0  2  0  0  0  0  0  0  0  0  0
   36.9290   33.4750   39.9840 O   0  0  0  0  0  0  0  0  0  0  0  0
   36.7560   33.9000   40.8460 H   0  0  0  0  0  0  0  0  0  0  0  0
   38.8680   31.6700   40.7700 O   0  0  0  0  0  0  0  0  0  0  0  0
   42.2920   32.1990   39.6800 C   0  0  0  0  0  0  0  0  0  0  0  0
   41.1410   31.5890   40.2070 C   0  0  0  0  0  0  0  0  0  0  0  0
   39.9710   32.3080   40.2420 C   0  0  0  0  0  0  0  0  0  0  0  0
   39.9920   33.5740   39.7650 N   0  0  0  0  0  0  0  0  0  0  0  0
   41.0840   34.1610   39.2620 C   0  0  0  0  0  0  0  0  0  0  0  0
   42.2460   33.4620   39.2200 N   0  0  0  0  0  0  0  0  0  0  0  0
   43.2610   31.7250   39.6050 H   0  0  0  0  0  0  0  0  0  0  0  0
   41.3490   30.6000   40.5170 H   0  0  0  0  0  0  0  0  0  0  0  0
   40.9050   35.1750   38.9290 H   0  0  0  0  0  0  0  0  0  0  0  0
   36.2150   30.9540   40.8940 O   0  0  0  0  0  0  0  0  0  0  0  0
   36.1240   29.6340   41.1630 C   0  0  0  0  0  0  0  0  0  0  0  0
   35.1470   29.0580   40.5630 O   0  0  0  0  0  0  0  0  0  0  0  0
   36.5340   28.3590   41.8050 C   0  0  0  0  0  3  0  0  0  0  0  0
   37.2730   28.5970   43.0930 C   0  0  0  0  0  2  0  0  0  0  0  0
   38.6810   29.0280   42.9830 C   0  0  0  0  0  2  0  0  0  0  0  0
   39.4800   28.2950   41.9400 C   0  0  0  0  0  2  0  0  0  0  0  0
   38.7510   28.2230   40.6430 C   0  0  0  0  0  2  0  0  0  0  0  0
   37.3740   27.6210   40.7860 C   0  0  0  0  0  2  0  0  0  0  0  0
  2  1  2  6  0  0  0
  2  5  1  0  0  0  0
  2 15  1  0  0  0  0
  3  2  1  0  0  0  0
  3  4  1  0  0  0  0
  6  7  1  0  0  0  0
  7  8  2  0  0  0  0
  7 13  1  0  0  0  0
  8  5  1  0  0  0  0
  9  8  1  0  0  0  0
 10  9  2  0  0  0  0
 11 10  1  0  0  0  0
 11  6  2  0  0  0  0
 12  6  1  0  0  0  0
 14 10  1  0  0  0  0
 15 16  1  0  0  0  0
 16 18  1  0  0  0  0
 17 16  2  0  0  0  0
 18 19  1  0  0  0  0
 20 19  1  0  0  0  0
 21 20  1  0  0  0  0
 22 23  1  0  0  0  0
 22 21  1  0  0  0  0
 23 18  1  0  0  0  0
M  END
>  <minimizedAffinity>
-4.73234367

$$$$

 OpenBabel03242522523D

 23 24  0  0  0  0  0  0  0  0999 V2000
   39.1980   30.4280   42.8310 O   0  0  0  0  0  0  0  0  0  0  0  0
   38.2980   29.2540   42.3870 P   0  0  2  0  0  0  0  0  0  0  0  0
   36.7150   29.7740   42.6160 O   0  0  0  0  0  0  0  0  0  0  0  0
   36.0320   29.1600   42.2820 H   0  0  0  0  0  0  0  0  0  0  0  0
   38.6240   27.9290   43.3800 O   0  0  0  0  0  0  0  0  0  0  0  0
   36.9980   24.9590   42.0650 C   0  0  0  0  0  0  0  0  0  0  0  0
   37.2040   26.2670   42.5360 C   0  0  0  0  0  0  0  0  0  0  0  0
   38.4690   26.6370   42.9230 C   0  0  0  0  0  0  0  0  0  0  0  0
   39.4550   25.7150   42.8280 N   0  0  0  0  0  0  0  0  0  0  0  0
   39.2650   24.4680   42.3800 C   0  0  0  0  0  0  0  0  0  0  0  0
   38.0220   24.0890   41.9950 N   0  0  0  0  0  0  0  0  0  0  0  0
   36.0460   24.5660   41.7360 H   0  0  0  0  0  0  0  0  0  0  0  0
   36.3010   26.8180   42.5220 H   0  0  0  0  0  0  0  0  0  0  0  0
   40.1720   23.8770   42.3760 H   0  0  0  0  0  0  0  0  0  0  0  0
   38.6250   28.8990   40.8060 O   0  0  0  0  0  0  0  0  0  0  0  0
   39.0670   29.6560   39.7780 C   0  0  0  0  0  0  0  0  0  0  0  0
   40.2810   29.4060   39.4460 O   0  0  0  0  0  0  0  0  0  0  0  0
   38.9500   30.6960   38.7240 C   0  0  0  0  0  3  0  0  0  0  0  0
   39.6660   31.9610   39.1090 C   0  0  0  0  0  2  0  0  0  0  0  0
   38.9900   32.8370   40.0880 C   0  0  0  0  0  2  0  0  0  0  0  0
   37.5120   33.0080   39.8580 C   0  0  0  0  0  2  0  0  0  0  0  0
   36.8390   31.7000   39.6280 C   0  0  0  0  0  2  0  0  0  0  0  0
   37.4700   30.9150   38.5030 C   0  0  0  0  0  2  0  0  0  0  0  0
  2  3  1  0  0  0  0
  2  1  2  1  0  0  0
  2  5  1  0  0  0  0
  4  3  1  0  0  0  0
  6  7  1  0  0  0  0
  7  8  2  0  0  0  0
  8  5  1  0  0  0  0
  9  8  1  0  0  0  0
 10  9  2  0  0  0  0
 11  6  2  0  0  0  0
 11 10  1  0  0  0  0
 12  6  1  0  0  0  0
 13  7  1  0  0  0  0
 14 10  1  0  0  0  0
 15  2  1  0  0  0  0
 16 15  1  0  0  0  0
 17 16  2  0  0  0  0
 18 19  1  0  0  0  0
 18 16  1  0  0  0  0
 19 20  1  0  0  0  0
 21 20  1  0  0  0  0
 22 21  1  0  0  0  0
 23 18  1  0  0  0  0
 23 22  1  0  0  0  0
M  END
>  <minimizedAffinity>
-4.70863676

$$$$

 OpenBabel03242522523D

 23 24  0  0  0  0  0  0  0  0999 V2000
   36.1900   27.0310   43.6560 O   0  0  0  0  0  0  0  0  0  0  0  0
   37.0000   27.9850   42.7520 P   0  0  2  0  0  0  0  0  0  0  0  0
   37.3010   29.3550   43.6800 O   0  0  0  0  0  0  0  0  0  0  0  0
   37.8940   30.0090   43.2610 H   0  0  0  0  0  0  0  0  0  0  0  0
   36.0510   28.3850   41.4150 O   0  0  0  0  0  0  0  0  0  0  0  0
   36.7670   30.3090   38.4190 C   0  0  0  0  0  0  0  0  0  0  0  0
   36.4550   29.2340   39.2700 C   0  0  0  0  0  0  0  0  0  0  0  0
   36.3560   29.4690   40.6190 C   0  0  0  0  0  0  0  0  0  0  0  0
   36.5660   30.7310   41.0590 N   0  0  0  0  0  0  0  0  0  0  0  0
   36.8630   31.7580   40.2550 C   0  0  0  0  0  0  0  0  0  0  0  0
   36.9640   31.5420   38.9200 N   0  0  0  0  0  0  0  0  0  0  0  0
   36.8690   30.2350   37.3450 H   0  0  0  0  0  0  0  0  0  0  0  0
   36.3290   28.3420   38.7160 H   0  0  0  0  0  0  0  0  0  0  0  0
   36.9940   32.6910   40.7890 H   0  0  0  0  0  0  0  0  0  0  0  0
   38.3890   27.2220   42.2810 O   0  0  0  0  0  0  0  0  0  0  0  0
   38.7630   25.9240   42.2990 C   0  0  0  0  0  0  0  0  0  0  0  0
   39.5640   25.6380   43.2600 O   0  0  0  0  0  0  0  0  0  0  0  0
   38.7840   24.5210   41.8100 C   0  0  0  0  0  3  0  0  0  0  0  0
   39.4360   24.4140   40.4590 C   0  0  0  0  0  2  0  0  0  0  0  0
   38.6310   24.8370   39.2960 C   0  0  0  0  0  2  0  0  0  0  0  0
   37.1960   24.3810   39.3280 C   0  0  0  0  0  2  0  0  0  0  0  0
   36.5660   24.6510   40.6500 C   0  0  0  0  0  2  0  0  0  0  0  0
   37.3460   24.0530   41.7960 C   0  0  0  0  0  2  0  0  0  0  0  0
  2  1  2  1  0  0  0
  2  3  1  0  0  0  0
  4  3  1  0  0  0  0
  5  2  1  0  0  0  0
  6 11  2  0  0  0  0
  6  7  1  0  0  0  0
  7  8  2  0  0  0  0
  8  9  1  0  0  0  0
  8  5  1  0  0  0  0
 10 14  1  0  0  0  0
 10  9  2  0  0  0  0
 11 10  1  0  0  0  0
 12  6  1  0  0  0  0
 13  7  1  0  0  0  0
 15 16  1  0  0  0  0
 15  2  1  0  0  0  0
 16 17  2  0  0  0  0
 18 16  1  0  0  0  0
 19 18  1  0  0  0  0
 20 21  1  0  0  0  0
 20 19  1  0  0  0  0
 21 22  1  0  0  0  0
 22 23  1  0  0  0  0
 23 18  1  0  0  0  0
M  END
>  <minimizedAffinity>
-4.70532179

$$$$
