
     RDKit          3D

 34 35  0  0  0  0  0  0  0  0999 V2000
   46.5344   33.6265   44.3369 C   0  0  0  0  0  0  0  0  0  0  0  0
   46.2439   33.2138   45.6486 C   0  0  0  0  0  0  0  0  0  0  0  0
   45.2991   33.9066   46.3654 C   0  0  0  0  0  0  0  0  0  0  0  0
   44.6936   34.9572   45.7640 N   0  0  0  0  0  0  0  0  0  0  0  0
   44.9648   35.3556   44.5156 C   0  0  0  0  0  0  0  0  0  0  0  0
   45.8956   34.6815   43.7969 N   0  0  0  0  0  0  0  0  0  0  0  0
   45.0494   33.4665   47.6478 O   0  0  0  0  0  0  0  0  0  0  0  0
   45.3361   30.8670   47.4643 O   0  0  0  0  0  0  0  0  0  0  0  0
   45.8136   32.0962   48.2684 P   0  0  2  0  0  0  0  0  0  0  0  0
   45.3256   31.8283   49.8548 O   0  0  0  0  0  0  0  0  0  0  0  0
   47.4563   32.2219   48.1226 O   0  0  0  0  0  0  0  0  0  0  0  0
   48.4676   31.4328   48.5453 C   0  0  0  0  0  0  0  0  0  0  0  0
   49.2101   31.9881   49.4325 O   0  0  0  0  0  0  0  0  0  0  0  0
   47.2580   33.1538   43.6879 H   0  0  0  0  0  0  0  0  0  0  0  0
   46.8281   32.3735   45.9150 H   0  0  0  0  0  0  0  0  0  0  0  0
   44.3804   36.2130   44.2084 H   0  0  0  0  0  0  0  0  0  0  0  0
   45.6500   32.4884   50.4983 H   0  0  0  0  0  0  0  0  0  0  0  0
   49.2854   30.1934   48.5782 C   0  0  0  0  0  0  0  0  0  0  0  0
   48.4695   28.9984   48.9872 C   0  0  0  0  0  0  0  0  0  0  0  0
   48.1583   28.8642   50.4241 C   0  0  0  0  0  0  0  0  0  0  0  0
   49.3104   29.1698   51.3446 C   0  0  0  0  0  0  0  0  0  0  0  0
   49.9846   30.4442   50.9718 C   0  0  0  0  0  0  0  0  0  0  0  0
   50.4302   30.4632   49.5300 C   0  0  0  0  0  0  0  0  0  0  0  0
   49.7534   29.8956   47.6331 H   0  0  0  0  0  0  0  0  0  0  0  0
   47.5313   28.9767   48.4006 H   0  0  0  0  0  0  0  0  0  0  0  0
   49.0066   28.0583   48.6550 H   0  0  0  0  0  0  0  0  0  0  0  0
   47.9355   27.7696   50.6092 H   0  0  0  0  0  0  0  0  0  0  0  0
   47.2276   29.3746   50.7295 H   0  0  0  0  0  0  0  0  0  0  0  0
   48.8464   29.3230   52.3584 H   0  0  0  0  0  0  0  0  0  0  0  0
   50.0531   28.3566   51.3438 H   0  0  0  0  0  0  0  0  0  0  0  0
   49.3931   31.3372   51.2282 H   0  0  0  0  0  0  0  0  0  0  0  0
   50.9186   30.5291   51.5824 H   0  0  0  0  0  0  0  0  0  0  0  0
   51.2923   29.7828   49.3767 H   0  0  0  0  0  0  0  0  0  0  0  0
   50.7974   31.4879   49.3130 H   0  0  0  0  0  0  0  0  0  0  0  0
  1  2  2  0
  2  3  1  0
  3  7  1  0
  4  3  2  0
  5  4  1  0
  6  1  1  0
  6  5  2  0
  9  7  1  6
  9  8  2  0
  9 10  1  0
 11  9  1  0
 11 12  1  0
 12 13  2  0
  1 14  1  0
  2 15  1  0
  5 16  1  0
 10 17  1  0
 18 19  1  0
 19 20  1  0
 20 21  1  0
 21 22  1  0
 22 23  1  0
 23 18  1  0
 18 24  1  0
 19 25  1  0
 19 26  1  0
 20 27  1  0
 20 28  1  0
 21 29  1  0
 21 30  1  0
 22 31  1  0
 22 32  1  0
 23 33  1  0
 23 34  1  0
 12 18  1  0
M  ISO  4  14  14  15  14  16  14  17   3
M  END
>  <DihAtoms>  (1) 
10,11,17,18

>  <DihDeg>  (1) 
179.48205074285886

$$$$
