
 OpenBabel03252508343D

 32 34  0  0  1  0  0  0  0  0999 V2000
   44.7650   34.3700   41.5710 N   0  0  0  0  0  0  0  0  0  0  0  0
   45.9310   33.8770   40.8740 C   0  0  1  0  0  0  0  0  0  0  0  0
   45.7200   33.7830   39.3950 C   0  0  0  0  0  0  0  0  0  0  0  0
   44.4610   33.3460   38.9610 N   0  0  0  0  0  0  0  0  0  0  0  0
   43.3540   33.5910   39.7700 C   0  0  0  0  0  0  0  0  0  0  0  0
   43.6500   34.7240   40.7570 C   0  0  0  0  0  0  0  0  0  0  0  0
   46.1790   32.8800   41.2620 H   0  0  0  0  0  0  0  0  0  0  0  0
   46.4950   33.1060   38.9780 H   0  0  0  0  0  0  0  0  0  0  0  0
   45.9190   34.7880   38.9490 H   0  0  0  0  0  0  0  0  0  0  0  0
   44.2710   33.7070   37.9880 H   0  0  0  0  0  0  0  0  0  0  0  0
   43.1640   32.6960   40.4070 H   0  0  0  0  0  0  0  0  0  0  0  0
   42.3960   33.7870   39.2550 H   0  0  0  0  0  0  0  0  0  0  0  0
   43.9260   35.6190   40.1630 H   0  0  0  0  0  0  0  0  0  0  0  0
   42.7540   34.9490   41.3810 H   0  0  0  0  0  0  0  0  0  0  0  0
   44.4350   35.6280   43.5750 C   0  0  0  0  0  0  0  0  0  0  0  0
   44.8510   34.4510   42.9790 C   0  0  0  0  0  0  0  0  0  0  0  0
   45.3260   33.4250   43.8280 C   0  0  0  0  0  0  0  0  0  0  0  0
   45.3580   33.6270   45.1660 N   0  0  0  0  0  0  0  0  0  0  0  0
   44.9450   34.7860   45.7010 C   0  0  0  0  0  0  0  0  0  0  0  0
   44.4930   35.7640   44.9250 N   0  0  0  0  0  0  0  0  0  0  0  0
   44.0610   36.4520   42.9850 H   0  0  0  0  0  0  0  0  0  0  0  0
   45.6330   32.5360   43.2970 H   0  0  0  0  0  0  0  0  0  0  0  0
   45.0170   34.8310   46.7790 H   0  0  0  0  0  0  0  0  0  0  0  0
   47.0420   34.8720   41.0940 C   0  0  0  0  0  0  0  0  0  0  0  0
   46.9200   35.3850   42.0850 H   0  0  0  0  0  0  0  0  0  0  0  0
   46.9530   35.6460   40.2970 H   0  0  0  0  0  0  0  0  0  0  0  0
   48.4180   34.3120   40.9960 C   0  0  0  0  0  0  0  0  0  0  0  0
   49.3670   35.2400   41.7080 C   0  0  0  0  0  0  0  0  0  0  0  0
   50.3000   34.5960   42.6630 C   0  0  0  0  0  0  0  0  0  0  0  0
   50.8100   33.2450   42.3190 C   0  0  0  0  0  0  0  0  0  0  0  0
   49.9660   32.4870   41.3370 C   0  0  0  0  0  0  0  0  0  0  0  0
   48.5290   32.9100   41.5580 C   0  0  0  0  0  0  0  0  0  0  0  0
  1 16  1  0  0  0  0
  2 24  1  0  0  0  0
  2  7  1  1  0  0  0
  2  1  1  0  0  0  0
  3  2  1  0  0  0  0
  4  3  1  0  0  0  0
  4  5  1  0  0  0  0
  5 11  1  0  0  0  0
  5  6  1  0  0  0  0
  6 14  1  0  0  0  0
  6  1  1  0  0  0  0
  8  3  1  0  0  0  0
  9  3  1  0  0  0  0
 10  4  1  0  0  0  0
 12  5  1  0  0  0  0
 13  6  1  0  0  0  0
 15 20  1  0  0  0  0
 16 15  2  0  0  0  0
 16 17  1  0  0  0  0
 17 18  2  0  0  0  0
 18 19  1  0  0  0  0
 19 23  1  0  0  0  0
 20 19  2  0  0  0  0
 21 15  1  0  0  0  0
 22 17  1  0  0  0  0
 24 25  1  0  0  0  0
 26 24  1  0  0  0  0
 27 24  1  0  0  0  0
 27 32  1  0  0  0  0
 27 28  1  0  0  0  0
 28 29  1  0  0  0  0
 30 29  1  0  0  0  0
 31 32  1  0  0  0  0
 31 30  1  0  0  0  0
M  END
>  <minimizedAffinity>
-5.07582998

>  <minimizedRMSD>
1.4672097

$$$$
