
 OpenBabel03252508573D

 21 22  0  0  0  0  0  0  0  0999 V2000
   46.3580   35.0550   41.8300 C   0  0  0  0  0  0  0  0  0  0  0  0
   46.0340   34.1110   41.3410 H   0  0  0  0  0  0  0  0  0  0  0  0
   45.8850   35.8890   41.3070 H   0  0  0  0  0  0  0  0  0  0  0  0
   44.4590   35.9480   44.9560 C   0  0  0  0  0  0  0  0  0  0  0  0
   44.9790   35.9970   43.6550 C   0  0  0  0  0  0  0  0  0  0  0  0
   45.8180   34.9860   43.2120 C   0  0  0  0  0  0  0  0  0  0  0  0
   46.0920   33.9840   44.0920 N   0  0  0  0  0  0  0  0  0  0  0  0
   45.5820   33.9570   45.3350 C   0  0  0  0  0  0  0  0  0  0  0  0
   44.7770   34.9160   45.7760 N   0  0  0  0  0  0  0  0  0  0  0  0
   43.8190   36.7900   45.1850 H   0  0  0  0  0  0  0  0  0  0  0  0
   44.7550   36.7980   42.9660 H   0  0  0  0  0  0  0  0  0  0  0  0
   45.8280   33.1290   46.0160 H   0  0  0  0  0  0  0  0  0  0  0  0
   47.8570   35.1850   41.9030 C   0  0  0  0  0  0  0  0  0  0  0  0
   48.1110   36.2390   41.7020 H   0  0  0  0  0  0  0  0  0  0  0  0
   48.1640   34.9820   42.9500 H   0  0  0  0  0  0  0  0  0  0  0  0
   48.6010   34.3100   40.9340 C   0  0  0  0  0  3  0  0  0  0  0  0
   48.9420   33.0300   41.6420 C   0  0  0  0  0  2  0  0  0  0  0  0
   48.7720   31.8130   40.7690 C   0  0  0  0  0  2  0  0  0  0  0  0
   49.4060   32.1660   39.4250 C   0  0  0  0  0  2  0  0  0  0  0  0
   48.4770   33.1350   38.7500 C   0  0  0  0  0  2  0  0  0  0  0  0
   47.8120   34.1040   39.6610 C   0  0  0  0  0  2  0  0  0  0  0  0
  1 13  1  0  0  0  0
  1  6  1  0  0  0  0
  2  1  1  0  0  0  0
  3  1  1  0  0  0  0
  4 10  1  0  0  0  0
  4  9  1  0  0  0  0
  5  4  2  0  0  0  0
  6  5  1  0  0  0  0
  6  7  2  0  0  0  0
  7  8  1  0  0  0  0
  8  9  2  0  0  0  0
  8 12  1  0  0  0  0
 11  5  1  0  0  0  0
 13 15  1  0  0  0  0
 14 13  1  0  0  0  0
 16 17  1  0  0  0  0
 16 13  1  0  0  0  0
 18 17  1  0  0  0  0
 19 18  1  0  0  0  0
 20 19  1  0  0  0  0
 20 21  1  0  0  0  0
 21 16  1  0  0  0  0
M  END
>  <minimizedAffinity>
-4.24153566

>  <minimizedRMSD>
2.21408463

$$$$
