REMARK  Name = 
REMARK  6 active torsions:
REMARK  status: ('A' for Active; 'I' for Inactive)
REMARK    1  A    between atoms: C_1  and  C_2
REMARK    2  A    between atoms: C_1  and  S_11
REMARK    3  A    between atoms: C_2  and  C_5
REMARK    4  A    between atoms: S_11  and  C_12
REMARK    5  A    between atoms: C_16  and  C_18
REMARK    6  A    between atoms: C_18  and  C_29
REMARK                            x       y       z     vdW  Elec       q    Type
REMARK                         _______ _______ _______ _____ _____    ______ ____
ROOT
ATOM      1  C   UNL     1      41.896  35.235  41.527  0.00  0.00    +0.000 C 
ATOM      2  H   UNL     1      41.989  35.564  42.588  0.00  0.00    +0.000 HD
ATOM      3  H   UNL     1      41.438  34.204  41.572  0.00  0.00    +0.000 HD
ENDROOT
BRANCH   1   4
ATOM      4  C   UNL     1      40.964  36.102  40.745  0.00  0.00    +0.000 C 
ATOM      5  H   UNL     1      40.223  36.518  41.470  0.00  0.00    +0.000 HD
ATOM      6  H   UNL     1      41.452  36.962  40.260  0.00  0.00    +0.000 HD
BRANCH   4   9
ATOM      7 CL   UNL     1      41.764  36.292  37.815  0.00  0.00    +0.000 Cl
ATOM      8  C   UNL     1      40.466  35.310  38.404  0.00  0.00    +0.000 A 
ATOM      9  C   UNL     1      40.175  35.292  39.786  0.00  0.00    +0.000 A 
ATOM     10  C   UNL     1      39.135  34.491  40.165  0.00  0.00    +0.000 A 
ATOM     11  C   UNL     1      38.342  33.701  39.348  0.00  0.00    +0.000 A 
ATOM     12  C   UNL     1      38.643  33.733  37.996  0.00  0.00    +0.000 A 
ATOM     13 CL   UNL     1      37.698  32.766  36.867  0.00  0.00    +0.000 Cl
ATOM     14  C   UNL     1      39.683  34.523  37.549  0.00  0.00    +0.000 A 
ATOM     15  H   UNL     1      38.887  34.458  41.231  0.00  0.00    +0.000 HD
ATOM     16  H   UNL     1      37.540  33.101  39.748  0.00  0.00    +0.000 HD
ATOM     17  H   UNL     1      39.912  34.541  36.485  0.00  0.00    +0.000 HD
ENDBRANCH   4   9
ENDBRANCH   1   4
BRANCH   1  18
ATOM     18  S   UNL     1      43.526  35.073  40.776  0.00  0.00    +0.000 S 
BRANCH  18  19
ATOM     19  C   UNL     1      44.809  34.717  41.984  0.00  0.00    +0.000 A 
ATOM     20  C   UNL     1      46.106  34.551  41.487  0.00  0.00    +0.000 A 
ATOM     21  C   UNL     1      47.135  34.273  42.388  0.00  0.00    +0.000 A 
ATOM     22  N   UNL     1      46.815  34.179  43.705  0.00  0.00    +0.000 NA
ATOM     23  C   UNL     1      45.564  34.341  44.167  0.00  0.00    +0.000 A 
ATOM     24  N   UNL     1      44.584  34.607  43.296  0.00  0.00    +0.000 NA
ATOM     25  H   UNL     1      46.291  34.640  40.426  0.00  0.00    +0.000 HD
ATOM     26  H   UNL     1      48.140  34.143  42.023  0.00  0.00    +0.000 HD
BRANCH  23  27
ATOM     27  C   UNL     1      45.328  34.220  45.591  0.00  0.00    +0.000 C 
ATOM     28  O   UNL     1      44.564  35.069  46.119  0.00  0.00    +0.000 OA
BRANCH  27  29
ATOM     29  C   UNL     1      45.952  33.139  46.433  0.00  0.00    +0.000 C 
ATOM     30  C   UNL     1      47.413  33.044  46.048  0.00  0.00    +0.000 C 
ATOM     31  C   UNL     1      48.185  32.160  46.970  0.00  0.00    +0.000 C 
ATOM     32  C   UNL     1      48.122  32.674  48.371  0.00  0.00    +0.000 C 
ATOM     33  C   UNL     1      47.158  33.839  48.442  0.00  0.00    +0.000 C 
ATOM     34  C   UNL     1      45.797  33.394  47.898  0.00  0.00    +0.000 C 
ENDBRANCH  27  29
ENDBRANCH  23  27
ENDBRANCH  18  19
ENDBRANCH   1  18
TORSDOF 6
