
 OpenBabel03242521423D

 31 33  0  0  1  0  0  0  0  0999 V2000
   44.6220   35.2320   42.6920 C   0  0  0  0  0  0  0  0  0  0  0  0
   45.7380   34.4310   42.4340 C   0  0  0  0  0  0  0  0  0  0  0  0
   46.4810   33.9620   43.5240 C   0  0  0  0  0  0  0  0  0  0  0  0
   46.0840   34.3060   44.7570 N   0  0  0  0  0  0  0  0  0  0  0  0
   44.9920   35.0870   44.9680 C   0  0  0  0  0  0  0  0  0  0  0  0
   44.2700   35.5450   43.9410 N   0  0  0  0  0  0  0  0  0  0  0  0
   45.9420   34.2310   41.3920 H   0  0  0  0  0  0  0  0  0  0  0  0
   44.6900   35.3530   45.9900 H   0  0  0  0  0  0  0  0  0  0  0  0
   48.7750   33.8580   42.5630 C   0  0  2  0  0  0  0  0  0  0  0  0
   47.6370   33.1300   43.2220 C   0  0  2  0  0  0  0  0  0  0  0  0
   47.3960   32.1150   42.2750 O   0  0  0  0  0  0  0  0  0  0  0  0
   48.6450   31.5940   42.0100 C   0  0  0  0  0  0  0  0  0  0  0  0
   49.6790   32.6420   42.2790 C   0  0  1  0  0  0  0  0  0  0  0  0
   48.4750   34.2750   41.5800 H   0  0  0  0  0  0  0  0  0  0  0  0
   47.9920   32.6440   44.1670 H   0  0  0  0  0  0  0  0  0  0  0  0
   48.8210   30.7450   42.7100 H   0  0  0  0  0  0  0  0  0  0  0  0
   48.7260   31.1550   40.9880 H   0  0  0  0  0  0  0  0  0  0  0  0
   50.2710   32.4840   43.1880 H   0  0  0  0  0  0  0  0  0  0  0  0
   49.3630   34.8000   43.3690 O   0  0  0  0  0  0  0  0  0  0  0  0
   49.0400   35.6990   43.0830 H   0  0  0  0  0  0  0  0  0  0  0  0
   50.4880   32.9280   41.1930 O   0  0  0  0  0  0  0  0  0  0  0  0
   50.6960   33.8880   41.1050 H   0  0  0  0  0  0  0  0  0  0  0  0
   43.8290   35.7450   41.5040 C   0  0  0  0  0  0  0  0  0  0  0  0
   43.4620   36.7620   41.7500 H   0  0  0  0  0  0  0  0  0  0  0  0
   44.4300   35.7000   40.5890 H   0  0  0  0  0  0  0  0  0  0  0  0
   42.6160   34.8640   41.3230 C   0  0  0  0  0  0  0  0  0  0  0  0
   41.3280   35.6320   41.4920 C   0  0  0  0  0  0  0  0  0  0  0  0
   40.3000   35.1860   40.4560 C   0  0  0  0  0  0  0  0  0  0  0  0
   40.7630   35.4960   39.0550 C   0  0  0  0  0  0  0  0  0  0  0  0
   42.2520   35.2650   38.9040 C   0  0  0  0  0  0  0  0  0  0  0  0
   42.6620   34.2550   39.9600 C   0  0  0  0  0  0  0  0  0  0  0  0
  1  6  1  0  0  0  0
  2  1  2  0  0  0  0
  2  3  1  0  0  0  0
  3  4  2  0  0  0  0
  4  5  1  0  0  0  0
  5  8  1  0  0  0  0
  6  5  2  0  0  0  0
  7  2  1  0  0  0  0
  9 14  1  6  0  0  0
  9 10  1  0  0  0  0
  9 19  1  0  0  0  0
 10  3  1  0  0  0  0
 10 15  1  1  0  0  0
 11 10  1  0  0  0  0
 12 11  1  0  0  0  0
 12 13  1  0  0  0  0
 12 16  1  0  0  0  0
 13  9  1  0  0  0  0
 13 18  1  1  0  0  0
 17 12  1  0  0  0  0
 20 19  1  0  0  0  0
 21 13  1  0  0  0  0
 22 21  1  0  0  0  0
 23 24  1  0  0  0  0
 23  1  1  0  0  0  0
 25 23  1  0  0  0  0
 26 27  1  0  0  0  0
 26 23  1  0  0  0  0
 28 27  1  0  0  0  0
 29 28  1  0  0  0  0
 30 29  1  0  0  0  0
 30 31  1  0  0  0  0
 31 26  1  0  0  0  0
M  END
>  <minimizedAffinity>
-5.78744507

>  <minimizedRMSD>
2.61105394

$$$$
