
 OpenBabel03252502363D

 21 22  0  0  1  0  0  0  0  0999 V2000
   46.6830   35.1130   42.0940 C   0  0  2  0  0  0  0  0  0  0  0  0
   46.3030   36.1580   42.0180 H   0  0  0  0  0  0  0  0  0  0  0  0
   45.2530   35.2750   44.0840 C   0  0  0  0  0  0  0  0  0  0  0  0
   46.3170   34.6160   43.4170 C   0  0  0  0  0  0  0  0  0  0  0  0
   46.9400   33.5550   44.0780 C   0  0  0  0  0  0  0  0  0  0  0  0
   46.4850   33.2250   45.3110 N   0  0  0  0  0  0  0  0  0  0  0  0
   45.4790   33.8700   45.9080 C   0  0  0  0  0  0  0  0  0  0  0  0
   44.8490   34.8950   45.3160 N   0  0  0  0  0  0  0  0  0  0  0  0
   44.7310   36.1040   43.6270 H   0  0  0  0  0  0  0  0  0  0  0  0
   47.7560   33.0380   43.5980 H   0  0  0  0  0  0  0  0  0  0  0  0
   45.1000   33.6190   46.9000 H   0  0  0  0  0  0  0  0  0  0  0  0
   46.0420   34.3730   40.9390 C   0  0  0  0  0  3  0  0  0  0  0  0
   46.7450   33.0810   40.6420 C   0  0  0  0  0  2  0  0  0  0  0  0
   45.8760   32.0810   39.9260 C   0  0  0  0  0  2  0  0  0  0  0  0
   44.8290   32.7910   39.0870 C   0  0  0  0  0  2  0  0  0  0  0  0
   43.8830   33.4120   40.0600 C   0  0  0  0  0  2  0  0  0  0  0  0
   44.5590   34.2520   41.0690 C   0  0  0  0  0  2  0  0  0  0  0  0
   48.2040   35.1080   42.0300 C   0  0  0  0  0  0  0  0  0  0  0  0
   48.6710   35.0890   43.0360 H   0  0  0  0  0  0  0  0  0  0  0  0
   48.5840   34.3170   41.3630 H   0  0  0  0  0  0  0  0  0  0  0  0
   48.5070   36.0630   41.5550 H   0  0  0  0  0  0  0  0  0  0  0  0
  1  2  1  6  0  0  0
  1  4  1  0  0  0  0
  3  8  1  0  0  0  0
  4  5  1  0  0  0  0
  4  3  2  0  0  0  0
  5  6  2  0  0  0  0
  6  7  1  0  0  0  0
  7 11  1  0  0  0  0
  8  7  2  0  0  0  0
  9  3  1  0  0  0  0
 10  5  1  0  0  0  0
 12 17  1  0  0  0  0
 12  1  1  0  0  0  0
 13 12  1  0  0  0  0
 14 13  1  0  0  0  0
 15 14  1  0  0  0  0
 15 16  1  0  0  0  0
 16 17  1  0  0  0  0
 18  1  1  0  0  0  0
 18 19  1  0  0  0  0
 20 18  1  0  0  0  0
 21 18  1  0  0  0  0
M  END
>  <minimizedAffinity>
-4.00020409

>  <minimizedRMSD>
0.341574967

$$$$
