
 OpenBabel03252508513D

 25 27  0  0  0  0  0  0  0  0999 V2000
   45.7040   34.0280   41.1890 C   0  0  0  0  0  0  0  0  0  0  0  0
   46.3390   34.6510   42.2580 C   0  0  0  0  0  0  0  0  0  0  0  0
   47.6630   35.0630   42.0760 C   0  0  0  0  0  0  0  0  0  0  0  0
   48.2520   34.8310   40.8730 N   0  0  0  0  0  0  0  0  0  0  0  0
   47.6000   34.2220   39.8630 C   0  0  0  0  0  0  0  0  0  0  0  0
   46.3180   33.8190   40.0260 N   0  0  0  0  0  0  0  0  0  0  0  0
   48.1870   35.5570   42.9010 H   0  0  0  0  0  0  0  0  0  0  0  0
   48.0820   34.0440   38.9130 H   0  0  0  0  0  0  0  0  0  0  0  0
   45.6210   34.8590   43.5170 C   0  0  0  0  0  0  0  0  0  0  0  0
   45.0030   36.0410   43.8500 C   0  0  0  0  0  0  0  0  0  0  0  0
   44.4670   35.7980   45.0910 C   0  0  0  0  0  0  0  0  0  0  0  0
   44.7450   34.5290   45.4980 N   0  0  0  0  0  0  0  0  0  0  0  0
   45.4430   33.9910   44.5240 N   0  0  0  0  0  0  0  0  0  0  0  0
   44.9700   36.9190   43.2540 H   0  0  0  0  0  0  0  0  0  0  0  0
   43.8950   36.4930   45.6970 H   0  0  0  0  0  0  0  0  0  0  0  0
   44.4560   34.0950   46.3950 H   0  0  0  0  0  0  0  0  0  0  0  0
   44.4030   33.6220   41.3650 O   0  0  0  0  0  0  0  0  0  0  0  0
   43.2770   34.2990   40.9930 C   0  0  0  0  0  0  0  0  0  0  0  0
   42.4600   34.9270   41.7440 O   0  0  0  0  0  0  0  0  0  0  0  0
   42.5870   34.5700   39.6750 C   0  0  0  0  0  3  0  0  0  0  0  0
   41.3590   35.4170   39.8960 C   0  0  0  0  0  2  0  0  0  0  0  0
   40.9070   35.8530   38.5150 C   0  0  0  0  0  2  0  0  0  0  0  0
   40.3730   34.6440   37.7940 C   0  0  0  0  0  2  0  0  0  0  0  0
   40.8620   33.3350   38.3140 C   0  0  0  0  0  2  0  0  0  0  0  0
   42.2320   33.3500   38.9150 C   0  0  0  0  0  2  0  0  0  0  0  0
  1 17  1  0  0  0  0
  1  2  1  0  0  0  0
  2  9  1  0  0  0  0
  3  2  2  0  0  0  0
  3  7  1  0  0  0  0
  4  3  1  0  0  0  0
  5  6  1  0  0  0  0
  5  4  2  0  0  0  0
  6  1  2  0  0  0  0
  8  5  1  0  0  0  0
  9 10  1  0  0  0  0
  9 13  2  0  0  0  0
 10 11  2  0  0  0  0
 11 12  1  0  0  0  0
 11 15  1  0  0  0  0
 12 16  1  0  0  0  0
 13 12  1  0  0  0  0
 14 10  1  0  0  0  0
 18 17  1  0  0  0  0
 18 19  2  0  0  0  0
 20 21  1  0  0  0  0
 20 18  1  0  0  0  0
 22 21  1  0  0  0  0
 23 24  1  0  0  0  0
 23 22  1  0  0  0  0
 24 25  1  0  0  0  0
 25 20  1  0  0  0  0
M  END
>  <minimizedAffinity>
-5.69107437

>  <minimizedRMSD>
1.3420471

$$$$
