
 OpenBabel03252504013D

 31 34  0  0  0  0  0  0  0  0999 V2000
   33.4240   28.8420   36.7890 C   0  0  0  0  0  0  0  0  0  0  0  0
   34.1780   29.1720   35.6800 C   0  0  0  0  0  0  0  0  0  0  0  0
   35.5580   29.1750   35.8300 C   0  0  0  0  0  0  0  0  0  0  0  0
   36.0920   28.8610   37.0380 N   0  0  0  0  0  0  0  0  0  0  0  0
   35.3120   28.5450   38.0930 C   0  0  0  0  0  0  0  0  0  0  0  0
   33.9740   28.5320   37.9850 N   0  0  0  0  0  0  0  0  0  0  0  0
   33.7410   29.4230   34.7170 H   0  0  0  0  0  0  0  0  0  0  0  0
   36.2400   29.4190   35.0220 H   0  0  0  0  0  0  0  0  0  0  0  0
   36.3610   26.8990   39.5700 C   0  0  0  0  0  0  0  0  0  0  0  0
   35.8990   28.2050   39.4000 C   0  0  0  0  0  0  0  0  0  0  0  0
   36.0010   29.1150   40.4270 C   0  0  0  0  0  0  0  0  0  0  0  0
   36.5630   28.7260   41.6250 C   0  0  0  0  0  0  0  0  0  0  0  0
   36.7950   29.3610   42.7750 N   0  0  0  0  0  0  0  0  0  0  0  0
   37.3780   28.5280   43.6650 C   0  0  0  0  0  0  0  0  0  0  0  0
   37.5400   27.2970   43.0860 C   0  0  0  0  0  0  0  0  0  0  0  0
   37.0290   27.4270   41.8110 C   0  0  0  0  0  0  0  0  0  0  0  0
   36.9230   26.5130   40.7710 C   0  0  0  0  0  0  0  0  0  0  0  0
   36.3000   26.1550   38.7890 H   0  0  0  0  0  0  0  0  0  0  0  0
   35.6310   30.1120   40.2500 H   0  0  0  0  0  0  0  0  0  0  0  0
   36.5510   30.3790   42.9560 H   0  0  0  0  0  0  0  0  0  0  0  0
   37.6940   28.7220   44.6790 H   0  0  0  0  0  0  0  0  0  0  0  0
   37.9750   26.4020   43.5230 H   0  0  0  0  0  0  0  0  0  0  0  0
   37.2810   25.5000   40.9020 H   0  0  0  0  0  0  0  0  0  0  0  0
   31.9860   28.8520   36.5860 C   0  0  0  0  0  0  0  0  0  0  0  0
   31.3400   27.9030   36.0090 O   0  0  0  0  0  0  0  0  0  0  0  0
   31.2970   30.0630   37.1050 C   0  0  0  0  0  3  0  0  0  0  0  0
   29.9730   29.6310   37.7480 C   0  0  0  0  0  2  0  0  0  0  0  0
   29.2300   30.8030   38.3010 C   0  0  0  0  0  2  0  0  0  0  0  0
   29.8600   32.1250   37.9180 C   0  0  0  0  0  2  0  0  0  0  0  0
   30.2070   32.1920   36.4450 C   0  0  0  0  0  2  0  0  0  0  0  0
   30.9260   30.9740   35.9610 C   0  0  0  0  0  2  0  0  0  0  0  0
  1  6  1  0  0  0  0
  2  3  1  0  0  0  0
  2  1  2  0  0  0  0
  3  4  2  0  0  0  0
  4  5  1  0  0  0  0
  5 10  1  0  0  0  0
  6  5  2  0  0  0  0
  7  2  1  0  0  0  0
  8  3  1  0  0  0  0
  9 17  1  0  0  0  0
 10  9  2  0  0  0  0
 10 11  1  0  0  0  0
 11 12  2  0  0  0  0
 12 16  1  0  0  0  0
 12 13  1  0  0  0  0
 13 20  1  0  0  0  0
 13 14  1  0  0  0  0
 14 21  1  0  0  0  0
 15 22  1  0  0  0  0
 15 14  2  0  0  0  0
 16 15  1  0  0  0  0
 17 23  1  0  0  0  0
 17 16  2  0  0  0  0
 18  9  1  0  0  0  0
 19 11  1  0  0  0  0
 24  1  1  0  0  0  0
 24 26  1  0  0  0  0
 25 24  2  0  0  0  0
 26 27  1  0  0  0  0
 27 28  1  0  0  0  0
 29 28  1  0  0  0  0
 30 29  1  0  0  0  0
 31 30  1  0  0  0  0
 31 26  1  0  0  0  0
M  END
>  <minimizedAffinity>
-6.39670563

$$$$

 OpenBabel03252504013D

 31 34  0  0  0  0  0  0  0  0999 V2000
   36.7520   28.6130   41.8220 C   0  0  0  0  0  0  0  0  0  0  0  0
   35.6100   28.6010   41.0450 C   0  0  0  0  0  0  0  0  0  0  0  0
   35.4490   29.6400   40.1400 C   0  0  0  0  0  0  0  0  0  0  0  0
   36.4030   30.6040   40.0620 N   0  0  0  0  0  0  0  0  0  0  0  0
   37.5020   30.5710   40.8440 C   0  0  0  0  0  0  0  0  0  0  0  0
   37.6920   29.5810   41.7310 N   0  0  0  0  0  0  0  0  0  0  0  0
   34.8520   27.8250   41.1150 H   0  0  0  0  0  0  0  0  0  0  0  0
   34.5890   29.7240   39.4830 H   0  0  0  0  0  0  0  0  0  0  0  0
   38.1650   32.8220   40.1490 C   0  0  0  0  0  0  0  0  0  0  0  0
   38.5320   31.6200   40.7540 C   0  0  0  0  0  0  0  0  0  0  0  0
   39.8080   31.4500   41.2390 C   0  0  0  0  0  0  0  0  0  0  0  0
   40.7220   32.4770   41.1220 C   0  0  0  0  0  0  0  0  0  0  0  0
   41.9990   32.6120   41.4840 N   0  0  0  0  0  0  0  0  0  0  0  0
   42.4610   33.8340   41.1400 C   0  0  0  0  0  0  0  0  0  0  0  0
   41.4560   34.5360   40.5280 C   0  0  0  0  0  0  0  0  0  0  0  0
   40.3720   33.6830   40.5200 C   0  0  0  0  0  0  0  0  0  0  0  0
   39.0820   33.8490   40.0320 C   0  0  0  0  0  0  0  0  0  0  0  0
   37.1740   32.9960   39.7560 H   0  0  0  0  0  0  0  0  0  0  0  0
   40.0470   30.5040   41.6990 H   0  0  0  0  0  0  0  0  0  0  0  0
   42.5640   31.8570   41.9730 H   0  0  0  0  0  0  0  0  0  0  0  0
   43.4420   34.2610   41.2860 H   0  0  0  0  0  0  0  0  0  0  0  0
   41.4900   35.5460   40.1300 H   0  0  0  0  0  0  0  0  0  0  0  0
   38.7960   34.7810   39.5630 H   0  0  0  0  0  0  0  0  0  0  0  0
   36.8790   27.5060   42.7550 C   0  0  0  0  0  0  0  0  0  0  0  0
   36.2030   27.4080   43.8420 O   0  0  0  0  0  0  0  0  0  0  0  0
   37.8670   26.4710   42.3520 C   0  0  0  0  0  3  0  0  0  0  0  0
   37.1510   25.1160   42.2850 C   0  0  0  0  0  2  0  0  0  0  0  0
   38.0870   24.0260   41.8770 C   0  0  0  0  0  2  0  0  0  0  0  0
   39.5280   24.4850   41.8270 C   0  0  0  0  0  2  0  0  0  0  0  0
   39.9230   25.2750   43.0570 C   0  0  0  0  0  2  0  0  0  0  0  0
   38.9260   26.3290   43.4180 C   0  0  0  0  0  2  0  0  0  0  0  0
  1 24  1  0  0  0  0
  2  7  1  0  0  0  0
  2  1  2  0  0  0  0
  3  2  1  0  0  0  0
  4  3  2  0  0  0  0
  4  5  1  0  0  0  0
  5  6  2  0  0  0  0
  6  1  1  0  0  0  0
  8  3  1  0  0  0  0
  9 10  1  0  0  0  0
 10  5  1  0  0  0  0
 10 11  2  0  0  0  0
 11 19  1  0  0  0  0
 12 11  1  0  0  0  0
 12 13  1  0  0  0  0
 13 20  1  0  0  0  0
 14 21  1  0  0  0  0
 14 13  1  0  0  0  0
 15 14  2  0  0  0  0
 16 15  1  0  0  0  0
 16 12  2  0  0  0  0
 17  9  2  0  0  0  0
 17 16  1  0  0  0  0
 18  9  1  0  0  0  0
 22 15  1  0  0  0  0
 23 17  1  0  0  0  0
 24 25  2  0  0  0  0
 26 24  1  0  0  0  0
 26 31  1  0  0  0  0
 27 26  1  0  0  0  0
 28 27  1  0  0  0  0
 29 28  1  0  0  0  0
 29 30  1  0  0  0  0
 30 31  1  0  0  0  0
M  END
>  <minimizedAffinity>
-6.31767797

$$$$

 OpenBabel03252504013D

 31 34  0  0  0  0  0  0  0  0999 V2000
   37.1790   29.0820   41.5680 C   0  0  0  0  0  0  0  0  0  0  0  0
   35.9630   28.9980   40.9210 C   0  0  0  0  0  0  0  0  0  0  0  0
   35.7390   29.8820   39.8750 C   0  0  0  0  0  0  0  0  0  0  0  0
   36.7100   30.7730   39.5430 N   0  0  0  0  0  0  0  0  0  0  0  0
   37.8840   30.8150   40.2060 C   0  0  0  0  0  0  0  0  0  0  0  0
   38.1350   29.9750   41.2240 N   0  0  0  0  0  0  0  0  0  0  0  0
   35.1920   28.2820   41.1940 H   0  0  0  0  0  0  0  0  0  0  0  0
   34.8180   29.9000   39.3010 H   0  0  0  0  0  0  0  0  0  0  0  0
   39.3150   32.7040   40.8180 C   0  0  0  0  0  0  0  0  0  0  0  0
   38.9310   31.7840   39.8410 C   0  0  0  0  0  0  0  0  0  0  0  0
   39.5240   31.8030   38.6000 C   0  0  0  0  0  0  0  0  0  0  0  0
   40.5010   32.7390   38.3290 C   0  0  0  0  0  0  0  0  0  0  0  0
   41.2400   33.0040   37.2510 N   0  0  0  0  0  0  0  0  0  0  0  0
   42.0710   34.0420   37.4910 C   0  0  0  0  0  0  0  0  0  0  0  0
   41.8770   34.4830   38.7730 C   0  0  0  0  0  0  0  0  0  0  0  0
   40.8940   33.6640   39.2920 C   0  0  0  0  0  0  0  0  0  0  0  0
   40.2920   33.6400   40.5430 C   0  0  0  0  0  0  0  0  0  0  0  0
   38.8750   32.7210   41.8040 H   0  0  0  0  0  0  0  0  0  0  0  0
   39.1960   31.0730   37.8780 H   0  0  0  0  0  0  0  0  0  0  0  0
   41.1760   32.4660   36.3360 H   0  0  0  0  0  0  0  0  0  0  0  0
   42.7950   34.5050   36.8360 H   0  0  0  0  0  0  0  0  0  0  0  0
   42.3800   35.2980   39.2850 H   0  0  0  0  0  0  0  0  0  0  0  0
   40.5890   34.3530   41.3010 H   0  0  0  0  0  0  0  0  0  0  0  0
   37.3690   28.1370   42.6560 C   0  0  0  0  0  0  0  0  0  0  0  0
   37.0070   28.3620   43.8670 O   0  0  0  0  0  0  0  0  0  0  0  0
   38.0250   26.8630   42.2600 C   0  0  0  0  0  3  0  0  0  0  0  0
   36.9820   25.7400   42.3200 C   0  0  0  0  0  2  0  0  0  0  0  0
   37.5740   24.4270   41.9240 C   0  0  0  0  0  2  0  0  0  0  0  0
   39.0770   24.4920   41.7590 C   0  0  0  0  0  2  0  0  0  0  0  0
   39.7520   25.2060   42.9120 C   0  0  0  0  0  2  0  0  0  0  0  0
   39.0890   26.4980   43.2660 C   0  0  0  0  0  2  0  0  0  0  0  0
  1 24  1  0  0  0  0
  2  7  1  0  0  0  0
  2  1  2  0  0  0  0
  3  2  1  0  0  0  0
  4  3  2  0  0  0  0
  4  5  1  0  0  0  0
  5  6  2  0  0  0  0
  6  1  1  0  0  0  0
  8  3  1  0  0  0  0
  9 18  1  0  0  0  0
 10  5  1  0  0  0  0
 10  9  2  0  0  0  0
 11 10  1  0  0  0  0
 12 11  2  0  0  0  0
 12 16  1  0  0  0  0
 13 14  1  0  0  0  0
 13 12  1  0  0  0  0
 14 15  2  0  0  0  0
 15 22  1  0  0  0  0
 15 16  1  0  0  0  0
 16 17  2  0  0  0  0
 17  9  1  0  0  0  0
 17 23  1  0  0  0  0
 19 11  1  0  0  0  0
 20 13  1  0  0  0  0
 21 14  1  0  0  0  0
 24 25  2  0  0  0  0
 26 27  1  0  0  0  0
 26 24  1  0  0  0  0
 26 31  1  0  0  0  0
 28 27  1  0  0  0  0
 29 28  1  0  0  0  0
 29 30  1  0  0  0  0
 30 31  1  0  0  0  0
M  END
>  <minimizedAffinity>
-6.23846912

$$$$

 OpenBabel03252504013D

 31 34  0  0  1  0  0  0  0  0999 V2000
   36.5990   28.4920   41.6470 C   0  0  0  0  0  0  0  0  0  0  0  0
   37.1640   29.6920   42.0310 C   0  0  0  0  0  0  0  0  0  0  0  0
   37.0150   30.7670   41.1660 C   0  0  0  0  0  0  0  0  0  0  0  0
   36.3320   30.5920   40.0050 N   0  0  0  0  0  0  0  0  0  0  0  0
   35.7970   29.3980   39.6750 C   0  0  0  0  0  0  0  0  0  0  0  0
   35.9220   28.3350   40.4870 N   0  0  0  0  0  0  0  0  0  0  0  0
   37.7090   29.8220   42.9620 H   0  0  0  0  0  0  0  0  0  0  0  0
   37.4190   31.7520   41.3730 H   0  0  0  0  0  0  0  0  0  0  0  0
   35.7820   29.3520   37.2280 C   0  0  0  0  0  0  0  0  0  0  0  0
   35.0590   29.2160   38.4140 C   0  0  0  0  0  0  0  0  0  0  0  0
   33.7160   28.9220   38.3770 C   0  0  0  0  0  0  0  0  0  0  0  0
   33.0890   28.7640   37.1580 C   0  0  0  0  0  0  0  0  0  0  0  0
   31.8340   28.4840   36.8030 N   0  0  0  0  0  0  0  0  0  0  0  0
   31.7220   28.4360   35.4580 C   0  0  0  0  0  0  0  0  0  0  0  0
   32.9450   28.6930   34.8980 C   0  0  0  0  0  0  0  0  0  0  0  0
   33.7960   28.8960   35.9660 C   0  0  0  0  0  0  0  0  0  0  0  0
   35.1520   29.1930   36.0100 C   0  0  0  0  0  0  0  0  0  0  0  0
   36.8380   29.5810   37.2150 H   0  0  0  0  0  0  0  0  0  0  0  0
   33.1980   28.8260   39.3180 H   0  0  0  0  0  0  0  0  0  0  0  0
   31.0410   28.3230   37.4920 H   0  0  0  0  0  0  0  0  0  0  0  0
   30.8520   28.2360   34.8500 H   0  0  0  0  0  0  0  0  0  0  0  0
   33.2060   28.7310   33.8440 H   0  0  0  0  0  0  0  0  0  0  0  0
   35.7140   29.2980   35.0910 H   0  0  0  0  0  0  0  0  0  0  0  0
   36.7810   27.3940   42.5820 C   0  0  1  0  0  3  0  0  0  0  0  0
   36.2140   27.3360   43.7340 O   0  0  0  0  0  1  0  0  0  0  0  0
   37.6870   26.3180   42.1020 C   0  0  0  0  0  3  0  0  0  0  0  0
   36.9250   24.9870   42.1410 C   0  0  0  0  0  2  0  0  0  0  0  0
   37.7780   23.8590   41.6610 C   0  0  0  0  0  2  0  0  0  0  0  0
   39.2200   24.2670   41.4500 C   0  0  0  0  0  2  0  0  0  0  0  0
   39.7670   25.0670   42.6140 C   0  0  0  0  0  2  0  0  0  0  0  0
   38.8480   26.1610   43.0530 C   0  0  0  0  0  2  0  0  0  0  0  0
  1  2  1  0  0  0  0
  1 24  1  0  0  0  0
  2  7  1  0  0  0  0
  3  8  1  0  0  0  0
  3  2  2  0  0  0  0
  4  3  1  0  0  0  0
  5  4  2  0  0  0  0
  5  6  1  0  0  0  0
  6  1  2  0  0  0  0
  9 10  1  0  0  0  0
 10  5  1  0  0  0  0
 11 10  2  0  0  0  0
 11 19  1  0  0  0  0
 12 11  1  0  0  0  0
 13 12  1  0  0  0  0
 13 20  1  0  0  0  0
 14 13  1  0  0  0  0
 15 14  2  0  0  0  0
 15 16  1  0  0  0  0
 16 17  1  0  0  0  0
 16 12  2  0  0  0  0
 17  9  2  0  0  0  0
 18  9  1  0  0  0  0
 21 14  1  0  0  0  0
 22 15  1  0  0  0  0
 23 17  1  0  0  0  0
 24 25  1  6  0  0  0
 26 27  1  0  0  0  0
 26 24  1  0  0  0  0
 26 31  1  0  0  0  0
 28 27  1  0  0  0  0
 29 28  1  0  0  0  0
 29 30  1  0  0  0  0
 30 31  1  0  0  0  0
M  END
>  <minimizedAffinity>
-6.14587736

$$$$

 OpenBabel03252504013D

 31 34  0  0  0  0  0  0  0  0999 V2000
   38.5550   31.1540   40.9470 C   0  0  0  0  0  0  0  0  0  0  0  0
   38.5070   32.5330   40.9810 C   0  0  0  0  0  0  0  0  0  0  0  0
   37.8310   33.1690   39.9480 C   0  0  0  0  0  0  0  0  0  0  0  0
   37.2610   32.4180   38.9700 N   0  0  0  0  0  0  0  0  0  0  0  0
   37.3360   31.0710   38.9820 C   0  0  0  0  0  0  0  0  0  0  0  0
   37.9810   30.4220   39.9650 N   0  0  0  0  0  0  0  0  0  0  0  0
   38.9670   33.1260   41.7670 H   0  0  0  0  0  0  0  0  0  0  0  0
   37.7340   34.2470   39.8810 H   0  0  0  0  0  0  0  0  0  0  0  0
   35.5320   29.5940   38.2370 C   0  0  0  0  0  0  0  0  0  0  0  0
   36.7150   30.2630   37.9190 C   0  0  0  0  0  0  0  0  0  0  0  0
   37.2540   30.1560   36.6580 C   0  0  0  0  0  0  0  0  0  0  0  0
   36.6170   29.3820   35.7100 C   0  0  0  0  0  0  0  0  0  0  0  0
   36.8850   29.0900   34.4370 N   0  0  0  0  0  0  0  0  0  0  0  0
   35.9370   28.2710   33.9300 C   0  0  0  0  0  0  0  0  0  0  0  0
   35.0060   28.0100   34.9010 C   0  0  0  0  0  0  0  0  0  0  0  0
   35.4370   28.7080   36.0110 C   0  0  0  0  0  0  0  0  0  0  0  0
   34.8970   28.8190   37.2860 C   0  0  0  0  0  0  0  0  0  0  0  0
   35.0760   29.6530   39.2140 H   0  0  0  0  0  0  0  0  0  0  0  0
   38.1690   30.6910   36.4580 H   0  0  0  0  0  0  0  0  0  0  0  0
   37.7290   29.4550   33.9050 H   0  0  0  0  0  0  0  0  0  0  0  0
   35.8550   27.8500   32.9390 H   0  0  0  0  0  0  0  0  0  0  0  0
   34.1170   27.3910   34.8280 H   0  0  0  0  0  0  0  0  0  0  0  0
   33.9800   28.3010   37.5330 H   0  0  0  0  0  0  0  0  0  0  0  0
   39.2720   30.5320   42.0470 C   0  0  0  0  0  0  0  0  0  0  0  0
   40.1500   31.1390   42.7620 O   0  0  0  0  0  0  0  0  0  0  0  0
   38.9100   29.1110   42.2950 C   0  0  0  0  0  3  0  0  0  0  0  0
   37.8000   29.0700   43.3530 C   0  0  0  0  0  2  0  0  0  0  0  0
   37.3800   27.6670   43.6460 C   0  0  0  0  0  2  0  0  0  0  0  0
   38.2770   26.6420   42.9870 C   0  0  0  0  0  2  0  0  0  0  0  0
   39.7460   26.9510   43.1830 C   0  0  0  0  0  2  0  0  0  0  0  0
   40.0840   28.3780   42.8960 C   0  0  0  0  0  2  0  0  0  0  0  0
  1  2  1  0  0  0  0
  1 24  1  0  0  0  0
  2  7  1  0  0  0  0
  3  2  2  0  0  0  0
  4  5  2  0  0  0  0
  4  3  1  0  0  0  0
  5  6  1  0  0  0  0
  6  1  2  0  0  0  0
  8  3  1  0  0  0  0
  9 18  1  0  0  0  0
 10  9  1  0  0  0  0
 10  5  1  0  0  0  0
 11 10  2  0  0  0  0
 12 16  2  0  0  0  0
 12 11  1  0  0  0  0
 13 12  1  0  0  0  0
 14 13  1  0  0  0  0
 14 15  2  0  0  0  0
 15 16  1  0  0  0  0
 16 17  1  0  0  0  0
 17 23  1  0  0  0  0
 17  9  2  0  0  0  0
 19 11  1  0  0  0  0
 20 13  1  0  0  0  0
 21 14  1  0  0  0  0
 22 15  1  0  0  0  0
 24 26  1  0  0  0  0
 24 25  2  0  0  0  0
 26 31  1  0  0  0  0
 26 27  1  0  0  0  0
 27 28  1  0  0  0  0
 29 30  1  0  0  0  0
 29 28  1  0  0  0  0
 31 30  1  0  0  0  0
M  END
>  <minimizedAffinity>
-6.12812996

$$$$

 OpenBabel03252504013D

 31 34  0  0  0  0  0  0  0  0999 V2000
   37.1030   30.5820   39.8890 C   0  0  0  0  0  0  0  0  0  0  0  0
   36.9580   31.8830   40.3280 C   0  0  0  0  0  0  0  0  0  0  0  0
   37.9470   32.7870   39.9660 C   0  0  0  0  0  0  0  0  0  0  0  0
   38.9910   32.3580   39.2110 N   0  0  0  0  0  0  0  0  0  0  0  0
   39.0870   31.0740   38.8060 C   0  0  0  0  0  0  0  0  0  0  0  0
   38.1500   30.1720   39.1380 N   0  0  0  0  0  0  0  0  0  0  0  0
   36.1190   32.2170   40.9320 H   0  0  0  0  0  0  0  0  0  0  0  0
   37.9280   33.8320   40.2580 H   0  0  0  0  0  0  0  0  0  0  0  0
   40.2120   29.2830   37.5750 C   0  0  0  0  0  0  0  0  0  0  0  0
   40.2230   30.6160   37.9880 C   0  0  0  0  0  0  0  0  0  0  0  0
   41.2620   31.4430   37.6310 C   0  0  0  0  0  0  0  0  0  0  0  0
   42.2930   30.9450   36.8620 C   0  0  0  0  0  0  0  0  0  0  0  0
   43.4090   31.4830   36.3680 N   0  0  0  0  0  0  0  0  0  0  0  0
   44.1070   30.5640   35.6650 C   0  0  0  0  0  0  0  0  0  0  0  0
   43.4300   29.3730   35.6920 C   0  0  0  0  0  0  0  0  0  0  0  0
   42.2970   29.6170   36.4410 C   0  0  0  0  0  0  0  0  0  0  0  0
   41.2450   28.7870   36.8050 C   0  0  0  0  0  0  0  0  0  0  0  0
   39.4140   28.6010   37.8330 H   0  0  0  0  0  0  0  0  0  0  0  0
   41.2280   32.4650   37.9730 H   0  0  0  0  0  0  0  0  0  0  0  0
   43.7000   32.4950   36.5140 H   0  0  0  0  0  0  0  0  0  0  0  0
   45.0450   30.6700   35.1420 H   0  0  0  0  0  0  0  0  0  0  0  0
   43.7110   28.4310   35.2290 H   0  0  0  0  0  0  0  0  0  0  0  0
   41.2360   27.7530   36.4840 H   0  0  0  0  0  0  0  0  0  0  0  0
   36.0450   29.6710   40.2920 C   0  0  0  0  0  0  0  0  0  0  0  0
   34.9390   29.5330   39.6530 O   0  0  0  0  0  0  0  0  0  0  0  0
   36.3380   28.8890   41.5220 C   0  0  0  0  0  3  0  0  0  0  0  0
   37.5020   29.5630   42.2600 C   0  0  0  0  0  2  0  0  0  0  0  0
   37.8460   28.8320   43.5150 C   0  0  0  0  0  2  0  0  0  0  0  0
   37.1080   27.5170   43.6440 C   0  0  0  0  0  2  0  0  0  0  0  0
   37.1540   26.7040   42.3670 C   0  0  0  0  0  2  0  0  0  0  0  0
   36.8230   27.5100   41.1520 C   0  0  0  0  0  2  0  0  0  0  0  0
  1 24  1  0  0  0  0
  1  2  1  0  0  0  0
  2  7  1  0  0  0  0
  3  8  1  0  0  0  0
  3  2  2  0  0  0  0
  4  3  1  0  0  0  0
  5  6  1  0  0  0  0
  5  4  2  0  0  0  0
  6  1  2  0  0  0  0
  9 18  1  0  0  0  0
  9 10  1  0  0  0  0
 10  5  1  0  0  0  0
 11 19  1  0  0  0  0
 11 10  2  0  0  0  0
 12 11  1  0  0  0  0
 13 20  1  0  0  0  0
 13 12  1  0  0  0  0
 14 15  2  0  0  0  0
 14 13  1  0  0  0  0
 15 16  1  0  0  0  0
 16 17  1  0  0  0  0
 16 12  2  0  0  0  0
 17  9  2  0  0  0  0
 21 14  1  0  0  0  0
 22 15  1  0  0  0  0
 23 17  1  0  0  0  0
 24 26  1  0  0  0  0
 25 24  2  0  0  0  0
 26 27  1  0  0  0  0
 27 28  1  0  0  0  0
 28 29  1  0  0  0  0
 30 29  1  0  0  0  0
 31 26  1  0  0  0  0
 31 30  1  0  0  0  0
M  END
>  <minimizedAffinity>
-6.07102489

$$$$

 OpenBabel03252504013D

 31 34  0  0  0  0  0  0  0  0999 V2000
   38.5950   29.0850   42.0770 C   0  0  0  0  0  0  0  0  0  0  0  0
   38.0550   29.2880   43.3320 C   0  0  0  0  0  0  0  0  0  0  0  0
   37.2930   28.2580   43.8670 C   0  0  0  0  0  0  0  0  0  0  0  0
   37.1170   27.1210   43.1450 N   0  0  0  0  0  0  0  0  0  0  0  0
   37.6670   26.9710   41.9220 C   0  0  0  0  0  0  0  0  0  0  0  0
   38.4090   27.9460   41.3720 N   0  0  0  0  0  0  0  0  0  0  0  0
   38.2010   30.2010   43.9020 H   0  0  0  0  0  0  0  0  0  0  0  0
   36.8250   28.3160   44.8440 H   0  0  0  0  0  0  0  0  0  0  0  0
   36.7210   25.8340   39.9720 C   0  0  0  0  0  0  0  0  0  0  0  0
   37.4710   25.7360   41.1450 C   0  0  0  0  0  0  0  0  0  0  0  0
   37.9940   24.5240   41.5340 C   0  0  0  0  0  0  0  0  0  0  0  0
   37.7710   23.4070   40.7550 C   0  0  0  0  0  0  0  0  0  0  0  0
   38.1360   22.1290   40.8630 N   0  0  0  0  0  0  0  0  0  0  0  0
   37.6570   21.4120   39.8230 C   0  0  0  0  0  0  0  0  0  0  0  0
   36.9500   22.2420   38.9940 C   0  0  0  0  0  0  0  0  0  0  0  0
   37.0250   23.4890   39.5820 C   0  0  0  0  0  0  0  0  0  0  0  0
   36.4990   24.7140   39.1950 C   0  0  0  0  0  0  0  0  0  0  0  0
   36.2940   26.7660   39.6320 H   0  0  0  0  0  0  0  0  0  0  0  0
   38.5670   24.4960   42.4470 H   0  0  0  0  0  0  0  0  0  0  0  0
   38.7210   21.7400   41.6600 H   0  0  0  0  0  0  0  0  0  0  0  0
   37.7690   20.3590   39.6080 H   0  0  0  0  0  0  0  0  0  0  0  0
   36.4360   21.9900   38.0710 H   0  0  0  0  0  0  0  0  0  0  0  0
   35.9180   24.7910   38.2860 H   0  0  0  0  0  0  0  0  0  0  0  0
   39.3840   30.1890   41.5570 C   0  0  0  0  0  0  0  0  0  0  0  0
   40.6670   30.2260   41.5890 O   0  0  0  0  0  0  0  0  0  0  0  0
   38.5840   31.2950   40.9680 C   0  0  0  0  0  3  0  0  0  0  0  0
   38.1840   30.9000   39.5410 C   0  0  0  0  0  2  0  0  0  0  0  0
   37.3680   31.9690   38.8900 C   0  0  0  0  0  2  0  0  0  0  0  0
   37.3090   33.2380   39.7120 C   0  0  0  0  0  2  0  0  0  0  0  0
   38.6730   33.6590   40.2190 C   0  0  0  0  0  2  0  0  0  0  0  0
   39.4390   32.5320   40.8340 C   0  0  0  0  0  2  0  0  0  0  0  0
  1  2  1  0  0  0  0
  2  3  2  0  0  0  0
  2  7  1  0  0  0  0
  3  8  1  0  0  0  0
  4  3  1  0  0  0  0
  5  4  2  0  0  0  0
  6  5  1  0  0  0  0
  6  1  2  0  0  0  0
  9 10  1  0  0  0  0
 10 11  2  0  0  0  0
 10  5  1  0  0  0  0
 11 19  1  0  0  0  0
 12 13  1  0  0  0  0
 12 11  1  0  0  0  0
 13 20  1  0  0  0  0
 14 13  1  0  0  0  0
 15 16  1  0  0  0  0
 15 14  2  0  0  0  0
 16 12  2  0  0  0  0
 17 16  1  0  0  0  0
 17  9  2  0  0  0  0
 18  9  1  0  0  0  0
 21 14  1  0  0  0  0
 22 15  1  0  0  0  0
 23 17  1  0  0  0  0
 24 25  2  0  0  0  0
 24  1  1  0  0  0  0
 26 24  1  0  0  0  0
 27 26  1  0  0  0  0
 28 27  1  0  0  0  0
 28 29  1  0  0  0  0
 29 30  1  0  0  0  0
 30 31  1  0  0  0  0
 31 26  1  0  0  0  0
M  END
>  <minimizedAffinity>
-5.90279388

$$$$

 OpenBabel03252504013D

 31 34  0  0  0  0  0  0  0  0999 V2000
   37.8410   26.6960   41.5030 C   0  0  0  0  0  0  0  0  0  0  0  0
   37.1980   26.4150   42.6920 C   0  0  0  0  0  0  0  0  0  0  0  0
   36.7770   27.4950   43.4540 C   0  0  0  0  0  0  0  0  0  0  0  0
   37.0130   28.7550   43.0050 N   0  0  0  0  0  0  0  0  0  0  0  0
   37.6460   28.9780   41.8340 C   0  0  0  0  0  0  0  0  0  0  0  0
   38.0680   27.9570   41.0700 N   0  0  0  0  0  0  0  0  0  0  0  0
   37.0140   25.4040   43.0430 H   0  0  0  0  0  0  0  0  0  0  0  0
   36.2620   27.3850   44.4030 H   0  0  0  0  0  0  0  0  0  0  0  0
   36.8650   30.9790   40.6620 C   0  0  0  0  0  0  0  0  0  0  0  0
   37.8990   30.3460   41.3530 C   0  0  0  0  0  0  0  0  0  0  0  0
   39.0930   30.9970   41.5620 C   0  0  0  0  0  0  0  0  0  0  0  0
   39.2590   32.2810   41.0830 C   0  0  0  0  0  0  0  0  0  0  0  0
   40.2710   33.1490   41.1250 N   0  0  0  0  0  0  0  0  0  0  0  0
   39.9340   34.2970   40.4980 C   0  0  0  0  0  0  0  0  0  0  0  0
   38.6540   34.1890   40.0220 C   0  0  0  0  0  0  0  0  0  0  0  0
   38.2370   32.9260   40.3910 C   0  0  0  0  0  0  0  0  0  0  0  0
   37.0350   32.2640   40.1830 C   0  0  0  0  0  0  0  0  0  0  0  0
   35.9130   30.5030   40.4780 H   0  0  0  0  0  0  0  0  0  0  0  0
   39.8630   30.4690   42.1000 H   0  0  0  0  0  0  0  0  0  0  0  0
   41.2060   32.9540   41.5890 H   0  0  0  0  0  0  0  0  0  0  0  0
   40.5180   35.1950   40.3530 H   0  0  0  0  0  0  0  0  0  0  0  0
   38.0780   34.9270   39.4720 H   0  0  0  0  0  0  0  0  0  0  0  0
   36.2320   32.7540   39.6480 H   0  0  0  0  0  0  0  0  0  0  0  0
   38.2640   25.5360   40.7370 C   0  0  0  0  0  0  0  0  0  0  0  0
   39.4910   25.2670   40.4670 O   0  0  0  0  0  0  0  0  0  0  0  0
   37.1530   24.6590   40.2800 C   0  0  0  0  0  3  0  0  0  0  0  0
   37.7450   23.3140   39.8400 C   0  0  0  0  0  2  0  0  0  0  0  0
   36.6790   22.3790   39.3740 C   0  0  0  0  0  2  0  0  0  0  0  0
   35.3250   23.0470   39.2630 C   0  0  0  0  0  2  0  0  0  0  0  0
   35.3980   24.3800   38.5490 C   0  0  0  0  0  2  0  0  0  0  0  0
   36.5040   25.2510   39.0530 C   0  0  0  0  0  2  0  0  0  0  0  0
  1  2  1  0  0  0  0
  2  7  1  0  0  0  0
  2  3  2  0  0  0  0
  3  8  1  0  0  0  0
  4  3  1  0  0  0  0
  5  4  2  0  0  0  0
  6  1  2  0  0  0  0
  6  5  1  0  0  0  0
  9 10  1  0  0  0  0
 10 11  2  0  0  0  0
 10  5  1  0  0  0  0
 11 19  1  0  0  0  0
 12 13  1  0  0  0  0
 12 11  1  0  0  0  0
 13 20  1  0  0  0  0
 14 13  1  0  0  0  0
 15 16  1  0  0  0  0
 15 14  2  0  0  0  0
 16 12  2  0  0  0  0
 17 16  1  0  0  0  0
 17  9  2  0  0  0  0
 18  9  1  0  0  0  0
 21 14  1  0  0  0  0
 22 15  1  0  0  0  0
 23 17  1  0  0  0  0
 24  1  1  0  0  0  0
 25 24  2  0  0  0  0
 26 24  1  0  0  0  0
 27 26  1  0  0  0  0
 28 27  1  0  0  0  0
 29 28  1  0  0  0  0
 30 31  1  0  0  0  0
 30 29  1  0  0  0  0
 31 26  1  0  0  0  0
M  END
>  <minimizedAffinity>
-5.89684105

$$$$

 OpenBabel03252504013D

 31 34  0  0  0  0  0  0  0  0999 V2000
   36.9360   29.5760   39.4000 C   0  0  0  0  0  0  0  0  0  0  0  0
   36.2800   29.3900   38.1990 C   0  0  0  0  0  0  0  0  0  0  0  0
   36.8270   29.9970   37.0780 C   0  0  0  0  0  0  0  0  0  0  0  0
   37.9620   30.7320   37.2110 N   0  0  0  0  0  0  0  0  0  0  0  0
   38.5670   30.8830   38.4080 C   0  0  0  0  0  0  0  0  0  0  0  0
   38.0650   30.3110   39.5140 N   0  0  0  0  0  0  0  0  0  0  0  0
   35.3720   28.8010   38.1030 H   0  0  0  0  0  0  0  0  0  0  0  0
   36.3910   29.9140   36.0880 H   0  0  0  0  0  0  0  0  0  0  0  0
   40.3800   31.7380   39.8110 C   0  0  0  0  0  0  0  0  0  0  0  0
   39.7970   31.6810   38.5450 C   0  0  0  0  0  0  0  0  0  0  0  0
   40.3690   32.3500   37.4880 C   0  0  0  0  0  0  0  0  0  0  0  0
   41.5230   33.0790   37.6900 C   0  0  0  0  0  0  0  0  0  0  0  0
   42.2930   33.8150   36.8870 N   0  0  0  0  0  0  0  0  0  0  0  0
   43.3320   34.3360   37.5760 C   0  0  0  0  0  0  0  0  0  0  0  0
   43.2500   33.9320   38.8820 C   0  0  0  0  0  0  0  0  0  0  0  0
   42.1170   33.1460   38.9470 C   0  0  0  0  0  0  0  0  0  0  0  0
   41.5360   32.4680   40.0110 C   0  0  0  0  0  0  0  0  0  0  0  0
   39.9630   31.2260   40.6660 H   0  0  0  0  0  0  0  0  0  0  0  0
   39.8830   32.2780   36.5280 H   0  0  0  0  0  0  0  0  0  0  0  0
   42.1050   33.9640   35.8520 H   0  0  0  0  0  0  0  0  0  0  0  0
   44.1330   34.9720   37.2290 H   0  0  0  0  0  0  0  0  0  0  0  0
   43.9230   34.1700   39.7010 H   0  0  0  0  0  0  0  0  0  0  0  0
   41.9870   32.5120   40.9930 H   0  0  0  0  0  0  0  0  0  0  0  0
   36.3270   28.9230   40.5470 C   0  0  0  0  0  0  0  0  0  0  0  0
   35.0590   28.8420   40.7320 O   0  0  0  0  0  0  0  0  0  0  0  0
   37.2960   28.3400   41.5120 C   0  0  0  0  0  3  0  0  0  0  0  0
   37.6700   26.9310   41.0330 C   0  0  0  0  0  2  0  0  0  0  0  0
   38.6520   26.2870   41.9560 C   0  0  0  0  0  2  0  0  0  0  0  0
   38.8770   27.0890   43.2190 C   0  0  0  0  0  2  0  0  0  0  0  0
   37.5780   27.5510   43.8470 C   0  0  0  0  0  2  0  0  0  0  0  0
   36.6380   28.1610   42.8570 C   0  0  0  0  0  2  0  0  0  0  0  0
  1  6  1  0  0  0  0
  1 24  1  0  0  0  0
  2  1  2  0  0  0  0
  3  4  2  0  0  0  0
  3  2  1  0  0  0  0
  4  5  1  0  0  0  0
  5 10  1  0  0  0  0
  5  6  2  0  0  0  0
  7  2  1  0  0  0  0
  8  3  1  0  0  0  0
  9 17  1  0  0  0  0
  9 18  1  0  0  0  0
 10  9  2  0  0  0  0
 11 12  2  0  0  0  0
 11 10  1  0  0  0  0
 12 16  1  0  0  0  0
 13 14  1  0  0  0  0
 13 12  1  0  0  0  0
 14 15  2  0  0  0  0
 15 16  1  0  0  0  0
 15 22  1  0  0  0  0
 16 17  2  0  0  0  0
 17 23  1  0  0  0  0
 19 11  1  0  0  0  0
 20 13  1  0  0  0  0
 21 14  1  0  0  0  0
 24 25  2  0  0  0  0
 24 26  1  0  0  0  0
 26 31  1  0  0  0  0
 27 26  1  0  0  0  0
 27 28  1  0  0  0  0
 28 29  1  0  0  0  0
 29 30  1  0  0  0  0
 31 30  1  0  0  0  0
M  END
>  <minimizedAffinity>
-5.88321972

$$$$
