
 OpenBabel03252500263D

 34 36  0  0  1  0  0  0  0  0999 V2000
   37.8010   27.1820   42.8720 C   0  0  2  0  0  0  0  0  0  0  0  0
   38.1160   28.5040   42.2930 C   0  0  2  0  0  0  0  0  0  0  0  0
   39.4500   28.8290   42.8570 C   0  0  0  0  0  0  0  0  0  0  0  0
   40.1140   27.6360   43.0680 O   0  0  0  0  0  0  0  0  0  0  0  0
   39.2420   26.6110   42.9060 C   0  0  0  0  0  0  0  0  0  0  0  0
   37.4850   26.9950   43.8550 H   0  0  0  0  0  0  0  0  0  0  0  0
   38.1630   28.3990   41.2010 H   0  0  0  0  0  0  0  0  0  0  0  0
   39.5220   29.5800   43.6370 H   0  0  0  0  0  0  0  0  0  0  0  0
   40.0560   29.3040   42.0210 H   0  0  0  0  0  0  0  0  0  0  0  0
   39.4040   26.1510   41.8880 H   0  0  0  0  0  0  0  0  0  0  0  0
   39.3560   25.7940   43.6140 H   0  0  0  0  0  0  0  0  0  0  0  0
   37.1620   29.4610   42.5570 O   0  0  0  0  0  0  0  0  0  0  0  0
   35.5040   28.9870   40.6570 O   0  0  0  0  0  0  0  0  0  0  0  0
   36.5000   30.0100   41.1300 P   0  0  1  0  0  0  0  0  0  0  0  0
   35.6860   31.4690   41.4080 O   0  0  0  0  0  0  0  0  0  0  0  0
   34.9340   31.6180   40.8030 H   0  0  0  0  0  0  0  0  0  0  0  0
   37.6680   30.1980   39.9000 O   0  0  0  0  0  0  0  0  0  0  0  0
   38.9770   33.4330   40.6650 C   0  0  0  0  0  0  0  0  0  0  0  0
   39.9920   33.6390   39.6820 C   0  0  0  0  0  0  0  0  0  0  0  0
   40.1840   32.5960   38.7550 C   0  0  0  0  0  0  0  0  0  0  0  0
   39.4130   31.4920   38.8520 N   0  0  0  0  0  0  0  0  0  0  0  0
   38.4690   31.3400   39.7950 C   0  0  0  0  0  0  0  0  0  0  0  0
   38.2540   32.3120   40.6970 N   0  0  0  0  0  0  0  0  0  0  0  0
   40.5910   34.5290   39.6290 H   0  0  0  0  0  0  0  0  0  0  0  0
   40.9410   32.6920   37.9820 H   0  0  0  0  0  0  0  0  0  0  0  0
   38.7750   34.4390   41.5750 O   0  0  0  0  0  0  0  0  0  0  0  0
   37.9670   35.0490   41.5270 H   0  0  0  0  0  0  0  0  0  0  0  0
   36.9670   26.3920   42.1280 O   0  0  0  0  0  0  0  0  0  0  0  0
   37.4020   25.5400   41.2080 C   0  0  0  0  0  3  0  0  0  0  0  0
   36.8780   26.0360   39.8550 C   0  0  0  0  0  2  0  0  0  0  0  0
   37.4150   25.1930   38.7500 C   0  0  0  0  0  2  0  0  0  0  0  0
   36.9730   23.7750   38.9500 C   0  0  0  0  0  2  0  0  0  0  0  0
   36.0710   23.6750   40.1510 C   0  0  0  0  0  2  0  0  0  0  0  0
   36.7270   24.1970   41.3980 C   0  0  0  0  0  2  0  0  0  0  0  0
  1  5  1  0  0  0  0
  1  6  1  1  0  0  0
  2  7  1  6  0  0  0
  2 12  1  0  0  0  0
  2  3  1  0  0  0  0
  2  1  1  0  0  0  0
  3  4  1  0  0  0  0
  3  8  1  0  0  0  0
  5  4  1  0  0  0  0
  5 11  1  0  0  0  0
  9  3  1  0  0  0  0
 10  5  1  0  0  0  0
 14 13  2  6  0  0  0
 14 15  1  0  0  0  0
 14 12  1  0  0  0  0
 16 15  1  0  0  0  0
 17 14  1  0  0  0  0
 18 23  1  0  0  0  0
 18 26  1  0  0  0  0
 19 18  2  0  0  0  0
 20 21  2  0  0  0  0
 20 19  1  0  0  0  0
 21 22  1  0  0  0  0
 22 17  1  0  0  0  0
 22 23  2  0  0  0  0
 24 19  1  0  0  0  0
 25 20  1  0  0  0  0
 27 26  1  0  0  0  0
 28  1  1  0  0  0  0
 29 34  1  0  0  0  0
 29 28  1  0  0  0  0
 30 29  1  0  0  0  0
 31 32  1  0  0  0  0
 31 30  1  0  0  0  0
 32 33  1  0  0  0  0
 33 34  1  0  0  0  0
M  END
>  <minimizedAffinity>
-5.92557669

$$$$

 OpenBabel03252500263D

 34 36  0  0  1  0  0  0  0  0999 V2000
   37.9200   27.3800   43.1120 C   0  0  2  0  0  0  0  0  0  0  0  0
   38.2070   28.6480   42.4110 C   0  0  2  0  0  0  0  0  0  0  0  0
   39.5300   29.0570   42.9440 C   0  0  0  0  0  0  0  0  0  0  0  0
   40.2210   27.9050   43.2700 O   0  0  0  0  0  0  0  0  0  0  0  0
   39.3740   26.8490   43.2040 C   0  0  0  0  0  0  0  0  0  0  0  0
   37.6040   27.2800   44.1070 H   0  0  0  0  0  0  0  0  0  0  0  0
   38.2620   28.4410   41.3340 H   0  0  0  0  0  0  0  0  0  0  0  0
   39.5810   29.8800   43.6500 H   0  0  0  0  0  0  0  0  0  0  0  0
   40.1300   29.4650   42.0690 H   0  0  0  0  0  0  0  0  0  0  0  0
   39.5510   26.2990   42.2350 H   0  0  0  0  0  0  0  0  0  0  0  0
   39.5030   26.1070   43.9870 H   0  0  0  0  0  0  0  0  0  0  0  0
   37.2300   29.6030   42.5800 O   0  0  0  0  0  0  0  0  0  0  0  0
   35.4970   28.9980   40.7870 O   0  0  0  0  0  0  0  0  0  0  0  0
   36.5680   30.0060   41.1050 P   0  0  1  0  0  0  0  0  0  0  0  0
   35.8560   31.5380   41.2020 O   0  0  0  0  0  0  0  0  0  0  0  0
   35.1010   31.6580   40.5950 H   0  0  0  0  0  0  0  0  0  0  0  0
   37.7140   29.9540   39.8410 O   0  0  0  0  0  0  0  0  0  0  0  0
   39.8070   32.1770   37.9860 C   0  0  0  0  0  0  0  0  0  0  0  0
   40.3440   33.0550   38.9750 C   0  0  0  0  0  0  0  0  0  0  0  0
   39.9350   32.8240   40.3030 C   0  0  0  0  0  0  0  0  0  0  0  0
   39.0810   31.8090   40.5520 N   0  0  0  0  0  0  0  0  0  0  0  0
   38.5990   31.0060   39.5880 C   0  0  0  0  0  0  0  0  0  0  0  0
   38.9650   31.1940   38.3090 N   0  0  0  0  0  0  0  0  0  0  0  0
   41.0230   33.8560   38.7480 H   0  0  0  0  0  0  0  0  0  0  0  0
   40.3100   33.4580   41.1020 H   0  0  0  0  0  0  0  0  0  0  0  0
   40.1940   32.3860   36.6870 O   0  0  0  0  0  0  0  0  0  0  0  0
   40.8530   31.7730   36.2200 H   0  0  0  0  0  0  0  0  0  0  0  0
   37.1080   26.5050   42.4440 O   0  0  0  0  0  0  0  0  0  0  0  0
   37.5670   25.5830   41.6060 C   0  0  0  0  0  3  0  0  0  0  0  0
   37.2630   26.0780   40.1870 C   0  0  0  0  0  2  0  0  0  0  0  0
   37.8470   25.1490   39.1770 C   0  0  0  0  0  2  0  0  0  0  0  0
   37.2460   23.7880   39.3540 C   0  0  0  0  0  2  0  0  0  0  0  0
   36.1980   23.8160   40.4350 C   0  0  0  0  0  2  0  0  0  0  0  0
   36.7460   24.3170   41.7410 C   0  0  0  0  0  2  0  0  0  0  0  0
  1  5  1  0  0  0  0
  1  6  1  1  0  0  0
  2  7  1  6  0  0  0
  2 12  1  0  0  0  0
  2  3  1  0  0  0  0
  2  1  1  0  0  0  0
  3  4  1  0  0  0  0
  3  8  1  0  0  0  0
  5  4  1  0  0  0  0
  5 11  1  0  0  0  0
  9  3  1  0  0  0  0
 10  5  1  0  0  0  0
 14 13  2  6  0  0  0
 14 15  1  0  0  0  0
 14 12  1  0  0  0  0
 16 15  1  0  0  0  0
 17 14  1  0  0  0  0
 18 23  2  0  0  0  0
 18 19  1  0  0  0  0
 19 20  2  0  0  0  0
 20 21  1  0  0  0  0
 20 25  1  0  0  0  0
 22 17  1  0  0  0  0
 22 21  2  0  0  0  0
 23 22  1  0  0  0  0
 24 19  1  0  0  0  0
 26 18  1  0  0  0  0
 27 26  1  0  0  0  0
 28  1  1  0  0  0  0
 29 34  1  0  0  0  0
 29 28  1  0  0  0  0
 30 29  1  0  0  0  0
 31 32  1  0  0  0  0
 31 30  1  0  0  0  0
 32 33  1  0  0  0  0
 33 34  1  0  0  0  0
M  END
>  <minimizedAffinity>
-5.85619926

$$$$

 OpenBabel03252500263D

 34 36  0  0  1  0  0  0  0  0999 V2000
   37.5780   29.4380   39.7200 C   0  0  2  0  0  0  0  0  0  0  0  0
   37.9890   30.7030   39.0780 C   0  0  2  0  0  0  0  0  0  0  0  0
   37.9420   30.3960   37.6270 C   0  0  0  0  0  0  0  0  0  0  0  0
   36.9630   29.4390   37.4360 O   0  0  0  0  0  0  0  0  0  0  0  0
   36.5670   28.9660   38.6430 C   0  0  0  0  0  0  0  0  0  0  0  0
   38.1700   28.5790   39.8330 H   0  0  0  0  0  0  0  0  0  0  0  0
   37.2570   31.4770   39.3420 H   0  0  0  0  0  0  0  0  0  0  0  0
   38.8740   30.2640   37.0870 H   0  0  0  0  0  0  0  0  0  0  0  0
   37.5010   31.3070   37.1090 H   0  0  0  0  0  0  0  0  0  0  0  0
   35.5880   29.4530   38.9210 H   0  0  0  0  0  0  0  0  0  0  0  0
   36.3810   27.8970   38.6790 H   0  0  0  0  0  0  0  0  0  0  0  0
   39.2170   31.1610   39.5010 O   0  0  0  0  0  0  0  0  0  0  0  0
   37.5490   32.8020   40.5530 O   0  0  0  0  0  0  0  0  0  0  0  0
   39.0200   32.4970   40.4760 P   0  0  1  0  0  0  0  0  0  0  0  0
   39.5810   32.1480   42.0350 O   0  0  0  0  0  0  0  0  0  0  0  0
   39.1220   32.6480   42.7370 H   0  0  0  0  0  0  0  0  0  0  0  0
   39.7990   33.8800   39.8510 O   0  0  0  0  0  0  0  0  0  0  0  0
   42.7980   34.1950   37.9350 C   0  0  0  0  0  0  0  0  0  0  0  0
   43.8420   33.9720   38.8840 C   0  0  0  0  0  0  0  0  0  0  0  0
   43.4370   33.7110   40.2070 C   0  0  0  0  0  0  0  0  0  0  0  0
   42.1170   33.6880   40.4890 N   0  0  0  0  0  0  0  0  0  0  0  0
   41.1680   33.9040   39.5640 C   0  0  0  0  0  0  0  0  0  0  0  0
   41.5120   34.1560   38.2900 N   0  0  0  0  0  0  0  0  0  0  0  0
   44.8850   33.9970   38.6300 H   0  0  0  0  0  0  0  0  0  0  0  0
   44.1840   33.5330   40.9760 H   0  0  0  0  0  0  0  0  0  0  0  0
   43.1730   34.4500   36.6410 O   0  0  0  0  0  0  0  0  0  0  0  0
   43.0710   33.7560   35.9080 H   0  0  0  0  0  0  0  0  0  0  0  0
   36.9820   29.5620   40.9450 O   0  0  0  0  0  0  0  0  0  0  0  0
   37.5350   29.1250   42.0700 C   0  0  0  0  0  3  0  0  0  0  0  0
   38.8910   28.5150   41.6950 C   0  0  0  0  0  2  0  0  0  0  0  0
   39.6300   28.0980   42.9210 C   0  0  0  0  0  2  0  0  0  0  0  0
   38.8240   27.0720   43.6580 C   0  0  0  0  0  2  0  0  0  0  0  0
   37.5740   26.7380   42.8870 C   0  0  0  0  0  2  0  0  0  0  0  0
   36.7380   27.9550   42.6090 C   0  0  0  0  0  2  0  0  0  0  0  0
  1  6  1  1  0  0  0
  1 28  1  0  0  0  0
  2  7  1  1  0  0  0
  2 12  1  0  0  0  0
  2  1  1  0  0  0  0
  3  2  1  0  0  0  0
  4  3  1  0  0  0  0
  4  5  1  0  0  0  0
  5 11  1  0  0  0  0
  5 10  1  0  0  0  0
  5  1  1  0  0  0  0
  8  3  1  0  0  0  0
  9  3  1  0  0  0  0
 12 14  1  0  0  0  0
 14 13  2  1  0  0  0
 14 15  1  0  0  0  0
 15 16  1  0  0  0  0
 17 14  1  0  0  0  0
 18 23  2  0  0  0  0
 18 19  1  0  0  0  0
 19 20  2  0  0  0  0
 20 21  1  0  0  0  0
 20 25  1  0  0  0  0
 22 17  1  0  0  0  0
 22 21  2  0  0  0  0
 23 22  1  0  0  0  0
 24 19  1  0  0  0  0
 26 18  1  0  0  0  0
 27 26  1  0  0  0  0
 28 29  1  0  0  0  0
 29 34  1  0  0  0  0
 30 29  1  0  0  0  0
 30 31  1  0  0  0  0
 31 32  1  0  0  0  0
 33 32  1  0  0  0  0
 34 33  1  0  0  0  0
M  END
>  <minimizedAffinity>
-5.69656324

$$$$

 OpenBabel03252500263D

 34 36  0  0  1  0  0  0  0  0999 V2000
   36.4760   30.4650   39.1830 C   0  0  2  0  0  0  0  0  0  0  0  0
   36.4020   29.6060   40.3820 C   0  0  2  0  0  0  0  0  0  0  0  0
   35.0160   29.0750   40.3540 C   0  0  0  0  0  0  0  0  0  0  0  0
   34.6290   28.9950   39.0290 O   0  0  0  0  0  0  0  0  0  0  0  0
   35.5470   29.6330   38.2620 C   0  0  0  0  0  0  0  0  0  0  0  0
   36.0600   31.4230   39.0800 H   0  0  0  0  0  0  0  0  0  0  0  0
   37.1370   28.7970   40.2720 H   0  0  0  0  0  0  0  0  0  0  0  0
   34.2890   29.4660   41.0580 H   0  0  0  0  0  0  0  0  0  0  0  0
   35.0730   27.9820   40.6600 H   0  0  0  0  0  0  0  0  0  0  0  0
   36.2170   28.8640   37.7800 H   0  0  0  0  0  0  0  0  0  0  0  0
   35.1360   30.2140   37.4410 H   0  0  0  0  0  0  0  0  0  0  0  0
   36.7120   30.2650   41.5500 O   0  0  0  0  0  0  0  0  0  0  0  0
   38.9730   30.2930   42.7620 O   0  0  0  0  0  0  0  0  0  0  0  0
   37.8260   29.3830   42.4210 P   0  0  1  0  0  0  0  0  0  0  0  0
   37.1190   28.8420   43.8610 O   0  0  0  0  0  0  0  0  0  0  0  0
   37.7570   28.7330   44.5930 H   0  0  0  0  0  0  0  0  0  0  0  0
   38.4570   28.0710   41.5310 O   0  0  0  0  0  0  0  0  0  0  0  0
   38.7600   24.5660   42.1520 C   0  0  0  0  0  0  0  0  0  0  0  0
   39.6460   24.4850   43.2680 C   0  0  0  0  0  0  0  0  0  0  0  0
   40.1210   25.7100   43.7780 C   0  0  0  0  0  0  0  0  0  0  0  0
   39.7160   26.8570   43.1920 N   0  0  0  0  0  0  0  0  0  0  0  0
   38.8790   26.8860   42.1410 C   0  0  0  0  0  0  0  0  0  0  0  0
   38.4040   25.7400   41.6260 N   0  0  0  0  0  0  0  0  0  0  0  0
   39.9520   23.5570   43.7140 H   0  0  0  0  0  0  0  0  0  0  0  0
   40.7980   25.7160   44.6270 H   0  0  0  0  0  0  0  0  0  0  0  0
   38.2870   23.3840   41.6430 O   0  0  0  0  0  0  0  0  0  0  0  0
   37.3320   23.0780   41.7990 H   0  0  0  0  0  0  0  0  0  0  0  0
   37.7210   30.6130   38.6360 O   0  0  0  0  0  0  0  0  0  0  0  0
   38.3760   31.7680   38.6180 C   0  0  0  0  0  3  0  0  0  0  0  0
   39.5090   31.6550   39.6450 C   0  0  0  0  0  2  0  0  0  0  0  0
   40.3650   32.8760   39.6090 C   0  0  0  0  0  2  0  0  0  0  0  0
   39.5290   34.0740   39.9400 C   0  0  0  0  0  2  0  0  0  0  0  0
   38.1230   33.6530   40.2760 C   0  0  0  0  0  2  0  0  0  0  0  0
   37.4870   32.8660   39.1660 C   0  0  0  0  0  2  0  0  0  0  0  0
  1  6  1  1  0  0  0
  1  2  1  0  0  0  0
  2  7  1  6  0  0  0
  2 12  1  0  0  0  0
  3  2  1  0  0  0  0
  3  9  1  0  0  0  0
  3  8  1  0  0  0  0
  4  3  1  0  0  0  0
  5  4  1  0  0  0  0
  5  1  1  0  0  0  0
 10  5  1  0  0  0  0
 11  5  1  0  0  0  0
 12 14  1  0  0  0  0
 14 13  2  1  0  0  0
 14 15  1  0  0  0  0
 15 16  1  0  0  0  0
 17 22  1  0  0  0  0
 17 14  1  0  0  0  0
 18 19  1  0  0  0  0
 19 24  1  0  0  0  0
 19 20  2  0  0  0  0
 20 25  1  0  0  0  0
 21 20  1  0  0  0  0
 22 21  2  0  0  0  0
 23 22  1  0  0  0  0
 23 18  2  0  0  0  0
 26 27  1  0  0  0  0
 26 18  1  0  0  0  0
 28  1  1  0  0  0  0
 29 28  1  0  0  0  0
 29 34  1  0  0  0  0
 29 30  1  0  0  0  0
 31 30  1  0  0  0  0
 31 32  1  0  0  0  0
 32 33  1  0  0  0  0
 34 33  1  0  0  0  0
M  END
>  <minimizedAffinity>
-5.68465996

$$$$

 OpenBabel03252500263D

 34 36  0  0  1  0  0  0  0  0999 V2000
   38.3040   29.5670   42.7490 C   0  0  2  0  0  0  0  0  0  0  0  0
   39.5950   30.0020   42.1790 C   0  0  2  0  0  0  0  0  0  0  0  0
   40.5610   28.9910   42.6780 C   0  0  0  0  0  0  0  0  0  0  0  0
   39.8750   27.8010   42.8330 O   0  0  0  0  0  0  0  0  0  0  0  0
   38.5470   28.0370   42.6980 C   0  0  0  0  0  0  0  0  0  0  0  0
   37.9920   29.6900   43.7430 H   0  0  0  0  0  0  0  0  0  0  0  0
   39.5180   29.9660   41.0840 H   0  0  0  0  0  0  0  0  0  0  0  0
   41.2520   29.2700   43.4670 H   0  0  0  0  0  0  0  0  0  0  0  0
   41.2700   28.7570   41.8210 H   0  0  0  0  0  0  0  0  0  0  0  0
   38.2240   27.7190   41.6640 H   0  0  0  0  0  0  0  0  0  0  0  0
   37.9100   27.4850   43.3830 H   0  0  0  0  0  0  0  0  0  0  0  0
   39.9350   31.2940   42.5090 O   0  0  0  0  0  0  0  0  0  0  0  0
   38.7730   33.0560   41.0500 O   0  0  0  0  0  0  0  0  0  0  0  0
   40.0260   32.2270   41.1320 P   0  0  1  0  0  0  0  0  0  0  0  0
   41.3560   33.2680   41.2390 O   0  0  0  0  0  0  0  0  0  0  0  0
   41.2380   34.1050   40.7510 H   0  0  0  0  0  0  0  0  0  0  0  0
   40.1130   31.2850   39.7110 O   0  0  0  0  0  0  0  0  0  0  0  0
   42.2130   32.8600   37.2880 C   0  0  0  0  0  0  0  0  0  0  0  0
   43.1370   31.8380   36.9120 C   0  0  0  0  0  0  0  0  0  0  0  0
   42.9800   30.5910   37.5470 C   0  0  0  0  0  0  0  0  0  0  0  0
   41.9890   30.4430   38.4510 N   0  0  0  0  0  0  0  0  0  0  0  0
   41.1410   31.4330   38.7750 C   0  0  0  0  0  0  0  0  0  0  0  0
   41.2570   32.6380   38.1920 N   0  0  0  0  0  0  0  0  0  0  0  0
   43.9170   31.9850   36.1880 H   0  0  0  0  0  0  0  0  0  0  0  0
   43.6520   29.7720   37.3030 H   0  0  0  0  0  0  0  0  0  0  0  0
   42.3490   34.0810   36.6790 O   0  0  0  0  0  0  0  0  0  0  0  0
   41.7040   34.3960   35.9620 H   0  0  0  0  0  0  0  0  0  0  0  0
   37.1920   29.9210   42.0350 O   0  0  0  0  0  0  0  0  0  0  0  0
   36.9240   29.4480   40.8240 C   0  0  0  0  0  3  0  0  0  0  0  0
   36.6460   30.6570   39.9230 C   0  0  0  0  0  2  0  0  0  0  0  0
   36.4440   30.2170   38.5120 C   0  0  0  0  0  2  0  0  0  0  0  0
   35.2720   29.2850   38.4490 C   0  0  0  0  0  2  0  0  0  0  0  0
   34.6330   29.1560   39.8070 C   0  0  0  0  0  2  0  0  0  0  0  0
   35.6100   28.6940   40.8500 C   0  0  0  0  0  2  0  0  0  0  0  0
  1  6  1  1  0  0  0
  2  7  1  6  0  0  0
  2 12  1  0  0  0  0
  2  3  1  0  0  0  0
  2  1  1  0  0  0  0
  3  4  1  0  0  0  0
  3  8  1  0  0  0  0
  5  1  1  0  0  0  0
  5  4  1  0  0  0  0
  5 11  1  0  0  0  0
  9  3  1  0  0  0  0
 10  5  1  0  0  0  0
 14 13  2  6  0  0  0
 14 15  1  0  0  0  0
 14 12  1  0  0  0  0
 16 15  1  0  0  0  0
 17 14  1  0  0  0  0
 18 23  1  0  0  0  0
 19 18  2  0  0  0  0
 19 20  1  0  0  0  0
 20 21  2  0  0  0  0
 21 22  1  0  0  0  0
 22 17  1  0  0  0  0
 23 22  2  0  0  0  0
 24 19  1  0  0  0  0
 25 20  1  0  0  0  0
 26 18  1  0  0  0  0
 27 26  1  0  0  0  0
 28  1  1  0  0  0  0
 29 34  1  0  0  0  0
 29 28  1  0  0  0  0
 30 29  1  0  0  0  0
 31 30  1  0  0  0  0
 32 31  1  0  0  0  0
 32 33  1  0  0  0  0
 33 34  1  0  0  0  0
M  END
>  <minimizedAffinity>
-5.66096878

$$$$

 OpenBabel03252500263D

 34 36  0  0  1  0  0  0  0  0999 V2000
   36.5030   29.7160   40.0670 C   0  0  2  0  0  0  0  0  0  0  0  0
   37.5640   30.6550   40.4850 C   0  0  2  0  0  0  0  0  0  0  0  0
   38.2390   29.9510   41.6050 C   0  0  0  0  0  0  0  0  0  0  0  0
   38.1270   28.5940   41.3700 O   0  0  0  0  0  0  0  0  0  0  0  0
   37.2610   28.3930   40.3470 C   0  0  0  0  0  0  0  0  0  0  0  0
   35.5980   29.5420   40.5660 H   0  0  0  0  0  0  0  0  0  0  0  0
   38.2500   30.7990   39.6390 H   0  0  0  0  0  0  0  0  0  0  0  0
   38.0670   30.2930   42.6200 H   0  0  0  0  0  0  0  0  0  0  0  0
   39.3550   30.1310   41.4850 H   0  0  0  0  0  0  0  0  0  0  0  0
   37.8490   28.1830   39.4070 H   0  0  0  0  0  0  0  0  0  0  0  0
   36.5950   27.5430   40.4680 H   0  0  0  0  0  0  0  0  0  0  0  0
   37.0920   31.9020   40.8280 O   0  0  0  0  0  0  0  0  0  0  0  0
   37.2060   33.9480   39.2850 O   0  0  0  0  0  0  0  0  0  0  0  0
   38.0650   33.0800   40.1630 P   0  0  1  0  0  0  0  0  0  0  0  0
   38.7190   34.0370   41.3960 O   0  0  0  0  0  0  0  0  0  0  0  0
   38.9020   34.9560   41.1220 H   0  0  0  0  0  0  0  0  0  0  0  0
   39.3030   32.4270   39.1870 O   0  0  0  0  0  0  0  0  0  0  0  0
   42.2390   33.9550   37.8400 C   0  0  0  0  0  0  0  0  0  0  0  0
   43.1200   34.0610   38.9590 C   0  0  0  0  0  0  0  0  0  0  0  0
   42.6310   33.5740   40.1870 C   0  0  0  0  0  0  0  0  0  0  0  0
   41.3880   33.0490   40.2280 N   0  0  0  0  0  0  0  0  0  0  0  0
   40.5910   32.9700   39.1490 C   0  0  0  0  0  0  0  0  0  0  0  0
   41.0210   33.4230   37.9600 N   0  0  0  0  0  0  0  0  0  0  0  0
   44.1050   34.4840   38.8970 H   0  0  0  0  0  0  0  0  0  0  0  0
   43.2540   33.6250   41.0760 H   0  0  0  0  0  0  0  0  0  0  0  0
   42.6980   34.4230   36.6360 O   0  0  0  0  0  0  0  0  0  0  0  0
   42.9840   33.7950   35.8920 H   0  0  0  0  0  0  0  0  0  0  0  0
   36.1170   29.8050   38.7570 O   0  0  0  0  0  0  0  0  0  0  0  0
   35.4460   28.8460   38.1310 C   0  0  0  0  0  3  0  0  0  0  0  0
   35.4660   29.1890   36.6360 C   0  0  0  0  0  2  0  0  0  0  0  0
   34.8250   28.1000   35.8460 C   0  0  0  0  0  2  0  0  0  0  0  0
   33.4020   27.9410   36.2870 C   0  0  0  0  0  2  0  0  0  0  0  0
   33.0580   28.9780   37.3240 C   0  0  0  0  0  2  0  0  0  0  0  0
   33.9800   28.9200   38.5090 C   0  0  0  0  0  2  0  0  0  0  0  0
  1  5  1  0  0  0  0
  1  2  1  0  0  0  0
  1  6  1  1  0  0  0
  2  7  1  6  0  0  0
  2 12  1  0  0  0  0
  2  3  1  0  0  0  0
  3  8  1  0  0  0  0
  4  3  1  0  0  0  0
  5 11  1  0  0  0  0
  5  4  1  0  0  0  0
  9  3  1  0  0  0  0
 10  5  1  0  0  0  0
 14 13  2  6  0  0  0
 14 12  1  0  0  0  0
 14 15  1  0  0  0  0
 16 15  1  0  0  0  0
 17 14  1  0  0  0  0
 18 23  2  0  0  0  0
 18 19  1  0  0  0  0
 19 20  2  0  0  0  0
 20 21  1  0  0  0  0
 20 25  1  0  0  0  0
 22 17  1  0  0  0  0
 22 21  2  0  0  0  0
 23 22  1  0  0  0  0
 24 19  1  0  0  0  0
 26 18  1  0  0  0  0
 27 26  1  0  0  0  0
 28  1  1  0  0  0  0
 29 34  1  0  0  0  0
 29 28  1  0  0  0  0
 30 29  1  0  0  0  0
 31 32  1  0  0  0  0
 31 30  1  0  0  0  0
 32 33  1  0  0  0  0
 33 34  1  0  0  0  0
M  END
>  <minimizedAffinity>
-5.6085391

$$$$

 OpenBabel03252500263D

 34 36  0  0  1  0  0  0  0  0999 V2000
   37.8840   26.6970   41.4310 C   0  0  2  0  0  0  0  0  0  0  0  0
   36.8490   27.2890   40.5590 C   0  0  2  0  0  0  0  0  0  0  0  0
   36.6080   26.2420   39.5340 C   0  0  0  0  0  0  0  0  0  0  0  0
   36.8490   25.0170   40.1260 O   0  0  0  0  0  0  0  0  0  0  0  0
   37.4300   25.2180   41.3350 C   0  0  0  0  0  0  0  0  0  0  0  0
   38.9060   26.6100   41.2090 H   0  0  0  0  0  0  0  0  0  0  0  0
   35.9490   27.4650   41.1630 H   0  0  0  0  0  0  0  0  0  0  0  0
   36.9940   26.3900   38.5310 H   0  0  0  0  0  0  0  0  0  0  0  0
   35.4870   26.2110   39.3490 H   0  0  0  0  0  0  0  0  0  0  0  0
   36.6480   25.0940   42.1400 H   0  0  0  0  0  0  0  0  0  0  0  0
   38.2200   24.5160   41.5870 H   0  0  0  0  0  0  0  0  0  0  0  0
   37.2100   28.5050   40.0240 O   0  0  0  0  0  0  0  0  0  0  0  0
   34.7950   29.2570   40.4610 O   0  0  0  0  0  0  0  0  0  0  0  0
   36.2220   29.7040   40.6260 P   0  0  1  0  0  0  0  0  0  0  0  0
   36.5330   29.9200   42.2760 O   0  0  0  0  0  0  0  0  0  0  0  0
   35.7580   30.2320   42.7820 H   0  0  0  0  0  0  0  0  0  0  0  0
   36.3990   31.1780   39.7830 O   0  0  0  0  0  0  0  0  0  0  0  0
   39.3200   32.3370   38.0840 C   0  0  0  0  0  0  0  0  0  0  0  0
   40.0920   32.9650   39.1080 C   0  0  0  0  0  0  0  0  0  0  0  0
   39.5350   32.9570   40.4020 C   0  0  0  0  0  0  0  0  0  0  0  0
   38.3350   32.3680   40.5890 N   0  0  0  0  0  0  0  0  0  0  0  0
   37.6420   31.7890   39.5940 C   0  0  0  0  0  0  0  0  0  0  0  0
   38.1380   31.7750   38.3460 N   0  0  0  0  0  0  0  0  0  0  0  0
   41.0450   33.4260   38.9300 H   0  0  0  0  0  0  0  0  0  0  0  0
   40.0740   33.4180   41.2250 H   0  0  0  0  0  0  0  0  0  0  0  0
   39.8460   32.3350   36.8170 O   0  0  0  0  0  0  0  0  0  0  0  0
   40.2390   31.4970   36.4030 H   0  0  0  0  0  0  0  0  0  0  0  0
   37.8890   27.1360   42.7270 O   0  0  0  0  0  0  0  0  0  0  0  0
   38.9870   27.5400   43.3540 C   0  0  0  0  0  3  0  0  0  0  0  0
   39.9090   28.1520   42.2920 C   0  0  0  0  0  2  0  0  0  0  0  0
   41.1230   28.7330   42.9330 C   0  0  0  0  0  2  0  0  0  0  0  0
   41.8670   27.6500   43.6540 C   0  0  0  0  0  2  0  0  0  0  0  0
   41.1950   26.3200   43.4350 C   0  0  0  0  0  2  0  0  0  0  0  0
   39.7550   26.3370   43.8630 C   0  0  0  0  0  2  0  0  0  0  0  0
  1  6  1  6  0  0  0
  1 28  1  0  0  0  0
  2  7  1  1  0  0  0
  2  1  1  0  0  0  0
  3  4  1  0  0  0  0
  3  2  1  0  0  0  0
  4  5  1  0  0  0  0
  5  1  1  0  0  0  0
  5 11  1  0  0  0  0
  5 10  1  0  0  0  0
  8  3  1  0  0  0  0
  9  3  1  0  0  0  0
 12  2  1  0  0  0  0
 12 14  1  0  0  0  0
 14 13  2  6  0  0  0
 14 15  1  0  0  0  0
 15 16  1  0  0  0  0
 17 14  1  0  0  0  0
 18 23  2  0  0  0  0
 18 19  1  0  0  0  0
 19 20  2  0  0  0  0
 20 21  1  0  0  0  0
 20 25  1  0  0  0  0
 22 17  1  0  0  0  0
 22 21  2  0  0  0  0
 23 22  1  0  0  0  0
 24 19  1  0  0  0  0
 26 18  1  0  0  0  0
 27 26  1  0  0  0  0
 28 29  1  0  0  0  0
 29 34  1  0  0  0  0
 30 31  1  0  0  0  0
 30 29  1  0  0  0  0
 31 32  1  0  0  0  0
 33 32  1  0  0  0  0
 33 34  1  0  0  0  0
M  END
>  <minimizedAffinity>
-5.56603003

$$$$

 OpenBabel03252500263D

 34 36  0  0  1  0  0  0  0  0999 V2000
   36.9060   27.9870   38.7820 C   0  0  2  0  0  0  0  0  0  0  0  0
   36.4620   29.3700   39.0510 C   0  0  2  0  0  0  0  0  0  0  0  0
   35.4850   29.6460   37.9680 C   0  0  0  0  0  0  0  0  0  0  0  0
   34.8930   28.4440   37.6260 O   0  0  0  0  0  0  0  0  0  0  0  0
   35.5680   27.4340   38.2270 C   0  0  0  0  0  0  0  0  0  0  0  0
   37.5770   27.6860   38.0340 H   0  0  0  0  0  0  0  0  0  0  0  0
   35.9770   29.3910   40.0360 H   0  0  0  0  0  0  0  0  0  0  0  0
   35.7730   30.3030   37.1550 H   0  0  0  0  0  0  0  0  0  0  0  0
   34.6230   30.2200   38.4370 H   0  0  0  0  0  0  0  0  0  0  0  0
   34.9870   27.0950   39.1330 H   0  0  0  0  0  0  0  0  0  0  0  0
   35.7000   26.5440   37.6180 H   0  0  0  0  0  0  0  0  0  0  0  0
   37.4940   30.2790   39.1000 O   0  0  0  0  0  0  0  0  0  0  0  0
   37.5310   32.6850   39.9910 O   0  0  0  0  0  0  0  0  0  0  0  0
   37.3210   31.2630   40.4340 P   0  0  1  0  0  0  0  0  0  0  0  0
   35.7500   31.1150   41.0470 O   0  0  0  0  0  0  0  0  0  0  0  0
   35.4260   31.9210   41.4920 H   0  0  0  0  0  0  0  0  0  0  0  0
   38.4740   30.9270   41.6460 O   0  0  0  0  0  0  0  0  0  0  0  0
   37.2700   28.0690   43.4210 C   0  0  0  0  0  0  0  0  0  0  0  0
   38.4480   27.3120   43.7010 C   0  0  0  0  0  0  0  0  0  0  0  0
   39.6630   27.8550   43.2390 C   0  0  0  0  0  0  0  0  0  0  0  0
   39.6380   29.0300   42.5750 N   0  0  0  0  0  0  0  0  0  0  0  0
   38.5050   29.7090   42.3330 C   0  0  0  0  0  0  0  0  0  0  0  0
   37.3250   29.2260   42.7580 N   0  0  0  0  0  0  0  0  0  0  0  0
   38.4380   26.3790   44.2320 H   0  0  0  0  0  0  0  0  0  0  0  0
   40.5950   27.3270   43.4210 H   0  0  0  0  0  0  0  0  0  0  0  0
   36.0780   27.5570   43.8650 O   0  0  0  0  0  0  0  0  0  0  0  0
   35.5910   27.9500   44.6630 H   0  0  0  0  0  0  0  0  0  0  0  0
   37.3270   27.2770   39.8730 O   0  0  0  0  0  0  0  0  0  0  0  0
   37.6130   25.9820   39.8320 C   0  0  0  0  0  3  0  0  0  0  0  0
   36.9580   25.3400   41.0600 C   0  0  0  0  0  2  0  0  0  0  0  0
   37.1390   23.8600   41.0310 C   0  0  0  0  0  2  0  0  0  0  0  0
   38.6040   23.5410   41.0400 C   0  0  0  0  0  2  0  0  0  0  0  0
   39.4120   24.8070   41.1550 C   0  0  0  0  0  2  0  0  0  0  0  0
   39.0980   25.7810   40.0550 C   0  0  0  0  0  2  0  0  0  0  0  0
  1  6  1  6  0  0  0
  1  2  1  0  0  0  0
  1 28  1  0  0  0  0
  2 12  1  0  0  0  0
  2  7  1  1  0  0  0
  3  9  1  0  0  0  0
  3  2  1  0  0  0  0
  4  3  1  0  0  0  0
  4  5  1  0  0  0  0
  5  1  1  0  0  0  0
  5 10  1  0  0  0  0
  8  3  1  0  0  0  0
 11  5  1  0  0  0  0
 12 14  1  0  0  0  0
 14 13  2  6  0  0  0
 14 15  1  0  0  0  0
 14 17  1  0  0  0  0
 15 16  1  0  0  0  0
 17 22  1  0  0  0  0
 18 19  1  0  0  0  0
 18 26  1  0  0  0  0
 19 24  1  0  0  0  0
 20 25  1  0  0  0  0
 20 19  2  0  0  0  0
 21 20  1  0  0  0  0
 22 21  2  0  0  0  0
 22 23  1  0  0  0  0
 23 18  2  0  0  0  0
 26 27  1  0  0  0  0
 29 28  1  0  0  0  0
 29 34  1  0  0  0  0
 29 30  1  0  0  0  0
 31 32  1  0  0  0  0
 31 30  1  0  0  0  0
 32 33  1  0  0  0  0
 34 33  1  0  0  0  0
M  END
>  <minimizedAffinity>
-5.52529478

$$$$

 OpenBabel03252500263D

 34 36  0  0  1  0  0  0  0  0999 V2000
   37.0290   28.2160   42.6420 C   0  0  2  0  0  0  0  0  0  0  0  0
   38.4480   28.5930   42.4790 C   0  0  2  0  0  0  0  0  0  0  0  0
   39.1800   27.5650   43.2590 C   0  0  0  0  0  0  0  0  0  0  0  0
   38.4340   26.4020   43.2180 O   0  0  0  0  0  0  0  0  0  0  0  0
   37.2170   26.6780   42.6880 C   0  0  0  0  0  0  0  0  0  0  0  0
   36.4390   28.3740   43.4960 H   0  0  0  0  0  0  0  0  0  0  0  0
   38.6990   28.5340   41.4120 H   0  0  0  0  0  0  0  0  0  0  0  0
   39.6140   27.8400   44.2150 H   0  0  0  0  0  0  0  0  0  0  0  0
   40.1030   27.2870   42.6570 H   0  0  0  0  0  0  0  0  0  0  0  0
   37.2050   26.3450   41.6090 H   0  0  0  0  0  0  0  0  0  0  0  0
   36.3830   26.1640   43.1590 H   0  0  0  0  0  0  0  0  0  0  0  0
   38.7230   29.8820   42.8780 O   0  0  0  0  0  0  0  0  0  0  0  0
   41.2010   30.5360   42.7530 O   0  0  0  0  0  0  0  0  0  0  0  0
   39.9390   30.5200   41.9350 P   0  0  1  0  0  0  0  0  0  0  0  0
   40.1850   29.5320   40.5820 O   0  0  0  0  0  0  0  0  0  0  0  0
   41.1020   29.5510   40.2460 H   0  0  0  0  0  0  0  0  0  0  0  0
   39.6170   32.1260   41.4560 O   0  0  0  0  0  0  0  0  0  0  0  0
   40.6230   32.8780   38.1120 C   0  0  0  0  0  0  0  0  0  0  0  0
   41.6020   33.9070   38.2660 C   0  0  0  0  0  0  0  0  0  0  0  0
   41.8790   34.3110   39.5860 C   0  0  0  0  0  0  0  0  0  0  0  0
   41.2190   33.7130   40.6000 N   0  0  0  0  0  0  0  0  0  0  0  0
   40.3040   32.7480   40.4090 C   0  0  0  0  0  0  0  0  0  0  0  0
   40.0110   32.3340   39.1650 N   0  0  0  0  0  0  0  0  0  0  0  0
   42.1130   34.3650   37.4390 H   0  0  0  0  0  0  0  0  0  0  0  0
   42.6150   35.0890   39.7700 H   0  0  0  0  0  0  0  0  0  0  0  0
   40.3400   32.4710   36.8330 O   0  0  0  0  0  0  0  0  0  0  0  0
   40.6700   31.5830   36.4690 H   0  0  0  0  0  0  0  0  0  0  0  0
   36.1960   28.5890   41.6230 O   0  0  0  0  0  0  0  0  0  0  0  0
   36.6260   28.8800   40.4020 C   0  0  0  0  0  3  0  0  0  0  0  0
   36.2330   30.3350   40.1240 C   0  0  0  0  0  2  0  0  0  0  0  0
   36.7790   30.7790   38.8090 C   0  0  0  0  0  2  0  0  0  0  0  0
   36.2190   29.9100   37.7240 C   0  0  0  0  0  2  0  0  0  0  0  0
   35.2330   28.9280   38.2990 C   0  0  0  0  0  2  0  0  0  0  0  0
   35.8410   28.0820   39.3810 C   0  0  0  0  0  2  0  0  0  0  0  0
  1  5  1  0  0  0  0
  1  6  1  1  0  0  0
  2  7  1  6  0  0  0
  2  1  1  0  0  0  0
  2 12  1  0  0  0  0
  2  3  1  0  0  0  0
  3  8  1  0  0  0  0
  4  3  1  0  0  0  0
  5 11  1  0  0  0  0
  5  4  1  0  0  0  0
  9  3  1  0  0  0  0
 10  5  1  0  0  0  0
 14 13  2  1  0  0  0
 14 12  1  0  0  0  0
 15 14  1  0  0  0  0
 16 15  1  0  0  0  0
 17 14  1  0  0  0  0
 18 19  2  0  0  0  0
 18 23  1  0  0  0  0
 19 20  1  0  0  0  0
 20 25  1  0  0  0  0
 20 21  2  0  0  0  0
 22 21  1  0  0  0  0
 22 17  1  0  0  0  0
 23 22  2  0  0  0  0
 24 19  1  0  0  0  0
 26 18  1  0  0  0  0
 27 26  1  0  0  0  0
 28  1  1  0  0  0  0
 29 28  1  0  0  0  0
 30 29  1  0  0  0  0
 31 30  1  0  0  0  0
 32 33  1  0  0  0  0
 32 31  1  0  0  0  0
 33 34  1  0  0  0  0
 34 29  1  0  0  0  0
M  END
>  <minimizedAffinity>
-5.46882486

$$$$
