
     RDKit          3D

 36 38  0  0  0  0  0  0  0  0999 V2000
   46.0764   34.1527   41.0007 C   0  0  0  0  0  0  0  0  0  0  0  0
   46.6137   34.8284   42.0914 C   0  0  0  0  0  0  0  0  0  0  0  0
   47.9343   35.2784   41.9887 C   0  0  0  0  0  0  0  0  0  0  0  0
   48.6127   35.0317   40.8371 N   0  0  0  0  0  0  0  0  0  0  0  0
   48.0535   34.3731   39.8043 C   0  0  0  0  0  0  0  0  0  0  0  0
   46.7765   33.9320   39.8901 N   0  0  0  0  0  0  0  0  0  0  0  0
   45.8043   35.0472   43.2915 C   0  0  0  0  0  0  0  0  0  0  0  0
   45.0477   36.1767   43.4967 C   0  0  0  0  0  0  0  0  0  0  0  0
   44.4652   35.9683   44.7233 C   0  0  0  0  0  0  0  0  0  0  0  0
   44.8479   34.7689   45.2422 N   0  0  0  0  0  0  0  0  0  0  0  0
   45.6555   34.2404   44.3519 N   0  0  0  0  0  0  0  0  0  0  0  0
   44.7789   33.7091   41.0986 O   0  0  0  0  0  0  0  0  0  0  0  0
   43.6950   34.1945   40.4246 C   0  0  0  0  0  0  0  0  0  0  0  0
   43.2484   35.3876   40.4219 O   0  0  0  0  0  0  0  0  0  0  0  0
   48.3828   35.8133   42.8321 H   0  0  0  0  0  0  0  0  0  0  0  0
   48.6058   34.1845   38.8950 H   0  0  0  0  0  0  0  0  0  0  0  0
   44.9601   37.0007   42.8333 H   0  0  0  0  0  0  0  0  0  0  0  0
   43.7895   36.6393   45.2415 H   0  0  0  0  0  0  0  0  0  0  0  0
   44.5523   34.3717   46.1535 H   0  0  0  0  0  0  0  0  0  0  0  0
   42.6679   33.5932   39.4924 C   0  0  0  0  0  0  0  0  0  0  0  0
   41.3542   33.4164   40.2096 C   0  0  0  0  0  0  0  0  0  0  0  0
   40.3399   33.0740   39.1342 C   0  0  0  0  0  0  0  0  0  0  0  0
   40.6489   31.6916   38.6216 C   0  0  0  0  0  0  0  0  0  0  0  0
   42.0486   31.2353   38.8511 C   0  0  0  0  0  0  0  0  0  0  0  0
   43.0849   32.3139   38.8740 C   0  0  0  0  0  0  0  0  0  0  0  0
   42.4640   34.3594   38.6947 H   0  0  0  0  0  0  0  0  0  0  0  0
   41.3968   32.6169   40.9638 H   0  0  0  0  0  0  0  0  0  0  0  0
   41.1147   34.4123   40.6661 H   0  0  0  0  0  0  0  0  0  0  0  0
   39.3093   33.1592   39.5332 H   0  0  0  0  0  0  0  0  0  0  0  0
   40.4290   33.8159   38.3104 H   0  0  0  0  0  0  0  0  0  0  0  0
   39.9576   30.9629   39.1377 H   0  0  0  0  0  0  0  0  0  0  0  0
   40.4125   31.6654   37.5391 H   0  0  0  0  0  0  0  0  0  0  0  0
   42.0944   30.7052   39.8278 H   0  0  0  0  0  0  0  0  0  0  0  0
   42.3169   30.5448   38.0001 H   0  0  0  0  0  0  0  0  0  0  0  0
   43.9878   31.8753   39.3573 H   0  0  0  0  0  0  0  0  0  0  0  0
   43.4143   32.5116   37.8121 H   0  0  0  0  0  0  0  0  0  0  0  0
  1 12  1  0
  1  2  1  0
  2  7  1  0
  3  2  2  0
  4  3  1  0
  5  6  1  0
  5  4  2  0
  6  1  2  0
  7  8  1  0
  7 11  2  0
  8  9  2  0
  9 10  1  0
 11 10  1  0
 13 14  2  0
 13 12  1  0
  3 15  1  0
  5 16  1  0
  8 17  1  0
  9 18  1  0
 10 19  1  0
 20 21  1  0
 21 22  1  0
 22 23  1  0
 23 24  1  0
 24 25  1  0
 25 20  1  0
 20 26  1  0
 21 27  1  0
 21 28  1  0
 22 29  1  0
 22 30  1  0
 23 31  1  0
 23 32  1  0
 24 33  1  0
 24 34  1  0
 25 35  1  0
 25 36  1  0
 13 20  1  0
M  ISO  5  15  14  16  14  17  14  18  14  19   9
M  END
>  <DihAtoms>  (1) 
13,12,19,20

>  <DihDeg>  (1) 
-0.006030990010547373

$$$$
