
 OpenBabel03242519493D

 47 50  0  0  1  0  0  0  0  0999 V2000
   45.1470   29.0480   47.6580 C   0  0  0  0  0  0  0  0  0  0  0  0
   45.3520   28.8420   48.6700 H   0  0  0  0  0  0  0  0  0  0  0  0
   43.9100   29.1330   47.8190 H   0  0  0  0  0  0  0  0  0  0  0  0
   45.1660   27.9750   46.5750 C   0  0  0  0  0  0  0  0  0  0  0  0
   45.7800   27.1280   46.9790 H   0  0  0  0  0  0  0  0  0  0  0  0
   45.6350   28.3070   45.6600 H   0  0  0  0  0  0  0  0  0  0  0  0
   42.9830   28.2740   45.5510 C   0  0  0  0  0  0  0  0  0  0  0  0
   43.8060   27.4740   46.3590 C   0  0  0  0  0  0  0  0  0  0  0  0
   43.1880   26.3460   46.8440 C   0  0  0  0  0  0  0  0  0  0  0  0
   41.8970   25.9870   46.5960 C   0  0  0  0  0  0  0  0  0  0  0  0
   41.1020   26.7920   45.7960 C   0  0  0  0  0  0  0  0  0  0  0  0
   41.6670   27.9680   45.2620 C   0  0  0  0  0  0  0  0  0  0  0  0
   43.8610   25.7500   47.4670 H   0  0  0  0  0  0  0  0  0  0  0  0
   41.5620   25.0640   47.0550 H   0  0  0  0  0  0  0  0  0  0  0  0
   40.0840   26.4720   45.6250 H   0  0  0  0  0  0  0  0  0  0  0  0
   43.3310   29.4560   44.9290 O   0  0  0  0  0  0  0  0  0  0  0  0
   43.8850   29.4210   44.0770 H   0  0  0  0  0  0  0  0  0  0  0  0
   40.8050   28.6620   44.5060 O   0  0  0  0  0  0  0  0  0  0  0  0
   40.7200   29.1010   43.2240 C   0  0  0  0  0  3  0  0  0  0  0  0
   41.2180   27.9410   42.3350 C   0  0  0  0  0  2  0  0  0  0  0  0
   41.2860   28.4430   40.9230 C   0  0  0  0  0  2  0  0  0  0  0  0
   39.9140   28.8740   40.4540 C   0  0  0  0  0  2  0  0  0  0  0  0
   39.2270   29.7900   41.4090 C   0  0  0  0  0  2  0  0  0  0  0  0
   39.2370   29.2350   42.8110 C   0  0  0  0  0  2  0  0  0  0  0  0
   45.3660   30.2840   47.1930 O   0  0  0  0  0  0  0  0  0  0  0  0
   46.3340   32.4540   47.0960 C   0  0  2  0  0  0  0  0  0  0  0  0
   47.0910   32.5710   45.8500 C   0  0  1  0  0  0  0  0  0  0  0  0
   47.0220   31.1980   45.2880 O   0  0  0  0  0  0  0  0  0  0  0  0
   47.5330   30.5340   46.3990 C   0  0  0  0  0  0  0  0  0  0  0  0
   46.4360   31.0220   47.4970 C   0  0  2  0  0  0  0  0  0  0  0  0
   46.6390   33.1550   47.8950 H   0  0  0  0  0  0  0  0  0  0  0  0
   48.1910   32.6750   46.0660 H   0  0  0  0  0  0  0  0  0  0  0  0
   48.5000   30.9350   46.7230 H   0  0  0  0  0  0  0  0  0  0  0  0
   47.4490   29.4500   46.3350 H   0  0  0  0  0  0  0  0  0  0  0  0
   47.0670   30.7350   48.3560 H   0  0  0  0  0  0  0  0  0  0  0  0
   44.9280   35.0980   44.3630 C   0  0  0  0  0  0  0  0  0  0  0  0
   45.5060   35.3430   43.1210 C   0  0  0  0  0  0  0  0  0  0  0  0
   46.6630   34.6230   42.7650 C   0  0  0  0  0  0  0  0  0  0  0  0
   47.1690   33.7240   43.6370 N   0  0  0  0  0  0  0  0  0  0  0  0
   46.5920   33.4990   44.8400 C   0  0  0  0  0  0  0  0  0  0  0  0
   45.4680   34.1820   45.2130 N   0  0  0  0  0  0  0  0  0  0  0  0
   45.0240   36.0870   42.4890 H   0  0  0  0  0  0  0  0  0  0  0  0
   47.0890   34.8250   41.8120 H   0  0  0  0  0  0  0  0  0  0  0  0
   43.7820   35.7830   44.7650 O   0  0  0  0  0  0  0  0  0  0  0  0
   42.9290   35.8120   44.2430 H   0  0  0  0  0  0  0  0  0  0  0  0
   44.9290   32.7110   46.7990 O   0  0  0  0  0  0  0  0  0  0  0  0
   44.4120   32.1110   47.4010 H   0  0  0  0  0  0  0  0  0  0  0  0
  1  3  1  0  0  0  0
  1  2  1  0  0  0  0
  4  5  1  0  0  0  0
  4  1  1  0  0  0  0
  6  4  1  0  0  0  0
  7  8  1  0  0  0  0
  8  4  1  0  0  0  0
  8  9  2  0  0  0  0
  9 13  1  0  0  0  0
 10  9  1  0  0  0  0
 10 14  1  0  0  0  0
 11 10  2  0  0  0  0
 12  7  2  0  0  0  0
 12 11  1  0  0  0  0
 15 11  1  0  0  0  0
 16  7  1  0  0  0  0
 17 16  1  0  0  0  0
 18 12  1  0  0  0  0
 19 18  1  0  0  0  0
 20 19  1  0  0  0  0
 21 20  1  0  0  0  0
 22 21  1  0  0  0  0
 22 23  1  0  0  0  0
 23 24  1  0  0  0  0
 24 19  1  0  0  0  0
 25 30  1  0  0  0  0
 25  1  1  0  0  0  0
 26 30  1  0  0  0  0
 26 31  1  1  0  0  0
 27 32  1  1  0  0  0
 27 26  1  0  0  0  0
 28 27  1  0  0  0  0
 28 29  1  0  0  0  0
 29 33  1  0  0  0  0
 29 30  1  0  0  0  0
 30 35  1  1  0  0  0
 34 29  1  0  0  0  0
 36 44  1  0  0  0  0
 36 41  1  0  0  0  0
 37 36  2  0  0  0  0
 38 37  1  0  0  0  0
 38 39  2  0  0  0  0
 39 40  1  0  0  0  0
 40 41  2  0  0  0  0
 40 27  1  0  0  0  0
 42 37  1  0  0  0  0
 43 38  1  0  0  0  0
 45 44  1  0  0  0  0
 46 26  1  0  0  0  0
 46 47  1  0  0  0  0
M  END
>  <minimizedAffinity>
-5.95780706

>  <minimizedRMSD>
0.895325363

$$$$
