
 OpenBabel03252509293D

 18 19  0  0  0  0  0  0  0  0999 V2000
   44.4800   36.1160   44.5480 C   0  0  0  0  0  0  0  0  0  0  0  0
   45.2360   35.9640   43.3600 C   0  0  0  0  0  0  0  0  0  0  0  0
   46.0900   34.8670   43.2830 C   0  0  0  0  0  0  0  0  0  0  0  0
   46.1650   33.9990   44.3300 N   0  0  0  0  0  0  0  0  0  0  0  0
   45.4150   34.1890   45.4560 C   0  0  0  0  0  0  0  0  0  0  0  0
   44.5810   35.2390   45.5600 N   0  0  0  0  0  0  0  0  0  0  0  0
   43.8130   36.9600   44.6270 H   0  0  0  0  0  0  0  0  0  0  0  0
   45.1200   36.6900   42.5830 H   0  0  0  0  0  0  0  0  0  0  0  0
   45.4740   33.5080   46.2790 H   0  0  0  0  0  0  0  0  0  0  0  0
   46.8670   34.7160   42.0540 C   0  0  0  0  0  0  0  0  0  0  0  0
   46.2930   34.0440   41.3810 H   0  0  0  0  0  0  0  0  0  0  0  0
   47.0280   35.6560   41.5120 H   0  0  0  0  0  0  0  0  0  0  0  0
   48.1990   34.0500   42.2620 C   0  0  0  0  0  3  0  0  0  0  0  0
   48.4090   32.8070   41.4530 C   0  0  0  0  0  2  0  0  0  0  0  0
   49.5870   32.0830   42.1090 C   0  0  0  0  0  2  0  0  0  0  0  0
   50.7920   32.9680   41.9440 C   0  0  0  0  0  2  0  0  0  0  0  0
   50.5750   34.2990   42.6260 C   0  0  0  0  0  2  0  0  0  0  0  0
   49.3620   34.9810   41.9800 C   0  0  0  0  0  2  0  0  0  0  0  0
  1  7  1  0  0  0  0
  1  6  1  0  0  0  0
  2  1  2  0  0  0  0
  3  2  1  0  0  0  0
  3  4  2  0  0  0  0
  4  5  1  0  0  0  0
  5  6  2  0  0  0  0
  5  9  1  0  0  0  0
  8  2  1  0  0  0  0
 10 13  1  0  0  0  0
 10  3  1  0  0  0  0
 11 10  1  0  0  0  0
 12 10  1  0  0  0  0
 14 15  1  0  0  0  0
 14 13  1  0  0  0  0
 16 15  1  0  0  0  0
 16 17  1  0  0  0  0
 18 13  1  0  0  0  0
 18 17  1  0  0  0  0
M  END
>  <minimizedAffinity>
-4.56832027

>  <minimizedRMSD>
2.02698541

$$$$
