
 OpenBabel03252503313D

 38 40  0  0  1  0  0  0  0  0999 V2000
   45.6030   34.4990   42.3140 C   0  0  0  0  0  0  0  0  0  0  0  0
   46.6690   35.2830   41.7820 C   0  0  0  0  0  0  0  0  0  0  0  0
   47.9640   34.9440   42.2220 C   0  0  0  0  0  0  0  0  0  0  0  0
   48.0930   33.9280   43.0920 N   0  0  0  0  0  0  0  0  0  0  0  0
   47.0450   33.2140   43.5670 C   0  0  0  0  0  0  0  0  0  0  0  0
   45.7920   33.5130   43.1670 N   0  0  0  0  0  0  0  0  0  0  0  0
   43.9970   34.3130   40.6130 C   0  0  0  0  0  0  0  0  0  0  0  0
   44.9460   33.7670   39.9530 O   0  0  0  0  0  0  0  0  0  0  0  0
   44.2530   34.7820   41.9170 N   0  0  0  0  0  0  0  0  0  0  0  0
   42.7360   34.4070   39.9730 N   0  0  0  0  0  0  0  0  0  0  0  0
   42.6440   34.2070   38.5130 C   0  0  0  0  0  0  0  0  0  0  0  0
   41.4970   35.0990   38.1430 C   0  0  0  0  0  0  0  0  0  0  0  0
   40.9670   35.6490   39.4350 C   0  0  0  0  0  0  0  0  0  0  0  0
   41.4190   34.6560   40.4770 C   0  0  1  0  0  0  0  0  0  0  0  0
   46.4120   36.0730   41.0860 H   0  0  0  0  0  0  0  0  0  0  0  0
   47.2180   32.4130   44.2620 H   0  0  0  0  0  0  0  0  0  0  0  0
   43.4850   35.2480   42.4050 H   0  0  0  0  0  0  0  0  0  0  0  0
   42.4660   33.1520   38.2670 H   0  0  0  0  0  0  0  0  0  0  0  0
   43.5450   34.6240   38.0180 H   0  0  0  0  0  0  0  0  0  0  0  0
   40.7310   34.4620   37.6240 H   0  0  0  0  0  0  0  0  0  0  0  0
   41.7960   35.9200   37.4300 H   0  0  0  0  0  0  0  0  0  0  0  0
   40.0570   36.1530   39.4710 H   0  0  0  0  0  0  0  0  0  0  0  0
   41.7140   36.4960   39.6400 H   0  0  0  0  0  0  0  0  0  0  0  0
   41.3480   35.1770   41.4170 H   0  0  0  0  0  0  0  0  0  0  0  0
   39.2170   33.3340   40.6340 C   0  0  0  0  0  0  0  0  0  0  0  0
   38.7070   34.4590   40.4000 O   0  0  0  0  0  0  0  0  0  0  0  0
   40.6580   33.4170   40.5140 N   0  0  0  0  0  0  0  0  0  0  0  0
   41.2200   32.5130   40.4460 H   0  0  0  0  0  0  0  0  0  0  0  0
   38.5710   32.0230   40.9950 C   0  0  0  0  0  0  0  0  0  0  0  0
   39.4610   31.1960   41.8420 C   0  0  0  0  0  0  0  0  0  0  0  0
   40.1030   30.0180   41.1950 C   0  0  0  0  0  0  0  0  0  0  0  0
   38.9970   29.2090   40.5260 C   0  0  0  0  0  0  0  0  0  0  0  0
   38.5620   30.0850   39.3600 C   0  0  0  0  0  0  0  0  0  0  0  0
   37.9420   31.3660   39.8200 C   0  0  0  0  0  0  0  0  0  0  0  0
   49.0340   35.7610   41.6600 C   0  0  0  0  0  0  0  0  0  0  0  0
   50.2590   35.2440   42.0790 F   0  0  0  0  0  0  0  0  0  0  0  0
   48.9450   37.0240   42.2550 F   0  0  0  0  0  0  0  0  0  0  0  0
   49.0420   35.8030   40.2930 F   0  0  0  0  0  0  0  0  0  0  0  0
  1  6  1  0  0  0  0
  2  3  1  0  0  0  0
  2  1  2  0  0  0  0
  3  4  2  0  0  0  0
  4  5  1  0  0  0  0
  5 16  1  0  0  0  0
  6  5  2  0  0  0  0
  7  9  1  0  0  0  0
  8  7  2  0  0  0  0
  9  1  1  0  0  0  0
  9 17  1  0  0  0  0
 10 14  1  0  0  0  0
 10  7  1  0  0  0  0
 11 10  1  0  0  0  0
 12 11  1  0  0  0  0
 12 13  1  0  0  0  0
 13 22  1  0  0  0  0
 13 23  1  0  0  0  0
 13 14  1  0  0  0  0
 14 27  1  0  0  0  0
 14 24  1  1  0  0  0
 15  2  1  0  0  0  0
 18 11  1  0  0  0  0
 19 11  1  0  0  0  0
 20 12  1  0  0  0  0
 21 12  1  0  0  0  0
 25 29  1  0  0  0  0
 26 25  2  0  0  0  0
 27 25  1  0  0  0  0
 28 27  1  0  0  0  0
 29 30  1  0  0  0  0
 31 30  1  0  0  0  0
 32 31  1  0  0  0  0
 33 34  1  0  0  0  0
 33 32  1  0  0  0  0
 34 29  1  0  0  0  0
 35 36  1  0  0  0  0
 35  3  1  0  0  0  0
 35 37  1  0  0  0  0
 38 35  1  0  0  0  0
M  END
>  <minimizedAffinity>
-6.69874859

>  <minimizedRMSD>
0.728914917

$$$$
