
     RDKit          3D

 30 31  0  0  0  0  0  0  0  0999 V2000
   44.9148   35.1057   44.9432 C   0  0  0  0  0  0  0  0  0  0  0  0
   45.8265   34.7551   43.9485 C   0  0  0  0  0  0  0  0  0  0  0  0
   46.6824   33.6977   44.2188 C   0  0  0  0  0  0  0  0  0  0  0  0
   46.6051   33.0593   45.4078 N   0  0  0  0  0  0  0  0  0  0  0  0
   45.7088   33.4327   46.3383 C   0  0  0  0  0  0  0  0  0  0  0  0
   44.8536   34.4533   46.1276 N   0  0  0  0  0  0  0  0  0  0  0  0
   45.7967   35.5537   42.6794 C   0  0  0  0  0  0  0  0  0  0  0  0
   45.3491   36.8055   43.0307 F   0  0  0  0  0  0  0  0  0  0  0  0
   44.9101   34.9457   41.8287 F   0  0  0  0  0  0  0  0  0  0  0  0
   47.0755   35.5490   42.1553 F   0  0  0  0  0  0  0  0  0  0  0  0
   45.6234   32.7772   47.5696 O   0  0  0  0  0  0  0  0  0  0  0  0
   44.2201   35.9163   44.8026 H   0  0  0  0  0  0  0  0  0  0  0  0
   47.3775   33.4447   43.4367 H   0  0  0  0  0  0  0  0  0  0  0  0
   46.4690   31.6929   47.9022 C   0  0  0  0  0  0  0  0  0  0  0  0
   46.3962   31.3962   49.3723 C   0  0  0  0  0  0  0  0  0  0  0  0
   47.5631   31.9025   50.1566 C   0  0  0  0  0  0  0  0  0  0  0  0
   48.8952   31.4970   49.5929 C   0  0  0  0  0  0  0  0  0  0  0  0
   48.8750   31.1854   48.1220 C   0  0  0  0  0  0  0  0  0  0  0  0
   47.8660   32.0754   47.4593 C   0  0  0  0  0  0  0  0  0  0  0  0
   46.1731   30.7599   47.3784 H   0  0  0  0  0  0  0  0  0  0  0  0
   46.2530   30.3013   49.5927 H   0  0  0  0  0  0  0  0  0  0  0  0
   45.4856   31.8951   49.7723 H   0  0  0  0  0  0  0  0  0  0  0  0
   47.4841   31.4397   51.1765 H   0  0  0  0  0  0  0  0  0  0  0  0
   47.4684   32.9877   50.2646 H   0  0  0  0  0  0  0  0  0  0  0  0
   49.5895   32.3525   49.7467 H   0  0  0  0  0  0  0  0  0  0  0  0
   49.3396   30.6287   50.1426 H   0  0  0  0  0  0  0  0  0  0  0  0
   48.6504   30.1269   47.9565 H   0  0  0  0  0  0  0  0  0  0  0  0
   49.8799   31.4493   47.6837 H   0  0  0  0  0  0  0  0  0  0  0  0
   47.9302   32.0255   46.3594 H   0  0  0  0  0  0  0  0  0  0  0  0
   48.0089   33.1262   47.8484 H   0  0  0  0  0  0  0  0  0  0  0  0
  1  6  2  0
  2  3  2  0
  2  1  1  0
  3  4  1  0
  4  5  2  0
  5 11  1  0
  6  5  1  0
  7  8  1  0
  7  2  1  0
  9  7  1  0
 10  7  1  0
  1 12  1  0
  3 13  1  0
 14 15  1  0
 15 16  1  0
 16 17  1  0
 17 18  1  0
 18 19  1  0
 19 14  1  0
 14 20  1  0
 15 21  1  0
 15 22  1  0
 16 23  1  0
 16 24  1  0
 17 25  1  0
 17 26  1  0
 18 27  1  0
 18 28  1  0
 19 29  1  0
 19 30  1  0
 11 14  1  0
M  ISO  2  12  14  13  14
M  END
>  <DihAtoms>  (1) 
4,10,13,14

>  <DihDeg>  (1) 
-118.56017576723124

$$$$
