
     RDKit          3D

 30 31  0  0  0  0  0  0  0  0999 V2000
   44.5298   36.0458   44.5684 C   0  0  0  0  0  0  0  0  0  0  0  0
   45.2461   36.0077   43.3589 C   0  0  0  0  0  0  0  0  0  0  0  0
   46.1377   34.9529   43.1458 C   0  0  0  0  0  0  0  0  0  0  0  0
   46.2805   34.0041   44.1124 N   0  0  0  0  0  0  0  0  0  0  0  0
   45.5740   34.0701   45.2689 C   0  0  0  0  0  0  0  0  0  0  0  0
   44.7141   35.0850   45.4773 N   0  0  0  0  0  0  0  0  0  0  0  0
   46.3811   34.2041   40.7925 C   0  0  0  0  0  0  0  0  0  0  0  0
   45.2220   33.7280   40.9321 O   0  0  0  0  0  0  0  0  0  0  0  0
   46.8986   34.8434   41.9497 N   0  0  0  0  0  0  0  0  0  0  0  0
   43.8363   36.8562   44.7468 H   0  0  0  0  0  0  0  0  0  0  0  0
   45.1254   36.7658   42.5980 H   0  0  0  0  0  0  0  0  0  0  0  0
   45.7107   33.2971   46.0206 H   0  0  0  0  0  0  0  0  0  0  0  0
   47.8417   35.2702   42.0203 H   0  0  0  0  0  0  0  0  0  0  0  0
   47.2670   34.1839   39.5885 C   0  0  0  0  0  0  0  0  0  0  0  0
   46.4808   33.8146   38.3417 C   0  0  0  0  0  0  0  0  0  0  0  0
   47.4132   34.1934   37.1883 C   0  0  0  0  0  0  0  0  0  0  0  0
   48.5477   33.1963   37.1706 C   0  0  0  0  0  0  0  0  0  0  0  0
   48.6478   32.4076   38.4428 C   0  0  0  0  0  0  0  0  0  0  0  0
   48.3830   33.1850   39.6918 C   0  0  0  0  0  0  0  0  0  0  0  0
   47.7298   35.1810   39.4347 H   0  0  0  0  0  0  0  0  0  0  0  0
   46.3106   32.7139   38.2897 H   0  0  0  0  0  0  0  0  0  0  0  0
   45.5267   34.3683   38.2953 H   0  0  0  0  0  0  0  0  0  0  0  0
   46.8495   34.2421   36.2554 H   0  0  0  0  0  0  0  0  0  0  0  0
   47.7899   35.2125   37.4352 H   0  0  0  0  0  0  0  0  0  0  0  0
   48.3024   32.4617   36.3724 H   0  0  0  0  0  0  0  0  0  0  0  0
   49.4900   33.6641   36.8865 H   0  0  0  0  0  0  0  0  0  0  0  0
   47.9959   31.5177   38.4049 H   0  0  0  0  0  0  0  0  0  0  0  0
   49.6852   32.0141   38.4900 H   0  0  0  0  0  0  0  0  0  0  0  0
   49.3237   33.6636   40.0808 H   0  0  0  0  0  0  0  0  0  0  0  0
   48.0855   32.4329   40.4745 H   0  0  0  0  0  0  0  0  0  0  0  0
  1  6  2  0
  2  1  1  0
  3  2  2  0
  3  4  1  0
  4  5  2  0
  5  6  1  0
  7  8  2  0
  7  9  1  0
  9  3  1  0
  1 10  1  0
  2 11  1  0
  5 12  1  0
  9 13  1  0
 14 15  1  0
 15 16  1  0
 16 17  1  0
 17 18  1  0
 18 19  1  0
 19 14  1  0
 14 20  1  0
 15 21  1  0
 15 22  1  0
 16 23  1  0
 16 24  1  0
 17 25  1  0
 17 26  1  0
 18 27  1  0
 18 28  1  0
 19 29  1  0
 19 30  1  0
  7 14  1  0
M  ISO  3  10  14  11  14  12  14
M  END
>  <DihAtoms>  (1) 
7,6,13,14

>  <DihDeg>  (1) 
-0.0007109812270849915

$$$$
