
 OpenBabel03242520453D

 19 20  0  0  0  0  0  0  0  0999 V2000
   44.9040   35.1080   44.0290 C   0  0  0  0  0  0  0  0  0  0  0  0
   45.7760   35.3720   42.9610 C   0  0  0  0  0  0  0  0  0  0  0  0
   47.0000   34.6800   42.9020 C   0  0  0  0  0  0  0  0  0  0  0  0
   47.2600   33.7910   43.8920 N   0  0  0  0  0  0  0  0  0  0  0  0
   46.3930   33.5700   44.8990 C   0  0  0  0  0  0  0  0  0  0  0  0
   45.2360   34.2180   44.9630 N   0  0  0  0  0  0  0  0  0  0  0  0
   43.6750   35.8140   44.0730 N   0  0  0  0  0  0  0  0  0  0  0  0
   45.5070   36.1020   42.1910 H   0  0  0  0  0  0  0  0  0  0  0  0
   46.6340   32.8460   45.6820 H   0  0  0  0  0  0  0  0  0  0  0  0
   43.5900   36.7230   44.5810 H   0  0  0  0  0  0  0  0  0  0  0  0
   42.7340   35.6350   43.6830 H   0  0  0  0  0  0  0  0  0  0  0  0
   47.8510   34.9830   41.7970 C   0  0  0  0  0  0  0  0  0  0  0  0
   48.7450   35.8770   41.7950 O   0  0  0  0  0  0  0  0  0  0  0  0
   47.6500   34.1690   40.5700 C   0  0  0  0  0  0  0  0  0  0  0  0
   48.1890   32.7950   40.8010 C   0  0  0  0  0  0  0  0  0  0  0  0
   48.9890   32.2300   39.6780 C   0  0  0  0  0  0  0  0  0  0  0  0
   48.5870   32.6210   38.3040 C   0  0  0  0  0  0  0  0  0  0  0  0
   47.9510   33.9740   38.1880 C   0  0  0  0  0  0  0  0  0  0  0  0
   48.3250   34.8000   39.3960 C   0  0  0  0  0  0  0  0  0  0  0  0
  1  7  1  0  0  0  0
  1  6  1  0  0  0  0
  2  1  2  0  0  0  0
  3  2  1  0  0  0  0
  3  4  2  0  0  0  0
  4  5  1  0  0  0  0
  5  6  2  0  0  0  0
  5  9  1  0  0  0  0
  7 10  1  0  0  0  0
  8  2  1  0  0  0  0
 11  7  1  0  0  0  0
 12  3  1  0  0  0  0
 13 12  2  0  0  0  0
 14 15  1  0  0  0  0
 14 12  1  0  0  0  0
 16 15  1  0  0  0  0
 17 16  1  0  0  0  0
 18 17  1  0  0  0  0
 18 19  1  0  0  0  0
 19 14  1  0  0  0  0
M  END
>  <minimizedAffinity>
-4.98442411

>  <minimizedRMSD>
0.805926859

$$$$
