
     RDKit          3D

 30 31  0  0  0  0  0  0  0  0999 V2000
   44.9148   35.1057   44.9432 C   0  0  0  0  0  0  0  0  0  0  0  0
   45.8265   34.7551   43.9485 C   0  0  0  0  0  0  0  0  0  0  0  0
   46.6824   33.6977   44.2188 C   0  0  0  0  0  0  0  0  0  0  0  0
   46.6051   33.0593   45.4078 N   0  0  0  0  0  0  0  0  0  0  0  0
   45.7088   33.4327   46.3383 C   0  0  0  0  0  0  0  0  0  0  0  0
   44.8536   34.4533   46.1276 N   0  0  0  0  0  0  0  0  0  0  0  0
   45.7967   35.5537   42.6794 C   0  0  0  0  0  0  0  0  0  0  0  0
   45.3491   36.8055   43.0307 F   0  0  0  0  0  0  0  0  0  0  0  0
   44.9101   34.9457   41.8287 F   0  0  0  0  0  0  0  0  0  0  0  0
   47.0755   35.5490   42.1553 F   0  0  0  0  0  0  0  0  0  0  0  0
   45.6234   32.7772   47.5696 O   0  0  0  0  0  0  0  0  0  0  0  0
   44.2201   35.9163   44.8026 H   0  0  0  0  0  0  0  0  0  0  0  0
   47.3775   33.4447   43.4367 H   0  0  0  0  0  0  0  0  0  0  0  0
   46.4690   31.6929   47.9022 C   0  0  0  0  0  0  0  0  0  0  0  0
   46.9768   31.8295   49.3086 C   0  0  0  0  0  0  0  0  0  0  0  0
   48.3870   32.3145   49.4048 C   0  0  0  0  0  0  0  0  0  0  0  0
   49.3550   31.5382   48.5581 C   0  0  0  0  0  0  0  0  0  0  0  0
   48.7277   30.8433   47.3814 C   0  0  0  0  0  0  0  0  0  0  0  0
   47.5891   31.6826   46.8827 C   0  0  0  0  0  0  0  0  0  0  0  0
   45.9355   30.7205   47.8538 H   0  0  0  0  0  0  0  0  0  0  0  0
   46.8731   30.8813   49.9069 H   0  0  0  0  0  0  0  0  0  0  0  0
   46.3335   32.5736   49.8286 H   0  0  0  0  0  0  0  0  0  0  0  0
   48.6989   32.1716   50.4740 H   0  0  0  0  0  0  0  0  0  0  0  0
   48.4049   33.3864   49.1832 H   0  0  0  0  0  0  0  0  0  0  0  0
   50.0994   32.2644   48.1631 H   0  0  0  0  0  0  0  0  0  0  0  0
   49.9334   30.7894   49.1567 H   0  0  0  0  0  0  0  0  0  0  0  0
   48.3965   29.8380   47.6605 H   0  0  0  0  0  0  0  0  0  0  0  0
   49.4847   30.7924   46.5471 H   0  0  0  0  0  0  0  0  0  0  0  0
   47.2027   31.3219   45.9148 H   0  0  0  0  0  0  0  0  0  0  0  0
   47.9352   32.7567   46.8311 H   0  0  0  0  0  0  0  0  0  0  0  0
  1  6  2  0
  2  3  2  0
  2  1  1  0
  3  4  1  0
  4  5  2  0
  5 11  1  0
  6  5  1  0
  7  8  1  0
  7  2  1  0
  9  7  1  0
 10  7  1  0
  1 12  1  0
  3 13  1  0
 14 15  1  0
 15 16  1  0
 16 17  1  0
 17 18  1  0
 18 19  1  0
 19 14  1  0
 14 20  1  0
 15 21  1  0
 15 22  1  0
 16 23  1  0
 16 24  1  0
 17 25  1  0
 17 26  1  0
 18 27  1  0
 18 28  1  0
 19 29  1  0
 19 30  1  0
 11 14  1  0
M  ISO  2  12  14  13  14
M  END
>  <DihAtoms>  (1) 
4,10,13,14

>  <DihDeg>  (1) 
-118.56017576723124

$$$$
