
 OpenBabel03252508003D

 26 28  0  0  1  0  0  0  0  0999 V2000
   46.5120   34.6730   43.2280 C   0  0  0  0  0  0  0  0  0  0  0  0
   45.4700   35.6230   43.4640 C   0  0  0  0  0  0  0  0  0  0  0  0
   44.7110   35.4460   44.6290 C   0  0  0  0  0  0  0  0  0  0  0  0
   45.0160   34.4000   45.4380 N   0  0  0  0  0  0  0  0  0  0  0  0
   46.0300   33.5300   45.1430 C   0  0  0  0  0  0  0  0  0  0  0  0
   46.7760   33.6500   44.0610 N   0  0  0  0  0  0  0  0  0  0  0  0
   45.2870   36.4300   42.7730 H   0  0  0  0  0  0  0  0  0  0  0  0
   43.9100   36.1330   44.8580 H   0  0  0  0  0  0  0  0  0  0  0  0
   46.3060   32.4140   46.1000 C   0  0  1  0  0  0  0  0  0  0  0  0
   47.0080   32.7120   47.4030 C   0  0  0  0  0  0  0  0  0  0  0  0
   45.5250   32.4680   47.3530 C   0  0  1  0  0  0  0  0  0  0  0  0
   46.4840   31.4310   45.6330 H   0  0  0  0  0  0  0  0  0  0  0  0
   47.6460   31.8840   47.7760 H   0  0  0  0  0  0  0  0  0  0  0  0
   47.4100   33.7260   47.4580 H   0  0  0  0  0  0  0  0  0  0  0  0
   45.1480   31.5460   47.8370 H   0  0  0  0  0  0  0  0  0  0  0  0
   44.7640   33.6820   47.6730 N   0  0  0  0  0  0  0  0  0  0  0  0
   44.2830   33.5300   48.5730 H   0  0  0  0  0  0  0  0  0  0  0  0
   45.3680   34.5200   47.8020 H   0  0  0  0  0  0  0  0  0  0  0  0
   47.2650   34.9100   42.0220 C   0  0  0  0  0  0  0  0  0  0  0  0
   48.3380   35.6070   41.9830 O   0  0  0  0  0  0  0  0  0  0  0  0
   46.8470   34.3490   40.6850 C   0  0  1  0  0  0  0  0  0  0  0  0
   48.0500   34.2990   39.8220 C   0  0  0  0  0  0  0  0  0  0  0  0
   48.6210   32.9190   39.6570 C   0  0  0  0  0  0  0  0  0  0  0  0
   47.4810   32.1290   39.0010 C   0  0  0  0  0  0  0  0  0  0  0  0
   46.4850   31.8920   40.1050 C   0  0  0  0  0  0  0  0  0  0  0  0
   46.0610   33.1030   40.8410 C   0  0  0  0  0  0  0  0  0  0  0  0
  1  2  2  0  0  0  0
  1  6  1  0  0  0  0
  2  3  1  0  0  0  0
  3  8  1  0  0  0  0
  3  4  2  0  0  0  0
  5  4  1  0  0  0  0
  5  9  1  0  0  0  0
  6  5  2  0  0  0  0
  7  2  1  0  0  0  0
  9 12  1  6  0  0  0
  9 11  1  0  0  0  0
  9 10  1  0  0  0  0
 10 14  1  0  0  0  0
 10 13  1  0  0  0  0
 11 10  1  0  0  0  0
 11 16  1  0  0  0  0
 11 15  1  1  0  0  0
 16 18  1  0  0  0  0
 16 17  1  0  0  0  0
 19  1  1  0  0  0  0
 20 19  2  0  0  0  0
 21 26  1  0  0  0  0
 21 19  1  1  0  0  0
 22 21  1  0  0  0  0
 23 22  1  0  0  0  0
 24 23  1  0  0  0  0
 24 25  1  0  0  0  0
 25 26  2  0  0  0  0
M  END
>  <minimizedAffinity>
-5.56791162

>  <minimizedRMSD>
0.732608974

$$$$
