REMARK  Name = 
REMARK  4 active torsions:
REMARK  status: ('A' for Active; 'I' for Inactive)
REMARK    1  A    between atoms: C_1  and  O_12
REMARK    2  A    between atoms: C_2  and  C_7
REMARK    3  A    between atoms: O_12  and  C_13
REMARK    4  A    between atoms: C_13  and  C_20
REMARK                            x       y       z     vdW  Elec       q    Type
REMARK                         _______ _______ _______ _____ _____    ______ ____
ROOT
ATOM      1  C   UNL     1      46.076  34.153  41.001  0.00  0.00    +0.000 A 
ATOM      2  C   UNL     1      46.614  34.828  42.091  0.00  0.00    +0.000 A 
ATOM      3  C   UNL     1      47.934  35.278  41.989  0.00  0.00    +0.000 A 
ATOM      4  N   UNL     1      48.613  35.032  40.837  0.00  0.00    +0.000 NA
ATOM      5  C   UNL     1      48.053  34.373  39.804  0.00  0.00    +0.000 A 
ATOM      6  N   UNL     1      46.776  33.932  39.890  0.00  0.00    +0.000 NA
ATOM      7  H   UNL     1      48.383  35.813  42.832  0.00  0.00    +0.000 HD
ATOM      8  H   UNL     1      48.606  34.184  38.895  0.00  0.00    +0.000 HD
ENDROOT
BRANCH   2   9
ATOM      9  C   UNL     1      45.804  35.047  43.291  0.00  0.00    +0.000 A 
ATOM     10  C   UNL     1      45.048  36.177  43.497  0.00  0.00    +0.000 A 
ATOM     11  C   UNL     1      44.465  35.968  44.723  0.00  0.00    +0.000 A 
ATOM     12  N   UNL     1      44.848  34.769  45.242  0.00  0.00    +0.000 N 
ATOM     13  N   UNL     1      45.656  34.240  44.352  0.00  0.00    +0.000 NA
ATOM     14  H   UNL     1      44.960  37.001  42.833  0.00  0.00    +0.000 HD
ATOM     15  H   UNL     1      43.789  36.639  45.242  0.00  0.00    +0.000 HD
ATOM     16  H   UNL     1      44.552  34.372  46.154  0.00  0.00    +0.000 HD
ENDBRANCH   2   9
BRANCH   1  17
ATOM     17  O   UNL     1      44.779  33.709  41.099  0.00  0.00    +0.000 OA
BRANCH  17  18
ATOM     18  C   UNL     1      43.695  34.194  40.425  0.00  0.00    +0.000 C 
ATOM     19  O   UNL     1      43.248  35.388  40.422  0.00  0.00    +0.000 OA
BRANCH  18  20
ATOM     20  C   UNL     1      42.668  33.593  39.492  0.00  0.00    +0.000 C 
ATOM     21  C   UNL     1      41.920  34.684  38.769  0.00  0.00    +0.000 C 
ATOM     22  C   UNL     1      41.125  33.986  37.680  0.00  0.00    +0.000 C 
ATOM     23  C   UNL     1      40.031  33.187  38.338  0.00  0.00    +0.000 C 
ATOM     24  C   UNL     1      40.277  32.842  39.766  0.00  0.00    +0.000 C 
ATOM     25  C   UNL     1      41.713  32.675  40.153  0.00  0.00    +0.000 C 
ENDBRANCH  18  20
ENDBRANCH  17  18
ENDBRANCH   1  17
TORSDOF 4
