
 OpenBabel03242518543D

 39 41  0  0  1  0  0  0  0  0999 V2000
   46.1280   31.2100   46.4780 C   0  0  2  0  0  0  0  0  0  0  0  0
   45.0610   30.7780   47.4320 C   0  0  0  0  0  0  0  0  0  0  0  0
   44.6970   29.3820   47.0710 C   0  0  0  0  0  0  0  0  0  0  0  0
   45.3900   28.8220   45.8710 C   0  0  0  0  0  0  0  0  0  0  0  0
   46.8830   28.9410   46.0200 C   0  0  0  0  0  0  0  0  0  0  0  0
   47.2850   30.2320   46.5590 C   0  0  2  0  0  0  0  0  0  0  0  0
   45.7560   31.0970   45.4390 H   0  0  0  0  0  0  0  0  0  0  0  0
   45.3350   30.9260   48.4960 H   0  0  0  0  0  0  0  0  0  0  0  0
   44.1920   31.4940   47.2890 H   0  0  0  0  0  0  0  0  0  0  0  0
   43.6000   29.3990   46.7830 H   0  0  0  0  0  0  0  0  0  0  0  0
   44.7040   28.6530   47.9150 H   0  0  0  0  0  0  0  0  0  0  0  0
   45.0180   29.2680   44.9200 H   0  0  0  0  0  0  0  0  0  0  0  0
   45.0960   27.7520   45.8110 H   0  0  0  0  0  0  0  0  0  0  0  0
   47.2870   28.8300   44.9670 H   0  0  0  0  0  0  0  0  0  0  0  0
   47.2180   28.0190   46.5250 H   0  0  0  0  0  0  0  0  0  0  0  0
   48.0870   30.6810   45.9460 H   0  0  0  0  0  0  0  0  0  0  0  0
   47.6660   30.0000   47.9750 C   0  0  0  0  0  0  0  0  0  0  0  0
   47.4540   28.9500   48.2570 H   0  0  0  0  0  0  0  0  0  0  0  0
   47.0400   30.7070   48.5930 H   0  0  0  0  0  0  0  0  0  0  0  0
   49.0830   30.2540   48.3620 C   0  0  0  0  0  3  0  0  0  0  0  0
   49.2290   30.9160   49.7070 C   0  0  0  0  0  2  0  0  0  0  0  0
   50.0410   30.0700   50.6700 C   0  0  0  0  0  2  0  0  0  0  0  0
   51.3820   29.7960   50.0240 C   0  0  0  0  0  2  0  0  0  0  0  0
   51.1270   28.8830   48.8630 C   0  0  0  0  0  2  0  0  0  0  0  0
   49.7270   28.8600   48.3760 C   0  0  0  0  0  2  0  0  0  0  0  0
   46.5610   32.6200   46.6610 C   0  0  0  0  0  0  0  0  0  0  0  0
   47.2740   33.0050   47.6170 O   0  0  0  0  0  0  0  0  0  0  0  0
   44.6820   35.2790   45.0010 C   0  0  0  0  0  0  0  0  0  0  0  0
   45.2630   35.3710   43.7120 C   0  0  0  0  0  0  0  0  0  0  0  0
   46.3070   34.5040   43.4490 C   0  0  0  0  0  0  0  0  0  0  0  0
   46.6390   33.6850   44.4490 N   0  0  0  0  0  0  0  0  0  0  0  0
   46.1070   33.5910   45.6470 C   0  0  0  0  0  0  0  0  0  0  0  0
   45.0910   34.4220   45.9270 N   0  0  0  0  0  0  0  0  0  0  0  0
   43.8470   35.9570   45.2420 H   0  0  0  0  0  0  0  0  0  0  0  0
   44.8920   36.0890   42.9910 H   0  0  0  0  0  0  0  0  0  0  0  0
   46.9060   34.5830   42.1270 C   0  0  0  0  0  0  0  0  0  0  0  0
   47.6140   33.4140   41.8610 F   0  0  0  0  0  0  0  0  0  0  0  0
   47.7740   35.6260   42.1440 F   0  0  0  0  0  0  0  0  0  0  0  0
   45.9530   34.6740   41.1180 F   0  0  0  0  0  0  0  0  0  0  0  0
  1  7  1  6  0  0  0
  1  6  1  0  0  0  0
  1 26  1  0  0  0  0
  1  2  1  0  0  0  0
  2  8  1  0  0  0  0
  3  2  1  0  0  0  0
  3 11  1  0  0  0  0
  4  5  1  0  0  0  0
  4  3  1  0  0  0  0
  5 15  1  0  0  0  0
  5  6  1  0  0  0  0
  6 16  1  6  0  0  0
  6 17  1  0  0  0  0
  9  2  1  0  0  0  0
 10  3  1  0  0  0  0
 12  4  1  0  0  0  0
 13  4  1  0  0  0  0
 14  5  1  0  0  0  0
 17 18  1  0  0  0  0
 17 20  1  0  0  0  0
 17 19  1  0  0  0  0
 20 25  1  0  0  0  0
 20 21  1  0  0  0  0
 21 22  1  0  0  0  0
 23 22  1  0  0  0  0
 24 23  1  0  0  0  0
 25 24  1  0  0  0  0
 26 27  2  0  0  0  0
 28 34  1  0  0  0  0
 28 33  1  0  0  0  0
 29 28  2  0  0  0  0
 30 29  1  0  0  0  0
 30 31  2  0  0  0  0
 31 32  1  0  0  0  0
 32 33  2  0  0  0  0
 32 26  1  0  0  0  0
 35 29  1  0  0  0  0
 36 38  1  0  0  0  0
 36 30  1  0  0  0  0
 37 36  1  0  0  0  0
 39 36  1  0  0  0  0
M  END
>  <minimizedAffinity>
-5.81973505

>  <minimizedRMSD>
2.41279435

$$$$
