
 OpenBabel03252502363D

 21 22  0  0  1  0  0  0  0  0999 V2000
   46.6670   35.1140   42.1170 C   0  0  2  0  0  0  0  0  0  0  0  0
   46.3310   36.1760   42.0670 H   0  0  0  0  0  0  0  0  0  0  0  0
   45.2410   35.2540   44.1120 C   0  0  0  0  0  0  0  0  0  0  0  0
   46.3110   34.6100   43.4400 C   0  0  0  0  0  0  0  0  0  0  0  0
   46.9490   33.5550   44.0970 C   0  0  0  0  0  0  0  0  0  0  0  0
   46.5010   33.2170   45.3300 N   0  0  0  0  0  0  0  0  0  0  0  0
   45.4890   33.8480   45.9310 C   0  0  0  0  0  0  0  0  0  0  0  0
   44.8450   34.8670   45.3440 N   0  0  0  0  0  0  0  0  0  0  0  0
   44.7080   36.0780   43.6570 H   0  0  0  0  0  0  0  0  0  0  0  0
   47.7700   33.0480   43.6140 H   0  0  0  0  0  0  0  0  0  0  0  0
   45.1160   33.5910   46.9240 H   0  0  0  0  0  0  0  0  0  0  0  0
   45.9680   34.4230   40.9650 C   0  0  0  0  0  3  0  0  0  0  0  0
   46.4330   33.0060   40.7960 C   0  0  0  0  0  2  0  0  0  0  0  0
   45.4360   32.1340   40.0800 C   0  0  0  0  0  2  0  0  0  0  0  0
   44.5900   32.9610   39.1290 C   0  0  0  0  0  2  0  0  0  0  0  0
   43.7210   33.8130   39.9960 C   0  0  0  0  0  2  0  0  0  0  0  0
   44.4830   34.5850   40.9990 C   0  0  0  0  0  2  0  0  0  0  0  0
   48.1840   35.0440   42.0160 C   0  0  0  0  0  0  0  0  0  0  0  0
   48.6740   34.9870   43.0100 H   0  0  0  0  0  0  0  0  0  0  0  0
   48.5140   34.2490   41.3270 H   0  0  0  0  0  0  0  0  0  0  0  0
   48.5180   35.9940   41.5500 H   0  0  0  0  0  0  0  0  0  0  0  0
  1  2  1  6  0  0  0
  1  4  1  0  0  0  0
  3  8  1  0  0  0  0
  4  5  1  0  0  0  0
  4  3  2  0  0  0  0
  5  6  2  0  0  0  0
  6  7  1  0  0  0  0
  7 11  1  0  0  0  0
  8  7  2  0  0  0  0
  9  3  1  0  0  0  0
 10  5  1  0  0  0  0
 12 17  1  0  0  0  0
 12  1  1  0  0  0  0
 13 12  1  0  0  0  0
 14 13  1  0  0  0  0
 15 16  1  0  0  0  0
 15 14  1  0  0  0  0
 16 17  1  0  0  0  0
 18  1  1  0  0  0  0
 18 19  1  0  0  0  0
 20 18  1  0  0  0  0
 21 18  1  0  0  0  0
M  END
>  <minimizedAffinity>
-4.06930065

>  <minimizedRMSD>
0.422569454

$$$$
