
 OpenBabel03252502363D

 21 22  0  0  1  0  0  0  0  0999 V2000
   46.5120   34.9330   42.0220 C   0  0  2  0  0  0  0  0  0  0  0  0
   45.9110   35.8390   41.7770 H   0  0  0  0  0  0  0  0  0  0  0  0
   45.1520   35.2850   44.0370 C   0  0  0  0  0  0  0  0  0  0  0  0
   46.1840   34.5560   43.3940 C   0  0  0  0  0  0  0  0  0  0  0  0
   46.8160   33.5450   44.1230 C   0  0  0  0  0  0  0  0  0  0  0  0
   46.3980   33.3290   45.3930 N   0  0  0  0  0  0  0  0  0  0  0  0
   45.4210   34.0370   45.9650 C   0  0  0  0  0  0  0  0  0  0  0  0
   44.7850   35.0180   45.3090 N   0  0  0  0  0  0  0  0  0  0  0  0
   44.6250   36.0810   43.5270 H   0  0  0  0  0  0  0  0  0  0  0  0
   47.6090   32.9770   43.6620 H   0  0  0  0  0  0  0  0  0  0  0  0
   45.0730   33.8770   46.9870 H   0  0  0  0  0  0  0  0  0  0  0  0
   46.1300   33.9090   40.9740 C   0  0  0  0  0  3  0  0  0  0  0  0
   44.6810   34.0130   40.5920 C   0  0  0  0  0  2  0  0  0  0  0  0
   44.3830   33.4440   39.2290 C   0  0  0  0  0  2  0  0  0  0  0  0
   45.3650   32.3370   38.8880 C   0  0  0  0  0  2  0  0  0  0  0  0
   46.6820   33.0120   38.6830 C   0  0  0  0  0  2  0  0  0  0  0  0
   47.0720   33.8760   39.8160 C   0  0  0  0  0  2  0  0  0  0  0  0
   47.9960   35.2730   42.0040 C   0  0  0  0  0  0  0  0  0  0  0  0
   48.3900   35.5050   43.0150 H   0  0  0  0  0  0  0  0  0  0  0  0
   48.5860   34.5060   41.4760 H   0  0  0  0  0  0  0  0  0  0  0  0
   48.1050   36.1960   41.3990 H   0  0  0  0  0  0  0  0  0  0  0  0
  1  2  1  6  0  0  0
  1  4  1  0  0  0  0
  3  8  1  0  0  0  0
  4  3  2  0  0  0  0
  4  5  1  0  0  0  0
  5  6  2  0  0  0  0
  6  7  1  0  0  0  0
  7 11  1  0  0  0  0
  8  7  2  0  0  0  0
  9  3  1  0  0  0  0
 10  5  1  0  0  0  0
 12  1  1  0  0  0  0
 13 12  1  0  0  0  0
 14 13  1  0  0  0  0
 15 14  1  0  0  0  0
 16 15  1  0  0  0  0
 16 17  1  0  0  0  0
 17 12  1  0  0  0  0
 18  1  1  0  0  0  0
 18 19  1  0  0  0  0
 20 18  1  0  0  0  0
 21 18  1  0  0  0  0
M  END
>  <minimizedAffinity>
-4.11134005

>  <minimizedRMSD>
0.335157484

$$$$
