
 OpenBabel03252508503D

 25 27  0  0  0  0  0  0  0  0999 V2000
   45.9310   34.1710   41.0430 C   0  0  0  0  0  0  0  0  0  0  0  0
   46.5240   34.8010   42.1320 C   0  0  0  0  0  0  0  0  0  0  0  0
   47.8650   35.1780   42.0130 C   0  0  0  0  0  0  0  0  0  0  0  0
   48.5100   34.9100   40.8460 N   0  0  0  0  0  0  0  0  0  0  0  0
   47.8970   34.2970   39.8150 C   0  0  0  0  0  0  0  0  0  0  0  0
   46.5990   33.9270   39.9180 N   0  0  0  0  0  0  0  0  0  0  0  0
   48.3570   35.6760   42.8540 H   0  0  0  0  0  0  0  0  0  0  0  0
   48.4230   34.0900   38.8940 H   0  0  0  0  0  0  0  0  0  0  0  0
   45.7470   35.0490   43.3490 C   0  0  0  0  0  0  0  0  0  0  0  0
   45.0750   36.2240   43.5910 C   0  0  0  0  0  0  0  0  0  0  0  0
   44.4960   36.0280   44.8200 C   0  0  0  0  0  0  0  0  0  0  0  0
   44.8010   34.7940   45.3070 N   0  0  0  0  0  0  0  0  0  0  0  0
   45.5570   34.2300   44.3940 N   0  0  0  0  0  0  0  0  0  0  0  0
   45.0360   37.0670   42.9460 H   0  0  0  0  0  0  0  0  0  0  0  0
   43.8760   36.7330   45.3640 H   0  0  0  0  0  0  0  0  0  0  0  0
   44.4900   34.3980   46.2150 H   0  0  0  0  0  0  0  0  0  0  0  0
   44.6130   33.7990   41.1580 O   0  0  0  0  0  0  0  0  0  0  0  0
   43.5260   34.4790   40.6880 C   0  0  0  0  0  0  0  0  0  0  0  0
   43.3620   35.7420   40.6280 O   0  0  0  0  0  0  0  0  0  0  0  0
   42.1930   34.0750   40.0990 C   0  0  0  0  0  3  0  0  0  0  0  0
   41.6410   32.8820   40.8340 C   0  0  0  0  0  2  0  0  0  0  0  0
   40.2070   32.7320   40.3600 C   0  0  0  0  0  2  0  0  0  0  0  0
   40.2340   32.2790   38.9230 C   0  0  0  0  0  2  0  0  0  0  0  0
   41.4970   32.5800   38.1930 C   0  0  0  0  0  2  0  0  0  0  0  0
   42.2290   33.8050   38.6440 C   0  0  0  0  0  2  0  0  0  0  0  0
  1 17  1  0  0  0  0
  1  2  1  0  0  0  0
  2  9  1  0  0  0  0
  3  2  2  0  0  0  0
  3  7  1  0  0  0  0
  4  3  1  0  0  0  0
  5  6  1  0  0  0  0
  5  4  2  0  0  0  0
  6  1  2  0  0  0  0
  8  5  1  0  0  0  0
  9 10  1  0  0  0  0
  9 13  2  0  0  0  0
 10 11  2  0  0  0  0
 11 12  1  0  0  0  0
 11 15  1  0  0  0  0
 12 16  1  0  0  0  0
 13 12  1  0  0  0  0
 14 10  1  0  0  0  0
 18 17  1  0  0  0  0
 19 18  2  0  0  0  0
 20 18  1  0  0  0  0
 20 21  1  0  0  0  0
 22 21  1  0  0  0  0
 23 22  1  0  0  0  0
 24 25  1  0  0  0  0
 24 23  1  0  0  0  0
 25 20  1  0  0  0  0
M  END
>  <minimizedAffinity>
-5.25672626

>  <minimizedRMSD>
0.954776466

$$$$
