
 OpenBabel03252505493D

 19 20  0  0  0  0  0  0  0  0999 V2000
   44.5560   35.4970   45.0740 C   0  0  0  0  0  0  0  0  0  0  0  0
   45.2530   35.1410   43.9200 C   0  0  0  0  0  0  0  0  0  0  0  0
   46.0570   34.0150   43.9880 C   0  0  0  0  0  0  0  0  0  0  0  0
   46.1380   33.3170   45.1430 N   0  0  0  0  0  0  0  0  0  0  0  0
   45.4480   33.6980   46.2320 C   0  0  0  0  0  0  0  0  0  0  0  0
   44.6510   34.7840   46.2210 N   0  0  0  0  0  0  0  0  0  0  0  0
   43.9120   36.3590   45.0940 H   0  0  0  0  0  0  0  0  0  0  0  0
   46.5850   33.7600   43.0850 H   0  0  0  0  0  0  0  0  0  0  0  0
   45.0650   36.0110   42.7110 C   0  0  0  0  0  0  0  0  0  0  0  0
   45.2730   37.3020   43.1390 F   0  0  0  0  0  0  0  0  0  0  0  0
   43.7740   35.8480   42.2810 F   0  0  0  0  0  0  0  0  0  0  0  0
   45.9680   35.5920   41.7540 F   0  0  0  0  0  0  0  0  0  0  0  0
   45.5260   32.9800   47.4300 O   0  0  0  0  0  0  0  0  0  0  0  0
   45.8820   31.6120   47.4620 C   0  0  0  0  0  0  0  0  0  0  0  0
   46.0550   31.1420   48.8780 C   0  0  0  0  0  0  0  0  0  0  0  0
   47.4800   31.0130   49.3090 C   0  0  0  0  0  0  0  0  0  0  0  0
   48.3270   30.2030   48.3680 C   0  0  0  0  0  0  0  0  0  0  0  0
   47.8140   30.1600   46.9560 C   0  0  0  0  0  0  0  0  0  0  0  0
   47.1510   31.4690   46.6480 C   0  0  0  0  0  0  0  0  0  0  0  0
  1  7  1  0  0  0  0
  1  6  1  0  0  0  0
  2  3  1  0  0  0  0
  2  1  2  0  0  0  0
  3  4  2  0  0  0  0
  4  5  1  0  0  0  0
  5 13  1  0  0  0  0
  6  5  2  0  0  0  0
  8  3  1  0  0  0  0
  9 10  1  0  0  0  0
  9  2  1  0  0  0  0
 11  9  1  0  0  0  0
 12  9  1  0  0  0  0
 13 14  1  0  0  0  0
 14 15  1  0  0  0  0
 15 16  1  0  0  0  0
 17 16  1  0  0  0  0
 18 17  1  0  0  0  0
 19 18  1  0  0  0  0
 19 14  1  0  0  0  0
M  END
>  <minimizedAffinity>
-4.98463631

>  <minimizedRMSD>
0.982137382

$$$$
