
 OpenBabel03252508503D

 25 27  0  0  0  0  0  0  0  0999 V2000
   45.8780   34.1170   41.0370 C   0  0  0  0  0  0  0  0  0  0  0  0
   46.4840   34.7680   42.1060 C   0  0  0  0  0  0  0  0  0  0  0  0
   47.8220   35.1490   41.9610 C   0  0  0  0  0  0  0  0  0  0  0  0
   48.4510   34.8640   40.7900 N   0  0  0  0  0  0  0  0  0  0  0  0
   47.8250   34.2300   39.7780 C   0  0  0  0  0  0  0  0  0  0  0  0
   46.5310   33.8560   39.9060 N   0  0  0  0  0  0  0  0  0  0  0  0
   48.3240   35.6630   42.7860 H   0  0  0  0  0  0  0  0  0  0  0  0
   48.3390   34.0090   38.8530 H   0  0  0  0  0  0  0  0  0  0  0  0
   45.7250   35.0330   43.3300 C   0  0  0  0  0  0  0  0  0  0  0  0
   45.0620   36.2140   43.5670 C   0  0  0  0  0  0  0  0  0  0  0  0
   44.4970   36.0350   44.8060 C   0  0  0  0  0  0  0  0  0  0  0  0
   44.8010   34.8050   45.3030 N   0  0  0  0  0  0  0  0  0  0  0  0
   45.5430   34.2270   44.3860 N   0  0  0  0  0  0  0  0  0  0  0  0
   45.0190   37.0510   42.9140 H   0  0  0  0  0  0  0  0  0  0  0  0
   43.8870   36.7490   45.3500 H   0  0  0  0  0  0  0  0  0  0  0  0
   44.5000   34.4200   46.2180 H   0  0  0  0  0  0  0  0  0  0  0  0
   44.5640   33.7410   41.1780 O   0  0  0  0  0  0  0  0  0  0  0  0
   43.4660   34.4250   40.7420 C   0  0  0  0  0  0  0  0  0  0  0  0
   43.3560   35.6800   40.5410 O   0  0  0  0  0  0  0  0  0  0  0  0
   42.0580   34.0360   40.3490 C   0  0  0  0  0  3  0  0  0  0  0  0
   41.8000   32.5940   40.7030 C   0  0  0  0  0  2  0  0  0  0  0  0
   40.3060   32.3880   40.5270 C   0  0  0  0  0  2  0  0  0  0  0  0
   39.9940   32.4500   39.0550 C   0  0  0  0  0  2  0  0  0  0  0  0
   41.0030   33.1710   38.2290 C   0  0  0  0  0  2  0  0  0  0  0  0
   41.7380   34.2750   38.9240 C   0  0  0  0  0  2  0  0  0  0  0  0
  1 17  1  0  0  0  0
  1  2  1  0  0  0  0
  2  9  1  0  0  0  0
  3  2  2  0  0  0  0
  3  7  1  0  0  0  0
  4  3  1  0  0  0  0
  5  6  1  0  0  0  0
  5  4  2  0  0  0  0
  6  1  2  0  0  0  0
  8  5  1  0  0  0  0
  9 10  1  0  0  0  0
  9 13  2  0  0  0  0
 10 11  2  0  0  0  0
 11 12  1  0  0  0  0
 11 15  1  0  0  0  0
 12 16  1  0  0  0  0
 13 12  1  0  0  0  0
 14 10  1  0  0  0  0
 18 17  1  0  0  0  0
 19 18  2  0  0  0  0
 20 21  1  0  0  0  0
 20 18  1  0  0  0  0
 22 21  1  0  0  0  0
 23 22  1  0  0  0  0
 24 25  1  0  0  0  0
 24 23  1  0  0  0  0
 25 20  1  0  0  0  0
M  END
>  <minimizedAffinity>
-5.23246241

>  <minimizedRMSD>
1.08625376

$$$$
