
 OpenBabel03252508503D

 25 27  0  0  0  0  0  0  0  0999 V2000
   45.8870   34.1680   41.0080 C   0  0  0  0  0  0  0  0  0  0  0  0
   46.4980   34.7780   42.0980 C   0  0  0  0  0  0  0  0  0  0  0  0
   47.8470   35.1230   41.9760 C   0  0  0  0  0  0  0  0  0  0  0  0
   48.4820   34.8460   40.8070 N   0  0  0  0  0  0  0  0  0  0  0  0
   47.8520   34.2520   39.7740 C   0  0  0  0  0  0  0  0  0  0  0  0
   46.5450   33.9120   39.8790 N   0  0  0  0  0  0  0  0  0  0  0  0
   48.3530   35.6050   42.8190 H   0  0  0  0  0  0  0  0  0  0  0  0
   48.3700   34.0370   38.8510 H   0  0  0  0  0  0  0  0  0  0  0  0
   45.7310   35.0380   43.3180 C   0  0  0  0  0  0  0  0  0  0  0  0
   45.0800   36.2250   43.5630 C   0  0  0  0  0  0  0  0  0  0  0  0
   44.5020   36.0390   44.7950 C   0  0  0  0  0  0  0  0  0  0  0  0
   44.7880   34.7990   45.2800 N   0  0  0  0  0  0  0  0  0  0  0  0
   45.5310   34.2230   44.3630 N   0  0  0  0  0  0  0  0  0  0  0  0
   45.0540   37.0690   42.9190 H   0  0  0  0  0  0  0  0  0  0  0  0
   43.8970   36.7540   45.3420 H   0  0  0  0  0  0  0  0  0  0  0  0
   44.4740   34.4080   46.1890 H   0  0  0  0  0  0  0  0  0  0  0  0
   44.5610   33.8270   41.1250 O   0  0  0  0  0  0  0  0  0  0  0  0
   43.4900   34.5250   40.6440 C   0  0  0  0  0  0  0  0  0  0  0  0
   43.3220   35.7890   40.6380 O   0  0  0  0  0  0  0  0  0  0  0  0
   42.1850   34.1460   39.9830 C   0  0  0  0  0  3  0  0  0  0  0  0
   41.7750   35.2070   38.9930 C   0  0  0  0  0  2  0  0  0  0  0  0
   40.6240   34.6110   38.2030 C   0  0  0  0  0  2  0  0  0  0  0  0
   39.4320   34.5060   39.1180 C   0  0  0  0  0  2  0  0  0  0  0  0
   39.7570   34.4850   40.5720 C   0  0  0  0  0  2  0  0  0  0  0  0
   41.0790   33.8830   40.9310 C   0  0  0  0  0  2  0  0  0  0  0  0
  1 17  1  0  0  0  0
  1  2  1  0  0  0  0
  2  9  1  0  0  0  0
  3  2  2  0  0  0  0
  3  7  1  0  0  0  0
  4  3  1  0  0  0  0
  5  6  1  0  0  0  0
  5  4  2  0  0  0  0
  6  1  2  0  0  0  0
  8  5  1  0  0  0  0
  9 10  1  0  0  0  0
  9 13  2  0  0  0  0
 10 11  2  0  0  0  0
 11 12  1  0  0  0  0
 11 15  1  0  0  0  0
 12 16  1  0  0  0  0
 13 12  1  0  0  0  0
 14 10  1  0  0  0  0
 18 17  1  0  0  0  0
 19 18  2  0  0  0  0
 20 18  1  0  0  0  0
 20 25  1  0  0  0  0
 21 20  1  0  0  0  0
 22 21  1  0  0  0  0
 22 23  1  0  0  0  0
 23 24  1  0  0  0  0
 24 25  1  0  0  0  0
M  END
>  <minimizedAffinity>
-5.94837284

>  <minimizedRMSD>
0.76169306

$$$$
