
 OpenBabel03252506383D

 41 44  0  0  1  0  0  0  0  0999 V2000
   44.5180   35.5070   45.1380 C   0  0  0  0  0  0  0  0  0  0  0  0
   45.1620   35.4890   43.8850 C   0  0  0  0  0  0  0  0  0  0  0  0
   46.0760   34.5210   43.6190 C   0  0  0  0  0  0  0  0  0  0  0  0
   46.3150   33.6130   44.5990 N   0  0  0  0  0  0  0  0  0  0  0  0
   45.7070   33.6350   45.7760 C   0  0  0  0  0  0  0  0  0  0  0  0
   44.8040   34.5760   46.0620 N   0  0  0  0  0  0  0  0  0  0  0  0
   46.0370   32.6250   46.7440 N   0  0  0  0  0  0  0  0  0  0  0  0
   45.3050   32.3880   47.9380 C   0  0  0  0  0  0  0  0  0  0  0  0
   46.3910   32.0260   48.9390 C   0  0  0  0  0  0  0  0  0  0  0  0
   47.6570   31.9150   48.1640 C   0  0  0  0  0  0  0  0  0  0  0  0
   47.1470   31.7040   46.7380 C   0  0  1  0  0  0  0  0  0  0  0  0
   43.7830   36.2870   45.3510 H   0  0  0  0  0  0  0  0  0  0  0  0
   46.5730   34.4900   42.6770 H   0  0  0  0  0  0  0  0  0  0  0  0
   44.4350   31.8070   48.0020 H   0  0  0  0  0  0  0  0  0  0  0  0
   44.9780   33.4170   48.3010 H   0  0  0  0  0  0  0  0  0  0  0  0
   46.4140   32.6440   49.8330 H   0  0  0  0  0  0  0  0  0  0  0  0
   46.0980   30.9950   49.2980 H   0  0  0  0  0  0  0  0  0  0  0  0
   48.2290   32.8660   48.2540 H   0  0  0  0  0  0  0  0  0  0  0  0
   48.2350   31.0460   48.5290 H   0  0  0  0  0  0  0  0  0  0  0  0
   47.9600   31.9990   46.0620 H   0  0  0  0  0  0  0  0  0  0  0  0
   44.8020   36.5190   42.9520 N   0  0  0  0  0  0  0  0  0  0  0  0
   43.8310   36.8660   42.9210 H   0  0  0  0  0  0  0  0  0  0  0  0
   45.6000   36.8290   42.3670 H   0  0  0  0  0  0  0  0  0  0  0  0
   46.6190   30.0180   46.5550 S   0  0  0  0  0  0  0  0  0  0  0  0
   45.5590   30.1910   43.4040 O   0  0  0  0  0  0  0  0  0  0  0  0
   44.9150   29.8020   44.3900 C   0  0  0  0  0  0  0  0  0  0  0  0
   45.0370   29.7500   45.8690 C   0  0  1  0  0  0  0  0  0  0  0  0
   44.4290   28.4060   46.1840 C   0  0  0  0  0  0  0  0  0  0  0  0
   43.1070   28.6060   45.4360 C   0  0  0  0  0  0  0  0  0  0  0  0
   43.6250   29.1870   44.2030 N   0  0  0  0  0  0  0  0  0  0  0  0
   44.2040   30.4480   46.1490 H   0  0  0  0  0  0  0  0  0  0  0  0
   44.9480   27.5580   45.7340 H   0  0  0  0  0  0  0  0  0  0  0  0
   44.2450   28.2950   47.2710 H   0  0  0  0  0  0  0  0  0  0  0  0
   42.4390   29.2970   45.9720 H   0  0  0  0  0  0  0  0  0  0  0  0
   42.7220   27.5760   45.3170 H   0  0  0  0  0  0  0  0  0  0  0  0
   42.7360   29.0220   43.0620 C   0  0  0  0  0  0  0  0  0  0  0  0
   41.9630   30.2770   42.7400 C   0  0  0  0  0  0  0  0  0  0  0  0
   40.6390   29.9960   42.0830 C   0  0  0  0  0  0  0  0  0  0  0  0
   40.6190   28.7680   41.2460 C   0  0  0  0  0  0  0  0  0  0  0  0
   41.2960   27.5720   41.8170 C   0  0  0  0  0  0  0  0  0  0  0  0
   41.7670   27.9230   43.2160 C   0  0  0  0  0  0  0  0  0  0  0  0
  1 12  1  0  0  0  0
  1  6  1  0  0  0  0
  2  1  2  0  0  0  0
  3  2  1  0  0  0  0
  3  4  2  0  0  0  0
  4  5  1  0  0  0  0
  5  6  2  0  0  0  0
  5  7  1  0  0  0  0
  7  8  1  0  0  0  0
  8 14  1  0  0  0  0
  8 15  1  0  0  0  0
  8  9  1  0  0  0  0
  9 17  1  0  0  0  0
  9 16  1  0  0  0  0
 10 18  1  0  0  0  0
 10 19  1  0  0  0  0
 10  9  1  0  0  0  0
 11 20  1  6  0  0  0
 11  7  1  0  0  0  0
 11 10  1  0  0  0  0
 13  3  1  0  0  0  0
 21  2  1  0  0  0  0
 22 21  1  0  0  0  0
 23 21  1  0  0  0  0
 24 11  1  0  0  0  0
 25 26  2  0  0  0  0
 26 27  1  0  0  0  0
 27 31  1  1  0  0  0
 27 28  1  0  0  0  0
 27 24  1  0  0  0  0
 28 33  1  0  0  0  0
 29 34  1  0  0  0  0
 29 28  1  0  0  0  0
 30 26  1  0  0  0  0
 30 29  1  0  0  0  0
 32 28  1  0  0  0  0
 35 29  1  0  0  0  0
 36 41  1  0  0  0  0
 36 30  1  0  0  0  0
 37 36  1  0  0  0  0
 38 37  1  0  0  0  0
 39 40  1  0  0  0  0
 39 38  1  0  0  0  0
 40 41  1  0  0  0  0
M  END
>  <minimizedAffinity>
-5.47784424

>  <minimizedRMSD>
1.0973047

$$$$
