
     RDKit          3D

 36 38  0  0  0  0  0  0  0  0999 V2000
   46.0764   34.1527   41.0007 C   0  0  0  0  0  0  0  0  0  0  0  0
   46.6137   34.8284   42.0914 C   0  0  0  0  0  0  0  0  0  0  0  0
   47.9343   35.2784   41.9887 C   0  0  0  0  0  0  0  0  0  0  0  0
   48.6127   35.0317   40.8371 N   0  0  0  0  0  0  0  0  0  0  0  0
   48.0535   34.3731   39.8043 C   0  0  0  0  0  0  0  0  0  0  0  0
   46.7765   33.9320   39.8901 N   0  0  0  0  0  0  0  0  0  0  0  0
   45.8043   35.0472   43.2915 C   0  0  0  0  0  0  0  0  0  0  0  0
   45.0477   36.1767   43.4967 C   0  0  0  0  0  0  0  0  0  0  0  0
   44.4652   35.9683   44.7233 C   0  0  0  0  0  0  0  0  0  0  0  0
   44.8479   34.7689   45.2422 N   0  0  0  0  0  0  0  0  0  0  0  0
   45.6555   34.2404   44.3519 N   0  0  0  0  0  0  0  0  0  0  0  0
   44.7789   33.7091   41.0986 O   0  0  0  0  0  0  0  0  0  0  0  0
   43.6950   34.1945   40.4246 C   0  0  0  0  0  0  0  0  0  0  0  0
   43.2484   35.3876   40.4219 O   0  0  0  0  0  0  0  0  0  0  0  0
   48.3828   35.8133   42.8321 H   0  0  0  0  0  0  0  0  0  0  0  0
   48.6058   34.1845   38.8950 H   0  0  0  0  0  0  0  0  0  0  0  0
   44.9601   37.0007   42.8333 H   0  0  0  0  0  0  0  0  0  0  0  0
   43.7895   36.6393   45.2415 H   0  0  0  0  0  0  0  0  0  0  0  0
   44.5523   34.3717   46.1535 H   0  0  0  0  0  0  0  0  0  0  0  0
   42.6679   33.5932   39.4924 C   0  0  0  0  0  0  0  0  0  0  0  0
   43.1357   32.2475   39.0007 C   0  0  0  0  0  0  0  0  0  0  0  0
   41.9384   31.6217   38.3097 C   0  0  0  0  0  0  0  0  0  0  0  0
   41.6770   32.3882   37.0395 C   0  0  0  0  0  0  0  0  0  0  0  0
   42.2283   33.7722   37.0167 C   0  0  0  0  0  0  0  0  0  0  0  0
   42.3112   34.4573   38.3440 C   0  0  0  0  0  0  0  0  0  0  0  0
   41.7540   33.3763   40.1111 H   0  0  0  0  0  0  0  0  0  0  0  0
   43.9804   32.3312   38.3013 H   0  0  0  0  0  0  0  0  0  0  0  0
   43.4056   31.6602   39.9173 H   0  0  0  0  0  0  0  0  0  0  0  0
   42.1173   30.5433   38.1266 H   0  0  0  0  0  0  0  0  0  0  0  0
   41.0587   31.6922   38.9866 H   0  0  0  0  0  0  0  0  0  0  0  0
   42.1399   31.8165   36.1827 H   0  0  0  0  0  0  0  0  0  0  0  0
   40.5819   32.4117   36.8712 H   0  0  0  0  0  0  0  0  0  0  0  0
   43.2555   33.7392   36.5914 H   0  0  0  0  0  0  0  0  0  0  0  0
   41.5408   34.3933   36.3727 H   0  0  0  0  0  0  0  0  0  0  0  0
   43.0114   35.3141   38.2149 H   0  0  0  0  0  0  0  0  0  0  0  0
   41.3160   34.9490   38.5518 H   0  0  0  0  0  0  0  0  0  0  0  0
  1 12  1  0
  1  2  1  0
  2  7  1  0
  3  2  2  0
  4  3  1  0
  5  6  1  0
  5  4  2  0
  6  1  2  0
  7  8  1  0
  7 11  2  0
  8  9  2  0
  9 10  1  0
 11 10  1  0
 13 14  2  0
 13 12  1  0
  3 15  1  0
  5 16  1  0
  8 17  1  0
  9 18  1  0
 10 19  1  0
 20 21  1  0
 21 22  1  0
 22 23  1  0
 23 24  1  0
 24 25  1  0
 25 20  1  0
 20 26  1  0
 21 27  1  0
 21 28  1  0
 22 29  1  0
 22 30  1  0
 23 31  1  0
 23 32  1  0
 24 33  1  0
 24 34  1  0
 25 35  1  0
 25 36  1  0
 13 20  1  0
M  ISO  5  15  14  16  14  17  14  18  14  19   9
M  END
>  <DihAtoms>  (1) 
13,12,19,20

>  <DihDeg>  (1) 
-0.006030990010547373

$$$$
