
 OpenBabel03252504513D

 31 33  0  0  0  0  0  0  0  0999 V2000
   37.3690   27.2790   40.8770 C   0  0  0  0  0  0  0  0  0  0  0  0
   37.1250   26.9170   42.2080 C   0  0  0  0  0  0  0  0  0  0  0  0
   37.1700   27.9390   43.1740 C   0  0  0  0  0  0  0  0  0  0  0  0
   37.4450   29.2020   42.7490 N   0  0  0  0  0  0  0  0  0  0  0  0
   37.6740   29.5100   41.4570 C   0  0  0  0  0  0  0  0  0  0  0  0
   37.6350   28.5450   40.5280 N   0  0  0  0  0  0  0  0  0  0  0  0
   37.3480   26.5390   40.0950 H   0  0  0  0  0  0  0  0  0  0  0  0
   36.9890   27.6940   44.1930 H   0  0  0  0  0  0  0  0  0  0  0  0
   40.4000   30.5440   42.3660 Cl  0  0  0  0  0  0  0  0  0  0  0  0
   39.1820   31.4470   41.4510 C   0  0  0  0  0  0  0  0  0  0  0  0
   37.9630   30.8880   41.0800 C   0  0  0  0  0  0  0  0  0  0  0  0
   37.0330   31.6100   40.3680 C   0  0  0  0  0  0  0  0  0  0  0  0
   37.3350   32.9260   40.0200 C   0  0  0  0  0  0  0  0  0  0  0  0
   38.5460   33.4440   40.4020 C   0  0  0  0  0  0  0  0  0  0  0  0
   38.8750   35.0990   39.9420 Cl  0  0  0  0  0  0  0  0  0  0  0  0
   39.4920   32.7460   41.1130 C   0  0  0  0  0  0  0  0  0  0  0  0
   36.0780   31.1710   40.0770 H   0  0  0  0  0  0  0  0  0  0  0  0
   36.5980   33.5010   39.4550 H   0  0  0  0  0  0  0  0  0  0  0  0
   40.4330   33.2270   41.3810 H   0  0  0  0  0  0  0  0  0  0  0  0
   36.8410   25.5250   42.5360 C   0  0  0  0  0  0  0  0  0  0  0  0
   37.4060   25.2450   43.4440 H   0  0  0  0  0  0  0  0  0  0  0  0
   35.7860   25.4550   42.7800 H   0  0  0  0  0  0  0  0  0  0  0  0
   37.2810   24.6710   41.3900 C   0  0  0  0  0  0  0  0  0  0  0  0
   36.5300   23.8650   41.2060 H   0  0  0  0  0  0  0  0  0  0  0  0
   37.3180   25.2740   40.4620 H   0  0  0  0  0  0  0  0  0  0  0  0
   38.6300   24.0150   41.5450 C   0  0  0  0  0  3  0  0  0  0  0  0
   39.2180   24.1990   42.9110 C   0  0  0  0  0  2  0  0  0  0  0  0
   40.2580   25.2580   43.0420 C   0  0  0  0  0  2  0  0  0  0  0  0
   41.1780   25.4090   41.8790 C   0  0  0  0  0  2  0  0  0  0  0  0
   40.5420   25.3350   40.5420 C   0  0  0  0  0  2  0  0  0  0  0  0
   39.5660   24.2280   40.4080 C   0  0  0  0  0  2  0  0  0  0  0  0
  1  2  1  0  0  0  0
  2 20  1  0  0  0  0
  2  3  2  0  0  0  0
  3  8  1  0  0  0  0
  4  3  1  0  0  0  0
  5  4  2  0  0  0  0
  6  1  2  0  0  0  0
  6  5  1  0  0  0  0
  7  1  1  0  0  0  0
 10  9  1  0  0  0  0
 11 10  2  0  0  0  0
 11  5  1  0  0  0  0
 12 11  1  0  0  0  0
 13 12  2  0  0  0  0
 13 14  1  0  0  0  0
 14 16  2  0  0  0  0
 15 14  1  0  0  0  0
 16 19  1  0  0  0  0
 16 10  1  0  0  0  0
 17 12  1  0  0  0  0
 18 13  1  0  0  0  0
 20 22  1  0  0  0  0
 20 21  1  0  0  0  0
 23 26  1  0  0  0  0
 23 20  1  0  0  0  0
 24 23  1  0  0  0  0
 25 23  1  0  0  0  0
 26 27  1  0  0  0  0
 27 28  1  0  0  0  0
 29 28  1  0  0  0  0
 30 29  1  0  0  0  0
 31 30  1  0  0  0  0
 31 26  1  0  0  0  0
M  END
>  <minimizedAffinity>
-5.71637011

$$$$

 OpenBabel03252504513D

 31 33  0  0  0  0  0  0  0  0999 V2000
   36.9040   27.8570   42.8710 C   0  0  0  0  0  0  0  0  0  0  0  0
   37.2080   26.8100   41.9910 C   0  0  0  0  0  0  0  0  0  0  0  0
   37.7940   27.1510   40.7580 C   0  0  0  0  0  0  0  0  0  0  0  0
   38.0240   28.4700   40.5080 N   0  0  0  0  0  0  0  0  0  0  0  0
   37.7160   29.4480   41.3830 C   0  0  0  0  0  0  0  0  0  0  0  0
   37.1580   29.1360   42.5590 N   0  0  0  0  0  0  0  0  0  0  0  0
   36.4550   27.6550   43.8290 H   0  0  0  0  0  0  0  0  0  0  0  0
   38.0360   26.3780   40.0700 H   0  0  0  0  0  0  0  0  0  0  0  0
   40.3890   30.5140   42.4070 Cl  0  0  0  0  0  0  0  0  0  0  0  0
   39.1880   31.4120   41.4650 C   0  0  0  0  0  0  0  0  0  0  0  0
   37.9930   30.8390   41.0420 C   0  0  0  0  0  0  0  0  0  0  0  0
   37.0760   31.5570   40.3100 C   0  0  0  0  0  0  0  0  0  0  0  0
   37.3660   32.8840   39.9960 C   0  0  0  0  0  0  0  0  0  0  0  0
   38.5530   33.4160   40.4300 C   0  0  0  0  0  0  0  0  0  0  0  0
   38.8680   35.0840   40.0110 Cl  0  0  0  0  0  0  0  0  0  0  0  0
   39.4860   32.7220   41.1610 C   0  0  0  0  0  0  0  0  0  0  0  0
   36.1400   31.1070   39.9770 H   0  0  0  0  0  0  0  0  0  0  0  0
   36.6390   33.4560   39.4160 H   0  0  0  0  0  0  0  0  0  0  0  0
   40.4090   33.2140   41.4710 H   0  0  0  0  0  0  0  0  0  0  0  0
   36.9120   25.4350   42.3760 C   0  0  0  0  0  0  0  0  0  0  0  0
   36.9210   25.3580   43.4780 H   0  0  0  0  0  0  0  0  0  0  0  0
   35.9010   25.2140   42.0470 H   0  0  0  0  0  0  0  0  0  0  0  0
   37.9690   24.5470   41.8030 C   0  0  0  0  0  0  0  0  0  0  0  0
   38.7400   25.1610   41.2790 H   0  0  0  0  0  0  0  0  0  0  0  0
   38.5010   24.0170   42.6190 H   0  0  0  0  0  0  0  0  0  0  0  0
   37.4840   23.4950   40.8380 C   0  0  0  0  0  3  0  0  0  0  0  0
   38.5050   23.1330   39.8030 C   0  0  0  0  0  2  0  0  0  0  0  0
   38.3300   23.7530   38.4600 C   0  0  0  0  0  2  0  0  0  0  0  0
   36.9210   23.9120   37.9990 C   0  0  0  0  0  2  0  0  0  0  0  0
   35.9580   24.3820   39.0240 C   0  0  0  0  0  2  0  0  0  0  0  0
   36.1000   23.6980   40.3310 C   0  0  0  0  0  2  0  0  0  0  0  0
  1  7  1  0  0  0  0
  2 20  1  0  0  0  0
  2  1  2  0  0  0  0
  3  2  1  0  0  0  0
  4  3  2  0  0  0  0
  4  5  1  0  0  0  0
  5  6  2  0  0  0  0
  6  1  1  0  0  0  0
  8  3  1  0  0  0  0
 10  9  1  0  0  0  0
 11  5  1  0  0  0  0
 11 10  2  0  0  0  0
 12 11  1  0  0  0  0
 13 12  2  0  0  0  0
 13 14  1  0  0  0  0
 14 16  2  0  0  0  0
 15 14  1  0  0  0  0
 16 10  1  0  0  0  0
 16 19  1  0  0  0  0
 17 12  1  0  0  0  0
 18 13  1  0  0  0  0
 20 21  1  0  0  0  0
 22 20  1  0  0  0  0
 23 20  1  0  0  0  0
 23 25  1  0  0  0  0
 24 23  1  0  0  0  0
 26 23  1  0  0  0  0
 27 26  1  0  0  0  0
 28 27  1  0  0  0  0
 29 28  1  0  0  0  0
 29 30  1  0  0  0  0
 30 31  1  0  0  0  0
 31 26  1  0  0  0  0
M  END
>  <minimizedAffinity>
-5.53080654

$$$$

 OpenBabel03252504513D

 31 33  0  0  0  0  0  0  0  0999 V2000
   35.4950   27.9500   37.6450 C   0  0  0  0  0  0  0  0  0  0  0  0
   34.3600   28.7270   37.9060 C   0  0  0  0  0  0  0  0  0  0  0  0
   34.1710   29.1730   39.2270 C   0  0  0  0  0  0  0  0  0  0  0  0
   35.1020   28.8190   40.1550 N   0  0  0  0  0  0  0  0  0  0  0  0
   36.1840   28.0690   39.8630 C   0  0  0  0  0  0  0  0  0  0  0  0
   36.3740   27.6390   38.6090 N   0  0  0  0  0  0  0  0  0  0  0  0
   35.6910   27.5810   36.6520 H   0  0  0  0  0  0  0  0  0  0  0  0
   33.3180   29.7640   39.4560 H   0  0  0  0  0  0  0  0  0  0  0  0
   38.3540   30.1630   40.3470 Cl  0  0  0  0  0  0  0  0  0  0  0  0
   38.1620   28.6260   41.2060 C   0  0  0  0  0  0  0  0  0  0  0  0
   37.1370   27.7320   40.9130 C   0  0  0  0  0  0  0  0  0  0  0  0
   37.0090   26.5440   41.5950 C   0  0  0  0  0  0  0  0  0  0  0  0
   37.9340   26.2460   42.5950 C   0  0  0  0  0  0  0  0  0  0  0  0
   38.9300   27.1510   42.8560 C   0  0  0  0  0  0  0  0  0  0  0  0
   40.0640   26.7290   44.1200 Cl  0  0  0  0  0  0  0  0  0  0  0  0
   39.0820   28.3430   42.1920 C   0  0  0  0  0  0  0  0  0  0  0  0
   36.2050   25.8430   41.3660 H   0  0  0  0  0  0  0  0  0  0  0  0
   37.8340   25.3030   43.1370 H   0  0  0  0  0  0  0  0  0  0  0  0
   39.9010   29.0120   42.4560 H   0  0  0  0  0  0  0  0  0  0  0  0
   33.4340   29.0380   36.8240 C   0  0  0  0  0  0  0  0  0  0  0  0
   33.8730   29.8280   36.1880 H   0  0  0  0  0  0  0  0  0  0  0  0
   33.3380   28.1470   36.2100 H   0  0  0  0  0  0  0  0  0  0  0  0
   32.1550   29.5300   37.4230 C   0  0  0  0  0  0  0  0  0  0  0  0
   31.7810   28.7970   38.1760 H   0  0  0  0  0  0  0  0  0  0  0  0
   32.3360   30.4740   37.9750 H   0  0  0  0  0  0  0  0  0  0  0  0
   31.0380   29.7970   36.4460 C   0  0  0  0  0  3  0  0  0  0  0  0
   31.5070   29.8760   35.0260 C   0  0  0  0  0  2  0  0  0  0  0  0
   31.6730   31.2450   34.4620 C   0  0  0  0  0  2  0  0  0  0  0  0
   30.6670   32.2530   34.9040 C   0  0  0  0  0  2  0  0  0  0  0  0
   30.3110   32.2180   36.3430 C   0  0  0  0  0  2  0  0  0  0  0  0
   30.0760   30.8520   36.8650 C   0  0  0  0  0  2  0  0  0  0  0  0
  1  2  2  0  0  0  0
  1  6  1  0  0  0  0
  2  3  1  0  0  0  0
  3  8  1  0  0  0  0
  3  4  2  0  0  0  0
  5  4  1  0  0  0  0
  5 11  1  0  0  0  0
  6  5  2  0  0  0  0
  7  1  1  0  0  0  0
  9 10  1  0  0  0  0
 10 16  1  0  0  0  0
 11 10  2  0  0  0  0
 11 12  1  0  0  0  0
 12 13  2  0  0  0  0
 13 14  1  0  0  0  0
 13 18  1  0  0  0  0
 14 15  1  0  0  0  0
 16 19  1  0  0  0  0
 16 14  2  0  0  0  0
 17 12  1  0  0  0  0
 20 23  1  0  0  0  0
 20  2  1  0  0  0  0
 21 20  1  0  0  0  0
 22 20  1  0  0  0  0
 23 25  1  0  0  0  0
 23 24  1  0  0  0  0
 26 31  1  0  0  0  0
 26 23  1  0  0  0  0
 27 26  1  0  0  0  0
 28 29  1  0  0  0  0
 28 27  1  0  0  0  0
 29 30  1  0  0  0  0
 30 31  1  0  0  0  0
M  END
>  <minimizedAffinity>
-5.45812988

$$$$

 OpenBabel03252504513D

 31 33  0  0  0  0  0  0  0  0999 V2000
   36.2980   26.3580   39.1840 C   0  0  0  0  0  0  0  0  0  0  0  0
   36.6710   27.1150   40.3020 C   0  0  0  0  0  0  0  0  0  0  0  0
   36.1870   28.4340   40.3800 C   0  0  0  0  0  0  0  0  0  0  0  0
   35.3940   28.8800   39.3680 N   0  0  0  0  0  0  0  0  0  0  0  0
   35.0570   28.1180   38.3080 C   0  0  0  0  0  0  0  0  0  0  0  0
   35.5110   26.8610   38.2230 N   0  0  0  0  0  0  0  0  0  0  0  0
   36.6380   25.3420   39.0710 H   0  0  0  0  0  0  0  0  0  0  0  0
   36.4540   29.0330   41.2170 H   0  0  0  0  0  0  0  0  0  0  0  0
   36.4290   28.5340   35.6110 Cl  0  0  0  0  0  0  0  0  0  0  0  0
   34.7380   28.8920   36.0000 C   0  0  0  0  0  0  0  0  0  0  0  0
   34.2010   28.6680   37.2630 C   0  0  0  0  0  0  0  0  0  0  0  0
   32.8840   28.9550   37.5410 C   0  0  0  0  0  0  0  0  0  0  0  0
   32.0880   29.4790   36.5240 C   0  0  0  0  0  0  0  0  0  0  0  0
   32.6510   29.6870   35.2910 C   0  0  0  0  0  0  0  0  0  0  0  0
   31.6090   30.3470   34.0510 Cl  0  0  0  0  0  0  0  0  0  0  0  0
   33.9610   29.4100   34.9870 C   0  0  0  0  0  0  0  0  0  0  0  0
   32.4630   28.7780   38.5310 H   0  0  0  0  0  0  0  0  0  0  0  0
   31.0420   29.7070   36.7420 H   0  0  0  0  0  0  0  0  0  0  0  0
   34.3380   29.6030   33.9820 H   0  0  0  0  0  0  0  0  0  0  0  0
   37.5290   26.5220   41.3210 C   0  0  0  0  0  0  0  0  0  0  0  0
   37.5100   25.4230   41.2150 H   0  0  0  0  0  0  0  0  0  0  0  0
   38.5460   26.8470   41.1210 H   0  0  0  0  0  0  0  0  0  0  0  0
   36.9990   26.9040   42.6660 C   0  0  0  0  0  0  0  0  0  0  0  0
   36.1260   27.5900   42.5500 H   0  0  0  0  0  0  0  0  0  0  0  0
   36.6170   26.0060   43.1900 H   0  0  0  0  0  0  0  0  0  0  0  0
   37.9860   27.5700   43.5910 C   0  0  0  0  0  3  0  0  0  0  0  0
   38.0840   29.0490   43.3780 C   0  0  0  0  0  2  0  0  0  0  0  0
   39.2500   29.5250   42.5820 C   0  0  0  0  0  2  0  0  0  0  0  0
   40.5250   28.7810   42.7950 C   0  0  0  0  0  2  0  0  0  0  0  0
   40.4030   27.3070   42.8870 C   0  0  0  0  0  2  0  0  0  0  0  0
   39.2820   26.8550   43.7460 C   0  0  0  0  0  2  0  0  0  0  0  0
  1  2  1  0  0  0  0
  2  3  2  0  0  0  0
  2 20  1  0  0  0  0
  3  8  1  0  0  0  0
  4  3  1  0  0  0  0
  5  4  2  0  0  0  0
  6  5  1  0  0  0  0
  6  1  2  0  0  0  0
  7  1  1  0  0  0  0
  9 10  1  0  0  0  0
 10 11  1  0  0  0  0
 11 12  2  0  0  0  0
 11  5  1  0  0  0  0
 12 17  1  0  0  0  0
 13 18  1  0  0  0  0
 13 12  1  0  0  0  0
 14 13  2  0  0  0  0
 15 14  1  0  0  0  0
 16 14  1  0  0  0  0
 16 10  2  0  0  0  0
 19 16  1  0  0  0  0
 20 23  1  0  0  0  0
 21 20  1  0  0  0  0
 22 20  1  0  0  0  0
 23 25  1  0  0  0  0
 23 26  1  0  0  0  0
 24 23  1  0  0  0  0
 26 31  1  0  0  0  0
 27 26  1  0  0  0  0
 28 29  1  0  0  0  0
 28 27  1  0  0  0  0
 29 30  1  0  0  0  0
 30 31  1  0  0  0  0
M  END
>  <minimizedAffinity>
-5.35564947

$$$$

 OpenBabel03252504513D

 31 33  0  0  0  0  0  0  0  0999 V2000
   38.4240   28.7940   40.4110 C   0  0  0  0  0  0  0  0  0  0  0  0
   37.0570   28.9060   40.1290 C   0  0  0  0  0  0  0  0  0  0  0  0
   36.6360   30.0350   39.4030 C   0  0  0  0  0  0  0  0  0  0  0  0
   37.5840   30.9360   39.0260 N   0  0  0  0  0  0  0  0  0  0  0  0
   38.8930   30.7910   39.3170 C   0  0  0  0  0  0  0  0  0  0  0  0
   39.3050   29.7210   40.0080 N   0  0  0  0  0  0  0  0  0  0  0  0
   38.8030   27.9510   40.9630 H   0  0  0  0  0  0  0  0  0  0  0  0
   35.6040   30.1470   39.1750 H   0  0  0  0  0  0  0  0  0  0  0  0
   38.9630   33.3220   41.0250 Cl  0  0  0  0  0  0  0  0  0  0  0  0
   39.9520   32.9890   39.5940 C   0  0  0  0  0  0  0  0  0  0  0  0
   39.8480   31.8010   38.8770 C   0  0  0  0  0  0  0  0  0  0  0  0
   40.6280   31.5650   37.7690 C   0  0  0  0  0  0  0  0  0  0  0  0
   41.5340   32.5470   37.3700 C   0  0  0  0  0  0  0  0  0  0  0  0
   41.6090   33.7050   38.1010 C   0  0  0  0  0  0  0  0  0  0  0  0
   42.7610   34.9040   37.5580 Cl  0  0  0  0  0  0  0  0  0  0  0  0
   40.8430   33.9660   39.2100 C   0  0  0  0  0  0  0  0  0  0  0  0
   40.5470   30.6340   37.2070 H   0  0  0  0  0  0  0  0  0  0  0  0
   42.1540   32.3620   36.4910 H   0  0  0  0  0  0  0  0  0  0  0  0
   40.9600   34.9120   39.7400 H   0  0  0  0  0  0  0  0  0  0  0  0
   36.1390   27.8710   40.5910 C   0  0  0  0  0  0  0  0  0  0  0  0
   35.7650   28.1400   41.5950 H   0  0  0  0  0  0  0  0  0  0  0  0
   35.2860   27.8680   39.9200 H   0  0  0  0  0  0  0  0  0  0  0  0
   36.8850   26.5770   40.6650 C   0  0  0  0  0  0  0  0  0  0  0  0
   36.3560   25.7970   40.0680 H   0  0  0  0  0  0  0  0  0  0  0  0
   37.8860   26.6910   40.2040 H   0  0  0  0  0  0  0  0  0  0  0  0
   37.0990   26.0270   42.0530 C   0  0  0  0  0  3  0  0  0  0  0  0
   36.6980   26.9860   43.1320 C   0  0  0  0  0  2  0  0  0  0  0  0
   37.8040   27.7400   43.7870 C   0  0  0  0  0  2  0  0  0  0  0  0
   39.0740   26.9840   43.9840 C   0  0  0  0  0  2  0  0  0  0  0  0
   39.4990   26.1310   42.8480 C   0  0  0  0  0  2  0  0  0  0  0  0
   38.3990   25.3320   42.2600 C   0  0  0  0  0  2  0  0  0  0  0  0
  1  7  1  0  0  0  0
  2  1  1  0  0  0  0
  2 20  1  0  0  0  0
  3  2  2  0  0  0  0
  4  5  2  0  0  0  0
  4  3  1  0  0  0  0
  5  6  1  0  0  0  0
  6  1  2  0  0  0  0
  8  3  1  0  0  0  0
 10  9  1  0  0  0  0
 11  5  1  0  0  0  0
 11 10  2  0  0  0  0
 12 11  1  0  0  0  0
 13 12  2  0  0  0  0
 13 14  1  0  0  0  0
 14 16  2  0  0  0  0
 15 14  1  0  0  0  0
 16 10  1  0  0  0  0
 16 19  1  0  0  0  0
 17 12  1  0  0  0  0
 18 13  1  0  0  0  0
 20 23  1  0  0  0  0
 20 21  1  0  0  0  0
 22 20  1  0  0  0  0
 23 26  1  0  0  0  0
 24 23  1  0  0  0  0
 25 23  1  0  0  0  0
 26 31  1  0  0  0  0
 26 27  1  0  0  0  0
 27 28  1  0  0  0  0
 28 29  1  0  0  0  0
 30 29  1  0  0  0  0
 31 30  1  0  0  0  0
M  END
>  <minimizedAffinity>
-5.33890009

$$$$

 OpenBabel03252504513D

 31 33  0  0  0  0  0  0  0  0999 V2000
   35.0760   28.9650   36.4130 C   0  0  0  0  0  0  0  0  0  0  0  0
   33.6980   29.1730   36.5440 C   0  0  0  0  0  0  0  0  0  0  0  0
   33.1490   29.0790   37.8360 C   0  0  0  0  0  0  0  0  0  0  0  0
   33.9950   28.7940   38.8650 N   0  0  0  0  0  0  0  0  0  0  0  0
   35.3180   28.6010   38.6970 C   0  0  0  0  0  0  0  0  0  0  0  0
   35.8510   28.6880   37.4710 N   0  0  0  0  0  0  0  0  0  0  0  0
   35.5510   29.0250   35.4480 H   0  0  0  0  0  0  0  0  0  0  0  0
   32.1060   29.2310   37.9670 H   0  0  0  0  0  0  0  0  0  0  0  0
   36.1740   31.0340   40.3330 Cl  0  0  0  0  0  0  0  0  0  0  0  0
   36.5980   29.3450   40.6560 C   0  0  0  0  0  0  0  0  0  0  0  0
   36.1590   28.3000   39.8490 C   0  0  0  0  0  0  0  0  0  0  0  0
   36.5010   26.9960   40.1210 C   0  0  0  0  0  0  0  0  0  0  0  0
   37.3060   26.7350   41.2300 C   0  0  0  0  0  0  0  0  0  0  0  0
   37.7190   27.7900   42.0020 C   0  0  0  0  0  0  0  0  0  0  0  0
   38.7260   27.4080   43.3800 Cl  0  0  0  0  0  0  0  0  0  0  0  0
   37.3930   29.1000   41.7540 C   0  0  0  0  0  0  0  0  0  0  0  0
   36.1560   26.1760   39.4890 H   0  0  0  0  0  0  0  0  0  0  0  0
   37.5790   25.7000   41.4470 H   0  0  0  0  0  0  0  0  0  0  0  0
   37.7600   29.8860   42.4140 H   0  0  0  0  0  0  0  0  0  0  0  0
   32.8980   29.4710   35.3620 C   0  0  0  0  0  0  0  0  0  0  0  0
   33.4030   30.2560   34.7720 H   0  0  0  0  0  0  0  0  0  0  0  0
   32.8720   28.5740   34.7500 H   0  0  0  0  0  0  0  0  0  0  0  0
   31.5590   29.9650   35.8100 C   0  0  0  0  0  0  0  0  0  0  0  0
   30.7510   29.4100   35.2780 H   0  0  0  0  0  0  0  0  0  0  0  0
   31.4200   29.7520   36.8890 H   0  0  0  0  0  0  0  0  0  0  0  0
   31.3100   31.4390   35.6150 C   0  0  0  0  0  3  0  0  0  0  0  0
   30.1450   31.9470   36.4090 C   0  0  0  0  0  2  0  0  0  0  0  0
   28.8690   32.1290   35.6620 C   0  0  0  0  0  2  0  0  0  0  0  0
   29.0040   32.6180   34.2600 C   0  0  0  0  0  2  0  0  0  0  0  0
   30.0990   32.0090   33.4680 C   0  0  0  0  0  2  0  0  0  0  0  0
   31.3810   31.9080   34.2050 C   0  0  0  0  0  2  0  0  0  0  0  0
  1  2  2  0  0  0  0
  1  6  1  0  0  0  0
  2  3  1  0  0  0  0
  3  8  1  0  0  0  0
  3  4  2  0  0  0  0
  5  4  1  0  0  0  0
  5 11  1  0  0  0  0
  6  5  2  0  0  0  0
  7  1  1  0  0  0  0
  9 10  1  0  0  0  0
 10 16  1  0  0  0  0
 11 12  1  0  0  0  0
 11 10  2  0  0  0  0
 12 13  2  0  0  0  0
 13 18  1  0  0  0  0
 13 14  1  0  0  0  0
 14 15  1  0  0  0  0
 16 14  2  0  0  0  0
 16 19  1  0  0  0  0
 17 12  1  0  0  0  0
 20 23  1  0  0  0  0
 20  2  1  0  0  0  0
 21 20  1  0  0  0  0
 22 20  1  0  0  0  0
 23 25  1  0  0  0  0
 24 23  1  0  0  0  0
 26 23  1  0  0  0  0
 26 27  1  0  0  0  0
 28 27  1  0  0  0  0
 29 28  1  0  0  0  0
 30 31  1  0  0  0  0
 30 29  1  0  0  0  0
 31 26  1  0  0  0  0
M  END
>  <minimizedAffinity>
-5.31755257

$$$$

 OpenBabel03252504513D

 31 33  0  0  0  0  0  0  0  0999 V2000
   39.1080   27.1520   40.9320 C   0  0  0  0  0  0  0  0  0  0  0  0
   38.3710   26.6630   42.0180 C   0  0  0  0  0  0  0  0  0  0  0  0
   37.6540   27.5990   42.7860 C   0  0  0  0  0  0  0  0  0  0  0  0
   37.7270   28.9080   42.4210 N   0  0  0  0  0  0  0  0  0  0  0  0
   38.4490   29.3390   41.3670 C   0  0  0  0  0  0  0  0  0  0  0  0
   39.1350   28.4570   40.6280 N   0  0  0  0  0  0  0  0  0  0  0  0
   39.6760   26.4820   40.3080 H   0  0  0  0  0  0  0  0  0  0  0  0
   37.0860   27.2580   43.6160 H   0  0  0  0  0  0  0  0  0  0  0  0
   36.0490   30.3330   39.7600 Cl  0  0  0  0  0  0  0  0  0  0  0  0
   37.4250   31.3040   40.3090 C   0  0  0  0  0  0  0  0  0  0  0  0
   38.4770   30.7590   41.0390 C   0  0  0  0  0  0  0  0  0  0  0  0
   39.5350   31.5340   41.4550 C   0  0  0  0  0  0  0  0  0  0  0  0
   39.5370   32.8900   41.1290 C   0  0  0  0  0  0  0  0  0  0  0  0
   38.4830   33.3920   40.4090 C   0  0  0  0  0  0  0  0  0  0  0  0
   38.5340   35.0980   40.0260 Cl  0  0  0  0  0  0  0  0  0  0  0  0
   37.4160   32.6420   39.9810 C   0  0  0  0  0  0  0  0  0  0  0  0
   40.3590   31.1070   42.0280 H   0  0  0  0  0  0  0  0  0  0  0  0
   40.3750   33.5070   41.4580 H   0  0  0  0  0  0  0  0  0  0  0  0
   36.6140   33.1130   39.4110 H   0  0  0  0  0  0  0  0  0  0  0  0
   38.3740   25.2340   42.3070 C   0  0  0  0  0  0  0  0  0  0  0  0
   39.0650   24.7260   41.6100 H   0  0  0  0  0  0  0  0  0  0  0  0
   38.7730   25.1040   43.3080 H   0  0  0  0  0  0  0  0  0  0  0  0
   36.9880   24.7090   42.1090 C   0  0  0  0  0  0  0  0  0  0  0  0
   36.6790   24.1050   42.9950 H   0  0  0  0  0  0  0  0  0  0  0  0
   36.2700   25.5520   42.0460 H   0  0  0  0  0  0  0  0  0  0  0  0
   36.7810   23.8620   40.8790 C   0  0  0  0  0  3  0  0  0  0  0  0
   37.9380   22.9550   40.5900 C   0  0  0  0  0  2  0  0  0  0  0  0
   38.8790   23.4060   39.5270 C   0  0  0  0  0  2  0  0  0  0  0  0
   38.2570   24.1060   38.3670 C   0  0  0  0  0  2  0  0  0  0  0  0
   37.1910   25.0820   38.7000 C   0  0  0  0  0  2  0  0  0  0  0  0
   36.2220   24.5840   39.7040 C   0  0  0  0  0  2  0  0  0  0  0  0
  1  2  1  0  0  0  0
  2 20  1  0  0  0  0
  2  3  2  0  0  0  0
  3  8  1  0  0  0  0
  4  3  1  0  0  0  0
  5  4  2  0  0  0  0
  6  1  2  0  0  0  0
  6  5  1  0  0  0  0
  7  1  1  0  0  0  0
  9 10  1  0  0  0  0
 10 11  1  0  0  0  0
 11  5  1  0  0  0  0
 11 12  2  0  0  0  0
 12 17  1  0  0  0  0
 13 12  1  0  0  0  0
 13 18  1  0  0  0  0
 14 13  2  0  0  0  0
 15 14  1  0  0  0  0
 16 10  2  0  0  0  0
 16 14  1  0  0  0  0
 19 16  1  0  0  0  0
 20 22  1  0  0  0  0
 21 20  1  0  0  0  0
 23 20  1  0  0  0  0
 23 24  1  0  0  0  0
 25 23  1  0  0  0  0
 26 23  1  0  0  0  0
 27 26  1  0  0  0  0
 28 27  1  0  0  0  0
 29 30  1  0  0  0  0
 29 28  1  0  0  0  0
 30 31  1  0  0  0  0
 31 26  1  0  0  0  0
M  END
>  <minimizedAffinity>
-5.27963495

$$$$

 OpenBabel03252504513D

 31 33  0  0  0  0  0  0  0  0999 V2000
   33.9660   29.1000   39.1020 C   0  0  0  0  0  0  0  0  0  0  0  0
   34.1300   28.8820   37.7280 C   0  0  0  0  0  0  0  0  0  0  0  0
   35.4230   29.0420   37.1970 C   0  0  0  0  0  0  0  0  0  0  0  0
   36.4210   29.3950   38.0540 N   0  0  0  0  0  0  0  0  0  0  0  0
   36.2220   29.5940   39.3720 C   0  0  0  0  0  0  0  0  0  0  0  0
   34.9950   29.4450   39.8880 N   0  0  0  0  0  0  0  0  0  0  0  0
   32.9990   28.9910   39.5630 H   0  0  0  0  0  0  0  0  0  0  0  0
   35.5770   28.8840   36.1580 H   0  0  0  0  0  0  0  0  0  0  0  0
   37.0090   32.5410   39.2320 Cl  0  0  0  0  0  0  0  0  0  0  0  0
   37.7730   31.2930   40.2290 C   0  0  0  0  0  0  0  0  0  0  0  0
   37.3430   29.9700   40.2250 C   0  0  0  0  0  0  0  0  0  0  0  0
   37.9530   29.0180   41.0090 C   0  0  0  0  0  0  0  0  0  0  0  0
   39.0230   29.4050   41.8160 C   0  0  0  0  0  0  0  0  0  0  0  0
   39.4190   30.7170   41.7930 C   0  0  0  0  0  0  0  0  0  0  0  0
   40.7650   31.1490   42.8230 Cl  0  0  0  0  0  0  0  0  0  0  0  0
   38.8290   31.6870   41.0220 C   0  0  0  0  0  0  0  0  0  0  0  0
   37.6150   27.9810   41.0070 H   0  0  0  0  0  0  0  0  0  0  0  0
   39.5080   28.6510   42.4380 H   0  0  0  0  0  0  0  0  0  0  0  0
   39.2010   32.7110   41.0580 H   0  0  0  0  0  0  0  0  0  0  0  0
   32.9780   28.5080   36.9150 C   0  0  0  0  0  0  0  0  0  0  0  0
   33.2770   27.7130   36.2090 H   0  0  0  0  0  0  0  0  0  0  0  0
   32.2320   28.0850   37.5800 H   0  0  0  0  0  0  0  0  0  0  0  0
   32.5290   29.7130   36.1510 C   0  0  0  0  0  0  0  0  0  0  0  0
   33.0190   30.6280   36.5600 H   0  0  0  0  0  0  0  0  0  0  0  0
   32.8560   29.6350   35.0950 H   0  0  0  0  0  0  0  0  0  0  0  0
   31.0410   29.9570   36.1350 C   0  0  0  0  0  3  0  0  0  0  0  0
   30.6780   31.3380   35.6830 C   0  0  0  0  0  2  0  0  0  0  0  0
   30.3350   32.3140   36.7550 C   0  0  0  0  0  2  0  0  0  0  0  0
   29.5860   31.7590   37.9190 C   0  0  0  0  0  2  0  0  0  0  0  0
   30.0470   30.4390   38.4120 C   0  0  0  0  0  2  0  0  0  0  0  0
   30.3090   29.4590   37.3320 C   0  0  0  0  0  2  0  0  0  0  0  0
  1  7  1  0  0  0  0
  1  6  1  0  0  0  0
  2  1  2  0  0  0  0
  3  2  1  0  0  0  0
  3  4  2  0  0  0  0
  4  5  1  0  0  0  0
  5  6  2  0  0  0  0
  5 11  1  0  0  0  0
  8  3  1  0  0  0  0
  9 10  1  0  0  0  0
 10 16  1  0  0  0  0
 11 10  2  0  0  0  0
 11 12  1  0  0  0  0
 12 13  2  0  0  0  0
 13 18  1  0  0  0  0
 14 13  1  0  0  0  0
 14 15  1  0  0  0  0
 16 19  1  0  0  0  0
 16 14  2  0  0  0  0
 17 12  1  0  0  0  0
 20 22  1  0  0  0  0
 20  2  1  0  0  0  0
 21 20  1  0  0  0  0
 23 24  1  0  0  0  0
 23 20  1  0  0  0  0
 25 23  1  0  0  0  0
 26 23  1  0  0  0  0
 26 31  1  0  0  0  0
 27 26  1  0  0  0  0
 27 28  1  0  0  0  0
 28 29  1  0  0  0  0
 29 30  1  0  0  0  0
 31 30  1  0  0  0  0
M  END
>  <minimizedAffinity>
-5.17553997

$$$$

 OpenBabel03252504513D

 31 33  0  0  0  0  0  0  0  0999 V2000
   33.9770   29.1060   39.1110 C   0  0  0  0  0  0  0  0  0  0  0  0
   34.1460   28.8940   37.7370 C   0  0  0  0  0  0  0  0  0  0  0  0
   35.4410   29.0560   37.2120 C   0  0  0  0  0  0  0  0  0  0  0  0
   36.4350   29.4060   38.0730 N   0  0  0  0  0  0  0  0  0  0  0  0
   36.2320   29.6000   39.3920 C   0  0  0  0  0  0  0  0  0  0  0  0
   35.0030   29.4480   39.9030 N   0  0  0  0  0  0  0  0  0  0  0  0
   33.0080   28.9950   39.5680 H   0  0  0  0  0  0  0  0  0  0  0  0
   35.5990   28.9030   36.1720 H   0  0  0  0  0  0  0  0  0  0  0  0
   37.4050   27.3110   41.0390 Cl  0  0  0  0  0  0  0  0  0  0  0  0
   37.9500   28.9960   41.0380 C   0  0  0  0  0  0  0  0  0  0  0  0
   37.3500   29.9730   40.2500 C   0  0  0  0  0  0  0  0  0  0  0  0
   37.7920   31.2760   40.2660 C   0  0  0  0  0  0  0  0  0  0  0  0
   38.8630   31.6060   41.0960 C   0  0  0  0  0  0  0  0  0  0  0  0
   39.4300   30.6170   41.8580 C   0  0  0  0  0  0  0  0  0  0  0  0
   40.7700   31.0840   42.8810 Cl  0  0  0  0  0  0  0  0  0  0  0  0
   39.0090   29.3100   41.8620 C   0  0  0  0  0  0  0  0  0  0  0  0
   37.3220   32.0410   39.6480 H   0  0  0  0  0  0  0  0  0  0  0  0
   39.2150   32.6390   41.1100 H   0  0  0  0  0  0  0  0  0  0  0  0
   39.5110   28.5790   42.4970 H   0  0  0  0  0  0  0  0  0  0  0  0
   32.9970   28.5230   36.9180 C   0  0  0  0  0  0  0  0  0  0  0  0
   33.1870   27.5380   36.4550 H   0  0  0  0  0  0  0  0  0  0  0  0
   32.1460   28.4090   37.5820 H   0  0  0  0  0  0  0  0  0  0  0  0
   32.8270   29.5540   35.8490 C   0  0  0  0  0  0  0  0  0  0  0  0
   33.3380   30.5000   36.1480 H   0  0  0  0  0  0  0  0  0  0  0  0
   33.3240   29.2180   34.9170 H   0  0  0  0  0  0  0  0  0  0  0  0
   31.4030   29.8940   35.4910 C   0  0  0  0  0  3  0  0  0  0  0  0
   31.2960   30.8080   34.3090 C   0  0  0  0  0  2  0  0  0  0  0  0
   31.0520   32.2470   34.6080 C   0  0  0  0  0  2  0  0  0  0  0  0
   30.1530   32.5230   35.7650 C   0  0  0  0  0  2  0  0  0  0  0  0
   30.3640   31.6730   36.9610 C   0  0  0  0  0  2  0  0  0  0  0  0
   30.5290   30.2340   36.6470 C   0  0  0  0  0  2  0  0  0  0  0  0
  1  7  1  0  0  0  0
  1  6  1  0  0  0  0
  2  1  2  0  0  0  0
  3  2  1  0  0  0  0
  3  4  2  0  0  0  0
  4  5  1  0  0  0  0
  5  6  2  0  0  0  0
  5 11  1  0  0  0  0
  8  3  1  0  0  0  0
 10  9  1  0  0  0  0
 10 16  1  0  0  0  0
 11 12  1  0  0  0  0
 11 10  2  0  0  0  0
 12 13  2  0  0  0  0
 13 18  1  0  0  0  0
 13 14  1  0  0  0  0
 14 16  2  0  0  0  0
 14 15  1  0  0  0  0
 16 19  1  0  0  0  0
 17 12  1  0  0  0  0
 20 22  1  0  0  0  0
 20  2  1  0  0  0  0
 21 20  1  0  0  0  0
 23 24  1  0  0  0  0
 23 20  1  0  0  0  0
 25 23  1  0  0  0  0
 26 23  1  0  0  0  0
 26 31  1  0  0  0  0
 27 28  1  0  0  0  0
 27 26  1  0  0  0  0
 28 29  1  0  0  0  0
 29 30  1  0  0  0  0
 31 30  1  0  0  0  0
M  END
>  <minimizedAffinity>
-5.13840055

$$$$
