
 OpenBabel03242519493D

 47 50  0  0  1  0  0  0  0  0999 V2000
   45.2300   28.0090   48.0070 C   0  0  0  0  0  0  0  0  0  0  0  0
   45.7140   27.5740   48.8350 H   0  0  0  0  0  0  0  0  0  0  0  0
   44.0770   27.8240   48.4530 H   0  0  0  0  0  0  0  0  0  0  0  0
   45.0780   27.2960   46.6680 C   0  0  0  0  0  0  0  0  0  0  0  0
   45.4790   26.2580   46.8150 H   0  0  0  0  0  0  0  0  0  0  0  0
   45.6520   27.7560   45.8770 H   0  0  0  0  0  0  0  0  0  0  0  0
   43.0920   28.2830   45.6750 C   0  0  0  0  0  0  0  0  0  0  0  0
   43.6560   27.1800   46.3350 C   0  0  0  0  0  0  0  0  0  0  0  0
   42.7650   26.1630   46.5870 C   0  0  0  0  0  0  0  0  0  0  0  0
   41.4440   26.1720   46.2500 C   0  0  0  0  0  0  0  0  0  0  0  0
   40.9090   27.2720   45.6000 C   0  0  0  0  0  0  0  0  0  0  0  0
   41.7620   28.3550   45.3070 C   0  0  0  0  0  0  0  0  0  0  0  0
   43.2410   25.3230   47.1010 H   0  0  0  0  0  0  0  0  0  0  0  0
   40.8770   25.2890   46.5210 H   0  0  0  0  0  0  0  0  0  0  0  0
   39.8580   27.2390   45.3510 H   0  0  0  0  0  0  0  0  0  0  0  0
   43.7420   29.4390   45.2930 O   0  0  0  0  0  0  0  0  0  0  0  0
   44.3270   29.4250   44.4610 H   0  0  0  0  0  0  0  0  0  0  0  0
   41.1330   29.3570   44.6780 O   0  0  0  0  0  0  0  0  0  0  0  0
   40.8440   29.7190   43.4010 C   0  0  0  0  0  3  0  0  0  0  0  0
   41.7330   28.8420   42.4910 C   0  0  0  0  0  2  0  0  0  0  0  0
   41.5540   29.3200   41.0800 C   0  0  0  0  0  2  0  0  0  0  0  0
   40.1110   29.1730   40.6550 C   0  0  0  0  0  2  0  0  0  0  0  0
   39.1460   29.7510   41.6370 C   0  0  0  0  0  2  0  0  0  0  0  0
   39.4170   29.2540   43.0340 C   0  0  0  0  0  2  0  0  0  0  0  0
   45.1870   29.3430   47.9120 O   0  0  0  0  0  0  0  0  0  0  0  0
   45.9440   31.5940   48.0490 C   0  0  2  0  0  0  0  0  0  0  0  0
   46.9180   31.8230   46.9830 C   0  0  1  0  0  0  0  0  0  0  0  0
   47.0930   30.4710   46.3940 O   0  0  0  0  0  0  0  0  0  0  0  0
   47.4340   29.8160   47.5740 C   0  0  0  0  0  0  0  0  0  0  0  0
   46.1010   30.1640   48.4380 C   0  0  2  0  0  0  0  0  0  0  0  0
   46.0160   32.2910   48.9050 H   0  0  0  0  0  0  0  0  0  0  0  0
   47.9380   32.0180   47.4160 H   0  0  0  0  0  0  0  0  0  0  0  0
   48.2750   30.2910   48.0910 H   0  0  0  0  0  0  0  0  0  0  0  0
   47.4680   28.7310   47.4750 H   0  0  0  0  0  0  0  0  0  0  0  0
   46.5730   29.9030   49.4010 H   0  0  0  0  0  0  0  0  0  0  0  0
   45.1720   34.5710   45.3450 C   0  0  0  0  0  0  0  0  0  0  0  0
   45.7190   34.5990   44.0660 C   0  0  0  0  0  0  0  0  0  0  0  0
   46.7070   33.6490   43.7370 C   0  0  0  0  0  0  0  0  0  0  0  0
   47.0870   32.7500   44.6700 N   0  0  0  0  0  0  0  0  0  0  0  0
   46.5430   32.7390   45.9090 C   0  0  0  0  0  0  0  0  0  0  0  0
   45.5820   33.6470   46.2570 N   0  0  0  0  0  0  0  0  0  0  0  0
   45.3480   35.3620   43.3850 H   0  0  0  0  0  0  0  0  0  0  0  0
   47.1120   33.6880   42.7550 H   0  0  0  0  0  0  0  0  0  0  0  0
   44.1920   35.4870   45.7230 O   0  0  0  0  0  0  0  0  0  0  0  0
   43.3320   35.6300   45.2310 H   0  0  0  0  0  0  0  0  0  0  0  0
   44.6080   31.7340   47.4810 O   0  0  0  0  0  0  0  0  0  0  0  0
   44.0410   31.0680   47.9560 H   0  0  0  0  0  0  0  0  0  0  0  0
  1  3  1  0  0  0  0
  1  2  1  0  0  0  0
  4  5  1  0  0  0  0
  4  1  1  0  0  0  0
  6  4  1  0  0  0  0
  7  8  1  0  0  0  0
  8  9  2  0  0  0  0
  8  4  1  0  0  0  0
  9 13  1  0  0  0  0
 10 14  1  0  0  0  0
 10  9  1  0  0  0  0
 11 10  2  0  0  0  0
 12 11  1  0  0  0  0
 12  7  2  0  0  0  0
 15 11  1  0  0  0  0
 16  7  1  0  0  0  0
 17 16  1  0  0  0  0
 18 12  1  0  0  0  0
 19 18  1  0  0  0  0
 20 19  1  0  0  0  0
 21 20  1  0  0  0  0
 22 21  1  0  0  0  0
 22 23  1  0  0  0  0
 23 24  1  0  0  0  0
 24 19  1  0  0  0  0
 25  1  1  0  0  0  0
 25 30  1  0  0  0  0
 26 30  1  0  0  0  0
 26 31  1  1  0  0  0
 27 32  1  1  0  0  0
 27 26  1  0  0  0  0
 28 27  1  0  0  0  0
 28 29  1  0  0  0  0
 29 33  1  0  0  0  0
 29 30  1  0  0  0  0
 30 35  1  1  0  0  0
 34 29  1  0  0  0  0
 36 44  1  0  0  0  0
 36 41  1  0  0  0  0
 37 36  2  0  0  0  0
 38 37  1  0  0  0  0
 38 39  2  0  0  0  0
 39 40  1  0  0  0  0
 40 41  2  0  0  0  0
 40 27  1  0  0  0  0
 42 37  1  0  0  0  0
 43 38  1  0  0  0  0
 45 44  1  0  0  0  0
 46 47  1  0  0  0  0
 46 26  1  0  0  0  0
M  END
>  <minimizedAffinity>
-5.97939777

>  <minimizedRMSD>
1.53063035

$$$$
