
     RDKit          3D

 29 30  0  0  0  0  0  0  0  0999 V2000
   44.5600   36.0103   44.4959 C   0  0  0  0  0  0  0  0  0  0  0  0
   45.3058   35.9229   43.2947 C   0  0  0  0  0  0  0  0  0  0  0  0
   46.1939   34.8585   43.1708 C   0  0  0  0  0  0  0  0  0  0  0  0
   46.3108   33.9588   44.1881 N   0  0  0  0  0  0  0  0  0  0  0  0
   45.5691   34.0859   45.3280 C   0  0  0  0  0  0  0  0  0  0  0  0
   44.7024   35.1043   45.4764 N   0  0  0  0  0  0  0  0  0  0  0  0
   46.9601   34.7743   41.9291 C   0  0  0  0  0  0  0  0  0  0  0  0
   43.8673   36.8277   44.6099 H   0  0  0  0  0  0  0  0  0  0  0  0
   45.1559   36.6696   42.5439 H   0  0  0  0  0  0  0  0  0  0  0  0
   45.6607   33.3798   46.1265 H   0  0  0  0  0  0  0  0  0  0  0  0
   47.2149   33.7053   41.7702 H   0  0  0  0  0  0  0  0  0  0  0  0
   46.4079   35.1105   41.0431 H   0  0  0  0  0  0  0  0  0  0  0  0
   48.2732   35.5063   41.9812 C   0  0  0  0  0  0  0  0  0  0  0  0
   48.4096   36.4652   43.1252 C   0  0  0  0  0  0  0  0  0  0  0  0
   49.5812   37.3789   42.7587 C   0  0  0  0  0  0  0  0  0  0  0  0
   50.8116   36.5140   42.7124 C   0  0  0  0  0  0  0  0  0  0  0  0
   50.6673   35.4353   41.6644 C   0  0  0  0  0  0  0  0  0  0  0  0
   49.4600   34.5639   42.0314 C   0  0  0  0  0  0  0  0  0  0  0  0
   48.3989   36.1014   41.0543 H   0  0  0  0  0  0  0  0  0  0  0  0
   48.6961   35.9784   44.0809 H   0  0  0  0  0  0  0  0  0  0  0  0
   47.5154   37.1013   43.2705 H   0  0  0  0  0  0  0  0  0  0  0  0
   49.3765   37.7243   41.7137 H   0  0  0  0  0  0  0  0  0  0  0  0
   49.7047   38.1878   43.4859 H   0  0  0  0  0  0  0  0  0  0  0  0
   51.7098   37.1190   42.4127 H   0  0  0  0  0  0  0  0  0  0  0  0
   50.9484   36.0710   43.7146 H   0  0  0  0  0  0  0  0  0  0  0  0
   50.3859   35.8970   40.6970 H   0  0  0  0  0  0  0  0  0  0  0  0
   51.5769   34.8383   41.5801 H   0  0  0  0  0  0  0  0  0  0  0  0
   49.3125   33.7922   41.2554 H   0  0  0  0  0  0  0  0  0  0  0  0
   49.6025   34.1116   43.0395 H   0  0  0  0  0  0  0  0  0  0  0  0
  1  6  2  0
  2  1  1  0
  3  2  2  0
  3  4  1  0
  4  5  2  0
  5  6  1  0
  7  3  1  0
  1  8  1  0
  2  9  1  0
  5 10  1  0
  7 11  1  0
  7 12  1  0
 13 14  1  0
 14 15  1  0
 15 16  1  0
 16 17  1  0
 17 18  1  0
 18 13  1  0
 13 19  1  0
 14 20  1  0
 14 21  1  0
 15 22  1  0
 15 23  1  0
 16 24  1  0
 16 25  1  0
 17 26  1  0
 17 27  1  0
 18 28  1  0
 18 29  1  0
  7 13  1  0
M  ISO  5   8  14   9  14  10  14  11   8  12   8
M  END
>  <DihAtoms>  (1) 
2,6,12,13

>  <DihDeg>  (1) 
-59.99933838426612

$$$$
