
 OpenBabel03242515003D

 34 36  0  0  0  0  0  0  0  0999 V2000
   42.0100   34.9150   41.4820 C   0  0  0  0  0  0  0  0  0  0  0  0
   42.0910   35.1470   42.5700 H   0  0  0  0  0  0  0  0  0  0  0  0
   41.5060   33.9060   41.4280 H   0  0  0  0  0  0  0  0  0  0  0  0
   41.1370   35.8880   40.7600 C   0  0  0  0  0  0  0  0  0  0  0  0
   40.4340   36.3170   41.5150 H   0  0  0  0  0  0  0  0  0  0  0  0
   41.6820   36.7360   40.3160 H   0  0  0  0  0  0  0  0  0  0  0  0
   41.9230   36.1830   37.8340 Cl  0  0  0  0  0  0  0  0  0  0  0  0
   40.5630   35.2650   38.3850 C   0  0  0  0  0  0  0  0  0  0  0  0
   40.2840   35.1910   39.7680 C   0  0  0  0  0  0  0  0  0  0  0  0
   39.1920   34.4470   40.1160 C   0  0  0  0  0  0  0  0  0  0  0  0
   38.3370   33.7620   39.2670 C   0  0  0  0  0  0  0  0  0  0  0  0
   38.6280   33.8470   37.9150 C   0  0  0  0  0  0  0  0  0  0  0  0
   37.6060   33.0140   36.7470 Cl  0  0  0  0  0  0  0  0  0  0  0  0
   39.7180   34.5850   37.4990 C   0  0  0  0  0  0  0  0  0  0  0  0
   38.9520   34.3720   41.1810 H   0  0  0  0  0  0  0  0  0  0  0  0
   37.4980   33.1990   39.6430 H   0  0  0  0  0  0  0  0  0  0  0  0
   39.9380   34.6450   36.4340 H   0  0  0  0  0  0  0  0  0  0  0  0
   43.6490   34.7430   40.7540 S   0  0  0  0  0  0  0  0  0  0  0  0
   44.9360   34.5370   41.9930 C   0  0  0  0  0  0  0  0  0  0  0  0
   46.2540   34.7080   41.5590 C   0  0  0  0  0  0  0  0  0  0  0  0
   47.2870   34.5580   42.4860 C   0  0  0  0  0  0  0  0  0  0  0  0
   46.9490   34.2520   43.7660 N   0  0  0  0  0  0  0  0  0  0  0  0
   45.6770   34.0910   44.1680 C   0  0  0  0  0  0  0  0  0  0  0  0
   44.6940   34.2370   43.2720 N   0  0  0  0  0  0  0  0  0  0  0  0
   46.4530   34.9520   40.5250 H   0  0  0  0  0  0  0  0  0  0  0  0
   48.3080   34.6870   42.1690 H   0  0  0  0  0  0  0  0  0  0  0  0
   45.4230   33.7650   45.5560 C   0  0  0  0  0  0  0  0  0  0  0  0
   44.9410   34.6750   46.2790 O   0  0  0  0  0  0  0  0  0  0  0  0
   45.7110   32.4090   46.1420 C   0  0  0  0  0  3  0  0  0  0  0  0
   47.0350   31.9380   45.5800 C   0  0  0  0  0  2  0  0  0  0  0  0
   47.5320   30.7040   46.2590 C   0  0  0  0  0  2  0  0  0  0  0  0
   47.7230   30.9460   47.7200 C   0  0  0  0  0  2  0  0  0  0  0  0
   47.1970   32.3180   48.0830 C   0  0  0  0  0  2  0  0  0  0  0  0
   45.7340   32.4250   47.6370 C   0  0  0  0  0  2  0  0  0  0  0  0
  1  2  1  0  0  0  0
  3  1  1  0  0  0  0
  4  1  1  0  0  0  0
  4  5  1  0  0  0  0
  6  4  1  0  0  0  0
  7  8  1  0  0  0  0
  8  9  1  0  0  0  0
  9 10  2  0  0  0  0
  9  4  1  0  0  0  0
 10 15  1  0  0  0  0
 11 16  1  0  0  0  0
 11 10  1  0  0  0  0
 12 11  2  0  0  0  0
 13 12  1  0  0  0  0
 14 12  1  0  0  0  0
 14  8  2  0  0  0  0
 17 14  1  0  0  0  0
 18  1  1  0  0  0  0
 18 19  1  0  0  0  0
 19 24  1  0  0  0  0
 20 19  2  0  0  0  0
 20 21  1  0  0  0  0
 21 22  2  0  0  0  0
 22 23  1  0  0  0  0
 23 27  1  0  0  0  0
 24 23  2  0  0  0  0
 25 20  1  0  0  0  0
 26 21  1  0  0  0  0
 27 29  1  0  0  0  0
 27 28  2  0  0  0  0
 29 34  1  0  0  0  0
 30 29  1  0  0  0  0
 30 31  1  0  0  0  0
 31 32  1  0  0  0  0
 32 33  1  0  0  0  0
 34 33  1  0  0  0  0
M  END
>  <minimizedAffinity>
-6.6169796

>  <minimizedRMSD>
0.687656581

$$$$
