
 OpenBabel03242516293D

 43 47  0  0  0  0  0  0  0  0999 V2000
   49.9160   30.4870   49.6950 C   0  0  0  0  0  0  0  0  0  0  0  0
   50.1050   31.7810   50.1110 N   0  0  0  0  0  0  0  0  0  0  0  0
   50.8350   32.1120   51.1660 C   0  0  0  0  0  0  0  0  0  0  0  0
   51.4130   31.1210   51.8510 N   0  0  0  0  0  0  0  0  0  0  0  0
   51.2800   29.8380   51.5160 C   0  0  0  0  0  0  0  0  0  0  0  0
   51.8950   28.8180   52.2390 C   0  0  0  0  0  0  0  0  0  0  0  0
   51.7410   27.5020   51.8660 C   0  0  0  0  0  0  0  0  0  0  0  0
   50.9700   27.1850   50.7670 C   0  0  0  0  0  0  0  0  0  0  0  0
   50.3530   28.1850   50.0330 C   0  0  0  0  0  0  0  0  0  0  0  0
   50.5100   29.4830   50.4050 C   0  0  0  0  0  0  0  0  0  0  0  0
   50.9370   33.1480   51.4310 H   0  0  0  0  0  0  0  0  0  0  0  0
   52.4740   29.1660   53.0810 H   0  0  0  0  0  0  0  0  0  0  0  0
   52.2630   26.8020   52.5000 H   0  0  0  0  0  0  0  0  0  0  0  0
   50.9450   26.1220   50.6300 H   0  0  0  0  0  0  0  0  0  0  0  0
   49.5460   27.7260   48.8930 C   0  0  0  0  0  0  0  0  0  0  0  0
   48.4840   27.9230   48.9350 H   0  0  0  0  0  0  0  0  0  0  0  0
   50.0730   27.8410   47.9160 H   0  0  0  0  0  0  0  0  0  0  0  0
   49.4700   26.1820   48.8170 C   0  0  0  0  0  0  0  0  0  0  0  0
   47.9830   25.9330   48.4550 C   0  0  0  0  0  0  0  0  0  0  0  0
   47.8610   24.5230   47.9020 C   0  0  0  0  0  0  0  0  0  0  0  0
   48.9840   23.6990   48.4670 C   0  0  0  0  0  0  0  0  0  0  0  0
   50.3130   24.1360   47.8600 C   0  0  0  0  0  0  0  0  0  0  0  0
   50.2000   25.6330   47.6300 C   0  0  0  0  0  0  0  0  0  0  0  0
   48.9970   30.1190   48.2880 S   0  0  0  0  0  0  0  0  0  0  0  0
   46.1480   32.6150   47.0030 C   0  0  0  0  0  0  0  0  0  0  0  0
   47.2960   31.8620   47.1200 C   0  0  0  0  0  0  0  0  0  0  0  0
   47.5010   31.0270   48.1900 C   0  0  0  0  0  0  0  0  0  0  0  0
   46.5520   30.9220   49.1820 C   0  0  0  0  0  0  0  0  0  0  0  0
   45.3980   31.6430   49.1170 C   0  0  0  0  0  0  0  0  0  0  0  0
   45.2140   32.4740   48.0350 C   0  0  0  0  0  0  0  0  0  0  0  0
   48.0310   31.9550   46.3350 H   0  0  0  0  0  0  0  0  0  0  0  0
   46.7570   30.2510   50.0020 H   0  0  0  0  0  0  0  0  0  0  0  0
   44.6660   31.5460   49.9060 H   0  0  0  0  0  0  0  0  0  0  0  0
   44.2970   33.0610   47.9640 H   0  0  0  0  0  0  0  0  0  0  0  0
   44.7310   35.2880   44.9720 C   0  0  0  0  0  0  0  0  0  0  0  0
   45.4690   35.2040   43.7610 C   0  0  0  0  0  0  0  0  0  0  0  0
   46.4480   34.2240   43.6580 C   0  0  0  0  0  0  0  0  0  0  0  0
   46.6850   33.3710   44.7030 N   0  0  0  0  0  0  0  0  0  0  0  0
   45.9350   33.4990   45.8610 C   0  0  0  0  0  0  0  0  0  0  0  0
   44.9700   34.4480   45.9900 N   0  0  0  0  0  0  0  0  0  0  0  0
   43.9420   36.0220   45.1480 H   0  0  0  0  0  0  0  0  0  0  0  0
   45.2130   35.9090   43.0090 H   0  0  0  0  0  0  0  0  0  0  0  0
   47.0070   34.1600   42.7420 H   0  0  0  0  0  0  0  0  0  0  0  0
  1  2  2  0  0  0  0
  1 10  1  0  0  0  0
  2  3  1  0  0  0  0
  3 11  1  0  0  0  0
  3  4  2  0  0  0  0
  5  4  1  0  0  0  0
  5  6  1  0  0  0  0
  6 12  1  0  0  0  0
  7  6  2  0  0  0  0
  7 13  1  0  0  0  0
  8  7  1  0  0  0  0
  9 10  1  0  0  0  0
  9  8  2  0  0  0  0
 10  5  2  0  0  0  0
 14  8  1  0  0  0  0
 15 16  1  0  0  0  0
 15  9  1  0  0  0  0
 17 15  1  0  0  0  0
 18 15  1  0  0  0  0
 19 18  1  0  0  0  0
 20 19  1  0  0  0  0
 20 21  1  0  0  0  0
 22 21  1  0  0  0  0
 23 22  1  0  0  0  0
 23 18  1  0  0  0  0
 24  1  1  0  0  0  0
 25 26  2  0  0  0  0
 25 30  1  0  0  0  0
 26 27  1  0  0  0  0
 27 24  1  0  0  0  0
 27 28  2  0  0  0  0
 28 32  1  0  0  0  0
 29 28  1  0  0  0  0
 29 33  1  0  0  0  0
 30 29  2  0  0  0  0
 31 26  1  0  0  0  0
 34 30  1  0  0  0  0
 35 41  1  0  0  0  0
 35 40  1  0  0  0  0
 36 35  2  0  0  0  0
 37 36  1  0  0  0  0
 37 38  2  0  0  0  0
 38 39  1  0  0  0  0
 39 40  2  0  0  0  0
 39 25  1  0  0  0  0
 42 36  1  0  0  0  0
 43 37  1  0  0  0  0
M  END
>  <minimizedAffinity>
-6.56192827

>  <minimizedRMSD>
0.695240796

$$$$
