
 OpenBabel03252509273D

 27 29  0  0  1  0  0  0  0  0999 V2000
   46.6190   35.0900   41.9630 C   0  0  1  0  0  0  0  0  0  0  0  0
   48.1430   35.4030   42.0120 C   0  0  0  0  0  0  0  0  0  0  0  0
   47.4730   34.1280   41.4040 C   0  0  2  0  0  0  0  0  0  0  0  0
   46.0470   35.8240   41.3560 H   0  0  0  0  0  0  0  0  0  0  0  0
   48.5040   36.1020   41.2320 H   0  0  0  0  0  0  0  0  0  0  0  0
   48.6760   35.3080   42.9520 H   0  0  0  0  0  0  0  0  0  0  0  0
   47.7050   33.2160   42.0390 H   0  0  0  0  0  0  0  0  0  0  0  0
   44.6320   35.4210   45.1290 C   0  0  0  0  0  0  0  0  0  0  0  0
   45.1190   35.7330   43.8270 C   0  0  0  0  0  0  0  0  0  0  0  0
   46.0750   34.8940   43.3580 C   0  0  0  0  0  0  0  0  0  0  0  0
   46.5390   33.8230   44.0910 N   0  0  0  0  0  0  0  0  0  0  0  0
   46.0500   33.5600   45.3300 C   0  0  0  0  0  0  0  0  0  0  0  0
   45.0880   34.3710   45.8460 N   0  0  0  0  0  0  0  0  0  0  0  0
   43.8600   36.1010   45.5060 H   0  0  0  0  0  0  0  0  0  0  0  0
   46.3800   32.7420   45.9340 H   0  0  0  0  0  0  0  0  0  0  0  0
   44.6630   36.8440   43.0790 N   0  0  0  0  0  0  0  0  0  0  0  0
   44.0310   36.8290   42.2310 H   0  0  0  0  0  0  0  0  0  0  0  0
   44.9210   37.8510   43.3020 H   0  0  0  0  0  0  0  0  0  0  0  0
   47.5810   33.9220   39.9070 C   0  0  0  0  0  0  0  0  0  0  0  0
   46.5780   34.0350   39.4420 H   0  0  0  0  0  0  0  0  0  0  0  0
   48.2530   34.7130   39.4840 H   0  0  0  0  0  0  0  0  0  0  0  0
   48.1320   32.5340   39.6390 C   0  0  0  0  0  3  0  0  0  0  0  0
   49.5360   32.3930   40.1110 C   0  0  0  0  0  2  0  0  0  0  0  0
   49.9620   31.0790   40.6360 C   0  0  0  0  0  2  0  0  0  0  0  0
   49.0260   29.9940   40.1450 C   0  0  0  0  0  2  0  0  0  0  0  0
   47.7050   30.3350   40.8110 C   0  0  0  0  0  2  0  0  0  0  0  0
   47.1520   31.5280   40.0860 C   0  0  0  0  0  2  0  0  0  0  0  0
  1  4  1  6  0  0  0
  1  2  1  0  0  0  0
  1 10  1  0  0  0  0
  2  6  1  0  0  0  0
  3  1  1  0  0  0  0
  3  2  1  0  0  0  0
  3  7  1  1  0  0  0
  5  2  1  0  0  0  0
  8 14  1  0  0  0  0
  8 13  1  0  0  0  0
  9  8  2  0  0  0  0
 10  9  1  0  0  0  0
 10 11  2  0  0  0  0
 11 12  1  0  0  0  0
 12 13  2  0  0  0  0
 12 15  1  0  0  0  0
 16 18  1  0  0  0  0
 16  9  1  0  0  0  0
 17 16  1  0  0  0  0
 19  3  1  0  0  0  0
 20 19  1  0  0  0  0
 21 19  1  0  0  0  0
 22 19  1  0  0  0  0
 22 27  1  0  0  0  0
 22 23  1  0  0  0  0
 23 24  1  0  0  0  0
 25 24  1  0  0  0  0
 25 26  1  0  0  0  0
 27 26  1  0  0  0  0
M  END
>  <minimizedAffinity>
-4.45681143

>  <minimizedRMSD>
0.474848062

$$$$
