REMARK  Name = 
REMARK  2 active torsions:
REMARK  status: ('A' for Active; 'I' for Inactive)
REMARK    1  A    between atoms: C_3  and  N_9
REMARK    2  A    between atoms: C_7  and  C_14
REMARK                            x       y       z     vdW  Elec       q    Type
REMARK                         _______ _______ _______ _____ _____    ______ ____
ROOT
ATOM      1  C   UNL     1      46.381  34.204  40.792  0.00  0.00    +0.000 C 
ATOM      2  O   UNL     1      45.222  33.728  40.932  0.00  0.00    +0.000 OA
ATOM      3  N   UNL     1      46.899  34.843  41.950  0.00  0.00    +0.000 N 
ATOM      4  H   UNL     1      47.842  35.270  42.020  0.00  0.00    +0.000 HD
ENDROOT
BRANCH   3   7
ATOM      5  C   UNL     1      44.530  36.046  44.568  0.00  0.00    +0.000 A 
ATOM      6  C   UNL     1      45.246  36.008  43.359  0.00  0.00    +0.000 A 
ATOM      7  C   UNL     1      46.138  34.953  43.146  0.00  0.00    +0.000 A 
ATOM      8  N   UNL     1      46.281  34.004  44.112  0.00  0.00    +0.000 NA
ATOM      9  C   UNL     1      45.574  34.070  45.269  0.00  0.00    +0.000 A 
ATOM     10  N   UNL     1      44.714  35.085  45.477  0.00  0.00    +0.000 NA
ATOM     11  H   UNL     1      43.836  36.856  44.747  0.00  0.00    +0.000 HD
ATOM     12  H   UNL     1      45.125  36.766  42.598  0.00  0.00    +0.000 HD
ATOM     13  H   UNL     1      45.711  33.297  46.021  0.00  0.00    +0.000 HD
ENDBRANCH   3   7
BRANCH   1  14
ATOM     14  C   UNL     1      47.267  34.184  39.589  0.00  0.00    +0.000 C 
ATOM     15  C   UNL     1      46.481  33.815  38.342  0.00  0.00    +0.000 C 
ATOM     16  C   UNL     1      47.413  34.193  37.188  0.00  0.00    +0.000 C 
ATOM     17  C   UNL     1      48.548  33.196  37.171  0.00  0.00    +0.000 C 
ATOM     18  C   UNL     1      48.648  32.408  38.443  0.00  0.00    +0.000 C 
ATOM     19  C   UNL     1      48.383  33.185  39.692  0.00  0.00    +0.000 C 
ENDBRANCH   1  14
TORSDOF 2
