
 OpenBabel03242519413D

 26 28  0  0  1  0  0  0  0  0999 V2000
   48.1270   32.8550   41.7400 O   0  0  0  0  0  0  0  0  0  0  0  0
   47.2440   34.0030   41.3090 P   0  0  2  0  0  0  0  0  0  0  0  0
   45.6600   33.7860   41.9560 O   0  0  0  0  0  0  0  0  0  0  0  0
   44.3960   35.8770   44.6170 C   0  0  0  0  0  0  0  0  0  0  0  0
   44.7090   35.4130   43.3240 C   0  0  0  0  0  0  0  0  0  0  0  0
   45.3770   34.1910   43.2180 C   0  0  0  0  0  0  0  0  0  0  0  0
   45.6950   33.5040   44.3340 N   0  0  0  0  0  0  0  0  0  0  0  0
   45.3820   33.9730   45.5640 C   0  0  0  0  0  0  0  0  0  0  0  0
   44.7380   35.1500   45.7140 N   0  0  0  0  0  0  0  0  0  0  0  0
   43.8860   36.8090   44.7150 H   0  0  0  0  0  0  0  0  0  0  0  0
   44.4310   35.9990   42.4730 H   0  0  0  0  0  0  0  0  0  0  0  0
   45.6710   33.3670   46.4130 H   0  0  0  0  0  0  0  0  0  0  0  0
   47.0130   34.0680   39.6680 O   0  0  0  0  0  0  0  0  0  0  0  0
   46.4440   33.2080   38.8160 C   0  0  2  0  0  3  0  0  0  0  0  0
   46.6660   33.4700   37.5760 O   0  0  0  0  0  0  0  0  0  0  0  0
   45.7790   32.2160   38.0800 C   0  0  0  0  0  0  0  0  0  0  0  0
   45.1630   31.1240   38.9260 C   0  0  0  0  0  2  0  0  0  0  0  0
   46.1630   30.0370   39.2530 C   0  0  0  0  0  2  0  0  0  0  0  0
   46.3060   29.2370   37.9790 C   0  0  0  0  0  2  0  0  0  0  0  0
   46.5670   30.1240   36.8390 C   0  0  0  0  0  2  0  0  0  0  0  0
   46.6780   31.5590   36.9950 C   0  0  0  0  0  2  0  0  0  0  0  0
   47.8080   35.4150   41.9560 O   0  0  0  0  0  0  0  0  0  0  0  0
   49.0410   35.7460   41.4260 C   0  0  0  0  0  0  0  0  0  0  0  0
   49.4330   37.0350   41.7740 F   0  0  0  0  0  0  0  0  0  0  0  0
   49.9650   34.8160   41.7770 F   0  0  0  0  0  0  0  0  0  0  0  0
   48.8950   35.7440   40.0460 F   0  0  0  0  0  0  0  0  0  0  0  0
  2  1  2  1  0  0  0
  2  3  1  0  0  0  0
  2 22  1  0  0  0  0
  3  6  1  0  0  0  0
  4 10  1  0  0  0  0
  4  9  1  0  0  0  0
  5  4  2  0  0  0  0
  6  5  1  0  0  0  0
  6  7  2  0  0  0  0
  7  8  1  0  0  0  0
  8  9  2  0  0  0  0
  8 12  1  0  0  0  0
 11  5  1  0  0  0  0
 13  2  1  0  0  0  0
 14 13  1  6  0  0  0
 15 16  1  0  0  0  0
 15 14  1  0  0  0  0
 16 14  1  0  0  0  0
 16 17  1  0  0  0  0
 17 18  1  0  0  0  0
 19 18  1  0  0  0  0
 20 21  1  0  0  0  0
 20 19  1  0  0  0  0
 21 16  1  0  0  0  0
 23 24  1  0  0  0  0
 23 25  1  0  0  0  0
 23 22  1  0  0  0  0
 26 23  1  0  0  0  0
M  END
>  <minimizedAffinity>
-4.87158775

>  <minimizedRMSD>
0.261834502

$$$$
