
     RDKit          3D

 38 40  0  0  0  0  0  0  0  0999 V2000
   44.6761   35.3774   45.1515 C   0  0  0  0  0  0  0  0  0  0  0  0
   45.1280   35.6979   43.8388 C   0  0  0  0  0  0  0  0  0  0  0  0
   46.0689   34.8615   43.3358 C   0  0  0  0  0  0  0  0  0  0  0  0
   46.5505   33.7834   44.0482 N   0  0  0  0  0  0  0  0  0  0  0  0
   46.0953   33.5106   45.2971 C   0  0  0  0  0  0  0  0  0  0  0  0
   45.1492   34.3196   45.8463 N   0  0  0  0  0  0  0  0  0  0  0  0
   46.5746   35.0677   41.9286 C   0  0  1  0  0  0  0  0  0  0  0  0
   48.1151   35.2897   41.9314 C   0  0  0  0  0  0  0  0  0  0  0  0
   47.3514   34.0746   41.3115 C   0  0  2  0  0  0  0  0  0  0  0  0
   47.3943   33.9089   39.8072 C   0  0  0  0  0  0  0  0  0  0  0  0
   44.6545   36.8157   43.1125 N   0  0  0  0  0  0  0  0  0  0  0  0
   43.9157   36.0548   45.5536 H   0  0  0  0  0  0  0  0  0  0  0  0
   46.4390   32.6871   45.8853 H   0  0  0  0  0  0  0  0  0  0  0  0
   46.0261   35.8523   41.3645 H   0  0  0  0  0  0  0  0  0  0  0  0
   48.4889   35.9910   41.1576 H   0  0  0  0  0  0  0  0  0  0  0  0
   48.6739   35.1359   42.8478 H   0  0  0  0  0  0  0  0  0  0  0  0
   47.5500   33.1331   41.9116 H   0  0  0  0  0  0  0  0  0  0  0  0
   46.3697   33.7090   39.4240 H   0  0  0  0  0  0  0  0  0  0  0  0
   47.7564   34.8665   39.3511 H   0  0  0  0  0  0  0  0  0  0  0  0
   43.9994   36.8097   42.2823 H   0  0  0  0  0  0  0  0  0  0  0  0
   44.9203   37.8210   43.3367 H   0  0  0  0  0  0  0  0  0  0  0  0
   48.3194   32.7558   39.4652 C   0  0  0  0  0  0  0  0  0  0  0  0
   47.5658   31.5414   39.0564 C   0  0  0  0  0  0  0  0  0  0  0  0
   48.1679   30.6652   38.0293 C   0  0  0  0  0  0  0  0  0  0  0  0
   49.6594   30.9154   37.9403 C   0  0  0  0  0  0  0  0  0  0  0  0
   49.7496   32.3400   37.4230 C   0  0  0  0  0  0  0  0  0  0  0  0
   49.3848   33.2395   38.5684 C   0  0  0  0  0  0  0  0  0  0  0  0
   48.7916   32.4984   40.4537 H   0  0  0  0  0  0  0  0  0  0  0  0
   47.2702   30.9156   39.9334 H   0  0  0  0  0  0  0  0  0  0  0  0
   46.5798   31.9146   38.6499 H   0  0  0  0  0  0  0  0  0  0  0  0
   48.0449   29.5935   38.2776 H   0  0  0  0  0  0  0  0  0  0  0  0
   47.7461   30.8087   37.0128 H   0  0  0  0  0  0  0  0  0  0  0  0
   50.1895   30.2258   37.2687 H   0  0  0  0  0  0  0  0  0  0  0  0
   50.0720   30.9328   38.9813 H   0  0  0  0  0  0  0  0  0  0  0  0
   50.7602   32.6080   37.0772 H   0  0  0  0  0  0  0  0  0  0  0  0
   48.9869   32.4950   36.6060 H   0  0  0  0  0  0  0  0  0  0  0  0
   50.3412   33.4557   39.1245 H   0  0  0  0  0  0  0  0  0  0  0  0
   49.1300   34.2260   38.0929 H   0  0  0  0  0  0  0  0  0  0  0  0
  1  6  2  0
  2  1  1  0
  3  2  2  0
  3  4  1  0
  4  5  2  0
  5  6  1  0
  7  3  1  0
  8  7  1  0
  9  8  1  0
  9  7  1  0
 10  9  1  0
 11  2  1  0
  1 12  1  0
  5 13  1  0
  7 14  1  6
  8 15  1  0
  8 16  1  0
  9 17  1  1
 10 18  1  0
 10 19  1  0
 11 20  1  0
 11 21  1  0
 22 23  1  0
 23 24  1  0
 24 25  1  0
 25 26  1  0
 26 27  1  0
 27 22  1  0
 22 28  1  0
 23 29  1  0
 23 30  1  0
 24 31  1  0
 24 32  1  0
 25 33  1  0
 25 34  1  0
 26 35  1  0
 26 36  1  0
 27 37  1  0
 27 38  1  0
 10 22  1  0
M  ISO  8  12  14  13  14  14  13  15  13  16  13  17  13  18   8  19   8
M  END
>  <DihAtoms>  (1) 
8,9,21,22

>  <DihDeg>  (1) 
179.99900460009806

$$$$
