
     RDKit          3D

 37 38  0  0  0  0  0  0  0  0999 V2000
   48.0249   32.8648   41.8348 O   0  0  0  0  0  0  0  0  0  0  0  0
   47.1795   34.0161   41.3427 P   0  0  2  0  0  0  0  0  0  0  0  0
   45.5833   33.8732   41.9829 O   0  0  0  0  0  0  0  0  0  0  0  0
   44.3813   35.9371   44.6928 C   0  0  0  0  0  0  0  0  0  0  0  0
   44.6728   35.4900   43.3889 C   0  0  0  0  0  0  0  0  0  0  0  0
   45.3200   34.2600   43.2537 C   0  0  0  0  0  0  0  0  0  0  0  0
   45.6401   33.5491   44.3545 N   0  0  0  0  0  0  0  0  0  0  0  0
   45.3483   34.0021   45.5955 C   0  0  0  0  0  0  0  0  0  0  0  0
   44.7242   35.1858   45.7730 N   0  0  0  0  0  0  0  0  0  0  0  0
   46.9652   34.0132   39.6986 O   0  0  0  0  0  0  0  0  0  0  0  0
   46.3395   33.1541   38.8854 C   0  0  0  0  0  0  0  0  0  0  0  0
   46.5482   33.3676   37.6341 O   0  0  0  0  0  0  0  0  0  0  0  0
   47.7762   35.4402   41.9321 O   0  0  0  0  0  0  0  0  0  0  0  0
   49.0006   35.7362   41.3642 C   0  0  0  0  0  0  0  0  0  0  0  0
   49.4327   37.0185   41.6879 F   0  0  0  0  0  0  0  0  0  0  0  0
   49.9131   34.7875   41.6976 F   0  0  0  0  0  0  0  0  0  0  0  0
   48.8161   35.7255   39.9893 F   0  0  0  0  0  0  0  0  0  0  0  0
   43.8872   36.8752   44.8122 H   0  0  0  0  0  0  0  0  0  0  0  0
   44.3949   36.0952   42.5512 H   0  0  0  0  0  0  0  0  0  0  0  0
   45.6361   33.3767   46.4310 H   0  0  0  0  0  0  0  0  0  0  0  0
   45.6159   32.1722   38.1945 C   0  0  0  0  0  0  0  0  0  0  0  0
   44.3281   31.7587   38.8712 C   0  0  0  0  0  0  0  0  0  0  0  0
   44.5607   30.6817   39.9078 C   0  0  0  0  0  0  0  0  0  0  0  0
   44.7791   29.4129   39.1167 C   0  0  0  0  0  0  0  0  0  0  0  0
   45.7886   29.6233   38.0719 C   0  0  0  0  0  0  0  0  0  0  0  0
   46.4540   30.8966   37.8961 C   0  0  0  0  0  0  0  0  0  0  0  0
   45.2588   32.3774   37.1493 H   0  0  0  0  0  0  0  0  0  0  0  0
   43.6352   31.2438   38.1289 H   0  0  0  0  0  0  0  0  0  0  0  0
   43.7059   32.5864   39.2361 H   0  0  0  0  0  0  0  0  0  0  0  0
   43.5847   30.5921   40.4580 H   0  0  0  0  0  0  0  0  0  0  0  0
   45.3390   30.8723   40.6358 H   0  0  0  0  0  0  0  0  0  0  0  0
   45.0319   28.6238   39.8706 H   0  0  0  0  0  0  0  0  0  0  0  0
   43.7904   29.1743   38.6516 H   0  0  0  0  0  0  0  0  0  0  0  0
   45.3845   29.2663   37.0762 H   0  0  0  0  0  0  0  0  0  0  0  0
   46.6017   28.8566   38.2722 H   0  0  0  0  0  0  0  0  0  0  0  0
   46.9349   30.9691   36.9065 H   0  0  0  0  0  0  0  0  0  0  0  0
   47.3087   30.9670   38.6309 H   0  0  0  0  0  0  0  0  0  0  0  0
  2  1  2  0
  2  3  1  1
  2 13  1  0
  3  6  1  0
  4  9  2  0
  5  4  1  0
  6  5  2  0
  6  7  1  0
  7  8  2  0
  8  9  1  0
 10  2  1  0
 11 10  1  0
 12 11  2  0
 14 16  1  0
 14 15  1  0
 14 13  1  0
 17 14  1  0
  4 18  1  0
  5 19  1  0
  8 20  1  0
 21 22  1  0
 22 23  1  0
 23 24  1  0
 24 25  1  0
 25 26  1  0
 26 21  1  0
 21 27  1  0
 22 28  1  0
 22 29  1  0
 23 30  1  0
 23 31  1  0
 24 32  1  0
 24 33  1  0
 25 34  1  0
 25 35  1  0
 26 36  1  0
 26 37  1  0
 11 21  1  0
M  ISO  3  18  14  19  14  20  14
M  END
>  <DihAtoms>  (1) 
9,10,20,21

>  <DihDeg>  (1) 
-176.8377202536846

$$$$
