
 OpenBabel03252507053D

 44 47  0  0  0  0  0  0  0  0999 V2000
   39.2460   29.9060   42.9170 C   0  0  0  0  0  0  0  0  0  0  0  0
   38.1720   29.9070   42.5280 H   0  0  0  0  0  0  0  0  0  0  0  0
   39.1210   30.1690   43.9900 H   0  0  0  0  0  0  0  0  0  0  0  0
   39.8880   28.7510   42.7310 N   0  0  0  0  0  0  0  0  0  0  0  0
   41.1990   28.5430   42.2170 C   0  0  0  0  0  0  0  0  0  0  0  0
   41.9090   28.1860   43.5220 C   0  0  0  0  0  0  0  0  0  0  0  0
   41.3710   27.0120   44.1880 C   0  0  0  0  0  0  0  0  0  0  0  0
   40.0050   26.6150   43.9270 C   0  0  0  0  0  0  0  0  0  0  0  0
   39.1180   27.5480   43.1380 C   0  0  0  0  0  0  0  0  0  0  0  0
   41.5900   29.5600   41.9270 H   0  0  0  0  0  0  0  0  0  0  0  0
   41.3470   27.8400   41.4150 H   0  0  0  0  0  0  0  0  0  0  0  0
   42.9810   28.0540   43.2420 H   0  0  0  0  0  0  0  0  0  0  0  0
   41.8860   29.1250   44.1400 H   0  0  0  0  0  0  0  0  0  0  0  0
   42.0180   26.1180   43.9500 H   0  0  0  0  0  0  0  0  0  0  0  0
   41.4910   27.1240   45.2980 H   0  0  0  0  0  0  0  0  0  0  0  0
   39.5310   25.7310   44.2510 H   0  0  0  0  0  0  0  0  0  0  0  0
   37.4490   27.2280   42.8270 S   0  0  0  0  0  0  0  0  0  0  0  0
   37.0030   26.0910   41.5530 C   0  0  0  0  0  3  0  0  0  0  0  0
   36.9650   24.6400   41.9220 C   0  0  0  0  0  2  0  0  0  0  0  0
   36.8500   23.8310   40.6420 C   0  0  0  0  0  2  0  0  0  0  0  0
   36.1050   24.5730   39.5510 C   0  0  0  0  0  2  0  0  0  0  0  0
   36.8440   25.8300   39.1360 C   0  0  0  0  0  2  0  0  0  0  0  0
   37.8060   26.2190   40.2680 C   0  0  0  0  0  2  0  0  0  0  0  0
   39.8860   31.0570   42.2270 C   0  0  0  0  0  0  0  0  0  0  0  0
   40.0650   31.8700   42.9900 H   0  0  0  0  0  0  0  0  0  0  0  0
   40.8530   30.7730   41.7710 H   0  0  0  0  0  0  0  0  0  0  0  0
   38.9420   31.5840   41.2280 C   0  0  0  0  0  0  0  0  0  0  0  0
   38.9100   32.9260   40.9370 C   0  0  0  0  0  0  0  0  0  0  0  0
   37.9960   33.3800   40.0000 C   0  0  0  0  0  0  0  0  0  0  0  0
   37.1680   32.4610   39.4090 N   0  0  0  0  0  0  0  0  0  0  0  0
   37.2290   31.1700   39.7150 C   0  0  0  0  0  0  0  0  0  0  0  0
   38.1190   30.7610   40.6210 N   0  0  0  0  0  0  0  0  0  0  0  0
   39.4730   33.7830   41.2700 H   0  0  0  0  0  0  0  0  0  0  0  0
   37.8240   34.3940   39.6470 H   0  0  0  0  0  0  0  0  0  0  0  0
   36.3270   30.2610   39.0090 C   0  0  0  0  0  0  0  0  0  0  0  0
   35.3310   29.5810   39.7030 C   0  0  0  0  0  0  0  0  0  0  0  0
   34.4910   28.7170   39.0350 C   0  0  0  0  0  0  0  0  0  0  0  0
   34.7360   28.6110   37.6910 C   0  0  0  0  0  0  0  0  0  0  0  0
   35.7170   29.2660   36.9440 C   0  0  0  0  0  0  0  0  0  0  0  0
   36.4970   30.0970   37.6840 N   0  0  0  0  0  0  0  0  0  0  0  0
   35.1900   29.7100   40.7760 H   0  0  0  0  0  0  0  0  0  0  0  0
   33.6920   28.1460   39.4840 H   0  0  0  0  0  0  0  0  0  0  0  0
   34.0920   27.9340   37.1150 H   0  0  0  0  0  0  0  0  0  0  0  0
   35.8240   29.1140   35.9000 H   0  0  0  0  0  0  0  0  0  0  0  0
  1  3  1  0  0  0  0
  2  1  1  0  0  0  0
  4  1  1  0  0  0  0
  4  9  1  0  0  0  0
  5  4  1  0  0  0  0
  5  6  1  0  0  0  0
  6 13  1  0  0  0  0
  6  7  1  0  0  0  0
  7 15  1  0  0  0  0
  8  7  1  0  0  0  0
  8 16  1  0  0  0  0
  9  8  2  0  0  0  0
 10  5  1  0  0  0  0
 11  5  1  0  0  0  0
 12  6  1  0  0  0  0
 14  7  1  0  0  0  0
 17  9  1  0  0  0  0
 18 19  1  0  0  0  0
 18 17  1  0  0  0  0
 20 19  1  0  0  0  0
 21 20  1  0  0  0  0
 22 21  1  0  0  0  0
 22 23  1  0  0  0  0
 23 18  1  0  0  0  0
 24  1  1  0  0  0  0
 24 25  1  0  0  0  0
 26 24  1  0  0  0  0
 27 24  1  0  0  0  0
 28 27  1  0  0  0  0
 28 33  1  0  0  0  0
 29 28  2  0  0  0  0
 30 31  2  0  0  0  0
 30 29  1  0  0  0  0
 31 32  1  0  0  0  0
 32 27  2  0  0  0  0
 34 29  1  0  0  0  0
 35 36  1  0  0  0  0
 35 31  1  0  0  0  0
 36 41  1  0  0  0  0
 37 42  1  0  0  0  0
 37 36  2  0  0  0  0
 38 37  1  0  0  0  0
 39 40  1  0  0  0  0
 39 38  2  0  0  0  0
 40 35  2  0  0  0  0
 43 38  1  0  0  0  0
 44 39  1  0  0  0  0
M  END
>  <minimizedAffinity>
-6.13835812

$$$$

 OpenBabel03252507053D

 44 47  0  0  0  0  0  0  0  0999 V2000
   36.9060   27.3530   42.6340 C   0  0  0  0  0  0  0  0  0  0  0  0
   36.5950   28.2820   42.0440 H   0  0  0  0  0  0  0  0  0  0  0  0
   35.9740   27.0810   43.1760 H   0  0  0  0  0  0  0  0  0  0  0  0
   37.3810   26.3650   41.8760 N   0  0  0  0  0  0  0  0  0  0  0  0
   38.0920   25.2010   42.2860 C   0  0  0  0  0  0  0  0  0  0  0  0
   36.9780   24.1710   42.1090 C   0  0  0  0  0  0  0  0  0  0  0  0
   36.4710   24.0720   40.7520 C   0  0  0  0  0  0  0  0  0  0  0  0
   36.6180   25.2000   39.8580 C   0  0  0  0  0  0  0  0  0  0  0  0
   37.1010   26.5140   40.4250 C   0  0  0  0  0  0  0  0  0  0  0  0
   38.2420   25.2990   43.3990 H   0  0  0  0  0  0  0  0  0  0  0  0
   39.0200   24.9510   41.8020 H   0  0  0  0  0  0  0  0  0  0  0  0
   37.4160   23.2070   42.4640 H   0  0  0  0  0  0  0  0  0  0  0  0
   36.2020   24.4350   42.8790 H   0  0  0  0  0  0  0  0  0  0  0  0
   36.9500   23.1890   40.2370 H   0  0  0  0  0  0  0  0  0  0  0  0
   35.3850   23.7920   40.7770 H   0  0  0  0  0  0  0  0  0  0  0  0
   36.3990   25.2230   38.8270 H   0  0  0  0  0  0  0  0  0  0  0  0
   37.2420   27.9540   39.4820 S   0  0  0  0  0  0  0  0  0  0  0  0
   36.0540   28.2900   38.2190 C   0  0  0  0  0  3  0  0  0  0  0  0
   36.5800   28.8080   36.9160 C   0  0  0  0  0  2  0  0  0  0  0  0
   35.4000   29.2960   36.0930 C   0  0  0  0  0  2  0  0  0  0  0  0
   34.1280   28.5280   36.3900 C   0  0  0  0  0  2  0  0  0  0  0  0
   33.6890   28.7210   37.8280 C   0  0  0  0  0  2  0  0  0  0  0  0
   34.9040   29.1890   38.6420 C   0  0  0  0  0  2  0  0  0  0  0  0
   37.8900   27.8650   43.6260 C   0  0  0  0  0  0  0  0  0  0  0  0
   37.3280   28.4640   44.4000 H   0  0  0  0  0  0  0  0  0  0  0  0
   38.4270   27.0390   44.1280 H   0  0  0  0  0  0  0  0  0  0  0  0
   38.8120   28.7800   42.9360 C   0  0  0  0  0  0  0  0  0  0  0  0
   40.1680   28.5530   42.9570 C   0  0  0  0  0  0  0  0  0  0  0  0
   41.0000   29.4480   42.3060 C   0  0  0  0  0  0  0  0  0  0  0  0
   40.4260   30.5180   41.6690 N   0  0  0  0  0  0  0  0  0  0  0  0
   39.1110   30.7040   41.6690 C   0  0  0  0  0  0  0  0  0  0  0  0
   38.3320   29.8270   42.3040 N   0  0  0  0  0  0  0  0  0  0  0  0
   40.7960   27.7840   43.3750 H   0  0  0  0  0  0  0  0  0  0  0  0
   42.0850   29.4350   42.2190 H   0  0  0  0  0  0  0  0  0  0  0  0
   38.5880   31.8560   40.9360 C   0  0  0  0  0  0  0  0  0  0  0  0
   37.5450   31.6970   40.0290 C   0  0  0  0  0  0  0  0  0  0  0  0
   37.0640   32.7850   39.3330 C   0  0  0  0  0  0  0  0  0  0  0  0
   37.6940   33.9680   39.6200 C   0  0  0  0  0  0  0  0  0  0  0  0
   38.7410   34.1860   40.5180 C   0  0  0  0  0  0  0  0  0  0  0  0
   39.1500   33.0600   41.1580 N   0  0  0  0  0  0  0  0  0  0  0  0
   37.0870   30.7260   39.8460 H   0  0  0  0  0  0  0  0  0  0  0  0
   36.2610   32.7630   38.6110 H   0  0  0  0  0  0  0  0  0  0  0  0
   37.3450   34.8630   39.0900 H   0  0  0  0  0  0  0  0  0  0  0  0
   39.1620   35.1480   40.6680 H   0  0  0  0  0  0  0  0  0  0  0  0
  1  3  1  0  0  0  0
  1 24  1  0  0  0  0
  2  1  1  0  0  0  0
  4  5  1  0  0  0  0
  4  1  1  0  0  0  0
  5 10  1  0  0  0  0
  6  5  1  0  0  0  0
  6 12  1  0  0  0  0
  6 13  1  0  0  0  0
  7 15  1  0  0  0  0
  7  6  1  0  0  0  0
  8  9  2  0  0  0  0
  8  7  1  0  0  0  0
  9  4  1  0  0  0  0
 11  5  1  0  0  0  0
 14  7  1  0  0  0  0
 16  8  1  0  0  0  0
 17  9  1  0  0  0  0
 18 23  1  0  0  0  0
 18 17  1  0  0  0  0
 19 18  1  0  0  0  0
 20 21  1  0  0  0  0
 20 19  1  0  0  0  0
 21 22  1  0  0  0  0
 22 23  1  0  0  0  0
 24 26  1  0  0  0  0
 24 25  1  0  0  0  0
 27 28  1  0  0  0  0
 27 24  1  0  0  0  0
 28 33  1  0  0  0  0
 29 28  2  0  0  0  0
 30 31  2  0  0  0  0
 30 29  1  0  0  0  0
 31 32  1  0  0  0  0
 32 27  2  0  0  0  0
 34 29  1  0  0  0  0
 35 40  1  0  0  0  0
 35 31  1  0  0  0  0
 36 35  2  0  0  0  0
 37 38  2  0  0  0  0
 37 36  1  0  0  0  0
 38 39  1  0  0  0  0
 39 44  1  0  0  0  0
 39 40  2  0  0  0  0
 41 36  1  0  0  0  0
 42 37  1  0  0  0  0
 43 38  1  0  0  0  0
M  END
>  <minimizedAffinity>
-6.1210146

$$$$

 OpenBabel03252507053D

 44 47  0  0  0  0  0  0  0  0999 V2000
   36.8130   30.4750   40.8060 C   0  0  0  0  0  0  0  0  0  0  0  0
   36.2460   31.4410   40.5800 H   0  0  0  0  0  0  0  0  0  0  0  0
   37.1260   30.6130   41.8640 H   0  0  0  0  0  0  0  0  0  0  0  0
   36.0960   29.3680   40.6100 N   0  0  0  0  0  0  0  0  0  0  0  0
   34.8250   29.2400   39.9820 C   0  0  0  0  0  0  0  0  0  0  0  0
   35.2760   28.6170   38.6620 C   0  0  0  0  0  0  0  0  0  0  0  0
   35.9620   27.3460   38.8110 C   0  0  0  0  0  0  0  0  0  0  0  0
   36.6120   27.0350   40.0650 C   0  0  0  0  0  0  0  0  0  0  0  0
   36.7390   28.1240   41.1030 C   0  0  0  0  0  0  0  0  0  0  0  0
   34.4920   30.2870   39.7260 H   0  0  0  0  0  0  0  0  0  0  0  0
   34.0360   28.7080   40.4870 H   0  0  0  0  0  0  0  0  0  0  0  0
   34.3440   28.5230   38.0530 H   0  0  0  0  0  0  0  0  0  0  0  0
   35.8770   29.4150   38.1460 H   0  0  0  0  0  0  0  0  0  0  0  0
   35.2370   26.5040   38.6050 H   0  0  0  0  0  0  0  0  0  0  0  0
   36.7200   27.2320   37.9910 H   0  0  0  0  0  0  0  0  0  0  0  0
   37.0430   26.1140   40.3420 H   0  0  0  0  0  0  0  0  0  0  0  0
   37.5620   27.9040   42.6060 S   0  0  0  0  0  0  0  0  0  0  0  0
   38.8240   26.6760   42.7370 C   0  0  0  0  0  3  0  0  0  0  0  0
   38.4200   25.2590   42.4670 C   0  0  0  0  0  2  0  0  0  0  0  0
   39.5560   24.3540   42.9100 C   0  0  0  0  0  2  0  0  0  0  0  0
   40.9120   25.0170   42.7810 C   0  0  0  0  0  2  0  0  0  0  0  0
   41.0220   26.2280   43.6860 C   0  0  0  0  0  2  0  0  0  0  0  0
   39.6020   26.6930   44.0420 C   0  0  0  0  0  2  0  0  0  0  0  0
   38.0260   30.5550   39.9480 C   0  0  0  0  0  0  0  0  0  0  0  0
   38.8190   29.8890   40.3980 H   0  0  0  0  0  0  0  0  0  0  0  0
   37.8170   30.2190   38.9150 H   0  0  0  0  0  0  0  0  0  0  0  0
   38.5300   31.9370   39.9840 C   0  0  0  0  0  0  0  0  0  0  0  0
   37.6580   32.9970   40.0400 C   0  0  0  0  0  0  0  0  0  0  0  0
   38.1760   34.2820   40.0580 C   0  0  0  0  0  0  0  0  0  0  0  0
   39.5390   34.4280   40.0210 N   0  0  0  0  0  0  0  0  0  0  0  0
   40.3510   33.3790   39.9690 C   0  0  0  0  0  0  0  0  0  0  0  0
   39.8250   32.1530   39.9510 N   0  0  0  0  0  0  0  0  0  0  0  0
   36.5860   33.0890   40.0920 H   0  0  0  0  0  0  0  0  0  0  0  0
   37.6480   35.2320   40.0970 H   0  0  0  0  0  0  0  0  0  0  0  0
   41.7910   33.6340   39.9640 C   0  0  0  0  0  0  0  0  0  0  0  0
   42.4650   33.8800   41.1570 C   0  0  0  0  0  0  0  0  0  0  0  0
   43.8190   34.1300   41.1450 C   0  0  0  0  0  0  0  0  0  0  0  0
   44.3910   34.1110   39.9000 C   0  0  0  0  0  0  0  0  0  0  0  0
   43.7670   33.8710   38.6740 C   0  0  0  0  0  0  0  0  0  0  0  0
   42.4340   33.6340   38.7810 N   0  0  0  0  0  0  0  0  0  0  0  0
   41.9490   33.8810   42.1170 H   0  0  0  0  0  0  0  0  0  0  0  0
   44.4280   34.3310   42.0150 H   0  0  0  0  0  0  0  0  0  0  0  0
   45.4690   34.3060   39.8400 H   0  0  0  0  0  0  0  0  0  0  0  0
   44.3030   33.8790   37.7590 H   0  0  0  0  0  0  0  0  0  0  0  0
  1  3  1  0  0  0  0
  2  1  1  0  0  0  0
  4  1  1  0  0  0  0
  4  9  1  0  0  0  0
  5 11  1  0  0  0  0
  5  4  1  0  0  0  0
  6  7  1  0  0  0  0
  6  5  1  0  0  0  0
  7  8  1  0  0  0  0
  8 16  1  0  0  0  0
  8  9  2  0  0  0  0
  9 17  1  0  0  0  0
 10  5  1  0  0  0  0
 12  6  1  0  0  0  0
 13  6  1  0  0  0  0
 14  7  1  0  0  0  0
 15  7  1  0  0  0  0
 17 18  1  0  0  0  0
 18 23  1  0  0  0  0
 19 18  1  0  0  0  0
 19 20  1  0  0  0  0
 21 20  1  0  0  0  0
 21 22  1  0  0  0  0
 22 23  1  0  0  0  0
 24 27  1  0  0  0  0
 24 25  1  0  0  0  0
 24  1  1  0  0  0  0
 26 24  1  0  0  0  0
 27 28  1  0  0  0  0
 28 29  2  0  0  0  0
 28 33  1  0  0  0  0
 29 34  1  0  0  0  0
 30 29  1  0  0  0  0
 31 30  2  0  0  0  0
 32 31  1  0  0  0  0
 32 27  2  0  0  0  0
 35 31  1  0  0  0  0
 35 36  1  0  0  0  0
 36 41  1  0  0  0  0
 37 36  2  0  0  0  0
 37 42  1  0  0  0  0
 38 37  1  0  0  0  0
 39 40  1  0  0  0  0
 39 38  2  0  0  0  0
 40 35  2  0  0  0  0
 43 38  1  0  0  0  0
 44 39  1  0  0  0  0
M  END
>  <minimizedAffinity>
-5.95171261

$$$$

 OpenBabel03252507053D

 44 47  0  0  0  0  0  0  0  0999 V2000
   38.5470   32.1410   40.8570 C   0  0  0  0  0  0  0  0  0  0  0  0
   39.1140   31.1750   40.6290 H   0  0  0  0  0  0  0  0  0  0  0  0
   38.8310   32.3500   41.9120 H   0  0  0  0  0  0  0  0  0  0  0  0
   38.8330   33.1440   40.0270 N   0  0  0  0  0  0  0  0  0  0  0  0
   38.1700   34.3970   39.8960 C   0  0  0  0  0  0  0  0  0  0  0  0
   39.2110   35.2860   40.5750 C   0  0  0  0  0  0  0  0  0  0  0  0
   40.5140   35.2680   39.9340 C   0  0  0  0  0  0  0  0  0  0  0  0
   40.8910   34.1270   39.1290 C   0  0  0  0  0  0  0  0  0  0  0  0
   40.0080   32.9020   39.1510 C   0  0  0  0  0  0  0  0  0  0  0  0
   37.2910   34.3650   40.6010 H   0  0  0  0  0  0  0  0  0  0  0  0
   37.8570   34.7310   38.9210 H   0  0  0  0  0  0  0  0  0  0  0  0
   38.7600   36.3070   40.5800 H   0  0  0  0  0  0  0  0  0  0  0  0
   39.2160   34.9680   41.6530 H   0  0  0  0  0  0  0  0  0  0  0  0
   40.6180   36.1780   39.2730 H   0  0  0  0  0  0  0  0  0  0  0  0
   41.3130   35.4240   40.7070 H   0  0  0  0  0  0  0  0  0  0  0  0
   41.7490   34.0360   38.5240 H   0  0  0  0  0  0  0  0  0  0  0  0
   40.3870   31.4490   38.2990 S   0  0  0  0  0  0  0  0  0  0  0  0
   39.0840   30.4760   37.6110 C   0  0  0  0  0  3  0  0  0  0  0  0
   37.7720   31.1640   37.3870 C   0  0  0  0  0  2  0  0  0  0  0  0
   36.7320   30.1030   37.0730 C   0  0  0  0  0  2  0  0  0  0  0  0
   37.3260   28.8960   36.3760 C   0  0  0  0  0  2  0  0  0  0  0  0
   38.3310   28.1860   37.2620 C   0  0  0  0  0  2  0  0  0  0  0  0
   38.8020   29.1730   38.3400 C   0  0  0  0  0  2  0  0  0  0  0  0
   37.1150   31.7390   40.8310 C   0  0  0  0  0  0  0  0  0  0  0  0
   36.5740   32.3170   41.6350 H   0  0  0  0  0  0  0  0  0  0  0  0
   36.6490   31.9570   39.8530 H   0  0  0  0  0  0  0  0  0  0  0  0
   37.0280   30.3100   41.1740 C   0  0  0  0  0  0  0  0  0  0  0  0
   35.8990   29.5870   40.8710 C   0  0  0  0  0  0  0  0  0  0  0  0
   35.8540   28.2490   41.2250 C   0  0  0  0  0  0  0  0  0  0  0  0
   36.9440   27.7120   41.8600 N   0  0  0  0  0  0  0  0  0  0  0  0
   38.0190   28.4420   42.1360 C   0  0  0  0  0  0  0  0  0  0  0  0
   38.0350   29.7290   41.7850 N   0  0  0  0  0  0  0  0  0  0  0  0
   34.9700   29.8140   40.3740 H   0  0  0  0  0  0  0  0  0  0  0  0
   35.0550   27.5270   41.0720 H   0  0  0  0  0  0  0  0  0  0  0  0
   39.1450   27.7750   42.7880 C   0  0  0  0  0  0  0  0  0  0  0  0
   40.3720   28.4210   42.9050 C   0  0  0  0  0  0  0  0  0  0  0  0
   41.4320   27.7830   43.5110 C   0  0  0  0  0  0  0  0  0  0  0  0
   41.1560   26.5170   43.9570 C   0  0  0  0  0  0  0  0  0  0  0  0
   39.9480   25.8220   43.8670 C   0  0  0  0  0  0  0  0  0  0  0  0
   38.9600   26.5260   43.2570 N   0  0  0  0  0  0  0  0  0  0  0  0
   40.5260   29.4320   42.5280 H   0  0  0  0  0  0  0  0  0  0  0  0
   42.4190   28.2000   43.6490 H   0  0  0  0  0  0  0  0  0  0  0  0
   41.9700   25.9680   44.4460 H   0  0  0  0  0  0  0  0  0  0  0  0
   39.8360   24.8370   44.2470 H   0  0  0  0  0  0  0  0  0  0  0  0
  1  3  1  0  0  0  0
  2  1  1  0  0  0  0
  4  1  1  0  0  0  0
  5  4  1  0  0  0  0
  5  6  1  0  0  0  0
  5 10  1  0  0  0  0
  6 12  1  0  0  0  0
  6 13  1  0  0  0  0
  7  6  1  0  0  0  0
  7 15  1  0  0  0  0
  8  9  2  0  0  0  0
  8  7  1  0  0  0  0
  9  4  1  0  0  0  0
 11  5  1  0  0  0  0
 14  7  1  0  0  0  0
 16  8  1  0  0  0  0
 17  9  1  0  0  0  0
 18 17  1  0  0  0  0
 18 23  1  0  0  0  0
 19 18  1  0  0  0  0
 20 19  1  0  0  0  0
 21 20  1  0  0  0  0
 21 22  1  0  0  0  0
 22 23  1  0  0  0  0
 24  1  1  0  0  0  0
 24 27  1  0  0  0  0
 24 25  1  0  0  0  0
 26 24  1  0  0  0  0
 27 32  1  0  0  0  0
 28 27  2  0  0  0  0
 28 29  1  0  0  0  0
 29 30  2  0  0  0  0
 30 31  1  0  0  0  0
 31 35  1  0  0  0  0
 32 31  2  0  0  0  0
 33 28  1  0  0  0  0
 34 29  1  0  0  0  0
 35 36  2  0  0  0  0
 35 40  1  0  0  0  0
 36 37  1  0  0  0  0
 37 42  1  0  0  0  0
 37 38  2  0  0  0  0
 38 43  1  0  0  0  0
 39 38  1  0  0  0  0
 39 44  1  0  0  0  0
 40 39  2  0  0  0  0
 41 36  1  0  0  0  0
M  END
>  <minimizedAffinity>
-5.92482901

$$$$

 OpenBabel03252507053D

 44 47  0  0  0  0  0  0  0  0999 V2000
   37.7580   27.6200   42.7110 C   0  0  0  0  0  0  0  0  0  0  0  0
   36.9570   27.8730   41.9370 H   0  0  0  0  0  0  0  0  0  0  0  0
   37.1610   27.2540   43.5750 H   0  0  0  0  0  0  0  0  0  0  0  0
   38.6630   26.7380   42.2860 N   0  0  0  0  0  0  0  0  0  0  0  0
   40.0650   26.7240   42.5300 C   0  0  0  0  0  0  0  0  0  0  0  0
   40.1160   25.5800   43.5410 C   0  0  0  0  0  0  0  0  0  0  0  0
   39.6200   24.3140   43.0300 C   0  0  0  0  0  0  0  0  0  0  0  0
   38.6910   24.3150   41.9210 C   0  0  0  0  0  0  0  0  0  0  0  0
   38.1050   25.6300   41.4690 C   0  0  0  0  0  0  0  0  0  0  0  0
   40.2930   27.6590   43.1180 H   0  0  0  0  0  0  0  0  0  0  0  0
   40.7460   26.6260   41.7020 H   0  0  0  0  0  0  0  0  0  0  0  0
   41.1860   25.5160   43.8530 H   0  0  0  0  0  0  0  0  0  0  0  0
   39.5740   25.9610   44.4500 H   0  0  0  0  0  0  0  0  0  0  0  0
   40.4930   23.6690   42.7190 H   0  0  0  0  0  0  0  0  0  0  0  0
   39.1580   23.7270   43.8670 H   0  0  0  0  0  0  0  0  0  0  0  0
   38.3460   23.4750   41.3860 H   0  0  0  0  0  0  0  0  0  0  0  0
   36.9270   25.7570   40.2120 S   0  0  0  0  0  0  0  0  0  0  0  0
   37.0120   27.1010   39.0700 C   0  0  0  0  0  3  0  0  0  0  0  0
   35.7100   27.6670   38.5920 C   0  0  0  0  0  2  0  0  0  0  0  0
   35.9990   28.5930   37.4240 C   0  0  0  0  0  2  0  0  0  0  0  0
   37.3620   29.2470   37.5260 C   0  0  0  0  0  2  0  0  0  0  0  0
   38.4730   28.2180   37.4740 C   0  0  0  0  0  2  0  0  0  0  0  0
   37.8810   26.8520   37.8490 C   0  0  0  0  0  2  0  0  0  0  0  0
   38.3420   28.9390   43.0750 C   0  0  0  0  0  0  0  0  0  0  0  0
   37.9380   29.2340   44.0880 H   0  0  0  0  0  0  0  0  0  0  0  0
   39.4460   28.8960   43.1250 H   0  0  0  0  0  0  0  0  0  0  0  0
   37.8760   29.9380   42.1010 C   0  0  0  0  0  0  0  0  0  0  0  0
   36.6130   29.8560   41.5660 C   0  0  0  0  0  0  0  0  0  0  0  0
   36.2210   30.8100   40.6410 C   0  0  0  0  0  0  0  0  0  0  0  0
   37.1170   31.7920   40.3080 N   0  0  0  0  0  0  0  0  0  0  0  0
   38.3290   31.8410   40.8480 C   0  0  0  0  0  0  0  0  0  0  0  0
   38.6810   30.9090   41.7350 N   0  0  0  0  0  0  0  0  0  0  0  0
   35.7770   29.1900   41.7060 H   0  0  0  0  0  0  0  0  0  0  0  0
   35.2730   30.9040   40.1150 H   0  0  0  0  0  0  0  0  0  0  0  0
   39.2040   32.9450   40.4540 C   0  0  0  0  0  0  0  0  0  0  0  0
   38.7240   34.2500   40.4370 C   0  0  0  0  0  0  0  0  0  0  0  0
   39.5490   35.2850   40.0550 C   0  0  0  0  0  0  0  0  0  0  0  0
   40.8200   34.9020   39.7130 C   0  0  0  0  0  0  0  0  0  0  0  0
   41.3560   33.6120   39.7110 C   0  0  0  0  0  0  0  0  0  0  0  0
   40.4720   32.6580   40.1020 N   0  0  0  0  0  0  0  0  0  0  0  0
   37.6980   34.4880   40.7210 H   0  0  0  0  0  0  0  0  0  0  0  0
   39.2700   36.3270   40.0100 H   0  0  0  0  0  0  0  0  0  0  0  0
   41.5150   35.6910   39.4010 H   0  0  0  0  0  0  0  0  0  0  0  0
   42.3600   33.4200   39.4280 H   0  0  0  0  0  0  0  0  0  0  0  0
  1 24  1  0  0  0  0
  1  3  1  0  0  0  0
  2  1  1  0  0  0  0
  4  5  1  0  0  0  0
  4  1  1  0  0  0  0
  5 10  1  0  0  0  0
  5  6  1  0  0  0  0
  6 12  1  0  0  0  0
  6 13  1  0  0  0  0
  7  6  1  0  0  0  0
  7 15  1  0  0  0  0
  8  7  1  0  0  0  0
  9  8  2  0  0  0  0
  9  4  1  0  0  0  0
 11  5  1  0  0  0  0
 14  7  1  0  0  0  0
 16  8  1  0  0  0  0
 17  9  1  0  0  0  0
 18 17  1  0  0  0  0
 19 18  1  0  0  0  0
 20 21  1  0  0  0  0
 20 19  1  0  0  0  0
 22 21  1  0  0  0  0
 22 23  1  0  0  0  0
 23 18  1  0  0  0  0
 24 26  1  0  0  0  0
 24 25  1  0  0  0  0
 27 24  1  0  0  0  0
 28 33  1  0  0  0  0
 28 27  2  0  0  0  0
 29 28  1  0  0  0  0
 30 29  2  0  0  0  0
 30 31  1  0  0  0  0
 31 32  2  0  0  0  0
 32 27  1  0  0  0  0
 34 29  1  0  0  0  0
 35 31  1  0  0  0  0
 36 35  1  0  0  0  0
 36 41  1  0  0  0  0
 37 36  2  0  0  0  0
 38 37  1  0  0  0  0
 39 38  2  0  0  0  0
 39 40  1  0  0  0  0
 40 35  2  0  0  0  0
 42 37  1  0  0  0  0
 43 38  1  0  0  0  0
 44 39  1  0  0  0  0
M  END
>  <minimizedAffinity>
-5.90624237

$$$$

 OpenBabel03252507053D

 44 47  0  0  0  0  0  0  0  0999 V2000
   36.6610   30.7840   39.1430 C   0  0  0  0  0  0  0  0  0  0  0  0
   35.7890   31.5070   39.2960 H   0  0  0  0  0  0  0  0  0  0  0  0
   37.1660   30.7920   40.1340 H   0  0  0  0  0  0  0  0  0  0  0  0
   36.2910   29.5640   38.7510 N   0  0  0  0  0  0  0  0  0  0  0  0
   34.9900   29.1090   38.3940 C   0  0  0  0  0  0  0  0  0  0  0  0
   35.1790   29.0250   36.8800 C   0  0  0  0  0  0  0  0  0  0  0  0
   36.2300   28.1140   36.4630 C   0  0  0  0  0  0  0  0  0  0  0  0
   37.2980   27.7960   37.3850 C   0  0  0  0  0  0  0  0  0  0  0  0
   37.4010   28.5820   38.6700 C   0  0  0  0  0  0  0  0  0  0  0  0
   34.2930   29.9780   38.5660 H   0  0  0  0  0  0  0  0  0  0  0  0
   34.5980   28.2160   38.8510 H   0  0  0  0  0  0  0  0  0  0  0  0
   34.1800   28.7250   36.4800 H   0  0  0  0  0  0  0  0  0  0  0  0
   35.3180   30.0870   36.5380 H   0  0  0  0  0  0  0  0  0  0  0  0
   35.7700   27.1310   36.1500 H   0  0  0  0  0  0  0  0  0  0  0  0
   36.6940   28.4890   35.5120 H   0  0  0  0  0  0  0  0  0  0  0  0
   38.0520   27.0720   37.2520 H   0  0  0  0  0  0  0  0  0  0  0  0
   38.6740   28.3540   39.8150 S   0  0  0  0  0  0  0  0  0  0  0  0
   38.2790   28.0370   41.5060 C   0  0  0  0  0  3  0  0  0  0  0  0
   39.4080   27.6220   42.4000 C   0  0  0  0  0  2  0  0  0  0  0  0
   38.8160   27.1270   43.7070 C   0  0  0  0  0  2  0  0  0  0  0  0
   37.5100   27.8140   44.0510 C   0  0  0  0  0  2  0  0  0  0  0  0
   36.4410   27.5160   43.0180 C   0  0  0  0  0  2  0  0  0  0  0  0
   37.1350   27.0600   41.7260 C   0  0  0  0  0  2  0  0  0  0  0  0
   37.5430   31.4780   38.1660 C   0  0  0  0  0  0  0  0  0  0  0  0
   38.2830   30.7260   37.7650 H   0  0  0  0  0  0  0  0  0  0  0  0
   36.9630   31.8990   37.3230 H   0  0  0  0  0  0  0  0  0  0  0  0
   38.3030   32.5150   38.8810 C   0  0  0  0  0  0  0  0  0  0  0  0
   37.6680   33.3790   39.7400 C   0  0  0  0  0  0  0  0  0  0  0  0
   38.4220   34.3490   40.3820 C   0  0  0  0  0  0  0  0  0  0  0  0
   39.7680   34.3940   40.1260 N   0  0  0  0  0  0  0  0  0  0  0  0
   40.3470   33.5400   39.2910 C   0  0  0  0  0  0  0  0  0  0  0  0
   39.5980   32.6170   38.6850 N   0  0  0  0  0  0  0  0  0  0  0  0
   36.6520   33.4930   40.0790 H   0  0  0  0  0  0  0  0  0  0  0  0
   38.0970   35.1130   41.0850 H   0  0  0  0  0  0  0  0  0  0  0  0
   41.7940   33.6460   39.1060 C   0  0  0  0  0  0  0  0  0  0  0  0
   42.6380   33.7330   40.2080 C   0  0  0  0  0  0  0  0  0  0  0  0
   44.0000   33.8440   40.0280 C   0  0  0  0  0  0  0  0  0  0  0  0
   44.4010   33.8580   38.7170 C   0  0  0  0  0  0  0  0  0  0  0  0
   43.6010   33.7740   37.5750 C   0  0  0  0  0  0  0  0  0  0  0  0
   42.2750   33.6670   37.8480 N   0  0  0  0  0  0  0  0  0  0  0  0
   42.2540   33.7170   41.2280 H   0  0  0  0  0  0  0  0  0  0  0  0
   44.7330   33.9170   40.8170 H   0  0  0  0  0  0  0  0  0  0  0  0
   45.4770   33.9460   38.5230 H   0  0  0  0  0  0  0  0  0  0  0  0
   44.0130   33.7940   36.5980 H   0  0  0  0  0  0  0  0  0  0  0  0
  1  2  1  0  0  0  0
  1  3  1  0  0  0  0
  4  1  1  0  0  0  0
  5 10  1  0  0  0  0
  5  4  1  0  0  0  0
  5 11  1  0  0  0  0
  6  5  1  0  0  0  0
  7  6  1  0  0  0  0
  7  8  1  0  0  0  0
  8  9  2  0  0  0  0
  9  4  1  0  0  0  0
  9 17  1  0  0  0  0
 12  6  1  0  0  0  0
 13  6  1  0  0  0  0
 14  7  1  0  0  0  0
 15  7  1  0  0  0  0
 16  8  1  0  0  0  0
 17 18  1  0  0  0  0
 18 23  1  0  0  0  0
 18 19  1  0  0  0  0
 19 20  1  0  0  0  0
 20 21  1  0  0  0  0
 22 21  1  0  0  0  0
 23 22  1  0  0  0  0
 24 27  1  0  0  0  0
 24  1  1  0  0  0  0
 25 24  1  0  0  0  0
 26 24  1  0  0  0  0
 27 28  1  0  0  0  0
 28 33  1  0  0  0  0
 28 29  2  0  0  0  0
 29 34  1  0  0  0  0
 30 29  1  0  0  0  0
 31 30  2  0  0  0  0
 32 27  2  0  0  0  0
 32 31  1  0  0  0  0
 35 31  1  0  0  0  0
 35 36  1  0  0  0  0
 36 41  1  0  0  0  0
 37 36  2  0  0  0  0
 37 42  1  0  0  0  0
 38 37  1  0  0  0  0
 39 40  1  0  0  0  0
 39 38  2  0  0  0  0
 40 35  2  0  0  0  0
 43 38  1  0  0  0  0
 44 39  1  0  0  0  0
M  END
>  <minimizedAffinity>
-5.7997098

$$$$

 OpenBabel03252507053D

 44 47  0  0  0  0  0  0  0  0999 V2000
   36.8830   27.7860   41.9670 C   0  0  0  0  0  0  0  0  0  0  0  0
   36.2860   28.4170   41.2250 H   0  0  0  0  0  0  0  0  0  0  0  0
   36.1570   27.6200   42.7920 H   0  0  0  0  0  0  0  0  0  0  0  0
   37.3610   26.6520   41.4510 N   0  0  0  0  0  0  0  0  0  0  0  0
   38.0810   25.6170   42.1110 C   0  0  0  0  0  0  0  0  0  0  0  0
   36.9720   24.5670   42.1800 C   0  0  0  0  0  0  0  0  0  0  0  0
   36.4600   24.1600   40.8840 C   0  0  0  0  0  0  0  0  0  0  0  0
   36.5950   25.0550   39.7560 C   0  0  0  0  0  0  0  0  0  0  0  0
   37.0730   26.4660   40.0060 C   0  0  0  0  0  0  0  0  0  0  0  0
   38.2350   25.9660   43.1720 H   0  0  0  0  0  0  0  0  0  0  0  0
   39.0080   25.2670   41.6920 H   0  0  0  0  0  0  0  0  0  0  0  0
   37.4180   23.7120   42.7430 H   0  0  0  0  0  0  0  0  0  0  0  0
   36.1990   24.9960   42.8750 H   0  0  0  0  0  0  0  0  0  0  0  0
   36.9410   23.1840   40.5810 H   0  0  0  0  0  0  0  0  0  0  0  0
   35.3750   23.8870   40.9800 H   0  0  0  0  0  0  0  0  0  0  0  0
   36.3720   24.8410   38.7490 H   0  0  0  0  0  0  0  0  0  0  0  0
   37.2010   27.6540   38.7590 S   0  0  0  0  0  0  0  0  0  0  0  0
   35.8040   27.9990   37.7360 C   0  0  0  0  0  3  0  0  0  0  0  0
   36.0660   28.1900   36.2740 C   0  0  0  0  0  2  0  0  0  0  0  0
   34.8060   28.7530   35.6390 C   0  0  0  0  0  2  0  0  0  0  0  0
   33.5470   28.2970   36.3470 C   0  0  0  0  0  2  0  0  0  0  0  0
   33.5040   28.7990   37.7770 C   0  0  0  0  0  2  0  0  0  0  0  0
   34.9350   29.1550   38.2040 C   0  0  0  0  0  2  0  0  0  0  0  0
   37.9440   28.7060   42.4580 C   0  0  0  0  0  0  0  0  0  0  0  0
   37.7640   28.8950   43.5560 H   0  0  0  0  0  0  0  0  0  0  0  0
   38.9520   28.2720   42.3270 H   0  0  0  0  0  0  0  0  0  0  0  0
   37.8050   29.9920   41.7560 C   0  0  0  0  0  0  0  0  0  0  0  0
   36.5900   30.3800   41.2440 C   0  0  0  0  0  0  0  0  0  0  0  0
   36.5090   31.5920   40.5780 C   0  0  0  0  0  0  0  0  0  0  0  0
   37.6490   32.3450   40.4650 N   0  0  0  0  0  0  0  0  0  0  0  0
   38.8050   31.9370   40.9750 C   0  0  0  0  0  0  0  0  0  0  0  0
   38.8560   30.7650   41.6100 N   0  0  0  0  0  0  0  0  0  0  0  0
   35.6020   29.9520   41.2420 H   0  0  0  0  0  0  0  0  0  0  0  0
   35.6440   32.0590   40.1090 H   0  0  0  0  0  0  0  0  0  0  0  0
   39.9600   32.8230   40.8320 C   0  0  0  0  0  0  0  0  0  0  0  0
   39.7930   34.1280   40.3790 C   0  0  0  0  0  0  0  0  0  0  0  0
   40.8860   34.9540   40.2360 C   0  0  0  0  0  0  0  0  0  0  0  0
   42.0840   34.3770   40.5700 C   0  0  0  0  0  0  0  0  0  0  0  0
   42.3100   33.0770   41.0280 C   0  0  0  0  0  0  0  0  0  0  0  0
   41.1780   32.3360   41.1390 N   0  0  0  0  0  0  0  0  0  0  0  0
   38.8100   34.5260   40.1290 H   0  0  0  0  0  0  0  0  0  0  0  0
   40.8580   35.9780   39.8930 H   0  0  0  0  0  0  0  0  0  0  0  0
   42.9840   34.9960   40.4720 H   0  0  0  0  0  0  0  0  0  0  0  0
   43.2840   32.7250   41.2610 H   0  0  0  0  0  0  0  0  0  0  0  0
  1 24  1  0  0  0  0
  1  3  1  0  0  0  0
  2  1  1  0  0  0  0
  4  1  1  0  0  0  0
  4  5  1  0  0  0  0
  5  6  1  0  0  0  0
  5 10  1  0  0  0  0
  6 12  1  0  0  0  0
  6 13  1  0  0  0  0
  7 15  1  0  0  0  0
  7  6  1  0  0  0  0
  8  9  2  0  0  0  0
  8  7  1  0  0  0  0
  9  4  1  0  0  0  0
 11  5  1  0  0  0  0
 14  7  1  0  0  0  0
 16  8  1  0  0  0  0
 17  9  1  0  0  0  0
 18 23  1  0  0  0  0
 18 17  1  0  0  0  0
 19 18  1  0  0  0  0
 20 19  1  0  0  0  0
 20 21  1  0  0  0  0
 21 22  1  0  0  0  0
 22 23  1  0  0  0  0
 24 25  1  0  0  0  0
 26 24  1  0  0  0  0
 27 24  1  0  0  0  0
 28 27  2  0  0  0  0
 29 28  1  0  0  0  0
 30 29  2  0  0  0  0
 30 31  1  0  0  0  0
 31 32  2  0  0  0  0
 32 27  1  0  0  0  0
 33 28  1  0  0  0  0
 34 29  1  0  0  0  0
 35 31  1  0  0  0  0
 35 40  1  0  0  0  0
 36 35  2  0  0  0  0
 37 36  1  0  0  0  0
 37 38  2  0  0  0  0
 38 39  1  0  0  0  0
 39 40  2  0  0  0  0
 39 44  1  0  0  0  0
 41 36  1  0  0  0  0
 42 37  1  0  0  0  0
 43 38  1  0  0  0  0
M  END
>  <minimizedAffinity>
-5.78414631

$$$$

 OpenBabel03252507053D

 44 47  0  0  0  0  0  0  0  0999 V2000
   37.4770   31.1920   40.7420 C   0  0  0  0  0  0  0  0  0  0  0  0
   36.7280   31.5990   41.5020 H   0  0  0  0  0  0  0  0  0  0  0  0
   36.9120   30.3680   40.2530 H   0  0  0  0  0  0  0  0  0  0  0  0
   37.9240   32.1060   39.8800 N   0  0  0  0  0  0  0  0  0  0  0  0
   37.5700   33.4820   39.7900 C   0  0  0  0  0  0  0  0  0  0  0  0
   38.8450   34.0910   40.3720 C   0  0  0  0  0  0  0  0  0  0  0  0
   40.0490   33.7690   39.6270 C   0  0  0  0  0  0  0  0  0  0  0  0
   40.0770   32.5780   38.8060 C   0  0  0  0  0  0  0  0  0  0  0  0
   38.9320   31.5990   38.9140 C   0  0  0  0  0  0  0  0  0  0  0  0
   36.7700   33.6530   40.5650 H   0  0  0  0  0  0  0  0  0  0  0  0
   37.2670   33.8890   38.8400 H   0  0  0  0  0  0  0  0  0  0  0  0
   38.6520   35.1900   40.4030 H   0  0  0  0  0  0  0  0  0  0  0  0
   38.8620   33.7710   41.4500 H   0  0  0  0  0  0  0  0  0  0  0  0
   40.3130   34.6340   38.9500 H   0  0  0  0  0  0  0  0  0  0  0  0
   40.9230   33.7230   40.3300 H   0  0  0  0  0  0  0  0  0  0  0  0
   40.8360   32.2910   38.1350 H   0  0  0  0  0  0  0  0  0  0  0  0
   38.8840   30.1040   38.0490 S   0  0  0  0  0  0  0  0  0  0  0  0
   37.4800   29.7210   37.0500 C   0  0  0  0  0  3  0  0  0  0  0  0
   36.1470   29.7040   37.7330 C   0  0  0  0  0  2  0  0  0  0  0  0
   35.1390   29.0800   36.7840 C   0  0  0  0  0  2  0  0  0  0  0  0
   35.4800   29.3310   35.3290 C   0  0  0  0  0  2  0  0  0  0  0  0
   36.7990   28.6870   34.9520 C   0  0  0  0  0  2  0  0  0  0  0  0
   37.5990   28.4400   36.2400 C   0  0  0  0  0  2  0  0  0  0  0  0
   38.5510   30.5880   41.5760 C   0  0  0  0  0  0  0  0  0  0  0  0
   39.4480   30.4050   40.9140 H   0  0  0  0  0  0  0  0  0  0  0  0
   38.8460   31.2570   42.4060 H   0  0  0  0  0  0  0  0  0  0  0  0
   38.0820   29.2820   42.0630 C   0  0  0  0  0  0  0  0  0  0  0  0
   38.0220   29.0200   43.4110 C   0  0  0  0  0  0  0  0  0  0  0  0
   37.5880   27.7710   43.8250 C   0  0  0  0  0  0  0  0  0  0  0  0
   37.2360   26.8590   42.8640 N   0  0  0  0  0  0  0  0  0  0  0  0
   37.3060   27.1490   41.5700 C   0  0  0  0  0  0  0  0  0  0  0  0
   37.7290   28.3580   41.1990 N   0  0  0  0  0  0  0  0  0  0  0  0
   38.2310   29.5920   44.3000 H   0  0  0  0  0  0  0  0  0  0  0  0
   37.4780   27.3850   44.8360 H   0  0  0  0  0  0  0  0  0  0  0  0
   36.8800   26.1220   40.6200 C   0  0  0  0  0  0  0  0  0  0  0  0
   36.5660   26.4660   39.3080 C   0  0  0  0  0  0  0  0  0  0  0  0
   36.1550   25.4960   38.4200 C   0  0  0  0  0  0  0  0  0  0  0  0
   36.0950   24.2310   38.9460 C   0  0  0  0  0  0  0  0  0  0  0  0
   36.3980   23.8290   40.2490 C   0  0  0  0  0  0  0  0  0  0  0  0
   36.7940   24.8500   41.0530 N   0  0  0  0  0  0  0  0  0  0  0  0
   36.6340   27.4940   38.9530 H   0  0  0  0  0  0  0  0  0  0  0  0
   35.8900   25.6630   37.3870 H   0  0  0  0  0  0  0  0  0  0  0  0
   35.7720   23.4240   38.2760 H   0  0  0  0  0  0  0  0  0  0  0  0
   36.3180   22.8180   40.5580 H   0  0  0  0  0  0  0  0  0  0  0  0
  1  2  1  0  0  0  0
  1 24  1  0  0  0  0
  3  1  1  0  0  0  0
  4  1  1  0  0  0  0
  5  4  1  0  0  0  0
  5  6  1  0  0  0  0
  5 10  1  0  0  0  0
  6 12  1  0  0  0  0
  6 13  1  0  0  0  0
  7 15  1  0  0  0  0
  7  6  1  0  0  0  0
  8  9  2  0  0  0  0
  8  7  1  0  0  0  0
  9  4  1  0  0  0  0
 11  5  1  0  0  0  0
 14  7  1  0  0  0  0
 16  8  1  0  0  0  0
 17  9  1  0  0  0  0
 18 19  1  0  0  0  0
 18 17  1  0  0  0  0
 20 19  1  0  0  0  0
 21 20  1  0  0  0  0
 22 21  1  0  0  0  0
 22 23  1  0  0  0  0
 23 18  1  0  0  0  0
 24 27  1  0  0  0  0
 24 26  1  0  0  0  0
 25 24  1  0  0  0  0
 27 28  1  0  0  0  0
 28 29  2  0  0  0  0
 28 33  1  0  0  0  0
 29 34  1  0  0  0  0
 30 29  1  0  0  0  0
 31 30  2  0  0  0  0
 32 31  1  0  0  0  0
 32 27  2  0  0  0  0
 35 40  1  0  0  0  0
 35 31  1  0  0  0  0
 36 35  2  0  0  0  0
 37 38  2  0  0  0  0
 37 36  1  0  0  0  0
 38 39  1  0  0  0  0
 39 44  1  0  0  0  0
 39 40  2  0  0  0  0
 41 36  1  0  0  0  0
 42 37  1  0  0  0  0
 43 38  1  0  0  0  0
M  END
>  <minimizedAffinity>
-5.7713728

$$$$

 OpenBabel03252507053D

 44 47  0  0  0  0  0  0  0  0999 V2000
   40.1430   32.2750   41.2420 C   0  0  0  0  0  0  0  0  0  0  0  0
   39.8280   32.8860   42.1550 H   0  0  0  0  0  0  0  0  0  0  0  0
   39.4610   31.3980   41.2850 H   0  0  0  0  0  0  0  0  0  0  0  0
   40.0680   32.9440   40.0910 N   0  0  0  0  0  0  0  0  0  0  0  0
   39.8830   34.3410   39.8930 C   0  0  0  0  0  0  0  0  0  0  0  0
   41.3050   34.7080   39.4700 C   0  0  0  0  0  0  0  0  0  0  0  0
   41.7630   34.0250   38.2740 C   0  0  0  0  0  0  0  0  0  0  0  0
   41.1560   32.7650   37.9020 C   0  0  0  0  0  0  0  0  0  0  0  0
   40.2170   32.0990   38.8790 C   0  0  0  0  0  0  0  0  0  0  0  0
   39.7450   34.7900   40.9170 H   0  0  0  0  0  0  0  0  0  0  0  0
   39.1110   34.6840   39.2250 H   0  0  0  0  0  0  0  0  0  0  0  0
   41.2910   35.8170   39.3400 H   0  0  0  0  0  0  0  0  0  0  0  0
   41.9410   34.5330   40.3810 H   0  0  0  0  0  0  0  0  0  0  0  0
   41.6510   34.7110   37.3840 H   0  0  0  0  0  0  0  0  0  0  0  0
   42.8730   33.8680   38.3340 H   0  0  0  0  0  0  0  0  0  0  0  0
   41.3130   32.2270   37.0100 H   0  0  0  0  0  0  0  0  0  0  0  0
   39.4910   30.5580   38.5900 S   0  0  0  0  0  0  0  0  0  0  0  0
   37.9730   30.1460   39.3910 C   0  0  0  0  0  3  0  0  0  0  0  0
   37.2430   28.9410   38.8810 C   0  0  0  0  0  2  0  0  0  0  0  0
   35.8550   28.9360   39.4960 C   0  0  0  0  0  2  0  0  0  0  0  0
   35.8250   29.5790   40.8670 C   0  0  0  0  0  2  0  0  0  0  0  0
   36.1990   31.0460   40.7970 C   0  0  0  0  0  2  0  0  0  0  0  0
   36.9700   31.2840   39.4900 C   0  0  0  0  0  2  0  0  0  0  0  0
   41.5180   31.8120   41.5700 C   0  0  0  0  0  0  0  0  0  0  0  0
   42.0860   31.6850   40.6030 H   0  0  0  0  0  0  0  0  0  0  0  0
   42.0510   32.5410   42.2090 H   0  0  0  0  0  0  0  0  0  0  0  0
   41.4240   30.4900   42.2090 C   0  0  0  0  0  0  0  0  0  0  0  0
   42.5220   29.9260   42.8130 C   0  0  0  0  0  0  0  0  0  0  0  0
   42.3910   28.6730   43.3890 C   0  0  0  0  0  0  0  0  0  0  0  0
   41.1660   28.0600   43.3280 N   0  0  0  0  0  0  0  0  0  0  0  0
   40.1270   28.6370   42.7370 C   0  0  0  0  0  0  0  0  0  0  0  0
   40.2810   29.8430   42.1890 N   0  0  0  0  0  0  0  0  0  0  0  0
   43.5380   30.2450   42.9770 H   0  0  0  0  0  0  0  0  0  0  0  0
   43.1400   28.0740   43.9030 H   0  0  0  0  0  0  0  0  0  0  0  0
   38.8530   27.9190   42.7500 C   0  0  0  0  0  0  0  0  0  0  0  0
   37.9000   28.1960   43.7260 C   0  0  0  0  0  0  0  0  0  0  0  0
   36.7060   27.5080   43.7390 C   0  0  0  0  0  0  0  0  0  0  0  0
   36.5740   26.5770   42.7420 C   0  0  0  0  0  0  0  0  0  0  0  0
   37.4940   26.2580   41.7400 C   0  0  0  0  0  0  0  0  0  0  0  0
   38.6390   26.9840   41.8040 N   0  0  0  0  0  0  0  0  0  0  0  0
   38.0680   28.9510   44.4930 H   0  0  0  0  0  0  0  0  0  0  0  0
   35.9080   27.6510   44.4530 H   0  0  0  0  0  0  0  0  0  0  0  0
   35.6400   26.0030   42.7120 H   0  0  0  0  0  0  0  0  0  0  0  0
   37.2940   25.5150   41.0100 H   0  0  0  0  0  0  0  0  0  0  0  0
  1  3  1  0  0  0  0
  1 24  1  0  0  0  0
  1  2  1  0  0  0  0
  4  1  1  0  0  0  0
  5  4  1  0  0  0  0
  5 10  1  0  0  0  0
  6  5  1  0  0  0  0
  6 13  1  0  0  0  0
  7 15  1  0  0  0  0
  7  6  1  0  0  0  0
  8  7  1  0  0  0  0
  8  9  2  0  0  0  0
  9  4  1  0  0  0  0
 11  5  1  0  0  0  0
 12  6  1  0  0  0  0
 14  7  1  0  0  0  0
 16  8  1  0  0  0  0
 17  9  1  0  0  0  0
 17 18  1  0  0  0  0
 18 23  1  0  0  0  0
 19 18  1  0  0  0  0
 19 20  1  0  0  0  0
 20 21  1  0  0  0  0
 22 21  1  0  0  0  0
 23 22  1  0  0  0  0
 24 27  1  0  0  0  0
 24 26  1  0  0  0  0
 25 24  1  0  0  0  0
 27 28  1  0  0  0  0
 28 33  1  0  0  0  0
 28 29  2  0  0  0  0
 29 34  1  0  0  0  0
 30 29  1  0  0  0  0
 31 35  1  0  0  0  0
 31 30  2  0  0  0  0
 32 27  2  0  0  0  0
 32 31  1  0  0  0  0
 35 36  1  0  0  0  0
 36 37  2  0  0  0  0
 36 41  1  0  0  0  0
 37 42  1  0  0  0  0
 38 37  1  0  0  0  0
 39 40  1  0  0  0  0
 39 38  2  0  0  0  0
 40 35  2  0  0  0  0
 43 38  1  0  0  0  0
 44 39  1  0  0  0  0
M  END
>  <minimizedAffinity>
-5.72085857

$$$$
