
 OpenBabel03242519413D

 26 28  0  0  1  0  0  0  0  0999 V2000
   48.3240   33.0170   41.7000 O   0  0  0  0  0  0  0  0  0  0  0  0
   47.3620   34.0850   41.2340 P   0  0  2  0  0  0  0  0  0  0  0  0
   45.7930   33.7670   41.8770 O   0  0  0  0  0  0  0  0  0  0  0  0
   44.4130   35.8610   44.4780 C   0  0  0  0  0  0  0  0  0  0  0  0
   44.7680   35.3870   43.1990 C   0  0  0  0  0  0  0  0  0  0  0  0
   45.4700   34.1820   43.1260 C   0  0  0  0  0  0  0  0  0  0  0  0
   45.7800   33.5190   44.2590 N   0  0  0  0  0  0  0  0  0  0  0  0
   45.4270   33.9970   45.4740 C   0  0  0  0  0  0  0  0  0  0  0  0
   44.7490   35.1590   45.5920 N   0  0  0  0  0  0  0  0  0  0  0  0
   43.8770   36.7810   44.5500 H   0  0  0  0  0  0  0  0  0  0  0  0
   44.4950   35.9540   42.3330 H   0  0  0  0  0  0  0  0  0  0  0  0
   45.7110   33.4110   46.3380 H   0  0  0  0  0  0  0  0  0  0  0  0
   47.1400   34.0920   39.5910 O   0  0  0  0  0  0  0  0  0  0  0  0
   47.9140   33.6620   38.5870 C   0  0  2  0  0  0  0  0  0  0  0  0
   48.0140   34.4910   37.6090 O   0  0  0  0  0  0  0  0  0  0  0  0
   48.7500   33.0520   37.6420 C   0  0  0  0  0  0  0  0  0  0  0  0
   48.0310   32.5570   36.4070 C   0  0  0  0  0  0  0  0  0  0  0  0
   47.4580   31.1720   36.6100 C   0  0  0  0  0  0  0  0  0  0  0  0
   48.6430   30.2380   36.5310 C   0  0  0  0  0  0  0  0  0  0  0  0
   49.7210   30.6970   37.4160 C   0  0  0  0  0  0  0  0  0  0  0  0
   49.5870   31.8830   38.2350 C   0  0  0  0  0  0  0  0  0  0  0  0
   47.8140   35.5500   41.8490 O   0  0  0  0  0  0  0  0  0  0  0  0
   49.0910   35.8870   41.4390 C   0  0  0  0  0  0  0  0  0  0  0  0
   49.4950   37.1210   41.9410 F   0  0  0  0  0  0  0  0  0  0  0  0
   49.9610   34.8950   41.7570 F   0  0  0  0  0  0  0  0  0  0  0  0
   49.0430   36.0260   40.0600 F   0  0  0  0  0  0  0  0  0  0  0  0
  2  1  2  1  0  0  0
  2 22  1  0  0  0  0
  2  3  1  0  0  0  0
  3  6  1  0  0  0  0
  4 10  1  0  0  0  0
  4  9  1  0  0  0  0
  5  4  2  0  0  0  0
  6  5  1  0  0  0  0
  6  7  2  0  0  0  0
  7  8  1  0  0  0  0
  8  9  2  0  0  0  0
  8 12  1  0  0  0  0
 11  5  1  0  0  0  0
 13  2  1  0  0  0  0
 14 13  1  6  0  0  0
 15 16  1  0  0  0  0
 15 14  1  0  0  0  0
 16 21  1  0  0  0  0
 16 14  1  0  0  0  0
 17 18  1  0  0  0  0
 17 16  1  0  0  0  0
 19 18  1  0  0  0  0
 19 20  1  0  0  0  0
 20 21  1  0  0  0  0
 23 25  1  0  0  0  0
 23 22  1  0  0  0  0
 23 24  1  0  0  0  0
 26 23  1  0  0  0  0
M  END
>  <minimizedAffinity>
-5.25932884

>  <minimizedRMSD>
2.28815794

$$$$
