
 OpenBabel03252504253D

 18 19  0  0  0  0  0  0  0  0999 V2000
   35.8270   28.9020   41.0000 C   0  0  0  0  0  0  0  0  0  0  0  0
   36.8740   28.9150   41.9390 C   0  0  0  0  0  0  0  0  0  0  0  0
   37.7480   29.9920   41.9190 C   0  0  0  0  0  0  0  0  0  0  0  0
   37.5490   30.9670   41.0060 N   0  0  0  0  0  0  0  0  0  0  0  0
   36.5350   30.9270   40.1180 C   0  0  0  0  0  0  0  0  0  0  0  0
   35.6620   29.8940   40.1050 N   0  0  0  0  0  0  0  0  0  0  0  0
   35.1150   28.0900   40.9650 H   0  0  0  0  0  0  0  0  0  0  0  0
   38.5380   29.9690   42.6530 H   0  0  0  0  0  0  0  0  0  0  0  0
   36.5420   31.8000   39.4680 H   0  0  0  0  0  0  0  0  0  0  0  0
   36.9230   27.7580   42.8530 C   0  0  0  0  0  0  0  0  0  0  0  0
   35.9340   27.2310   42.8190 H   0  0  0  0  0  0  0  0  0  0  0  0
   36.9940   28.1290   43.9050 H   0  0  0  0  0  0  0  0  0  0  0  0
   38.0320   26.7800   42.5390 C   0  0  0  0  0  3  0  0  0  0  0  0
   39.0240   26.7420   43.6790 C   0  0  0  0  0  2  0  0  0  0  0  0
   40.1620   25.8670   43.1850 C   0  0  0  0  0  2  0  0  0  0  0  0
   39.6420   24.4860   43.0130 C   0  0  0  0  0  2  0  0  0  0  0  0
   38.4270   24.3210   42.1820 C   0  0  0  0  0  2  0  0  0  0  0  0
   37.4380   25.4400   42.2430 C   0  0  0  0  0  2  0  0  0  0  0  0
  1  2  1  0  0  0  0
  2 10  1  0  0  0  0
  3  2  2  0  0  0  0
  3  8  1  0  0  0  0
  4  3  1  0  0  0  0
  5  4  2  0  0  0  0
  6  5  1  0  0  0  0
  6  1  2  0  0  0  0
  7  1  1  0  0  0  0
  9  5  1  0  0  0  0
 10 12  1  0  0  0  0
 11 10  1  0  0  0  0
 13 10  1  0  0  0  0
 13 14  1  0  0  0  0
 15 14  1  0  0  0  0
 16 15  1  0  0  0  0
 17 18  1  0  0  0  0
 17 16  1  0  0  0  0
 18 13  1  0  0  0  0
M  END
>  <minimizedAffinity>
-4.36179256

$$$$

 OpenBabel03252504253D

 18 19  0  0  0  0  0  0  0  0999 V2000
   38.9760   30.3690   42.1730 C   0  0  0  0  0  0  0  0  0  0  0  0
   37.7890   29.6390   42.3600 C   0  0  0  0  0  0  0  0  0  0  0  0
   36.6630   30.0400   41.6560 C   0  0  0  0  0  0  0  0  0  0  0  0
   36.7650   31.1050   40.8310 N   0  0  0  0  0  0  0  0  0  0  0  0
   37.9170   31.7860   40.6710 C   0  0  0  0  0  0  0  0  0  0  0  0
   39.0360   31.4260   41.3410 N   0  0  0  0  0  0  0  0  0  0  0  0
   39.8840   30.1070   42.6940 H   0  0  0  0  0  0  0  0  0  0  0  0
   35.7710   29.4570   41.8230 H   0  0  0  0  0  0  0  0  0  0  0  0
   37.7980   32.6080   39.9690 H   0  0  0  0  0  0  0  0  0  0  0  0
   37.8800   28.5080   43.3040 C   0  0  0  0  0  0  0  0  0  0  0  0
   36.8800   28.3610   43.7860 H   0  0  0  0  0  0  0  0  0  0  0  0
   38.5480   28.7970   44.1530 H   0  0  0  0  0  0  0  0  0  0  0  0
   38.3330   27.2160   42.6640 C   0  0  0  0  0  3  0  0  0  0  0  0
   39.3720   26.5460   43.5330 C   0  0  0  0  0  2  0  0  0  0  0  0
   39.8670   25.3630   42.7200 C   0  0  0  0  0  2  0  0  0  0  0  0
   38.7430   24.4040   42.5670 C   0  0  0  0  0  2  0  0  0  0  0  0
   37.4680   24.9380   42.0340 C   0  0  0  0  0  2  0  0  0  0  0  0
   37.1420   26.3480   42.4120 C   0  0  0  0  0  2  0  0  0  0  0  0
  1  2  1  0  0  0  0
  1  7  1  0  0  0  0
  2 10  1  0  0  0  0
  3  8  1  0  0  0  0
  3  2  2  0  0  0  0
  4  3  1  0  0  0  0
  5  4  2  0  0  0  0
  5  6  1  0  0  0  0
  6  1  2  0  0  0  0
  9  5  1  0  0  0  0
 10 11  1  0  0  0  0
 10 12  1  0  0  0  0
 13 10  1  0  0  0  0
 13 14  1  0  0  0  0
 15 14  1  0  0  0  0
 16 15  1  0  0  0  0
 17 18  1  0  0  0  0
 17 16  1  0  0  0  0
 18 13  1  0  0  0  0
M  END
>  <minimizedAffinity>
-4.28509521

$$$$

 OpenBabel03252504253D

 18 19  0  0  0  0  0  0  0  0999 V2000
   38.7290   26.7240   43.2200 C   0  0  0  0  0  0  0  0  0  0  0  0
   37.4600   26.5060   42.6530 C   0  0  0  0  0  0  0  0  0  0  0  0
   37.1740   25.2370   42.1740 C   0  0  0  0  0  0  0  0  0  0  0  0
   38.1210   24.2800   42.2770 N   0  0  0  0  0  0  0  0  0  0  0  0
   39.3300   24.5170   42.8270 C   0  0  0  0  0  0  0  0  0  0  0  0
   39.6470   25.7430   43.3050 N   0  0  0  0  0  0  0  0  0  0  0  0
   39.0110   27.6910   43.6090 H   0  0  0  0  0  0  0  0  0  0  0  0
   36.1930   25.1060   41.7460 H   0  0  0  0  0  0  0  0  0  0  0  0
   39.9520   23.6260   42.8190 H   0  0  0  0  0  0  0  0  0  0  0  0
   36.5640   27.6790   42.6310 C   0  0  0  0  0  0  0  0  0  0  0  0
   36.6880   28.2430   43.5920 H   0  0  0  0  0  0  0  0  0  0  0  0
   35.5040   27.3260   42.6630 H   0  0  0  0  0  0  0  0  0  0  0  0
   36.8000   28.6040   41.4610 C   0  0  0  0  0  3  0  0  0  0  0  0
   35.4960   28.8810   40.7500 C   0  0  0  0  0  2  0  0  0  0  0  0
   35.8780   29.6730   39.5120 C   0  0  0  0  0  2  0  0  0  0  0  0
   36.4220   30.9840   39.9520 C   0  0  0  0  0  2  0  0  0  0  0  0
   37.5200   30.9600   40.9460 C   0  0  0  0  0  2  0  0  0  0  0  0
   37.4710   29.8500   41.9460 C   0  0  0  0  0  2  0  0  0  0  0  0
  1  6  1  0  0  0  0
  1  7  1  0  0  0  0
  2  1  2  0  0  0  0
  3  4  2  0  0  0  0
  3  2  1  0  0  0  0
  4  5  1  0  0  0  0
  5  6  2  0  0  0  0
  8  3  1  0  0  0  0
  9  5  1  0  0  0  0
 10  2  1  0  0  0  0
 10 12  1  0  0  0  0
 10 11  1  0  0  0  0
 13 18  1  0  0  0  0
 13 10  1  0  0  0  0
 14 13  1  0  0  0  0
 15 16  1  0  0  0  0
 15 14  1  0  0  0  0
 16 17  1  0  0  0  0
 17 18  1  0  0  0  0
M  END
>  <minimizedAffinity>
-4.24012518

$$$$

 OpenBabel03252504253D

 18 19  0  0  0  0  0  0  0  0999 V2000
   36.8930   29.8860   38.7530 C   0  0  0  0  0  0  0  0  0  0  0  0
   36.7360   30.7310   39.8670 C   0  0  0  0  0  0  0  0  0  0  0  0
   37.0370   32.0750   39.7080 C   0  0  0  0  0  0  0  0  0  0  0  0
   37.4610   32.5020   38.4990 N   0  0  0  0  0  0  0  0  0  0  0  0
   37.6010   31.6690   37.4470 C   0  0  0  0  0  0  0  0  0  0  0  0
   37.3190   30.3510   37.5630 N   0  0  0  0  0  0  0  0  0  0  0  0
   36.6760   28.8300   38.8140 H   0  0  0  0  0  0  0  0  0  0  0  0
   36.9050   32.6930   40.5820 H   0  0  0  0  0  0  0  0  0  0  0  0
   37.9520   32.1990   36.5650 H   0  0  0  0  0  0  0  0  0  0  0  0
   36.2620   30.0740   41.1000 C   0  0  0  0  0  0  0  0  0  0  0  0
   35.2500   29.6330   40.9060 H   0  0  0  0  0  0  0  0  0  0  0  0
   36.0690   30.8550   41.8760 H   0  0  0  0  0  0  0  0  0  0  0  0
   37.1950   29.0040   41.6180 C   0  0  0  0  0  3  0  0  0  0  0  0
   38.1560   29.5990   42.6210 C   0  0  0  0  0  2  0  0  0  0  0  0
   39.1370   28.4830   42.9400 C   0  0  0  0  0  2  0  0  0  0  0  0
   38.3950   27.4010   43.6360 C   0  0  0  0  0  2  0  0  0  0  0  0
   37.1770   26.8830   42.9720 C   0  0  0  0  0  2  0  0  0  0  0  0
   36.3880   27.8800   42.1860 C   0  0  0  0  0  2  0  0  0  0  0  0
  1  7  1  0  0  0  0
  1  2  1  0  0  0  0
  2 10  1  0  0  0  0
  3  2  2  0  0  0  0
  3  8  1  0  0  0  0
  4  3  1  0  0  0  0
  5  6  1  0  0  0  0
  5  4  2  0  0  0  0
  6  1  2  0  0  0  0
  9  5  1  0  0  0  0
 10 13  1  0  0  0  0
 10 12  1  0  0  0  0
 11 10  1  0  0  0  0
 13 18  1  0  0  0  0
 13 14  1  0  0  0  0
 14 15  1  0  0  0  0
 15 16  1  0  0  0  0
 17 16  1  0  0  0  0
 18 17  1  0  0  0  0
M  END
>  <minimizedAffinity>
-4.19631243

$$$$

 OpenBabel03252504253D

 18 19  0  0  0  0  0  0  0  0999 V2000
   37.5640   31.3380   39.9630 C   0  0  0  0  0  0  0  0  0  0  0  0
   38.6420   31.4310   40.8610 C   0  0  0  0  0  0  0  0  0  0  0  0
   39.1520   32.6920   41.1330 C   0  0  0  0  0  0  0  0  0  0  0  0
   38.5900   33.7590   40.5260 N   0  0  0  0  0  0  0  0  0  0  0  0
   37.5560   33.6390   39.6680 C   0  0  0  0  0  0  0  0  0  0  0  0
   37.0320   32.4270   39.3770 N   0  0  0  0  0  0  0  0  0  0  0  0
   37.1250   30.3840   39.7100 H   0  0  0  0  0  0  0  0  0  0  0  0
   39.9770   32.7260   41.8270 H   0  0  0  0  0  0  0  0  0  0  0  0
   37.2440   34.6080   39.2840 H   0  0  0  0  0  0  0  0  0  0  0  0
   39.1160   30.1500   41.4200 C   0  0  0  0  0  0  0  0  0  0  0  0
   39.7120   30.3610   42.3450 H   0  0  0  0  0  0  0  0  0  0  0  0
   39.8600   29.7000   40.7180 H   0  0  0  0  0  0  0  0  0  0  0  0
   38.0050   29.1770   41.7400 C   0  0  0  0  0  3  0  0  0  0  0  0
   38.2090   27.8900   40.9740 C   0  0  0  0  0  2  0  0  0  0  0  0
   36.9610   27.0670   41.2420 C   0  0  0  0  0  2  0  0  0  0  0  0
   36.9390   26.7170   42.6850 C   0  0  0  0  0  2  0  0  0  0  0  0
   37.0760   27.8300   43.6520 C   0  0  0  0  0  2  0  0  0  0  0  0
   37.9450   28.9670   43.2200 C   0  0  0  0  0  2  0  0  0  0  0  0
  1  2  1  0  0  0  0
  2  3  2  0  0  0  0
  2 10  1  0  0  0  0
  3  8  1  0  0  0  0
  4  3  1  0  0  0  0
  5  4  2  0  0  0  0
  6  5  1  0  0  0  0
  6  1  2  0  0  0  0
  7  1  1  0  0  0  0
  9  5  1  0  0  0  0
 10 13  1  0  0  0  0
 10 11  1  0  0  0  0
 12 10  1  0  0  0  0
 13 18  1  0  0  0  0
 14 15  1  0  0  0  0
 14 13  1  0  0  0  0
 15 16  1  0  0  0  0
 16 17  1  0  0  0  0
 18 17  1  0  0  0  0
M  END
>  <minimizedAffinity>
-4.13792849

$$$$

 OpenBabel03252504253D

 18 19  0  0  0  0  0  0  0  0999 V2000
   36.8500   26.9340   40.2330 C   0  0  0  0  0  0  0  0  0  0  0  0
   36.4110   27.9600   41.0890 C   0  0  0  0  0  0  0  0  0  0  0  0
   36.6440   27.8130   42.4490 C   0  0  0  0  0  0  0  0  0  0  0  0
   37.2780   26.7000   42.8780 N   0  0  0  0  0  0  0  0  0  0  0  0
   37.6890   25.7330   42.0330 C   0  0  0  0  0  0  0  0  0  0  0  0
   37.4790   25.8390   40.7000 N   0  0  0  0  0  0  0  0  0  0  0  0
   36.6970   26.9900   39.1660 H   0  0  0  0  0  0  0  0  0  0  0  0
   36.2950   28.6180   43.0750 H   0  0  0  0  0  0  0  0  0  0  0  0
   38.1770   24.9210   42.5660 H   0  0  0  0  0  0  0  0  0  0  0  0
   35.7380   29.0950   40.4290 C   0  0  0  0  0  0  0  0  0  0  0  0
   35.0550   29.5870   41.1680 H   0  0  0  0  0  0  0  0  0  0  0  0
   35.0450   28.7000   39.6450 H   0  0  0  0  0  0  0  0  0  0  0  0
   36.6920   30.1170   39.8540 C   0  0  0  0  0  3  0  0  0  0  0  0
   36.3510   30.3840   38.4060 C   0  0  0  0  0  2  0  0  0  0  0  0
   37.4620   31.2850   37.8970 C   0  0  0  0  0  2  0  0  0  0  0  0
   37.3690   32.5830   38.6130 C   0  0  0  0  0  2  0  0  0  0  0  0
   37.3390   32.5370   40.0930 C   0  0  0  0  0  2  0  0  0  0  0  0
   36.6530   31.3530   40.6960 C   0  0  0  0  0  2  0  0  0  0  0  0
  1  6  2  0  0  0  0
  1  2  1  0  0  0  0
  2  3  2  0  0  0  0
  3  4  1  0  0  0  0
  3  8  1  0  0  0  0
  5  9  1  0  0  0  0
  5  4  2  0  0  0  0
  6  5  1  0  0  0  0
  7  1  1  0  0  0  0
 10  2  1  0  0  0  0
 10 11  1  0  0  0  0
 12 10  1  0  0  0  0
 13 10  1  0  0  0  0
 13 18  1  0  0  0  0
 14 13  1  0  0  0  0
 15 14  1  0  0  0  0
 15 16  1  0  0  0  0
 16 17  1  0  0  0  0
 17 18  1  0  0  0  0
M  END
>  <minimizedAffinity>
-4.10338831

$$$$

 OpenBabel03252504253D

 18 19  0  0  0  0  0  0  0  0999 V2000
   36.7070   28.0370   42.9010 C   0  0  0  0  0  0  0  0  0  0  0  0
   36.7310   28.1000   41.4970 C   0  0  0  0  0  0  0  0  0  0  0  0
   37.8200   27.5440   40.8420 C   0  0  0  0  0  0  0  0  0  0  0  0
   38.7950   26.9750   41.5820 N   0  0  0  0  0  0  0  0  0  0  0  0
   38.7450   26.9290   42.9290 C   0  0  0  0  0  0  0  0  0  0  0  0
   37.7000   27.4600   43.6040 N   0  0  0  0  0  0  0  0  0  0  0  0
   35.8870   28.4530   43.4680 H   0  0  0  0  0  0  0  0  0  0  0  0
   37.8040   27.6100   39.7650 H   0  0  0  0  0  0  0  0  0  0  0  0
   39.6200   26.4320   43.3420 H   0  0  0  0  0  0  0  0  0  0  0  0
   35.5710   28.7630   40.8700 C   0  0  0  0  0  0  0  0  0  0  0  0
   34.7990   28.9580   41.6600 H   0  0  0  0  0  0  0  0  0  0  0  0
   35.0700   28.0420   40.1780 H   0  0  0  0  0  0  0  0  0  0  0  0
   35.9160   30.0540   40.1640 C   0  0  0  0  0  3  0  0  0  0  0  0
   36.9320   30.8280   40.9710 C   0  0  0  0  0  2  0  0  0  0  0  0
   37.0730   32.1610   40.2570 C   0  0  0  0  0  2  0  0  0  0  0  0
   37.6760   31.9100   38.9220 C   0  0  0  0  0  2  0  0  0  0  0  0
   37.0170   30.8980   38.0640 C   0  0  0  0  0  2  0  0  0  0  0  0
   36.3900   29.7440   38.7790 C   0  0  0  0  0  2  0  0  0  0  0  0
  1  7  1  0  0  0  0
  1  6  1  0  0  0  0
  2  1  2  0  0  0  0
  3  2  1  0  0  0  0
  3  4  2  0  0  0  0
  4  5  1  0  0  0  0
  5  9  1  0  0  0  0
  5  6  2  0  0  0  0
  8  3  1  0  0  0  0
 10  2  1  0  0  0  0
 10 11  1  0  0  0  0
 12 10  1  0  0  0  0
 13 10  1  0  0  0  0
 13 14  1  0  0  0  0
 15 14  1  0  0  0  0
 16 15  1  0  0  0  0
 17 18  1  0  0  0  0
 17 16  1  0  0  0  0
 18 13  1  0  0  0  0
M  END
>  <minimizedAffinity>
-4.02292156

$$$$

 OpenBabel03252504253D

 18 19  0  0  0  0  0  0  0  0999 V2000
   36.7760   26.9760   40.8250 C   0  0  0  0  0  0  0  0  0  0  0  0
   36.9340   26.4020   42.0980 C   0  0  0  0  0  0  0  0  0  0  0  0
   37.0500   25.0220   42.1770 C   0  0  0  0  0  0  0  0  0  0  0  0
   37.0080   24.3050   41.0330 N   0  0  0  0  0  0  0  0  0  0  0  0
   36.8560   24.8840   39.8240 C   0  0  0  0  0  0  0  0  0  0  0  0
   36.7380   26.2270   39.7070 N   0  0  0  0  0  0  0  0  0  0  0  0
   36.6790   28.0440   40.6990 H   0  0  0  0  0  0  0  0  0  0  0  0
   37.1700   24.6160   43.1690 H   0  0  0  0  0  0  0  0  0  0  0  0
   36.8450   24.1440   39.0280 H   0  0  0  0  0  0  0  0  0  0  0  0
   36.9560   27.3530   43.2260 C   0  0  0  0  0  0  0  0  0  0  0  0
   36.6560   26.8100   44.1600 H   0  0  0  0  0  0  0  0  0  0  0  0
   36.1430   28.1070   43.0820 H   0  0  0  0  0  0  0  0  0  0  0  0
   38.2950   28.0220   43.4320 C   0  0  0  0  0  3  0  0  0  0  0  0
   39.4020   27.1310   42.9190 C   0  0  0  0  0  2  0  0  0  0  0  0
   40.6910   27.8240   43.3260 C   0  0  0  0  0  2  0  0  0  0  0  0
   40.7820   29.1060   42.5810 C   0  0  0  0  0  2  0  0  0  0  0  0
   39.6200   30.0200   42.6670 C   0  0  0  0  0  2  0  0  0  0  0  0
   38.2800   29.3650   42.7740 C   0  0  0  0  0  2  0  0  0  0  0  0
  1  2  1  0  0  0  0
  2  3  2  0  0  0  0
  2 10  1  0  0  0  0
  3  8  1  0  0  0  0
  4  3  1  0  0  0  0
  5  4  2  0  0  0  0
  6  5  1  0  0  0  0
  6  1  2  0  0  0  0
  7  1  1  0  0  0  0
  9  5  1  0  0  0  0
 10 13  1  0  0  0  0
 10 11  1  0  0  0  0
 12 10  1  0  0  0  0
 14 15  1  0  0  0  0
 14 13  1  0  0  0  0
 16 17  1  0  0  0  0
 16 15  1  0  0  0  0
 17 18  1  0  0  0  0
 18 13  1  0  0  0  0
M  END
>  <minimizedAffinity>
-4.0180788

$$$$

 OpenBabel03252504253D

 18 19  0  0  0  0  0  0  0  0999 V2000
   38.2200   23.3680   41.0160 C   0  0  0  0  0  0  0  0  0  0  0  0
   37.0670   24.1640   41.1340 C   0  0  0  0  0  0  0  0  0  0  0  0
   36.1480   24.1330   40.0960 C   0  0  0  0  0  0  0  0  0  0  0  0
   36.4050   23.3430   39.0310 N   0  0  0  0  0  0  0  0  0  0  0  0
   37.5210   22.5900   38.9450 C   0  0  0  0  0  0  0  0  0  0  0  0
   38.4410   22.5940   39.9360 N   0  0  0  0  0  0  0  0  0  0  0  0
   38.9720   23.3510   41.7900 H   0  0  0  0  0  0  0  0  0  0  0  0
   35.2760   24.7550   40.2210 H   0  0  0  0  0  0  0  0  0  0  0  0
   37.5470   22.0260   38.0150 H   0  0  0  0  0  0  0  0  0  0  0  0
   36.9680   24.9580   42.3750 C   0  0  0  0  0  0  0  0  0  0  0  0
   37.4880   24.4040   43.1980 H   0  0  0  0  0  0  0  0  0  0  0  0
   35.8990   24.9850   42.7040 H   0  0  0  0  0  0  0  0  0  0  0  0
   37.5410   26.3510   42.2540 C   0  0  0  0  0  3  0  0  0  0  0  0
   36.5340   27.3670   42.7410 C   0  0  0  0  0  2  0  0  0  0  0  0
   37.1470   28.7190   42.4190 C   0  0  0  0  0  2  0  0  0  0  0  0
   38.3680   28.8820   43.2500 C   0  0  0  0  0  2  0  0  0  0  0  0
   39.3750   27.7970   43.1900 C   0  0  0  0  0  2  0  0  0  0  0  0
   38.8360   26.4160   42.9990 C   0  0  0  0  0  2  0  0  0  0  0  0
  1  2  1  0  0  0  0
  1  7  1  0  0  0  0
  2 10  1  0  0  0  0
  3  8  1  0  0  0  0
  3  2  2  0  0  0  0
  4  3  1  0  0  0  0
  5  4  2  0  0  0  0
  5  6  1  0  0  0  0
  6  1  2  0  0  0  0
  9  5  1  0  0  0  0
 10 12  1  0  0  0  0
 10 11  1  0  0  0  0
 13 10  1  0  0  0  0
 13 14  1  0  0  0  0
 13 18  1  0  0  0  0
 15 14  1  0  0  0  0
 15 16  1  0  0  0  0
 17 16  1  0  0  0  0
 18 17  1  0  0  0  0
M  END
>  <minimizedAffinity>
-3.96353459

$$$$
