REMARK  Name = 
REMARK  4 active torsions:
REMARK  status: ('A' for Active; 'I' for Inactive)
REMARK    1  A    between atoms: C_1  and  C_10
REMARK    2  A    between atoms: C_6  and  C_18
REMARK    3  A    between atoms: C_7  and  C_16
REMARK    4  A    between atoms: C_18  and  C_35
REMARK                            x       y       z     vdW  Elec       q    Type
REMARK                         _______ _______ _______ _____ _____    ______ ____
ROOT
ATOM      1  C   UNL     1      47.589  29.994  48.255  0.00  0.00    +0.000 C 
ATOM      2  C   UNL     1      47.445  28.788  47.388  0.00  0.00    +0.000 C 
ATOM      3  C   UNL     1      48.720  28.015  47.169  0.00  0.00    +0.000 C 
ATOM      4  C   UNL     1      49.525  27.843  48.429  0.00  0.00    +0.000 C 
ATOM      5  C   UNL     1      49.611  29.111  49.252  0.00  0.00    +0.000 C 
ATOM      6  C   UNL     1      49.082  30.275  48.427  0.00  0.00    +0.000 C 
ATOM      7  H   UNL     1      47.233  29.744  49.266  0.00  0.00    +0.000 HD
ATOM      8  H   UNL     1      46.623  28.152  47.790  0.00  0.00    +0.000 HD
ATOM      9  H   UNL     1      47.102  29.135  46.372  0.00  0.00    +0.000 HD
ATOM     10  H   UNL     1      49.331  28.510  46.399  0.00  0.00    +0.000 HD
ATOM     11  H   UNL     1      48.441  27.004  46.830  0.00  0.00    +0.000 HD
ATOM     12  H   UNL     1      49.033  27.034  49.031  0.00  0.00    +0.000 HD
ATOM     13  H   UNL     1      50.543  27.525  48.181  0.00  0.00    +0.000 HD
ATOM     14  H   UNL     1      50.607  29.299  49.649  0.00  0.00    +0.000 HD
ATOM     15  H   UNL     1      48.907  29.002  50.125  0.00  0.00    +0.000 HD
ATOM     16  H   UNL     1      49.571  30.314  47.434  0.00  0.00    +0.000 HD
ENDROOT
BRANCH   1  20
ATOM     17  C   UNL     1      45.913  33.149  46.251  0.00  0.00    +0.000 A 
ATOM     18  C   UNL     1      45.361  32.962  47.515  0.00  0.00    +0.000 A 
ATOM     19  C   UNL     1      45.831  31.959  48.259  0.00  0.00    +0.000 A 
ATOM     20  C   UNL     1      46.849  31.123  47.781  0.00  0.00    +0.000 A 
ATOM     21  S   UNL     1      47.168  31.818  46.128  0.00  0.00    +0.000 S 
ATOM     22  H   UNL     1      44.576  33.617  47.869  0.00  0.00    +0.000 HD
ATOM     23  H   UNL     1      45.520  31.675  49.250  0.00  0.00    +0.000 HD
BRANCH  17  28
ATOM     24  C   UNL     1      44.438  36.105  44.546  0.00  0.00    +0.000 A 
ATOM     25  C   UNL     1      45.056  36.008  43.289  0.00  0.00    +0.000 A 
ATOM     26  C   UNL     1      45.945  34.939  43.074  0.00  0.00    +0.000 A 
ATOM     27  N   UNL     1      46.154  34.059  44.102  0.00  0.00    +0.000 NA
ATOM     28  C   UNL     1      45.532  34.206  45.282  0.00  0.00    +0.000 A 
ATOM     29  N   UNL     1      44.664  35.233  45.520  0.00  0.00    +0.000 NA
ATOM     30  H   UNL     1      43.749  36.925  44.727  0.00  0.00    +0.000 HD
ATOM     31  H   UNL     1      44.879  36.715  42.485  0.00  0.00    +0.000 HD
ATOM     32  H   UNL     1      46.465  34.787  42.137  0.00  0.00    +0.000 HD
ENDBRANCH  17  28
ENDBRANCH   1  20
BRANCH   6  33
ATOM     33  C   UNL     1      49.255  31.522  49.204  0.00  0.00    +0.000 C 
ATOM     34  O   UNL     1      49.823  31.555  50.286  0.00  0.00    +0.000 OA
BRANCH  33  35
ATOM     35  C   UNL     1      48.955  32.969  49.158  0.00  0.00    +0.000 C 
ATOM     36  C   UNL     1      47.454  33.180  48.830  0.00  0.00    +0.000 C 
ATOM     37  C   UNL     1      47.234  34.343  47.925  0.00  0.00    +0.000 C 
ATOM     38  C   UNL     1      48.188  35.480  48.088  0.00  0.00    +0.000 C 
ATOM     39  C   UNL     1      49.635  35.047  48.041  0.00  0.00    +0.000 C 
ATOM     40  C   UNL     1      49.662  33.562  47.952  0.00  0.00    +0.000 C 
ENDBRANCH  33  35
ENDBRANCH   6  33
TORSDOF 4
