
 OpenBabel03242510053D

 15 16  0  0  1  0  0  0  0  0999 V2000
   44.7250   35.9750   44.6210 C   0  0  0  0  0  0  0  0  0  0  0  0
   45.3510   36.1280   43.3710 C   0  0  0  0  0  0  0  0  0  0  0  0
   46.0610   35.0380   42.8600 C   0  0  0  0  0  0  0  0  0  0  0  0
   46.1070   33.8950   43.5960 N   0  0  0  0  0  0  0  0  0  0  0  0
   45.4950   33.7760   44.7960 C   0  0  0  0  0  0  0  0  0  0  0  0
   44.8010   34.8190   45.3140 N   0  0  0  0  0  0  0  0  0  0  0  0
   44.1660   36.8200   45.0360 H   0  0  0  0  0  0  0  0  0  0  0  0
   45.2990   37.0350   42.8170 H   0  0  0  0  0  0  0  0  0  0  0  0
   46.5740   35.0600   41.9070 H   0  0  0  0  0  0  0  0  0  0  0  0
   45.5930   32.4880   45.5400 C   0  0  2  0  0  3  0  0  0  0  0  0
   45.7540   32.8290   46.9730 C   0  0  0  0  0  2  0  0  0  0  0  0
   47.1470   32.6450   47.5080 C   0  0  0  0  0  2  0  0  0  0  0  0
   47.5110   31.2060   47.2490 C   0  0  0  0  0  2  0  0  0  0  0  0
   47.5340   30.8660   45.8050 C   0  0  0  0  0  3  0  0  0  0  0  0
   46.6500   31.6560   44.9170 C   0  0  0  0  0  3  0  0  0  0  0  0
  1  7  1  0  0  0  0
  1  6  1  0  0  0  0
  2  1  2  0  0  0  0
  3  2  1  0  0  0  0
  3  4  2  0  0  0  0
  4  5  1  0  0  0  0
  5  6  2  0  0  0  0
  8  2  1  0  0  0  0
  9  3  1  0  0  0  0
 10  5  1  6  0  0  0
 10 11  1  0  0  0  0
 11 12  1  0  0  0  0
 13 12  1  0  0  0  0
 14 13  1  0  0  0  0
 15 10  1  0  0  0  0
 15 14  2  0  0  0  0
M  END
>  <minimizedAffinity>
-3.62108207

>  <minimizedRMSD>
1.16658771

$$$$
