
 OpenBabel03252505403D

 25 27  0  0  1  0  0  0  0  0999 V2000
   44.5330   34.9580   43.4800 C   0  0  1  0  0  0  0  0  0  0  0  0
   45.1340   36.3290   43.1060 C   0  0  0  0  0  0  0  0  0  0  0  0
   44.6330   35.3560   42.0760 C   0  0  2  0  0  0  0  0  0  0  0  0
   43.5670   34.9980   44.0190 H   0  0  0  0  0  0  0  0  0  0  0  0
   46.2090   36.4840   43.2760 H   0  0  0  0  0  0  0  0  0  0  0  0
   44.4630   37.1720   43.2980 H   0  0  0  0  0  0  0  0  0  0  0  0
   45.4860   34.8700   41.5200 H   0  0  0  0  0  0  0  0  0  0  0  0
   45.5130   34.0200   44.0960 C   0  0  0  0  0  0  0  0  0  0  0  0
   46.5440   33.4750   43.2870 C   0  0  0  0  0  0  0  0  0  0  0  0
   47.4530   32.6150   43.8850 C   0  0  0  0  0  0  0  0  0  0  0  0
   47.3080   32.3440   45.2050 N   0  0  0  0  0  0  0  0  0  0  0  0
   46.3100   32.8840   45.9460 C   0  0  0  0  0  0  0  0  0  0  0  0
   45.4100   33.7270   45.3790 N   0  0  0  0  0  0  0  0  0  0  0  0
   46.5880   33.7440   42.2420 H   0  0  0  0  0  0  0  0  0  0  0  0
   48.2370   32.1940   43.2860 H   0  0  0  0  0  0  0  0  0  0  0  0
   46.3360   32.4590   47.3840 C   0  0  0  0  0  0  0  0  0  0  0  0
   45.2980   33.0130   48.0960 F   0  0  0  0  0  0  0  0  0  0  0  0
   47.5360   32.8660   47.9730 F   0  0  0  0  0  0  0  0  0  0  0  0
   46.3350   31.0710   47.4410 F   0  0  0  0  0  0  0  0  0  0  0  0
   43.4250   35.6460   41.2440 C   0  0  0  0  0  3  0  0  0  0  0  0
   42.2030   35.5170   42.1160 C   0  0  0  0  0  2  0  0  0  0  0  0
   41.0200   34.8960   41.4200 C   0  0  0  0  0  2  0  0  0  0  0  0
   40.8940   35.3090   39.9840 C   0  0  0  0  0  2  0  0  0  0  0  0
   42.1810   35.1320   39.2130 C   0  0  0  0  0  2  0  0  0  0  0  0
   43.3120   34.6700   40.1140 C   0  0  0  0  0  2  0  0  0  0  0  0
  1  4  1  1  0  0  0
  1  8  1  0  0  0  0
  2  5  1  0  0  0  0
  2  6  1  0  0  0  0
  2  1  1  0  0  0  0
  3  7  1  6  0  0  0
  3  2  1  0  0  0  0
  3  1  1  0  0  0  0
  8 13  1  0  0  0  0
  9 10  1  0  0  0  0
  9  8  2  0  0  0  0
 10 11  2  0  0  0  0
 11 12  1  0  0  0  0
 12 16  1  0  0  0  0
 13 12  2  0  0  0  0
 14  9  1  0  0  0  0
 15 10  1  0  0  0  0
 16 19  1  0  0  0  0
 16 18  1  0  0  0  0
 16 17  1  0  0  0  0
 20  3  1  0  0  0  0
 20 21  1  0  0  0  0
 22 21  1  0  0  0  0
 23 22  1  0  0  0  0
 24 23  1  0  0  0  0
 24 25  1  0  0  0  0
 25 20  1  0  0  0  0
M  END
>  <minimizedAffinity>
-5.3817687

>  <minimizedRMSD>
1.08423448

$$$$
