
 OpenBabel03242521503D

 17 18  0  0  1  0  0  0  0  0999 V2000
   44.5120   35.6640   44.8420 C   0  0  0  0  0  0  0  0  0  0  0  0
   45.1530   35.6150   43.6030 C   0  0  0  0  0  0  0  0  0  0  0  0
   46.1250   34.6450   43.4030 C   0  0  0  0  0  0  0  0  0  0  0  0
   46.3990   33.7910   44.4340 N   0  0  0  0  0  0  0  0  0  0  0  0
   45.7680   33.8570   45.6140 C   0  0  0  0  0  0  0  0  0  0  0  0
   44.8300   34.7900   45.8140 N   0  0  0  0  0  0  0  0  0  0  0  0
   43.7420   36.4070   45.0450 H   0  0  0  0  0  0  0  0  0  0  0  0
   44.8650   36.3410   42.8460 H   0  0  0  0  0  0  0  0  0  0  0  0
   46.2120   32.8310   46.6100 C   0  0  2  0  0  0  0  0  0  0  0  0
   46.4850   31.5110   46.0170 C   0  0  0  0  0  0  0  0  0  0  0  0
   45.8590   30.3040   46.5640 C   0  0  0  0  0  0  0  0  0  0  0  0
   44.9040   30.5050   47.7060 C   0  0  0  0  0  0  0  0  0  0  0  0
   45.4340   31.6310   48.5910 C   0  0  0  0  0  0  0  0  0  0  0  0
   45.2420   32.8710   47.7420 C   0  0  0  0  0  0  0  0  0  0  0  0
   46.7910   34.5760   42.1560 N   0  0  0  0  0  0  0  0  0  0  0  0
   46.0620   34.2580   41.4670 H   0  0  0  0  0  0  0  0  0  0  0  0
   47.7960   34.7810   41.8810 H   0  0  0  0  0  0  0  0  0  0  0  0
  1  7  1  0  0  0  0
  1  6  1  0  0  0  0
  2  1  2  0  0  0  0
  3  2  1  0  0  0  0
  3  4  2  0  0  0  0
  4  5  1  0  0  0  0
  5  6  2  0  0  0  0
  8  2  1  0  0  0  0
  9  5  1  6  0  0  0
  9 14  1  0  0  0  0
 10 11  2  0  0  0  0
 10  9  1  0  0  0  0
 11 12  1  0  0  0  0
 12 13  1  0  0  0  0
 14 13  1  0  0  0  0
 15  3  1  0  0  0  0
 16 15  1  0  0  0  0
 17 15  1  0  0  0  0
M  END
>  <minimizedAffinity>
-4.6698947

>  <minimizedRMSD>
1.05432498

$$$$
