
 OpenBabel03252506023D

 25 27  0  0  0  0  0  0  0  0999 V2000
   44.7750   36.3190   42.8020 Cl  0  0  0  0  0  0  0  0  0  0  0  0
   45.4160   35.1080   43.8610 C   0  0  0  0  0  0  0  0  0  0  0  0
   46.4590   34.3110   43.4580 C   0  0  0  0  0  0  0  0  0  0  0  0
   46.9000   33.3720   44.3780 C   0  0  0  0  0  0  0  0  0  0  0  0
   46.3660   33.1970   45.6370 C   0  0  0  0  0  0  0  0  0  0  0  0
   45.3250   34.0090   46.0100 C   0  0  0  0  0  0  0  0  0  0  0  0
   44.6880   33.7440   47.6160 Cl  0  0  0  0  0  0  0  0  0  0  0  0
   44.8540   34.9540   45.1320 C   0  0  0  0  0  0  0  0  0  0  0  0
   47.7210   32.7430   44.0630 H   0  0  0  0  0  0  0  0  0  0  0  0
   44.0230   35.5860   45.4590 H   0  0  0  0  0  0  0  0  0  0  0  0
   48.7290   35.4430   40.8250 C   0  0  0  0  0  0  0  0  0  0  0  0
   48.2760   34.7260   39.7030 C   0  0  0  0  0  0  0  0  0  0  0  0
   47.1810   33.8460   39.8510 C   0  0  0  0  0  0  0  0  0  0  0  0
   46.6300   33.7490   41.0860 N   0  0  0  0  0  0  0  0  0  0  0  0
   47.0740   34.4370   42.1420 C   0  0  0  0  0  0  0  0  0  0  0  0
   48.1300   35.2940   42.0260 N   0  0  0  0  0  0  0  0  0  0  0  0
   49.5700   36.1010   40.6520 H   0  0  0  0  0  0  0  0  0  0  0  0
   48.7540   34.8410   38.7400 H   0  0  0  0  0  0  0  0  0  0  0  0
   46.8160   33.2870   39.0070 H   0  0  0  0  0  0  0  0  0  0  0  0
   46.9310   32.1550   46.5250 C   0  0  0  0  0  0  0  0  0  0  0  0
   45.9900   30.9870   46.7080 C   0  0  0  0  0  0  0  0  0  0  0  0
   46.7610   29.8790   47.3390 C   0  0  0  0  0  0  0  0  0  0  0  0
   47.5990   30.2270   48.5070 C   0  0  0  0  0  0  0  0  0  0  0  0
   48.1960   31.6040   48.5190 C   0  0  0  0  0  0  0  0  0  0  0  0
   47.3090   32.6430   47.8850 C   0  0  0  0  0  0  0  0  0  0  0  0
  1  2  1  0  0  0  0
  2  8  1  0  0  0  0
  3  2  2  0  0  0  0
  3  4  1  0  0  0  0
  4  5  2  0  0  0  0
  5  6  1  0  0  0  0
  5 20  1  0  0  0  0
  6  7  1  0  0  0  0
  8 10  1  0  0  0  0
  8  6  2  0  0  0  0
  9  4  1  0  0  0  0
 11 16  1  0  0  0  0
 12 13  1  0  0  0  0
 12 11  2  0  0  0  0
 13 14  2  0  0  0  0
 14 15  1  0  0  0  0
 15  3  1  0  0  0  0
 16 15  2  0  0  0  0
 17 11  1  0  0  0  0
 18 12  1  0  0  0  0
 19 13  1  0  0  0  0
 20 21  1  0  0  0  0
 20 25  1  0  0  0  0
 21 22  1  0  0  0  0
 22 23  1  0  0  0  0
 23 24  1  0  0  0  0
 25 24  1  0  0  0  0
M  END
>  <minimizedAffinity>
-5.99781609

>  <minimizedRMSD>
0.825543582

$$$$
