
 OpenBabel03242511153D

 41 45  0  0  1  0  0  0  0  0999 V2000
   37.1850   27.5260   42.9630 C   0  0  1  0  0  0  0  0  0  0  0  0
   36.9410   28.2480   44.2580 C   0  0  0  0  0  0  0  0  0  0  0  0
   37.5670   28.9380   43.0120 C   0  0  2  0  0  0  0  0  0  0  0  0
   36.2940   27.2840   42.3880 H   0  0  0  0  0  0  0  0  0  0  0  0
   35.9250   28.5610   44.5420 H   0  0  0  0  0  0  0  0  0  0  0  0
   37.6500   28.0700   45.0910 H   0  0  0  0  0  0  0  0  0  0  0  0
   38.6510   29.1790   43.0790 H   0  0  0  0  0  0  0  0  0  0  0  0
   38.9290   24.3350   42.2540 C   0  0  0  0  0  0  0  0  0  0  0  0
   40.2140   24.5650   42.8630 C   0  0  0  0  0  0  0  0  0  0  0  0
   40.4380   25.8260   43.5020 C   0  0  0  0  0  0  0  0  0  0  0  0
   39.4630   26.7240   43.5080 N   0  0  0  0  0  0  0  0  0  0  0  0
   38.2590   26.4660   42.9180 C   0  0  0  0  0  0  0  0  0  0  0  0
   37.9800   25.2800   42.2910 N   0  0  0  0  0  0  0  0  0  0  0  0
   38.8510   23.3620   41.7990 H   0  0  0  0  0  0  0  0  0  0  0  0
   41.0100   23.8610   42.8710 H   0  0  0  0  0  0  0  0  0  0  0  0
   41.7660   26.0560   44.1290 C   0  0  0  0  0  3  0  0  0  0  0  0
   41.9550   27.5170   44.2740 C   0  0  0  0  0  2  0  0  0  0  0  0
   43.3900   27.9600   44.4370 C   0  0  0  0  0  2  0  0  0  0  0  0
   44.1180   27.4700   43.1910 C   0  0  0  0  0  2  0  0  0  0  0  0
   44.1510   25.9660   43.3040 C   0  0  0  0  0  2  0  0  0  0  0  0
   42.7970   25.3410   43.3210 C   0  0  0  0  0  2  0  0  0  0  0  0
   36.7440   29.8940   42.3370 N   0  0  0  0  0  0  0  0  0  0  0  0
   36.4980   30.5910   43.0650 H   0  0  0  0  0  0  0  0  0  0  0  0
   36.4100   29.7570   40.9800 C   0  0  0  0  0  0  0  0  0  0  0  0
   35.3220   28.9990   40.6250 C   0  0  0  0  0  0  0  0  0  0  0  0
   34.8840   28.8760   39.3150 C   0  0  0  0  0  0  0  0  0  0  0  0
   35.5380   29.5240   38.2910 C   0  0  0  0  0  0  0  0  0  0  0  0
   36.6330   30.2900   38.6230 C   0  0  0  0  0  0  0  0  0  0  0  0
   37.3000   30.9550   37.6110 C   0  0  0  0  0  0  0  0  0  0  0  0
   38.3920   31.7340   37.8580 C   0  0  0  0  0  0  0  0  0  0  0  0
   38.8030   31.8280   39.1800 C   0  0  0  0  0  0  0  0  0  0  0  0
   38.1340   31.1660   40.1730 C   0  0  0  0  0  0  0  0  0  0  0  0
   37.0420   30.3890   39.9340 C   0  0  0  0  0  0  0  0  0  0  0  0
   34.7170   28.4360   41.3320 H   0  0  0  0  0  0  0  0  0  0  0  0
   34.0280   28.2790   39.0370 H   0  0  0  0  0  0  0  0  0  0  0  0
   35.2190   29.4480   37.2600 H   0  0  0  0  0  0  0  0  0  0  0  0
   36.9760   30.8760   36.5850 H   0  0  0  0  0  0  0  0  0  0  0  0
   38.9290   32.2650   37.0800 H   0  0  0  0  0  0  0  0  0  0  0  0
   39.6740   32.4490   39.3730 H   0  0  0  0  0  0  0  0  0  0  0  0
   38.5910   31.2860   41.4630 O   0  0  0  0  0  0  0  0  0  0  0  0
   39.5740   31.0910   41.6850 H   0  0  0  0  0  0  0  0  0  0  0  0
  1  4  1  6  0  0  0
  1  3  1  0  0  0  0
  1  2  1  0  0  0  0
  2  5  1  0  0  0  0
  2  6  1  0  0  0  0
  3  7  1  1  0  0  0
  3  2  1  0  0  0  0
  8 13  2  0  0  0  0
  8  9  1  0  0  0  0
  9 15  1  0  0  0  0
  9 10  2  0  0  0  0
 10 11  1  0  0  0  0
 10 16  1  0  0  0  0
 12  1  1  0  0  0  0
 12 11  2  0  0  0  0
 13 12  1  0  0  0  0
 14  8  1  0  0  0  0
 16 17  1  0  0  0  0
 17 18  1  0  0  0  0
 19 20  1  0  0  0  0
 19 18  1  0  0  0  0
 20 21  1  0  0  0  0
 21 16  1  0  0  0  0
 22  3  1  0  0  0  0
 22 23  1  0  0  0  0
 24 22  1  0  0  0  0
 25 24  1  0  0  0  0
 25 34  1  0  0  0  0
 26 25  2  0  0  0  0
 27 28  2  0  0  0  0
 27 26  1  0  0  0  0
 28 33  1  0  0  0  0
 29 30  2  0  0  0  0
 29 28  1  0  0  0  0
 30 31  1  0  0  0  0
 31 39  1  0  0  0  0
 31 32  2  0  0  0  0
 32 40  1  0  0  0  0
 33 32  1  0  0  0  0
 33 24  2  0  0  0  0
 35 26  1  0  0  0  0
 36 27  1  0  0  0  0
 37 29  1  0  0  0  0
 38 30  1  0  0  0  0
 40 41  1  0  0  0  0
M  END
>  <minimizedAffinity>
-7.25188208

$$$$

 OpenBabel03242511153D

 41 45  0  0  1  0  0  0  0  0999 V2000
   37.8820   32.4980   38.7150 C   0  0  1  0  0  0  0  0  0  0  0  0
   37.3290   33.5610   39.6230 C   0  0  0  0  0  0  0  0  0  0  0  0
   38.8070   33.0780   39.6900 C   0  0  2  0  0  0  0  0  0  0  0  0
   38.0210   32.7970   37.6780 H   0  0  0  0  0  0  0  0  0  0  0  0
   37.1570   34.5820   39.2500 H   0  0  0  0  0  0  0  0  0  0  0  0
   36.6990   33.2370   40.4750 H   0  0  0  0  0  0  0  0  0  0  0  0
   39.0800   32.4600   40.5740 H   0  0  0  0  0  0  0  0  0  0  0  0
   36.1260   29.2920   38.1170 C   0  0  0  0  0  0  0  0  0  0  0  0
   36.5550   28.5100   39.2480 C   0  0  0  0  0  0  0  0  0  0  0  0
   37.4470   29.1210   40.1860 C   0  0  0  0  0  0  0  0  0  0  0  0
   37.8390   30.3700   39.9790 N   0  0  0  0  0  0  0  0  0  0  0  0
   37.4070   31.0770   38.8930 C   0  0  0  0  0  0  0  0  0  0  0  0
   36.5530   30.5510   37.9590 N   0  0  0  0  0  0  0  0  0  0  0  0
   35.4580   28.7520   37.4670 H   0  0  0  0  0  0  0  0  0  0  0  0
   36.2560   27.5080   39.4350 H   0  0  0  0  0  0  0  0  0  0  0  0
   37.8870   28.3080   41.3510 C   0  0  0  0  0  3  0  0  0  0  0  0
   37.1190   27.0430   41.3410 C   0  0  0  0  0  2  0  0  0  0  0  0
   37.0700   26.3180   42.6650 C   0  0  0  0  0  2  0  0  0  0  0  0
   36.4370   27.2940   43.6480 C   0  0  0  0  0  2  0  0  0  0  0  0
   37.4490   28.3970   43.8350 C   0  0  0  0  0  2  0  0  0  0  0  0
   37.7560   29.1420   42.5810 C   0  0  0  0  0  2  0  0  0  0  0  0
   39.7980   34.0020   39.2300 N   0  0  0  0  0  0  0  0  0  0  0  0
   39.3100   34.9170   39.1990 H   0  0  0  0  0  0  0  0  0  0  0  0
   41.1000   33.5910   38.9060 C   0  0  0  0  0  0  0  0  0  0  0  0
   41.3240   32.9170   37.7310 C   0  0  0  0  0  0  0  0  0  0  0  0
   42.5890   32.5440   37.3040 C   0  0  0  0  0  0  0  0  0  0  0  0
   43.7010   32.8400   38.0600 C   0  0  0  0  0  0  0  0  0  0  0  0
   43.5020   33.5150   39.2430 C   0  0  0  0  0  0  0  0  0  0  0  0
   44.6060   33.8280   40.0140 C   0  0  0  0  0  0  0  0  0  0  0  0
   44.4930   34.4970   41.1980 C   0  0  0  0  0  0  0  0  0  0  0  0
   43.2100   34.8480   41.5940 C   0  0  0  0  0  0  0  0  0  0  0  0
   42.1250   34.5330   40.8210 C   0  0  0  0  0  0  0  0  0  0  0  0
   42.2310   33.8690   39.6380 C   0  0  0  0  0  0  0  0  0  0  0  0
   40.5360   32.6210   37.0410 H   0  0  0  0  0  0  0  0  0  0  0  0
   42.7630   32.0130   36.3800 H   0  0  0  0  0  0  0  0  0  0  0  0
   44.7010   32.5630   37.7520 H   0  0  0  0  0  0  0  0  0  0  0  0
   45.6010   33.5510   39.7010 H   0  0  0  0  0  0  0  0  0  0  0  0
   45.3450   34.7530   41.8170 H   0  0  0  0  0  0  0  0  0  0  0  0
   43.1230   35.3790   42.5370 H   0  0  0  0  0  0  0  0  0  0  0  0
   40.8770   34.8960   41.2660 O   0  0  0  0  0  0  0  0  0  0  0  0
   40.5660   34.6340   42.2090 H   0  0  0  0  0  0  0  0  0  0  0  0
  1  4  1  6  0  0  0
  1 12  1  0  0  0  0
  1  2  1  0  0  0  0
  1  3  1  0  0  0  0
  2  3  1  0  0  0  0
  2  6  1  0  0  0  0
  3  7  1  1  0  0  0
  5  2  1  0  0  0  0
  8  9  1  0  0  0  0
  9 15  1  0  0  0  0
  9 10  2  0  0  0  0
 10 16  1  0  0  0  0
 11 10  1  0  0  0  0
 12 11  2  0  0  0  0
 13  8  2  0  0  0  0
 13 12  1  0  0  0  0
 14  8  1  0  0  0  0
 16 21  1  0  0  0  0
 17 16  1  0  0  0  0
 17 18  1  0  0  0  0
 18 19  1  0  0  0  0
 19 20  1  0  0  0  0
 21 20  1  0  0  0  0
 22  3  1  0  0  0  0
 23 22  1  0  0  0  0
 24 22  1  0  0  0  0
 24 33  1  0  0  0  0
 25 24  2  0  0  0  0
 26 25  1  0  0  0  0
 26 27  2  0  0  0  0
 27 28  1  0  0  0  0
 28 33  2  0  0  0  0
 28 29  1  0  0  0  0
 29 30  2  0  0  0  0
 30 31  1  0  0  0  0
 30 38  1  0  0  0  0
 31 39  1  0  0  0  0
 32 40  1  0  0  0  0
 32 31  2  0  0  0  0
 33 32  1  0  0  0  0
 34 25  1  0  0  0  0
 35 26  1  0  0  0  0
 36 27  1  0  0  0  0
 37 29  1  0  0  0  0
 40 41  1  0  0  0  0
M  END
>  <minimizedAffinity>
-7.0725975

$$$$

 OpenBabel03242511153D

 41 45  0  0  1  0  0  0  0  0999 V2000
   37.9230   32.4140   39.3800 C   0  0  1  0  0  0  0  0  0  0  0  0
   37.2600   33.7460   39.5920 C   0  0  0  0  0  0  0  0  0  0  0  0
   38.7390   33.4670   39.9860 C   0  0  2  0  0  0  0  0  0  0  0  0
   38.1470   32.1640   38.3450 H   0  0  0  0  0  0  0  0  0  0  0  0
   37.0930   34.4290   38.7450 H   0  0  0  0  0  0  0  0  0  0  0  0
   36.5650   33.8480   40.4490 H   0  0  0  0  0  0  0  0  0  0  0  0
   38.9490   33.3950   41.0760 H   0  0  0  0  0  0  0  0  0  0  0  0
   35.8260   29.6830   40.7460 C   0  0  0  0  0  0  0  0  0  0  0  0
   36.6890   29.1330   41.7590 C   0  0  0  0  0  0  0  0  0  0  0  0
   37.9790   29.7270   41.9360 C   0  0  0  0  0  0  0  0  0  0  0  0
   38.3250   30.7510   41.1680 N   0  0  0  0  0  0  0  0  0  0  0  0
   37.4760   31.2430   40.2190 C   0  0  0  0  0  0  0  0  0  0  0  0
   36.2280   30.7200   39.9980 N   0  0  0  0  0  0  0  0  0  0  0  0
   34.8790   29.1750   40.6840 H   0  0  0  0  0  0  0  0  0  0  0  0
   36.4350   28.3140   42.3860 H   0  0  0  0  0  0  0  0  0  0  0  0
   38.8650   29.1540   42.9830 C   0  0  0  0  0  3  0  0  0  0  0  0
   40.2440   29.1210   42.4470 C   0  0  0  0  0  2  0  0  0  0  0  0
   41.1760   28.1620   43.1470 C   0  0  0  0  0  2  0  0  0  0  0  0
   40.5380   26.7860   43.0050 C   0  0  0  0  0  2  0  0  0  0  0  0
   39.2940   26.8250   43.8580 C   0  0  0  0  0  2  0  0  0  0  0  0
   38.2990   27.8420   43.4110 C   0  0  0  0  0  2  0  0  0  0  0  0
   39.7400   34.1050   39.1880 N   0  0  0  0  0  0  0  0  0  0  0  0
   39.2270   34.4660   38.3610 H   0  0  0  0  0  0  0  0  0  0  0  0
   41.0900   34.1260   39.5700 C   0  0  0  0  0  0  0  0  0  0  0  0
   41.4530   34.7400   40.7430 C   0  0  0  0  0  0  0  0  0  0  0  0
   42.7520   34.7390   41.2250 C   0  0  0  0  0  0  0  0  0  0  0  0
   43.7590   34.1060   40.5310 C   0  0  0  0  0  0  0  0  0  0  0  0
   43.4210   33.4830   39.3510 C   0  0  0  0  0  0  0  0  0  0  0  0
   44.4150   32.8370   38.6410 C   0  0  0  0  0  0  0  0  0  0  0  0
   44.1600   32.1960   37.4640 C   0  0  0  0  0  0  0  0  0  0  0  0
   42.8490   32.2240   37.0110 C   0  0  0  0  0  0  0  0  0  0  0  0
   41.8740   32.8670   37.7230 C   0  0  0  0  0  0  0  0  0  0  0  0
   42.1200   33.5060   38.8990 C   0  0  0  0  0  0  0  0  0  0  0  0
   40.7580   35.2750   41.3880 H   0  0  0  0  0  0  0  0  0  0  0  0
   43.0360   35.2230   42.1480 H   0  0  0  0  0  0  0  0  0  0  0  0
   44.7820   34.0870   40.8830 H   0  0  0  0  0  0  0  0  0  0  0  0
   45.4330   32.8200   38.9980 H   0  0  0  0  0  0  0  0  0  0  0  0
   44.9250   31.6820   36.8920 H   0  0  0  0  0  0  0  0  0  0  0  0
   42.6490   31.7130   36.0730 H   0  0  0  0  0  0  0  0  0  0  0  0
   40.5940   32.8720   37.2230 O   0  0  0  0  0  0  0  0  0  0  0  0
   40.4140   33.1850   36.2620 H   0  0  0  0  0  0  0  0  0  0  0  0
  1  4  1  6  0  0  0
  1  2  1  0  0  0  0
  1  3  1  0  0  0  0
  1 12  1  0  0  0  0
  2  3  1  0  0  0  0
  2  6  1  0  0  0  0
  3  7  1  1  0  0  0
  5  2  1  0  0  0  0
  8  9  1  0  0  0  0
  9 10  2  0  0  0  0
  9 15  1  0  0  0  0
 10 16  1  0  0  0  0
 11 10  1  0  0  0  0
 12 11  2  0  0  0  0
 13 12  1  0  0  0  0
 13  8  2  0  0  0  0
 14  8  1  0  0  0  0
 16 21  1  0  0  0  0
 17 16  1  0  0  0  0
 17 18  1  0  0  0  0
 19 18  1  0  0  0  0
 19 20  1  0  0  0  0
 21 20  1  0  0  0  0
 22 24  1  0  0  0  0
 22  3  1  0  0  0  0
 23 22  1  0  0  0  0
 24 25  1  0  0  0  0
 25 26  2  0  0  0  0
 25 34  1  0  0  0  0
 26 35  1  0  0  0  0
 27 36  1  0  0  0  0
 27 26  1  0  0  0  0
 28 27  2  0  0  0  0
 29 37  1  0  0  0  0
 29 28  1  0  0  0  0
 30 29  2  0  0  0  0
 31 30  1  0  0  0  0
 31 32  2  0  0  0  0
 32 33  1  0  0  0  0
 33 28  1  0  0  0  0
 33 24  2  0  0  0  0
 38 30  1  0  0  0  0
 39 31  1  0  0  0  0
 40 32  1  0  0  0  0
 41 40  1  0  0  0  0
M  END
>  <minimizedAffinity>
-7.06642962

$$$$

 OpenBabel03242511153D

 41 45  0  0  1  0  0  0  0  0999 V2000
   37.2990   27.5220   42.9230 C   0  0  1  0  0  0  0  0  0  0  0  0
   36.9170   28.1940   44.2120 C   0  0  0  0  0  0  0  0  0  0  0  0
   37.6420   28.9390   43.0550 C   0  0  2  0  0  0  0  0  0  0  0  0
   36.4710   27.2840   42.2580 H   0  0  0  0  0  0  0  0  0  0  0  0
   35.8720   28.4780   44.4070 H   0  0  0  0  0  0  0  0  0  0  0  0
   37.5480   28.0010   45.1020 H   0  0  0  0  0  0  0  0  0  0  0  0
   38.7090   29.1970   43.2320 H   0  0  0  0  0  0  0  0  0  0  0  0
   39.1120   24.3310   42.4210 C   0  0  0  0  0  0  0  0  0  0  0  0
   40.3910   24.6270   43.0110 C   0  0  0  0  0  0  0  0  0  0  0  0
   40.5880   25.9320   43.5660 C   0  0  0  0  0  0  0  0  0  0  0  0
   39.5940   26.8070   43.5150 N   0  0  0  0  0  0  0  0  0  0  0  0
   38.3950   26.4850   42.9460 C   0  0  0  0  0  0  0  0  0  0  0  0
   38.1420   25.2550   42.3970 N   0  0  0  0  0  0  0  0  0  0  0  0
   39.0550   23.3280   42.0300 H   0  0  0  0  0  0  0  0  0  0  0  0
   41.2030   23.9430   43.0640 H   0  0  0  0  0  0  0  0  0  0  0  0
   41.9110   26.2320   44.1740 C   0  0  0  0  0  3  0  0  0  0  0  0
   42.0920   27.7000   44.1720 C   0  0  0  0  0  2  0  0  0  0  0  0
   43.5230   28.1650   44.2980 C   0  0  0  0  0  2  0  0  0  0  0  0
   44.2610   27.5570   43.1130 C   0  0  0  0  0  2  0  0  0  0  0  0
   44.3010   26.0720   43.3760 C   0  0  0  0  0  2  0  0  0  0  0  0
   42.9500   25.4440   43.4480 C   0  0  0  0  0  2  0  0  0  0  0  0
   36.8660   29.9020   42.3350 N   0  0  0  0  0  0  0  0  0  0  0  0
   36.0800   30.1350   42.9720 H   0  0  0  0  0  0  0  0  0  0  0  0
   37.2140   30.3160   41.0400 C   0  0  0  0  0  0  0  0  0  0  0  0
   38.3700   31.0310   40.8460 C   0  0  0  0  0  0  0  0  0  0  0  0
   38.8200   31.4120   39.5920 C   0  0  0  0  0  0  0  0  0  0  0  0
   38.1090   31.0810   38.4590 C   0  0  0  0  0  0  0  0  0  0  0  0
   36.9460   30.3640   38.6290 C   0  0  0  0  0  0  0  0  0  0  0  0
   36.2200   30.0160   37.5050 C   0  0  0  0  0  0  0  0  0  0  0  0
   35.0590   29.3050   37.5890 C   0  0  0  0  0  0  0  0  0  0  0  0
   34.6380   28.9470   38.8610 C   0  0  0  0  0  0  0  0  0  0  0  0
   35.3660   29.2980   39.9660 C   0  0  0  0  0  0  0  0  0  0  0  0
   36.5270   30.0040   39.8900 C   0  0  0  0  0  0  0  0  0  0  0  0
   39.0250   31.3580   41.6520 H   0  0  0  0  0  0  0  0  0  0  0  0
   39.7290   31.9750   39.4410 H   0  0  0  0  0  0  0  0  0  0  0  0
   38.4360   31.3630   37.4670 H   0  0  0  0  0  0  0  0  0  0  0  0
   36.5520   30.2980   36.5180 H   0  0  0  0  0  0  0  0  0  0  0  0
   34.4750   29.0200   36.7200 H   0  0  0  0  0  0  0  0  0  0  0  0
   33.7130   28.3830   38.9250 H   0  0  0  0  0  0  0  0  0  0  0  0
   34.8970   28.9260   41.2030 O   0  0  0  0  0  0  0  0  0  0  0  0
   33.9370   29.1550   41.4840 H   0  0  0  0  0  0  0  0  0  0  0  0
  1  4  1  6  0  0  0
  1 12  1  0  0  0  0
  1  3  1  0  0  0  0
  1  2  1  0  0  0  0
  2  5  1  0  0  0  0
  2  6  1  0  0  0  0
  3  7  1  1  0  0  0
  3  2  1  0  0  0  0
  8  9  1  0  0  0  0
  9 15  1  0  0  0  0
  9 10  2  0  0  0  0
 10 16  1  0  0  0  0
 11 10  1  0  0  0  0
 12 11  2  0  0  0  0
 13  8  2  0  0  0  0
 13 12  1  0  0  0  0
 14  8  1  0  0  0  0
 17 16  1  0  0  0  0
 17 18  1  0  0  0  0
 19 20  1  0  0  0  0
 19 18  1  0  0  0  0
 20 21  1  0  0  0  0
 21 16  1  0  0  0  0
 22 23  1  0  0  0  0
 22  3  1  0  0  0  0
 24 22  1  0  0  0  0
 25 24  1  0  0  0  0
 25 34  1  0  0  0  0
 26 25  2  0  0  0  0
 27 28  2  0  0  0  0
 27 26  1  0  0  0  0
 28 33  1  0  0  0  0
 29 30  2  0  0  0  0
 29 28  1  0  0  0  0
 30 31  1  0  0  0  0
 31 39  1  0  0  0  0
 31 32  2  0  0  0  0
 32 40  1  0  0  0  0
 33 32  1  0  0  0  0
 33 24  2  0  0  0  0
 35 26  1  0  0  0  0
 36 27  1  0  0  0  0
 37 29  1  0  0  0  0
 38 30  1  0  0  0  0
 40 41  1  0  0  0  0
M  END
>  <minimizedAffinity>
-7.02826309

$$$$

 OpenBabel03242511153D

 41 45  0  0  1  0  0  0  0  0999 V2000
   38.5470   29.1620   42.6860 C   0  0  1  0  0  0  0  0  0  0  0  0
   39.4670   30.3460   42.7840 C   0  0  0  0  0  0  0  0  0  0  0  0
   38.8710   29.8500   41.4350 C   0  0  2  0  0  0  0  0  0  0  0  0
   37.5440   29.3170   43.0780 H   0  0  0  0  0  0  0  0  0  0  0  0
   39.0990   31.3110   43.1650 H   0  0  0  0  0  0  0  0  0  0  0  0
   40.5510   30.1500   42.9090 H   0  0  0  0  0  0  0  0  0  0  0  0
   39.5830   29.3510   40.7410 H   0  0  0  0  0  0  0  0  0  0  0  0
   40.7940   26.4620   43.8620 C   0  0  0  0  0  0  0  0  0  0  0  0
   40.1080   25.2870   43.3900 C   0  0  0  0  0  0  0  0  0  0  0  0
   38.8800   25.4680   42.6780 C   0  0  0  0  0  0  0  0  0  0  0  0
   38.4270   26.6980   42.4820 N   0  0  0  0  0  0  0  0  0  0  0  0
   39.1090   27.7860   42.9460 C   0  0  0  0  0  0  0  0  0  0  0  0
   40.2900   27.6820   43.6340 N   0  0  0  0  0  0  0  0  0  0  0  0
   41.7070   26.2300   44.3850 H   0  0  0  0  0  0  0  0  0  0  0  0
   40.4500   24.2910   43.5350 H   0  0  0  0  0  0  0  0  0  0  0  0
   38.1760   24.2500   42.1940 C   0  0  0  0  0  3  0  0  0  0  0  0
   38.9840   23.6590   41.1040 C   0  0  0  0  0  2  0  0  0  0  0  0
   38.2290   22.7260   40.1870 C   0  0  0  0  0  2  0  0  0  0  0  0
   37.0980   23.5560   39.5940 C   0  0  0  0  0  2  0  0  0  0  0  0
   36.1560   23.8370   40.7380 C   0  0  0  0  0  2  0  0  0  0  0  0
   36.7770   24.6270   41.8400 C   0  0  0  0  0  2  0  0  0  0  0  0
   37.8780   30.6860   40.8350 N   0  0  0  0  0  0  0  0  0  0  0  0
   37.5740   31.3230   41.5970 H   0  0  0  0  0  0  0  0  0  0  0  0
   37.4890   30.5310   39.4960 C   0  0  0  0  0  0  0  0  0  0  0  0
   38.3670   30.8630   38.4930 C   0  0  0  0  0  0  0  0  0  0  0  0
   38.0860   30.6690   37.1500 C   0  0  0  0  0  0  0  0  0  0  0  0
   36.8860   30.1220   36.7540 C   0  0  0  0  0  0  0  0  0  0  0  0
   35.9880   29.7810   37.7420 C   0  0  0  0  0  0  0  0  0  0  0  0
   34.7800   29.2250   37.3660 C   0  0  0  0  0  0  0  0  0  0  0  0
   33.8390   28.8600   38.2840 C   0  0  0  0  0  0  0  0  0  0  0  0
   34.1540   29.0750   39.6180 C   0  0  0  0  0  0  0  0  0  0  0  0
   35.3540   29.6260   39.9760 C   0  0  0  0  0  0  0  0  0  0  0  0
   36.2990   29.9900   39.0670 C   0  0  0  0  0  0  0  0  0  0  0  0
   39.3480   31.3020   38.6660 H   0  0  0  0  0  0  0  0  0  0  0  0
   38.7770   30.9310   36.3630 H   0  0  0  0  0  0  0  0  0  0  0  0
   36.6390   29.9580   35.7130 H   0  0  0  0  0  0  0  0  0  0  0  0
   34.5400   29.0620   36.3270 H   0  0  0  0  0  0  0  0  0  0  0  0
   32.8850   28.4210   38.0120 H   0  0  0  0  0  0  0  0  0  0  0  0
   33.4030   28.7840   40.3460 H   0  0  0  0  0  0  0  0  0  0  0  0
   35.6100   29.8260   41.3120 O   0  0  0  0  0  0  0  0  0  0  0  0
   34.9420   30.3420   41.8960 H   0  0  0  0  0  0  0  0  0  0  0  0
  1  2  1  0  0  0  0
  1 12  1  0  0  0  0
  1  4  1  1  0  0  0
  2  6  1  0  0  0  0
  2  5  1  0  0  0  0
  3  7  1  6  0  0  0
  3  1  1  0  0  0  0
  3  2  1  0  0  0  0
  8 14  1  0  0  0  0
  9 15  1  0  0  0  0
  9  8  2  0  0  0  0
 10  9  1  0  0  0  0
 11 10  2  0  0  0  0
 11 12  1  0  0  0  0
 12 13  2  0  0  0  0
 13  8  1  0  0  0  0
 16 10  1  0  0  0  0
 17 16  1  0  0  0  0
 18 17  1  0  0  0  0
 19 18  1  0  0  0  0
 19 20  1  0  0  0  0
 20 21  1  0  0  0  0
 21 16  1  0  0  0  0
 22  3  1  0  0  0  0
 22 23  1  0  0  0  0
 24 22  1  0  0  0  0
 25 34  1  0  0  0  0
 25 24  2  0  0  0  0
 26 25  1  0  0  0  0
 27 26  2  0  0  0  0
 27 28  1  0  0  0  0
 28 33  1  0  0  0  0
 29 28  2  0  0  0  0
 29 30  1  0  0  0  0
 30 31  2  0  0  0  0
 31 32  1  0  0  0  0
 31 39  1  0  0  0  0
 32 40  1  0  0  0  0
 33 24  1  0  0  0  0
 33 32  2  0  0  0  0
 35 26  1  0  0  0  0
 36 27  1  0  0  0  0
 37 29  1  0  0  0  0
 38 30  1  0  0  0  0
 40 41  1  0  0  0  0
M  END
>  <minimizedAffinity>
-7.01868105

$$$$

 OpenBabel03242511153D

 41 45  0  0  1  0  0  0  0  0999 V2000
   37.3220   32.0920   39.6910 C   0  0  1  0  0  0  0  0  0  0  0  0
   37.2320   31.4770   38.3220 C   0  0  0  0  0  0  0  0  0  0  0  0
   37.6750   30.6760   39.5800 C   0  0  2  0  0  0  0  0  0  0  0  0
   36.3680   32.3170   40.1640 H   0  0  0  0  0  0  0  0  0  0  0  0
   36.2550   31.2180   37.8880 H   0  0  0  0  0  0  0  0  0  0  0  0
   38.0470   31.6940   37.6030 H   0  0  0  0  0  0  0  0  0  0  0  0
   38.7530   30.4070   39.6340 H   0  0  0  0  0  0  0  0  0  0  0  0
   39.0100   35.3410   40.2540 C   0  0  0  0  0  0  0  0  0  0  0  0
   40.3800   34.9300   40.4230 C   0  0  0  0  0  0  0  0  0  0  0  0
   40.6770   33.5330   40.3390 C   0  0  0  0  0  0  0  0  0  0  0  0
   39.6890   32.6790   40.1110 N   0  0  0  0  0  0  0  0  0  0  0  0
   38.4030   33.1100   39.9550 C   0  0  0  0  0  0  0  0  0  0  0  0
   38.0510   34.4330   40.0250 N   0  0  0  0  0  0  0  0  0  0  0  0
   38.8810   36.4070   40.3330 H   0  0  0  0  0  0  0  0  0  0  0  0
   41.1890   35.5950   40.6080 H   0  0  0  0  0  0  0  0  0  0  0  0
   42.0940   33.1170   40.5150 C   0  0  0  0  0  3  0  0  0  0  0  0
   42.1930   32.3580   41.7810 C   0  0  0  0  0  2  0  0  0  0  0  0
   43.5840   32.2690   42.3620 C   0  0  0  0  0  2  0  0  0  0  0  0
   44.0310   33.7070   42.5900 C   0  0  0  0  0  2  0  0  0  0  0  0
   44.2120   34.2990   41.2140 C   0  0  0  0  0  2  0  0  0  0  0  0
   42.9560   34.3300   40.4100 C   0  0  0  0  0  2  0  0  0  0  0  0
   36.7520   29.6980   40.0680 N   0  0  0  0  0  0  0  0  0  0  0  0
   35.9150   29.8020   39.4630 H   0  0  0  0  0  0  0  0  0  0  0  0
   37.0560   28.8720   41.1610 C   0  0  0  0  0  0  0  0  0  0  0  0
   37.3750   29.4390   42.3700 C   0  0  0  0  0  0  0  0  0  0  0  0
   37.6150   28.6940   43.5140 C   0  0  0  0  0  0  0  0  0  0  0  0
   37.5400   27.3180   43.4850 C   0  0  0  0  0  0  0  0  0  0  0  0
   37.2220   26.7260   42.2830 C   0  0  0  0  0  0  0  0  0  0  0  0
   37.1370   25.3470   42.2340 C   0  0  0  0  0  0  0  0  0  0  0  0
   36.8250   24.6860   41.0820 C   0  0  0  0  0  0  0  0  0  0  0  0
   36.5980   25.4660   39.9580 C   0  0  0  0  0  0  0  0  0  0  0  0
   36.6850   26.8300   40.0200 C   0  0  0  0  0  0  0  0  0  0  0  0
   36.9920   27.4970   41.1660 C   0  0  0  0  0  0  0  0  0  0  0  0
   37.4670   30.5120   42.5320 H   0  0  0  0  0  0  0  0  0  0  0  0
   37.8660   29.1410   44.4640 H   0  0  0  0  0  0  0  0  0  0  0  0
   37.7210   26.7100   44.3610 H   0  0  0  0  0  0  0  0  0  0  0  0
   37.3160   24.7460   43.1110 H   0  0  0  0  0  0  0  0  0  0  0  0
   36.7510   23.6060   41.0220 H   0  0  0  0  0  0  0  0  0  0  0  0
   36.3510   24.9360   39.0420 H   0  0  0  0  0  0  0  0  0  0  0  0
   36.4600   27.5540   38.8730 O   0  0  0  0  0  0  0  0  0  0  0  0
   36.9750   27.3340   38.0130 H   0  0  0  0  0  0  0  0  0  0  0  0
  1 12  1  0  0  0  0
  1  4  1  1  0  0  0
  2  3  1  0  0  0  0
  2  1  1  0  0  0  0
  3  7  1  1  0  0  0
  3  1  1  0  0  0  0
  3 22  1  0  0  0  0
  5  2  1  0  0  0  0
  6  2  1  0  0  0  0
  8 14  1  0  0  0  0
  8  9  1  0  0  0  0
  9 15  1  0  0  0  0
 10  9  2  0  0  0  0
 10 16  1  0  0  0  0
 11 10  1  0  0  0  0
 12 13  1  0  0  0  0
 12 11  2  0  0  0  0
 13  8  2  0  0  0  0
 16 17  1  0  0  0  0
 17 18  1  0  0  0  0
 18 19  1  0  0  0  0
 20 19  1  0  0  0  0
 21 16  1  0  0  0  0
 21 20  1  0  0  0  0
 22 24  1  0  0  0  0
 23 22  1  0  0  0  0
 24 33  2  0  0  0  0
 24 25  1  0  0  0  0
 25 34  1  0  0  0  0
 25 26  2  0  0  0  0
 26 35  1  0  0  0  0
 27 26  1  0  0  0  0
 27 36  1  0  0  0  0
 28 27  2  0  0  0  0
 29 28  1  0  0  0  0
 29 37  1  0  0  0  0
 30 29  2  0  0  0  0
 31 32  2  0  0  0  0
 31 30  1  0  0  0  0
 32 33  1  0  0  0  0
 33 28  1  0  0  0  0
 38 30  1  0  0  0  0
 39 31  1  0  0  0  0
 40 32  1  0  0  0  0
 41 40  1  0  0  0  0
M  END
>  <minimizedAffinity>
-6.99013376

$$$$

 OpenBabel03242511153D

 41 45  0  0  1  0  0  0  0  0999 V2000
   37.4480   32.0220   38.5210 C   0  0  1  0  0  0  0  0  0  0  0  0
   37.1680   33.1130   39.5160 C   0  0  0  0  0  0  0  0  0  0  0  0
   38.5730   32.4680   39.3450 C   0  0  2  0  0  0  0  0  0  0  0  0
   37.4580   32.3320   37.4780 H   0  0  0  0  0  0  0  0  0  0  0  0
   37.0570   34.1570   39.1850 H   0  0  0  0  0  0  0  0  0  0  0  0
   36.6450   32.8360   40.4530 H   0  0  0  0  0  0  0  0  0  0  0  0
   38.9070   31.7990   40.1680 H   0  0  0  0  0  0  0  0  0  0  0  0
   35.7220   28.8020   37.9080 C   0  0  0  0  0  0  0  0  0  0  0  0
   35.7600   28.1980   39.2150 C   0  0  0  0  0  0  0  0  0  0  0  0
   36.3890   28.9290   40.2730 C   0  0  0  0  0  0  0  0  0  0  0  0
   36.9060   30.1210   40.0110 N   0  0  0  0  0  0  0  0  0  0  0  0
   36.8480   30.6580   38.7570 C   0  0  0  0  0  0  0  0  0  0  0  0
   36.2610   30.0110   37.7000 N   0  0  0  0  0  0  0  0  0  0  0  0
   35.2320   28.1820   37.1760 H   0  0  0  0  0  0  0  0  0  0  0  0
   35.3540   27.2450   39.4490 H   0  0  0  0  0  0  0  0  0  0  0  0
   36.4250   28.3000   41.6200 C   0  0  0  0  0  3  0  0  0  0  0  0
   37.1900   29.1910   42.5190 C   0  0  0  0  0  2  0  0  0  0  0  0
   37.7350   28.5260   43.7610 C   0  0  0  0  0  2  0  0  0  0  0  0
   38.6360   27.4020   43.2670 C   0  0  0  0  0  2  0  0  0  0  0  0
   37.7120   26.3850   42.6440 C   0  0  0  0  0  2  0  0  0  0  0  0
   36.9500   26.9110   41.4750 C   0  0  0  0  0  2  0  0  0  0  0  0
   39.5790   33.2880   38.7450 N   0  0  0  0  0  0  0  0  0  0  0  0
   39.0990   33.7590   37.9540 H   0  0  0  0  0  0  0  0  0  0  0  0
   40.8970   33.3160   39.2260 C   0  0  0  0  0  0  0  0  0  0  0  0
   41.1590   33.8780   40.4510 C   0  0  0  0  0  0  0  0  0  0  0  0
   42.4200   33.8770   41.0270 C   0  0  0  0  0  0  0  0  0  0  0  0
   43.4890   33.2990   40.3800 C   0  0  0  0  0  0  0  0  0  0  0  0
   43.2510   32.7290   39.1490 C   0  0  0  0  0  0  0  0  0  0  0  0
   44.3100   32.1380   38.4850 C   0  0  0  0  0  0  0  0  0  0  0  0
   44.1560   31.5510   37.2630 C   0  0  0  0  0  0  0  0  0  0  0  0
   42.8810   31.5760   36.7160 C   0  0  0  0  0  0  0  0  0  0  0  0
   41.8420   32.1640   37.3840 C   0  0  0  0  0  0  0  0  0  0  0  0
   41.9870   32.7490   38.6050 C   0  0  0  0  0  0  0  0  0  0  0  0
   40.4080   34.3670   41.0680 H   0  0  0  0  0  0  0  0  0  0  0  0
   42.6240   34.3200   41.9910 H   0  0  0  0  0  0  0  0  0  0  0  0
   44.4840   33.2820   40.8060 H   0  0  0  0  0  0  0  0  0  0  0  0
   45.2990   32.1220   38.9150 H   0  0  0  0  0  0  0  0  0  0  0  0
   44.9710   31.0800   36.7260 H   0  0  0  0  0  0  0  0  0  0  0  0
   42.7620   31.1090   35.7430 H   0  0  0  0  0  0  0  0  0  0  0  0
   40.6020   32.1700   36.7920 O   0  0  0  0  0  0  0  0  0  0  0  0
   40.4860   32.5270   35.8360 H   0  0  0  0  0  0  0  0  0  0  0  0
  1  4  1  6  0  0  0
  1 12  1  0  0  0  0
  1  3  1  0  0  0  0
  1  2  1  0  0  0  0
  2  6  1  0  0  0  0
  3  2  1  0  0  0  0
  3  7  1  1  0  0  0
  5  2  1  0  0  0  0
  8  9  1  0  0  0  0
  9 15  1  0  0  0  0
  9 10  2  0  0  0  0
 10 16  1  0  0  0  0
 11 10  1  0  0  0  0
 12 11  2  0  0  0  0
 13  8  2  0  0  0  0
 13 12  1  0  0  0  0
 14  8  1  0  0  0  0
 16 17  1  0  0  0  0
 17 18  1  0  0  0  0
 19 18  1  0  0  0  0
 20 19  1  0  0  0  0
 21 16  1  0  0  0  0
 21 20  1  0  0  0  0
 22 24  1  0  0  0  0
 22  3  1  0  0  0  0
 23 22  1  0  0  0  0
 24 25  1  0  0  0  0
 25 26  2  0  0  0  0
 25 34  1  0  0  0  0
 26 35  1  0  0  0  0
 27 36  1  0  0  0  0
 27 26  1  0  0  0  0
 28 27  2  0  0  0  0
 29 37  1  0  0  0  0
 29 28  1  0  0  0  0
 30 29  2  0  0  0  0
 31 30  1  0  0  0  0
 31 32  2  0  0  0  0
 32 33  1  0  0  0  0
 33 28  1  0  0  0  0
 33 24  2  0  0  0  0
 38 30  1  0  0  0  0
 39 31  1  0  0  0  0
 40 32  1  0  0  0  0
 41 40  1  0  0  0  0
M  END
>  <minimizedAffinity>
-6.87127066

$$$$

 OpenBabel03242511153D

 41 45  0  0  1  0  0  0  0  0999 V2000
   37.4300   31.6950   39.1610 C   0  0  1  0  0  0  0  0  0  0  0  0
   37.7050   30.8530   37.9470 C   0  0  0  0  0  0  0  0  0  0  0  0
   37.8710   30.3200   39.3990 C   0  0  2  0  0  0  0  0  0  0  0  0
   36.3800   31.9070   39.3530 H   0  0  0  0  0  0  0  0  0  0  0  0
   36.8760   30.4340   37.3560 H   0  0  0  0  0  0  0  0  0  0  0  0
   38.6570   31.0210   37.4060 H   0  0  0  0  0  0  0  0  0  0  0  0
   38.9170   30.1660   39.7460 H   0  0  0  0  0  0  0  0  0  0  0  0
   38.6450   35.0430   40.1790 C   0  0  0  0  0  0  0  0  0  0  0  0
   40.0690   34.8980   40.0140 C   0  0  0  0  0  0  0  0  0  0  0  0
   40.5650   33.6370   39.5550 C   0  0  0  0  0  0  0  0  0  0  0  0
   39.7040   32.6610   39.3020 N   0  0  0  0  0  0  0  0  0  0  0  0
   38.3610   32.8410   39.4710 C   0  0  0  0  0  0  0  0  0  0  0  0
   37.8210   34.0220   39.9080 N   0  0  0  0  0  0  0  0  0  0  0  0
   38.3640   36.0220   40.5280 H   0  0  0  0  0  0  0  0  0  0  0  0
   40.7780   35.6640   40.2100 H   0  0  0  0  0  0  0  0  0  0  0  0
   42.0360   33.4940   39.3860 C   0  0  0  0  0  3  0  0  0  0  0  0
   42.4100   34.1170   38.0970 C   0  0  0  0  0  2  0  0  0  0  0  0
   43.7370   33.6650   37.5340 C   0  0  0  0  0  2  0  0  0  0  0  0
   43.6200   32.1570   37.3590 C   0  0  0  0  0  2  0  0  0  0  0  0
   43.5660   31.5880   38.7550 C   0  0  0  0  0  2  0  0  0  0  0  0
   42.3880   32.0520   39.5420 C   0  0  0  0  0  2  0  0  0  0  0  0
   36.9080   29.3570   39.8360 N   0  0  0  0  0  0  0  0  0  0  0  0
   36.1430   29.4130   39.1360 H   0  0  0  0  0  0  0  0  0  0  0  0
   37.0960   28.5980   41.0010 C   0  0  0  0  0  0  0  0  0  0  0  0
   37.3230   29.2370   42.1960 C   0  0  0  0  0  0  0  0  0  0  0  0
   37.4440   28.5630   43.4010 C   0  0  0  0  0  0  0  0  0  0  0  0
   37.3380   27.1900   43.4530 C   0  0  0  0  0  0  0  0  0  0  0  0
   37.1100   26.5270   42.2680 C   0  0  0  0  0  0  0  0  0  0  0  0
   36.9950   25.1500   42.2980 C   0  0  0  0  0  0  0  0  0  0  0  0
   36.7680   24.4210   41.1680 C   0  0  0  0  0  0  0  0  0  0  0  0
   36.6580   25.1300   39.9810 C   0  0  0  0  0  0  0  0  0  0  0  0
   36.7740   26.4930   39.9640 C   0  0  0  0  0  0  0  0  0  0  0  0
   36.9980   27.2280   41.0880 C   0  0  0  0  0  0  0  0  0  0  0  0
   37.4280   30.3150   42.2970 H   0  0  0  0  0  0  0  0  0  0  0  0
   37.6240   29.0660   44.3390 H   0  0  0  0  0  0  0  0  0  0  0  0
   37.4270   26.6370   44.3780 H   0  0  0  0  0  0  0  0  0  0  0  0
   37.0820   24.6040   43.2250 H   0  0  0  0  0  0  0  0  0  0  0  0
   36.6720   23.3410   41.1700 H   0  0  0  0  0  0  0  0  0  0  0  0
   36.4780   24.5470   39.0820 H   0  0  0  0  0  0  0  0  0  0  0  0
   36.6680   27.1450   38.7580 O   0  0  0  0  0  0  0  0  0  0  0  0
   37.2490   26.8600   37.9620 H   0  0  0  0  0  0  0  0  0  0  0  0
  1  4  1  1  0  0  0
  1  3  1  0  0  0  0
  1 12  1  0  0  0  0
  2  1  1  0  0  0  0
  2  3  1  0  0  0  0
  3  7  1  1  0  0  0
  3 22  1  0  0  0  0
  5  2  1  0  0  0  0
  6  2  1  0  0  0  0
  8 14  1  0  0  0  0
  9  8  1  0  0  0  0
  9 15  1  0  0  0  0
 10  9  2  0  0  0  0
 11 12  2  0  0  0  0
 11 10  1  0  0  0  0
 12 13  1  0  0  0  0
 13  8  2  0  0  0  0
 16 21  1  0  0  0  0
 16 10  1  0  0  0  0
 17 16  1  0  0  0  0
 18 17  1  0  0  0  0
 19 18  1  0  0  0  0
 19 20  1  0  0  0  0
 20 21  1  0  0  0  0
 22 24  1  0  0  0  0
 23 22  1  0  0  0  0
 24 33  2  0  0  0  0
 24 25  1  0  0  0  0
 25 34  1  0  0  0  0
 25 26  2  0  0  0  0
 26 27  1  0  0  0  0
 26 35  1  0  0  0  0
 27 36  1  0  0  0  0
 28 29  1  0  0  0  0
 28 27  2  0  0  0  0
 29 37  1  0  0  0  0
 30 38  1  0  0  0  0
 30 29  2  0  0  0  0
 31 30  1  0  0  0  0
 32 31  2  0  0  0  0
 32 33  1  0  0  0  0
 33 28  1  0  0  0  0
 39 31  1  0  0  0  0
 40 32  1  0  0  0  0
 41 40  1  0  0  0  0
M  END
>  <minimizedAffinity>
-6.84170723

$$$$

 OpenBabel03242511153D

 41 45  0  0  1  0  0  0  0  0999 V2000
   36.8060   27.2330   42.2990 C   0  0  1  0  0  0  0  0  0  0  0  0
   36.2930   27.3610   43.7060 C   0  0  0  0  0  0  0  0  0  0  0  0
   37.6010   28.0490   43.2180 C   0  0  2  0  0  0  0  0  0  0  0  0
   36.2350   27.7700   41.5440 H   0  0  0  0  0  0  0  0  0  0  0  0
   35.4410   28.0190   43.9340 H   0  0  0  0  0  0  0  0  0  0  0  0
   36.4510   26.5060   44.3940 H   0  0  0  0  0  0  0  0  0  0  0  0
   38.5520   27.6170   43.6010 H   0  0  0  0  0  0  0  0  0  0  0  0
   38.8660   24.1600   42.1140 C   0  0  0  0  0  0  0  0  0  0  0  0
   38.2790   23.4850   40.9850 C   0  0  0  0  0  0  0  0  0  0  0  0
   37.1810   24.1180   40.3220 C   0  0  0  0  0  0  0  0  0  0  0  0
   36.7500   25.2890   40.7670 N   0  0  0  0  0  0  0  0  0  0  0  0
   37.3350   25.8960   41.8420 C   0  0  0  0  0  0  0  0  0  0  0  0
   38.3900   25.3440   42.5210 N   0  0  0  0  0  0  0  0  0  0  0  0
   39.6840   23.6110   42.5500 H   0  0  0  0  0  0  0  0  0  0  0  0
   38.6060   22.5460   40.6100 H   0  0  0  0  0  0  0  0  0  0  0  0
   36.5800   23.4150   39.1570 C   0  0  0  0  0  3  0  0  0  0  0  0
   35.1330   23.2490   39.4200 C   0  0  0  0  0  2  0  0  0  0  0  0
   34.4580   22.1700   38.6080 C   0  0  0  0  0  2  0  0  0  0  0  0
   35.1920   20.8780   38.9450 C   0  0  0  0  0  2  0  0  0  0  0  0
   36.5690   21.0240   38.3460 C   0  0  0  0  0  2  0  0  0  0  0  0
   37.3490   22.1590   38.9180 C   0  0  0  0  0  2  0  0  0  0  0  0
   37.5570   29.4720   43.0850 N   0  0  0  0  0  0  0  0  0  0  0  0
   36.7070   29.7600   43.6070 H   0  0  0  0  0  0  0  0  0  0  0  0
   38.5200   30.1770   42.3460 C   0  0  0  0  0  0  0  0  0  0  0  0
   39.8470   30.0610   42.6800 C   0  0  0  0  0  0  0  0  0  0  0  0
   40.8630   30.6650   41.9560 C   0  0  0  0  0  0  0  0  0  0  0  0
   40.5770   31.4250   40.8440 C   0  0  0  0  0  0  0  0  0  0  0  0
   39.2530   31.5570   40.4890 C   0  0  0  0  0  0  0  0  0  0  0  0
   38.9450   32.3110   39.3720 C   0  0  0  0  0  0  0  0  0  0  0  0
   37.6580   32.4870   38.9550 C   0  0  0  0  0  0  0  0  0  0  0  0
   36.6690   31.8720   39.7090 C   0  0  0  0  0  0  0  0  0  0  0  0
   36.9880   31.1280   40.8120 C   0  0  0  0  0  0  0  0  0  0  0  0
   38.2690   30.9450   41.2330 C   0  0  0  0  0  0  0  0  0  0  0  0
   40.2110   29.4920   43.5340 H   0  0  0  0  0  0  0  0  0  0  0  0
   41.9060   30.5740   42.2200 H   0  0  0  0  0  0  0  0  0  0  0  0
   41.3490   31.9070   40.2580 H   0  0  0  0  0  0  0  0  0  0  0  0
   39.7190   32.7870   38.7910 H   0  0  0  0  0  0  0  0  0  0  0  0
   37.3940   33.0730   38.0810 H   0  0  0  0  0  0  0  0  0  0  0  0
   35.6460   32.0160   39.3750 H   0  0  0  0  0  0  0  0  0  0  0  0
   35.9670   30.5500   41.5280 O   0  0  0  0  0  0  0  0  0  0  0  0
   35.1800   31.1180   41.8600 H   0  0  0  0  0  0  0  0  0  0  0  0
  1  4  1  6  0  0  0
  1  3  1  0  0  0  0
  1  2  1  0  0  0  0
  2  5  1  0  0  0  0
  2  6  1  0  0  0  0
  3  7  1  1  0  0  0
  3  2  1  0  0  0  0
  8 13  1  0  0  0  0
  8 14  1  0  0  0  0
  9  8  2  0  0  0  0
 10 11  2  0  0  0  0
 10  9  1  0  0  0  0
 11 12  1  0  0  0  0
 12  1  1  0  0  0  0
 12 13  2  0  0  0  0
 15  9  1  0  0  0  0
 16 17  1  0  0  0  0
 16 10  1  0  0  0  0
 18 19  1  0  0  0  0
 18 17  1  0  0  0  0
 20 21  1  0  0  0  0
 20 19  1  0  0  0  0
 21 16  1  0  0  0  0
 22  3  1  0  0  0  0
 22 23  1  0  0  0  0
 24 25  1  0  0  0  0
 24 22  1  0  0  0  0
 25 34  1  0  0  0  0
 26 35  1  0  0  0  0
 26 25  2  0  0  0  0
 27 26  1  0  0  0  0
 28 27  2  0  0  0  0
 28 33  1  0  0  0  0
 29 28  1  0  0  0  0
 30 29  2  0  0  0  0
 30 31  1  0  0  0  0
 31 32  2  0  0  0  0
 32 33  1  0  0  0  0
 32 40  1  0  0  0  0
 33 24  2  0  0  0  0
 36 27  1  0  0  0  0
 37 29  1  0  0  0  0
 38 30  1  0  0  0  0
 39 31  1  0  0  0  0
 40 41  1  0  0  0  0
M  END
>  <minimizedAffinity>
-6.69880772

$$$$
