
     RDKit          3D

 26 27  0  0  0  0  0  0  0  0999 V2000
   44.6402   35.9923   44.3770 C   0  0  0  0  0  0  0  0  0  0  0  0
   45.4333   35.6399   43.2703 C   0  0  0  0  0  0  0  0  0  0  0  0
   46.2235   34.4923   43.3729 C   0  0  0  0  0  0  0  0  0  0  0  0
   46.1826   33.7818   44.5328 N   0  0  0  0  0  0  0  0  0  0  0  0
   45.4096   34.1444   45.5823 C   0  0  0  0  0  0  0  0  0  0  0  0
   44.6347   35.2533   45.5066 N   0  0  0  0  0  0  0  0  0  0  0  0
   44.0151   36.8886   44.3134 H   0  0  0  0  0  0  0  0  0  0  0  0
   45.4456   36.2149   42.3749 H   0  0  0  0  0  0  0  0  0  0  0  0
   46.8653   34.1424   42.5755 H   0  0  0  0  0  0  0  0  0  0  0  0
   45.4225   33.3105   46.8175 C   0  0  0  0  0  0  0  0  0  0  0  0
   44.0401   33.3080   47.3504 C   0  0  0  0  0  0  0  0  0  0  0  0
   43.8368   34.1737   48.5632 C   0  0  0  0  0  0  0  0  0  0  0  0
   44.8170   33.6874   49.5979 C   0  0  0  0  0  0  0  0  0  0  0  0
   46.2303   33.8364   49.1703 C   0  0  0  0  0  0  0  0  0  0  0  0
   46.4970   33.7996   47.7134 C   0  0  0  0  0  0  0  0  0  0  0  0
   45.6371   32.2687   46.4557 H   0  0  0  0  0  0  0  0  0  0  0  0
   43.2807   33.6224   46.6028 H   0  0  0  0  0  0  0  0  0  0  0  0
   43.7085   32.2729   47.6414 H   0  0  0  0  0  0  0  0  0  0  0  0
   44.0433   35.2183   48.3565 H   0  0  0  0  0  0  0  0  0  0  0  0
   42.8299   33.9308   48.9470 H   0  0  0  0  0  0  0  0  0  0  0  0
   44.6183   32.6224   49.8810 H   0  0  0  0  0  0  0  0  0  0  0  0
   44.6158   34.2596   50.5275 H   0  0  0  0  0  0  0  0  0  0  0  0
   46.6193   34.7839   49.6365 H   0  0  0  0  0  0  0  0  0  0  0  0
   46.8267   33.0497   49.7224 H   0  0  0  0  0  0  0  0  0  0  0  0
   46.8520   34.8041   47.3940 H   0  0  0  0  0  0  0  0  0  0  0  0
   47.4020   33.1543   47.5442 H   0  0  0  0  0  0  0  0  0  0  0  0
  1  6  2  0
  2  3  2  0
  2  1  1  0
  3  4  1  0
  4  5  2  0
  6  5  1  0
  1  7  1  0
  2  8  1  0
  3  9  1  0
 10 11  1  0
 11 12  1  0
 12 13  1  0
 13 14  1  0
 14 15  1  0
 15 10  1  0
 10 16  1  0
 11 17  1  0
 11 18  1  0
 12 19  1  0
 12 20  1  0
 13 21  1  0
 13 22  1  0
 14 23  1  0
 14 24  1  0
 15 25  1  0
 15 26  1  0
  5 10  1  0
M  ISO  3   7  14   8  14   9  14
M  END
>  <DihAtoms>  (1) 
3,4,9,10

>  <DihDeg>  (1) 
-113.31559232805266

$$$$
