
 OpenBabel03242513183D

 34 37  0  0  0  0  0  0  0  0999 V2000
   44.8880   30.6860   47.9300 Cl  0  0  0  0  0  0  0  0  0  0  0  0
   45.9870   30.1190   46.6660 C   0  0  0  0  0  0  0  0  0  0  0  0
   46.8670   31.0040   46.0880 C   0  0  0  0  0  0  0  0  0  0  0  0
   47.7000   30.5210   45.1260 C   0  0  0  0  0  0  0  0  0  0  0  0
   47.6600   29.1960   44.7470 C   0  0  0  0  0  0  0  0  0  0  0  0
   46.7690   28.3140   45.3350 C   0  0  0  0  0  0  0  0  0  0  0  0
   45.9240   28.8060   46.3130 C   0  0  0  0  0  0  0  0  0  0  0  0
   48.3880   31.2400   44.6820 H   0  0  0  0  0  0  0  0  0  0  0  0
   48.3540   28.8980   43.9790 H   0  0  0  0  0  0  0  0  0  0  0  0
   46.7720   27.2830   45.0080 H   0  0  0  0  0  0  0  0  0  0  0  0
   45.0190   27.7990   46.8650 C   0  0  0  0  0  0  0  0  0  0  0  0
   43.8680   27.2460   46.3270 C   0  0  0  0  0  0  0  0  0  0  0  0
   43.2950   26.3210   47.1630 C   0  0  0  0  0  0  0  0  0  0  0  0
   44.1640   26.3410   48.2430 C   0  0  0  0  0  0  0  0  0  0  0  0
   45.1100   27.1910   48.0130 O   0  0  0  0  0  0  0  0  0  0  0  0
   43.4680   27.5270   45.3370 H   0  0  0  0  0  0  0  0  0  0  0  0
   42.4160   25.7230   47.0530 H   0  0  0  0  0  0  0  0  0  0  0  0
   44.1080   25.7530   49.1690 H   0  0  0  0  0  0  0  0  0  0  0  0
   46.8590   32.3960   46.5230 C   0  0  0  0  0  0  0  0  0  0  0  0
   47.3770   32.6640   47.6300 O   0  0  0  0  0  0  0  0  0  0  0  0
   44.6560   35.0730   45.4340 C   0  0  0  0  0  0  0  0  0  0  0  0
   45.0540   35.3850   44.1330 C   0  0  0  0  0  0  0  0  0  0  0  0
   46.1100   34.6400   43.6430 C   0  0  0  0  0  0  0  0  0  0  0  0
   46.6730   33.6790   44.4440 N   0  0  0  0  0  0  0  0  0  0  0  0
   46.2610   33.4180   45.6730 C   0  0  0  0  0  0  0  0  0  0  0  0
   45.2350   34.1300   46.1690 N   0  0  0  0  0  0  0  0  0  0  0  0
   43.8260   35.6270   45.8770 H   0  0  0  0  0  0  0  0  0  0  0  0
   44.5440   36.1600   43.5870 H   0  0  0  0  0  0  0  0  0  0  0  0
   46.6020   34.8930   42.2850 C   0  0  0  0  0  0  0  0  0  0  0  0
   48.1010   35.0470   42.2370 C   0  0  0  0  0  0  0  0  0  0  0  0
   48.5170   35.2160   40.7880 C   0  0  0  0  0  0  0  0  0  0  0  0
   48.1830   33.8910   40.1170 C   0  0  0  0  0  0  0  0  0  0  0  0
   46.6770   33.8550   39.9980 C   0  0  0  0  0  0  0  0  0  0  0  0
   46.0900   33.8070   41.3820 C   0  0  0  0  0  0  0  0  0  0  0  0
  2  1  1  0  0  0  0
  3 19  1  0  0  0  0
  3  2  2  0  0  0  0
  4  3  1  0  0  0  0
  5  4  2  0  0  0  0
  5  6  1  0  0  0  0
  6  7  2  0  0  0  0
  7  2  1  0  0  0  0
  7 11  1  0  0  0  0
  8  4  1  0  0  0  0
  9  5  1  0  0  0  0
 10  6  1  0  0  0  0
 11 15  1  0  0  0  0
 12 11  2  0  0  0  0
 12 13  1  0  0  0  0
 13 14  2  0  0  0  0
 14 18  1  0  0  0  0
 15 14  1  0  0  0  0
 16 12  1  0  0  0  0
 17 13  1  0  0  0  0
 19 20  2  0  0  0  0
 21 27  1  0  0  0  0
 21 26  1  0  0  0  0
 22 21  2  0  0  0  0
 23 22  1  0  0  0  0
 23 24  2  0  0  0  0
 24 25  1  0  0  0  0
 25 26  2  0  0  0  0
 25 19  1  0  0  0  0
 28 22  1  0  0  0  0
 29 23  1  0  0  0  0
 30 29  1  0  0  0  0
 31 30  1  0  0  0  0
 32 31  1  0  0  0  0
 33 32  1  0  0  0  0
 33 34  1  0  0  0  0
 34 29  1  0  0  0  0
M  END
>  <minimizedAffinity>
-6.40804911

>  <minimizedRMSD>
0.559440613

$$$$
