
 OpenBabel03252505593D

 33 35  0  0  0  0  0  0  0  0999 V2000
   36.5920   31.5490   40.5930 C   0  0  0  0  0  0  0  0  0  0  0  0
   37.9220   32.0140   40.6110 C   0  0  0  0  0  0  0  0  0  0  0  0
   38.8960   31.2280   41.2620 C   0  0  0  0  0  0  0  0  0  0  0  0
   38.4660   30.0780   41.8240 N   0  0  0  0  0  0  0  0  0  0  0  0
   37.2000   29.6700   41.7880 C   0  0  0  0  0  0  0  0  0  0  0  0
   36.2590   30.3900   41.1800 N   0  0  0  0  0  0  0  0  0  0  0  0
   35.8500   32.1650   40.0880 H   0  0  0  0  0  0  0  0  0  0  0  0
   40.2940   31.6360   41.3300 C   0  0  0  0  0  3  0  0  0  0  0  0
   41.1640   31.0480   40.2450 C   0  0  0  0  0  2  0  0  0  0  0  0
   42.6230   31.1400   40.6490 C   0  0  0  0  0  2  0  0  0  0  0  0
   42.8400   32.1230   41.7830 C   0  0  0  0  0  2  0  0  0  0  0  0
   42.1790   31.5160   43.0020 C   0  0  0  0  0  2  0  0  0  0  0  0
   40.8810   30.9190   42.5810 C   0  0  0  0  0  2  0  0  0  0  0  0
   38.2460   33.2990   39.9440 C   0  0  0  0  0  0  0  0  0  0  0  0
   38.7180   34.1110   40.9730 F   0  0  0  0  0  0  0  0  0  0  0  0
   37.0350   33.8660   39.5330 F   0  0  0  0  0  0  0  0  0  0  0  0
   39.1610   33.1420   39.0000 F   0  0  0  0  0  0  0  0  0  0  0  0
   36.7780   28.4780   42.3730 O   0  0  0  0  0  0  0  0  0  0  0  0
   37.3600   28.0110   43.5740 C   0  0  0  0  0  0  0  0  0  0  0  0
   37.9840   28.8060   44.0520 H   0  0  0  0  0  0  0  0  0  0  0  0
   36.5490   27.6830   44.2510 H   0  0  0  0  0  0  0  0  0  0  0  0
   38.1580   26.8170   43.2450 C   0  0  0  0  0  0  0  0  0  0  0  0
   39.4130   26.4380   43.6760 C   0  0  0  0  0  0  0  0  0  0  0  0
   39.9280   25.2660   43.2100 C   0  0  0  0  0  0  0  0  0  0  0  0
   39.2670   24.4860   42.3600 N   0  0  0  0  0  0  0  0  0  0  0  0
   38.0480   24.8620   41.9460 C   0  0  0  0  0  0  0  0  0  0  0  0
   37.4650   26.0260   42.3730 N   0  0  0  0  0  0  0  0  0  0  0  0
   39.8330   27.1470   44.3500 H   0  0  0  0  0  0  0  0  0  0  0  0
   40.9160   25.0180   43.5800 H   0  0  0  0  0  0  0  0  0  0  0  0
   37.3810   23.9270   40.9980 C   0  0  0  0  0  0  0  0  0  0  0  0
   37.9150   22.6650   41.0800 F   0  0  0  0  0  0  0  0  0  0  0  0
   37.5300   24.3950   39.6920 F   0  0  0  0  0  0  0  0  0  0  0  0
   36.0250   23.8220   41.2350 F   0  0  0  0  0  0  0  0  0  0  0  0
  1  2  2  0  0  0  0
  1  6  1  0  0  0  0
  2  3  1  0  0  0  0
  3  8  1  0  0  0  0
  3  4  2  0  0  0  0
  5  4  1  0  0  0  0
  5 18  1  0  0  0  0
  6  5  2  0  0  0  0
  7  1  1  0  0  0  0
  8 13  1  0  0  0  0
  9 10  1  0  0  0  0
  9  8  1  0  0  0  0
 10 11  1  0  0  0  0
 11 12  1  0  0  0  0
 13 12  1  0  0  0  0
 14  2  1  0  0  0  0
 14 15  1  0  0  0  0
 16 14  1  0  0  0  0
 17 14  1  0  0  0  0
 18 19  1  0  0  0  0
 19 20  1  0  0  0  0
 19 21  1  0  0  0  0
 22 19  1  0  0  0  0
 22 23  1  0  0  0  0
 23 28  1  0  0  0  0
 24 29  1  0  0  0  0
 24 23  2  0  0  0  0
 25 24  1  0  0  0  0
 26 25  2  0  0  0  0
 26 27  1  0  0  0  0
 27 22  2  0  0  0  0
 30 31  1  0  0  0  0
 30 33  1  0  0  0  0
 30 26  1  0  0  0  0
 32 30  1  0  0  0  0
M  END
>  <minimizedAffinity>
-6.24416637

$$$$

 OpenBabel03252505593D

 33 35  0  0  0  0  0  0  0  0999 V2000
   39.2000   31.4770   40.8510 C   0  0  0  0  0  0  0  0  0  0  0  0
   38.2360   31.2430   39.8510 C   0  0  0  0  0  0  0  0  0  0  0  0
   37.2340   30.2820   40.1010 C   0  0  0  0  0  0  0  0  0  0  0  0
   37.2820   29.6570   41.2970 N   0  0  0  0  0  0  0  0  0  0  0  0
   38.2090   29.9040   42.2190 C   0  0  0  0  0  0  0  0  0  0  0  0
   39.1680   30.8060   42.0120 N   0  0  0  0  0  0  0  0  0  0  0  0
   39.9680   32.2200   40.6460 H   0  0  0  0  0  0  0  0  0  0  0  0
   36.2000   29.9750   39.1190 C   0  0  0  0  0  3  0  0  0  0  0  0
   34.9220   29.4350   39.7140 C   0  0  0  0  0  2  0  0  0  0  0  0
   34.1130   28.7310   38.6420 C   0  0  0  0  0  2  0  0  0  0  0  0
   34.5740   29.0990   37.2460 C   0  0  0  0  0  2  0  0  0  0  0  0
   35.9560   28.5020   37.0850 C   0  0  0  0  0  2  0  0  0  0  0  0
   36.7070   28.7170   38.3540 C   0  0  0  0  0  2  0  0  0  0  0  0
   38.3070   32.0120   38.5840 C   0  0  0  0  0  0  0  0  0  0  0  0
   39.3160   32.9460   38.8050 F   0  0  0  0  0  0  0  0  0  0  0  0
   37.1200   32.7450   38.4810 F   0  0  0  0  0  0  0  0  0  0  0  0
   38.5940   31.2310   37.5550 F   0  0  0  0  0  0  0  0  0  0  0  0
   38.2400   29.2480   43.4480 O   0  0  0  0  0  0  0  0  0  0  0  0
   37.4540   28.0960   43.6780 C   0  0  0  0  0  0  0  0  0  0  0  0
   37.1290   28.0400   44.7450 H   0  0  0  0  0  0  0  0  0  0  0  0
   36.5820   28.1250   42.9980 H   0  0  0  0  0  0  0  0  0  0  0  0
   38.2620   26.9250   43.2940 C   0  0  0  0  0  0  0  0  0  0  0  0
   39.5380   26.5610   43.6720 C   0  0  0  0  0  0  0  0  0  0  0  0
   40.0580   25.4090   43.1620 C   0  0  0  0  0  0  0  0  0  0  0  0
   39.3820   24.6350   42.3190 N   0  0  0  0  0  0  0  0  0  0  0  0
   38.1420   24.9960   41.9570 C   0  0  0  0  0  0  0  0  0  0  0  0
   37.5530   26.1400   42.4290 N   0  0  0  0  0  0  0  0  0  0  0  0
   39.9690   27.2630   44.3460 H   0  0  0  0  0  0  0  0  0  0  0  0
   41.0630   25.1720   43.4920 H   0  0  0  0  0  0  0  0  0  0  0  0
   37.4600   24.0690   41.0120 C   0  0  0  0  0  0  0  0  0  0  0  0
   36.0990   24.0750   41.1970 F   0  0  0  0  0  0  0  0  0  0  0  0
   37.9340   22.7710   41.1990 F   0  0  0  0  0  0  0  0  0  0  0  0
   37.7010   24.3990   39.6920 F   0  0  0  0  0  0  0  0  0  0  0  0
  1  6  1  0  0  0  0
  2  3  1  0  0  0  0
  2  1  2  0  0  0  0
  3  4  2  0  0  0  0
  4  5  1  0  0  0  0
  5 18  1  0  0  0  0
  6  5  2  0  0  0  0
  7  1  1  0  0  0  0
  8  9  1  0  0  0  0
  8  3  1  0  0  0  0
 10  9  1  0  0  0  0
 11 10  1  0  0  0  0
 12 11  1  0  0  0  0
 12 13  1  0  0  0  0
 13  8  1  0  0  0  0
 14 15  1  0  0  0  0
 14  2  1  0  0  0  0
 16 14  1  0  0  0  0
 17 14  1  0  0  0  0
 18 19  1  0  0  0  0
 19 20  1  0  0  0  0
 21 19  1  0  0  0  0
 22 23  1  0  0  0  0
 22 19  1  0  0  0  0
 23 28  1  0  0  0  0
 24 29  1  0  0  0  0
 24 23  2  0  0  0  0
 25 24  1  0  0  0  0
 26 25  2  0  0  0  0
 26 27  1  0  0  0  0
 27 22  2  0  0  0  0
 30 31  1  0  0  0  0
 30 32  1  0  0  0  0
 30 26  1  0  0  0  0
 33 30  1  0  0  0  0
M  END
>  <minimizedAffinity>
-6.08894348

$$$$

 OpenBabel03252505593D

 33 35  0  0  0  0  0  0  0  0999 V2000
   36.9200   30.2700   37.8600 C   0  0  0  0  0  0  0  0  0  0  0  0
   36.4950   29.5320   38.9840 C   0  0  0  0  0  0  0  0  0  0  0  0
   37.3410   29.4860   40.1120 C   0  0  0  0  0  0  0  0  0  0  0  0
   38.5050   30.1640   40.0210 N   0  0  0  0  0  0  0  0  0  0  0  0
   38.8740   30.8510   38.9430 C   0  0  0  0  0  0  0  0  0  0  0  0
   38.0970   30.9120   37.8630 N   0  0  0  0  0  0  0  0  0  0  0  0
   36.2590   30.2970   36.9970 H   0  0  0  0  0  0  0  0  0  0  0  0
   36.9800   28.7440   41.3140 C   0  0  0  0  0  3  0  0  0  0  0  0
   37.5580   29.3100   42.5880 C   0  0  0  0  0  2  0  0  0  0  0  0
   37.5260   28.2580   43.6800 C   0  0  0  0  0  2  0  0  0  0  0  0
   36.5900   27.1140   43.3420 C   0  0  0  0  0  2  0  0  0  0  0  0
   37.2180   26.3840   42.1740 C   0  0  0  0  0  2  0  0  0  0  0  0
   37.7590   27.3980   41.2260 C   0  0  0  0  0  2  0  0  0  0  0  0
   35.1830   28.8410   38.9390 C   0  0  0  0  0  0  0  0  0  0  0  0
   34.5840   29.3130   37.7740 F   0  0  0  0  0  0  0  0  0  0  0  0
   34.4170   29.3440   39.9960 F   0  0  0  0  0  0  0  0  0  0  0  0
   35.3270   27.5250   38.9060 F   0  0  0  0  0  0  0  0  0  0  0  0
   40.0810   31.5450   38.8710 O   0  0  0  0  0  0  0  0  0  0  0  0
   40.3560   32.4130   37.7900 C   0  0  0  0  0  0  0  0  0  0  0  0
   39.7980   32.1010   36.8740 H   0  0  0  0  0  0  0  0  0  0  0  0
   40.0840   33.4420   38.0900 H   0  0  0  0  0  0  0  0  0  0  0  0
   41.8130   32.3980   37.5700 C   0  0  0  0  0  0  0  0  0  0  0  0
   42.7910   33.2620   38.0180 C   0  0  0  0  0  0  0  0  0  0  0  0
   44.0830   33.0140   37.6640 C   0  0  0  0  0  0  0  0  0  0  0  0
   44.4270   31.9770   36.9080 N   0  0  0  0  0  0  0  0  0  0  0  0
   43.4710   31.1410   36.4760 C   0  0  0  0  0  0  0  0  0  0  0  0
   42.1500   31.3260   36.7920 N   0  0  0  0  0  0  0  0  0  0  0  0
   42.3850   34.0480   38.6110 H   0  0  0  0  0  0  0  0  0  0  0  0
   44.8090   33.7240   38.0430 H   0  0  0  0  0  0  0  0  0  0  0  0
   43.9470   30.0070   35.6360 C   0  0  0  0  0  0  0  0  0  0  0  0
   44.6010   29.0650   36.3900 F   0  0  0  0  0  0  0  0  0  0  0  0
   44.8170   30.4820   34.6540 F   0  0  0  0  0  0  0  0  0  0  0  0
   42.9110   29.3710   34.9810 F   0  0  0  0  0  0  0  0  0  0  0  0
  1  6  2  0  0  0  0
  1  2  1  0  0  0  0
  2  3  2  0  0  0  0
  3  8  1  0  0  0  0
  4  3  1  0  0  0  0
  5  4  2  0  0  0  0
  6  5  1  0  0  0  0
  7  1  1  0  0  0  0
  8  9  1  0  0  0  0
  9 10  1  0  0  0  0
 11 10  1  0  0  0  0
 12 11  1  0  0  0  0
 13  8  1  0  0  0  0
 13 12  1  0  0  0  0
 14  2  1  0  0  0  0
 14 16  1  0  0  0  0
 15 14  1  0  0  0  0
 17 14  1  0  0  0  0
 18  5  1  0  0  0  0
 19 21  1  0  0  0  0
 19 18  1  0  0  0  0
 20 19  1  0  0  0  0
 22 19  1  0  0  0  0
 22 23  1  0  0  0  0
 23 28  1  0  0  0  0
 24 23  2  0  0  0  0
 24 29  1  0  0  0  0
 25 24  1  0  0  0  0
 26 27  1  0  0  0  0
 26 25  2  0  0  0  0
 27 22  2  0  0  0  0
 30 31  1  0  0  0  0
 30 26  1  0  0  0  0
 32 30  1  0  0  0  0
 33 30  1  0  0  0  0
M  END
>  <minimizedAffinity>
-6.07755089

$$$$

 OpenBabel03252505593D

 33 35  0  0  0  0  0  0  0  0999 V2000
   36.2720   29.0590   39.1520 C   0  0  0  0  0  0  0  0  0  0  0  0
   37.1900   30.1040   38.9240 C   0  0  0  0  0  0  0  0  0  0  0  0
   37.9410   30.5840   40.0170 C   0  0  0  0  0  0  0  0  0  0  0  0
   37.7150   29.9940   41.2110 N   0  0  0  0  0  0  0  0  0  0  0  0
   36.8400   29.0090   41.3900 C   0  0  0  0  0  0  0  0  0  0  0  0
   36.1160   28.5340   40.3770 N   0  0  0  0  0  0  0  0  0  0  0  0
   35.6980   28.6990   38.3010 H   0  0  0  0  0  0  0  0  0  0  0  0
   38.9100   31.6650   39.8700 C   0  0  0  0  0  3  0  0  0  0  0  0
   40.2190   31.4240   40.5830 C   0  0  0  0  0  2  0  0  0  0  0  0
   40.9550   32.7370   40.7640 C   0  0  0  0  0  2  0  0  0  0  0  0
   40.4100   33.8260   39.8600 C   0  0  0  0  0  2  0  0  0  0  0  0
   39.0160   34.1370   40.3630 C   0  0  0  0  0  2  0  0  0  0  0  0
   38.3470   32.8510   40.7080 C   0  0  0  0  0  2  0  0  0  0  0  0
   37.3340   30.6520   37.5530 C   0  0  0  0  0  0  0  0  0  0  0  0
   36.2830   30.0790   36.8410 F   0  0  0  0  0  0  0  0  0  0  0  0
   38.5050   30.1090   37.0140 F   0  0  0  0  0  0  0  0  0  0  0  0
   37.2530   31.9740   37.5450 F   0  0  0  0  0  0  0  0  0  0  0  0
   36.6230   28.4120   42.6300 O   0  0  0  0  0  0  0  0  0  0  0  0
   37.6680   28.2990   43.5750 C   0  0  0  0  0  0  0  0  0  0  0  0
   38.3410   29.1890   43.5360 H   0  0  0  0  0  0  0  0  0  0  0  0
   37.2200   28.1840   44.5800 H   0  0  0  0  0  0  0  0  0  0  0  0
   38.3970   27.0520   43.2820 C   0  0  0  0  0  0  0  0  0  0  0  0
   39.6530   26.6400   43.6770 C   0  0  0  0  0  0  0  0  0  0  0  0
   40.0930   25.4210   43.2590 C   0  0  0  0  0  0  0  0  0  0  0  0
   39.3590   24.6250   42.4880 N   0  0  0  0  0  0  0  0  0  0  0  0
   38.1390   25.0320   42.1080 C   0  0  0  0  0  0  0  0  0  0  0  0
   37.6280   26.2450   42.4900 N   0  0  0  0  0  0  0  0  0  0  0  0
   40.1350   27.3670   44.2880 H   0  0  0  0  0  0  0  0  0  0  0  0
   41.0860   25.1490   43.5990 H   0  0  0  0  0  0  0  0  0  0  0  0
   37.3880   24.0770   41.2480 C   0  0  0  0  0  0  0  0  0  0  0  0
   36.0590   24.0330   41.5890 F   0  0  0  0  0  0  0  0  0  0  0  0
   37.9290   22.7980   41.3800 F   0  0  0  0  0  0  0  0  0  0  0  0
   37.4640   24.4090   39.9090 F   0  0  0  0  0  0  0  0  0  0  0  0
  1  6  1  0  0  0  0
  2  1  2  0  0  0  0
  2  3  1  0  0  0  0
  3  4  2  0  0  0  0
  4  5  1  0  0  0  0
  5 18  1  0  0  0  0
  6  5  2  0  0  0  0
  7  1  1  0  0  0  0
  8  3  1  0  0  0  0
  8  9  1  0  0  0  0
  8 13  1  0  0  0  0
  9 10  1  0  0  0  0
 11 12  1  0  0  0  0
 11 10  1  0  0  0  0
 12 13  1  0  0  0  0
 14  2  1  0  0  0  0
 15 14  1  0  0  0  0
 16 14  1  0  0  0  0
 17 14  1  0  0  0  0
 18 19  1  0  0  0  0
 19 21  1  0  0  0  0
 20 19  1  0  0  0  0
 22 19  1  0  0  0  0
 22 23  1  0  0  0  0
 23 28  1  0  0  0  0
 24 29  1  0  0  0  0
 24 23  2  0  0  0  0
 25 24  1  0  0  0  0
 26 25  2  0  0  0  0
 26 27  1  0  0  0  0
 27 22  2  0  0  0  0
 30 32  1  0  0  0  0
 30 31  1  0  0  0  0
 30 26  1  0  0  0  0
 33 30  1  0  0  0  0
M  END
>  <minimizedAffinity>
-6.0110817

$$$$

 OpenBabel03252505593D

 33 35  0  0  0  0  0  0  0  0999 V2000
   36.4760   24.1610   39.1190 C   0  0  0  0  0  0  0  0  0  0  0  0
   37.0540   24.7100   40.2810 C   0  0  0  0  0  0  0  0  0  0  0  0
   36.9780   26.1050   40.4700 C   0  0  0  0  0  0  0  0  0  0  0  0
   36.3460   26.8110   39.5070 N   0  0  0  0  0  0  0  0  0  0  0  0
   35.8120   26.2590   38.4220 C   0  0  0  0  0  0  0  0  0  0  0  0
   35.8680   24.9440   38.2160 N   0  0  0  0  0  0  0  0  0  0  0  0
   36.5430   23.0830   38.9840 H   0  0  0  0  0  0  0  0  0  0  0  0
   37.5530   26.7550   41.6430 C   0  0  0  0  0  3  0  0  0  0  0  0
   36.6230   27.7250   42.3310 C   0  0  0  0  0  2  0  0  0  0  0  0
   37.4210   28.6630   43.2150 C   0  0  0  0  0  2  0  0  0  0  0  0
   38.8190   28.1420   43.4850 C   0  0  0  0  0  2  0  0  0  0  0  0
   39.5550   28.1990   42.1630 C   0  0  0  0  0  2  0  0  0  0  0  0
   38.6280   27.7400   41.0920 C   0  0  0  0  0  2  0  0  0  0  0  0
   37.7130   23.8060   41.2550 C   0  0  0  0  0  0  0  0  0  0  0  0
   39.0690   24.1010   41.1380 F   0  0  0  0  0  0  0  0  0  0  0  0
   37.5610   22.5010   40.7730 F   0  0  0  0  0  0  0  0  0  0  0  0
   37.2810   24.0190   42.4880 F   0  0  0  0  0  0  0  0  0  0  0  0
   35.1630   27.0060   37.4410 O   0  0  0  0  0  0  0  0  0  0  0  0
   34.5740   28.2540   37.7470 C   0  0  0  0  0  0  0  0  0  0  0  0
   33.7510   28.4950   37.0300 H   0  0  0  0  0  0  0  0  0  0  0  0
   34.1970   28.2170   38.7870 H   0  0  0  0  0  0  0  0  0  0  0  0
   35.6420   29.2690   37.7110 C   0  0  0  0  0  0  0  0  0  0  0  0
   36.4420   29.6820   36.6660 C   0  0  0  0  0  0  0  0  0  0  0  0
   37.3660   30.6540   36.9070 C   0  0  0  0  0  0  0  0  0  0  0  0
   37.5190   31.2090   38.1050 N   0  0  0  0  0  0  0  0  0  0  0  0
   36.7370   30.8020   39.1160 C   0  0  0  0  0  0  0  0  0  0  0  0
   35.7860   29.8300   38.9490 N   0  0  0  0  0  0  0  0  0  0  0  0
   36.2200   29.1610   35.7650 H   0  0  0  0  0  0  0  0  0  0  0  0
   37.9680   30.9400   36.0510 H   0  0  0  0  0  0  0  0  0  0  0  0
   36.9780   31.4790   40.4200 C   0  0  0  0  0  0  0  0  0  0  0  0
   36.9920   32.8450   40.2810 F   0  0  0  0  0  0  0  0  0  0  0  0
   38.2030   31.0670   40.9460 F   0  0  0  0  0  0  0  0  0  0  0  0
   36.0120   31.1660   41.3570 F   0  0  0  0  0  0  0  0  0  0  0  0
  1  2  1  0  0  0  0
  2  3  2  0  0  0  0
  2 14  1  0  0  0  0
  3  8  1  0  0  0  0
  4  3  1  0  0  0  0
  5  4  2  0  0  0  0
  6  5  1  0  0  0  0
  6  1  2  0  0  0  0
  7  1  1  0  0  0  0
  8  9  1  0  0  0  0
  9 10  1  0  0  0  0
 10 11  1  0  0  0  0
 12 11  1  0  0  0  0
 13  8  1  0  0  0  0
 13 12  1  0  0  0  0
 14 17  1  0  0  0  0
 15 14  1  0  0  0  0
 16 14  1  0  0  0  0
 18 19  1  0  0  0  0
 18  5  1  0  0  0  0
 19 21  1  0  0  0  0
 20 19  1  0  0  0  0
 22 19  1  0  0  0  0
 22 27  1  0  0  0  0
 23 24  1  0  0  0  0
 23 22  2  0  0  0  0
 24 25  2  0  0  0  0
 25 26  1  0  0  0  0
 26 30  1  0  0  0  0
 27 26  2  0  0  0  0
 28 23  1  0  0  0  0
 29 24  1  0  0  0  0
 30 32  1  0  0  0  0
 30 33  1  0  0  0  0
 31 30  1  0  0  0  0
M  END
>  <minimizedAffinity>
-5.94650936

$$$$

 OpenBabel03252505593D

 33 35  0  0  0  0  0  0  0  0999 V2000
   36.4580   31.5270   40.5730 C   0  0  0  0  0  0  0  0  0  0  0  0
   37.8070   31.9280   40.6500 C   0  0  0  0  0  0  0  0  0  0  0  0
   38.7350   31.0440   41.2380 C   0  0  0  0  0  0  0  0  0  0  0  0
   38.2470   29.8670   41.6850 N   0  0  0  0  0  0  0  0  0  0  0  0
   36.9660   29.5210   41.5960 C   0  0  0  0  0  0  0  0  0  0  0  0
   36.0660   30.3350   41.0460 N   0  0  0  0  0  0  0  0  0  0  0  0
   35.7520   32.2180   40.1180 H   0  0  0  0  0  0  0  0  0  0  0  0
   40.1480   31.3820   41.3600 C   0  0  0  0  0  3  0  0  0  0  0  0
   41.0290   30.7510   40.3090 C   0  0  0  0  0  2  0  0  0  0  0  0
   42.4740   30.7710   40.7690 C   0  0  0  0  0  2  0  0  0  0  0  0
   42.6950   31.7410   41.9130 C   0  0  0  0  0  2  0  0  0  0  0  0
   41.9590   31.1670   43.1040 C   0  0  0  0  0  2  0  0  0  0  0  0
   40.6500   30.6350   42.6320 C   0  0  0  0  0  2  0  0  0  0  0  0
   38.1970   33.2540   40.1100 C   0  0  0  0  0  0  0  0  0  0  0  0
   37.0120   33.7820   39.6020 F   0  0  0  0  0  0  0  0  0  0  0  0
   39.0190   33.0200   39.0020 F   0  0  0  0  0  0  0  0  0  0  0  0
   38.7050   34.0340   41.0510 F   0  0  0  0  0  0  0  0  0  0  0  0
   36.4830   28.3000   42.0630 O   0  0  0  0  0  0  0  0  0  0  0  0
   37.1030   27.6390   43.1490 C   0  0  0  0  0  0  0  0  0  0  0  0
   37.8640   28.2980   43.6350 H   0  0  0  0  0  0  0  0  0  0  0  0
   36.3200   27.3390   43.8690 H   0  0  0  0  0  0  0  0  0  0  0  0
   37.7080   26.4010   42.6260 C   0  0  0  0  0  0  0  0  0  0  0  0
   37.1150   25.2340   42.1920 C   0  0  0  0  0  0  0  0  0  0  0  0
   37.9190   24.2270   41.7510 C   0  0  0  0  0  0  0  0  0  0  0  0
   39.2440   24.3330   41.7270 N   0  0  0  0  0  0  0  0  0  0  0  0
   39.8130   25.4710   42.1510 C   0  0  0  0  0  0  0  0  0  0  0  0
   39.0690   26.5270   42.6080 N   0  0  0  0  0  0  0  0  0  0  0  0
   36.0530   25.2780   42.2630 H   0  0  0  0  0  0  0  0  0  0  0  0
   37.4000   23.3340   41.4220 H   0  0  0  0  0  0  0  0  0  0  0  0
   41.3010   25.5000   42.0880 C   0  0  0  0  0  0  0  0  0  0  0  0
   41.7810   26.7830   42.1780 F   0  0  0  0  0  0  0  0  0  0  0  0
   41.7340   24.9410   40.8860 F   0  0  0  0  0  0  0  0  0  0  0  0
   41.8810   24.7660   43.1050 F   0  0  0  0  0  0  0  0  0  0  0  0
  1  2  2  0  0  0  0
  1  6  1  0  0  0  0
  2  3  1  0  0  0  0
  3  8  1  0  0  0  0
  3  4  2  0  0  0  0
  5  4  1  0  0  0  0
  5 18  1  0  0  0  0
  6  5  2  0  0  0  0
  7  1  1  0  0  0  0
  8 13  1  0  0  0  0
  9 10  1  0  0  0  0
  9  8  1  0  0  0  0
 10 11  1  0  0  0  0
 11 12  1  0  0  0  0
 13 12  1  0  0  0  0
 14  2  1  0  0  0  0
 14 17  1  0  0  0  0
 15 14  1  0  0  0  0
 16 14  1  0  0  0  0
 18 19  1  0  0  0  0
 19 20  1  0  0  0  0
 19 21  1  0  0  0  0
 22 19  1  0  0  0  0
 23 28  1  0  0  0  0
 23 22  2  0  0  0  0
 24 23  1  0  0  0  0
 25 24  2  0  0  0  0
 25 26  1  0  0  0  0
 26 27  2  0  0  0  0
 27 22  1  0  0  0  0
 29 24  1  0  0  0  0
 30 26  1  0  0  0  0
 30 31  1  0  0  0  0
 30 33  1  0  0  0  0
 32 30  1  0  0  0  0
M  END
>  <minimizedAffinity>
-5.82467985

$$$$

 OpenBabel03252505593D

 33 35  0  0  0  0  0  0  0  0999 V2000
   35.7930   26.0470   38.1430 C   0  0  0  0  0  0  0  0  0  0  0  0
   36.5840   26.2750   39.2870 C   0  0  0  0  0  0  0  0  0  0  0  0
   36.4500   27.5090   39.9570 C   0  0  0  0  0  0  0  0  0  0  0  0
   35.5610   28.3840   39.4380 N   0  0  0  0  0  0  0  0  0  0  0  0
   34.8310   28.1350   38.3540 C   0  0  0  0  0  0  0  0  0  0  0  0
   34.9360   26.9790   37.7010 N   0  0  0  0  0  0  0  0  0  0  0  0
   35.9070   25.0920   37.6350 H   0  0  0  0  0  0  0  0  0  0  0  0
   37.2310   27.8280   41.1460 C   0  0  0  0  0  3  0  0  0  0  0  0
   36.5530   27.4710   42.4470 C   0  0  0  0  0  2  0  0  0  0  0  0
   37.1970   28.2320   43.5890 C   0  0  0  0  0  2  0  0  0  0  0  0
   38.5500   28.7980   43.2050 C   0  0  0  0  0  2  0  0  0  0  0  0
   38.2820   29.8770   42.1770 C   0  0  0  0  0  2  0  0  0  0  0  0
   37.2300   29.3820   41.2460 C   0  0  0  0  0  2  0  0  0  0  0  0
   37.5160   25.2150   39.7430 C   0  0  0  0  0  0  0  0  0  0  0  0
   37.4910   24.2700   38.7200 F   0  0  0  0  0  0  0  0  0  0  0  0
   36.9260   24.5970   40.8510 F   0  0  0  0  0  0  0  0  0  0  0  0
   38.7390   25.6880   39.9290 F   0  0  0  0  0  0  0  0  0  0  0  0
   33.9190   29.0520   37.8360 O   0  0  0  0  0  0  0  0  0  0  0  0
   32.8920   28.6380   36.9570 C   0  0  0  0  0  0  0  0  0  0  0  0
   33.2880   28.4830   35.9240 H   0  0  0  0  0  0  0  0  0  0  0  0
   32.4450   27.7080   37.3550 H   0  0  0  0  0  0  0  0  0  0  0  0
   31.8400   29.6700   36.9870 C   0  0  0  0  0  0  0  0  0  0  0  0
   30.9650   30.0210   37.9940 C   0  0  0  0  0  0  0  0  0  0  0  0
   30.0790   31.0280   37.7570 C   0  0  0  0  0  0  0  0  0  0  0  0
   30.0320   31.6760   36.5970 N   0  0  0  0  0  0  0  0  0  0  0  0
   30.8870   31.3290   35.6230 C   0  0  0  0  0  0  0  0  0  0  0  0
   31.8060   30.3270   35.7890 N   0  0  0  0  0  0  0  0  0  0  0  0
   31.1050   29.4280   38.8670 H   0  0  0  0  0  0  0  0  0  0  0  0
   29.4150   31.2610   38.5810 H   0  0  0  0  0  0  0  0  0  0  0  0
   30.7630   32.1080   34.3600 C   0  0  0  0  0  0  0  0  0  0  0  0
   29.5910   32.8220   34.3240 F   0  0  0  0  0  0  0  0  0  0  0  0
   30.7980   31.2430   33.2660 F   0  0  0  0  0  0  0  0  0  0  0  0
   31.8010   33.0050   34.1960 F   0  0  0  0  0  0  0  0  0  0  0  0
  1  2  1  0  0  0  0
  2 14  1  0  0  0  0
  2  3  2  0  0  0  0
  3  8  1  0  0  0  0
  4  3  1  0  0  0  0
  5  4  2  0  0  0  0
  6  1  2  0  0  0  0
  6  5  1  0  0  0  0
  7  1  1  0  0  0  0
  8 13  1  0  0  0  0
  8  9  1  0  0  0  0
  9 10  1  0  0  0  0
 11 10  1  0  0  0  0
 12 11  1  0  0  0  0
 13 12  1  0  0  0  0
 14 17  1  0  0  0  0
 14 16  1  0  0  0  0
 15 14  1  0  0  0  0
 18  5  1  0  0  0  0
 19 22  1  0  0  0  0
 19 21  1  0  0  0  0
 19 18  1  0  0  0  0
 20 19  1  0  0  0  0
 22 23  1  0  0  0  0
 23 28  1  0  0  0  0
 24 23  2  0  0  0  0
 24 29  1  0  0  0  0
 25 24  1  0  0  0  0
 26 27  1  0  0  0  0
 26 25  2  0  0  0  0
 27 22  2  0  0  0  0
 30 26  1  0  0  0  0
 31 30  1  0  0  0  0
 32 30  1  0  0  0  0
 33 30  1  0  0  0  0
M  END
>  <minimizedAffinity>
-5.77591991

$$$$

 OpenBabel03252505593D

 33 35  0  0  0  0  0  0  0  0999 V2000
   37.2800   31.0420   37.9140 C   0  0  0  0  0  0  0  0  0  0  0  0
   37.3570   30.8380   39.3060 C   0  0  0  0  0  0  0  0  0  0  0  0
   37.4740   29.5150   39.7820 C   0  0  0  0  0  0  0  0  0  0  0  0
   37.5050   28.5390   38.8490 N   0  0  0  0  0  0  0  0  0  0  0  0
   37.4300   28.7690   37.5420 C   0  0  0  0  0  0  0  0  0  0  0  0
   37.3180   30.0070   37.0620 N   0  0  0  0  0  0  0  0  0  0  0  0
   37.1890   32.0670   37.5590 H   0  0  0  0  0  0  0  0  0  0  0  0
   37.5560   29.2150   41.2070 C   0  0  0  0  0  3  0  0  0  0  0  0
   38.9440   28.8680   41.6880 C   0  0  0  0  0  2  0  0  0  0  0  0
   38.8620   28.1430   43.0170 C   0  0  0  0  0  2  0  0  0  0  0  0
   37.5100   28.3190   43.6800 C   0  0  0  0  0  2  0  0  0  0  0  0
   36.5140   27.5740   42.8160 C   0  0  0  0  0  2  0  0  0  0  0  0
   36.8440   27.8410   41.3880 C   0  0  0  0  0  2  0  0  0  0  0  0
   37.3160   32.0130   40.2110 C   0  0  0  0  0  0  0  0  0  0  0  0
   36.2330   31.7630   41.0510 F   0  0  0  0  0  0  0  0  0  0  0  0
   36.9520   33.1180   39.4340 F   0  0  0  0  0  0  0  0  0  0  0  0
   38.4390   32.1370   40.9010 F   0  0  0  0  0  0  0  0  0  0  0  0
   37.4640   27.7460   36.5960 O   0  0  0  0  0  0  0  0  0  0  0  0
   38.1200   26.5240   36.8690 C   0  0  0  0  0  0  0  0  0  0  0  0
   38.4960   26.0530   35.9280 H   0  0  0  0  0  0  0  0  0  0  0  0
   38.9490   26.7220   37.5740 H   0  0  0  0  0  0  0  0  0  0  0  0
   37.1580   25.6520   37.5670 C   0  0  0  0  0  0  0  0  0  0  0  0
   35.9370   25.1620   37.1530 C   0  0  0  0  0  0  0  0  0  0  0  0
   35.2390   24.3630   38.0070 C   0  0  0  0  0  0  0  0  0  0  0  0
   35.6930   24.0450   39.2160 N   0  0  0  0  0  0  0  0  0  0  0  0
   36.8810   24.5260   39.6110 C   0  0  0  0  0  0  0  0  0  0  0  0
   37.6400   25.3350   38.8060 N   0  0  0  0  0  0  0  0  0  0  0  0
   35.6900   25.4890   36.1700 H   0  0  0  0  0  0  0  0  0  0  0  0
   34.2870   24.0060   37.6310 H   0  0  0  0  0  0  0  0  0  0  0  0
   37.3100   24.1190   40.9780 C   0  0  0  0  0  0  0  0  0  0  0  0
   36.3120   24.3220   41.8980 F   0  0  0  0  0  0  0  0  0  0  0  0
   38.4320   24.8550   41.3590 F   0  0  0  0  0  0  0  0  0  0  0  0
   37.6650   22.7850   41.0370 F   0  0  0  0  0  0  0  0  0  0  0  0
  1  2  1  0  0  0  0
  2  3  2  0  0  0  0
  2 14  1  0  0  0  0
  3  8  1  0  0  0  0
  4  3  1  0  0  0  0
  5  4  2  0  0  0  0
  6  5  1  0  0  0  0
  6  1  2  0  0  0  0
  7  1  1  0  0  0  0
  8 13  1  0  0  0  0
  8  9  1  0  0  0  0
  9 10  1  0  0  0  0
 10 11  1  0  0  0  0
 12 11  1  0  0  0  0
 13 12  1  0  0  0  0
 14 17  1  0  0  0  0
 14 15  1  0  0  0  0
 16 14  1  0  0  0  0
 18 19  1  0  0  0  0
 18  5  1  0  0  0  0
 19 22  1  0  0  0  0
 19 21  1  0  0  0  0
 20 19  1  0  0  0  0
 22 27  1  0  0  0  0
 23 22  2  0  0  0  0
 23 24  1  0  0  0  0
 24 25  2  0  0  0  0
 25 26  1  0  0  0  0
 26 30  1  0  0  0  0
 27 26  2  0  0  0  0
 28 23  1  0  0  0  0
 29 24  1  0  0  0  0
 30 33  1  0  0  0  0
 30 32  1  0  0  0  0
 30 31  1  0  0  0  0
M  END
>  <minimizedAffinity>
-5.58283091

$$$$

 OpenBabel03252505593D

 33 35  0  0  0  0  0  0  0  0999 V2000
   32.9170   26.7400   35.9230 C   0  0  0  0  0  0  0  0  0  0  0  0
   32.0130   27.6860   35.3990 C   0  0  0  0  0  0  0  0  0  0  0  0
   32.0240   28.9900   35.9360 C   0  0  0  0  0  0  0  0  0  0  0  0
   32.9140   29.2280   36.9230 N   0  0  0  0  0  0  0  0  0  0  0  0
   33.7530   28.3100   37.3950 C   0  0  0  0  0  0  0  0  0  0  0  0
   33.7660   27.0700   36.9070 N   0  0  0  0  0  0  0  0  0  0  0  0
   32.8970   25.7380   35.5010 H   0  0  0  0  0  0  0  0  0  0  0  0
   31.1210   30.0290   35.4530 C   0  0  0  0  0  3  0  0  0  0  0  0
   31.7460   30.9820   34.4640 C   0  0  0  0  0  2  0  0  0  0  0  0
   30.9190   32.2500   34.3790 C   0  0  0  0  0  2  0  0  0  0  0  0
   29.5310   32.0670   34.9630 C   0  0  0  0  0  2  0  0  0  0  0  0
   29.7210   31.8750   36.4520 C   0  0  0  0  0  2  0  0  0  0  0  0
   30.8970   30.9850   36.6620 C   0  0  0  0  0  2  0  0  0  0  0  0
   31.0950   27.2790   34.3070 C   0  0  0  0  0  0  0  0  0  0  0  0
   29.8230   27.4300   34.8530 F   0  0  0  0  0  0  0  0  0  0  0  0
   31.2700   25.9040   34.1140 F   0  0  0  0  0  0  0  0  0  0  0  0
   31.2480   28.0370   33.2320 F   0  0  0  0  0  0  0  0  0  0  0  0
   34.6640   28.5780   38.4140 O   0  0  0  0  0  0  0  0  0  0  0  0
   34.2970   29.3620   39.5310 C   0  0  0  0  0  0  0  0  0  0  0  0
   33.8210   30.3200   39.2080 H   0  0  0  0  0  0  0  0  0  0  0  0
   33.6090   28.7700   40.1630 H   0  0  0  0  0  0  0  0  0  0  0  0
   35.5150   29.6010   40.3250 C   0  0  0  0  0  0  0  0  0  0  0  0
   36.3640   30.6880   40.3500 C   0  0  0  0  0  0  0  0  0  0  0  0
   37.4350   30.6520   41.1900 C   0  0  0  0  0  0  0  0  0  0  0  0
   37.6870   29.6110   41.9780 N   0  0  0  0  0  0  0  0  0  0  0  0
   36.8570   28.5570   41.9480 C   0  0  0  0  0  0  0  0  0  0  0  0
   35.7590   28.5230   41.1290 N   0  0  0  0  0  0  0  0  0  0  0  0
   36.0530   31.4510   39.6740 H   0  0  0  0  0  0  0  0  0  0  0  0
   38.0680   31.5320   41.1680 H   0  0  0  0  0  0  0  0  0  0  0  0
   37.2160   27.4390   42.8630 C   0  0  0  0  0  0  0  0  0  0  0  0
   38.2690   27.7750   43.6780 F   0  0  0  0  0  0  0  0  0  0  0  0
   37.5640   26.3120   42.1180 F   0  0  0  0  0  0  0  0  0  0  0  0
   36.1610   27.0720   43.6770 F   0  0  0  0  0  0  0  0  0  0  0  0
  1  6  1  0  0  0  0
  2  1  2  0  0  0  0
  2  3  1  0  0  0  0
  3  4  2  0  0  0  0
  4  5  1  0  0  0  0
  5 18  1  0  0  0  0
  6  5  2  0  0  0  0
  7  1  1  0  0  0  0
  8  3  1  0  0  0  0
  8 13  1  0  0  0  0
  9  8  1  0  0  0  0
 10  9  1  0  0  0  0
 10 11  1  0  0  0  0
 11 12  1  0  0  0  0
 12 13  1  0  0  0  0
 14 15  1  0  0  0  0
 14  2  1  0  0  0  0
 16 14  1  0  0  0  0
 17 14  1  0  0  0  0
 18 19  1  0  0  0  0
 19 21  1  0  0  0  0
 19 22  1  0  0  0  0
 20 19  1  0  0  0  0
 22 23  2  0  0  0  0
 22 27  1  0  0  0  0
 23 24  1  0  0  0  0
 24 25  2  0  0  0  0
 26 25  1  0  0  0  0
 26 30  1  0  0  0  0
 27 26  2  0  0  0  0
 28 23  1  0  0  0  0
 29 24  1  0  0  0  0
 30 33  1  0  0  0  0
 30 31  1  0  0  0  0
 32 30  1  0  0  0  0
M  END
>  <minimizedAffinity>
-5.58268213

$$$$
