
 OpenBabel03252508333D

 29 31  0  0  1  0  0  0  0  0999 V2000
   44.1580   34.3070   41.3700 N   0  0  0  0  0  0  0  0  0  0  0  0
   44.6350   33.2770   40.5530 C   0  0  1  0  0  0  0  0  0  0  0  0
   43.8140   32.9550   39.3330 C   0  0  0  0  0  0  0  0  0  0  0  0
   42.5200   33.4490   39.2260 N   0  0  0  0  0  0  0  0  0  0  0  0
   42.1990   34.6130   39.9140 C   0  0  0  0  0  0  0  0  0  0  0  0
   43.3180   35.2330   40.6600 C   0  0  0  0  0  0  0  0  0  0  0  0
   44.7410   32.3380   41.1400 H   0  0  0  0  0  0  0  0  0  0  0  0
   43.7870   31.8160   39.2500 H   0  0  0  0  0  0  0  0  0  0  0  0
   44.3720   33.2400   38.4200 H   0  0  0  0  0  0  0  0  0  0  0  0
   42.2020   33.3790   38.2390 H   0  0  0  0  0  0  0  0  0  0  0  0
   41.3330   34.4310   40.6140 H   0  0  0  0  0  0  0  0  0  0  0  0
   41.8120   35.3930   39.1980 H   0  0  0  0  0  0  0  0  0  0  0  0
   43.8950   35.9820   40.0540 H   0  0  0  0  0  0  0  0  0  0  0  0
   42.8270   35.8920   41.4440 H   0  0  0  0  0  0  0  0  0  0  0  0
   44.3130   35.6270   43.3600 C   0  0  0  0  0  0  0  0  0  0  0  0
   44.5030   34.3940   42.7470 C   0  0  0  0  0  0  0  0  0  0  0  0
   45.0160   33.3510   43.4890 C   0  0  0  0  0  0  0  0  0  0  0  0
   45.3340   33.5210   44.8000 N   0  0  0  0  0  0  0  0  0  0  0  0
   45.1380   34.7470   45.3830 C   0  0  0  0  0  0  0  0  0  0  0  0
   44.6340   35.7740   44.6620 N   0  0  0  0  0  0  0  0  0  0  0  0
   43.9360   36.5570   42.9690 H   0  0  0  0  0  0  0  0  0  0  0  0
   45.1720   32.3860   43.0700 H   0  0  0  0  0  0  0  0  0  0  0  0
   45.3970   34.8680   46.4360 H   0  0  0  0  0  0  0  0  0  0  0  0
   46.0560   33.5330   40.0200 C   0  0  0  0  0  3  0  0  0  0  0  0
   47.1350   32.8970   40.8140 C   0  0  0  0  0  2  0  0  0  0  0  0
   48.4280   33.6290   40.4760 C   0  0  0  0  0  2  0  0  0  0  0  0
   48.3090   34.4450   39.2280 C   0  0  0  0  0  2  0  0  0  0  0  0
   47.5920   33.7440   38.1170 C   0  0  0  0  0  2  0  0  0  0  0  0
   46.2350   33.2460   38.5740 C   0  0  0  0  0  2  0  0  0  0  0  0
  1 16  1  0  0  0  0
  2  7  1  1  0  0  0
  2  1  1  0  0  0  0
  3  2  1  0  0  0  0
  4  3  1  0  0  0  0
  4  5  1  0  0  0  0
  5 11  1  0  0  0  0
  5  6  1  0  0  0  0
  6  1  1  0  0  0  0
  6 14  1  0  0  0  0
  8  3  1  0  0  0  0
  9  3  1  0  0  0  0
 10  4  1  0  0  0  0
 12  5  1  0  0  0  0
 13  6  1  0  0  0  0
 15 20  1  0  0  0  0
 16 15  2  0  0  0  0
 16 17  1  0  0  0  0
 17 18  2  0  0  0  0
 18 19  1  0  0  0  0
 19 23  1  0  0  0  0
 20 19  2  0  0  0  0
 21 15  1  0  0  0  0
 22 17  1  0  0  0  0
 24  2  1  0  0  0  0
 24 25  1  0  0  0  0
 26 25  1  0  0  0  0
 27 26  1  0  0  0  0
 28 29  1  0  0  0  0
 28 27  1  0  0  0  0
 29 24  1  0  0  0  0
M  END
>  <minimizedAffinity>
-4.46962643

>  <minimizedRMSD>
0.983771265

$$$$
