
     RDKit          3D

 36 38  0  0  0  0  0  0  0  0999 V2000
   45.5283   34.1487   44.4154 C   0  0  0  0  0  0  0  0  0  0  0  0
   46.5040   33.6030   43.5411 C   0  0  0  0  0  0  0  0  0  0  0  0
   47.3952   32.6746   44.0611 C   0  0  0  0  0  0  0  0  0  0  0  0
   47.2847   32.3425   45.3703 N   0  0  0  0  0  0  0  0  0  0  0  0
   46.3388   32.8864   46.1742 C   0  0  0  0  0  0  0  0  0  0  0  0
   45.4578   33.7953   45.6850 N   0  0  0  0  0  0  0  0  0  0  0  0
   46.3979   32.3867   47.5869 C   0  0  0  0  0  0  0  0  0  0  0  0
   45.3869   32.9171   48.3550 F   0  0  0  0  0  0  0  0  0  0  0  0
   47.6191   32.7475   48.1635 F   0  0  0  0  0  0  0  0  0  0  0  0
   46.3789   30.9982   47.5726 F   0  0  0  0  0  0  0  0  0  0  0  0
   44.5694   35.1581   43.8840 C   0  0  1  0  0  0  0  0  0  0  0  0
   44.8804   36.6042   44.3255 C   0  0  0  0  0  0  0  0  0  0  0  0
   44.9765   36.1547   42.8935 C   0  0  2  0  0  0  0  0  0  0  0  0
   46.5227   33.9233   42.5099 H   0  0  0  0  0  0  0  0  0  0  0  0
   48.1379   32.2532   43.4123 H   0  0  0  0  0  0  0  0  0  0  0  0
   43.5104   34.8521   43.9855 H   0  0  0  0  0  0  0  0  0  0  0  0
   45.7777   36.7750   44.9360 H   0  0  0  0  0  0  0  0  0  0  0  0
   43.9895   37.1956   44.5549 H   0  0  0  0  0  0  0  0  0  0  0  0
   46.0523   36.0623   42.5643 H   0  0  0  0  0  0  0  0  0  0  0  0
   44.0402   36.6625   41.8465 C   0  0  0  0  0  0  0  0  0  0  0  0
   42.8627   37.3084   42.5301 C   0  0  0  0  0  0  0  0  0  0  0  0
   41.5456   37.0594   41.8424 C   0  0  0  0  0  0  0  0  0  0  0  0
   41.6507   37.0521   40.3467 C   0  0  0  0  0  0  0  0  0  0  0  0
   42.7497   36.1455   39.8444 C   0  0  0  0  0  0  0  0  0  0  0  0
   43.5406   35.5406   40.9909 C   0  0  0  0  0  0  0  0  0  0  0  0
   44.5234   37.3995   41.1793 H   0  0  0  0  0  0  0  0  0  0  0  0
   43.0803   38.3846   42.6814 H   0  0  0  0  0  0  0  0  0  0  0  0
   42.7540   36.8643   43.5505 H   0  0  0  0  0  0  0  0  0  0  0  0
   41.0634   36.1205   42.2145 H   0  0  0  0  0  0  0  0  0  0  0  0
   40.8625   37.8888   42.1269 H   0  0  0  0  0  0  0  0  0  0  0  0
   41.7348   38.0975   39.9675 H   0  0  0  0  0  0  0  0  0  0  0  0
   40.6919   36.6468   39.9605 H   0  0  0  0  0  0  0  0  0  0  0  0
   42.3667   35.3649   39.1484 H   0  0  0  0  0  0  0  0  0  0  0  0
   43.4603   36.7816   39.2777 H   0  0  0  0  0  0  0  0  0  0  0  0
   44.4237   35.0593   40.5140 H   0  0  0  0  0  0  0  0  0  0  0  0
   42.9257   34.8049   41.5457 H   0  0  0  0  0  0  0  0  0  0  0  0
  1  6  2  0
  2  3  2  0
  2  1  1  0
  3  4  1  0
  4  5  2  0
  5  7  1  0
  6  5  1  0
  7  9  1  0
  7  8  1  0
 10  7  1  0
 11 12  1  0
 11  1  1  0
 13 11  1  0
 13 12  1  0
  2 14  1  0
  3 15  1  0
 11 16  1  6
 12 17  1  0
 12 18  1  0
 13 19  1  6
 20 21  1  0
 21 22  1  0
 22 23  1  0
 23 24  1  0
 24 25  1  0
 25 20  1  0
 20 26  1  0
 21 27  1  0
 21 28  1  0
 22 29  1  0
 22 30  1  0
 23 31  1  0
 23 32  1  0
 24 33  1  0
 24 34  1  0
 25 35  1  0
 25 36  1  0
 13 20  1  0
M  ISO  6  14  14  15  14  16  13  17  13  18  13  19  13
M  END
>  <DihAtoms>  (1) 
10,12,19,20

>  <DihDeg>  (1) 
-59.99748515956114

$$$$
