
 OpenBabel03252507533D

 35 38  0  0  1  0  0  0  0  0999 V2000
   38.2060   26.9500   42.1610 C   0  0  2  0  0  0  0  0  0  0  0  0
   37.2140   27.0980   43.2800 C   0  0  0  0  0  0  0  0  0  0  0  0
   37.3440   28.5960   43.5360 C   0  0  0  0  0  0  0  0  0  0  0  0
   37.6550   29.1970   42.1780 C   0  0  1  0  0  0  0  0  0  0  0  0
   37.7030   28.0520   41.2310 C   0  0  0  0  0  0  0  0  0  0  0  0
   39.2130   27.1430   42.5360 H   0  0  0  0  0  0  0  0  0  0  0  0
   36.2110   26.8030   42.9600 H   0  0  0  0  0  0  0  0  0  0  0  0
   37.5850   26.5480   44.1660 H   0  0  0  0  0  0  0  0  0  0  0  0
   38.0990   28.7990   44.2960 H   0  0  0  0  0  0  0  0  0  0  0  0
   36.3720   29.0070   43.9060 H   0  0  0  0  0  0  0  0  0  0  0  0
   38.6720   29.6010   42.2670 H   0  0  0  0  0  0  0  0  0  0  0  0
   38.4600   28.0940   40.4460 H   0  0  0  0  0  0  0  0  0  0  0  0
   36.7490   27.5860   40.9490 H   0  0  0  0  0  0  0  0  0  0  0  0
   37.0340   23.5880   40.9130 C   0  0  0  0  0  0  0  0  0  0  0  0
   36.9770   24.8290   41.5980 C   0  0  0  0  0  0  0  0  0  0  0  0
   38.1410   25.6290   41.4720 C   0  0  0  0  0  0  0  0  0  0  0  0
   39.2420   25.2090   40.7270 N   0  0  0  0  0  0  0  0  0  0  0  0
   39.1850   24.0100   40.1180 C   0  0  0  0  0  0  0  0  0  0  0  0
   38.1020   23.2140   40.2090 N   0  0  0  0  0  0  0  0  0  0  0  0
   36.1530   22.9680   41.0000 H   0  0  0  0  0  0  0  0  0  0  0  0
   36.1680   25.1970   42.1760 H   0  0  0  0  0  0  0  0  0  0  0  0
   40.1030   23.8150   39.5800 H   0  0  0  0  0  0  0  0  0  0  0  0
   36.6090   30.1220   41.6790 C   0  0  2  0  0  0  0  0  0  0  0  0
   35.8120   29.6990   40.5090 C   0  0  0  0  0  0  0  0  0  0  0  0
   36.6260   30.9710   40.5340 C   0  0  2  0  0  0  0  0  0  0  0  0
   35.9830   30.4370   42.5700 H   0  0  0  0  0  0  0  0  0  0  0  0
   34.6850   29.7520   40.6140 H   0  0  0  0  0  0  0  0  0  0  0  0
   36.0520   29.1870   39.6070 H   0  0  0  0  0  0  0  0  0  0  0  0
   35.9430   31.8800   40.6220 H   0  0  0  0  0  0  0  0  0  0  0  0
   37.6950   31.3010   39.5710 C   0  0  0  0  0  3  0  0  0  0  0  0
   37.2330   32.4810   38.6930 C   0  0  0  0  0  2  0  0  0  0  0  0
   37.2350   33.7700   39.4630 C   0  0  0  0  0  2  0  0  0  0  0  0
   38.5220   34.1040   40.1410 C   0  0  0  0  0  2  0  0  0  0  0  0
   38.9270   32.9380   41.0110 C   0  0  0  0  0  2  0  0  0  0  0  0
   39.0220   31.6690   40.2270 C   0  0  0  0  0  2  0  0  0  0  0  0
  1  6  1  1  0  0  0
  1  2  1  0  0  0  0
  2  3  1  0  0  0  0
  2  8  1  0  0  0  0
  3 10  1  0  0  0  0
  3  9  1  0  0  0  0
  4 11  1  1  0  0  0
  4  3  1  0  0  0  0
  5  1  1  0  0  0  0
  5  4  1  0  0  0  0
  7  2  1  0  0  0  0
 12  5  1  0  0  0  0
 13  5  1  0  0  0  0
 14 20  1  0  0  0  0
 14 15  1  0  0  0  0
 15 21  1  0  0  0  0
 16 15  2  0  0  0  0
 16  1  1  0  0  0  0
 17 16  1  0  0  0  0
 18 19  1  0  0  0  0
 18 17  2  0  0  0  0
 19 14  2  0  0  0  0
 22 18  1  0  0  0  0
 23  4  1  0  0  0  0
 23 26  1  1  0  0  0
 24 25  1  0  0  0  0
 24 27  1  0  0  0  0
 24 23  1  0  0  0  0
 25 29  1  1  0  0  0
 25 23  1  0  0  0  0
 28 24  1  0  0  0  0
 30 35  1  0  0  0  0
 30 25  1  0  0  0  0
 31 32  1  0  0  0  0
 31 30  1  0  0  0  0
 32 33  1  0  0  0  0
 33 34  1  0  0  0  0
 35 34  1  0  0  0  0
M  END
>  <minimizedAffinity>
-5.76889324

$$$$

 OpenBabel03252507533D

 35 38  0  0  1  0  0  0  0  0999 V2000
   39.0530   31.1630   37.9260 C   0  0  2  0  0  0  0  0  0  0  0  0
   37.7600   31.6660   37.3470 C   0  0  0  0  0  0  0  0  0  0  0  0
   36.8750   30.4520   37.6090 C   0  0  0  0  0  0  0  0  0  0  0  0
   37.4100   29.8520   38.8960 C   0  0  1  0  0  0  0  0  0  0  0  0
   38.5540   30.7120   39.2980 C   0  0  0  0  0  0  0  0  0  0  0  0
   39.4270   30.3330   37.3220 H   0  0  0  0  0  0  0  0  0  0  0  0
   37.4190   32.5660   37.8650 H   0  0  0  0  0  0  0  0  0  0  0  0
   37.8810   31.7940   36.2530 H   0  0  0  0  0  0  0  0  0  0  0  0
   36.8880   29.7680   36.7590 H   0  0  0  0  0  0  0  0  0  0  0  0
   35.8170   30.7770   37.7670 H   0  0  0  0  0  0  0  0  0  0  0  0
   37.8130   28.8710   38.6110 H   0  0  0  0  0  0  0  0  0  0  0  0
   39.4180   30.2100   39.7350 H   0  0  0  0  0  0  0  0  0  0  0  0
   38.3220   31.7060   39.7060 H   0  0  0  0  0  0  0  0  0  0  0  0
   42.1170   33.3060   37.4250 C   0  0  0  0  0  0  0  0  0  0  0  0
   41.1820   32.2690   37.1730 C   0  0  0  0  0  0  0  0  0  0  0  0
   40.0940   32.2190   38.0800 C   0  0  0  0  0  0  0  0  0  0  0  0
   39.9710   33.1290   39.1280 N   0  0  0  0  0  0  0  0  0  0  0  0
   40.9200   34.0740   39.2720 C   0  0  0  0  0  0  0  0  0  0  0  0
   41.9730   34.1600   38.4370 N   0  0  0  0  0  0  0  0  0  0  0  0
   42.9530   33.3540   36.7410 H   0  0  0  0  0  0  0  0  0  0  0  0
   41.2260   31.5520   36.3920 H   0  0  0  0  0  0  0  0  0  0  0  0
   40.6980   34.7060   40.1220 H   0  0  0  0  0  0  0  0  0  0  0  0
   36.4400   29.8780   40.0160 C   0  0  2  0  0  0  0  0  0  0  0  0
   36.5410   30.9810   40.9940 C   0  0  0  0  0  0  0  0  0  0  0  0
   36.6320   29.5250   41.3850 C   0  0  2  0  0  0  0  0  0  0  0  0
   35.4050   29.7530   39.5710 H   0  0  0  0  0  0  0  0  0  0  0  0
   35.5910   31.5620   41.2070 H   0  0  0  0  0  0  0  0  0  0  0  0
   37.3630   31.4830   41.4480 H   0  0  0  0  0  0  0  0  0  0  0  0
   35.6780   29.1940   41.9140 H   0  0  0  0  0  0  0  0  0  0  0  0
   37.7760   28.9170   42.0920 C   0  0  0  0  0  3  0  0  0  0  0  0
   37.3280   28.5030   43.5080 C   0  0  0  0  0  2  0  0  0  0  0  0
   36.4360   27.2960   43.4690 C   0  0  0  0  0  2  0  0  0  0  0  0
   36.9900   26.1190   42.7380 C   0  0  0  0  0  2  0  0  0  0  0  0
   37.3920   26.5570   41.3490 C   0  0  0  0  0  2  0  0  0  0  0  0
   38.3570   27.6960   41.3860 C   0  0  0  0  0  2  0  0  0  0  0  0
  1  6  1  6  0  0  0
  1 16  1  0  0  0  0
  1  5  1  0  0  0  0
  2  3  1  0  0  0  0
  2  7  1  0  0  0  0
  2  1  1  0  0  0  0
  3 10  1  0  0  0  0
  3  4  1  0  0  0  0
  4 11  1  6  0  0  0
  4  5  1  0  0  0  0
  4 23  1  0  0  0  0
  5 13  1  0  0  0  0
  5 12  1  0  0  0  0
  8  2  1  0  0  0  0
  9  3  1  0  0  0  0
 14 19  1  0  0  0  0
 15 14  2  0  0  0  0
 15 16  1  0  0  0  0
 16 17  2  0  0  0  0
 17 18  1  0  0  0  0
 18 22  1  0  0  0  0
 19 18  2  0  0  0  0
 20 14  1  0  0  0  0
 21 15  1  0  0  0  0
 23 26  1  6  0  0  0
 23 24  1  0  0  0  0
 23 25  1  0  0  0  0
 24 27  1  0  0  0  0
 24 25  1  0  0  0  0
 24 28  1  0  0  0  0
 25 29  1  1  0  0  0
 25 30  1  0  0  0  0
 30 31  1  0  0  0  0
 32 31  1  0  0  0  0
 33 32  1  0  0  0  0
 34 35  1  0  0  0  0
 34 33  1  0  0  0  0
 35 30  1  0  0  0  0
M  END
>  <minimizedAffinity>
-5.69696331

$$$$

 OpenBabel03252507533D

 35 38  0  0  1  0  0  0  0  0999 V2000
   38.4150   32.2320   39.0630 C   0  0  2  0  0  0  0  0  0  0  0  0
   37.9240   32.3990   40.4740 C   0  0  0  0  0  0  0  0  0  0  0  0
   36.6100   31.6310   40.3770 C   0  0  0  0  0  0  0  0  0  0  0  0
   36.8760   30.5310   39.3670 C   0  0  1  0  0  0  0  0  0  0  0  0
   38.2840   30.7160   38.9290 C   0  0  0  0  0  0  0  0  0  0  0  0
   37.7560   32.7730   38.3800 H   0  0  0  0  0  0  0  0  0  0  0  0
   38.6250   31.9610   41.1900 H   0  0  0  0  0  0  0  0  0  0  0  0
   37.7040   33.4690   40.6550 H   0  0  0  0  0  0  0  0  0  0  0  0
   35.7880   32.2960   40.1060 H   0  0  0  0  0  0  0  0  0  0  0  0
   36.3620   31.1710   41.3660 H   0  0  0  0  0  0  0  0  0  0  0  0
   36.2260   30.7610   38.5120 H   0  0  0  0  0  0  0  0  0  0  0  0
   38.5010   30.5300   37.8760 H   0  0  0  0  0  0  0  0  0  0  0  0
   39.0770   30.4350   39.6360 H   0  0  0  0  0  0  0  0  0  0  0  0
   41.8750   33.6250   39.6280 C   0  0  0  0  0  0  0  0  0  0  0  0
   40.5380   33.2630   39.9330 C   0  0  0  0  0  0  0  0  0  0  0  0
   39.8350   32.6440   38.8680 C   0  0  0  0  0  0  0  0  0  0  0  0
   40.4320   32.4170   37.6300 N   0  0  0  0  0  0  0  0  0  0  0  0
   41.7100   32.8020   37.4530 C   0  0  0  0  0  0  0  0  0  0  0  0
   42.4180   33.3950   38.4340 N   0  0  0  0  0  0  0  0  0  0  0  0
   42.4230   34.0980   40.4320 H   0  0  0  0  0  0  0  0  0  0  0  0
   40.0350   33.4110   40.8550 H   0  0  0  0  0  0  0  0  0  0  0  0
   42.0400   32.5670   36.4500 H   0  0  0  0  0  0  0  0  0  0  0  0
   36.7790   29.1640   39.9320 C   0  0  2  0  0  0  0  0  0  0  0  0
   35.6490   28.8670   40.8360 C   0  0  0  0  0  0  0  0  0  0  0  0
   37.0950   28.7060   41.2450 C   0  0  2  0  0  0  0  0  0  0  0  0
   36.8820   28.4330   39.0710 H   0  0  0  0  0  0  0  0  0  0  0  0
   35.0290   27.9500   40.5930 H   0  0  0  0  0  0  0  0  0  0  0  0
   35.1620   29.4200   41.6050 H   0  0  0  0  0  0  0  0  0  0  0  0
   37.3750   27.6010   41.2940 H   0  0  0  0  0  0  0  0  0  0  0  0
   37.7200   29.3820   42.3980 C   0  0  0  0  0  3  0  0  0  0  0  0
   37.4930   28.5300   43.6630 C   0  0  0  0  0  2  0  0  0  0  0  0
   38.3470   27.2960   43.6510 C   0  0  0  0  0  2  0  0  0  0  0  0
   39.8060   27.5330   43.4440 C   0  0  0  0  0  2  0  0  0  0  0  0
   39.9890   28.3460   42.1840 C   0  0  0  0  0  2  0  0  0  0  0  0
   39.2160   29.6240   42.2320 C   0  0  0  0  0  2  0  0  0  0  0  0
  1  6  1  6  0  0  0
  1  2  1  0  0  0  0
  2  8  1  0  0  0  0
  2  7  1  0  0  0  0
  3  2  1  0  0  0  0
  3 10  1  0  0  0  0
  4 11  1  6  0  0  0
  4 23  1  0  0  0  0
  4  3  1  0  0  0  0
  5  1  1  0  0  0  0
  5  4  1  0  0  0  0
  5 13  1  0  0  0  0
  9  3  1  0  0  0  0
 12  5  1  0  0  0  0
 14 15  1  0  0  0  0
 14 20  1  0  0  0  0
 15 21  1  0  0  0  0
 16  1  1  0  0  0  0
 16 15  2  0  0  0  0
 17 16  1  0  0  0  0
 18 17  2  0  0  0  0
 18 19  1  0  0  0  0
 19 14  2  0  0  0  0
 22 18  1  0  0  0  0
 23 26  1  6  0  0  0
 23 24  1  0  0  0  0
 23 25  1  0  0  0  0
 24 25  1  0  0  0  0
 24 28  1  0  0  0  0
 25 29  1  6  0  0  0
 25 30  1  0  0  0  0
 27 24  1  0  0  0  0
 30 31  1  0  0  0  0
 32 31  1  0  0  0  0
 33 32  1  0  0  0  0
 34 35  1  0  0  0  0
 34 33  1  0  0  0  0
 35 30  1  0  0  0  0
M  END
>  <minimizedAffinity>
-5.49494696

$$$$

 OpenBabel03252507533D

 35 38  0  0  1  0  0  0  0  0999 V2000
   36.5730   30.7580   39.4830 C   0  0  2  0  0  0  0  0  0  0  0  0
   35.8700   30.0370   40.6000 C   0  0  0  0  0  0  0  0  0  0  0  0
   35.3300   28.8390   39.8260 C   0  0  0  0  0  0  0  0  0  0  0  0
   36.3640   28.5730   38.7480 C   0  0  1  0  0  0  0  0  0  0  0  0
   37.4150   29.6080   38.9330 C   0  0  0  0  0  0  0  0  0  0  0  0
   35.8380   31.1230   38.7630 H   0  0  0  0  0  0  0  0  0  0  0  0
   36.5700   29.7570   41.3910 H   0  0  0  0  0  0  0  0  0  0  0  0
   35.0190   30.6540   40.9480 H   0  0  0  0  0  0  0  0  0  0  0  0
   34.3280   29.0400   39.4430 H   0  0  0  0  0  0  0  0  0  0  0  0
   35.2630   27.9480   40.4990 H   0  0  0  0  0  0  0  0  0  0  0  0
   35.8520   28.7820   37.7990 H   0  0  0  0  0  0  0  0  0  0  0  0
   37.8610   30.0240   38.0290 H   0  0  0  0  0  0  0  0  0  0  0  0
   38.0930   29.4960   39.7910 H   0  0  0  0  0  0  0  0  0  0  0  0
   38.1180   34.1600   40.0060 C   0  0  0  0  0  0  0  0  0  0  0  0
   37.2050   33.1920   39.5140 C   0  0  0  0  0  0  0  0  0  0  0  0
   37.4570   31.8660   39.9470 C   0  0  0  0  0  0  0  0  0  0  0  0
   38.5220   31.5610   40.7910 N   0  0  0  0  0  0  0  0  0  0  0  0
   39.3270   32.5610   41.1970 C   0  0  0  0  0  0  0  0  0  0  0  0
   39.1280   33.8370   40.8120 N   0  0  0  0  0  0  0  0  0  0  0  0
   37.9370   35.1760   39.6830 H   0  0  0  0  0  0  0  0  0  0  0  0
   36.3790   33.3690   38.8720 H   0  0  0  0  0  0  0  0  0  0  0  0
   40.1070   32.1810   41.8430 H   0  0  0  0  0  0  0  0  0  0  0  0
   37.0330   27.2570   38.8720 C   0  0  2  0  0  0  0  0  0  0  0  0
   36.1840   26.0640   39.0660 C   0  0  0  0  0  0  0  0  0  0  0  0
   37.2670   26.4690   40.0380 C   0  0  2  0  0  0  0  0  0  0  0  0
   37.7630   27.1650   38.0080 H   0  0  0  0  0  0  0  0  0  0  0  0
   36.3580   25.1930   38.3620 H   0  0  0  0  0  0  0  0  0  0  0  0
   35.3030   25.8780   39.6340 H   0  0  0  0  0  0  0  0  0  0  0  0
   38.1630   25.7690   39.9500 H   0  0  0  0  0  0  0  0  0  0  0  0
   37.0470   26.7450   41.4710 C   0  0  0  0  0  3  0  0  0  0  0  0
   37.0360   25.4110   42.2430 C   0  0  0  0  0  2  0  0  0  0  0  0
   38.4160   24.8280   42.3470 C   0  0  0  0  0  2  0  0  0  0  0  0
   39.4520   25.7410   42.9120 C   0  0  0  0  0  2  0  0  0  0  0  0
   39.4510   27.0240   42.1140 C   0  0  0  0  0  2  0  0  0  0  0  0
   38.1000   27.6600   42.0890 C   0  0  0  0  0  2  0  0  0  0  0  0
  1  6  1  6  0  0  0
  1 16  1  0  0  0  0
  1  2  1  0  0  0  0
  2  8  1  0  0  0  0
  2  7  1  0  0  0  0
  3 10  1  0  0  0  0
  3  2  1  0  0  0  0
  4 11  1  6  0  0  0
  4 23  1  0  0  0  0
  4  5  1  0  0  0  0
  4  3  1  0  0  0  0
  5  1  1  0  0  0  0
  5 13  1  0  0  0  0
  9  3  1  0  0  0  0
 12  5  1  0  0  0  0
 14 19  1  0  0  0  0
 15 16  1  0  0  0  0
 15 14  2  0  0  0  0
 16 17  2  0  0  0  0
 17 18  1  0  0  0  0
 18 22  1  0  0  0  0
 19 18  2  0  0  0  0
 20 14  1  0  0  0  0
 21 15  1  0  0  0  0
 23 26  1  6  0  0  0
 23 24  1  0  0  0  0
 23 25  1  0  0  0  0
 24 28  1  0  0  0  0
 24 25  1  0  0  0  0
 25 29  1  6  0  0  0
 25 30  1  0  0  0  0
 27 24  1  0  0  0  0
 30 35  1  0  0  0  0
 30 31  1  0  0  0  0
 31 32  1  0  0  0  0
 32 33  1  0  0  0  0
 34 33  1  0  0  0  0
 35 34  1  0  0  0  0
M  END
>  <minimizedAffinity>
-5.4488225

$$$$

 OpenBabel03252507533D

 35 38  0  0  1  0  0  0  0  0999 V2000
   37.3310   30.7610   39.5990 C   0  0  2  0  0  0  0  0  0  0  0  0
   36.0510   31.0440   40.3350 C   0  0  0  0  0  0  0  0  0  0  0  0
   35.4620   29.6380   40.3690 C   0  0  0  0  0  0  0  0  0  0  0  0
   36.6630   28.7150   40.4510 C   0  0  1  0  0  0  0  0  0  0  0  0
   37.8550   29.6020   40.4460 C   0  0  0  0  0  0  0  0  0  0  0  0
   37.1050   30.4620   38.5730 H   0  0  0  0  0  0  0  0  0  0  0  0
   36.2490   31.4510   41.3300 H   0  0  0  0  0  0  0  0  0  0  0  0
   35.4080   31.6890   39.7040 H   0  0  0  0  0  0  0  0  0  0  0  0
   34.8220   29.4620   39.5030 H   0  0  0  0  0  0  0  0  0  0  0  0
   34.8340   29.5080   41.2850 H   0  0  0  0  0  0  0  0  0  0  0  0
   36.6600   28.1530   39.5070 H   0  0  0  0  0  0  0  0  0  0  0  0
   38.7280   29.2510   39.8930 H   0  0  0  0  0  0  0  0  0  0  0  0
   38.0680   30.1710   41.3620 H   0  0  0  0  0  0  0  0  0  0  0  0
   38.8940   34.1600   40.0860 C   0  0  0  0  0  0  0  0  0  0  0  0
   37.8940   33.1540   40.1270 C   0  0  0  0  0  0  0  0  0  0  0  0
   38.3010   31.8930   39.6220 C   0  0  0  0  0  0  0  0  0  0  0  0
   39.5870   31.6800   39.1320 N   0  0  0  0  0  0  0  0  0  0  0  0
   40.4560   32.7090   39.1420 C   0  0  0  0  0  0  0  0  0  0  0  0
   40.1160   33.9250   39.6100 N   0  0  0  0  0  0  0  0  0  0  0  0
   38.5970   35.1260   40.4680 H   0  0  0  0  0  0  0  0  0  0  0  0
   36.9020   33.2610   40.4890 H   0  0  0  0  0  0  0  0  0  0  0  0
   41.4100   32.4020   38.7340 H   0  0  0  0  0  0  0  0  0  0  0  0
   36.7230   27.9220   41.7020 C   0  0  2  0  0  0  0  0  0  0  0  0
   37.4980   28.4730   42.8330 C   0  0  0  0  0  0  0  0  0  0  0  0
   37.7890   27.1250   42.2150 C   0  0  2  0  0  0  0  0  0  0  0  0
   35.6600   27.6330   41.9720 H   0  0  0  0  0  0  0  0  0  0  0  0
   36.9690   28.5290   43.8340 H   0  0  0  0  0  0  0  0  0  0  0  0
   38.4220   28.9970   42.9010 H   0  0  0  0  0  0  0  0  0  0  0  0
   37.4460   26.2870   42.9080 H   0  0  0  0  0  0  0  0  0  0  0  0
   39.0880   26.7320   41.6370 C   0  0  0  0  0  3  0  0  0  0  0  0
   40.1500   26.7140   42.7540 C   0  0  0  0  0  2  0  0  0  0  0  0
   39.9600   25.5400   43.6700 C   0  0  0  0  0  2  0  0  0  0  0  0
   39.8980   24.2100   42.9960 C   0  0  0  0  0  2  0  0  0  0  0  0
   38.8310   24.2580   41.9280 C   0  0  0  0  0  2  0  0  0  0  0  0
   39.0700   25.3670   40.9560 C   0  0  0  0  0  2  0  0  0  0  0  0
  1  6  1  6  0  0  0
  1 16  1  0  0  0  0
  1  2  1  0  0  0  0
  1  5  1  0  0  0  0
  2  3  1  0  0  0  0
  2  7  1  0  0  0  0
  3  4  1  0  0  0  0
  3 10  1  0  0  0  0
  4 11  1  6  0  0  0
  4 23  1  0  0  0  0
  5  4  1  0  0  0  0
  5 13  1  0  0  0  0
  8  2  1  0  0  0  0
  9  3  1  0  0  0  0
 12  5  1  0  0  0  0
 14 15  1  0  0  0  0
 14 20  1  0  0  0  0
 15 21  1  0  0  0  0
 16 15  2  0  0  0  0
 17 18  2  0  0  0  0
 17 16  1  0  0  0  0
 18 19  1  0  0  0  0
 19 14  2  0  0  0  0
 22 18  1  0  0  0  0
 23 26  1  1  0  0  0
 23 25  1  0  0  0  0
 23 24  1  0  0  0  0
 24 28  1  0  0  0  0
 24 27  1  0  0  0  0
 25 24  1  0  0  0  0
 25 29  1  1  0  0  0
 30 25  1  0  0  0  0
 30 31  1  0  0  0  0
 31 32  1  0  0  0  0
 33 32  1  0  0  0  0
 34 33  1  0  0  0  0
 35 30  1  0  0  0  0
 35 34  1  0  0  0  0
M  END
>  <minimizedAffinity>
-5.38023376

$$$$

 OpenBabel03252507533D

 35 38  0  0  1  0  0  0  0  0999 V2000
   38.2930   25.7570   42.4900 C   0  0  2  0  0  0  0  0  0  0  0  0
   37.1830   26.6800   42.9070 C   0  0  0  0  0  0  0  0  0  0  0  0
   38.0050   27.7850   43.5620 C   0  0  0  0  0  0  0  0  0  0  0  0
   39.3050   27.8180   42.7800 C   0  0  1  0  0  0  0  0  0  0  0  0
   39.1830   26.7540   41.7490 C   0  0  0  0  0  0  0  0  0  0  0  0
   38.7760   25.3400   43.3760 H   0  0  0  0  0  0  0  0  0  0  0  0
   36.6100   27.0260   42.0430 H   0  0  0  0  0  0  0  0  0  0  0  0
   36.5700   26.1800   43.6830 H   0  0  0  0  0  0  0  0  0  0  0  0
   38.1320   27.5970   44.6300 H   0  0  0  0  0  0  0  0  0  0  0  0
   37.4840   28.7680   43.4510 H   0  0  0  0  0  0  0  0  0  0  0  0
   40.0790   27.5060   43.4930 H   0  0  0  0  0  0  0  0  0  0  0  0
   40.0830   26.1800   41.5250 H   0  0  0  0  0  0  0  0  0  0  0  0
   38.5150   26.9460   40.8970 H   0  0  0  0  0  0  0  0  0  0  0  0
   36.2300   23.5990   40.1820 C   0  0  0  0  0  0  0  0  0  0  0  0
   36.5380   24.6870   41.0390 C   0  0  0  0  0  0  0  0  0  0  0  0
   37.8560   24.6730   41.5640 C   0  0  0  0  0  0  0  0  0  0  0  0
   38.7590   23.6610   41.2470 N   0  0  0  0  0  0  0  0  0  0  0  0
   38.3570   22.6770   40.4210 C   0  0  0  0  0  0  0  0  0  0  0  0
   37.1160   22.6460   39.8980 N   0  0  0  0  0  0  0  0  0  0  0  0
   35.2280   23.5990   39.7750 H   0  0  0  0  0  0  0  0  0  0  0  0
   35.8910   25.4830   41.3130 H   0  0  0  0  0  0  0  0  0  0  0  0
   39.1560   21.9640   40.2650 H   0  0  0  0  0  0  0  0  0  0  0  0
   39.5350   29.0910   42.0560 C   0  0  2  0  0  0  0  0  0  0  0  0
   39.1920   30.3520   42.7450 C   0  0  0  0  0  0  0  0  0  0  0  0
   38.5920   29.9500   41.4180 C   0  0  2  0  0  0  0  0  0  0  0  0
   40.5930   29.0630   41.6500 H   0  0  0  0  0  0  0  0  0  0  0  0
   39.9960   31.1490   42.7800 H   0  0  0  0  0  0  0  0  0  0  0  0
   38.3890   30.6420   43.3810 H   0  0  0  0  0  0  0  0  0  0  0  0
   39.0340   30.5770   40.5750 H   0  0  0  0  0  0  0  0  0  0  0  0
   37.1460   29.8040   41.1630 C   0  0  0  0  0  3  0  0  0  0  0  0
   36.5620   31.1790   40.7810 C   0  0  0  0  0  2  0  0  0  0  0  0
   36.9830   31.5870   39.3990 C   0  0  0  0  0  2  0  0  0  0  0  0
   36.6970   30.5900   38.3260 C   0  0  0  0  0  2  0  0  0  0  0  0
   37.3060   29.2650   38.7220 C   0  0  0  0  0  2  0  0  0  0  0  0
   36.8140   28.8070   40.0570 C   0  0  0  0  0  2  0  0  0  0  0  0
  1  2  1  0  0  0  0
  1  6  1  1  0  0  0
  2  3  1  0  0  0  0
  2  8  1  0  0  0  0
  3  9  1  0  0  0  0
  4 11  1  1  0  0  0
  4  3  1  0  0  0  0
  5  1  1  0  0  0  0
  5  4  1  0  0  0  0
  7  2  1  0  0  0  0
 10  3  1  0  0  0  0
 12  5  1  0  0  0  0
 13  5  1  0  0  0  0
 14 15  1  0  0  0  0
 15 21  1  0  0  0  0
 15 16  2  0  0  0  0
 16  1  1  0  0  0  0
 17 16  1  0  0  0  0
 18 17  2  0  0  0  0
 19 14  2  0  0  0  0
 19 18  1  0  0  0  0
 20 14  1  0  0  0  0
 22 18  1  0  0  0  0
 23 26  1  6  0  0  0
 23 24  1  0  0  0  0
 23  4  1  0  0  0  0
 24 27  1  0  0  0  0
 24 28  1  0  0  0  0
 25 29  1  6  0  0  0
 25 23  1  0  0  0  0
 25 24  1  0  0  0  0
 30 25  1  0  0  0  0
 31 30  1  0  0  0  0
 32 31  1  0  0  0  0
 33 34  1  0  0  0  0
 33 32  1  0  0  0  0
 34 35  1  0  0  0  0
 35 30  1  0  0  0  0
M  END
>  <minimizedAffinity>
-5.36342478

$$$$

 OpenBabel03252507533D

 35 38  0  0  1  0  0  0  0  0999 V2000
   37.9540   31.0660   40.0240 C   0  0  2  0  0  0  0  0  0  0  0  0
   36.6790   31.5760   40.6340 C   0  0  0  0  0  0  0  0  0  0  0  0
   35.8220   30.3200   40.5170 C   0  0  0  0  0  0  0  0  0  0  0  0
   36.7980   29.1680   40.6700 C   0  0  1  0  0  0  0  0  0  0  0  0
   38.1350   29.7930   40.8480 C   0  0  0  0  0  0  0  0  0  0  0  0
   37.7960   30.8610   38.9630 H   0  0  0  0  0  0  0  0  0  0  0  0
   36.8350   31.8940   41.6690 H   0  0  0  0  0  0  0  0  0  0  0  0
   36.2550   32.3630   39.9800 H   0  0  0  0  0  0  0  0  0  0  0  0
   35.2670   30.3120   39.5780 H   0  0  0  0  0  0  0  0  0  0  0  0
   35.0780   30.2850   41.3510 H   0  0  0  0  0  0  0  0  0  0  0  0
   36.7950   28.6560   39.6980 H   0  0  0  0  0  0  0  0  0  0  0  0
   38.9790   29.2930   40.3710 H   0  0  0  0  0  0  0  0  0  0  0  0
   38.3470   30.2700   41.8160 H   0  0  0  0  0  0  0  0  0  0  0  0
   41.3090   32.4580   41.0450 C   0  0  0  0  0  0  0  0  0  0  0  0
   40.2700   31.5030   40.9030 C   0  0  0  0  0  0  0  0  0  0  0  0
   39.1200   31.9750   40.2220 C   0  0  0  0  0  0  0  0  0  0  0  0
   39.0400   33.2790   39.7370 N   0  0  0  0  0  0  0  0  0  0  0  0
   40.0880   34.1010   39.9280 C   0  0  0  0  0  0  0  0  0  0  0  0
   41.2020   33.6980   40.5710 N   0  0  0  0  0  0  0  0  0  0  0  0
   42.1920   32.1110   41.5640 H   0  0  0  0  0  0  0  0  0  0  0  0
   40.2780   30.5000   41.2510 H   0  0  0  0  0  0  0  0  0  0  0  0
   39.8880   35.0750   39.5040 H   0  0  0  0  0  0  0  0  0  0  0  0
   36.5530   28.3310   41.8680 C   0  0  2  0  0  0  0  0  0  0  0  0
   37.5340   28.3960   42.9700 C   0  0  0  0  0  0  0  0  0  0  0  0
   37.1770   27.1110   42.2600 C   0  0  2  0  0  0  0  0  0  0  0  0
   35.4830   28.5140   42.1960 H   0  0  0  0  0  0  0  0  0  0  0  0
   37.1240   28.5970   44.0080 H   0  0  0  0  0  0  0  0  0  0  0  0
   38.5970   28.4560   43.0010 H   0  0  0  0  0  0  0  0  0  0  0  0
   36.5280   26.4530   42.9280 H   0  0  0  0  0  0  0  0  0  0  0  0
   38.1470   26.2380   41.5710 C   0  0  0  0  0  3  0  0  0  0  0  0
   38.1130   24.8390   42.2200 C   0  0  0  0  0  2  0  0  0  0  0  0
   36.8600   24.0970   41.8540 C   0  0  0  0  0  2  0  0  0  0  0  0
   36.5850   23.9940   40.3910 C   0  0  0  0  0  2  0  0  0  0  0  0
   36.6000   25.3820   39.7970 C   0  0  0  0  0  2  0  0  0  0  0  0
   37.8870   26.0900   40.0750 C   0  0  0  0  0  2  0  0  0  0  0  0
  1  6  1  6  0  0  0
  1 16  1  0  0  0  0
  1  2  1  0  0  0  0
  1  5  1  0  0  0  0
  2  7  1  0  0  0  0
  3  2  1  0  0  0  0
  3  4  1  0  0  0  0
  3 10  1  0  0  0  0
  4 11  1  6  0  0  0
  4  5  1  0  0  0  0
  4 23  1  0  0  0  0
  5 13  1  0  0  0  0
  8  2  1  0  0  0  0
  9  3  1  0  0  0  0
 12  5  1  0  0  0  0
 14 20  1  0  0  0  0
 15 14  1  0  0  0  0
 15 21  1  0  0  0  0
 16 15  2  0  0  0  0
 17 18  2  0  0  0  0
 17 16  1  0  0  0  0
 18 19  1  0  0  0  0
 19 14  2  0  0  0  0
 22 18  1  0  0  0  0
 23 26  1  1  0  0  0
 23 25  1  0  0  0  0
 23 24  1  0  0  0  0
 24 28  1  0  0  0  0
 24 27  1  0  0  0  0
 25 29  1  1  0  0  0
 25 24  1  0  0  0  0
 30 31  1  0  0  0  0
 30 25  1  0  0  0  0
 32 31  1  0  0  0  0
 33 32  1  0  0  0  0
 34 35  1  0  0  0  0
 34 33  1  0  0  0  0
 35 30  1  0  0  0  0
M  END
>  <minimizedAffinity>
-5.31919861

$$$$

 OpenBabel03252507533D

 35 38  0  0  1  0  0  0  0  0999 V2000
   37.3610   28.9100   42.2290 C   0  0  2  0  0  0  0  0  0  0  0  0
   37.3090   28.5200   43.6800 C   0  0  0  0  0  0  0  0  0  0  0  0
   36.4910   27.2380   43.5680 C   0  0  0  0  0  0  0  0  0  0  0  0
   36.8760   26.6470   42.2250 C   0  0  1  0  0  0  0  0  0  0  0  0
   37.8580   27.5930   41.6330 C   0  0  0  0  0  0  0  0  0  0  0  0
   36.3600   29.1750   41.8840 H   0  0  0  0  0  0  0  0  0  0  0  0
   38.3130   28.3550   44.0810 H   0  0  0  0  0  0  0  0  0  0  0  0
   36.7200   29.2760   44.2350 H   0  0  0  0  0  0  0  0  0  0  0  0
   35.4250   27.4440   43.6760 H   0  0  0  0  0  0  0  0  0  0  0  0
   36.7820   26.5260   44.3800 H   0  0  0  0  0  0  0  0  0  0  0  0
   35.9610   26.6900   41.6180 H   0  0  0  0  0  0  0  0  0  0  0  0
   37.7970   27.7570   40.5570 H   0  0  0  0  0  0  0  0  0  0  0  0
   38.8700   27.6070   42.0620 H   0  0  0  0  0  0  0  0  0  0  0  0
   40.4270   31.1080   42.2360 C   0  0  0  0  0  0  0  0  0  0  0  0
   39.5940   30.0130   42.5810 C   0  0  0  0  0  0  0  0  0  0  0  0
   38.3320   30.0030   41.9350 C   0  0  0  0  0  0  0  0  0  0  0  0
   37.9610   31.0000   41.0350 N   0  0  0  0  0  0  0  0  0  0  0  0
   38.8340   31.9940   40.7830 C   0  0  0  0  0  0  0  0  0  0  0  0
   40.0440   32.0470   41.3720 N   0  0  0  0  0  0  0  0  0  0  0  0
   41.3930   31.1280   42.7220 H   0  0  0  0  0  0  0  0  0  0  0  0
   39.8250   29.2280   43.2570 H   0  0  0  0  0  0  0  0  0  0  0  0
   38.4160   32.6930   40.0710 H   0  0  0  0  0  0  0  0  0  0  0  0
   37.5530   25.3320   42.3220 C   0  0  2  0  0  0  0  0  0  0  0  0
   39.0020   25.2770   42.0390 C   0  0  0  0  0  0  0  0  0  0  0  0
   37.9830   24.4590   41.2800 C   0  0  2  0  0  0  0  0  0  0  0  0
   37.2630   24.8740   43.3180 H   0  0  0  0  0  0  0  0  0  0  0  0
   39.6550   24.7770   42.8180 H   0  0  0  0  0  0  0  0  0  0  0  0
   39.6250   25.7530   41.3190 H   0  0  0  0  0  0  0  0  0  0  0  0
   38.0410   23.3630   41.5900 H   0  0  0  0  0  0  0  0  0  0  0  0
   37.7920   24.5060   39.8170 C   0  0  0  0  0  3  0  0  0  0  0  0
   38.3370   23.2030   39.1980 C   0  0  0  0  0  2  0  0  0  0  0  0
   37.4360   22.0380   39.4930 C   0  0  0  0  0  2  0  0  0  0  0  0
   36.0050   22.2290   39.1170 C   0  0  0  0  0  2  0  0  0  0  0  0
   35.5000   23.4980   39.7630 C   0  0  0  0  0  2  0  0  0  0  0  0
   36.3380   24.6790   39.3920 C   0  0  0  0  0  2  0  0  0  0  0  0
  1  6  1  6  0  0  0
  1  2  1  0  0  0  0
  2  7  1  0  0  0  0
  2  8  1  0  0  0  0
  3  9  1  0  0  0  0
  3  2  1  0  0  0  0
  3 10  1  0  0  0  0
  4 11  1  6  0  0  0
  4 23  1  0  0  0  0
  4  3  1  0  0  0  0
  5 13  1  0  0  0  0
  5  4  1  0  0  0  0
  5  1  1  0  0  0  0
 12  5  1  0  0  0  0
 14 15  1  0  0  0  0
 14 20  1  0  0  0  0
 15 21  1  0  0  0  0
 16  1  1  0  0  0  0
 16 15  2  0  0  0  0
 17 16  1  0  0  0  0
 18 17  2  0  0  0  0
 18 19  1  0  0  0  0
 19 14  2  0  0  0  0
 22 18  1  0  0  0  0
 23 26  1  1  0  0  0
 24 23  1  0  0  0  0
 24 27  1  0  0  0  0
 25 29  1  1  0  0  0
 25 24  1  0  0  0  0
 25 23  1  0  0  0  0
 28 24  1  0  0  0  0
 30 25  1  0  0  0  0
 31 32  1  0  0  0  0
 31 30  1  0  0  0  0
 33 32  1  0  0  0  0
 33 34  1  0  0  0  0
 35 34  1  0  0  0  0
 35 30  1  0  0  0  0
M  END
>  <minimizedAffinity>
-5.30446434

$$$$

 OpenBabel03252507533D

 35 38  0  0  1  0  0  0  0  0999 V2000
   36.5220   29.8890   39.5350 C   0  0  2  0  0  0  0  0  0  0  0  0
   37.9510   29.4950   39.7860 C   0  0  0  0  0  0  0  0  0  0  0  0
   37.9680   29.5620   41.3100 C   0  0  0  0  0  0  0  0  0  0  0  0
   36.5670   29.1620   41.7320 C   0  0  1  0  0  0  0  0  0  0  0  0
   35.8220   28.9040   40.4710 C   0  0  0  0  0  0  0  0  0  0  0  0
   36.3710   30.9290   39.8300 H   0  0  0  0  0  0  0  0  0  0  0  0
   38.1590   28.4940   39.3980 H   0  0  0  0  0  0  0  0  0  0  0  0
   38.6180   30.2820   39.3830 H   0  0  0  0  0  0  0  0  0  0  0  0
   38.2720   30.5520   41.6540 H   0  0  0  0  0  0  0  0  0  0  0  0
   38.7000   28.8210   41.7170 H   0  0  0  0  0  0  0  0  0  0  0  0
   36.1380   30.0610   42.1960 H   0  0  0  0  0  0  0  0  0  0  0  0
   34.7780   29.2180   40.4430 H   0  0  0  0  0  0  0  0  0  0  0  0
   36.0590   27.9820   39.9220 H   0  0  0  0  0  0  0  0  0  0  0  0
   34.4950   28.9080   36.5080 C   0  0  0  0  0  0  0  0  0  0  0  0
   34.8060   29.0850   37.8810 C   0  0  0  0  0  0  0  0  0  0  0  0
   36.0760   29.6660   38.1300 C   0  0  0  0  0  0  0  0  0  0  0  0
   36.9330   30.0260   37.0920 N   0  0  0  0  0  0  0  0  0  0  0  0
   36.5320   29.8110   35.8250 C   0  0  0  0  0  0  0  0  0  0  0  0
   35.3360   29.2620   35.5380 N   0  0  0  0  0  0  0  0  0  0  0  0
   33.5290   28.4660   36.3040 H   0  0  0  0  0  0  0  0  0  0  0  0
   34.1930   28.8310   38.7080 H   0  0  0  0  0  0  0  0  0  0  0  0
   37.2930   30.1360   35.1270 H   0  0  0  0  0  0  0  0  0  0  0  0
   36.5150   27.9100   42.5230 C   0  0  2  0  0  0  0  0  0  0  0  0
   37.6430   27.6170   43.4310 C   0  0  0  0  0  0  0  0  0  0  0  0
   37.2160   26.6850   42.3210 C   0  0  2  0  0  0  0  0  0  0  0  0
   35.4990   27.8690   43.0270 H   0  0  0  0  0  0  0  0  0  0  0  0
   37.3820   27.3680   44.5050 H   0  0  0  0  0  0  0  0  0  0  0  0
   38.6970   27.7420   43.3510 H   0  0  0  0  0  0  0  0  0  0  0  0
   36.6840   25.7720   42.7510 H   0  0  0  0  0  0  0  0  0  0  0  0
   38.0950   26.2240   41.2290 C   0  0  0  0  0  3  0  0  0  0  0  0
   38.9000   25.0020   41.7140 C   0  0  0  0  0  2  0  0  0  0  0  0
   38.0310   23.7810   41.8180 C   0  0  0  0  0  2  0  0  0  0  0  0
   37.2650   23.4380   40.5840 C   0  0  0  0  0  2  0  0  0  0  0  0
   36.4700   24.6490   40.1560 C   0  0  0  0  0  2  0  0  0  0  0  0
   37.3460   25.8440   39.9560 C   0  0  0  0  0  2  0  0  0  0  0  0
  1  2  1  0  0  0  0
  1  6  1  1  0  0  0
  1  5  1  0  0  0  0
  2  3  1  0  0  0  0
  3  9  1  0  0  0  0
  3 10  1  0  0  0  0
  3  4  1  0  0  0  0
  4 11  1  1  0  0  0
  4 23  1  0  0  0  0
  5  4  1  0  0  0  0
  7  2  1  0  0  0  0
  8  2  1  0  0  0  0
 12  5  1  0  0  0  0
 13  5  1  0  0  0  0
 14 15  1  0  0  0  0
 15 16  2  0  0  0  0
 15 21  1  0  0  0  0
 16  1  1  0  0  0  0
 17 16  1  0  0  0  0
 18 17  2  0  0  0  0
 19 18  1  0  0  0  0
 19 14  2  0  0  0  0
 20 14  1  0  0  0  0
 22 18  1  0  0  0  0
 23 26  1  1  0  0  0
 23 24  1  0  0  0  0
 24 27  1  0  0  0  0
 25 23  1  0  0  0  0
 25 29  1  1  0  0  0
 25 24  1  0  0  0  0
 28 24  1  0  0  0  0
 30 31  1  0  0  0  0
 30 25  1  0  0  0  0
 31 32  1  0  0  0  0
 33 32  1  0  0  0  0
 34 33  1  0  0  0  0
 35 34  1  0  0  0  0
 35 30  1  0  0  0  0
M  END
>  <minimizedAffinity>
-5.2227602

$$$$
