
     RDKit          3D

 46 50  0  0  0  0  0  0  0  0999 V2000
   47.2662   31.3923   45.1499 C   0  0  0  0  0  0  0  0  0  0  0  0
   46.8747   32.7175   45.1416 C   0  0  0  0  0  0  0  0  0  0  0  0
   46.2384   33.3297   46.2081 C   0  0  0  0  0  0  0  0  0  0  0  0
   45.9685   32.5950   47.3573 C   0  0  0  0  0  0  0  0  0  0  0  0
   45.3809   32.8475   48.5614 N   0  0  0  0  0  0  0  0  0  0  0  0
   45.4113   31.7060   49.2899 C   0  0  0  0  0  0  0  0  0  0  0  0
   46.0146   30.7631   48.5325 N   0  0  0  0  0  0  0  0  0  0  0  0
   46.3626   31.2820   47.3511 C   0  0  0  0  0  0  0  0  0  0  0  0
   46.9926   30.6556   46.3092 C   0  0  0  0  0  0  0  0  0  0  0  0
   46.4839   35.1821   42.4293 C   0  0  0  0  0  0  0  0  0  0  0  0
   47.6490   35.0193   41.6979 C   0  0  0  0  0  0  0  0  0  0  0  0
   48.5756   34.0638   42.1301 C   0  0  0  0  0  0  0  0  0  0  0  0
   48.2846   33.3376   43.2538 N   0  0  0  0  0  0  0  0  0  0  0  0
   47.1466   33.5182   43.9416 C   0  0  0  0  0  0  0  0  0  0  0  0
   46.2414   34.4348   43.5402 N   0  0  0  0  0  0  0  0  0  0  0  0
   47.3781   29.2374   46.3968 C   0  0  0  0  0  0  0  0  0  0  0  0
   48.6813   28.7985   46.6133 C   0  0  0  0  0  0  0  0  0  0  0  0
   48.5463   27.3968   46.6174 C   0  0  0  0  0  0  0  0  0  0  0  0
   47.2126   27.0883   46.4097 C   0  0  0  0  0  0  0  0  0  0  0  0
   46.5617   28.2316   46.2847 O   0  0  0  0  0  0  0  0  0  0  0  0
   47.7566   30.9468   44.3095 H   0  0  0  0  0  0  0  0  0  0  0  0
   45.9395   34.3597   46.1891 H   0  0  0  0  0  0  0  0  0  0  0  0
   44.9904   33.7985   48.8131 H   0  0  0  0  0  0  0  0  0  0  0  0
   45.0063   31.6353   50.2914 H   0  0  0  0  0  0  0  0  0  0  0  0
   45.7296   35.9186   42.1283 H   0  0  0  0  0  0  0  0  0  0  0  0
   47.8471   35.6035   40.8226 H   0  0  0  0  0  0  0  0  0  0  0  0
   49.5070   33.8956   41.5921 H   0  0  0  0  0  0  0  0  0  0  0  0
   49.5880   29.3781   46.7477 H   0  0  0  0  0  0  0  0  0  0  0  0
   49.3481   26.6877   46.7586 H   0  0  0  0  0  0  0  0  0  0  0  0
   46.5708   25.7356   46.3318 C   0  0  0  0  0  0  0  0  0  0  0  0
   47.5921   24.6444   46.1962 C   0  0  0  0  0  0  0  0  0  0  0  0
   47.7865   24.2028   44.7652 C   0  0  0  0  0  0  0  0  0  0  0  0
   46.5132   23.6225   44.2012 C   0  0  0  0  0  0  0  0  0  0  0  0
   45.3055   24.3044   44.7735 C   0  0  0  0  0  0  0  0  0  0  0  0
   45.5558   25.7183   45.2255 C   0  0  0  0  0  0  0  0  0  0  0  0
   46.0182   25.5794   47.3006 H   0  0  0  0  0  0  0  0  0  0  0  0
   48.6039   24.9720   46.5686 H   0  0  0  0  0  0  0  0  0  0  0  0
   47.3521   23.7485   46.8334 H   0  0  0  0  0  0  0  0  0  0  0  0
   48.6028   23.4583   44.7499 H   0  0  0  0  0  0  0  0  0  0  0  0
   48.0644   25.1288   44.1839 H   0  0  0  0  0  0  0  0  0  0  0  0
   46.5092   22.5203   44.4305 H   0  0  0  0  0  0  0  0  0  0  0  0
   46.5595   23.7652   43.0817 H   0  0  0  0  0  0  0  0  0  0  0  0
   44.4708   24.3319   44.0354 H   0  0  0  0  0  0  0  0  0  0  0  0
   44.8936   23.7491   45.6643 H   0  0  0  0  0  0  0  0  0  0  0  0
   45.8324   26.3483   44.3605 H   0  0  0  0  0  0  0  0  0  0  0  0
   44.5903   26.0894   45.6301 H   0  0  0  0  0  0  0  0  0  0  0  0
  1  9  2  0
  2  1  1  0
  2  3  2  0
  3  4  1  0
  4  5  1  0
  5  6  1  0
  7  6  2  0
  8  4  2  0
  8  7  1  0
  9 16  1  0
  9  8  1  0
 10 15  2  0
 11 12  2  0
 11 10  1  0
 12 13  1  0
 13 14  2  0
 14  2  1  0
 15 14  1  0
 16 17  2  0
 17 18  1  0
 19 18  2  0
 20 16  1  0
 20 19  1  0
  1 21  1  0
  3 22  1  0
  5 23  1  0
  6 24  1  0
 10 25  1  0
 11 26  1  0
 12 27  1  0
 17 28  1  0
 18 29  1  0
 30 31  1  0
 31 32  1  0
 32 33  1  0
 33 34  1  0
 34 35  1  0
 35 30  1  0
 30 36  1  0
 31 37  1  0
 31 38  1  0
 32 39  1  0
 32 40  1  0
 33 41  1  0
 33 42  1  0
 34 43  1  0
 34 44  1  0
 35 45  1  0
 35 46  1  0
 19 30  1  0
M  ISO  8  21  14  22  14  23   9  24  14  25  14  26  14  27  14  28  14
M  ISO  1  29  14
M  END
>  <DihAtoms>  (1) 
17,18,29,30

>  <DihDeg>  (1) 
-118.05174158361375

$$$$
