
 OpenBabel03252506273D

 42 46  0  0  0  0  0  0  0  0999 V2000
   35.3740   29.2650   38.6420 C   0  0  0  0  0  0  0  0  0  0  0  0
   34.3900   28.8450   38.3510 H   0  0  0  0  0  0  0  0  0  0  0  0
   35.1180   30.2670   39.0970 H   0  0  0  0  0  0  0  0  0  0  0  0
   36.4600   27.1870   39.7380 C   0  0  0  0  0  0  0  0  0  0  0  0
   35.9840   28.4880   39.7260 C   0  0  0  0  0  0  0  0  0  0  0  0
   36.0880   29.2020   40.9200 C   0  0  0  0  0  0  0  0  0  0  0  0
   36.6310   28.6550   42.0580 C   0  0  0  0  0  0  0  0  0  0  0  0
   36.8570   29.0890   43.3020 N   0  0  0  0  0  0  0  0  0  0  0  0
   37.4370   28.1260   44.0490 C   0  0  0  0  0  0  0  0  0  0  0  0
   37.6110   26.9890   43.2760 C   0  0  0  0  0  0  0  0  0  0  0  0
   37.0990   27.3630   42.0510 C   0  0  0  0  0  0  0  0  0  0  0  0
   36.9970   26.6570   40.8720 C   0  0  0  0  0  0  0  0  0  0  0  0
   36.3440   26.7030   38.7770 H   0  0  0  0  0  0  0  0  0  0  0  0
   35.7550   30.2240   41.0480 H   0  0  0  0  0  0  0  0  0  0  0  0
   36.6130   30.0560   43.6560 H   0  0  0  0  0  0  0  0  0  0  0  0
   37.7320   28.2050   45.1020 H   0  0  0  0  0  0  0  0  0  0  0  0
   38.0390   26.0270   43.5290 H   0  0  0  0  0  0  0  0  0  0  0  0
   37.4840   25.2750   40.8280 C   0  0  0  0  0  3  0  0  0  0  0  0
   36.4750   24.2000   40.9690 C   0  0  0  0  0  2  0  0  0  0  0  0
   36.3820   23.2410   39.8170 C   0  0  0  0  0  2  0  0  0  0  0  0
   37.6800   22.5860   39.4740 C   0  0  0  0  0  2  0  0  0  0  0  0
   38.7970   23.5750   39.5470 C   0  0  0  0  0  2  0  0  0  0  0  0
   38.2150   24.9900   39.5090 C   0  0  0  0  0  2  0  0  0  0  0  0
   36.2100   29.5210   37.4520 C   0  0  0  0  0  0  0  0  0  0  0  0
   35.6610   30.0390   36.6670 H   0  0  0  0  0  0  0  0  0  0  0  0
   36.5100   28.5250   37.0340 H   0  0  0  0  0  0  0  0  0  0  0  0
   38.6570   31.8360   38.6280 C   0  0  0  0  0  0  0  0  0  0  0  0
   39.4580   30.7710   38.1450 C   0  0  0  0  0  0  0  0  0  0  0  0
   38.6500   29.7980   37.6580 C   0  0  0  0  0  0  0  0  0  0  0  0
   37.4000   30.2400   37.8290 N   0  0  0  0  0  0  0  0  0  0  0  0
   37.4040   31.4480   38.4040 N   0  0  0  0  0  0  0  0  0  0  0  0
   40.5400   30.7290   38.1600 H   0  0  0  0  0  0  0  0  0  0  0  0
   38.9990   28.8670   37.2260 H   0  0  0  0  0  0  0  0  0  0  0  0
   38.8430   34.9260   40.5390 C   0  0  0  0  0  0  0  0  0  0  0  0
   40.1650   35.3340   40.3710 C   0  0  0  0  0  0  0  0  0  0  0  0
   40.9930   34.5350   39.5920 C   0  0  0  0  0  0  0  0  0  0  0  0
   40.4740   33.4070   39.0410 N   0  0  0  0  0  0  0  0  0  0  0  0
   39.2050   33.0350   39.2150 C   0  0  0  0  0  0  0  0  0  0  0  0
   38.3890   33.8040   39.9700 N   0  0  0  0  0  0  0  0  0  0  0  0
   38.1420   35.4980   41.1300 H   0  0  0  0  0  0  0  0  0  0  0  0
   40.5060   36.2280   40.8310 H   0  0  0  0  0  0  0  0  0  0  0  0
   42.0340   34.8140   39.4330 H   0  0  0  0  0  0  0  0  0  0  0  0
  1  3  1  0  0  0  0
  1  5  1  0  0  0  0
  2  1  1  0  0  0  0
  4 12  1  0  0  0  0
  5  4  2  0  0  0  0
  5  6  1  0  0  0  0
  6 14  1  0  0  0  0
  6  7  2  0  0  0  0
  7  8  1  0  0  0  0
  8 15  1  0  0  0  0
  8  9  1  0  0  0  0
  9 16  1  0  0  0  0
 10 17  1  0  0  0  0
 10  9  2  0  0  0  0
 11  7  1  0  0  0  0
 11 10  1  0  0  0  0
 12 11  2  0  0  0  0
 13  4  1  0  0  0  0
 18 12  1  0  0  0  0
 18 19  1  0  0  0  0
 20 19  1  0  0  0  0
 21 22  1  0  0  0  0
 21 20  1  0  0  0  0
 23 22  1  0  0  0  0
 23 18  1  0  0  0  0
 24 30  1  0  0  0  0
 24  1  1  0  0  0  0
 25 24  1  0  0  0  0
 26 24  1  0  0  0  0
 27 38  1  0  0  0  0
 28 32  1  0  0  0  0
 28 27  1  0  0  0  0
 29 30  1  0  0  0  0
 29 28  2  0  0  0  0
 30 31  1  0  0  0  0
 31 27  2  0  0  0  0
 33 29  1  0  0  0  0
 34 40  1  0  0  0  0
 35 34  1  0  0  0  0
 35 41  1  0  0  0  0
 36 35  2  0  0  0  0
 37 38  2  0  0  0  0
 37 36  1  0  0  0  0
 38 39  1  0  0  0  0
 39 34  2  0  0  0  0
 42 36  1  0  0  0  0
M  END
>  <minimizedAffinity>
-6.92501497

$$$$

 OpenBabel03252506273D

 42 46  0  0  0  0  0  0  0  0999 V2000
   36.2040   29.6590   38.6770 C   0  0  0  0  0  0  0  0  0  0  0  0
   35.5180   29.1340   37.9830 H   0  0  0  0  0  0  0  0  0  0  0  0
   35.5660   30.4750   39.1280 H   0  0  0  0  0  0  0  0  0  0  0  0
   36.9550   27.4610   39.8210 C   0  0  0  0  0  0  0  0  0  0  0  0
   36.5840   28.7960   39.8020 C   0  0  0  0  0  0  0  0  0  0  0  0
   36.5590   29.4560   41.0300 C   0  0  0  0  0  0  0  0  0  0  0  0
   36.8830   28.8250   42.2090 C   0  0  0  0  0  0  0  0  0  0  0  0
   36.9490   29.1940   43.4920 N   0  0  0  0  0  0  0  0  0  0  0  0
   37.3370   28.1600   44.2690 C   0  0  0  0  0  0  0  0  0  0  0  0
   37.5410   27.0420   43.4760 C   0  0  0  0  0  0  0  0  0  0  0  0
   37.2490   27.5000   42.2090 C   0  0  0  0  0  0  0  0  0  0  0  0
   37.2740   26.8490   40.9950 C   0  0  0  0  0  0  0  0  0  0  0  0
   36.9500   27.0240   38.8310 H   0  0  0  0  0  0  0  0  0  0  0  0
   36.2880   30.4950   41.1570 H   0  0  0  0  0  0  0  0  0  0  0  0
   36.7280   30.1630   43.8520 H   0  0  0  0  0  0  0  0  0  0  0  0
   37.4750   28.1760   45.3570 H   0  0  0  0  0  0  0  0  0  0  0  0
   37.8530   26.0400   43.7430 H   0  0  0  0  0  0  0  0  0  0  0  0
   37.6580   25.4340   40.9570 C   0  0  0  0  0  3  0  0  0  0  0  0
   36.5740   24.4370   41.1130 C   0  0  0  0  0  2  0  0  0  0  0  0
   36.4010   23.4800   39.9690 C   0  0  0  0  0  2  0  0  0  0  0  0
   37.6450   22.7290   39.6200 C   0  0  0  0  0  2  0  0  0  0  0  0
   38.8320   23.6340   39.6770 C   0  0  0  0  0  2  0  0  0  0  0  0
   38.3550   25.0880   39.6340 C   0  0  0  0  0  2  0  0  0  0  0  0
   37.3020   30.3140   37.9380 C   0  0  0  0  0  0  0  0  0  0  0  0
   37.0230   30.5510   36.9130 H   0  0  0  0  0  0  0  0  0  0  0  0
   38.1500   29.5840   37.8840 H   0  0  0  0  0  0  0  0  0  0  0  0
   39.1040   32.8980   39.6150 C   0  0  0  0  0  0  0  0  0  0  0  0
   37.7670   33.3600   39.6990 C   0  0  0  0  0  0  0  0  0  0  0  0
   36.9510   32.4630   39.0930 C   0  0  0  0  0  0  0  0  0  0  0  0
   37.7470   31.4850   38.6510 N   0  0  0  0  0  0  0  0  0  0  0  0
   39.0230   31.7420   38.9600 N   0  0  0  0  0  0  0  0  0  0  0  0
   37.4380   34.2800   40.1680 H   0  0  0  0  0  0  0  0  0  0  0  0
   35.8750   32.5670   39.0100 H   0  0  0  0  0  0  0  0  0  0  0  0
   42.3520   33.5220   41.1300 C   0  0  0  0  0  0  0  0  0  0  0  0
   42.4060   34.9110   41.2230 C   0  0  0  0  0  0  0  0  0  0  0  0
   41.3130   35.6330   40.7600 C   0  0  0  0  0  0  0  0  0  0  0  0
   40.2580   34.9500   40.2430 N   0  0  0  0  0  0  0  0  0  0  0  0
   40.2270   33.6190   40.1630 C   0  0  0  0  0  0  0  0  0  0  0  0
   41.2840   32.9060   40.6110 N   0  0  0  0  0  0  0  0  0  0  0  0
   43.1650   32.8960   41.4710 H   0  0  0  0  0  0  0  0  0  0  0  0
   43.2640   35.3810   41.6380 H   0  0  0  0  0  0  0  0  0  0  0  0
   41.3110   36.7210   40.8130 H   0  0  0  0  0  0  0  0  0  0  0  0
  1  3  1  0  0  0  0
  1  5  1  0  0  0  0
  2  1  1  0  0  0  0
  4 12  1  0  0  0  0
  5  4  2  0  0  0  0
  5  6  1  0  0  0  0
  6 14  1  0  0  0  0
  6  7  2  0  0  0  0
  7 11  1  0  0  0  0
  7  8  1  0  0  0  0
  8 15  1  0  0  0  0
  8  9  1  0  0  0  0
  9 16  1  0  0  0  0
 10 17  1  0  0  0  0
 10  9  2  0  0  0  0
 11 10  1  0  0  0  0
 12 11  2  0  0  0  0
 13  4  1  0  0  0  0
 18 12  1  0  0  0  0
 18 19  1  0  0  0  0
 20 19  1  0  0  0  0
 21 22  1  0  0  0  0
 21 20  1  0  0  0  0
 23 22  1  0  0  0  0
 23 18  1  0  0  0  0
 24 30  1  0  0  0  0
 24  1  1  0  0  0  0
 25 24  1  0  0  0  0
 26 24  1  0  0  0  0
 27 28  1  0  0  0  0
 27 38  1  0  0  0  0
 28 32  1  0  0  0  0
 29 28  2  0  0  0  0
 30 31  1  0  0  0  0
 30 29  1  0  0  0  0
 31 27  2  0  0  0  0
 33 29  1  0  0  0  0
 34 35  1  0  0  0  0
 34 40  1  0  0  0  0
 35 41  1  0  0  0  0
 36 42  1  0  0  0  0
 36 35  2  0  0  0  0
 37 36  1  0  0  0  0
 38 37  2  0  0  0  0
 38 39  1  0  0  0  0
 39 34  2  0  0  0  0
M  END
>  <minimizedAffinity>
-6.80023718

$$$$

 OpenBabel03252506273D

 42 46  0  0  0  0  0  0  0  0999 V2000
   39.2300   28.5100   43.0380 C   0  0  0  0  0  0  0  0  0  0  0  0
   40.1090   28.0220   42.5730 H   0  0  0  0  0  0  0  0  0  0  0  0
   39.6670   29.0960   43.9000 H   0  0  0  0  0  0  0  0  0  0  0  0
   37.5550   29.4270   41.2910 C   0  0  0  0  0  0  0  0  0  0  0  0
   38.6440   29.5140   42.1420 C   0  0  0  0  0  0  0  0  0  0  0  0
   39.3120   30.7370   42.1800 C   0  0  0  0  0  0  0  0  0  0  0  0
   38.9210   31.8110   41.4150 C   0  0  0  0  0  0  0  0  0  0  0  0
   39.3540   33.0650   41.2530 N   0  0  0  0  0  0  0  0  0  0  0  0
   38.5880   33.7260   40.3590 C   0  0  0  0  0  0  0  0  0  0  0  0
   37.5930   32.8800   39.8950 C   0  0  0  0  0  0  0  0  0  0  0  0
   37.8380   31.7060   40.5750 C   0  0  0  0  0  0  0  0  0  0  0  0
   37.1780   30.4970   40.5390 C   0  0  0  0  0  0  0  0  0  0  0  0
   37.0930   28.4480   41.3200 H   0  0  0  0  0  0  0  0  0  0  0  0
   40.1750   30.9400   42.7990 H   0  0  0  0  0  0  0  0  0  0  0  0
   40.1840   33.4850   41.7560 H   0  0  0  0  0  0  0  0  0  0  0  0
   38.7130   34.7660   40.0340 H   0  0  0  0  0  0  0  0  0  0  0  0
   36.8010   33.0570   39.1770 H   0  0  0  0  0  0  0  0  0  0  0  0
   36.0190   30.3490   39.6530 C   0  0  0  0  0  3  0  0  0  0  0  0
   36.2920   30.0620   38.2270 C   0  0  0  0  0  2  0  0  0  0  0  0
   35.7130   28.7820   37.6970 C   0  0  0  0  0  2  0  0  0  0  0  0
   34.2360   28.6630   37.8960 C   0  0  0  0  0  2  0  0  0  0  0  0
   33.8510   29.1670   39.2480 C   0  0  0  0  0  2  0  0  0  0  0  0
   35.0970   29.2200   40.1350 C   0  0  0  0  0  2  0  0  0  0  0  0
   38.3100   27.5060   43.6080 C   0  0  0  0  0  0  0  0  0  0  0  0
   37.2780   27.8540   43.6210 H   0  0  0  0  0  0  0  0  0  0  0  0
   38.6110   27.3450   44.6760 H   0  0  0  0  0  0  0  0  0  0  0  0
   37.9170   24.5770   41.6070 C   0  0  0  0  0  0  0  0  0  0  0  0
   39.2220   24.4080   42.1370 C   0  0  0  0  0  0  0  0  0  0  0  0
   39.5140   25.4650   42.9340 C   0  0  0  0  0  0  0  0  0  0  0  0
   38.4390   26.2570   42.9000 N   0  0  0  0  0  0  0  0  0  0  0  0
   37.4920   25.7320   42.1150 N   0  0  0  0  0  0  0  0  0  0  0  0
   39.8850   23.5740   41.9430 H   0  0  0  0  0  0  0  0  0  0  0  0
   40.4490   25.5930   43.4670 H   0  0  0  0  0  0  0  0  0  0  0  0
   35.4520   23.0840   39.3880 C   0  0  0  0  0  0  0  0  0  0  0  0
   36.0380   21.8760   39.0160 C   0  0  0  0  0  0  0  0  0  0  0  0
   37.2910   21.5790   39.5360 C   0  0  0  0  0  0  0  0  0  0  0  0
   37.8740   22.4760   40.3740 N   0  0  0  0  0  0  0  0  0  0  0  0
   37.2960   23.6270   40.7170 C   0  0  0  0  0  0  0  0  0  0  0  0
   36.0760   23.9280   40.2180 N   0  0  0  0  0  0  0  0  0  0  0  0
   34.4790   23.3810   39.0220 H   0  0  0  0  0  0  0  0  0  0  0  0
   35.5260   21.2210   38.3560 H   0  0  0  0  0  0  0  0  0  0  0  0
   37.7880   20.6460   39.2740 H   0  0  0  0  0  0  0  0  0  0  0  0
  1 24  1  0  0  0  0
  1  3  1  0  0  0  0
  2  1  1  0  0  0  0
  4 13  1  0  0  0  0
  4  5  1  0  0  0  0
  5  6  2  0  0  0  0
  5  1  1  0  0  0  0
  6 14  1  0  0  0  0
  7  6  1  0  0  0  0
  8  7  1  0  0  0  0
  8 15  1  0  0  0  0
  9  8  1  0  0  0  0
 10  9  2  0  0  0  0
 10 11  1  0  0  0  0
 11  7  2  0  0  0  0
 12 11  1  0  0  0  0
 12  4  2  0  0  0  0
 16  9  1  0  0  0  0
 17 10  1  0  0  0  0
 18 23  1  0  0  0  0
 18 12  1  0  0  0  0
 19 18  1  0  0  0  0
 20 21  1  0  0  0  0
 20 19  1  0  0  0  0
 21 22  1  0  0  0  0
 22 23  1  0  0  0  0
 24 25  1  0  0  0  0
 24 26  1  0  0  0  0
 27 31  2  0  0  0  0
 27 28  1  0  0  0  0
 28 29  2  0  0  0  0
 29 33  1  0  0  0  0
 30 29  1  0  0  0  0
 30 24  1  0  0  0  0
 31 30  1  0  0  0  0
 32 28  1  0  0  0  0
 34 39  1  0  0  0  0
 35 34  2  0  0  0  0
 35 36  1  0  0  0  0
 36 37  2  0  0  0  0
 37 38  1  0  0  0  0
 38 27  1  0  0  0  0
 39 38  2  0  0  0  0
 40 34  1  0  0  0  0
 41 35  1  0  0  0  0
 42 36  1  0  0  0  0
M  END
>  <minimizedAffinity>
-6.69512653

$$$$

 OpenBabel03252506273D

 42 46  0  0  0  0  0  0  0  0999 V2000
   37.4200   33.4560   39.4730 C   0  0  0  0  0  0  0  0  0  0  0  0
   37.6140   33.7810   38.4320 H   0  0  0  0  0  0  0  0  0  0  0  0
   36.4570   33.9800   39.7480 H   0  0  0  0  0  0  0  0  0  0  0  0
   36.8960   31.1090   38.5160 C   0  0  0  0  0  0  0  0  0  0  0  0
   37.1140   32.0230   39.5350 C   0  0  0  0  0  0  0  0  0  0  0  0
   37.0390   31.5340   40.8390 C   0  0  0  0  0  0  0  0  0  0  0  0
   36.7630   30.2150   41.1140 C   0  0  0  0  0  0  0  0  0  0  0  0
   36.6370   29.4870   42.2280 N   0  0  0  0  0  0  0  0  0  0  0  0
   36.3590   28.2000   41.9320 C   0  0  0  0  0  0  0  0  0  0  0  0
   36.2930   28.0510   40.5560 C   0  0  0  0  0  0  0  0  0  0  0  0
   36.5500   29.3230   40.0900 C   0  0  0  0  0  0  0  0  0  0  0  0
   36.6240   29.8060   38.8020 C   0  0  0  0  0  0  0  0  0  0  0  0
   36.9710   31.5660   37.5380 H   0  0  0  0  0  0  0  0  0  0  0  0
   37.1880   32.1380   41.7240 H   0  0  0  0  0  0  0  0  0  0  0  0
   36.7410   29.8670   43.2100 H   0  0  0  0  0  0  0  0  0  0  0  0
   36.2040   27.3840   42.6470 H   0  0  0  0  0  0  0  0  0  0  0  0
   36.0930   27.1720   39.9540 H   0  0  0  0  0  0  0  0  0  0  0  0
   36.4000   28.8830   37.6850 C   0  0  0  0  0  3  0  0  0  0  0  0
   35.1480   29.0510   36.9120 C   0  0  0  0  0  2  0  0  0  0  0  0
   35.3200   29.3390   35.4480 C   0  0  0  0  0  2  0  0  0  0  0  0
   36.1500   28.3250   34.7300 C   0  0  0  0  0  2  0  0  0  0  0  0
   37.3200   27.9240   35.5660 C   0  0  0  0  0  2  0  0  0  0  0  0
   37.5380   28.9730   36.6590 C   0  0  0  0  0  2  0  0  0  0  0  0
   38.4680   33.9540   40.3860 C   0  0  0  0  0  0  0  0  0  0  0  0
   38.5070   33.3890   41.3160 H   0  0  0  0  0  0  0  0  0  0  0  0
   38.2000   35.0080   40.6590 H   0  0  0  0  0  0  0  0  0  0  0  0
   41.4550   33.2380   38.5690 C   0  0  0  0  0  0  0  0  0  0  0  0
   41.6410   34.5970   38.9310 C   0  0  0  0  0  0  0  0  0  0  0  0
   40.5640   35.0140   39.6410 C   0  0  0  0  0  0  0  0  0  0  0  0
   39.7440   33.9620   39.7170 N   0  0  0  0  0  0  0  0  0  0  0  0
   40.2720   32.9090   39.0820 N   0  0  0  0  0  0  0  0  0  0  0  0
   42.4990   35.2100   38.6860 H   0  0  0  0  0  0  0  0  0  0  0  0
   40.4420   36.0140   40.0430 H   0  0  0  0  0  0  0  0  0  0  0  0
   42.8160   30.7340   36.3090 C   0  0  0  0  0  0  0  0  0  0  0  0
   44.1840   30.9960   36.3190 C   0  0  0  0  0  0  0  0  0  0  0  0
   44.6360   32.0430   37.1120 C   0  0  0  0  0  0  0  0  0  0  0  0
   43.7250   32.7520   37.8300 N   0  0  0  0  0  0  0  0  0  0  0  0
   42.4190   32.4840   37.8050 C   0  0  0  0  0  0  0  0  0  0  0  0
   41.9670   31.4680   37.0380 N   0  0  0  0  0  0  0  0  0  0  0  0
   42.3930   29.9350   35.7160 H   0  0  0  0  0  0  0  0  0  0  0  0
   44.8410   30.4020   35.7330 H   0  0  0  0  0  0  0  0  0  0  0  0
   45.6980   32.2840   37.1520 H   0  0  0  0  0  0  0  0  0  0  0  0
  1  5  1  0  0  0  0
  1  3  1  0  0  0  0
  1 24  1  0  0  0  0
  2  1  1  0  0  0  0
  4 12  2  0  0  0  0
  4  5  1  0  0  0  0
  5  6  2  0  0  0  0
  6  7  1  0  0  0  0
  6 14  1  0  0  0  0
  7  8  1  0  0  0  0
  8 15  1  0  0  0  0
  9  8  1  0  0  0  0
  9 16  1  0  0  0  0
 10  9  2  0  0  0  0
 11 10  1  0  0  0  0
 11  7  2  0  0  0  0
 12 11  1  0  0  0  0
 13  4  1  0  0  0  0
 17 10  1  0  0  0  0
 18 12  1  0  0  0  0
 19 18  1  0  0  0  0
 20 19  1  0  0  0  0
 21 20  1  0  0  0  0
 21 22  1  0  0  0  0
 22 23  1  0  0  0  0
 23 18  1  0  0  0  0
 24 26  1  0  0  0  0
 24 25  1  0  0  0  0
 27 28  1  0  0  0  0
 27 31  2  0  0  0  0
 28 29  2  0  0  0  0
 29 30  1  0  0  0  0
 29 33  1  0  0  0  0
 30 24  1  0  0  0  0
 31 30  1  0  0  0  0
 32 28  1  0  0  0  0
 34 35  2  0  0  0  0
 34 39  1  0  0  0  0
 35 36  1  0  0  0  0
 36 42  1  0  0  0  0
 36 37  2  0  0  0  0
 38 37  1  0  0  0  0
 38 27  1  0  0  0  0
 39 38  2  0  0  0  0
 40 34  1  0  0  0  0
 41 35  1  0  0  0  0
M  END
>  <minimizedAffinity>
-6.62205315

$$$$

 OpenBabel03252506273D

 42 46  0  0  0  0  0  0  0  0999 V2000
   36.0100   29.2520   36.3950 C   0  0  0  0  0  0  0  0  0  0  0  0
   35.8270   30.0110   35.6090 H   0  0  0  0  0  0  0  0  0  0  0  0
   36.9180   28.6890   36.0250 H   0  0  0  0  0  0  0  0  0  0  0  0
   36.3760   29.4040   38.9530 C   0  0  0  0  0  0  0  0  0  0  0  0
   36.4290   29.8810   37.6530 C   0  0  0  0  0  0  0  0  0  0  0  0
   36.9590   31.1580   37.4770 C   0  0  0  0  0  0  0  0  0  0  0  0
   37.4110   31.9180   38.5310 C   0  0  0  0  0  0  0  0  0  0  0  0
   37.9540   33.1320   38.6570 N   0  0  0  0  0  0  0  0  0  0  0  0
   38.2270   33.4040   39.9510 C   0  0  0  0  0  0  0  0  0  0  0  0
   37.8500   32.3240   40.7350 C   0  0  0  0  0  0  0  0  0  0  0  0
   37.3510   31.4280   39.8140 C   0  0  0  0  0  0  0  0  0  0  0  0
   36.8260   30.1660   39.9880 C   0  0  0  0  0  0  0  0  0  0  0  0
   35.9530   28.4090   39.0040 H   0  0  0  0  0  0  0  0  0  0  0  0
   37.0580   31.6490   36.5180 H   0  0  0  0  0  0  0  0  0  0  0  0
   38.1450   33.7930   37.8540 H   0  0  0  0  0  0  0  0  0  0  0  0
   38.6750   34.3240   40.3460 H   0  0  0  0  0  0  0  0  0  0  0  0
   37.9150   32.1790   41.8070 H   0  0  0  0  0  0  0  0  0  0  0  0
   36.7450   29.6130   41.3430 C   0  0  0  0  0  3  0  0  0  0  0  0
   36.0450   28.3180   41.5020 C   0  0  0  0  0  2  0  0  0  0  0  0
   36.8670   27.1990   42.0760 C   0  0  0  0  0  2  0  0  0  0  0  0
   37.4920   27.5280   43.3930 C   0  0  0  0  0  2  0  0  0  0  0  0
   38.0160   28.9260   43.3860 C   0  0  0  0  0  2  0  0  0  0  0  0
   38.1450   29.4050   41.9380 C   0  0  0  0  0  2  0  0  0  0  0  0
   34.8940   28.2890   36.4690 C   0  0  0  0  0  0  0  0  0  0  0  0
   34.8820   27.7450   37.4130 H   0  0  0  0  0  0  0  0  0  0  0  0
   35.0540   27.5290   35.6600 H   0  0  0  0  0  0  0  0  0  0  0  0
   32.0550   30.0010   35.1490 C   0  0  0  0  0  0  0  0  0  0  0  0
   31.7040   29.8440   36.5130 C   0  0  0  0  0  0  0  0  0  0  0  0
   32.7070   29.1960   37.1540 C   0  0  0  0  0  0  0  0  0  0  0  0
   33.6420   28.9620   36.2290 N   0  0  0  0  0  0  0  0  0  0  0  0
   33.2570   29.4390   35.0400 N   0  0  0  0  0  0  0  0  0  0  0  0
   30.7860   30.1800   36.9780 H   0  0  0  0  0  0  0  0  0  0  0  0
   32.7020   28.9430   38.2090 H   0  0  0  0  0  0  0  0  0  0  0  0
   29.7890   30.4340   32.3360 C   0  0  0  0  0  0  0  0  0  0  0  0
   29.5670   31.8090   32.3060 C   0  0  0  0  0  0  0  0  0  0  0  0
   30.2040   32.5880   33.2630 C   0  0  0  0  0  0  0  0  0  0  0  0
   31.0050   31.9710   34.1720 N   0  0  0  0  0  0  0  0  0  0  0  0
   31.2040   30.6530   34.1830 C   0  0  0  0  0  0  0  0  0  0  0  0
   30.5900   29.8840   33.2560 N   0  0  0  0  0  0  0  0  0  0  0  0
   29.3270   29.7670   31.6220 H   0  0  0  0  0  0  0  0  0  0  0  0
   28.9280   32.2260   31.5670 H   0  0  0  0  0  0  0  0  0  0  0  0
   30.0600   33.6680   33.2780 H   0  0  0  0  0  0  0  0  0  0  0  0
  1 24  1  0  0  0  0
  1  5  1  0  0  0  0
  2  1  1  0  0  0  0
  3  1  1  0  0  0  0
  4 13  1  0  0  0  0
  4 12  1  0  0  0  0
  5  4  2  0  0  0  0
  6  5  1  0  0  0  0
  6  7  2  0  0  0  0
  7  8  1  0  0  0  0
  7 11  1  0  0  0  0
  8  9  1  0  0  0  0
  9 16  1  0  0  0  0
  9 10  2  0  0  0  0
 10 17  1  0  0  0  0
 11 12  2  0  0  0  0
 11 10  1  0  0  0  0
 12 18  1  0  0  0  0
 14  6  1  0  0  0  0
 15  8  1  0  0  0  0
 18 19  1  0  0  0  0
 18 23  1  0  0  0  0
 19 20  1  0  0  0  0
 20 21  1  0  0  0  0
 22 21  1  0  0  0  0
 23 22  1  0  0  0  0
 24 25  1  0  0  0  0
 26 24  1  0  0  0  0
 27 28  1  0  0  0  0
 28 32  1  0  0  0  0
 28 29  2  0  0  0  0
 29 33  1  0  0  0  0
 30 24  1  0  0  0  0
 30 29  1  0  0  0  0
 31 27  2  0  0  0  0
 31 30  1  0  0  0  0
 34 39  1  0  0  0  0
 35 34  2  0  0  0  0
 35 36  1  0  0  0  0
 36 42  1  0  0  0  0
 36 37  2  0  0  0  0
 37 38  1  0  0  0  0
 38 27  1  0  0  0  0
 39 38  2  0  0  0  0
 40 34  1  0  0  0  0
 41 35  1  0  0  0  0
M  END
>  <minimizedAffinity>
-6.61831188

$$$$

 OpenBabel03252506273D

 42 46  0  0  0  0  0  0  0  0999 V2000
   37.3250   32.7990   38.8260 C   0  0  0  0  0  0  0  0  0  0  0  0
   37.8800   33.3030   38.0110 H   0  0  0  0  0  0  0  0  0  0  0  0
   36.2390   32.9770   38.5690 H   0  0  0  0  0  0  0  0  0  0  0  0
   37.5240   30.4050   39.7910 C   0  0  0  0  0  0  0  0  0  0  0  0
   37.5040   31.3440   38.7720 C   0  0  0  0  0  0  0  0  0  0  0  0
   37.6780   30.8620   37.4740 C   0  0  0  0  0  0  0  0  0  0  0  0
   37.8620   29.5250   37.2060 C   0  0  0  0  0  0  0  0  0  0  0  0
   38.0440   28.7990   36.0980 N   0  0  0  0  0  0  0  0  0  0  0  0
   38.1700   27.4890   36.3990 C   0  0  0  0  0  0  0  0  0  0  0  0
   38.0690   27.3220   37.7710 C   0  0  0  0  0  0  0  0  0  0  0  0
   37.8790   28.6090   38.2300 C   0  0  0  0  0  0  0  0  0  0  0  0
   37.7070   29.0850   39.5110 C   0  0  0  0  0  0  0  0  0  0  0  0
   37.3830   30.8580   40.7630 H   0  0  0  0  0  0  0  0  0  0  0  0
   37.6830   31.4840   36.5900 H   0  0  0  0  0  0  0  0  0  0  0  0
   38.0840   29.1950   35.1190 H   0  0  0  0  0  0  0  0  0  0  0  0
   38.3280   26.6680   35.6890 H   0  0  0  0  0  0  0  0  0  0  0  0
   38.1210   26.4240   38.3740 H   0  0  0  0  0  0  0  0  0  0  0  0
   37.7220   28.1350   40.6280 C   0  0  0  0  0  3  0  0  0  0  0  0
   38.9870   28.0040   41.3850 C   0  0  0  0  0  2  0  0  0  0  0  0
   38.9060   28.3240   42.8500 C   0  0  0  0  0  2  0  0  0  0  0  0
   37.8700   27.5340   43.5820 C   0  0  0  0  0  2  0  0  0  0  0  0
   36.6270   27.4200   42.7610 C   0  0  0  0  0  2  0  0  0  0  0  0
   36.6500   28.4910   41.6680 C   0  0  0  0  0  2  0  0  0  0  0  0
   37.5830   33.4550   40.1240 C   0  0  0  0  0  0  0  0  0  0  0  0
   37.5200   32.7570   40.9570 H   0  0  0  0  0  0  0  0  0  0  0  0
   36.7770   34.2190   40.2780 H   0  0  0  0  0  0  0  0  0  0  0  0
   41.0200   34.4070   40.0010 C   0  0  0  0  0  0  0  0  0  0  0  0
   40.3630   35.6600   40.0860 C   0  0  0  0  0  0  0  0  0  0  0  0
   39.0250   35.4530   40.1410 C   0  0  0  0  0  0  0  0  0  0  0  0
   38.8570   34.1280   40.0930 N   0  0  0  0  0  0  0  0  0  0  0  0
   40.0390   33.5080   40.0110 N   0  0  0  0  0  0  0  0  0  0  0  0
   40.8420   36.6310   40.1030 H   0  0  0  0  0  0  0  0  0  0  0  0
   38.2820   36.2410   40.2090 H   0  0  0  0  0  0  0  0  0  0  0  0
   44.5090   34.4080   41.0320 C   0  0  0  0  0  0  0  0  0  0  0  0
   45.1900   34.0310   39.8770 C   0  0  0  0  0  0  0  0  0  0  0  0
   44.4370   33.7760   38.7370 C   0  0  0  0  0  0  0  0  0  0  0  0
   43.0860   33.9070   38.8110 N   0  0  0  0  0  0  0  0  0  0  0  0
   42.4550   34.2690   39.9280 C   0  0  0  0  0  0  0  0  0  0  0  0
   43.1760   34.5200   41.0430 N   0  0  0  0  0  0  0  0  0  0  0  0
   45.0290   34.6230   41.9550 H   0  0  0  0  0  0  0  0  0  0  0  0
   46.2490   33.9480   39.8900 H   0  0  0  0  0  0  0  0  0  0  0  0
   44.9270   33.4780   37.8110 H   0  0  0  0  0  0  0  0  0  0  0  0
  1 24  1  0  0  0  0
  2  1  1  0  0  0  0
  3  1  1  0  0  0  0
  4 13  1  0  0  0  0
  5  1  1  0  0  0  0
  5  4  2  0  0  0  0
  6  5  1  0  0  0  0
  7  6  2  0  0  0  0
  7 11  1  0  0  0  0
  8  9  1  0  0  0  0
  8  7  1  0  0  0  0
  9 10  2  0  0  0  0
 10 11  1  0  0  0  0
 10 17  1  0  0  0  0
 11 12  2  0  0  0  0
 12  4  1  0  0  0  0
 12 18  1  0  0  0  0
 14  6  1  0  0  0  0
 15  8  1  0  0  0  0
 16  9  1  0  0  0  0
 18 19  1  0  0  0  0
 18 23  1  0  0  0  0
 19 20  1  0  0  0  0
 20 21  1  0  0  0  0
 22 21  1  0  0  0  0
 23 22  1  0  0  0  0
 24 26  1  0  0  0  0
 24 25  1  0  0  0  0
 27 31  2  0  0  0  0
 27 28  1  0  0  0  0
 28 32  1  0  0  0  0
 28 29  2  0  0  0  0
 29 33  1  0  0  0  0
 30 24  1  0  0  0  0
 30 29  1  0  0  0  0
 31 30  1  0  0  0  0
 34 39  1  0  0  0  0
 34 40  1  0  0  0  0
 35 41  1  0  0  0  0
 35 34  2  0  0  0  0
 36 37  2  0  0  0  0
 36 35  1  0  0  0  0
 37 38  1  0  0  0  0
 38 27  1  0  0  0  0
 38 39  2  0  0  0  0
 42 36  1  0  0  0  0
M  END
>  <minimizedAffinity>
-6.61656713

$$$$

 OpenBabel03252506273D

 42 46  0  0  0  0  0  0  0  0999 V2000
   35.6440   29.0780   40.8300 C   0  0  0  0  0  0  0  0  0  0  0  0
   34.6350   28.9370   41.2660 H   0  0  0  0  0  0  0  0  0  0  0  0
   36.0280   30.0170   41.3270 H   0  0  0  0  0  0  0  0  0  0  0  0
   36.6240   26.6820   40.8670 C   0  0  0  0  0  0  0  0  0  0  0  0
   36.5590   28.0110   41.2530 C   0  0  0  0  0  0  0  0  0  0  0  0
   37.4990   28.4370   42.1920 C   0  0  0  0  0  0  0  0  0  0  0  0
   38.4470   27.5900   42.7170 C   0  0  0  0  0  0  0  0  0  0  0  0
   39.4440   27.7170   43.5980 N   0  0  0  0  0  0  0  0  0  0  0  0
   40.0950   26.5450   43.7580 C   0  0  0  0  0  0  0  0  0  0  0  0
   39.5130   25.5830   42.9480 C   0  0  0  0  0  0  0  0  0  0  0  0
   38.4970   26.2750   42.3210 C   0  0  0  0  0  0  0  0  0  0  0  0
   37.5690   25.8550   41.3940 C   0  0  0  0  0  0  0  0  0  0  0  0
   35.8640   26.4330   40.1390 H   0  0  0  0  0  0  0  0  0  0  0  0
   37.5590   29.4450   42.5780 H   0  0  0  0  0  0  0  0  0  0  0  0
   39.6900   28.6120   44.1040 H   0  0  0  0  0  0  0  0  0  0  0  0
   40.9510   26.3580   44.4170 H   0  0  0  0  0  0  0  0  0  0  0  0
   39.7610   24.5380   42.8100 H   0  0  0  0  0  0  0  0  0  0  0  0
   37.5920   24.4570   40.9510 C   0  0  0  0  0  3  0  0  0  0  0  0
   36.2860   23.8150   40.6780 C   0  0  0  0  0  2  0  0  0  0  0  0
   36.0920   23.3040   39.2790 C   0  0  0  0  0  2  0  0  0  0  0  0
   37.1540   22.3500   38.8360 C   0  0  0  0  0  2  0  0  0  0  0  0
   38.4970   22.8190   39.2910 C   0  0  0  0  0  2  0  0  0  0  0  0
   38.4100   24.3010   39.6620 C   0  0  0  0  0  2  0  0  0  0  0  0
   35.5600   29.3480   39.3810 C   0  0  0  0  0  0  0  0  0  0  0  0
   34.5750   29.7070   39.0860 H   0  0  0  0  0  0  0  0  0  0  0  0
   35.7230   28.3740   38.8490 H   0  0  0  0  0  0  0  0  0  0  0  0
   37.9780   31.9560   39.0870 C   0  0  0  0  0  0  0  0  0  0  0  0
   38.1540   31.2440   37.8740 C   0  0  0  0  0  0  0  0  0  0  0  0
   37.2850   30.2040   37.8430 C   0  0  0  0  0  0  0  0  0  0  0  0
   36.5980   30.2670   38.9880 N   0  0  0  0  0  0  0  0  0  0  0  0
   37.0090   31.3050   39.7250 N   0  0  0  0  0  0  0  0  0  0  0  0
   38.8650   31.4820   37.0920 H   0  0  0  0  0  0  0  0  0  0  0  0
   37.2040   29.4930   37.0290 H   0  0  0  0  0  0  0  0  0  0  0  0
   40.8400   34.1680   39.4780 C   0  0  0  0  0  0  0  0  0  0  0  0
   40.2950   35.3030   40.0730 C   0  0  0  0  0  0  0  0  0  0  0  0
   38.9310   35.3010   40.3400 C   0  0  0  0  0  0  0  0  0  0  0  0
   38.2080   34.2000   40.0080 N   0  0  0  0  0  0  0  0  0  0  0  0
   38.7500   33.1230   39.4380 C   0  0  0  0  0  0  0  0  0  0  0  0
   40.0750   33.1120   39.1740 N   0  0  0  0  0  0  0  0  0  0  0  0
   41.8920   34.0980   39.2420 H   0  0  0  0  0  0  0  0  0  0  0  0
   40.9190   36.1300   40.3070 H   0  0  0  0  0  0  0  0  0  0  0  0
   38.4610   36.1670   40.8050 H   0  0  0  0  0  0  0  0  0  0  0  0
  1  5  1  0  0  0  0
  1  2  1  0  0  0  0
  1  3  1  0  0  0  0
  4  5  2  0  0  0  0
  4 12  1  0  0  0  0
  5  6  1  0  0  0  0
  6 14  1  0  0  0  0
  6  7  2  0  0  0  0
  7  8  1  0  0  0  0
  8  9  1  0  0  0  0
  8 15  1  0  0  0  0
  9 16  1  0  0  0  0
 10  9  2  0  0  0  0
 11  7  1  0  0  0  0
 11 10  1  0  0  0  0
 12 11  2  0  0  0  0
 13  4  1  0  0  0  0
 17 10  1  0  0  0  0
 18 12  1  0  0  0  0
 19 18  1  0  0  0  0
 20 19  1  0  0  0  0
 21 20  1  0  0  0  0
 21 22  1  0  0  0  0
 22 23  1  0  0  0  0
 23 18  1  0  0  0  0
 24  1  1  0  0  0  0
 25 24  1  0  0  0  0
 26 24  1  0  0  0  0
 27 38  1  0  0  0  0
 27 31  2  0  0  0  0
 28 27  1  0  0  0  0
 29 28  2  0  0  0  0
 29 30  1  0  0  0  0
 30 24  1  0  0  0  0
 30 31  1  0  0  0  0
 32 28  1  0  0  0  0
 33 29  1  0  0  0  0
 34 35  1  0  0  0  0
 35 41  1  0  0  0  0
 35 36  2  0  0  0  0
 36 42  1  0  0  0  0
 37 36  1  0  0  0  0
 38 37  2  0  0  0  0
 39 38  1  0  0  0  0
 39 34  2  0  0  0  0
 40 34  1  0  0  0  0
M  END
>  <minimizedAffinity>
-6.46355343

$$$$

 OpenBabel03252506273D

 42 46  0  0  0  0  0  0  0  0999 V2000
   35.6000   27.4100   37.5970 C   0  0  0  0  0  0  0  0  0  0  0  0
   36.3150   27.4930   36.7540 H   0  0  0  0  0  0  0  0  0  0  0  0
   34.7420   26.8110   37.1700 H   0  0  0  0  0  0  0  0  0  0  0  0
   36.4530   26.9180   39.9910 C   0  0  0  0  0  0  0  0  0  0  0  0
   36.1490   26.5870   38.6800 C   0  0  0  0  0  0  0  0  0  0  0  0
   36.3890   25.2670   38.2970 C   0  0  0  0  0  0  0  0  0  0  0  0
   36.9020   24.3320   39.1660 C   0  0  0  0  0  0  0  0  0  0  0  0
   37.2210   23.0370   39.0810 N   0  0  0  0  0  0  0  0  0  0  0  0
   37.6940   22.5810   40.2600 C   0  0  0  0  0  0  0  0  0  0  0  0
   37.6970   23.6150   41.1840 C   0  0  0  0  0  0  0  0  0  0  0  0
   37.1980   24.6790   40.4620 C   0  0  0  0  0  0  0  0  0  0  0  0
   36.9610   25.9830   40.8410 C   0  0  0  0  0  0  0  0  0  0  0  0
   36.2390   27.9570   40.2070 H   0  0  0  0  0  0  0  0  0  0  0  0
   36.1960   24.8760   37.3070 H   0  0  0  0  0  0  0  0  0  0  0  0
   37.1170   22.4470   38.2100 H   0  0  0  0  0  0  0  0  0  0  0  0
   38.0310   21.5610   40.4790 H   0  0  0  0  0  0  0  0  0  0  0  0
   38.0040   23.6280   42.2220 H   0  0  0  0  0  0  0  0  0  0  0  0
   37.2660   26.3890   42.2160 C   0  0  0  0  0  3  0  0  0  0  0  0
   38.5650   27.0610   42.4470 C   0  0  0  0  0  2  0  0  0  0  0  0
   38.4870   28.4460   43.0230 C   0  0  0  0  0  2  0  0  0  0  0  0
   37.7160   28.5230   44.3010 C   0  0  0  0  0  2  0  0  0  0  0  0
   36.4960   27.6650   44.2250 C   0  0  0  0  0  2  0  0  0  0  0  0
   36.1980   27.3490   42.7580 C   0  0  0  0  0  2  0  0  0  0  0  0
   35.0690   28.7360   37.9700 C   0  0  0  0  0  0  0  0  0  0  0  0
   34.6550   28.7450   38.9770 H   0  0  0  0  0  0  0  0  0  0  0  0
   34.2240   28.9670   37.2700 H   0  0  0  0  0  0  0  0  0  0  0  0
   37.4660   31.3570   38.3170 C   0  0  0  0  0  0  0  0  0  0  0  0
   37.5990   31.0060   36.9490 C   0  0  0  0  0  0  0  0  0  0  0  0
   36.7330   30.0030   36.6660 C   0  0  0  0  0  0  0  0  0  0  0  0
   36.0890   29.7410   37.8070 N   0  0  0  0  0  0  0  0  0  0  0  0
   36.5230   30.5440   38.7860 N   0  0  0  0  0  0  0  0  0  0  0  0
   38.2790   31.4590   36.2380 H   0  0  0  0  0  0  0  0  0  0  0  0
   36.6240   29.5410   35.6910 H   0  0  0  0  0  0  0  0  0  0  0  0
   38.2600   34.3720   40.1920 C   0  0  0  0  0  0  0  0  0  0  0  0
   39.6520   34.4100   40.1730 C   0  0  0  0  0  0  0  0  0  0  0  0
   40.3180   33.3870   39.5080 C   0  0  0  0  0  0  0  0  0  0  0  0
   39.5790   32.4120   38.9170 N   0  0  0  0  0  0  0  0  0  0  0  0
   38.2470   32.3940   38.9470 C   0  0  0  0  0  0  0  0  0  0  0  0
   37.5870   33.3830   39.5900 N   0  0  0  0  0  0  0  0  0  0  0  0
   37.6760   35.1330   40.6890 H   0  0  0  0  0  0  0  0  0  0  0  0
   40.1670   35.2030   40.6570 H   0  0  0  0  0  0  0  0  0  0  0  0
   41.4060   33.3760   39.4670 H   0  0  0  0  0  0  0  0  0  0  0  0
  1 24  1  0  0  0  0
  1  5  1  0  0  0  0
  2  1  1  0  0  0  0
  3  1  1  0  0  0  0
  4 13  1  0  0  0  0
  4 12  1  0  0  0  0
  5  4  2  0  0  0  0
  6  5  1  0  0  0  0
  6  7  2  0  0  0  0
  7 11  1  0  0  0  0
  8  7  1  0  0  0  0
  8  9  1  0  0  0  0
  9 16  1  0  0  0  0
  9 10  2  0  0  0  0
 10 17  1  0  0  0  0
 11 12  2  0  0  0  0
 11 10  1  0  0  0  0
 12 18  1  0  0  0  0
 14  6  1  0  0  0  0
 15  8  1  0  0  0  0
 18 19  1  0  0  0  0
 18 23  1  0  0  0  0
 19 20  1  0  0  0  0
 20 21  1  0  0  0  0
 22 21  1  0  0  0  0
 23 22  1  0  0  0  0
 24 25  1  0  0  0  0
 26 24  1  0  0  0  0
 27 31  2  0  0  0  0
 27 38  1  0  0  0  0
 28 27  1  0  0  0  0
 29 28  2  0  0  0  0
 29 30  1  0  0  0  0
 30 24  1  0  0  0  0
 30 31  1  0  0  0  0
 32 28  1  0  0  0  0
 33 29  1  0  0  0  0
 34 40  1  0  0  0  0
 35 34  1  0  0  0  0
 35 41  1  0  0  0  0
 36 35  2  0  0  0  0
 37 38  2  0  0  0  0
 37 36  1  0  0  0  0
 38 39  1  0  0  0  0
 39 34  2  0  0  0  0
 42 36  1  0  0  0  0
M  END
>  <minimizedAffinity>
-6.40317154

$$$$

 OpenBabel03252506273D

 42 46  0  0  0  0  0  0  0  0999 V2000
   36.1170   28.8260   38.0090 C   0  0  0  0  0  0  0  0  0  0  0  0
   35.4350   28.6490   37.1540 H   0  0  0  0  0  0  0  0  0  0  0  0
   35.5340   29.5210   38.6840 H   0  0  0  0  0  0  0  0  0  0  0  0
   36.9280   27.4130   40.0200 C   0  0  0  0  0  0  0  0  0  0  0  0
   36.3160   27.6010   38.7920 C   0  0  0  0  0  0  0  0  0  0  0  0
   35.7940   26.4650   38.1730 C   0  0  0  0  0  0  0  0  0  0  0  0
   35.8770   25.2150   38.7410 C   0  0  0  0  0  0  0  0  0  0  0  0
   35.4770   23.9890   38.3930 N   0  0  0  0  0  0  0  0  0  0  0  0
   35.8130   23.0870   39.3390 C   0  0  0  0  0  0  0  0  0  0  0  0
   36.4710   23.7320   40.3740 C   0  0  0  0  0  0  0  0  0  0  0  0
   36.4880   25.0480   39.9610 C   0  0  0  0  0  0  0  0  0  0  0  0
   37.0030   26.1700   40.5730 C   0  0  0  0  0  0  0  0  0  0  0  0
   37.3050   28.3400   40.4320 H   0  0  0  0  0  0  0  0  0  0  0  0
   35.2930   26.4700   37.2140 H   0  0  0  0  0  0  0  0  0  0  0  0
   34.9660   23.7540   37.4970 H   0  0  0  0  0  0  0  0  0  0  0  0
   35.6110   22.0090   39.3160 H   0  0  0  0  0  0  0  0  0  0  0  0
   36.8850   23.3400   41.2950 H   0  0  0  0  0  0  0  0  0  0  0  0
   37.6630   26.0290   41.8740 C   0  0  0  0  0  3  0  0  0  0  0  0
   39.0190   25.4350   41.8810 C   0  0  0  0  0  2  0  0  0  0  0  0
   40.1070   26.3030   42.4470 C   0  0  0  0  0  2  0  0  0  0  0  0
   39.8290   26.7870   43.8330 C   0  0  0  0  0  2  0  0  0  0  0  0
   38.3960   27.1840   43.9680 C   0  0  0  0  0  2  0  0  0  0  0  0
   37.8000   27.3880   42.5740 C   0  0  0  0  0  2  0  0  0  0  0  0
   37.3310   29.5460   37.5770 C   0  0  0  0  0  0  0  0  0  0  0  0
   37.2970   29.8120   36.5220 H   0  0  0  0  0  0  0  0  0  0  0  0
   38.1980   28.8470   37.7080 H   0  0  0  0  0  0  0  0  0  0  0  0
   38.5230   32.4610   39.2540 C   0  0  0  0  0  0  0  0  0  0  0  0
   37.2650   32.2500   39.8740 C   0  0  0  0  0  0  0  0  0  0  0  0
   36.6840   31.1550   39.3280 C   0  0  0  0  0  0  0  0  0  0  0  0
   37.5430   30.7030   38.4090 N   0  0  0  0  0  0  0  0  0  0  0  0
   38.6330   31.4770   38.3660 N   0  0  0  0  0  0  0  0  0  0  0  0
   36.8300   32.8600   40.6560 H   0  0  0  0  0  0  0  0  0  0  0  0
   35.7130   30.7650   39.6150 H   0  0  0  0  0  0  0  0  0  0  0  0
   39.6580   35.6260   40.6430 C   0  0  0  0  0  0  0  0  0  0  0  0
   41.0110   35.6610   40.3100 C   0  0  0  0  0  0  0  0  0  0  0  0
   41.5300   34.5850   39.6020 C   0  0  0  0  0  0  0  0  0  0  0  0
   40.6970   33.5620   39.2750 N   0  0  0  0  0  0  0  0  0  0  0  0
   39.4050   33.5480   39.6040 C   0  0  0  0  0  0  0  0  0  0  0  0
   38.8870   34.5900   40.2930 N   0  0  0  0  0  0  0  0  0  0  0  0
   39.1860   36.4280   41.1920 H   0  0  0  0  0  0  0  0  0  0  0  0
   41.6050   36.4930   40.5980 H   0  0  0  0  0  0  0  0  0  0  0  0
   42.5820   34.5690   39.3200 H   0  0  0  0  0  0  0  0  0  0  0  0
  1  3  1  0  0  0  0
  1  5  1  0  0  0  0
  2  1  1  0  0  0  0
  4 13  1  0  0  0  0
  4 12  1  0  0  0  0
  5  4  2  0  0  0  0
  6  7  2  0  0  0  0
  6  5  1  0  0  0  0
  7 11  1  0  0  0  0
  8  7  1  0  0  0  0
  8  9  1  0  0  0  0
  9 10  2  0  0  0  0
 10 17  1  0  0  0  0
 11 10  1  0  0  0  0
 11 12  2  0  0  0  0
 12 18  1  0  0  0  0
 14  6  1  0  0  0  0
 15  8  1  0  0  0  0
 16  9  1  0  0  0  0
 18 19  1  0  0  0  0
 18 23  1  0  0  0  0
 19 20  1  0  0  0  0
 20 21  1  0  0  0  0
 21 22  1  0  0  0  0
 23 22  1  0  0  0  0
 24 26  1  0  0  0  0
 24  1  1  0  0  0  0
 24 30  1  0  0  0  0
 25 24  1  0  0  0  0
 27 38  1  0  0  0  0
 27 28  1  0  0  0  0
 28 32  1  0  0  0  0
 29 33  1  0  0  0  0
 29 28  2  0  0  0  0
 30 29  1  0  0  0  0
 31 30  1  0  0  0  0
 31 27  2  0  0  0  0
 34 40  1  0  0  0  0
 35 41  1  0  0  0  0
 35 34  1  0  0  0  0
 36 35  2  0  0  0  0
 37 36  1  0  0  0  0
 37 38  2  0  0  0  0
 38 39  1  0  0  0  0
 39 34  2  0  0  0  0
 42 36  1  0  0  0  0
M  END
>  <minimizedAffinity>
-6.37976027

$$$$
