
     RDKit          3D

 29 30  0  0  0  0  0  0  0  0999 V2000
   44.5600   36.0103   44.4959 C   0  0  0  0  0  0  0  0  0  0  0  0
   45.3058   35.9229   43.2947 C   0  0  0  0  0  0  0  0  0  0  0  0
   46.1939   34.8585   43.1708 C   0  0  0  0  0  0  0  0  0  0  0  0
   46.3108   33.9588   44.1881 N   0  0  0  0  0  0  0  0  0  0  0  0
   45.5691   34.0859   45.3280 C   0  0  0  0  0  0  0  0  0  0  0  0
   44.7024   35.1043   45.4764 N   0  0  0  0  0  0  0  0  0  0  0  0
   46.9601   34.7743   41.9291 C   0  0  0  0  0  0  0  0  0  0  0  0
   43.8673   36.8277   44.6099 H   0  0  0  0  0  0  0  0  0  0  0  0
   45.1559   36.6696   42.5439 H   0  0  0  0  0  0  0  0  0  0  0  0
   45.6607   33.3798   46.1265 H   0  0  0  0  0  0  0  0  0  0  0  0
   47.2149   33.7053   41.7702 H   0  0  0  0  0  0  0  0  0  0  0  0
   46.4079   35.1105   41.0431 H   0  0  0  0  0  0  0  0  0  0  0  0
   48.2732   35.5063   41.9812 C   0  0  0  0  0  0  0  0  0  0  0  0
   48.5705   36.3440   40.7743 C   0  0  0  0  0  0  0  0  0  0  0  0
   50.0712   36.6367   40.8361 C   0  0  0  0  0  0  0  0  0  0  0  0
   50.3027   37.4729   42.0655 C   0  0  0  0  0  0  0  0  0  0  0  0
   49.8844   36.7227   43.3085 C   0  0  0  0  0  0  0  0  0  0  0  0
   48.3886   36.4026   43.1988 C   0  0  0  0  0  0  0  0  0  0  0  0
   49.0996   34.7723   42.0668 H   0  0  0  0  0  0  0  0  0  0  0  0
   48.0705   37.3351   40.7876 H   0  0  0  0  0  0  0  0  0  0  0  0
   48.3652   35.8225   39.8197 H   0  0  0  0  0  0  0  0  0  0  0  0
   50.5630   35.6460   41.0087 H   0  0  0  0  0  0  0  0  0  0  0  0
   50.4168   37.1627   39.9404 H   0  0  0  0  0  0  0  0  0  0  0  0
   51.3966   37.6965   42.1920 H   0  0  0  0  0  0  0  0  0  0  0  0
   49.7182   38.4031   41.9537 H   0  0  0  0  0  0  0  0  0  0  0  0
   50.3753   35.7292   43.3216 H   0  0  0  0  0  0  0  0  0  0  0  0
   50.1027   37.2955   44.2112 H   0  0  0  0  0  0  0  0  0  0  0  0
   48.0708   35.8185   44.0805 H   0  0  0  0  0  0  0  0  0  0  0  0
   47.7994   37.3422   43.0935 H   0  0  0  0  0  0  0  0  0  0  0  0
  1  6  2  0
  2  1  1  0
  3  2  2  0
  3  4  1  0
  4  5  2  0
  5  6  1  0
  7  3  1  0
  1  8  1  0
  2  9  1  0
  5 10  1  0
  7 11  1  0
  7 12  1  0
 13 14  1  0
 14 15  1  0
 15 16  1  0
 16 17  1  0
 17 18  1  0
 18 13  1  0
 13 19  1  0
 14 20  1  0
 14 21  1  0
 15 22  1  0
 15 23  1  0
 16 24  1  0
 16 25  1  0
 17 26  1  0
 17 27  1  0
 18 28  1  0
 18 29  1  0
  7 13  1  0
M  ISO  5   8  14   9  14  10  14  11   8  12   8
M  END
>  <DihAtoms>  (1) 
2,6,12,13

>  <DihDeg>  (1) 
-59.99933838426612

$$$$
