
 OpenBabel03252503423D

 18 19  0  0  0  0  0  0  0  0999 V2000
   37.3210   32.4140   40.2910 C   0  0  0  0  0  0  0  0  0  0  0  0
   38.6130   32.8310   40.6370 C   0  0  0  0  0  0  0  0  0  0  0  0
   39.3990   31.9730   41.4250 C   0  0  0  0  0  0  0  0  0  0  0  0
   38.8620   30.7970   41.8030 N   0  0  0  0  0  0  0  0  0  0  0  0
   37.6040   30.4190   41.4510 C   0  0  0  0  0  0  0  0  0  0  0  0
   36.8160   31.2320   40.6850 N   0  0  0  0  0  0  0  0  0  0  0  0
   36.6180   32.9780   39.6910 H   0  0  0  0  0  0  0  0  0  0  0  0
   40.3700   32.3330   41.6610 H   0  0  0  0  0  0  0  0  0  0  0  0
   37.1460   29.1080   41.9330 C   0  0  0  0  0  3  0  0  0  0  0  0
   37.5490   28.7540   43.3190 C   0  0  0  0  0  2  0  0  0  0  0  0
   38.1920   27.3960   43.4520 C   0  0  0  0  0  2  0  0  0  0  0  0
   37.5270   26.3070   42.6820 C   0  0  0  0  0  2  0  0  0  0  0  0
   36.9710   26.7680   41.3500 C   0  0  0  0  0  2  0  0  0  0  0  0
   37.7230   28.0370   41.0050 C   0  0  0  0  0  2  0  0  0  0  0  0
   39.0120   34.1570   40.1220 C   0  0  0  0  0  0  0  0  0  0  0  0
   40.0350   34.3540   40.4780 H   0  0  0  0  0  0  0  0  0  0  0  0
   38.9400   34.1130   39.0160 H   0  0  0  0  0  0  0  0  0  0  0  0
   38.3240   34.9040   40.5730 H   0  0  0  0  0  0  0  0  0  0  0  0
  1  2  2  0  0  0  0
  1  6  1  0  0  0  0
  2  3  1  0  0  0  0
  3  8  1  0  0  0  0
  3  4  2  0  0  0  0
  5  4  1  0  0  0  0
  5  9  1  0  0  0  0
  6  5  2  0  0  0  0
  7  1  1  0  0  0  0
  9 10  1  0  0  0  0
 10 11  1  0  0  0  0
 12 11  1  0  0  0  0
 13 12  1  0  0  0  0
 14 13  1  0  0  0  0
 14  9  1  0  0  0  0
 15 16  1  0  0  0  0
 15 18  1  0  0  0  0
 15  2  1  0  0  0  0
 17 15  1  0  0  0  0
M  END
>  <minimizedAffinity>
-4.38055134

$$$$

 OpenBabel03252503423D

 18 19  0  0  0  0  0  0  0  0999 V2000
   35.9700   30.1270   40.6290 C   0  0  0  0  0  0  0  0  0  0  0  0
   37.1220   30.9200   40.7070 C   0  0  0  0  0  0  0  0  0  0  0  0
   38.2690   30.3680   41.3020 C   0  0  0  0  0  0  0  0  0  0  0  0
   38.1930   29.1050   41.7650 N   0  0  0  0  0  0  0  0  0  0  0  0
   37.0590   28.3590   41.6750 C   0  0  0  0  0  0  0  0  0  0  0  0
   35.9280   28.8690   41.1010 N   0  0  0  0  0  0  0  0  0  0  0  0
   35.0250   30.4320   40.1960 H   0  0  0  0  0  0  0  0  0  0  0  0
   39.1170   31.0080   41.3380 H   0  0  0  0  0  0  0  0  0  0  0  0
   37.1180   26.9960   42.2210 C   0  0  0  0  0  3  0  0  0  0  0  0
   38.3290   26.6720   43.0190 C   0  0  0  0  0  2  0  0  0  0  0  0
   39.0240   25.4000   42.6050 C   0  0  0  0  0  2  0  0  0  0  0  0
   38.1190   24.2490   42.3240 C   0  0  0  0  0  2  0  0  0  0  0  0
   36.8140   24.6600   41.6720 C   0  0  0  0  0  2  0  0  0  0  0  0
   37.0730   26.0150   41.0460 C   0  0  0  0  0  2  0  0  0  0  0  0
   36.9980   32.2780   40.1400 C   0  0  0  0  0  0  0  0  0  0  0  0
   37.9660   32.7840   40.2800 H   0  0  0  0  0  0  0  0  0  0  0  0
   36.7200   32.1630   39.0730 H   0  0  0  0  0  0  0  0  0  0  0  0
   36.2250   32.8120   40.7360 H   0  0  0  0  0  0  0  0  0  0  0  0
  1  2  2  0  0  0  0
  1  6  1  0  0  0  0
  2  3  1  0  0  0  0
  3  8  1  0  0  0  0
  3  4  2  0  0  0  0
  5  4  1  0  0  0  0
  5  9  1  0  0  0  0
  6  5  2  0  0  0  0
  7  1  1  0  0  0  0
  9 10  1  0  0  0  0
 11 10  1  0  0  0  0
 12 11  1  0  0  0  0
 13 12  1  0  0  0  0
 14 13  1  0  0  0  0
 14  9  1  0  0  0  0
 15 16  1  0  0  0  0
 15  2  1  0  0  0  0
 15 18  1  0  0  0  0
 17 15  1  0  0  0  0
M  END
>  <minimizedAffinity>
-4.37487936

$$$$

 OpenBabel03252503423D

 18 19  0  0  0  0  0  0  0  0999 V2000
   37.3430   26.8350   40.8330 C   0  0  0  0  0  0  0  0  0  0  0  0
   37.0620   26.3170   42.1030 C   0  0  0  0  0  0  0  0  0  0  0  0
   36.9090   27.2190   43.1700 C   0  0  0  0  0  0  0  0  0  0  0  0
   37.0430   28.5330   42.9070 N   0  0  0  0  0  0  0  0  0  0  0  0
   37.3160   29.0070   41.6620 C   0  0  0  0  0  0  0  0  0  0  0  0
   37.4700   28.1540   40.6040 N   0  0  0  0  0  0  0  0  0  0  0  0
   37.4830   26.2510   39.9320 H   0  0  0  0  0  0  0  0  0  0  0  0
   36.6970   26.7780   44.1130 H   0  0  0  0  0  0  0  0  0  0  0  0
   37.4350   30.4660   41.5190 C   0  0  0  0  0  3  0  0  0  0  0  0
   36.3990   31.1170   40.6740 C   0  0  0  0  0  2  0  0  0  0  0  0
   36.9490   32.0290   39.6080 C   0  0  0  0  0  2  0  0  0  0  0  0
   38.0620   32.9160   40.0510 C   0  0  0  0  0  2  0  0  0  0  0  0
   38.9880   32.2590   41.0550 C   0  0  0  0  0  2  0  0  0  0  0  0
   38.7940   30.7670   40.8820 C   0  0  0  0  0  2  0  0  0  0  0  0
   36.9550   24.8450   42.1800 C   0  0  0  0  0  0  0  0  0  0  0  0
   36.7450   24.5840   43.2280 H   0  0  0  0  0  0  0  0  0  0  0  0
   36.1450   24.5400   41.4870 H   0  0  0  0  0  0  0  0  0  0  0  0
   37.9470   24.4310   41.8980 H   0  0  0  0  0  0  0  0  0  0  0  0
  1  2  1  0  0  0  0
  2 15  1  0  0  0  0
  2  3  2  0  0  0  0
  3  8  1  0  0  0  0
  4  3  1  0  0  0  0
  5  4  2  0  0  0  0
  6  1  2  0  0  0  0
  6  5  1  0  0  0  0
  7  1  1  0  0  0  0
  9  5  1  0  0  0  0
 10  9  1  0  0  0  0
 11 12  1  0  0  0  0
 11 10  1  0  0  0  0
 12 13  1  0  0  0  0
 14 13  1  0  0  0  0
 14  9  1  0  0  0  0
 15 16  1  0  0  0  0
 17 15  1  0  0  0  0
 18 15  1  0  0  0  0
M  END
>  <minimizedAffinity>
-4.29764557

$$$$

 OpenBabel03252503423D

 18 19  0  0  0  0  0  0  0  0999 V2000
   36.1830   27.3060   39.0110 C   0  0  0  0  0  0  0  0  0  0  0  0
   35.4860   28.4770   39.3320 C   0  0  0  0  0  0  0  0  0  0  0  0
   35.5300   28.9340   40.6600 C   0  0  0  0  0  0  0  0  0  0  0  0
   36.2420   28.2160   41.5490 N   0  0  0  0  0  0  0  0  0  0  0  0
   36.9100   27.0820   41.2090 C   0  0  0  0  0  0  0  0  0  0  0  0
   36.8860   26.6130   39.9240 N   0  0  0  0  0  0  0  0  0  0  0  0
   36.2300   26.8500   38.0300 H   0  0  0  0  0  0  0  0  0  0  0  0
   34.9850   29.8260   40.8540 H   0  0  0  0  0  0  0  0  0  0  0  0
   37.6480   26.3980   42.2810 C   0  0  0  0  0  3  0  0  0  0  0  0
   38.2550   27.2820   43.3100 C   0  0  0  0  0  2  0  0  0  0  0  0
   39.7130   27.0130   43.5800 C   0  0  0  0  0  2  0  0  0  0  0  0
   40.0800   25.5710   43.6800 C   0  0  0  0  0  2  0  0  0  0  0  0
   39.2960   24.6880   42.7300 C   0  0  0  0  0  2  0  0  0  0  0  0
   38.7870   25.6040   41.6370 C   0  0  0  0  0  2  0  0  0  0  0  0
   34.7660   29.1150   38.2110 C   0  0  0  0  0  0  0  0  0  0  0  0
   34.2600   30.0080   38.6090 H   0  0  0  0  0  0  0  0  0  0  0  0
   35.5190   29.3540   37.4330 H   0  0  0  0  0  0  0  0  0  0  0  0
   33.9960   28.3920   37.8630 H   0  0  0  0  0  0  0  0  0  0  0  0
  1  2  2  0  0  0  0
  1  6  1  0  0  0  0
  2  3  1  0  0  0  0
  3  8  1  0  0  0  0
  3  4  2  0  0  0  0
  5  4  1  0  0  0  0
  5  9  1  0  0  0  0
  6  5  2  0  0  0  0
  7  1  1  0  0  0  0
  9 10  1  0  0  0  0
 10 11  1  0  0  0  0
 11 12  1  0  0  0  0
 13 12  1  0  0  0  0
 14  9  1  0  0  0  0
 14 13  1  0  0  0  0
 15 16  1  0  0  0  0
 15  2  1  0  0  0  0
 17 15  1  0  0  0  0
 18 15  1  0  0  0  0
M  END
>  <minimizedAffinity>
-4.23403263

$$$$

 OpenBabel03252503423D

 18 19  0  0  0  0  0  0  0  0999 V2000
   36.7710   30.8070   38.6900 C   0  0  0  0  0  0  0  0  0  0  0  0
   37.0000   31.8160   39.6340 C   0  0  0  0  0  0  0  0  0  0  0  0
   37.0030   31.4650   40.9950 C   0  0  0  0  0  0  0  0  0  0  0  0
   36.7840   30.1740   41.3120 N   0  0  0  0  0  0  0  0  0  0  0  0
   36.5640   29.2160   40.3730 C   0  0  0  0  0  0  0  0  0  0  0  0
   36.5560   29.5270   39.0420 N   0  0  0  0  0  0  0  0  0  0  0  0
   36.7430   30.9450   37.6170 H   0  0  0  0  0  0  0  0  0  0  0  0
   37.1800   32.2640   41.6720 H   0  0  0  0  0  0  0  0  0  0  0  0
   36.3390   27.8470   40.8610 C   0  0  0  0  0  3  0  0  0  0  0  0
   36.5360   27.6430   42.3210 C   0  0  0  0  0  2  0  0  0  0  0  0
   37.4390   26.4880   42.6710 C   0  0  0  0  0  2  0  0  0  0  0  0
   37.2110   25.2470   41.8780 C   0  0  0  0  0  2  0  0  0  0  0  0
   36.8340   25.5190   40.4350 C   0  0  0  0  0  2  0  0  0  0  0  0
   37.3210   26.9220   40.1380 C   0  0  0  0  0  2  0  0  0  0  0  0
   37.2180   33.1680   39.0790 C   0  0  0  0  0  0  0  0  0  0  0  0
   37.3720   33.8520   39.9280 H   0  0  0  0  0  0  0  0  0  0  0  0
   38.0980   33.1060   38.4070 H   0  0  0  0  0  0  0  0  0  0  0  0
   36.2850   33.4580   38.5490 H   0  0  0  0  0  0  0  0  0  0  0  0
  1  6  2  0  0  0  0
  1  2  1  0  0  0  0
  2  3  2  0  0  0  0
  3  4  1  0  0  0  0
  3  8  1  0  0  0  0
  5  9  1  0  0  0  0
  5  4  2  0  0  0  0
  6  5  1  0  0  0  0
  7  1  1  0  0  0  0
  9 10  1  0  0  0  0
 10 11  1  0  0  0  0
 12 11  1  0  0  0  0
 13 12  1  0  0  0  0
 14 13  1  0  0  0  0
 14  9  1  0  0  0  0
 15  2  1  0  0  0  0
 15 16  1  0  0  0  0
 17 15  1  0  0  0  0
 18 15  1  0  0  0  0
M  END
>  <minimizedAffinity>
-4.20889521

$$$$

 OpenBabel03252503423D

 18 19  0  0  0  0  0  0  0  0999 V2000
   39.7700   28.0100   42.0740 C   0  0  0  0  0  0  0  0  0  0  0  0
   39.0410   27.3550   43.0740 C   0  0  0  0  0  0  0  0  0  0  0  0
   37.7710   27.8560   43.4070 C   0  0  0  0  0  0  0  0  0  0  0  0
   37.3280   28.9420   42.7440 N   0  0  0  0  0  0  0  0  0  0  0  0
   38.0590   29.5580   41.7760 C   0  0  0  0  0  0  0  0  0  0  0  0
   39.2980   29.0920   41.4300 N   0  0  0  0  0  0  0  0  0  0  0  0
   40.7540   27.7260   41.7250 H   0  0  0  0  0  0  0  0  0  0  0  0
   37.2570   27.3260   44.1720 H   0  0  0  0  0  0  0  0  0  0  0  0
   37.4540   30.7330   41.1340 C   0  0  0  0  0  3  0  0  0  0  0  0
   36.5960   30.4510   39.9530 C   0  0  0  0  0  2  0  0  0  0  0  0
   36.9270   31.2720   38.7330 C   0  0  0  0  0  2  0  0  0  0  0  0
   37.1940   32.7150   38.9990 C   0  0  0  0  0  2  0  0  0  0  0  0
   37.9140   32.9590   40.3100 C   0  0  0  0  0  2  0  0  0  0  0  0
   38.5860   31.6480   40.6620 C   0  0  0  0  0  2  0  0  0  0  0  0
   39.7040   26.1820   43.6800 C   0  0  0  0  0  0  0  0  0  0  0  0
   39.0270   25.7800   44.4480 H   0  0  0  0  0  0  0  0  0  0  0  0
   39.9060   25.4620   42.8610 H   0  0  0  0  0  0  0  0  0  0  0  0
   40.6300   26.5500   44.1740 H   0  0  0  0  0  0  0  0  0  0  0  0
  1  2  1  0  0  0  0
  2  3  2  0  0  0  0
  2 15  1  0  0  0  0
  3  8  1  0  0  0  0
  4  3  1  0  0  0  0
  5  4  2  0  0  0  0
  6  5  1  0  0  0  0
  6  1  2  0  0  0  0
  7  1  1  0  0  0  0
  9  5  1  0  0  0  0
 10  9  1  0  0  0  0
 11 12  1  0  0  0  0
 11 10  1  0  0  0  0
 12 13  1  0  0  0  0
 13 14  1  0  0  0  0
 14  9  1  0  0  0  0
 15 18  1  0  0  0  0
 15 16  1  0  0  0  0
 17 15  1  0  0  0  0
M  END
>  <minimizedAffinity>
-4.18984604

$$$$

 OpenBabel03252503423D

 18 19  0  0  0  0  0  0  0  0999 V2000
   38.0140   27.2810   40.6330 C   0  0  0  0  0  0  0  0  0  0  0  0
   37.3390   27.2370   41.8590 C   0  0  0  0  0  0  0  0  0  0  0  0
   36.9540   28.4530   42.4500 C   0  0  0  0  0  0  0  0  0  0  0  0
   37.2590   29.5930   41.8000 N   0  0  0  0  0  0  0  0  0  0  0  0
   37.9160   29.6040   40.6090 C   0  0  0  0  0  0  0  0  0  0  0  0
   38.3020   28.4380   40.0100 N   0  0  0  0  0  0  0  0  0  0  0  0
   38.3630   26.4210   40.0760 H   0  0  0  0  0  0  0  0  0  0  0  0
   36.4450   28.3680   43.3790 H   0  0  0  0  0  0  0  0  0  0  0  0
   38.1830   30.9200   40.0110 C   0  0  0  0  0  3  0  0  0  0  0  0
   39.3010   31.6890   40.6180 C   0  0  0  0  0  2  0  0  0  0  0  0
   38.9500   33.1070   40.9920 C   0  0  0  0  0  2  0  0  0  0  0  0
   38.1450   33.8450   39.9770 C   0  0  0  0  0  2  0  0  0  0  0  0
   37.1410   32.9680   39.2570 C   0  0  0  0  0  2  0  0  0  0  0  0
   36.9180   31.7700   40.1570 C   0  0  0  0  0  2  0  0  0  0  0  0
   37.1010   25.8860   42.4060 C   0  0  0  0  0  0  0  0  0  0  0  0
   36.5780   26.0060   43.3670 H   0  0  0  0  0  0  0  0  0  0  0  0
   36.5050   25.3300   41.6550 H   0  0  0  0  0  0  0  0  0  0  0  0
   38.0980   25.4300   42.5950 H   0  0  0  0  0  0  0  0  0  0  0  0
  1  2  1  0  0  0  0
  2 15  1  0  0  0  0
  2  3  2  0  0  0  0
  3  8  1  0  0  0  0
  4  3  1  0  0  0  0
  5  4  2  0  0  0  0
  6  5  1  0  0  0  0
  6  1  2  0  0  0  0
  7  1  1  0  0  0  0
  9 14  1  0  0  0  0
  9  5  1  0  0  0  0
  9 10  1  0  0  0  0
 10 11  1  0  0  0  0
 12 11  1  0  0  0  0
 13 12  1  0  0  0  0
 13 14  1  0  0  0  0
 15 18  1  0  0  0  0
 15 16  1  0  0  0  0
 17 15  1  0  0  0  0
M  END
>  <minimizedAffinity>
-4.0318284

$$$$

 OpenBabel03252503423D

 18 19  0  0  0  0  0  0  0  0999 V2000
   36.3460   27.8660   37.4400 C   0  0  0  0  0  0  0  0  0  0  0  0
   36.5120   29.1290   36.8600 C   0  0  0  0  0  0  0  0  0  0  0  0
   36.6210   30.2420   37.7110 C   0  0  0  0  0  0  0  0  0  0  0  0
   36.5600   30.0270   39.0390 N   0  0  0  0  0  0  0  0  0  0  0  0
   36.3980   28.7870   39.5740 C   0  0  0  0  0  0  0  0  0  0  0  0
   36.2890   27.6860   38.7710 N   0  0  0  0  0  0  0  0  0  0  0  0
   36.2500   26.9330   36.8980 H   0  0  0  0  0  0  0  0  0  0  0  0
   36.7450   31.1790   37.2240 H   0  0  0  0  0  0  0  0  0  0  0  0
   36.3490   28.6990   41.0400 C   0  0  0  0  0  3  0  0  0  0  0  0
   37.0460   29.7860   41.7760 C   0  0  0  0  0  2  0  0  0  0  0  0
   38.0040   29.3040   42.8360 C   0  0  0  0  0  2  0  0  0  0  0  0
   37.5000   28.1840   43.6800 C   0  0  0  0  0  2  0  0  0  0  0  0
   36.6400   27.1980   42.9140 C   0  0  0  0  0  2  0  0  0  0  0  0
   37.0030   27.3780   41.4550 C   0  0  0  0  0  2  0  0  0  0  0  0
   36.5540   29.1500   35.3830 C   0  0  0  0  0  0  0  0  0  0  0  0
   36.6750   30.1990   35.0710 H   0  0  0  0  0  0  0  0  0  0  0  0
   37.4000   28.5050   35.0710 H   0  0  0  0  0  0  0  0  0  0  0  0
   35.5690   28.7800   35.0230 H   0  0  0  0  0  0  0  0  0  0  0  0
  1  6  1  0  0  0  0
  2  1  2  0  0  0  0
  2  3  1  0  0  0  0
  3  4  2  0  0  0  0
  4  5  1  0  0  0  0
  5  9  1  0  0  0  0
  6  5  2  0  0  0  0
  7  1  1  0  0  0  0
  8  3  1  0  0  0  0
  9 14  1  0  0  0  0
  9 10  1  0  0  0  0
 10 11  1  0  0  0  0
 11 12  1  0  0  0  0
 13 12  1  0  0  0  0
 14 13  1  0  0  0  0
 15  2  1  0  0  0  0
 16 15  1  0  0  0  0
 17 15  1  0  0  0  0
 18 15  1  0  0  0  0
M  END
>  <minimizedAffinity>
-3.97931576

$$$$

 OpenBabel03252503423D

 18 19  0  0  0  0  0  0  0  0999 V2000
   38.8000   32.1450   39.3900 C   0  0  0  0  0  0  0  0  0  0  0  0
   40.0140   32.6070   39.9130 C   0  0  0  0  0  0  0  0  0  0  0  0
   40.4280   32.1180   41.1640 C   0  0  0  0  0  0  0  0  0  0  0  0
   39.6310   31.2310   41.7890 N   0  0  0  0  0  0  0  0  0  0  0  0
   38.4560   30.8000   41.2560 C   0  0  0  0  0  0  0  0  0  0  0  0
   38.0270   31.2570   40.0410 N   0  0  0  0  0  0  0  0  0  0  0  0
   38.3700   32.4410   38.4420 H   0  0  0  0  0  0  0  0  0  0  0  0
   41.3550   32.4990   41.5180 H   0  0  0  0  0  0  0  0  0  0  0  0
   37.6850   29.8300   42.0470 C   0  0  0  0  0  3  0  0  0  0  0  0
   38.3750   29.2810   43.2440 C   0  0  0  0  0  2  0  0  0  0  0  0
   38.3550   27.7760   43.3370 C   0  0  0  0  0  2  0  0  0  0  0  0
   37.0470   27.1420   43.0070 C   0  0  0  0  0  2  0  0  0  0  0  0
   36.3000   27.8540   41.8970 C   0  0  0  0  0  2  0  0  0  0  0  0
   37.3430   28.6470   41.1380 C   0  0  0  0  0  2  0  0  0  0  0  0
   40.7400   33.5800   39.0700 C   0  0  0  0  0  0  0  0  0  0  0  0
   41.6590   33.8600   39.6070 H   0  0  0  0  0  0  0  0  0  0  0  0
   40.9390   33.0840   38.0980 H   0  0  0  0  0  0  0  0  0  0  0  0
   40.0910   34.4780   38.9750 H   0  0  0  0  0  0  0  0  0  0  0  0
  1  2  2  0  0  0  0
  1  6  1  0  0  0  0
  2  3  1  0  0  0  0
  3  8  1  0  0  0  0
  3  4  2  0  0  0  0
  5  4  1  0  0  0  0
  5  9  1  0  0  0  0
  6  5  2  0  0  0  0
  7  1  1  0  0  0  0
  9 10  1  0  0  0  0
 10 11  1  0  0  0  0
 12 11  1  0  0  0  0
 13 12  1  0  0  0  0
 14 13  1  0  0  0  0
 14  9  1  0  0  0  0
 15 16  1  0  0  0  0
 15  2  1  0  0  0  0
 17 15  1  0  0  0  0
 18 15  1  0  0  0  0
M  END
>  <minimizedAffinity>
-3.96616793

$$$$
