
 OpenBabel03252508143D

 34 37  0  0  1  0  0  0  0  0999 V2000
   46.0610   30.9050   46.7830 C   0  0  0  0  0  0  0  0  0  0  0  0
   47.0990   30.5000   46.7760 H   0  0  0  0  0  0  0  0  0  0  0  0
   45.3440   30.0940   46.6420 H   0  0  0  0  0  0  0  0  0  0  0  0
   45.8890   31.6460   48.0900 C   0  0  1  0  0  0  0  0  0  0  0  0
   45.6630   30.8080   49.3000 C   0  0  0  0  0  0  0  0  0  0  0  0
   46.9250   31.5050   49.1390 C   0  0  1  0  0  0  0  0  0  0  0  0
   45.3380   32.6080   48.0600 H   0  0  0  0  0  0  0  0  0  0  0  0
   45.5450   29.7130   49.1350 H   0  0  0  0  0  0  0  0  0  0  0  0
   44.9310   31.1650   50.0750 H   0  0  0  0  0  0  0  0  0  0  0  0
   47.0620   32.4110   49.8050 H   0  0  0  0  0  0  0  0  0  0  0  0
   48.2150   30.8790   48.7640 C   0  0  0  0  0  0  0  0  0  0  0  0
   49.0830   30.4370   49.9720 C   0  0  0  0  0  0  0  0  0  0  0  0
   49.4820   31.6430   49.2070 C   0  0  0  0  0  0  0  0  0  0  0  0
   48.2990   30.3080   47.8370 H   0  0  0  0  0  0  0  0  0  0  0  0
   49.5950   29.4510   49.7940 H   0  0  0  0  0  0  0  0  0  0  0  0
   48.6170   30.4850   50.9620 H   0  0  0  0  0  0  0  0  0  0  0  0
   50.3680   31.5350   48.5280 H   0  0  0  0  0  0  0  0  0  0  0  0
   49.3560   32.5960   49.7430 H   0  0  0  0  0  0  0  0  0  0  0  0
   45.8100   33.1030   45.9390 C   0  0  0  0  0  3  0  0  0  0  0  0
   46.0360   31.8890   45.6260 C   0  0  0  0  0  3  0  0  0  0  0  0
   44.8580   36.0140   43.8960 C   0  0  0  0  0  0  0  0  0  0  0  0
   45.6650   35.8930   42.7740 C   0  0  0  0  0  0  0  0  0  0  0  0
   46.5230   34.8350   42.7440 C   0  0  0  0  0  0  0  0  0  0  0  0
   46.5330   33.9790   43.7980 N   0  0  0  0  0  0  0  0  0  0  0  0
   45.7600   34.0940   44.8730 C   0  0  0  0  0  0  0  0  0  0  0  0
   44.9280   35.1330   44.8880 N   0  0  0  0  0  0  0  0  0  0  0  0
   44.1280   36.8150   44.0480 H   0  0  0  0  0  0  0  0  0  0  0  0
   45.5400   36.6440   42.0380 H   0  0  0  0  0  0  0  0  0  0  0  0
   47.4070   34.6730   41.5410 C   0  0  0  0  0  3  0  0  0  0  0  0
   47.7910   33.2660   41.2530 C   0  0  0  0  0  2  0  0  0  0  0  0
   49.3010   33.0970   41.0960 C   0  0  0  0  0  2  0  0  0  0  0  0
   50.0420   33.6790   42.2660 C   0  0  0  0  0  2  0  0  0  0  0  0
   49.6820   35.1020   42.5480 C   0  0  0  0  0  2  0  0  0  0  0  0
   48.6040   35.5910   41.6240 C   0  0  0  0  0  2  0  0  0  0  0  0
  1  4  1  0  0  0  0
  2  1  1  0  0  0  0
  3  1  1  0  0  0  0
  4  7  1  6  0  0  0
  4  6  1  0  0  0  0
  4  5  1  0  0  0  0
  5  9  1  0  0  0  0
  6  5  1  0  0  0  0
  6 10  1  1  0  0  0
  8  5  1  0  0  0  0
 11  6  1  0  0  0  0
 11 13  1  0  0  0  0
 11 12  1  0  0  0  0
 12 16  1  0  0  0  0
 13 18  1  0  0  0  0
 13 12  1  0  0  0  0
 14 11  1  0  0  0  0
 15 12  1  0  0  0  0
 17 13  1  0  0  0  0
 20 19  2  0  0  0  0
 20  1  1  0  0  0  0
 21 27  1  0  0  0  0
 21 26  1  0  0  0  0
 22 21  2  0  0  0  0
 23 22  1  0  0  0  0
 23 24  2  0  0  0  0
 24 25  1  0  0  0  0
 25 26  2  0  0  0  0
 25 19  1  0  0  0  0
 28 22  1  0  0  0  0
 29 34  1  0  0  0  0
 29 23  1  0  0  0  0
 30 29  1  0  0  0  0
 31 30  1  0  0  0  0
 31 32  1  0  0  0  0
 32 33  1  0  0  0  0
 34 33  1  0  0  0  0
M  END
>  <minimizedAffinity>
-6.30076885

>  <minimizedRMSD>
1.13103807

$$$$
