
     RDKit          3D

 29 30  0  0  0  0  0  0  0  0999 V2000
   45.4423   35.0633   43.9954 C   0  0  0  0  0  0  0  0  0  0  0  0
   46.5012   34.2973   43.5003 C   0  0  0  0  0  0  0  0  0  0  0  0
   47.0133   33.2929   44.3356 C   0  0  0  0  0  0  0  0  0  0  0  0
   46.4604   33.1243   45.5584 N   0  0  0  0  0  0  0  0  0  0  0  0
   45.4279   33.8928   46.0045 C   0  0  0  0  0  0  0  0  0  0  0  0
   44.9204   34.8631   45.2192 N   0  0  0  0  0  0  0  0  0  0  0  0
   44.8994   36.1393   43.0907 C   0  0  0  0  0  0  0  0  0  0  0  0
   46.9385   34.4378   42.5211 H   0  0  0  0  0  0  0  0  0  0  0  0
   47.8399   32.6624   44.0042 H   0  0  0  0  0  0  0  0  0  0  0  0
   44.8038   35.7604   42.0590 H   0  0  0  0  0  0  0  0  0  0  0  0
   43.9352   36.5139   43.4411 H   0  0  0  0  0  0  0  0  0  0  0  0
   45.6581   36.9586   43.0863 H   0  0  0  0  0  0  0  0  0  0  0  0
   44.8995   33.6308   47.3441 C   0  0  0  0  0  0  0  0  0  0  0  0
   43.6524   32.8181   47.3746 C   0  0  0  0  0  0  0  0  0  0  0  0
   43.7391   31.6187   48.2864 C   0  0  0  0  0  0  0  0  0  0  0  0
   44.3411   31.9085   49.6324 C   0  0  0  0  0  0  0  0  0  0  0  0
   45.5730   32.7838   49.5735 C   0  0  0  0  0  0  0  0  0  0  0  0
   46.0249   32.9674   48.1441 C   0  0  0  0  0  0  0  0  0  0  0  0
   44.7678   34.6290   47.8531 H   0  0  0  0  0  0  0  0  0  0  0  0
   42.7602   33.4434   47.6501 H   0  0  0  0  0  0  0  0  0  0  0  0
   43.4129   32.4245   46.3628 H   0  0  0  0  0  0  0  0  0  0  0  0
   42.6885   31.2728   48.4722 H   0  0  0  0  0  0  0  0  0  0  0  0
   44.2296   30.7962   47.7573 H   0  0  0  0  0  0  0  0  0  0  0  0
   43.6473   32.3475   50.3472 H   0  0  0  0  0  0  0  0  0  0  0  0
   44.6884   30.9159   50.0421 H   0  0  0  0  0  0  0  0  0  0  0  0
   46.4287   32.3611   50.1398 H   0  0  0  0  0  0  0  0  0  0  0  0
   45.3768   33.7986   50.0152 H   0  0  0  0  0  0  0  0  0  0  0  0
   46.3459   32.0242   47.6986 H   0  0  0  0  0  0  0  0  0  0  0  0
   46.8711   33.6764   48.1172 H   0  0  0  0  0  0  0  0  0  0  0  0
  1  6  2  0
  2  1  1  0
  2  3  2  0
  3  4  1  0
  4  5  2  0
  6  5  1  0
  7  1  1  0
  2  8  1  0
  3  9  1  0
  7 10  1  0
  7 11  1  0
  7 12  1  0
 13 14  1  0
 14 15  1  0
 15 16  1  0
 16 17  1  0
 17 18  1  0
 18 13  1  0
 13 19  1  0
 14 20  1  0
 14 21  1  0
 15 22  1  0
 15 23  1  0
 16 24  1  0
 16 25  1  0
 17 26  1  0
 17 27  1  0
 18 28  1  0
 18 29  1  0
  5 13  1  0
M  ISO  5   8  14   9  14  10   8  11   8  12   8
M  END
>  <DihAtoms>  (1) 
3,4,12,13

>  <DihDeg>  (1) 
125.23094953198665

$$$$
