REMARK  Name = 
REMARK  5 active torsions:
REMARK  status: ('A' for Active; 'I' for Inactive)
REMARK    1  A    between atoms: C_1  and  C_13
REMARK    2  A    between atoms: C_6  and  N_7
REMARK    3  A    between atoms: C_13  and  C_14
REMARK    4  A    between atoms: C_14  and  C_17
REMARK    5  A    between atoms: C_19  and  C_40
REMARK                            x       y       z     vdW  Elec       q    Type
REMARK                         _______ _______ _______ _____ _____    ______ ____
ROOT
ATOM      1  C   UNL     1      45.686  33.687  40.663  0.00  0.00    +0.000 A 
ATOM      2  C   UNL     1      46.175  33.341  39.422  0.00  0.00    +0.000 A 
ATOM      3  C   UNL     1      47.404  33.696  38.942  0.00  0.00    +0.000 A 
ATOM      4  C   UNL     1      48.197  34.468  39.803  0.00  0.00    +0.000 A 
ATOM      5  C   UNL     1      47.765  34.840  41.044  0.00  0.00    +0.000 A 
ATOM      6  C   UNL     1      46.528  34.459  41.479  0.00  0.00    +0.000 A 
ATOM      7  H   UNL     1      45.642  32.739  38.700  0.00  0.00    +0.000 HD
ATOM      8  H   UNL     1      47.817  33.444  37.978  0.00  0.00    +0.000 HD
ATOM      9  H   UNL     1      49.196  34.788  39.478  0.00  0.00    +0.000 HD
ATOM     10  H   UNL     1      48.440  35.442  41.659  0.00  0.00    +0.000 HD
ENDROOT
BRANCH   6  11
ATOM     11  N   UNL     1      46.177  34.883  42.781  0.00  0.00    +0.000 N 
ATOM     12  C   UNL     1      45.318  35.995  43.062  0.00  0.00    +0.000 C 
ATOM     13  C   UNL     1      44.759  35.908  44.473  0.00  0.00    +0.000 C 
ATOM     14  N   UNL     1      44.420  34.590  44.888  0.00  0.00    +0.000 NA
ATOM     15  C   UNL     1      45.468  33.642  44.766  0.00  0.00    +0.000 C 
ATOM     16  C   UNL     1      46.639  34.254  44.028  0.00  0.00    +0.000 C 
ATOM     17  H   UNL     1      46.014  36.886  43.098  0.00  0.00    +0.000 HD
ATOM     18  H   UNL     1      44.582  36.265  42.316  0.00  0.00    +0.000 HD
ATOM     19  H   UNL     1      45.391  36.436  45.217  0.00  0.00    +0.000 HD
ATOM     20  H   UNL     1      43.802  36.493  44.434  0.00  0.00    +0.000 HD
ATOM     21  H   UNL     1      43.905  34.637  45.765  0.00  0.00    +0.000 HD
ATOM     22  H   UNL     1      45.158  32.738  44.188  0.00  0.00    +0.000 HD
ATOM     23  H   UNL     1      45.793  33.370  45.784  0.00  0.00    +0.000 HD
ATOM     24  H   UNL     1      47.055  35.057  44.687  0.00  0.00    +0.000 HD
ATOM     25  H   UNL     1      47.439  33.523  43.836  0.00  0.00    +0.000 HD
ENDBRANCH   6  11
BRANCH   1  26
ATOM     26  C   UNL     1      44.367  33.307  41.166  0.00  0.00    +0.000 C 
ATOM     27  H   UNL     1      43.929  33.996  41.885  0.00  0.00    +0.000 HD
ATOM     28  H   UNL     1      44.516  32.339  41.719  0.00  0.00    +0.000 HD
BRANCH  26  29
ATOM     29  C   UNL     1      43.397  33.029  40.040  0.00  0.00    +0.000 C 
ATOM     30  H   UNL     1      43.821  33.223  39.069  0.00  0.00    +0.000 HD
ATOM     31  H   UNL     1      43.046  31.974  40.046  0.00  0.00    +0.000 HD
BRANCH  29  34
ATOM     32  C   UNL     1      40.797  35.697  39.427  0.00  0.00    +0.000 A 
ATOM     33  C   UNL     1      41.941  34.885  39.265  0.00  0.00    +0.000 A 
ATOM     34  C   UNL     1      42.202  33.891  40.200  0.00  0.00    +0.000 A 
ATOM     35  N   UNL     1      41.324  33.747  41.243  0.00  0.00    +0.000 NA
ATOM     36  C   UNL     1      40.245  34.531  41.372  0.00  0.00    +0.000 A 
ATOM     37  N   UNL     1      39.985  35.499  40.469  0.00  0.00    +0.000 NA
ATOM     38  H   UNL     1      40.704  36.420  38.651  0.00  0.00    +0.000 HD
ATOM     39  H   UNL     1      42.631  34.996  38.448  0.00  0.00    +0.000 HD
BRANCH  36  40
ATOM     40  C   UNL     1      39.310  34.357  42.509  0.00  0.00    +0.000 C 
ATOM     41  C   UNL     1      39.758  33.150  43.317  0.00  0.00    +0.000 C 
ATOM     42  C   UNL     1      38.567  32.845  44.234  0.00  0.00    +0.000 C 
ATOM     43  C   UNL     1      38.466  33.958  45.251  0.00  0.00    +0.000 C 
ATOM     44  C   UNL     1      39.344  35.133  44.898  0.00  0.00    +0.000 C 
ATOM     45  C   UNL     1      39.239  35.513  43.443  0.00  0.00    +0.000 C 
ENDBRANCH  36  40
ENDBRANCH  29  34
ENDBRANCH  26  29
ENDBRANCH   1  26
TORSDOF 5
