
     RDKit          3D

 42 45  0  0  0  0  0  0  0  0999 V2000
   45.2130   36.1721   43.4908 C   0  0  0  0  0  0  0  0  0  0  0  0
   45.8608   34.9691   43.1530 C   0  0  0  0  0  0  0  0  0  0  0  0
   45.8095   33.9964   44.1298 C   0  0  0  0  0  0  0  0  0  0  0  0
   45.1872   34.1790   45.3199 N   0  0  0  0  0  0  0  0  0  0  0  0
   44.5774   35.3629   45.5921 C   0  0  0  0  0  0  0  0  0  0  0  0
   44.5934   36.3570   44.6731 N   0  0  0  0  0  0  0  0  0  0  0  0
   46.4305   32.7621   43.8856 C   0  0  0  0  0  0  0  0  0  0  0  0
   47.7024   32.2816   44.0041 C   0  0  0  0  0  0  0  0  0  0  0  0
   48.0461   31.0348   43.7007 C   0  0  0  0  0  0  0  0  0  0  0  0
   47.0423   30.2312   43.2514 C   0  0  0  0  0  0  0  0  0  0  0  0
   45.5613   31.3293   43.2751 S   0  0  0  0  0  0  0  0  0  0  0  0
   46.4942   34.8277   41.9007 C   0  0  0  0  0  0  0  0  0  0  0  0
   47.6969   35.2424   41.8408 O   0  0  0  0  0  0  0  0  0  0  0  0
   45.7540   34.2216   40.7464 C   0  0  0  0  0  0  0  0  0  0  0  0
   44.4159   34.3347   40.4775 C   0  0  0  0  0  0  0  0  0  0  0  0
   44.1944   33.6364   39.3537 N   0  0  0  0  0  0  0  0  0  0  0  0
   45.3707   33.1072   38.9433 C   0  0  0  0  0  0  0  0  0  0  0  0
   46.3451   33.4704   39.8099 N   0  0  0  0  0  0  0  0  0  0  0  0
   45.2065   36.9943   42.7735 H   0  0  0  0  0  0  0  0  0  0  0  0
   44.0952   35.4579   46.5558 H   0  0  0  0  0  0  0  0  0  0  0  0
   48.4338   33.0282   44.3796 H   0  0  0  0  0  0  0  0  0  0  0  0
   49.0349   30.6045   43.7761 H   0  0  0  0  0  0  0  0  0  0  0  0
   47.0555   29.1687   42.9348 H   0  0  0  0  0  0  0  0  0  0  0  0
   43.6849   34.8857   41.0667 H   0  0  0  0  0  0  0  0  0  0  0  0
   43.2472   33.5693   38.9419 H   0  0  0  0  0  0  0  0  0  0  0  0
   45.5483   32.2591   37.7250 C   0  0  0  0  0  0  0  0  0  0  0  0
   44.3341   31.4586   37.3815 C   0  0  0  0  0  0  0  0  0  0  0  0
   44.5272   30.9106   35.9797 C   0  0  0  0  0  0  0  0  0  0  0  0
   44.4892   31.9711   34.9229 C   0  0  0  0  0  0  0  0  0  0  0  0
   44.7605   33.3111   35.6123 C   0  0  0  0  0  0  0  0  0  0  0  0
   45.9537   33.0866   36.5317 C   0  0  0  0  0  0  0  0  0  0  0  0
   46.3931   31.5441   37.8997 H   0  0  0  0  0  0  0  0  0  0  0  0
   44.2378   30.5687   38.0509 H   0  0  0  0  0  0  0  0  0  0  0  0
   43.3916   32.0274   37.4513 H   0  0  0  0  0  0  0  0  0  0  0  0
   43.7758   30.0995   35.7787 H   0  0  0  0  0  0  0  0  0  0  0  0
   45.5330   30.4406   35.9171 H   0  0  0  0  0  0  0  0  0  0  0  0
   45.2854   31.8767   34.1504 H   0  0  0  0  0  0  0  0  0  0  0  0
   43.5192   32.0164   34.3656 H   0  0  0  0  0  0  0  0  0  0  0  0
   45.0044   34.0617   34.8488 H   0  0  0  0  0  0  0  0  0  0  0  0
   43.8717   33.6715   36.1451 H   0  0  0  0  0  0  0  0  0  0  0  0
   46.7504   32.6110   35.9300 H   0  0  0  0  0  0  0  0  0  0  0  0
   46.3085   34.0740   36.9219 H   0  0  0  0  0  0  0  0  0  0  0  0
  1  6  2  0
  2  1  1  0
  2  3  2  0
  3  4  1  0
  4  5  2  0
  6  5  1  0
  7  8  2  0
  7  3  1  0
  9  8  1  0
 10 11  1  0
 10  9  2  0
 11  7  1  0
 12  2  1  0
 13 12  2  0
 14 12  1  0
 15 14  2  0
 16 15  1  0
 17 16  1  0
 17 18  2  0
 18 14  1  0
  1 19  1  0
  5 20  1  0
  8 21  1  0
  9 22  1  0
 10 23  1  0
 15 24  1  0
 16 25  1  0
 26 27  1  0
 27 28  1  0
 28 29  1  0
 29 30  1  0
 30 31  1  0
 31 26  1  0
 26 32  1  0
 27 33  1  0
 27 34  1  0
 28 35  1  0
 28 36  1  0
 29 37  1  0
 29 38  1  0
 30 39  1  0
 30 40  1  0
 31 41  1  0
 31 42  1  0
 17 26  1  0
M  ISO  7  19  14  20  14  21  14  22  14  23  14  24  14  25   9
M  END
>  <DihAtoms>  (1) 
15,16,25,26

>  <DihDeg>  (1) 
-59.97636908599726

$$$$
