
 OpenBabel03252502453D

 28 30  0  0  1  0  0  0  0  0999 V2000
   35.4780   28.9440   40.8560 C   0  0  0  0  0  0  0  0  0  0  0  0
   35.3360   29.9610   41.2170 H   0  0  0  0  0  0  0  0  0  0  0  0
   34.6140   28.2910   41.2020 H   0  0  0  0  0  0  0  0  0  0  0  0
   36.6850   28.2580   41.4020 C   0  0  1  0  0  0  0  0  0  0  0  0
   37.4330   28.9490   42.4980 C   0  0  0  0  0  0  0  0  0  0  0  0
   36.6010   27.7530   42.7800 C   0  0  2  0  0  0  0  0  0  0  0  0
   37.2560   27.7200   40.5970 H   0  0  0  0  0  0  0  0  0  0  0  0
   37.1960   29.9710   42.8360 H   0  0  0  0  0  0  0  0  0  0  0  0
   38.5390   28.8570   42.3960 H   0  0  0  0  0  0  0  0  0  0  0  0
   35.7630   27.6230   43.4270 H   0  0  0  0  0  0  0  0  0  0  0  0
   37.4540   26.4910   42.9660 C   0  0  0  0  0  3  0  0  0  0  0  0
   37.3620   25.5540   41.7960 C   0  0  0  0  0  2  0  0  0  0  0  0
   38.0230   24.2720   42.2190 C   0  0  0  0  0  2  0  0  0  0  0  0
   39.4740   24.4740   42.5910 C   0  0  0  0  0  2  0  0  0  0  0  0
   39.6980   25.6460   43.4820 C   0  0  0  0  0  2  0  0  0  0  0  0
   38.9270   26.8650   43.1040 C   0  0  0  0  0  2  0  0  0  0  0  0
   35.5780   28.8160   39.3440 C   0  0  0  0  0  0  0  0  0  0  0  0
   34.5650   29.1490   38.9540 H   0  0  0  0  0  0  0  0  0  0  0  0
   35.9180   27.8630   38.9780 H   0  0  0  0  0  0  0  0  0  0  0  0
   37.5800   31.0910   37.1420 C   0  0  0  0  0  0  0  0  0  0  0  0
   36.8620   29.9570   37.5720 C   0  0  0  0  0  0  0  0  0  0  0  0
   36.3020   30.0090   38.8230 C   0  0  0  0  0  0  0  0  0  0  0  0
   36.4540   31.1290   39.5860 N   0  0  0  0  0  0  0  0  0  0  0  0
   37.1310   32.1840   39.1620 C   0  0  0  0  0  0  0  0  0  0  0  0
   37.7010   32.1810   37.9450 N   0  0  0  0  0  0  0  0  0  0  0  0
   38.0660   31.1680   36.1820 H   0  0  0  0  0  0  0  0  0  0  0  0
   36.8500   29.1990   36.8250 H   0  0  0  0  0  0  0  0  0  0  0  0
   37.1560   32.9850   39.8870 H   0  0  0  0  0  0  0  0  0  0  0  0
  1  3  1  0  0  0  0
  1  2  1  0  0  0  0
  1  4  1  0  0  0  0
  4  7  1  6  0  0  0
  4  5  1  0  0  0  0
  4  6  1  0  0  0  0
  5  6  1  0  0  0  0
  5  8  1  0  0  0  0
  6 11  1  0  0  0  0
  6 10  1  1  0  0  0
  9  5  1  0  0  0  0
 11 16  1  0  0  0  0
 12 13  1  0  0  0  0
 12 11  1  0  0  0  0
 13 14  1  0  0  0  0
 14 15  1  0  0  0  0
 16 15  1  0  0  0  0
 17  1  1  0  0  0  0
 18 17  1  0  0  0  0
 19 17  1  0  0  0  0
 20 21  2  0  0  0  0
 20 25  1  0  0  0  0
 21 22  1  0  0  0  0
 22 17  1  0  0  0  0
 22 23  2  0  0  0  0
 24 23  1  0  0  0  0
 24 28  1  0  0  0  0
 25 24  2  0  0  0  0
 26 20  1  0  0  0  0
 27 21  1  0  0  0  0
M  END
>  <minimizedAffinity>
-5.04223299

$$$$

 OpenBabel03252502453D

 28 30  0  0  1  0  0  0  0  0999 V2000
   36.3580   30.1610   38.4260 C   0  0  0  0  0  0  0  0  0  0  0  0
   35.6790   30.9520   38.1160 H   0  0  0  0  0  0  0  0  0  0  0  0
   36.1650   29.2260   37.8080 H   0  0  0  0  0  0  0  0  0  0  0  0
   36.1690   29.7030   39.8340 C   0  0  1  0  0  0  0  0  0  0  0  0
   34.8300   29.1510   40.2050 C   0  0  0  0  0  0  0  0  0  0  0  0
   36.0060   28.2580   40.0510 C   0  0  2  0  0  0  0  0  0  0  0  0
   36.7160   30.3630   40.5610 H   0  0  0  0  0  0  0  0  0  0  0  0
   33.9630   29.1680   39.5240 H   0  0  0  0  0  0  0  0  0  0  0  0
   34.4920   29.4710   41.2180 H   0  0  0  0  0  0  0  0  0  0  0  0
   36.1720   27.4300   39.3990 H   0  0  0  0  0  0  0  0  0  0  0  0
   36.5810   27.8280   41.4060 C   0  0  0  0  0  3  0  0  0  0  0  0
   37.6920   26.8250   41.2710 C   0  0  0  0  0  2  0  0  0  0  0  0
   37.9750   26.3090   42.6530 C   0  0  0  0  0  2  0  0  0  0  0  0
   38.4020   27.4090   43.5980 C   0  0  0  0  0  2  0  0  0  0  0  0
   37.5400   28.6200   43.5200 C   0  0  0  0  0  2  0  0  0  0  0  0
   37.1730   29.0310   42.1350 C   0  0  0  0  0  2  0  0  0  0  0  0
   37.8340   30.5040   38.2970 C   0  0  0  0  0  0  0  0  0  0  0  0
   37.9140   31.0940   37.3300 H   0  0  0  0  0  0  0  0  0  0  0  0
   38.5150   29.6760   38.3840 H   0  0  0  0  0  0  0  0  0  0  0  0
   37.7070   33.9140   39.8420 C   0  0  0  0  0  0  0  0  0  0  0  0
   37.3690   32.8150   39.0260 C   0  0  0  0  0  0  0  0  0  0  0  0
   38.1170   31.6750   39.1720 C   0  0  0  0  0  0  0  0  0  0  0  0
   39.1340   31.6460   40.0800 N   0  0  0  0  0  0  0  0  0  0  0  0
   39.4330   32.6890   40.8370 C   0  0  0  0  0  0  0  0  0  0  0  0
   38.7320   33.8290   40.7290 N   0  0  0  0  0  0  0  0  0  0  0  0
   37.1940   34.8630   39.8160 H   0  0  0  0  0  0  0  0  0  0  0  0
   36.5390   33.0370   38.3990 H   0  0  0  0  0  0  0  0  0  0  0  0
   40.2650   32.4990   41.5020 H   0  0  0  0  0  0  0  0  0  0  0  0
  1  4  1  0  0  0  0
  2  1  1  0  0  0  0
  3  1  1  0  0  0  0
  4  6  1  0  0  0  0
  4  5  1  0  0  0  0
  4  7  1  1  0  0  0
  5  9  1  0  0  0  0
  6 10  1  6  0  0  0
  6  5  1  0  0  0  0
  6 11  1  0  0  0  0
  8  5  1  0  0  0  0
 11 16  1  0  0  0  0
 12 11  1  0  0  0  0
 12 13  1  0  0  0  0
 13 14  1  0  0  0  0
 15 14  1  0  0  0  0
 16 15  1  0  0  0  0
 17 19  1  0  0  0  0
 17  1  1  0  0  0  0
 17 22  1  0  0  0  0
 18 17  1  0  0  0  0
 20 25  1  0  0  0  0
 21 22  1  0  0  0  0
 21 20  2  0  0  0  0
 22 23  2  0  0  0  0
 23 24  1  0  0  0  0
 24 28  1  0  0  0  0
 25 24  2  0  0  0  0
 26 20  1  0  0  0  0
 27 21  1  0  0  0  0
M  END
>  <minimizedAffinity>
-4.97438526

$$$$

 OpenBabel03252502453D

 28 30  0  0  1  0  0  0  0  0999 V2000
   35.8430   29.2360   40.8000 C   0  0  0  0  0  0  0  0  0  0  0  0
   35.5170   30.1220   41.3400 H   0  0  0  0  0  0  0  0  0  0  0  0
   34.9860   28.4910   40.7320 H   0  0  0  0  0  0  0  0  0  0  0  0
   36.9310   28.4680   41.4730 C   0  0  1  0  0  0  0  0  0  0  0  0
   37.4490   29.0020   42.7710 C   0  0  0  0  0  0  0  0  0  0  0  0
   36.5900   27.7920   42.7330 C   0  0  2  0  0  0  0  0  0  0  0  0
   37.6500   28.0290   40.7290 H   0  0  0  0  0  0  0  0  0  0  0  0
   37.1420   29.9750   43.1860 H   0  0  0  0  0  0  0  0  0  0  0  0
   38.5550   28.9070   42.8700 H   0  0  0  0  0  0  0  0  0  0  0  0
   35.6450   27.5930   43.1860 H   0  0  0  0  0  0  0  0  0  0  0  0
   37.4050   26.5040   42.9140 C   0  0  0  0  0  3  0  0  0  0  0  0
   37.2320   25.5440   41.7710 C   0  0  0  0  0  2  0  0  0  0  0  0
   37.8630   24.2500   42.1990 C   0  0  0  0  0  2  0  0  0  0  0  0
   39.3350   24.4060   42.5060 C   0  0  0  0  0  2  0  0  0  0  0  0
   39.6360   25.5890   43.3590 C   0  0  0  0  0  2  0  0  0  0  0  0
   38.8950   26.8270   42.9840 C   0  0  0  0  0  2  0  0  0  0  0  0
   36.3380   29.5010   39.3860 C   0  0  0  0  0  0  0  0  0  0  0  0
   35.4900   30.0610   38.8790 H   0  0  0  0  0  0  0  0  0  0  0  0
   36.7040   28.6420   38.8510 H   0  0  0  0  0  0  0  0  0  0  0  0
   37.7060   32.9300   40.0220 C   0  0  0  0  0  0  0  0  0  0  0  0
   36.8310   31.8250   40.0540 C   0  0  0  0  0  0  0  0  0  0  0  0
   37.2490   30.6790   39.4260 C   0  0  0  0  0  0  0  0  0  0  0  0
   38.4650   30.6500   38.8110 N   0  0  0  0  0  0  0  0  0  0  0  0
   39.2710   31.6980   38.7940 C   0  0  0  0  0  0  0  0  0  0  0  0
   38.9070   32.8450   39.3920 N   0  0  0  0  0  0  0  0  0  0  0  0
   37.4880   33.8840   40.4770 H   0  0  0  0  0  0  0  0  0  0  0  0
   35.9430   32.0490   40.5940 H   0  0  0  0  0  0  0  0  0  0  0  0
   40.1960   31.5080   38.2650 H   0  0  0  0  0  0  0  0  0  0  0  0
  1  2  1  0  0  0  0
  1  4  1  0  0  0  0
  3  1  1  0  0  0  0
  4  7  1  6  0  0  0
  4  6  1  0  0  0  0
  4  5  1  0  0  0  0
  5  9  1  0  0  0  0
  5  8  1  0  0  0  0
  6  5  1  0  0  0  0
  6 11  1  0  0  0  0
  6 10  1  1  0  0  0
 11 16  1  0  0  0  0
 12 13  1  0  0  0  0
 12 11  1  0  0  0  0
 13 14  1  0  0  0  0
 14 15  1  0  0  0  0
 16 15  1  0  0  0  0
 17 22  1  0  0  0  0
 17  1  1  0  0  0  0
 18 17  1  0  0  0  0
 19 17  1  0  0  0  0
 20 21  1  0  0  0  0
 20 26  1  0  0  0  0
 21 27  1  0  0  0  0
 22 21  2  0  0  0  0
 23 22  1  0  0  0  0
 24 23  2  0  0  0  0
 24 25  1  0  0  0  0
 25 20  2  0  0  0  0
 28 24  1  0  0  0  0
M  END
>  <minimizedAffinity>
-4.93398094

$$$$

 OpenBabel03252502453D

 28 30  0  0  1  0  0  0  0  0999 V2000
   39.1450   30.0400   42.5550 C   0  0  0  0  0  0  0  0  0  0  0  0
   39.9960   30.1810   43.2180 H   0  0  0  0  0  0  0  0  0  0  0  0
   38.3020   30.7390   42.8620 H   0  0  0  0  0  0  0  0  0  0  0  0
   38.5270   28.6830   42.6240 C   0  0  1  0  0  0  0  0  0  0  0  0
   37.4930   28.4510   43.6780 C   0  0  0  0  0  0  0  0  0  0  0  0
   37.1100   28.5750   42.2490 C   0  0  2  0  0  0  0  0  0  0  0  0
   39.2750   27.8760   42.3940 H   0  0  0  0  0  0  0  0  0  0  0  0
   37.2510   29.1910   44.4580 H   0  0  0  0  0  0  0  0  0  0  0  0
   37.5760   27.4470   44.1560 H   0  0  0  0  0  0  0  0  0  0  0  0
   36.4620   29.2650   41.7590 H   0  0  0  0  0  0  0  0  0  0  0  0
   36.8020   27.2110   41.6170 C   0  0  0  0  0  3  0  0  0  0  0  0
   37.3860   27.0670   40.2410 C   0  0  0  0  0  2  0  0  0  0  0  0
   36.7960   25.8160   39.6530 C   0  0  0  0  0  2  0  0  0  0  0  0
   37.1270   24.5890   40.4720 C   0  0  0  0  0  2  0  0  0  0  0  0
   36.9190   24.7820   41.9340 C   0  0  0  0  0  2  0  0  0  0  0  0
   37.4030   26.0900   42.4600 C   0  0  0  0  0  2  0  0  0  0  0  0
   39.4380   30.2870   41.0830 C   0  0  0  0  0  0  0  0  0  0  0  0
   38.6710   29.6650   40.5230 H   0  0  0  0  0  0  0  0  0  0  0  0
   40.4590   30.1360   40.7790 H   0  0  0  0  0  0  0  0  0  0  0  0
   37.1780   32.8600   39.5660 C   0  0  0  0  0  0  0  0  0  0  0  0
   37.6870   31.6010   39.9460 C   0  0  0  0  0  0  0  0  0  0  0  0
   38.8320   31.5920   40.7010 C   0  0  0  0  0  0  0  0  0  0  0  0
   39.4200   32.7720   41.0500 N   0  0  0  0  0  0  0  0  0  0  0  0
   38.9240   33.9420   40.6840 C   0  0  0  0  0  0  0  0  0  0  0  0
   37.8060   34.0040   39.9410 N   0  0  0  0  0  0  0  0  0  0  0  0
   36.2870   32.9950   38.9710 H   0  0  0  0  0  0  0  0  0  0  0  0
   37.0740   30.8100   39.5850 H   0  0  0  0  0  0  0  0  0  0  0  0
   39.5110   34.7770   41.0440 H   0  0  0  0  0  0  0  0  0  0  0  0
  1  4  1  0  0  0  0
  1  3  1  0  0  0  0
  1  2  1  0  0  0  0
  4  7  1  6  0  0  0
  4  5  1  0  0  0  0
  5  9  1  0  0  0  0
  5  8  1  0  0  0  0
  6 10  1  6  0  0  0
  6  4  1  0  0  0  0
  6  5  1  0  0  0  0
 11  6  1  0  0  0  0
 11 16  1  0  0  0  0
 12 11  1  0  0  0  0
 13 12  1  0  0  0  0
 13 14  1  0  0  0  0
 14 15  1  0  0  0  0
 15 16  1  0  0  0  0
 17  1  1  0  0  0  0
 18 17  1  0  0  0  0
 19 17  1  0  0  0  0
 20 25  2  0  0  0  0
 20 21  1  0  0  0  0
 21 22  2  0  0  0  0
 22 23  1  0  0  0  0
 22 17  1  0  0  0  0
 24 28  1  0  0  0  0
 24 23  2  0  0  0  0
 25 24  1  0  0  0  0
 26 20  1  0  0  0  0
 27 21  1  0  0  0  0
M  END
>  <minimizedAffinity>
-4.90072632

$$$$

 OpenBabel03252502453D

 28 30  0  0  1  0  0  0  0  0999 V2000
   36.3100   27.8820   42.1740 C   0  0  0  0  0  0  0  0  0  0  0  0
   36.0460   26.8290   42.0950 H   0  0  0  0  0  0  0  0  0  0  0  0
   35.5120   28.4330   42.7690 H   0  0  0  0  0  0  0  0  0  0  0  0
   36.3490   28.6080   40.8710 C   0  0  1  0  0  0  0  0  0  0  0  0
   35.0430   28.8720   40.1910 C   0  0  0  0  0  0  0  0  0  0  0  0
   35.7970   29.9690   40.8470 C   0  0  2  0  0  0  0  0  0  0  0  0
   37.2420   28.3090   40.2570 H   0  0  0  0  0  0  0  0  0  0  0  0
   34.0840   28.4660   40.5520 H   0  0  0  0  0  0  0  0  0  0  0  0
   35.0930   28.7350   39.0850 H   0  0  0  0  0  0  0  0  0  0  0  0
   35.5210   30.6260   41.6420 H   0  0  0  0  0  0  0  0  0  0  0  0
   36.5300   30.8530   39.8290 C   0  0  0  0  0  3  0  0  0  0  0  0
   37.3480   31.9300   40.4810 C   0  0  0  0  0  2  0  0  0  0  0  0
   37.7880   32.8580   39.3840 C   0  0  0  0  0  2  0  0  0  0  0  0
   38.6240   32.1520   38.3410 C   0  0  0  0  0  2  0  0  0  0  0  0
   38.0440   30.8540   37.9000 C   0  0  0  0  0  2  0  0  0  0  0  0
   37.5010   30.0120   39.0040 C   0  0  0  0  0  2  0  0  0  0  0  0
   37.6510   28.1520   42.8380 C   0  0  0  0  0  0  0  0  0  0  0  0
   37.4270   28.1790   43.9510 H   0  0  0  0  0  0  0  0  0  0  0  0
   38.1960   28.9990   42.4610 H   0  0  0  0  0  0  0  0  0  0  0  0
   38.5940   24.5480   42.4490 C   0  0  0  0  0  0  0  0  0  0  0  0
   37.8690   25.7490   42.3190 C   0  0  0  0  0  0  0  0  0  0  0  0
   38.4050   26.8690   42.9030 C   0  0  0  0  0  0  0  0  0  0  0  0
   39.5920   26.7820   43.5680 N   0  0  0  0  0  0  0  0  0  0  0  0
   40.2570   25.6440   43.6770 C   0  0  0  0  0  0  0  0  0  0  0  0
   39.7720   24.5190   43.1260 N   0  0  0  0  0  0  0  0  0  0  0  0
   38.2740   23.6030   42.0370 H   0  0  0  0  0  0  0  0  0  0  0  0
   36.9800   25.6070   41.7530 H   0  0  0  0  0  0  0  0  0  0  0  0
   41.1780   25.7480   44.2350 H   0  0  0  0  0  0  0  0  0  0  0  0
  1  3  1  0  0  0  0
  1 17  1  0  0  0  0
  2  1  1  0  0  0  0
  4  7  1  6  0  0  0
  4  1  1  0  0  0  0
  5  8  1  0  0  0  0
  5  6  1  0  0  0  0
  5  4  1  0  0  0  0
  6  4  1  0  0  0  0
  6 10  1  1  0  0  0
  9  5  1  0  0  0  0
 11 12  1  0  0  0  0
 11  6  1  0  0  0  0
 13 12  1  0  0  0  0
 14 13  1  0  0  0  0
 15 14  1  0  0  0  0
 15 16  1  0  0  0  0
 16 11  1  0  0  0  0
 17 22  1  0  0  0  0
 17 18  1  0  0  0  0
 19 17  1  0  0  0  0
 20 25  1  0  0  0  0
 21 20  2  0  0  0  0
 21 22  1  0  0  0  0
 22 23  2  0  0  0  0
 23 24  1  0  0  0  0
 24 28  1  0  0  0  0
 25 24  2  0  0  0  0
 26 20  1  0  0  0  0
 27 21  1  0  0  0  0
M  END
>  <minimizedAffinity>
-4.81457424

$$$$

 OpenBabel03252502453D

 28 30  0  0  1  0  0  0  0  0999 V2000
   36.6300   31.2500   39.2070 C   0  0  0  0  0  0  0  0  0  0  0  0
   35.8190   31.5120   38.5320 H   0  0  0  0  0  0  0  0  0  0  0  0
   37.4200   30.6560   38.6450 H   0  0  0  0  0  0  0  0  0  0  0  0
   36.2340   30.3460   40.3270 C   0  0  1  0  0  0  0  0  0  0  0  0
   34.9900   29.5350   40.1500 C   0  0  0  0  0  0  0  0  0  0  0  0
   36.3300   28.9000   40.0840 C   0  0  2  0  0  0  0  0  0  0  0  0
   36.4580   30.8060   41.3290 H   0  0  0  0  0  0  0  0  0  0  0  0
   34.3110   29.6560   39.2900 H   0  0  0  0  0  0  0  0  0  0  0  0
   34.3780   29.4680   41.0790 H   0  0  0  0  0  0  0  0  0  0  0  0
   36.8040   28.3520   39.3010 H   0  0  0  0  0  0  0  0  0  0  0  0
   36.6680   28.1380   41.3730 C   0  0  0  0  0  3  0  0  0  0  0  0
   37.6070   26.9900   41.1360 C   0  0  0  0  0  2  0  0  0  0  0  0
   37.6410   26.1930   42.4100 C   0  0  0  0  0  2  0  0  0  0  0  0
   38.1320   27.0120   43.5820 C   0  0  0  0  0  2  0  0  0  0  0  0
   37.4950   28.3550   43.6720 C   0  0  0  0  0  2  0  0  0  0  0  0
   37.3630   29.0650   42.3670 C   0  0  0  0  0  2  0  0  0  0  0  0
   37.3220   32.4370   39.8590 C   0  0  0  0  0  0  0  0  0  0  0  0
   37.7670   32.0270   40.8190 H   0  0  0  0  0  0  0  0  0  0  0  0
   36.7200   33.3210   39.9770 H   0  0  0  0  0  0  0  0  0  0  0  0
   40.2640   32.0020   37.5820 C   0  0  0  0  0  0  0  0  0  0  0  0
   38.9870   31.8130   38.1480 C   0  0  0  0  0  0  0  0  0  0  0  0
   38.6390   32.6320   39.1930 C   0  0  0  0  0  0  0  0  0  0  0  0
   39.5190   33.5760   39.6330 N   0  0  0  0  0  0  0  0  0  0  0  0
   40.7120   33.7370   39.0850 C   0  0  0  0  0  0  0  0  0  0  0  0
   41.1010   32.9580   38.0620 N   0  0  0  0  0  0  0  0  0  0  0  0
   40.6500   31.4190   36.7600 H   0  0  0  0  0  0  0  0  0  0  0  0
   38.4530   31.0380   37.6530 H   0  0  0  0  0  0  0  0  0  0  0  0
   41.2840   34.5280   39.5520 H   0  0  0  0  0  0  0  0  0  0  0  0
  1 17  1  0  0  0  0
  1  4  1  0  0  0  0
  2  1  1  0  0  0  0
  3  1  1  0  0  0  0
  4  7  1  1  0  0  0
  5  4  1  0  0  0  0
  5  9  1  0  0  0  0
  6 10  1  6  0  0  0
  6  5  1  0  0  0  0
  6  4  1  0  0  0  0
  6 11  1  0  0  0  0
  8  5  1  0  0  0  0
 11 16  1  0  0  0  0
 12 11  1  0  0  0  0
 12 13  1  0  0  0  0
 13 14  1  0  0  0  0
 14 15  1  0  0  0  0
 16 15  1  0  0  0  0
 17 19  1  0  0  0  0
 17 18  1  0  0  0  0
 20 25  2  0  0  0  0
 20 21  1  0  0  0  0
 21 22  2  0  0  0  0
 22 23  1  0  0  0  0
 22 17  1  0  0  0  0
 24 28  1  0  0  0  0
 24 23  2  0  0  0  0
 25 24  1  0  0  0  0
 26 20  1  0  0  0  0
 27 21  1  0  0  0  0
M  END
>  <minimizedAffinity>
-4.78879833

$$$$

 OpenBabel03252502453D

 28 30  0  0  1  0  0  0  0  0999 V2000
   38.1510   30.3510   41.3930 C   0  0  0  0  0  0  0  0  0  0  0  0
   38.5330   30.7490   40.4550 H   0  0  0  0  0  0  0  0  0  0  0  0
   38.5160   30.9920   42.2580 H   0  0  0  0  0  0  0  0  0  0  0  0
   38.6440   28.9830   41.7300 C   0  0  1  0  0  0  0  0  0  0  0  0
   39.6800   28.8700   42.8020 C   0  0  0  0  0  0  0  0  0  0  0  0
   38.2790   28.4470   43.0480 C   0  0  2  0  0  0  0  0  0  0  0  0
   38.7210   28.3340   40.8150 H   0  0  0  0  0  0  0  0  0  0  0  0
   40.1620   29.7450   43.2680 H   0  0  0  0  0  0  0  0  0  0  0  0
   40.4660   28.1140   42.5700 H   0  0  0  0  0  0  0  0  0  0  0  0
   37.5650   28.7830   43.7660 H   0  0  0  0  0  0  0  0  0  0  0  0
   38.1240   26.9210   43.0080 C   0  0  0  0  0  3  0  0  0  0  0  0
   37.1970   26.4620   41.9180 C   0  0  0  0  0  2  0  0  0  0  0  0
   36.9410   25.0010   42.1590 C   0  0  0  0  0  2  0  0  0  0  0  0
   38.2120   24.1840   42.1170 C   0  0  0  0  0  2  0  0  0  0  0  0
   39.3270   24.7860   42.8990 C   0  0  0  0  0  2  0  0  0  0  0  0
   39.4720   26.2600   42.7330 C   0  0  0  0  0  2  0  0  0  0  0  0
   36.6340   30.2760   41.4790 C   0  0  0  0  0  0  0  0  0  0  0  0
   36.2850   31.3560   41.4430 H   0  0  0  0  0  0  0  0  0  0  0  0
   36.2410   29.6960   42.2960 H   0  0  0  0  0  0  0  0  0  0  0  0
   34.5330   28.8480   38.7270 C   0  0  0  0  0  0  0  0  0  0  0  0
   34.9650   29.1850   40.0260 C   0  0  0  0  0  0  0  0  0  0  0  0
   36.1070   29.9380   40.1280 C   0  0  0  0  0  0  0  0  0  0  0  0
   36.7650   30.3250   38.9980 N   0  0  0  0  0  0  0  0  0  0  0  0
   36.3410   29.9980   37.7890 C   0  0  0  0  0  0  0  0  0  0  0  0
   35.2290   29.2600   37.6360 N   0  0  0  0  0  0  0  0  0  0  0  0
   33.6520   28.2600   38.5200 H   0  0  0  0  0  0  0  0  0  0  0  0
   34.3060   28.8000   40.7670 H   0  0  0  0  0  0  0  0  0  0  0  0
   36.9760   30.3840   37.0030 H   0  0  0  0  0  0  0  0  0  0  0  0
  1 17  1  0  0  0  0
  1  4  1  0  0  0  0
  1  3  1  0  0  0  0
  2  1  1  0  0  0  0
  4  7  1  6  0  0  0
  4  5  1  0  0  0  0
  4  6  1  0  0  0  0
  5  6  1  0  0  0  0
  5  8  1  0  0  0  0
  6 10  1  1  0  0  0
  9  5  1  0  0  0  0
 11  6  1  0  0  0  0
 12 13  1  0  0  0  0
 12 11  1  0  0  0  0
 14 13  1  0  0  0  0
 14 15  1  0  0  0  0
 16 15  1  0  0  0  0
 16 11  1  0  0  0  0
 17 19  1  0  0  0  0
 18 17  1  0  0  0  0
 20 21  1  0  0  0  0
 21 22  2  0  0  0  0
 21 27  1  0  0  0  0
 22 17  1  0  0  0  0
 23 22  1  0  0  0  0
 24 23  2  0  0  0  0
 25 24  1  0  0  0  0
 25 20  2  0  0  0  0
 26 20  1  0  0  0  0
 28 24  1  0  0  0  0
M  END
>  <minimizedAffinity>
-4.72933722

$$$$

 OpenBabel03252502453D

 28 30  0  0  1  0  0  0  0  0999 V2000
   39.3900   29.8600   42.0420 C   0  0  0  0  0  0  0  0  0  0  0  0
   40.2850   30.3950   41.7330 H   0  0  0  0  0  0  0  0  0  0  0  0
   39.0970   30.1780   43.0940 H   0  0  0  0  0  0  0  0  0  0  0  0
   39.5620   28.3810   42.1520 C   0  0  1  0  0  0  0  0  0  0  0  0
   40.4080   27.8680   43.2730 C   0  0  0  0  0  0  0  0  0  0  0  0
   38.9320   27.7180   43.3020 C   0  0  2  0  0  0  0  0  0  0  0  0
   39.6310   27.8960   41.1400 H   0  0  0  0  0  0  0  0  0  0  0  0
   40.9840   28.5280   43.9430 H   0  0  0  0  0  0  0  0  0  0  0  0
   41.0570   27.0130   42.9730 H   0  0  0  0  0  0  0  0  0  0  0  0
   38.2090   28.0710   44.0030 H   0  0  0  0  0  0  0  0  0  0  0  0
   38.4920   26.2900   42.9530 C   0  0  0  0  0  3  0  0  0  0  0  0
   37.1900   26.2520   42.2050 C   0  0  0  0  0  2  0  0  0  0  0  0
   36.7620   24.8130   42.1620 C   0  0  0  0  0  2  0  0  0  0  0  0
   37.7730   23.9370   41.4570 C   0  0  0  0  0  2  0  0  0  0  0  0
   39.1740   24.1850   41.8940 C   0  0  0  0  0  2  0  0  0  0  0  0
   39.5270   25.6260   42.0490 C   0  0  0  0  0  2  0  0  0  0  0  0
   38.1810   30.0700   41.1430 C   0  0  0  0  0  0  0  0  0  0  0  0
   37.3050   30.1970   41.8530 H   0  0  0  0  0  0  0  0  0  0  0  0
   38.0400   29.3330   40.3710 H   0  0  0  0  0  0  0  0  0  0  0  0
   39.0500   33.6940   40.7740 C   0  0  0  0  0  0  0  0  0  0  0  0
   39.1250   32.3490   41.1880 C   0  0  0  0  0  0  0  0  0  0  0  0
   38.1760   31.4900   40.6950 C   0  0  0  0  0  0  0  0  0  0  0  0
   37.2190   31.9560   39.8430 N   0  0  0  0  0  0  0  0  0  0  0  0
   37.1680   33.2230   39.4670 C   0  0  0  0  0  0  0  0  0  0  0  0
   38.0730   34.1050   39.9240 N   0  0  0  0  0  0  0  0  0  0  0  0
   39.7370   34.4630   41.0950 H   0  0  0  0  0  0  0  0  0  0  0  0
   39.9500   32.1890   41.8400 H   0  0  0  0  0  0  0  0  0  0  0  0
   36.3490   33.4270   38.7890 H   0  0  0  0  0  0  0  0  0  0  0  0
  1  4  1  0  0  0  0
  1  3  1  0  0  0  0
  2  1  1  0  0  0  0
  4  7  1  6  0  0  0
  4  5  1  0  0  0  0
  4  6  1  0  0  0  0
  5  6  1  0  0  0  0
  5  8  1  0  0  0  0
  6 10  1  1  0  0  0
  9  5  1  0  0  0  0
 11  6  1  0  0  0  0
 12 11  1  0  0  0  0
 13 12  1  0  0  0  0
 14 15  1  0  0  0  0
 14 13  1  0  0  0  0
 15 16  1  0  0  0  0
 16 11  1  0  0  0  0
 17 18  1  0  0  0  0
 17  1  1  0  0  0  0
 19 17  1  0  0  0  0
 20 26  1  0  0  0  0
 20 21  1  0  0  0  0
 21 27  1  0  0  0  0
 22 17  1  0  0  0  0
 22 21  2  0  0  0  0
 23 22  1  0  0  0  0
 24 23  2  0  0  0  0
 24 25  1  0  0  0  0
 25 20  2  0  0  0  0
 28 24  1  0  0  0  0
M  END
>  <minimizedAffinity>
-4.69896603

$$$$

 OpenBabel03252502453D

 28 30  0  0  1  0  0  0  0  0999 V2000
   38.4810   28.5180   43.2400 C   0  0  0  0  0  0  0  0  0  0  0  0
   38.8200   28.4430   44.2720 H   0  0  0  0  0  0  0  0  0  0  0  0
   39.1200   27.8490   42.5780 H   0  0  0  0  0  0  0  0  0  0  0  0
   38.6360   29.8730   42.6350 C   0  0  1  0  0  0  0  0  0  0  0  0
   40.0130   30.4560   42.5960 C   0  0  0  0  0  0  0  0  0  0  0  0
   39.3610   29.9560   41.3600 C   0  0  2  0  0  0  0  0  0  0  0  0
   37.7610   30.5360   42.8760 H   0  0  0  0  0  0  0  0  0  0  0  0
   40.8810   29.9810   43.0820 H   0  0  0  0  0  0  0  0  0  0  0  0
   40.0300   31.5470   42.8240 H   0  0  0  0  0  0  0  0  0  0  0  0
   39.6580   29.1960   40.6730 H   0  0  0  0  0  0  0  0  0  0  0  0
   38.8280   31.1020   40.4880 C   0  0  0  0  0  3  0  0  0  0  0  0
   37.3350   31.0620   40.3290 C   0  0  0  0  0  2  0  0  0  0  0  0
   36.9900   32.0630   39.2630 C   0  0  0  0  0  2  0  0  0  0  0  0
   37.4200   33.4640   39.6340 C   0  0  0  0  0  2  0  0  0  0  0  0
   38.8090   33.5330   40.1660 C   0  0  0  0  0  2  0  0  0  0  0  0
   39.1580   32.4480   41.1270 C   0  0  0  0  0  2  0  0  0  0  0  0
   37.0270   28.1310   43.0210 C   0  0  0  0  0  0  0  0  0  0  0  0
   36.6200   28.9120   42.3050 H   0  0  0  0  0  0  0  0  0  0  0  0
   36.4440   27.9810   43.9140 H   0  0  0  0  0  0  0  0  0  0  0  0
   36.6600   26.2400   39.8090 C   0  0  0  0  0  0  0  0  0  0  0  0
   36.7400   27.3230   40.7080 C   0  0  0  0  0  0  0  0  0  0  0  0
   36.9840   27.0250   42.0240 C   0  0  0  0  0  0  0  0  0  0  0  0
   37.1390   25.7260   42.4060 N   0  0  0  0  0  0  0  0  0  0  0  0
   37.0610   24.7240   41.5450 C   0  0  0  0  0  0  0  0  0  0  0  0
   36.8200   24.9630   40.2450 N   0  0  0  0  0  0  0  0  0  0  0  0
   36.4700   26.3470   38.7520 H   0  0  0  0  0  0  0  0  0  0  0  0
   36.6060   28.2530   40.2080 H   0  0  0  0  0  0  0  0  0  0  0  0
   37.2060   23.7590   42.0110 H   0  0  0  0  0  0  0  0  0  0  0  0
  1  2  1  0  0  0  0
  3  1  1  0  0  0  0
  4  7  1  1  0  0  0
  4  1  1  0  0  0  0
  5  4  1  0  0  0  0
  5  9  1  0  0  0  0
  5  8  1  0  0  0  0
  6 10  1  6  0  0  0
  6  5  1  0  0  0  0
  6  4  1  0  0  0  0
 11 16  1  0  0  0  0
 11  6  1  0  0  0  0
 12 11  1  0  0  0  0
 13 14  1  0  0  0  0
 13 12  1  0  0  0  0
 14 15  1  0  0  0  0
 15 16  1  0  0  0  0
 17  1  1  0  0  0  0
 17 19  1  0  0  0  0
 18 17  1  0  0  0  0
 20 25  2  0  0  0  0
 20 21  1  0  0  0  0
 21 22  2  0  0  0  0
 22 23  1  0  0  0  0
 22 17  1  0  0  0  0
 24 28  1  0  0  0  0
 24 23  2  0  0  0  0
 25 24  1  0  0  0  0
 26 20  1  0  0  0  0
 27 21  1  0  0  0  0
M  END
>  <minimizedAffinity>
-4.66950035

$$$$
