
 OpenBabel03252503133D

 31 34  0  0  0  0  0  0  0  0999 V2000
   45.3640   36.1870   43.3780 C   0  0  0  0  0  0  0  0  0  0  0  0
   46.0200   34.9820   43.0650 C   0  0  0  0  0  0  0  0  0  0  0  0
   45.9020   33.9990   44.0260 C   0  0  0  0  0  0  0  0  0  0  0  0
   45.2120   34.1750   45.1790 N   0  0  0  0  0  0  0  0  0  0  0  0
   44.5980   35.3610   45.4280 C   0  0  0  0  0  0  0  0  0  0  0  0
   44.6770   36.3650   44.5240 N   0  0  0  0  0  0  0  0  0  0  0  0
   45.4070   37.0170   42.6710 H   0  0  0  0  0  0  0  0  0  0  0  0
   44.0610   35.4500   46.3630 H   0  0  0  0  0  0  0  0  0  0  0  0
   46.5270   32.7620   43.8050 C   0  0  0  0  0  0  0  0  0  0  0  0
   47.7940   32.2810   43.9510 C   0  0  0  0  0  0  0  0  0  0  0  0
   48.1420   31.0310   43.6660 C   0  0  0  0  0  0  0  0  0  0  0  0
   47.1450   30.2240   43.2040 C   0  0  0  0  0  0  0  0  0  0  0  0
   45.6660   31.3250   43.1890 S   0  0  0  0  0  0  0  0  0  0  0  0
   48.5200   33.0290   44.3350 H   0  0  0  0  0  0  0  0  0  0  0  0
   49.1280   30.6000   43.7640 H   0  0  0  0  0  0  0  0  0  0  0  0
   47.1630   29.1600   42.8970 H   0  0  0  0  0  0  0  0  0  0  0  0
   46.7250   34.8490   41.8510 C   0  0  0  0  0  0  0  0  0  0  0  0
   47.9040   35.3320   41.8410 O   0  0  0  0  0  0  0  0  0  0  0  0
   46.0830   34.1730   40.6770 C   0  0  0  0  0  0  0  0  0  0  0  0
   44.7480   34.1480   40.3720 C   0  0  0  0  0  0  0  0  0  0  0  0
   44.6290   33.4330   39.2430 N   0  0  0  0  0  0  0  0  0  0  0  0
   45.8650   33.0290   38.8640 C   0  0  0  0  0  0  0  0  0  0  0  0
   46.7730   33.4880   39.7570 N   0  0  0  0  0  0  0  0  0  0  0  0
   43.9480   34.6190   40.9420 H   0  0  0  0  0  0  0  0  0  0  0  0
   43.7060   33.2690   38.8060 H   0  0  0  0  0  0  0  0  0  0  0  0
   46.1610   32.2070   37.6520 C   0  0  0  0  0  0  0  0  0  0  0  0
   45.6410   32.8110   36.3880 C   0  0  0  0  0  0  0  0  0  0  0  0
   46.2770   32.0670   35.2280 C   0  0  0  0  0  0  0  0  0  0  0  0
   47.7450   32.3280   35.0950 C   0  0  0  0  0  0  0  0  0  0  0  0
   48.2370   32.8610   36.4450 C   0  0  0  0  0  0  0  0  0  0  0  0
   47.6400   31.9490   37.5090 C   0  0  0  0  0  0  0  0  0  0  0  0
  1  6  1  0  0  0  0
  2  1  2  0  0  0  0
  2  3  1  0  0  0  0
  3  4  2  0  0  0  0
  4  5  1  0  0  0  0
  5  8  1  0  0  0  0
  6  5  2  0  0  0  0
  7  1  1  0  0  0  0
  9 10  2  0  0  0  0
  9  3  1  0  0  0  0
 10 14  1  0  0  0  0
 11 15  1  0  0  0  0
 11 10  1  0  0  0  0
 12 11  2  0  0  0  0
 13 12  1  0  0  0  0
 13  9  1  0  0  0  0
 16 12  1  0  0  0  0
 17  2  1  0  0  0  0
 18 17  2  0  0  0  0
 19 17  1  0  0  0  0
 20 19  2  0  0  0  0
 20 24  1  0  0  0  0
 21 20  1  0  0  0  0
 22 21  1  0  0  0  0
 22 23  2  0  0  0  0
 23 19  1  0  0  0  0
 25 21  1  0  0  0  0
 26 22  1  0  0  0  0
 27 26  1  0  0  0  0
 28 27  1  0  0  0  0
 29 28  1  0  0  0  0
 29 30  1  0  0  0  0
 30 31  1  0  0  0  0
 31 26  1  0  0  0  0
M  END
>  <minimizedAffinity>
-5.04880333

>  <minimizedRMSD>
0.619235039

$$$$
