
 OpenBabel03252503073D

 17 18  0  0  0  0  0  0  0  0999 V2000
   44.0440   34.7780   41.2040 C   0  0  0  0  0  0  0  0  0  0  0  0
   45.2950   34.2390   40.8630 C   0  0  0  0  0  0  0  0  0  0  0  0
   46.3950   34.5720   41.6470 C   0  0  0  0  0  0  0  0  0  0  0  0
   46.1940   35.4070   42.7080 N   0  0  0  0  0  0  0  0  0  0  0  0
   44.9750   35.9160   43.0180 C   0  0  0  0  0  0  0  0  0  0  0  0
   43.9100   35.5950   42.2600 N   0  0  0  0  0  0  0  0  0  0  0  0
   43.2000   34.5070   40.5810 H   0  0  0  0  0  0  0  0  0  0  0  0
   44.8470   36.5790   43.8680 H   0  0  0  0  0  0  0  0  0  0  0  0
   47.7400   34.0260   41.3270 C   0  0  0  0  0  0  0  0  0  0  0  0
   48.1780   33.0310   42.3610 C   0  0  0  0  0  0  0  0  0  0  0  0
   49.6600   32.8280   42.4320 C   0  0  0  0  0  0  0  0  0  0  0  0
   50.4550   34.0960   42.3910 C   0  0  0  0  0  0  0  0  0  0  0  0
   49.4980   35.2900   42.4920 C   0  0  0  0  0  0  0  0  0  0  0  0
   48.6700   35.2040   41.2030 C   0  0  0  0  0  0  0  0  0  0  0  0
   45.4210   33.3690   39.7330 C   0  0  0  0  0  0  0  0  0  0  0  0
   44.4860   33.3190   38.9090 O   0  0  0  0  0  0  0  0  0  0  0  0
   46.3980   32.8830   39.8310 H   0  0  0  0  0  0  0  0  0  0  0  0
  1  6  1  0  0  0  0
  2  1  2  0  0  0  0
  2  3  1  0  0  0  0
  3  4  2  0  0  0  0
  4  5  1  0  0  0  0
  5  8  1  0  0  0  0
  6  5  2  0  0  0  0
  7  1  1  0  0  0  0
  9  3  1  0  0  0  0
  9 10  1  0  0  0  0
 10 11  1  0  0  0  0
 12 11  1  0  0  0  0
 12 13  1  0  0  0  0
 14  9  1  0  0  0  0
 14 13  1  0  0  0  0
 15 17  1  0  0  0  0
 15  2  1  0  0  0  0
 16 15  2  0  0  0  0
M  END
>  <minimizedAffinity>
-4.41248512

>  <minimizedRMSD>
2.85655046

$$$$
