
     RDKit          3D

 29 30  0  0  0  0  0  0  0  0999 V2000
   44.5600   36.0103   44.4959 C   0  0  0  0  0  0  0  0  0  0  0  0
   45.3058   35.9229   43.2947 C   0  0  0  0  0  0  0  0  0  0  0  0
   46.1939   34.8585   43.1708 C   0  0  0  0  0  0  0  0  0  0  0  0
   46.3108   33.9588   44.1881 N   0  0  0  0  0  0  0  0  0  0  0  0
   45.5691   34.0859   45.3280 C   0  0  0  0  0  0  0  0  0  0  0  0
   44.7024   35.1043   45.4764 N   0  0  0  0  0  0  0  0  0  0  0  0
   46.9601   34.7743   41.9291 C   0  0  0  0  0  0  0  0  0  0  0  0
   43.8673   36.8277   44.6099 H   0  0  0  0  0  0  0  0  0  0  0  0
   45.1559   36.6696   42.5439 H   0  0  0  0  0  0  0  0  0  0  0  0
   45.6607   33.3798   46.1265 H   0  0  0  0  0  0  0  0  0  0  0  0
   47.2149   33.7053   41.7702 H   0  0  0  0  0  0  0  0  0  0  0  0
   46.4079   35.1105   41.0431 H   0  0  0  0  0  0  0  0  0  0  0  0
   48.2732   35.5063   41.9812 C   0  0  0  0  0  0  0  0  0  0  0  0
   48.9120   35.7406   40.6456 C   0  0  0  0  0  0  0  0  0  0  0  0
   50.3717   36.0899   40.9432 C   0  0  0  0  0  0  0  0  0  0  0  0
   50.3638   37.3892   41.7023 C   0  0  0  0  0  0  0  0  0  0  0  0
   49.6057   37.2444   43.0012 C   0  0  0  0  0  0  0  0  0  0  0  0
   48.1602   36.8497   42.6752 C   0  0  0  0  0  0  0  0  0  0  0  0
   48.9983   34.9176   42.5785 H   0  0  0  0  0  0  0  0  0  0  0  0
   48.4983   36.6164   40.1031 H   0  0  0  0  0  0  0  0  0  0  0  0
   48.9029   34.8455   39.9944 H   0  0  0  0  0  0  0  0  0  0  0  0
   50.7331   35.2957   41.6446 H   0  0  0  0  0  0  0  0  0  0  0  0
   50.9597   36.1829   40.0245 H   0  0  0  0  0  0  0  0  0  0  0  0
   51.4092   37.6887   41.9854 H   0  0  0  0  0  0  0  0  0  0  0  0
   49.8937   38.1521   41.0570 H   0  0  0  0  0  0  0  0  0  0  0  0
   50.0041   36.3777   43.5655 H   0  0  0  0  0  0  0  0  0  0  0  0
   49.6436   38.1634   43.5885 H   0  0  0  0  0  0  0  0  0  0  0  0
   47.5982   36.6996   43.6139 H   0  0  0  0  0  0  0  0  0  0  0  0
   47.6846   37.6237   42.0303 H   0  0  0  0  0  0  0  0  0  0  0  0
  1  6  2  0
  2  1  1  0
  3  2  2  0
  3  4  1  0
  4  5  2  0
  5  6  1  0
  7  3  1  0
  1  8  1  0
  2  9  1  0
  5 10  1  0
  7 11  1  0
  7 12  1  0
 13 14  1  0
 14 15  1  0
 15 16  1  0
 16 17  1  0
 17 18  1  0
 18 13  1  0
 13 19  1  0
 14 20  1  0
 14 21  1  0
 15 22  1  0
 15 23  1  0
 16 24  1  0
 16 25  1  0
 17 26  1  0
 17 27  1  0
 18 28  1  0
 18 29  1  0
  7 13  1  0
M  ISO  5   8  14   9  14  10  14  11   8  12   8
M  END
>  <DihAtoms>  (1) 
2,6,12,13

>  <DihDeg>  (1) 
-59.99933838426612

$$$$
