
     RDKit          3D

 29 30  0  0  0  0  0  0  0  0999 V2000
   44.3826   35.7801   44.4393 C   0  0  0  0  0  0  0  0  0  0  0  0
   44.6659   35.0658   43.2680 C   0  0  0  0  0  0  0  0  0  0  0  0
   45.2975   33.8158   43.3877 C   0  0  0  0  0  0  0  0  0  0  0  0
   45.5939   33.3772   44.6260 N   0  0  0  0  0  0  0  0  0  0  0  0
   45.3068   34.0929   45.7463 C   0  0  0  0  0  0  0  0  0  0  0  0
   44.6931   35.3115   45.6611 N   0  0  0  0  0  0  0  0  0  0  0  0
   44.2591   35.7228   42.0086 C   0  0  0  0  0  0  0  0  0  0  0  0
   43.9017   36.7492   44.4845 H   0  0  0  0  0  0  0  0  0  0  0  0
   45.4911   33.3132   42.4725 H   0  0  0  0  0  0  0  0  0  0  0  0
   44.5511   35.0595   41.1812 H   0  0  0  0  0  0  0  0  0  0  0  0
   43.1641   35.8881   42.0655 H   0  0  0  0  0  0  0  0  0  0  0  0
   44.8384   36.6692   41.9321 H   0  0  0  0  0  0  0  0  0  0  0  0
   45.6867   33.4932   47.0330 C   0  0  0  0  0  0  0  0  0  0  0  0
   46.7528   34.2046   47.7857 C   0  0  0  0  0  0  0  0  0  0  0  0
   47.8859   33.3203   48.2431 C   0  0  0  0  0  0  0  0  0  0  0  0
   47.4698   32.0074   48.8124 C   0  0  0  0  0  0  0  0  0  0  0  0
   46.2608   31.4108   48.1207 C   0  0  0  0  0  0  0  0  0  0  0  0
   46.1927   32.0744   46.7613 C   0  0  0  0  0  0  0  0  0  0  0  0
   44.7439   33.3694   47.6369 H   0  0  0  0  0  0  0  0  0  0  0  0
   46.2984   34.7460   48.6546 H   0  0  0  0  0  0  0  0  0  0  0  0
   47.2117   35.0063   47.1530 H   0  0  0  0  0  0  0  0  0  0  0  0
   48.3902   33.8722   49.0885 H   0  0  0  0  0  0  0  0  0  0  0  0
   48.6555   33.2484   47.4669 H   0  0  0  0  0  0  0  0  0  0  0  0
   47.3662   32.0166   49.9252 H   0  0  0  0  0  0  0  0  0  0  0  0
   48.3052   31.2881   48.6066 H   0  0  0  0  0  0  0  0  0  0  0  0
   45.3226   31.7303   48.6557 H   0  0  0  0  0  0  0  0  0  0  0  0
   46.3202   30.3184   48.0199 H   0  0  0  0  0  0  0  0  0  0  0  0
   47.2315   32.1612   46.3969 H   0  0  0  0  0  0  0  0  0  0  0  0
   45.5135   31.5613   46.0521 H   0  0  0  0  0  0  0  0  0  0  0  0
  1  6  2  0
  2  3  2  0
  2  1  1  0
  3  4  1  0
  4  5  2  0
  6  5  1  0
  7  2  1  0
  1  8  1  0
  3  9  1  0
  7 10  1  0
  7 11  1  0
  7 12  1  0
 13 14  1  0
 14 15  1  0
 15 16  1  0
 16 17  1  0
 17 18  1  0
 18 13  1  0
 13 19  1  0
 14 20  1  0
 14 21  1  0
 15 22  1  0
 15 23  1  0
 16 24  1  0
 16 25  1  0
 17 26  1  0
 17 27  1  0
 18 28  1  0
 18 29  1  0
  5 13  1  0
M  ISO  5   8  14   9  14  10   8  11   8  12   8
M  END
>  <DihAtoms>  (1) 
3,4,12,13

>  <DihDeg>  (1) 
53.586174692150145

$$$$
