
     RDKit          3D

 49 53  0  0  0  0  0  0  0  0999 V2000
   46.3924   32.6695   45.8736 C   0  0  1  0  0  0  0  0  0  0  0  0
   46.9766   32.8360   47.2107 C   0  0  0  0  0  0  0  0  0  0  0  0
   45.5466   32.2071   46.9566 C   0  0  2  0  0  0  0  0  0  0  0  0
   45.3008   30.8039   47.2997 C   0  0  0  0  0  0  0  0  0  0  0  0
   45.1675   30.2675   48.5438 C   0  0  0  0  0  0  0  0  0  0  0  0
   45.0594   28.9151   48.8390 C   0  0  0  0  0  0  0  0  0  0  0  0
   45.0930   28.0350   47.7451 C   0  0  0  0  0  0  0  0  0  0  0  0
   45.2255   28.5529   46.4606 C   0  0  0  0  0  0  0  0  0  0  0  0
   45.1966   27.6575   45.4070 C   0  0  0  0  0  0  0  0  0  0  0  0
   45.2600   28.1409   44.1100 C   0  0  0  0  0  0  0  0  0  0  0  0
   45.3478   29.4919   43.8612 C   0  0  0  0  0  0  0  0  0  0  0  0
   45.3753   30.3448   44.9410 C   0  0  0  0  0  0  0  0  0  0  0  0
   45.3240   29.9172   46.2516 C   0  0  0  0  0  0  0  0  0  0  0  0
   44.6237   35.7425   44.8411 C   0  0  0  0  0  0  0  0  0  0  0  0
   45.1309   35.9667   43.5141 C   0  0  0  0  0  0  0  0  0  0  0  0
   46.1033   35.0220   43.0246 C   0  0  0  0  0  0  0  0  0  0  0  0
   46.4742   34.0209   43.8006 N   0  0  0  0  0  0  0  0  0  0  0  0
   45.9572   33.8475   45.0700 C   0  0  0  0  0  0  0  0  0  0  0  0
   45.0600   34.6881   45.5656 N   0  0  0  0  0  0  0  0  0  0  0  0
   47.1489   32.0272   45.2951 H   0  0  0  0  0  0  0  0  0  0  0  0
   47.6504   32.1104   47.6976 H   0  0  0  0  0  0  0  0  0  0  0  0
   47.0100   33.8264   47.6945 H   0  0  0  0  0  0  0  0  0  0  0  0
   44.8988   32.8819   47.5855 H   0  0  0  0  0  0  0  0  0  0  0  0
   45.1472   30.9864   49.3575 H   0  0  0  0  0  0  0  0  0  0  0  0
   44.9550   28.5603   49.8562 H   0  0  0  0  0  0  0  0  0  0  0  0
   45.0156   26.9705   47.9190 H   0  0  0  0  0  0  0  0  0  0  0  0
   45.1244   26.5932   45.6331 H   0  0  0  0  0  0  0  0  0  0  0  0
   45.2319   27.3352   43.3575 H   0  0  0  0  0  0  0  0  0  0  0  0
   45.3826   29.6673   42.7991 H   0  0  0  0  0  0  0  0  0  0  0  0
   45.3575   31.3010   44.5035 H   0  0  0  0  0  0  0  0  0  0  0  0
   43.8907   36.4554   45.2073 H   0  0  0  0  0  0  0  0  0  0  0  0
   44.7928   36.7936   42.9393 H   0  0  0  0  0  0  0  0  0  0  0  0
   46.6424   35.2313   41.6519 C   0  0  0  0  0  0  0  0  0  0  0  0
   48.0567   34.7290   41.5930 C   0  0  0  0  0  0  0  0  0  0  0  0
   48.6145   34.5767   40.2277 C   0  0  0  0  0  0  0  0  0  0  0  0
   47.7069   33.8325   39.3008 C   0  0  0  0  0  0  0  0  0  0  0  0
   46.3750   34.5404   39.2802 C   0  0  0  0  0  0  0  0  0  0  0  0
   45.7477   34.5751   40.6287 C   0  0  0  0  0  0  0  0  0  0  0  0
   46.6337   36.3109   41.4409 H   0  0  0  0  0  0  0  0  0  0  0  0
   48.0346   33.7115   42.0570 H   0  0  0  0  0  0  0  0  0  0  0  0
   48.6941   35.3539   42.2236 H   0  0  0  0  0  0  0  0  0  0  0  0
   48.9326   35.5298   39.7829 H   0  0  0  0  0  0  0  0  0  0  0  0
   49.5462   33.9691   40.3115 H   0  0  0  0  0  0  0  0  0  0  0  0
   47.6033   32.7675   39.5477 H   0  0  0  0  0  0  0  0  0  0  0  0
   48.1696   33.9277   38.2788 H   0  0  0  0  0  0  0  0  0  0  0  0
   46.5250   35.5284   38.8217 H   0  0  0  0  0  0  0  0  0  0  0  0
   45.7271   33.9276   38.6036 H   0  0  0  0  0  0  0  0  0  0  0  0
   44.7969   35.1051   40.5789 H   0  0  0  0  0  0  0  0  0  0  0  0
   45.5973   33.5165   40.9448 H   0  0  0  0  0  0  0  0  0  0  0  0
  1  3  1  0
  1  2  1  0
  3  2  1  0
  3  4  1  0
  4  5  2  0
  5  6  1  0
  7  6  2  0
  8  7  1  0
  9  8  2  0
 10  9  1  0
 11 10  2  0
 11 12  1  0
 12 13  2  0
 13  8  1  0
 13  4  1  0
 14 19  2  0
 15 14  1  0
 16 15  2  0
 16 17  1  0
 17 18  2  0
 18 19  1  0
 18  1  1  0
  1 20  1  6
  2 21  1  0
  2 22  1  0
  3 23  1  1
  5 24  1  0
  6 25  1  0
  7 26  1  0
  9 27  1  0
 10 28  1  0
 11 29  1  0
 12 30  1  0
 14 31  1  0
 15 32  1  0
 33 34  1  0
 34 35  1  0
 35 36  1  0
 36 37  1  0
 37 38  1  0
 38 33  1  0
 33 39  1  0
 34 40  1  0
 34 41  1  0
 35 42  1  0
 35 43  1  0
 36 44  1  0
 36 45  1  0
 37 46  1  0
 37 47  1  0
 38 48  1  0
 38 49  1  0
 16 33  1  0
M  ISO  8  20  13  21  13  22  13  23  13  24  14  25  14  26  14  27  14
M  ISO  5  28  14  29  14  30  14  31  14  32  14
M  END
>  <DihAtoms>  (1) 
14,15,32,33

>  <DihDeg>  (1) 
-61.273661834396286

$$$$
