
 OpenBabel03252507413D

 22 23  0  0  0  0  0  0  0  0999 V2000
   46.5980   33.8240   40.8140 C   0  0  0  0  0  0  0  0  0  0  0  0
   46.5330   32.8270   41.2800 H   0  0  0  0  0  0  0  0  0  0  0  0
   45.5710   34.2570   40.8360 H   0  0  0  0  0  0  0  0  0  0  0  0
   47.0200   33.7460   39.4040 C   0  0  0  0  0  0  0  0  0  0  0  0
   46.2130   32.9830   38.5570 C   0  0  0  0  0  0  0  0  0  0  0  0
   46.5580   32.8760   37.2290 C   0  0  0  0  0  0  0  0  0  0  0  0
   47.6940   33.5240   36.7660 N   0  0  0  0  0  0  0  0  0  0  0  0
   48.4350   34.2440   37.6200 C   0  0  0  0  0  0  0  0  0  0  0  0
   48.1260   34.3670   38.9160 N   0  0  0  0  0  0  0  0  0  0  0  0
   45.9570   32.2910   36.5310 H   0  0  0  0  0  0  0  0  0  0  0  0
   49.3290   34.7620   37.2850 H   0  0  0  0  0  0  0  0  0  0  0  0
   44.7580   32.1620   39.1840 S   0  0  0  0  0  0  0  0  0  0  0  0
   44.2400   31.3320   38.1940 H   0  0  0  0  0  0  0  0  0  0  0  0
   47.4740   34.7300   41.6410 C   0  0  0  0  0  0  0  0  0  0  0  0
   48.4230   34.2070   41.8800 H   0  0  0  0  0  0  0  0  0  0  0  0
   47.7120   35.6580   41.1210 H   0  0  0  0  0  0  0  0  0  0  0  0
   46.7900   35.0580   42.9460 C   0  0  0  0  0  0  0  0  0  0  0  0
   46.7620   33.8790   43.8840 C   0  0  0  0  0  0  0  0  0  0  0  0
   45.4670   33.7730   44.6400 C   0  0  0  0  0  0  0  0  0  0  0  0
   44.8540   35.1050   44.9940 C   0  0  0  0  0  0  0  0  0  0  0  0
   44.8050   36.0830   43.8680 C   0  0  0  0  0  0  0  0  0  0  0  0
   45.3550   35.4180   42.6250 C   0  0  0  0  0  0  0  0  0  0  0  0
  1  3  1  0  0  0  0
  1  2  1  0  0  0  0
  1 14  1  0  0  0  0
  4  1  1  0  0  0  0
  5 12  1  0  0  0  0
  5  4  2  0  0  0  0
  6  5  1  0  0  0  0
  7  6  2  0  0  0  0
  7  8  1  0  0  0  0
  8  9  2  0  0  0  0
  9  4  1  0  0  0  0
 10  6  1  0  0  0  0
 11  8  1  0  0  0  0
 13 12  1  0  0  0  0
 14 15  1  0  0  0  0
 14 17  1  0  0  0  0
 16 14  1  0  0  0  0
 17 18  1  0  0  0  0
 18 19  1  0  0  0  0
 19 20  1  0  0  0  0
 21 20  1  0  0  0  0
 22 17  1  0  0  0  0
 22 21  1  0  0  0  0
M  END
>  <minimizedAffinity>
-4.28270435

>  <minimizedRMSD>
6.527174

$$$$
