
 OpenBabel03252509163D

 22 24  0  0  0  0  0  0  0  0999 V2000
   45.9020   33.1180   46.1540 C   0  0  0  0  0  0  0  0  0  0  0  0
   45.3430   32.9310   47.4430 C   0  0  0  0  0  0  0  0  0  0  0  0
   45.7740   31.8790   48.1760 C   0  0  0  0  0  0  0  0  0  0  0  0
   46.7570   31.0030   47.6460 C   0  0  0  0  0  0  0  0  0  0  0  0
   47.0800   31.7320   46.0060 S   0  0  0  0  0  0  0  0  0  0  0  0
   44.5960   33.6060   47.8320 H   0  0  0  0  0  0  0  0  0  0  0  0
   45.4720   31.5920   49.1400 H   0  0  0  0  0  0  0  0  0  0  0  0
   44.4570   36.1390   44.5400 C   0  0  0  0  0  0  0  0  0  0  0  0
   45.1010   36.0700   43.2870 C   0  0  0  0  0  0  0  0  0  0  0  0
   45.9910   35.0040   43.0550 C   0  0  0  0  0  0  0  0  0  0  0  0
   46.1840   34.0920   44.0580 N   0  0  0  0  0  0  0  0  0  0  0  0
   45.5360   34.2070   45.2470 C   0  0  0  0  0  0  0  0  0  0  0  0
   44.6760   35.2250   45.4900 N   0  0  0  0  0  0  0  0  0  0  0  0
   43.7710   36.9380   44.7530 H   0  0  0  0  0  0  0  0  0  0  0  0
   44.9290   36.8050   42.5180 H   0  0  0  0  0  0  0  0  0  0  0  0
   46.5190   34.8900   42.1190 H   0  0  0  0  0  0  0  0  0  0  0  0
   47.4420   29.8370   48.0830 C   0  0  0  0  0  3  0  0  0  0  0  0
   46.9690   28.5890   47.3850 C   0  0  0  0  0  2  0  0  0  0  0  0
   48.0500   27.6120   47.0430 C   0  0  0  0  0  2  0  0  0  0  0  0
   49.0710   27.4360   48.1310 C   0  0  0  0  0  2  0  0  0  0  0  0
   49.5060   28.7430   48.7430 C   0  0  0  0  0  2  0  0  0  0  0  0
   48.9640   29.9030   47.9090 C   0  0  0  0  0  2  0  0  0  0  0  0
  1  2  2  0  0  0  0
  2  6  1  0  0  0  0
  2  3  1  0  0  0  0
  3  7  1  0  0  0  0
  4 17  1  0  0  0  0
  4  3  2  0  0  0  0
  5  1  1  0  0  0  0
  5  4  1  0  0  0  0
  8 14  1  0  0  0  0
  8 13  1  0  0  0  0
  9  8  2  0  0  0  0
 10  9  1  0  0  0  0
 10 11  2  0  0  0  0
 11 12  1  0  0  0  0
 12 13  2  0  0  0  0
 12  1  1  0  0  0  0
 15  9  1  0  0  0  0
 16 10  1  0  0  0  0
 18 17  1  0  0  0  0
 19 18  1  0  0  0  0
 19 20  1  0  0  0  0
 20 21  1  0  0  0  0
 22 17  1  0  0  0  0
 22 21  1  0  0  0  0
M  END
>  <minimizedAffinity>
-4.64745712

>  <minimizedRMSD>
0.903233171

$$$$
