REMARK  Name = 
REMARK  3 active torsions:
REMARK  status: ('A' for Active; 'I' for Inactive)
REMARK    1  A    between atoms: C_2  and  N_10
REMARK    2  A    between atoms: C_3  and  C_7
REMARK    3  A    between atoms: C_9  and  C_19
REMARK                            x       y       z     vdW  Elec       q    Type
REMARK                         _______ _______ _______ _____ _____    ______ ____
ROOT
ATOM      1  C   UNL     1      46.541  34.975  41.933  0.00  0.00    +0.000 C 
ATOM      2  C   UNL     1      48.061  35.278  41.934  0.00  0.00    +0.000 C 
ATOM      3  C   UNL     1      47.389  33.972  41.399  0.00  0.00    +0.000 C 
ATOM      4  H   UNL     1      45.950  35.697  41.345  0.00  0.00    +0.000 HD
ATOM      5  H   UNL     1      48.622  35.223  42.864  0.00  0.00    +0.000 HD
ATOM      6  H   UNL     1      48.349  36.011  41.184  0.00  0.00    +0.000 HD
ATOM      7  H   UNL     1      47.628  33.093  42.068  0.00  0.00    +0.000 HD
ENDROOT
BRANCH   1  10
ATOM      8  C   UNL     1      44.630  35.456  45.130  0.00  0.00    +0.000 A 
ATOM      9  C   UNL     1      45.098  35.714  43.804  0.00  0.00    +0.000 A 
ATOM     10  C   UNL     1      46.041  34.827  43.361  0.00  0.00    +0.000 A 
ATOM     11  N   UNL     1      46.488  33.781  44.147  0.00  0.00    +0.000 NA
ATOM     12  C   UNL     1      46.013  33.589  45.383  0.00  0.00    +0.000 A 
ATOM     13  N   UNL     1      45.072  34.438  45.880  0.00  0.00    +0.000 NA
ATOM     14  H   UNL     1      43.883  36.129  45.526  0.00  0.00    +0.000 HD
ATOM     15  H   UNL     1      46.472  32.729  45.850  0.00  0.00    +0.000 HD
BRANCH   9  16
ATOM     16  N   UNL     1      44.649  36.812  43.019  0.00  0.00    +0.000 N 
ATOM     17  H   UNL     1      45.114  37.735  42.845  0.00  0.00    +0.000 HD
ATOM     18  H   UNL     1      43.709  36.533  42.609  0.00  0.00    +0.000 HD
ENDBRANCH   9  16
ENDBRANCH   1  10
BRANCH   3  19
ATOM     19  C   UNL     1      47.541  33.684  39.936  0.00  0.00    +0.000 C 
ATOM     20  C   UNL     1      46.209  33.637  39.218  0.00  0.00    +0.000 C 
ATOM     21  C   UNL     1      46.332  33.168  37.806  0.00  0.00    +0.000 C 
ATOM     22  C   UNL     1      47.712  33.356  37.237  0.00  0.00    +0.000 C 
ATOM     23  C   UNL     1      48.276  34.657  37.756  0.00  0.00    +0.000 C 
ATOM     24  C   UNL     1      48.404  34.701  39.258  0.00  0.00    +0.000 C 
ENDBRANCH   3  19
TORSDOF 3
