
 OpenBabel03242518183D

 20 21  0  0  0  0  0  0  0  0999 V2000
   37.7020   30.4800   41.5920 C   0  0  0  0  0  0  0  0  0  0  0  0
   36.5980   30.9530   40.8310 C   0  0  0  0  0  0  0  0  0  0  0  0
   35.5870   30.0650   40.5580 C   0  0  0  0  0  0  0  0  0  0  0  0
   35.6870   28.8130   41.0170 N   0  0  0  0  0  0  0  0  0  0  0  0
   36.7350   28.3800   41.7340 C   0  0  0  0  0  0  0  0  0  0  0  0
   37.7590   29.2040   42.0350 N   0  0  0  0  0  0  0  0  0  0  0  0
   38.5400   31.1180   41.8500 H   0  0  0  0  0  0  0  0  0  0  0  0
   34.7760   30.4730   39.9800 H   0  0  0  0  0  0  0  0  0  0  0  0
   36.7120   32.3090   40.4570 N   0  0  0  0  0  0  0  0  0  0  0  0
   37.6180   32.6040   40.0020 H   0  0  0  0  0  0  0  0  0  0  0  0
   35.8890   32.9170   40.6620 H   0  0  0  0  0  0  0  0  0  0  0  0
   36.8500   26.9900   42.2450 C   0  0  0  0  0  0  0  0  0  0  0  0
   35.8440   26.5140   42.1400 H   0  0  0  0  0  0  0  0  0  0  0  0
   37.1680   26.9790   43.2890 H   0  0  0  0  0  0  0  0  0  0  0  0
   37.8300   26.1800   41.4140 C   0  0  0  0  0  3  0  0  0  0  0  0
   38.5150   25.1470   42.2850 C   0  0  0  0  0  2  0  0  0  0  0  0
   38.9120   23.9290   41.4750 C   0  0  0  0  0  2  0  0  0  0  0  0
   37.7010   23.1870   40.9720 C   0  0  0  0  0  2  0  0  0  0  0  0
   36.5340   24.1680   40.9540 C   0  0  0  0  0  2  0  0  0  0  0  0
   37.0420   25.4580   40.3450 C   0  0  0  0  0  2  0  0  0  0  0  0
  1  7  1  0  0  0  0
  1  6  1  0  0  0  0
  2  1  2  0  0  0  0
  3  2  1  0  0  0  0
  3  4  2  0  0  0  0
  4  5  1  0  0  0  0
  5  6  2  0  0  0  0
  5 12  1  0  0  0  0
  8  3  1  0  0  0  0
  9 11  1  0  0  0  0
  9  2  1  0  0  0  0
 10  9  1  0  0  0  0
 12 14  1  0  0  0  0
 13 12  1  0  0  0  0
 15 12  1  0  0  0  0
 15 16  1  0  0  0  0
 17 16  1  0  0  0  0
 18 17  1  0  0  0  0
 19 18  1  0  0  0  0
 20 19  1  0  0  0  0
 20 15  1  0  0  0  0
M  END
>  <minimizedAffinity>
-4.65932178

$$$$

 OpenBabel03242518183D

 20 21  0  0  0  0  0  0  0  0999 V2000
   36.3480   30.7880   41.0350 C   0  0  0  0  0  0  0  0  0  0  0  0
   37.3780   31.7030   40.6850 C   0  0  0  0  0  0  0  0  0  0  0  0
   38.6320   31.4770   41.1990 C   0  0  0  0  0  0  0  0  0  0  0  0
   38.8220   30.4190   41.9930 N   0  0  0  0  0  0  0  0  0  0  0  0
   37.8400   29.5630   42.3160 C   0  0  0  0  0  0  0  0  0  0  0  0
   36.5880   29.7310   41.8430 N   0  0  0  0  0  0  0  0  0  0  0  0
   35.3330   30.8960   40.6710 H   0  0  0  0  0  0  0  0  0  0  0  0
   39.3740   32.1980   40.9030 H   0  0  0  0  0  0  0  0  0  0  0  0
   36.9430   32.7420   39.8350 N   0  0  0  0  0  0  0  0  0  0  0  0
   36.0760   33.2680   40.1290 H   0  0  0  0  0  0  0  0  0  0  0  0
   37.5130   32.9080   38.9760 H   0  0  0  0  0  0  0  0  0  0  0  0
   38.0470   28.3860   43.1980 C   0  0  0  0  0  0  0  0  0  0  0  0
   37.0750   27.8380   43.2530 H   0  0  0  0  0  0  0  0  0  0  0  0
   38.3660   28.6930   44.1960 H   0  0  0  0  0  0  0  0  0  0  0  0
   39.0780   27.4360   42.6130 C   0  0  0  0  0  3  0  0  0  0  0  0
   39.5620   26.4780   43.6800 C   0  0  0  0  0  2  0  0  0  0  0  0
   39.9870   25.1560   43.0730 C   0  0  0  0  0  2  0  0  0  0  0  0
   38.8120   24.4230   42.4780 C   0  0  0  0  0  2  0  0  0  0  0  0
   37.7280   25.4540   42.1840 C   0  0  0  0  0  2  0  0  0  0  0  0
   38.4020   26.6380   41.5220 C   0  0  0  0  0  2  0  0  0  0  0  0
  1  6  1  0  0  0  0
  2  1  2  0  0  0  0
  2  3  1  0  0  0  0
  3  4  2  0  0  0  0
  4  5  1  0  0  0  0
  5 12  1  0  0  0  0
  6  5  2  0  0  0  0
  7  1  1  0  0  0  0
  8  3  1  0  0  0  0
  9 10  1  0  0  0  0
  9  2  1  0  0  0  0
 11  9  1  0  0  0  0
 12 13  1  0  0  0  0
 12 14  1  0  0  0  0
 15 12  1  0  0  0  0
 15 16  1  0  0  0  0
 17 16  1  0  0  0  0
 18 17  1  0  0  0  0
 19 18  1  0  0  0  0
 20 19  1  0  0  0  0
 20 15  1  0  0  0  0
M  END
>  <minimizedAffinity>
-4.63880253

$$$$

 OpenBabel03242518183D

 20 21  0  0  0  0  0  0  0  0999 V2000
   39.6890   31.7080   38.9720 C   0  0  0  0  0  0  0  0  0  0  0  0
   38.9150   31.8010   37.7830 C   0  0  0  0  0  0  0  0  0  0  0  0
   37.5980   31.4190   37.8510 C   0  0  0  0  0  0  0  0  0  0  0  0
   37.1120   30.9850   39.0180 N   0  0  0  0  0  0  0  0  0  0  0  0
   37.8540   30.9020   40.1320 C   0  0  0  0  0  0  0  0  0  0  0  0
   39.1540   31.2620   40.1300 N   0  0  0  0  0  0  0  0  0  0  0  0
   40.7360   31.9890   39.0020 H   0  0  0  0  0  0  0  0  0  0  0  0
   37.0570   31.5090   36.9250 H   0  0  0  0  0  0  0  0  0  0  0  0
   39.6410   32.2860   36.6750 N   0  0  0  0  0  0  0  0  0  0  0  0
   40.5660   31.8200   36.4690 H   0  0  0  0  0  0  0  0  0  0  0  0
   39.2070   33.0730   36.1440 H   0  0  0  0  0  0  0  0  0  0  0  0
   37.3170   30.4200   41.4310 C   0  0  0  0  0  0  0  0  0  0  0  0
   36.2860   30.0340   41.2410 H   0  0  0  0  0  0  0  0  0  0  0  0
   37.2920   31.2230   42.1700 H   0  0  0  0  0  0  0  0  0  0  0  0
   38.1460   29.2670   41.9730 C   0  0  0  0  0  3  0  0  0  0  0  0
   37.6950   28.9210   43.3760 C   0  0  0  0  0  2  0  0  0  0  0  0
   37.9310   27.4550   43.6780 C   0  0  0  0  0  2  0  0  0  0  0  0
   37.0590   26.5720   42.8220 C   0  0  0  0  0  2  0  0  0  0  0  0
   36.6590   27.3750   41.5900 C   0  0  0  0  0  2  0  0  0  0  0  0
   37.9070   28.0690   41.0830 C   0  0  0  0  0  2  0  0  0  0  0  0
  1  7  1  0  0  0  0
  1  6  1  0  0  0  0
  2  3  1  0  0  0  0
  2  1  2  0  0  0  0
  3  4  2  0  0  0  0
  4  5  1  0  0  0  0
  5 12  1  0  0  0  0
  6  5  2  0  0  0  0
  8  3  1  0  0  0  0
  9  2  1  0  0  0  0
 10  9  1  0  0  0  0
 11  9  1  0  0  0  0
 12 15  1  0  0  0  0
 12 14  1  0  0  0  0
 13 12  1  0  0  0  0
 15 16  1  0  0  0  0
 16 17  1  0  0  0  0
 18 17  1  0  0  0  0
 19 18  1  0  0  0  0
 20 19  1  0  0  0  0
 20 15  1  0  0  0  0
M  END
>  <minimizedAffinity>
-4.58236217

$$$$

 OpenBabel03242518183D

 20 21  0  0  0  0  0  0  0  0999 V2000
   40.6460   25.0070   43.1380 C   0  0  0  0  0  0  0  0  0  0  0  0
   41.9070   25.6110   43.3940 C   0  0  0  0  0  0  0  0  0  0  0  0
   41.9270   26.9640   43.6340 C   0  0  0  0  0  0  0  0  0  0  0  0
   40.7730   27.6380   43.6170 N   0  0  0  0  0  0  0  0  0  0  0  0
   39.5900   27.0550   43.3720 C   0  0  0  0  0  0  0  0  0  0  0  0
   39.5050   25.7310   43.1300 N   0  0  0  0  0  0  0  0  0  0  0  0
   40.5460   23.9460   42.9390 H   0  0  0  0  0  0  0  0  0  0  0  0
   42.9050   27.3710   43.8240 H   0  0  0  0  0  0  0  0  0  0  0  0
   42.9850   24.7020   43.3620 N   0  0  0  0  0  0  0  0  0  0  0  0
   43.0520   24.0710   42.5180 H   0  0  0  0  0  0  0  0  0  0  0  0
   43.6340   24.7210   44.1790 H   0  0  0  0  0  0  0  0  0  0  0  0
   38.3060   27.8010   43.3520 C   0  0  0  0  0  0  0  0  0  0  0  0
   38.5270   28.8510   43.6650 H   0  0  0  0  0  0  0  0  0  0  0  0
   37.5760   27.3500   44.0260 H   0  0  0  0  0  0  0  0  0  0  0  0
   37.7250   27.8540   41.9490 C   0  0  0  0  0  3  0  0  0  0  0  0
   36.2200   28.0040   42.0180 C   0  0  0  0  0  2  0  0  0  0  0  0
   35.6890   28.7410   40.8050 C   0  0  0  0  0  2  0  0  0  0  0  0
   36.1640   30.1710   40.7810 C   0  0  0  0  0  2  0  0  0  0  0  0
   37.4260   30.2520   41.6340 C   0  0  0  0  0  2  0  0  0  0  0  0
   38.2970   29.0700   41.2580 C   0  0  0  0  0  2  0  0  0  0  0  0
  1  2  1  0  0  0  0
  2  3  2  0  0  0  0
  3  8  1  0  0  0  0
  4  3  1  0  0  0  0
  5  4  2  0  0  0  0
  6  1  2  0  0  0  0
  6  5  1  0  0  0  0
  7  1  1  0  0  0  0
  9  2  1  0  0  0  0
  9 11  1  0  0  0  0
 10  9  1  0  0  0  0
 12  5  1  0  0  0  0
 12 13  1  0  0  0  0
 12 14  1  0  0  0  0
 15 16  1  0  0  0  0
 15 12  1  0  0  0  0
 17 16  1  0  0  0  0
 18 17  1  0  0  0  0
 18 19  1  0  0  0  0
 20 19  1  0  0  0  0
 20 15  1  0  0  0  0
M  END
>  <minimizedAffinity>
-4.50302839

$$$$

 OpenBabel03242518183D

 20 21  0  0  0  0  0  0  0  0999 V2000
   39.6810   26.2340   43.5830 C   0  0  0  0  0  0  0  0  0  0  0  0
   39.0900   25.1150   42.9360 C   0  0  0  0  0  0  0  0  0  0  0  0
   37.9390   25.3300   42.2190 C   0  0  0  0  0  0  0  0  0  0  0  0
   37.4360   26.5670   42.1630 N   0  0  0  0  0  0  0  0  0  0  0  0
   38.0040   27.6140   42.7790 C   0  0  0  0  0  0  0  0  0  0  0  0
   39.1360   27.4670   43.4990 N   0  0  0  0  0  0  0  0  0  0  0  0
   40.5900   26.1480   44.1690 H   0  0  0  0  0  0  0  0  0  0  0  0
   37.5330   24.4510   41.7480 H   0  0  0  0  0  0  0  0  0  0  0  0
   39.7980   23.9100   43.1350 N   0  0  0  0  0  0  0  0  0  0  0  0
   40.0470   23.6620   44.1310 H   0  0  0  0  0  0  0  0  0  0  0  0
   40.0240   23.3570   42.2790 H   0  0  0  0  0  0  0  0  0  0  0  0
   37.4480   28.9910   42.7200 C   0  0  0  0  0  0  0  0  0  0  0  0
   38.1750   29.6650   43.2350 H   0  0  0  0  0  0  0  0  0  0  0  0
   36.4720   29.0430   43.2060 H   0  0  0  0  0  0  0  0  0  0  0  0
   37.3180   29.4680   41.2840 C   0  0  0  0  0  3  0  0  0  0  0  0
   36.3850   30.6580   41.2170 C   0  0  0  0  0  2  0  0  0  0  0  0
   36.7450   31.5690   40.0600 C   0  0  0  0  0  2  0  0  0  0  0  0
   38.0900   32.2140   40.2700 C   0  0  0  0  0  2  0  0  0  0  0  0
   38.8700   31.3460   41.2510 C   0  0  0  0  0  2  0  0  0  0  0  0
   38.6880   29.9060   40.8170 C   0  0  0  0  0  2  0  0  0  0  0  0
  1  7  1  0  0  0  0
  2  9  1  0  0  0  0
  2  1  2  0  0  0  0
  3  2  1  0  0  0  0
  4  3  2  0  0  0  0
  4  5  1  0  0  0  0
  5  6  2  0  0  0  0
  6  1  1  0  0  0  0
  8  3  1  0  0  0  0
  9 10  1  0  0  0  0
 11  9  1  0  0  0  0
 12  5  1  0  0  0  0
 12 14  1  0  0  0  0
 12 13  1  0  0  0  0
 15 12  1  0  0  0  0
 16 15  1  0  0  0  0
 17 18  1  0  0  0  0
 17 16  1  0  0  0  0
 18 19  1  0  0  0  0
 20 19  1  0  0  0  0
 20 15  1  0  0  0  0
M  END
>  <minimizedAffinity>
-4.28067732

$$$$

 OpenBabel03242518183D

 20 21  0  0  0  0  0  0  0  0999 V2000
   39.3130   26.0020   43.0000 C   0  0  0  0  0  0  0  0  0  0  0  0
   38.9550   24.6520   42.7300 C   0  0  0  0  0  0  0  0  0  0  0  0
   37.7030   24.4170   42.2160 C   0  0  0  0  0  0  0  0  0  0  0  0
   36.8920   25.4560   41.9950 N   0  0  0  0  0  0  0  0  0  0  0  0
   37.2430   26.7250   42.2550 C   0  0  0  0  0  0  0  0  0  0  0  0
   38.4580   27.0200   42.7600 N   0  0  0  0  0  0  0  0  0  0  0  0
   40.2810   26.2700   43.4060 H   0  0  0  0  0  0  0  0  0  0  0  0
   37.4820   23.3810   42.0290 H   0  0  0  0  0  0  0  0  0  0  0  0
   39.9720   23.7260   43.0420 N   0  0  0  0  0  0  0  0  0  0  0  0
   40.4070   23.8000   44.0020 H   0  0  0  0  0  0  0  0  0  0  0  0
   40.2190   23.0390   42.2970 H   0  0  0  0  0  0  0  0  0  0  0  0
   36.3440   27.8820   42.0110 C   0  0  0  0  0  0  0  0  0  0  0  0
   36.4500   28.5740   42.8820 H   0  0  0  0  0  0  0  0  0  0  0  0
   35.3060   27.5600   41.9070 H   0  0  0  0  0  0  0  0  0  0  0  0
   36.7580   28.6460   40.7650 C   0  0  0  0  0  3  0  0  0  0  0  0
   36.7070   27.7330   39.5580 C   0  0  0  0  0  2  0  0  0  0  0  0
   36.4110   28.5160   38.2950 C   0  0  0  0  0  2  0  0  0  0  0  0
   35.0230   29.1010   38.3260 C   0  0  0  0  0  2  0  0  0  0  0  0
   34.5960   29.1960   39.7870 C   0  0  0  0  0  2  0  0  0  0  0  0
   35.7660   29.7680   40.5600 C   0  0  0  0  0  2  0  0  0  0  0  0
  1  7  1  0  0  0  0
  2  1  2  0  0  0  0
  2  9  1  0  0  0  0
  3  2  1  0  0  0  0
  4  3  2  0  0  0  0
  4  5  1  0  0  0  0
  5  6  2  0  0  0  0
  6  1  1  0  0  0  0
  8  3  1  0  0  0  0
  9 10  1  0  0  0  0
 11  9  1  0  0  0  0
 12  5  1  0  0  0  0
 12 13  1  0  0  0  0
 14 12  1  0  0  0  0
 15 12  1  0  0  0  0
 16 15  1  0  0  0  0
 17 18  1  0  0  0  0
 17 16  1  0  0  0  0
 18 19  1  0  0  0  0
 19 20  1  0  0  0  0
 20 15  1  0  0  0  0
M  END
>  <minimizedAffinity>
-4.23611546

$$$$

 OpenBabel03242518183D

 20 21  0  0  0  0  0  0  0  0999 V2000
   37.9150   31.0880   40.9840 C   0  0  0  0  0  0  0  0  0  0  0  0
   39.1050   31.3250   41.7250 C   0  0  0  0  0  0  0  0  0  0  0  0
   39.4850   30.3730   42.6400 C   0  0  0  0  0  0  0  0  0  0  0  0
   38.7270   29.2820   42.7870 N   0  0  0  0  0  0  0  0  0  0  0  0
   37.6060   29.0720   42.0810 C   0  0  0  0  0  0  0  0  0  0  0  0
   37.1800   29.9690   41.1680 N   0  0  0  0  0  0  0  0  0  0  0  0
   37.5470   31.7900   40.2450 H   0  0  0  0  0  0  0  0  0  0  0  0
   40.3920   30.6000   43.1720 H   0  0  0  0  0  0  0  0  0  0  0  0
   39.7380   32.5430   41.3990 N   0  0  0  0  0  0  0  0  0  0  0  0
   39.1340   33.4100   41.3990 H   0  0  0  0  0  0  0  0  0  0  0  0
   40.7570   32.4930   41.1810 H   0  0  0  0  0  0  0  0  0  0  0  0
   36.7610   27.8600   42.2420 C   0  0  0  0  0  0  0  0  0  0  0  0
   35.9520   27.9150   41.4720 H   0  0  0  0  0  0  0  0  0  0  0  0
   36.3280   27.8110   43.2440 H   0  0  0  0  0  0  0  0  0  0  0  0
   37.5600   26.5950   41.9790 C   0  0  0  0  0  3  0  0  0  0  0  0
   36.7570   25.3810   42.3940 C   0  0  0  0  0  2  0  0  0  0  0  0
   37.1310   24.1700   41.5640 C   0  0  0  0  0  2  0  0  0  0  0  0
   36.7350   24.3520   40.1210 C   0  0  0  0  0  2  0  0  0  0  0  0
   36.6110   25.8490   39.8620 C   0  0  0  0  0  2  0  0  0  0  0  0
   37.8180   26.5140   40.4930 C   0  0  0  0  0  2  0  0  0  0  0  0
  1  6  2  0  0  0  0
  1  2  1  0  0  0  0
  2  3  2  0  0  0  0
  3  4  1  0  0  0  0
  3  8  1  0  0  0  0
  5 12  1  0  0  0  0
  5  4  2  0  0  0  0
  6  5  1  0  0  0  0
  7  1  1  0  0  0  0
  9 10  1  0  0  0  0
  9  2  1  0  0  0  0
 11  9  1  0  0  0  0
 12 14  1  0  0  0  0
 13 12  1  0  0  0  0
 15 12  1  0  0  0  0
 15 16  1  0  0  0  0
 17 16  1  0  0  0  0
 18 17  1  0  0  0  0
 19 18  1  0  0  0  0
 19 20  1  0  0  0  0
 20 15  1  0  0  0  0
M  END
>  <minimizedAffinity>
-4.18357944

$$$$

 OpenBabel03242518183D

 20 21  0  0  0  0  0  0  0  0999 V2000
   39.4320   30.8250   37.8930 C   0  0  0  0  0  0  0  0  0  0  0  0
   38.2450   31.4520   37.4250 C   0  0  0  0  0  0  0  0  0  0  0  0
   37.0780   31.1870   38.1000 C   0  0  0  0  0  0  0  0  0  0  0  0
   37.1150   30.3630   39.1510 N   0  0  0  0  0  0  0  0  0  0  0  0
   38.2430   29.7780   39.5810 C   0  0  0  0  0  0  0  0  0  0  0  0
   39.4200   29.9980   38.9610 N   0  0  0  0  0  0  0  0  0  0  0  0
   40.3930   30.9820   37.4150 H   0  0  0  0  0  0  0  0  0  0  0  0
   36.2100   31.6870   37.7070 H   0  0  0  0  0  0  0  0  0  0  0  0
   38.4500   32.2790   36.3010 N   0  0  0  0  0  0  0  0  0  0  0  0
   38.9800   31.8590   35.4890 H   0  0  0  0  0  0  0  0  0  0  0  0
   38.0620   33.2470   36.3590 H   0  0  0  0  0  0  0  0  0  0  0  0
   38.2870   28.8610   40.7490 C   0  0  0  0  0  0  0  0  0  0  0  0
   38.1480   29.4850   41.6660 H   0  0  0  0  0  0  0  0  0  0  0  0
   39.2380   28.3260   40.7960 H   0  0  0  0  0  0  0  0  0  0  0  0
   37.1490   27.8550   40.7010 C   0  0  0  0  0  3  0  0  0  0  0  0
   37.6360   26.5520   40.1040 C   0  0  0  0  0  2  0  0  0  0  0  0
   36.8510   25.3760   40.6500 C   0  0  0  0  0  2  0  0  0  0  0  0
   37.1070   25.1820   42.1220 C   0  0  0  0  0  2  0  0  0  0  0  0
   37.6010   26.5110   42.6830 C   0  0  0  0  0  2  0  0  0  0  0  0
   36.7030   27.5950   42.1220 C   0  0  0  0  0  2  0  0  0  0  0  0
  1  6  1  0  0  0  0
  2  1  2  0  0  0  0
  2  3  1  0  0  0  0
  3  4  2  0  0  0  0
  4  5  1  0  0  0  0
  5 12  1  0  0  0  0
  6  5  2  0  0  0  0
  7  1  1  0  0  0  0
  8  3  1  0  0  0  0
  9 11  1  0  0  0  0
  9  2  1  0  0  0  0
 10  9  1  0  0  0  0
 12 14  1  0  0  0  0
 12 13  1  0  0  0  0
 15 12  1  0  0  0  0
 15 20  1  0  0  0  0
 16 17  1  0  0  0  0
 16 15  1  0  0  0  0
 17 18  1  0  0  0  0
 18 19  1  0  0  0  0
 20 19  1  0  0  0  0
M  END
>  <minimizedAffinity>
-4.15257502

$$$$

 OpenBabel03242518183D

 20 21  0  0  0  0  0  0  0  0999 V2000
   38.5680   31.5180   37.8110 C   0  0  0  0  0  0  0  0  0  0  0  0
   39.9880   31.5800   37.7700 C   0  0  0  0  0  0  0  0  0  0  0  0
   40.6870   30.6080   38.4440 C   0  0  0  0  0  0  0  0  0  0  0  0
   40.0060   29.6610   39.0980 N   0  0  0  0  0  0  0  0  0  0  0  0
   38.6650   29.6160   39.1280 C   0  0  0  0  0  0  0  0  0  0  0  0
   37.9230   30.5410   38.4860 N   0  0  0  0  0  0  0  0  0  0  0  0
   37.9450   32.2480   37.3060 H   0  0  0  0  0  0  0  0  0  0  0  0
   41.7570   30.6990   38.3810 H   0  0  0  0  0  0  0  0  0  0  0  0
   40.4830   32.6670   37.0190 N   0  0  0  0  0  0  0  0  0  0  0  0
   40.0870   33.6200   37.2400 H   0  0  0  0  0  0  0  0  0  0  0  0
   41.2050   32.4420   36.2980 H   0  0  0  0  0  0  0  0  0  0  0  0
   37.9050   28.5650   39.8540 C   0  0  0  0  0  0  0  0  0  0  0  0
   38.0360   27.6110   39.2880 H   0  0  0  0  0  0  0  0  0  0  0  0
   36.8460   28.8220   39.9240 H   0  0  0  0  0  0  0  0  0  0  0  0
   38.4620   28.3510   41.2510 C   0  0  0  0  0  3  0  0  0  0  0  0
   37.8120   29.3150   42.2200 C   0  0  0  0  0  2  0  0  0  0  0  0
   37.7610   28.7310   43.6180 C   0  0  0  0  0  2  0  0  0  0  0  0
   36.8480   27.5340   43.6780 C   0  0  0  0  0  2  0  0  0  0  0  0
   36.7250   26.9770   42.2650 C   0  0  0  0  0  2  0  0  0  0  0  0
   38.1190   26.9410   41.6730 C   0  0  0  0  0  2  0  0  0  0  0  0
  1  6  1  0  0  0  0
  2  1  2  0  0  0  0
  2  3  1  0  0  0  0
  3  4  2  0  0  0  0
  4  5  1  0  0  0  0
  5 12  1  0  0  0  0
  6  5  2  0  0  0  0
  7  1  1  0  0  0  0
  8  3  1  0  0  0  0
  9 10  1  0  0  0  0
  9  2  1  0  0  0  0
 11  9  1  0  0  0  0
 12 14  1  0  0  0  0
 12 15  1  0  0  0  0
 13 12  1  0  0  0  0
 15 20  1  0  0  0  0
 15 16  1  0  0  0  0
 16 17  1  0  0  0  0
 17 18  1  0  0  0  0
 19 18  1  0  0  0  0
 20 19  1  0  0  0  0
M  END
>  <minimizedAffinity>
-4.13646364

$$$$
