
 OpenBabel03242522193D

 41 44  0  0  0  0  0  0  0  0999 V2000
   37.6850   31.5170   40.6890 C   0  0  0  0  0  0  0  0  0  0  0  0
   38.2980   31.9740   41.5090 H   0  0  0  0  0  0  0  0  0  0  0  0
   36.6520   31.9350   40.8670 H   0  0  0  0  0  0  0  0  0  0  0  0
   37.6090   30.0870   40.8230 C   0  0  0  0  0  0  0  0  0  0  0  0
   37.6630   29.1110   39.8720 C   0  0  0  0  0  0  0  0  0  0  0  0
   37.5960   27.7410   40.1080 C   0  0  0  0  0  0  0  0  0  0  0  0
   37.4640   27.3590   41.4200 C   0  0  0  0  0  0  0  0  0  0  0  0
   37.4090   28.3480   42.3540 C   0  0  0  0  0  0  0  0  0  0  0  0
   37.4750   29.6520   42.1130 N   0  0  0  0  0  0  0  0  0  0  0  0
   37.7690   29.5370   38.8600 H   0  0  0  0  0  0  0  0  0  0  0  0
   37.6570   27.1700   39.2190 H   0  0  0  0  0  0  0  0  0  0  0  0
   37.4060   25.8770   41.5550 C   0  0  0  0  0  3  0  0  0  0  0  0
   36.7340   25.2420   40.3130 C   0  0  0  0  0  2  0  0  0  0  0  0
   36.5130   23.7710   40.6530 C   0  0  0  0  0  2  0  0  0  0  0  0
   37.8810   23.1290   40.4720 C   0  0  0  0  0  2  0  0  0  0  0  0
   38.9740   24.1560   40.5560 C   0  0  0  0  0  2  0  0  0  0  0  0
   38.7210   25.1920   41.6630 C   0  0  0  0  0  2  0  0  0  0  0  0
   37.1980   27.8320   43.7490 C   0  0  0  0  0  0  0  0  0  0  0  0
   38.3170   27.1710   44.2070 F   0  0  0  0  0  0  0  0  0  0  0  0
   36.1040   26.9950   43.8500 F   0  0  0  0  0  0  0  0  0  0  0  0
   36.9550   28.8890   44.6000 F   0  0  0  0  0  0  0  0  0  0  0  0
   38.1510   32.0400   39.3770 C   0  0  0  0  0  0  0  0  0  0  0  0
   38.6010   31.2720   38.7270 H   0  0  0  0  0  0  0  0  0  0  0  0
   37.2700   32.4620   38.8400 H   0  0  0  0  0  0  0  0  0  0  0  0
   41.1670   34.1840   39.5900 C   0  0  0  0  0  0  0  0  0  0  0  0
   40.6120   35.2860   40.1070 C   0  0  0  0  0  0  0  0  0  0  0  0
   38.8340   34.7820   40.2650 S   0  0  0  0  0  0  0  0  0  0  0  0
   39.2020   33.1010   39.5680 C   0  0  0  0  0  0  0  0  0  0  0  0
   40.3200   33.2300   39.4000 N   0  0  0  0  0  0  0  0  0  0  0  0
   41.0960   36.2230   40.3630 H   0  0  0  0  0  0  0  0  0  0  0  0
   44.4350   33.8030   37.7610 C   0  0  0  0  0  0  0  0  0  0  0  0
   43.0550   33.9150   37.9810 C   0  0  0  0  0  0  0  0  0  0  0  0
   42.6090   34.0580   39.2650 C   0  0  0  0  0  0  0  0  0  0  0  0
   43.5620   34.0840   40.2710 N   0  0  0  0  0  0  0  0  0  0  0  0
   44.8770   33.9710   39.9930 C   0  0  0  0  0  0  0  0  0  0  0  0
   45.3100   33.8310   38.7470 N   0  0  0  0  0  0  0  0  0  0  0  0
   44.8390   33.6850   36.7500 H   0  0  0  0  0  0  0  0  0  0  0  0
   45.4950   34.0080   40.8830 H   0  0  0  0  0  0  0  0  0  0  0  0
   42.2120   33.8700   36.8410 N   0  0  0  0  0  0  0  0  0  0  0  0
   42.4760   33.1730   36.0890 H   0  0  0  0  0  0  0  0  0  0  0  0
   41.3910   34.5230   36.8160 H   0  0  0  0  0  0  0  0  0  0  0  0
  1  4  1  0  0  0  0
  1  3  1  0  0  0  0
  1  2  1  0  0  0  0
  4  9  1  0  0  0  0
  5  6  1  0  0  0  0
  5  4  2  0  0  0  0
  6  7  2  0  0  0  0
  7 12  1  0  0  0  0
  7  8  1  0  0  0  0
  8 18  1  0  0  0  0
  9  8  2  0  0  0  0
 10  5  1  0  0  0  0
 11  6  1  0  0  0  0
 12 17  1  0  0  0  0
 13 14  1  0  0  0  0
 13 12  1  0  0  0  0
 15 16  1  0  0  0  0
 15 14  1  0  0  0  0
 16 17  1  0  0  0  0
 18 20  1  0  0  0  0
 18 19  1  0  0  0  0
 18 21  1  0  0  0  0
 22 28  1  0  0  0  0
 22  1  1  0  0  0  0
 23 22  1  0  0  0  0
 24 22  1  0  0  0  0
 25 26  2  0  0  0  0
 26 27  1  0  0  0  0
 26 30  1  0  0  0  0
 28 27  1  0  0  0  0
 29 28  2  0  0  0  0
 29 25  1  0  0  0  0
 31 32  2  0  0  0  0
 31 36  1  0  0  0  0
 32 33  1  0  0  0  0
 33 25  1  0  0  0  0
 33 34  2  0  0  0  0
 35 34  1  0  0  0  0
 35 38  1  0  0  0  0
 36 35  2  0  0  0  0
 37 31  1  0  0  0  0
 39 32  1  0  0  0  0
 40 39  1  0  0  0  0
 41 39  1  0  0  0  0
M  END
>  <minimizedAffinity>
-7.53750563

$$$$

 OpenBabel03242522193D

 41 44  0  0  0  0  0  0  0  0999 V2000
   36.6230   31.4400   40.6420 C   0  0  0  0  0  0  0  0  0  0  0  0
   37.0840   31.9960   41.4990 H   0  0  0  0  0  0  0  0  0  0  0  0
   35.5190   31.6460   40.7550 H   0  0  0  0  0  0  0  0  0  0  0  0
   36.8200   30.0210   40.7700 C   0  0  0  0  0  0  0  0  0  0  0  0
   36.9370   29.0600   39.8090 C   0  0  0  0  0  0  0  0  0  0  0  0
   37.1430   27.7020   40.0380 C   0  0  0  0  0  0  0  0  0  0  0  0
   37.2340   27.3170   41.3530 C   0  0  0  0  0  0  0  0  0  0  0  0
   37.1110   28.2910   42.2960 C   0  0  0  0  0  0  0  0  0  0  0  0
   36.9160   29.5840   42.0630 N   0  0  0  0  0  0  0  0  0  0  0  0
   36.8470   29.4870   38.7970 H   0  0  0  0  0  0  0  0  0  0  0  0
   37.2020   27.1420   39.1420 H   0  0  0  0  0  0  0  0  0  0  0  0
   37.4570   25.8510   41.4790 C   0  0  0  0  0  3  0  0  0  0  0  0
   36.6580   25.0820   40.3980 C   0  0  0  0  0  2  0  0  0  0  0  0
   36.7650   23.6040   40.7590 C   0  0  0  0  0  2  0  0  0  0  0  0
   38.1530   23.1960   40.2860 C   0  0  0  0  0  2  0  0  0  0  0  0
   39.0500   24.3940   40.1520 C   0  0  0  0  0  2  0  0  0  0  0  0
   38.8620   25.3990   41.3000 C   0  0  0  0  0  2  0  0  0  0  0  0
   37.1590   27.7610   43.7020 C   0  0  0  0  0  0  0  0  0  0  0  0
   36.9220   28.7630   44.6170 F   0  0  0  0  0  0  0  0  0  0  0  0
   38.3600   27.1480   44.0010 F   0  0  0  0  0  0  0  0  0  0  0  0
   36.1850   26.8000   43.8650 F   0  0  0  0  0  0  0  0  0  0  0  0
   37.0580   32.0610   39.3630 C   0  0  0  0  0  0  0  0  0  0  0  0
   36.6700   31.5500   38.4660 H   0  0  0  0  0  0  0  0  0  0  0  0
   36.6830   33.1110   39.3420 H   0  0  0  0  0  0  0  0  0  0  0  0
   40.7400   32.3920   39.6410 C   0  0  0  0  0  0  0  0  0  0  0  0
   41.1010   31.6900   38.5620 C   0  0  0  0  0  0  0  0  0  0  0  0
   39.4590   31.1700   37.8740 S   0  0  0  0  0  0  0  0  0  0  0  0
   38.5590   32.0420   39.2430 C   0  0  0  0  0  0  0  0  0  0  0  0
   39.4610   32.4490   39.8050 N   0  0  0  0  0  0  0  0  0  0  0  0
   42.1050   31.4900   38.1970 H   0  0  0  0  0  0  0  0  0  0  0  0
   42.8790   34.9200   41.4310 C   0  0  0  0  0  0  0  0  0  0  0  0
   41.9570   34.3840   40.5210 C   0  0  0  0  0  0  0  0  0  0  0  0
   41.7010   33.0430   40.5650 C   0  0  0  0  0  0  0  0  0  0  0  0
   42.3770   32.2960   41.5170 N   0  0  0  0  0  0  0  0  0  0  0  0
   43.2540   32.8720   42.3650 C   0  0  0  0  0  0  0  0  0  0  0  0
   43.5030   34.1740   42.3220 N   0  0  0  0  0  0  0  0  0  0  0  0
   43.1170   35.9890   41.4330 H   0  0  0  0  0  0  0  0  0  0  0  0
   43.7010   32.1580   43.0490 H   0  0  0  0  0  0  0  0  0  0  0  0
   41.3500   35.2860   39.6080 N   0  0  0  0  0  0  0  0  0  0  0  0
   41.9780   36.0340   39.2010 H   0  0  0  0  0  0  0  0  0  0  0  0
   40.3300   35.1550   39.4000 H   0  0  0  0  0  0  0  0  0  0  0  0
  1  3  1  0  0  0  0
  1  4  1  0  0  0  0
  1  2  1  0  0  0  0
  4  9  1  0  0  0  0
  5  6  1  0  0  0  0
  5  4  2  0  0  0  0
  6  7  2  0  0  0  0
  7 12  1  0  0  0  0
  7  8  1  0  0  0  0
  8 18  1  0  0  0  0
  9  8  2  0  0  0  0
 10  5  1  0  0  0  0
 11  6  1  0  0  0  0
 13 14  1  0  0  0  0
 13 12  1  0  0  0  0
 15 14  1  0  0  0  0
 16 15  1  0  0  0  0
 16 17  1  0  0  0  0
 17 12  1  0  0  0  0
 18 21  1  0  0  0  0
 18 20  1  0  0  0  0
 18 19  1  0  0  0  0
 22  1  1  0  0  0  0
 23 22  1  0  0  0  0
 24 22  1  0  0  0  0
 25 29  1  0  0  0  0
 25 33  1  0  0  0  0
 26 25  2  0  0  0  0
 27 26  1  0  0  0  0
 27 28  1  0  0  0  0
 28 22  1  0  0  0  0
 28 29  2  0  0  0  0
 30 26  1  0  0  0  0
 31 37  1  0  0  0  0
 31 36  1  0  0  0  0
 32 33  1  0  0  0  0
 32 31  2  0  0  0  0
 33 34  2  0  0  0  0
 34 35  1  0  0  0  0
 35 38  1  0  0  0  0
 36 35  2  0  0  0  0
 39 32  1  0  0  0  0
 40 39  1  0  0  0  0
 41 39  1  0  0  0  0
M  END
>  <minimizedAffinity>
-6.87310648

$$$$

 OpenBabel03242522193D

 41 44  0  0  0  0  0  0  0  0999 V2000
   37.2960   27.6820   42.9770 C   0  0  0  0  0  0  0  0  0  0  0  0
   38.1290   26.9340   43.0380 H   0  0  0  0  0  0  0  0  0  0  0  0
   36.5170   27.2690   43.6800 H   0  0  0  0  0  0  0  0  0  0  0  0
   36.7200   27.7210   41.6590 C   0  0  0  0  0  0  0  0  0  0  0  0
   35.9920   28.6980   41.0460 C   0  0  0  0  0  0  0  0  0  0  0  0
   35.4890   28.6460   39.7500 C   0  0  0  0  0  0  0  0  0  0  0  0
   35.7610   27.5020   39.0410 C   0  0  0  0  0  0  0  0  0  0  0  0
   36.4860   26.5370   39.6710 C   0  0  0  0  0  0  0  0  0  0  0  0
   36.9610   26.6020   40.9100 N   0  0  0  0  0  0  0  0  0  0  0  0
   35.8390   29.5650   41.7110 H   0  0  0  0  0  0  0  0  0  0  0  0
   34.9530   29.5190   39.4850 H   0  0  0  0  0  0  0  0  0  0  0  0
   35.1800   27.5560   37.6720 C   0  0  0  0  0  3  0  0  0  0  0  0
   33.8930   28.4170   37.6580 C   0  0  0  0  0  2  0  0  0  0  0  0
   33.2580   28.2150   36.2860 C   0  0  0  0  0  2  0  0  0  0  0  0
   34.0790   29.0940   35.3530 C   0  0  0  0  0  2  0  0  0  0  0  0
   35.4300   29.3890   35.9400 C   0  0  0  0  0  2  0  0  0  0  0  0
   36.0500   28.1620   36.6300 C   0  0  0  0  0  2  0  0  0  0  0  0
   36.6730   25.3000   38.8380 C   0  0  0  0  0  0  0  0  0  0  0  0
   37.2010   24.2730   39.5890 F   0  0  0  0  0  0  0  0  0  0  0  0
   37.4770   25.5150   37.7360 F   0  0  0  0  0  0  0  0  0  0  0  0
   35.4530   24.8840   38.3510 F   0  0  0  0  0  0  0  0  0  0  0  0
   37.7570   28.9780   43.5420 C   0  0  0  0  0  0  0  0  0  0  0  0
   36.9420   29.6970   43.7260 H   0  0  0  0  0  0  0  0  0  0  0  0
   38.2540   28.7730   44.5190 H   0  0  0  0  0  0  0  0  0  0  0  0
   39.7140   31.2000   41.3120 C   0  0  0  0  0  0  0  0  0  0  0  0
   40.6760   30.3460   40.9470 C   0  0  0  0  0  0  0  0  0  0  0  0
   40.1940   28.8090   41.8670 S   0  0  0  0  0  0  0  0  0  0  0  0
   38.7160   29.6590   42.6020 C   0  0  0  0  0  0  0  0  0  0  0  0
   38.8530   30.6810   42.1200 N   0  0  0  0  0  0  0  0  0  0  0  0
   41.5150   30.5260   40.2810 H   0  0  0  0  0  0  0  0  0  0  0  0
   38.4560   34.5260   40.0750 C   0  0  0  0  0  0  0  0  0  0  0  0
   38.4440   33.1930   40.5110 C   0  0  0  0  0  0  0  0  0  0  0  0
   39.6320   32.6050   40.8420 C   0  0  0  0  0  0  0  0  0  0  0  0
   40.7790   33.3750   40.7240 N   0  0  0  0  0  0  0  0  0  0  0  0
   40.7220   34.6540   40.2980 C   0  0  0  0  0  0  0  0  0  0  0  0
   39.5700   35.2240   39.9770 N   0  0  0  0  0  0  0  0  0  0  0  0
   37.5280   35.0380   39.7980 H   0  0  0  0  0  0  0  0  0  0  0  0
   41.7000   35.1220   40.2590 H   0  0  0  0  0  0  0  0  0  0  0  0
   37.1840   32.5440   40.5750 N   0  0  0  0  0  0  0  0  0  0  0  0
   36.5100   32.7480   39.7850 H   0  0  0  0  0  0  0  0  0  0  0  0
   37.0030   31.9120   41.3920 H   0  0  0  0  0  0  0  0  0  0  0  0
  1  2  1  0  0  0  0
  1 22  1  0  0  0  0
  1  3  1  0  0  0  0
  4  1  1  0  0  0  0
  5  4  1  0  0  0  0
  5 10  1  0  0  0  0
  6  5  2  0  0  0  0
  7  8  2  0  0  0  0
  7  6  1  0  0  0  0
  8  9  1  0  0  0  0
  9  4  2  0  0  0  0
 11  6  1  0  0  0  0
 12  7  1  0  0  0  0
 13 12  1  0  0  0  0
 14 13  1  0  0  0  0
 15 16  1  0  0  0  0
 15 14  1  0  0  0  0
 16 17  1  0  0  0  0
 17 12  1  0  0  0  0
 18 19  1  0  0  0  0
 18  8  1  0  0  0  0
 20 18  1  0  0  0  0
 21 18  1  0  0  0  0
 22 23  1  0  0  0  0
 22 24  1  0  0  0  0
 25 29  1  0  0  0  0
 26 25  2  0  0  0  0
 26 27  1  0  0  0  0
 27 28  1  0  0  0  0
 28 22  1  0  0  0  0
 29 28  2  0  0  0  0
 30 26  1  0  0  0  0
 31 32  1  0  0  0  0
 32 39  1  0  0  0  0
 32 33  2  0  0  0  0
 33 25  1  0  0  0  0
 34 33  1  0  0  0  0
 35 34  2  0  0  0  0
 36 31  2  0  0  0  0
 36 35  1  0  0  0  0
 37 31  1  0  0  0  0
 38 35  1  0  0  0  0
 39 41  1  0  0  0  0
 40 39  1  0  0  0  0
M  END
>  <minimizedAffinity>
-6.36013937

$$$$

 OpenBabel03242522193D

 41 44  0  0  0  0  0  0  0  0999 V2000
   37.3660   28.4600   43.5390 C   0  0  0  0  0  0  0  0  0  0  0  0
   36.6150   28.8810   44.2570 H   0  0  0  0  0  0  0  0  0  0  0  0
   38.1580   28.0200   44.2110 H   0  0  0  0  0  0  0  0  0  0  0  0
   37.9820   29.4970   42.7550 C   0  0  0  0  0  0  0  0  0  0  0  0
   39.1570   30.1620   42.9440 C   0  0  0  0  0  0  0  0  0  0  0  0
   39.6770   31.1470   42.1100 C   0  0  0  0  0  0  0  0  0  0  0  0
   38.9260   31.4640   41.0060 C   0  0  0  0  0  0  0  0  0  0  0  0
   37.7550   30.7920   40.8370 C   0  0  0  0  0  0  0  0  0  0  0  0
   37.2710   29.8520   41.6410 N   0  0  0  0  0  0  0  0  0  0  0  0
   39.6700   29.8230   43.8600 H   0  0  0  0  0  0  0  0  0  0  0  0
   40.6040   31.5250   42.4550 H   0  0  0  0  0  0  0  0  0  0  0  0
   39.5770   32.5240   40.1870 C   0  0  0  0  0  3  0  0  0  0  0  0
   39.3880   33.9130   40.8430 C   0  0  0  0  0  2  0  0  0  0  0  0
   39.8760   34.9370   39.8230 C   0  0  0  0  0  2  0  0  0  0  0  0
   41.3930   34.8880   39.9290 C   0  0  0  0  0  2  0  0  0  0  0  0
   41.8490   33.5900   40.5350 C   0  0  0  0  0  2  0  0  0  0  0  0
   41.0470   32.3870   40.0140 C   0  0  0  0  0  2  0  0  0  0  0  0
   36.9750   31.2560   39.6380 C   0  0  0  0  0  0  0  0  0  0  0  0
   37.6780   31.0330   38.4740 F   0  0  0  0  0  0  0  0  0  0  0  0
   36.6290   32.5910   39.7100 F   0  0  0  0  0  0  0  0  0  0  0  0
   35.7920   30.5540   39.5580 F   0  0  0  0  0  0  0  0  0  0  0  0
   36.7500   27.3330   42.7880 C   0  0  0  0  0  0  0  0  0  0  0  0
   35.9550   26.8100   43.3440 H   0  0  0  0  0  0  0  0  0  0  0  0
   36.2960   27.7450   41.8570 H   0  0  0  0  0  0  0  0  0  0  0  0
   39.7460   25.2690   42.0760 C   0  0  0  0  0  0  0  0  0  0  0  0
   39.1440   24.1160   41.7650 C   0  0  0  0  0  0  0  0  0  0  0  0
   37.3510   24.5540   41.9600 S   0  0  0  0  0  0  0  0  0  0  0  0
   37.7830   26.2920   42.4470 C   0  0  0  0  0  0  0  0  0  0  0  0
   38.9160   26.2090   42.3800 N   0  0  0  0  0  0  0  0  0  0  0  0
   39.6040   23.1760   41.4740 H   0  0  0  0  0  0  0  0  0  0  0  0
   43.2860   26.0400   43.0960 C   0  0  0  0  0  0  0  0  0  0  0  0
   41.8960   25.8840   43.1820 C   0  0  0  0  0  0  0  0  0  0  0  0
   41.2170   25.4610   42.0750 C   0  0  0  0  0  0  0  0  0  0  0  0
   41.9570   25.2130   40.9300 N   0  0  0  0  0  0  0  0  0  0  0  0
   43.2960   25.3820   40.9110 C   0  0  0  0  0  0  0  0  0  0  0  0
   43.9550   25.7930   41.9860 N   0  0  0  0  0  0  0  0  0  0  0  0
   43.8720   26.3780   43.9570 H   0  0  0  0  0  0  0  0  0  0  0  0
   43.7310   25.1480   39.9460 H   0  0  0  0  0  0  0  0  0  0  0  0
   41.2870   26.1820   44.4300 N   0  0  0  0  0  0  0  0  0  0  0  0
   41.6620   27.0270   44.9440 H   0  0  0  0  0  0  0  0  0  0  0  0
   40.5150   25.5520   44.7570 H   0  0  0  0  0  0  0  0  0  0  0  0
  1  3  1  0  0  0  0
  1  2  1  0  0  0  0
  4  5  1  0  0  0  0
  4  1  1  0  0  0  0
  5 10  1  0  0  0  0
  6 11  1  0  0  0  0
  6  5  2  0  0  0  0
  7  6  1  0  0  0  0
  8  7  2  0  0  0  0
  8  9  1  0  0  0  0
  9  4  2  0  0  0  0
 12 13  1  0  0  0  0
 12  7  1  0  0  0  0
 14 15  1  0  0  0  0
 14 13  1  0  0  0  0
 15 16  1  0  0  0  0
 17 12  1  0  0  0  0
 17 16  1  0  0  0  0
 18 20  1  0  0  0  0
 18  8  1  0  0  0  0
 19 18  1  0  0  0  0
 21 18  1  0  0  0  0
 22 23  1  0  0  0  0
 22  1  1  0  0  0  0
 24 22  1  0  0  0  0
 25 29  1  0  0  0  0
 26 27  1  0  0  0  0
 26 25  2  0  0  0  0
 27 28  1  0  0  0  0
 28 22  1  0  0  0  0
 29 28  2  0  0  0  0
 30 26  1  0  0  0  0
 31 32  1  0  0  0  0
 31 37  1  0  0  0  0
 32 39  1  0  0  0  0
 33 25  1  0  0  0  0
 33 32  2  0  0  0  0
 34 33  1  0  0  0  0
 35 34  2  0  0  0  0
 35 36  1  0  0  0  0
 36 31  2  0  0  0  0
 38 35  1  0  0  0  0
 39 41  1  0  0  0  0
 39 40  1  0  0  0  0
M  END
>  <minimizedAffinity>
-6.35041571

$$$$

 OpenBabel03242522193D

 41 44  0  0  0  0  0  0  0  0999 V2000
   37.4840   29.1500   42.4740 C   0  0  0  0  0  0  0  0  0  0  0  0
   36.9320   29.1260   43.4490 H   0  0  0  0  0  0  0  0  0  0  0  0
   36.7500   29.6310   41.7660 H   0  0  0  0  0  0  0  0  0  0  0  0
   37.7560   27.8220   41.9910 C   0  0  0  0  0  0  0  0  0  0  0  0
   37.2260   27.1470   40.9310 C   0  0  0  0  0  0  0  0  0  0  0  0
   37.5700   25.8590   40.5330 C   0  0  0  0  0  0  0  0  0  0  0  0
   38.5300   25.2290   41.2870 C   0  0  0  0  0  0  0  0  0  0  0  0
   39.0440   25.9190   42.3420 C   0  0  0  0  0  0  0  0  0  0  0  0
   38.7060   27.1490   42.7090 N   0  0  0  0  0  0  0  0  0  0  0  0
   36.4680   27.7520   40.4050 H   0  0  0  0  0  0  0  0  0  0  0  0
   37.0290   25.5360   39.6830 H   0  0  0  0  0  0  0  0  0  0  0  0
   38.8210   23.8630   40.7710 C   0  0  0  0  0  3  0  0  0  0  0  0
   37.5070   23.0980   40.4810 C   0  0  0  0  0  2  0  0  0  0  0  0
   37.9090   21.6550   40.1900 C   0  0  0  0  0  2  0  0  0  0  0  0
   38.4250   21.6850   38.7580 C   0  0  0  0  0  2  0  0  0  0  0  0
   38.8380   23.0740   38.3630 C   0  0  0  0  0  2  0  0  0  0  0  0
   39.5780   23.8100   39.4920 C   0  0  0  0  0  2  0  0  0  0  0  0
   40.0370   25.1220   43.1410 C   0  0  0  0  0  0  0  0  0  0  0  0
   39.4890   23.9300   43.5640 F   0  0  0  0  0  0  0  0  0  0  0  0
   40.5190   25.8130   44.2350 F   0  0  0  0  0  0  0  0  0  0  0  0
   41.1310   24.8290   42.3560 F   0  0  0  0  0  0  0  0  0  0  0  0
   38.6490   30.0670   42.5910 C   0  0  0  0  0  0  0  0  0  0  0  0
   38.6190   30.7130   43.4840 H   0  0  0  0  0  0  0  0  0  0  0  0
   39.5730   29.4470   42.6530 H   0  0  0  0  0  0  0  0  0  0  0  0
   39.5020   32.3320   39.7830 C   0  0  0  0  0  0  0  0  0  0  0  0
   38.2730   32.5550   39.3050 C   0  0  0  0  0  0  0  0  0  0  0  0
   37.2240   31.5460   40.4560 S   0  0  0  0  0  0  0  0  0  0  0  0
   38.7210   30.9910   41.4030 C   0  0  0  0  0  0  0  0  0  0  0  0
   39.5140   31.5450   40.8050 N   0  0  0  0  0  0  0  0  0  0  0  0
   37.9840   33.1740   38.4610 H   0  0  0  0  0  0  0  0  0  0  0  0
   42.8060   34.0850   39.3510 C   0  0  0  0  0  0  0  0  0  0  0  0
   41.6690   33.5540   39.9760 C   0  0  0  0  0  0  0  0  0  0  0  0
   40.7350   32.9220   39.2050 C   0  0  0  0  0  0  0  0  0  0  0  0
   40.9790   32.8470   37.8430 N   0  0  0  0  0  0  0  0  0  0  0  0
   42.0940   33.3780   37.3020 C   0  0  0  0  0  0  0  0  0  0  0  0
   43.0000   33.9920   38.0500 N   0  0  0  0  0  0  0  0  0  0  0  0
   43.5800   34.6010   39.9280 H   0  0  0  0  0  0  0  0  0  0  0  0
   42.1410   33.2390   36.2270 H   0  0  0  0  0  0  0  0  0  0  0  0
   41.5690   33.7170   41.3830 N   0  0  0  0  0  0  0  0  0  0  0  0
   41.8830   34.6500   41.7710 H   0  0  0  0  0  0  0  0  0  0  0  0
   41.1960   32.9100   41.9410 H   0  0  0  0  0  0  0  0  0  0  0  0
  1 22  1  0  0  0  0
  1  2  1  0  0  0  0
  3  1  1  0  0  0  0
  4  1  1  0  0  0  0
  4  9  1  0  0  0  0
  5  4  2  0  0  0  0
  6  5  1  0  0  0  0
  6  7  2  0  0  0  0
  7  8  1  0  0  0  0
  8  9  2  0  0  0  0
  8 18  1  0  0  0  0
 10  5  1  0  0  0  0
 11  6  1  0  0  0  0
 12  7  1  0  0  0  0
 13 12  1  0  0  0  0
 14 13  1  0  0  0  0
 15 14  1  0  0  0  0
 16 15  1  0  0  0  0
 16 17  1  0  0  0  0
 17 12  1  0  0  0  0
 18 19  1  0  0  0  0
 18 20  1  0  0  0  0
 21 18  1  0  0  0  0
 22 24  1  0  0  0  0
 22 23  1  0  0  0  0
 25 29  1  0  0  0  0
 26 25  2  0  0  0  0
 26 27  1  0  0  0  0
 27 28  1  0  0  0  0
 28 22  1  0  0  0  0
 29 28  2  0  0  0  0
 30 26  1  0  0  0  0
 31 37  1  0  0  0  0
 31 32  1  0  0  0  0
 32 39  1  0  0  0  0
 33 25  1  0  0  0  0
 33 32  2  0  0  0  0
 34 33  1  0  0  0  0
 35 34  2  0  0  0  0
 35 36  1  0  0  0  0
 36 31  2  0  0  0  0
 38 35  1  0  0  0  0
 39 40  1  0  0  0  0
 39 41  1  0  0  0  0
M  END
>  <minimizedAffinity>
-6.29321146

$$$$

 OpenBabel03242522193D

 41 44  0  0  0  0  0  0  0  0999 V2000
   36.8240   31.5190   40.6190 C   0  0  0  0  0  0  0  0  0  0  0  0
   37.0130   32.0390   41.5930 H   0  0  0  0  0  0  0  0  0  0  0  0
   35.7390   31.7460   40.4030 H   0  0  0  0  0  0  0  0  0  0  0  0
   36.9550   30.0920   40.7500 C   0  0  0  0  0  0  0  0  0  0  0  0
   37.0360   29.1250   39.7930 C   0  0  0  0  0  0  0  0  0  0  0  0
   37.1800   27.7600   40.0260 C   0  0  0  0  0  0  0  0  0  0  0  0
   37.2430   27.3740   41.3420 C   0  0  0  0  0  0  0  0  0  0  0  0
   37.1560   28.3540   42.2820 C   0  0  0  0  0  0  0  0  0  0  0  0
   37.0210   29.6540   42.0450 N   0  0  0  0  0  0  0  0  0  0  0  0
   36.9740   29.5540   38.7790 H   0  0  0  0  0  0  0  0  0  0  0  0
   37.2200   27.1950   39.1310 H   0  0  0  0  0  0  0  0  0  0  0  0
   37.3980   25.8990   41.4730 C   0  0  0  0  0  3  0  0  0  0  0  0
   36.6470   25.1680   40.3340 C   0  0  0  0  0  2  0  0  0  0  0  0
   36.6700   23.6850   40.6900 C   0  0  0  0  0  2  0  0  0  0  0  0
   38.0700   23.2250   40.3120 C   0  0  0  0  0  2  0  0  0  0  0  0
   39.0210   24.3860   40.2490 C   0  0  0  0  0  2  0  0  0  0  0  0
   38.7930   25.3930   41.3880 C   0  0  0  0  0  2  0  0  0  0  0  0
   37.1690   27.8260   43.6890 C   0  0  0  0  0  0  0  0  0  0  0  0
   37.0060   28.8450   44.6030 F   0  0  0  0  0  0  0  0  0  0  0  0
   38.3240   27.1300   43.9880 F   0  0  0  0  0  0  0  0  0  0  0  0
   36.1290   26.9380   43.8570 F   0  0  0  0  0  0  0  0  0  0  0  0
   37.6300   32.1660   39.5500 C   0  0  0  0  0  0  0  0  0  0  0  0
   37.7220   31.5600   38.6340 H   0  0  0  0  0  0  0  0  0  0  0  0
   37.1310   33.1240   39.2720 H   0  0  0  0  0  0  0  0  0  0  0  0
   41.0950   32.1440   40.8680 C   0  0  0  0  0  0  0  0  0  0  0  0
   41.3950   33.4370   40.7060 C   0  0  0  0  0  0  0  0  0  0  0  0
   39.8290   34.1060   39.9710 S   0  0  0  0  0  0  0  0  0  0  0  0
   39.0340   32.4290   40.0260 C   0  0  0  0  0  0  0  0  0  0  0  0
   39.9010   31.8470   40.4790 N   0  0  0  0  0  0  0  0  0  0  0  0
   42.3230   33.9450   40.9500 H   0  0  0  0  0  0  0  0  0  0  0  0
   42.5520   29.2210   42.7400 C   0  0  0  0  0  0  0  0  0  0  0  0
   41.6030   30.1250   42.2450 C   0  0  0  0  0  0  0  0  0  0  0  0
   42.0290   31.1410   41.4360 C   0  0  0  0  0  0  0  0  0  0  0  0
   43.3850   31.2070   41.1580 N   0  0  0  0  0  0  0  0  0  0  0  0
   44.2490   30.3040   41.6660 C   0  0  0  0  0  0  0  0  0  0  0  0
   43.8360   29.3190   42.4510 N   0  0  0  0  0  0  0  0  0  0  0  0
   42.2580   28.3920   43.3920 H   0  0  0  0  0  0  0  0  0  0  0  0
   45.2720   30.4890   41.3580 H   0  0  0  0  0  0  0  0  0  0  0  0
   40.2510   29.9190   42.6250 N   0  0  0  0  0  0  0  0  0  0  0  0
   40.0870   29.6220   43.6280 H   0  0  0  0  0  0  0  0  0  0  0  0
   39.5120   30.0700   41.8970 H   0  0  0  0  0  0  0  0  0  0  0  0
  1  4  1  0  0  0  0
  1  2  1  0  0  0  0
  3  1  1  0  0  0  0
  4  9  1  0  0  0  0
  5  6  1  0  0  0  0
  5  4  2  0  0  0  0
  6  7  2  0  0  0  0
  7 12  1  0  0  0  0
  7  8  1  0  0  0  0
  8 18  1  0  0  0  0
  9  8  2  0  0  0  0
 10  5  1  0  0  0  0
 11  6  1  0  0  0  0
 13 14  1  0  0  0  0
 13 12  1  0  0  0  0
 15 14  1  0  0  0  0
 16 15  1  0  0  0  0
 16 17  1  0  0  0  0
 17 12  1  0  0  0  0
 18 21  1  0  0  0  0
 18 20  1  0  0  0  0
 18 19  1  0  0  0  0
 22 28  1  0  0  0  0
 22  1  1  0  0  0  0
 23 22  1  0  0  0  0
 24 22  1  0  0  0  0
 25 33  1  0  0  0  0
 26 25  2  0  0  0  0
 26 30  1  0  0  0  0
 27 28  1  0  0  0  0
 27 26  1  0  0  0  0
 28 29  2  0  0  0  0
 29 25  1  0  0  0  0
 31 37  1  0  0  0  0
 32 39  1  0  0  0  0
 32 31  2  0  0  0  0
 33 32  1  0  0  0  0
 34 33  2  0  0  0  0
 34 35  1  0  0  0  0
 35 36  2  0  0  0  0
 36 31  1  0  0  0  0
 38 35  1  0  0  0  0
 39 40  1  0  0  0  0
 41 39  1  0  0  0  0
M  END
>  <minimizedAffinity>
-6.13057137

$$$$

 OpenBabel03242522193D

 41 44  0  0  0  0  0  0  0  0999 V2000
   36.1370   30.9170   40.6000 C   0  0  0  0  0  0  0  0  0  0  0  0
   36.2670   31.3380   41.6310 H   0  0  0  0  0  0  0  0  0  0  0  0
   35.0420   31.0850   40.3820 H   0  0  0  0  0  0  0  0  0  0  0  0
   36.3760   29.4990   40.5770 C   0  0  0  0  0  0  0  0  0  0  0  0
   36.4070   28.6290   39.5270 C   0  0  0  0  0  0  0  0  0  0  0  0
   36.6660   27.2640   39.6090 C   0  0  0  0  0  0  0  0  0  0  0  0
   36.9080   26.7690   40.8660 C   0  0  0  0  0  0  0  0  0  0  0  0
   36.8690   27.6520   41.9020 C   0  0  0  0  0  0  0  0  0  0  0  0
   36.6220   28.9530   41.8080 N   0  0  0  0  0  0  0  0  0  0  0  0
   36.1990   29.1410   38.5730 H   0  0  0  0  0  0  0  0  0  0  0  0
   36.6380   26.7860   38.6650 H   0  0  0  0  0  0  0  0  0  0  0  0
   37.1740   25.3040   40.8350 C   0  0  0  0  0  3  0  0  0  0  0  0
   36.2650   24.6060   39.7940 C   0  0  0  0  0  2  0  0  0  0  0  0
   36.4450   23.1060   40.0070 C   0  0  0  0  0  2  0  0  0  0  0  0
   37.7730   22.7840   39.3390 C   0  0  0  0  0  2  0  0  0  0  0  0
   38.6230   24.0150   39.2040 C   0  0  0  0  0  2  0  0  0  0  0  0
   38.5560   24.9130   40.4510 C   0  0  0  0  0  2  0  0  0  0  0  0
   37.0810   27.0030   43.2400 C   0  0  0  0  0  0  0  0  0  0  0  0
   36.2590   25.9080   43.3950 F   0  0  0  0  0  0  0  0  0  0  0  0
   36.8800   27.8730   44.2940 F   0  0  0  0  0  0  0  0  0  0  0  0
   38.3850   26.5700   43.3410 F   0  0  0  0  0  0  0  0  0  0  0  0
   36.9100   31.7390   39.6320 C   0  0  0  0  0  0  0  0  0  0  0  0
   36.7480   31.4560   38.5790 H   0  0  0  0  0  0  0  0  0  0  0  0
   36.5940   32.8020   39.7490 H   0  0  0  0  0  0  0  0  0  0  0  0
   40.5870   31.2720   39.5760 C   0  0  0  0  0  0  0  0  0  0  0  0
   40.8530   31.5010   40.8660 C   0  0  0  0  0  0  0  0  0  0  0  0
   39.1640   31.8480   41.5510 S   0  0  0  0  0  0  0  0  0  0  0  0
   38.3900   31.6060   39.8810 C   0  0  0  0  0  0  0  0  0  0  0  0
   39.3330   31.3700   39.2910 N   0  0  0  0  0  0  0  0  0  0  0  0
   41.8170   31.4820   41.3660 H   0  0  0  0  0  0  0  0  0  0  0  0
   42.7340   31.2410   36.4830 C   0  0  0  0  0  0  0  0  0  0  0  0
   41.7290   31.6200   37.3850 C   0  0  0  0  0  0  0  0  0  0  0  0
   41.6200   30.9390   38.5640 C   0  0  0  0  0  0  0  0  0  0  0  0
   42.5210   29.9100   38.7910 N   0  0  0  0  0  0  0  0  0  0  0  0
   43.4660   29.5940   37.8820 C   0  0  0  0  0  0  0  0  0  0  0  0
   43.5720   30.2540   36.7380 N   0  0  0  0  0  0  0  0  0  0  0  0
   42.8590   31.7560   35.5250 H   0  0  0  0  0  0  0  0  0  0  0  0
   44.0920   28.7690   38.2040 H   0  0  0  0  0  0  0  0  0  0  0  0
   40.8870   32.6960   37.0000 N   0  0  0  0  0  0  0  0  0  0  0  0
   40.5910   32.7190   35.9840 H   0  0  0  0  0  0  0  0  0  0  0  0
   40.6170   33.3900   37.7380 H   0  0  0  0  0  0  0  0  0  0  0  0
  1  2  1  0  0  0  0
  3  1  1  0  0  0  0
  4  1  1  0  0  0  0
  4  9  1  0  0  0  0
  5  6  1  0  0  0  0
  5  4  2  0  0  0  0
  6  7  2  0  0  0  0
  7  8  1  0  0  0  0
  8 18  1  0  0  0  0
  9  8  2  0  0  0  0
 10  5  1  0  0  0  0
 11  6  1  0  0  0  0
 12  7  1  0  0  0  0
 13 14  1  0  0  0  0
 13 12  1  0  0  0  0
 15 14  1  0  0  0  0
 16 15  1  0  0  0  0
 16 17  1  0  0  0  0
 17 12  1  0  0  0  0
 18 21  1  0  0  0  0
 18 19  1  0  0  0  0
 18 20  1  0  0  0  0
 22 24  1  0  0  0  0
 22 28  1  0  0  0  0
 22  1  1  0  0  0  0
 23 22  1  0  0  0  0
 25 26  2  0  0  0  0
 26 30  1  0  0  0  0
 26 27  1  0  0  0  0
 28 27  1  0  0  0  0
 29 25  1  0  0  0  0
 29 28  2  0  0  0  0
 31 36  2  0  0  0  0
 31 32  1  0  0  0  0
 32 33  2  0  0  0  0
 33 34  1  0  0  0  0
 33 25  1  0  0  0  0
 35 38  1  0  0  0  0
 35 34  2  0  0  0  0
 36 35  1  0  0  0  0
 37 31  1  0  0  0  0
 39 32  1  0  0  0  0
 39 41  1  0  0  0  0
 40 39  1  0  0  0  0
M  END
>  <minimizedAffinity>
-6.09689617

$$$$

 OpenBabel03242522193D

 41 44  0  0  0  0  0  0  0  0999 V2000
   37.3390   31.9170   38.9010 C   0  0  0  0  0  0  0  0  0  0  0  0
   36.3200   32.0540   38.4540 H   0  0  0  0  0  0  0  0  0  0  0  0
   38.0370   32.1520   38.0460 H   0  0  0  0  0  0  0  0  0  0  0  0
   37.5640   30.5490   39.2880 C   0  0  0  0  0  0  0  0  0  0  0  0
   37.1320   29.8640   40.3850 C   0  0  0  0  0  0  0  0  0  0  0  0
   37.3940   28.5250   40.6620 C   0  0  0  0  0  0  0  0  0  0  0  0
   38.1560   27.8540   39.7390 C   0  0  0  0  0  0  0  0  0  0  0  0
   38.5800   28.5570   38.6530 C   0  0  0  0  0  0  0  0  0  0  0  0
   38.3210   29.8350   38.4010 N   0  0  0  0  0  0  0  0  0  0  0  0
   36.5320   30.5060   41.0520 H   0  0  0  0  0  0  0  0  0  0  0  0
   36.9580   28.2050   41.5720 H   0  0  0  0  0  0  0  0  0  0  0  0
   38.3690   26.4340   40.1340 C   0  0  0  0  0  3  0  0  0  0  0  0
   38.9680   26.3490   41.5590 C   0  0  0  0  0  2  0  0  0  0  0  0
   39.3630   24.8910   41.7700 C   0  0  0  0  0  2  0  0  0  0  0  0
   38.0520   24.1820   42.0780 C   0  0  0  0  0  2  0  0  0  0  0  0
   36.8800   24.9730   41.5710 C   0  0  0  0  0  2  0  0  0  0  0  0
   37.1450   25.5940   40.1900 C   0  0  0  0  0  2  0  0  0  0  0  0
   39.4590   27.7530   37.7360 C   0  0  0  0  0  0  0  0  0  0  0  0
   38.7600   26.7120   37.1660 F   0  0  0  0  0  0  0  0  0  0  0  0
   40.5780   27.2540   38.3720 F   0  0  0  0  0  0  0  0  0  0  0  0
   39.9210   28.5590   36.7180 F   0  0  0  0  0  0  0  0  0  0  0  0
   37.5610   32.9500   39.9470 C   0  0  0  0  0  0  0  0  0  0  0  0
   36.8650   33.8030   39.8850 H   0  0  0  0  0  0  0  0  0  0  0  0
   37.4190   32.4710   40.9430 H   0  0  0  0  0  0  0  0  0  0  0  0
   41.1490   33.7480   39.4620 C   0  0  0  0  0  0  0  0  0  0  0  0
   41.1380   35.0290   39.8450 C   0  0  0  0  0  0  0  0  0  0  0  0
   39.3530   35.2850   40.2820 S   0  0  0  0  0  0  0  0  0  0  0  0
   38.9480   33.5280   39.8400 C   0  0  0  0  0  0  0  0  0  0  0  0
   39.9880   33.1880   39.5290 N   0  0  0  0  0  0  0  0  0  0  0  0
   41.9720   35.7240   39.8860 H   0  0  0  0  0  0  0  0  0  0  0  0
   44.0630   32.5230   37.4170 C   0  0  0  0  0  0  0  0  0  0  0  0
   42.9130   33.2430   37.7710 C   0  0  0  0  0  0  0  0  0  0  0  0
   42.3640   33.0310   39.0040 C   0  0  0  0  0  0  0  0  0  0  0  0
   42.9890   32.1080   39.8290 N   0  0  0  0  0  0  0  0  0  0  0  0
   44.0940   31.4470   39.4290 C   0  0  0  0  0  0  0  0  0  0  0  0
   44.6270   31.6530   38.2320 N   0  0  0  0  0  0  0  0  0  0  0  0
   44.5370   32.6600   36.4400 H   0  0  0  0  0  0  0  0  0  0  0  0
   44.4640   30.7620   40.1830 H   0  0  0  0  0  0  0  0  0  0  0  0
   42.3960   34.1510   36.8100 N   0  0  0  0  0  0  0  0  0  0  0  0
   42.4130   33.8270   35.8030 H   0  0  0  0  0  0  0  0  0  0  0  0
   42.0370   35.0740   37.1560 H   0  0  0  0  0  0  0  0  0  0  0  0
  1  4  1  0  0  0  0
  1 22  1  0  0  0  0
  2  1  1  0  0  0  0
  3  1  1  0  0  0  0
  4  5  1  0  0  0  0
  5  6  2  0  0  0  0
  5 10  1  0  0  0  0
  6 11  1  0  0  0  0
  7 12  1  0  0  0  0
  7  6  1  0  0  0  0
  8  7  2  0  0  0  0
  9  8  1  0  0  0  0
  9  4  2  0  0  0  0
 12 17  1  0  0  0  0
 12 13  1  0  0  0  0
 13 14  1  0  0  0  0
 14 15  1  0  0  0  0
 16 15  1  0  0  0  0
 17 16  1  0  0  0  0
 18 20  1  0  0  0  0
 18  8  1  0  0  0  0
 19 18  1  0  0  0  0
 21 18  1  0  0  0  0
 22 24  1  0  0  0  0
 23 22  1  0  0  0  0
 25 29  1  0  0  0  0
 25 26  2  0  0  0  0
 26 30  1  0  0  0  0
 26 27  1  0  0  0  0
 28 22  1  0  0  0  0
 28 27  1  0  0  0  0
 29 28  2  0  0  0  0
 31 32  2  0  0  0  0
 31 36  1  0  0  0  0
 32 33  1  0  0  0  0
 33 25  1  0  0  0  0
 33 34  2  0  0  0  0
 35 34  1  0  0  0  0
 35 38  1  0  0  0  0
 36 35  2  0  0  0  0
 37 31  1  0  0  0  0
 39 41  1  0  0  0  0
 39 32  1  0  0  0  0
 40 39  1  0  0  0  0
M  END
>  <minimizedAffinity>
-6.05392981

$$$$

 OpenBabel03242522193D

 41 44  0  0  0  0  0  0  0  0999 V2000
   35.6020   29.5430   40.5780 C   0  0  0  0  0  0  0  0  0  0  0  0
   35.3520   30.4260   41.2220 H   0  0  0  0  0  0  0  0  0  0  0  0
   34.6540   28.9310   40.5870 H   0  0  0  0  0  0  0  0  0  0  0  0
   36.6460   28.7440   41.1630 C   0  0  0  0  0  0  0  0  0  0  0  0
   37.7230   29.1170   41.9110 C   0  0  0  0  0  0  0  0  0  0  0  0
   38.6760   28.2560   42.4490 C   0  0  0  0  0  0  0  0  0  0  0  0
   38.4990   26.9200   42.1910 C   0  0  0  0  0  0  0  0  0  0  0  0
   37.4200   26.5690   41.4390 C   0  0  0  0  0  0  0  0  0  0  0  0
   36.5170   27.4020   40.9330 N   0  0  0  0  0  0  0  0  0  0  0  0
   37.7590   30.2100   42.0510 H   0  0  0  0  0  0  0  0  0  0  0  0
   39.4250   28.7680   42.9960 H   0  0  0  0  0  0  0  0  0  0  0  0
   39.5700   26.0960   42.8150 C   0  0  0  0  0  3  0  0  0  0  0  0
   40.8750   26.1780   41.9850 C   0  0  0  0  0  2  0  0  0  0  0  0
   41.8180   25.1300   42.5660 C   0  0  0  0  0  2  0  0  0  0  0  0
   42.3650   25.7710   43.8330 C   0  0  0  0  0  2  0  0  0  0  0  0
   41.4590   26.8680   44.3170 C   0  0  0  0  0  2  0  0  0  0  0  0
   39.9720   26.5000   44.1880 C   0  0  0  0  0  2  0  0  0  0  0  0
   37.3500   25.0940   41.1580 C   0  0  0  0  0  0  0  0  0  0  0  0
   37.1860   24.3750   42.3220 F   0  0  0  0  0  0  0  0  0  0  0  0
   38.4630   24.6250   40.4880 F   0  0  0  0  0  0  0  0  0  0  0  0
   36.2700   24.8310   40.3440 F   0  0  0  0  0  0  0  0  0  0  0  0
   35.8170   30.0000   39.1790 C   0  0  0  0  0  0  0  0  0  0  0  0
   35.8910   29.1770   38.4490 H   0  0  0  0  0  0  0  0  0  0  0  0
   34.9490   30.6350   38.8840 H   0  0  0  0  0  0  0  0  0  0  0  0
   39.1870   31.3980   38.5210 C   0  0  0  0  0  0  0  0  0  0  0  0
   39.0750   32.5510   39.1890 C   0  0  0  0  0  0  0  0  0  0  0  0
   37.3470   32.4440   39.8550 S   0  0  0  0  0  0  0  0  0  0  0  0
   37.0980   30.7830   39.0650 C   0  0  0  0  0  0  0  0  0  0  0  0
   38.1210   30.6740   38.5770 N   0  0  0  0  0  0  0  0  0  0  0  0
   39.8190   33.3350   39.3010 H   0  0  0  0  0  0  0  0  0  0  0  0
   41.8790   29.3590   36.8570 C   0  0  0  0  0  0  0  0  0  0  0  0
   40.7060   29.6670   37.5600 C   0  0  0  0  0  0  0  0  0  0  0  0
   40.4060   30.9810   37.7860 C   0  0  0  0  0  0  0  0  0  0  0  0
   41.2920   31.9290   37.2990 N   0  0  0  0  0  0  0  0  0  0  0  0
   42.4060   31.5670   36.6290 C   0  0  0  0  0  0  0  0  0  0  0  0
   42.6960   30.2920   36.4100 N   0  0  0  0  0  0  0  0  0  0  0  0
   42.1600   28.3210   36.6530 H   0  0  0  0  0  0  0  0  0  0  0  0
   42.9960   32.4210   36.3130 H   0  0  0  0  0  0  0  0  0  0  0  0
   39.9050   28.5770   37.9920 N   0  0  0  0  0  0  0  0  0  0  0  0
   40.4240   27.7320   38.3610 H   0  0  0  0  0  0  0  0  0  0  0  0
   38.8640   28.6780   37.9170 H   0  0  0  0  0  0  0  0  0  0  0  0
  1  3  1  0  0  0  0
  1  4  1  0  0  0  0
  1  2  1  0  0  0  0
  4  5  1  0  0  0  0
  5 10  1  0  0  0  0
  5  6  2  0  0  0  0
  6 11  1  0  0  0  0
  7  6  1  0  0  0  0
  7 12  1  0  0  0  0
  8  7  2  0  0  0  0
  9  4  2  0  0  0  0
  9  8  1  0  0  0  0
 12 17  1  0  0  0  0
 13 14  1  0  0  0  0
 13 12  1  0  0  0  0
 14 15  1  0  0  0  0
 15 16  1  0  0  0  0
 17 16  1  0  0  0  0
 18  8  1  0  0  0  0
 18 19  1  0  0  0  0
 20 18  1  0  0  0  0
 21 18  1  0  0  0  0
 22  1  1  0  0  0  0
 23 22  1  0  0  0  0
 24 22  1  0  0  0  0
 25 29  1  0  0  0  0
 25 26  2  0  0  0  0
 26 30  1  0  0  0  0
 26 27  1  0  0  0  0
 28 22  1  0  0  0  0
 28 27  1  0  0  0  0
 29 28  2  0  0  0  0
 31 32  1  0  0  0  0
 32 33  2  0  0  0  0
 32 39  1  0  0  0  0
 33 25  1  0  0  0  0
 34 33  1  0  0  0  0
 35 34  2  0  0  0  0
 36 35  1  0  0  0  0
 36 31  2  0  0  0  0
 37 31  1  0  0  0  0
 38 35  1  0  0  0  0
 39 40  1  0  0  0  0
 41 39  1  0  0  0  0
M  END
>  <minimizedAffinity>
-6.03560829

$$$$
