
 OpenBabel03252501073D

 37 40  0  0  1  0  0  0  0  0999 V2000
   48.8760   32.4730   38.4050 O   0  0  0  0  0  0  0  0  0  0  0  0
   48.0570   33.7600   38.5120 P   0  0  2  0  0  0  0  0  0  0  0  0
   48.9220   34.9140   37.6190 O   0  0  0  0  0  0  0  0  0  0  0  0
   49.9050   34.7680   37.6980 H   0  0  0  0  0  0  0  0  0  0  0  0
   47.7530   34.1760   40.0630 O   0  0  0  0  0  0  0  0  0  0  0  0
   48.2150   35.5410   42.0080 C   0  0  1  0  0  0  0  0  0  0  0  0
   49.4350   34.7450   41.8290 C   0  0  0  0  0  0  0  0  0  0  0  0
   48.5250   35.1140   40.6430 C   0  0  1  0  0  0  0  0  0  0  0  0
   48.2350   36.6320   42.2500 H   0  0  0  0  0  0  0  0  0  0  0  0
   50.4020   35.2830   41.9250 H   0  0  0  0  0  0  0  0  0  0  0  0
   49.4650   33.6690   42.0800 H   0  0  0  0  0  0  0  0  0  0  0  0
   49.0460   35.8000   39.9510 H   0  0  0  0  0  0  0  0  0  0  0  0
   46.2790   33.0540   44.1100 C   0  0  0  0  0  0  0  0  0  0  0  0
   47.3410   33.7130   43.5010 C   0  0  0  0  0  0  0  0  0  0  0  0
   47.0770   34.8300   42.6870 C   0  0  0  0  0  0  0  0  0  0  0  0
   45.7970   35.2380   42.5150 N   0  0  0  0  0  0  0  0  0  0  0  0
   44.7740   34.5760   43.1220 C   0  0  0  0  0  0  0  0  0  0  0  0
   45.0140   33.4910   43.9140 N   0  0  0  0  0  0  0  0  0  0  0  0
   46.4200   32.1970   44.7410 H   0  0  0  0  0  0  0  0  0  0  0  0
   48.3230   33.3410   43.6800 H   0  0  0  0  0  0  0  0  0  0  0  0
   43.7660   34.9190   42.9690 H   0  0  0  0  0  0  0  0  0  0  0  0
   46.6350   33.4360   37.6790 O   0  0  0  0  0  0  0  0  0  0  0  0
   45.5120   32.8730   38.2470 C   0  0  0  0  0  0  0  0  0  0  0  0
   45.3710   31.6460   38.8570 C   0  0  0  0  0  0  0  0  0  0  0  0
   44.1890   31.2240   39.3740 C   0  0  0  0  0  0  0  0  0  0  0  0
   43.0830   32.0300   39.2970 C   0  0  0  0  0  0  0  0  0  0  0  0
   43.2370   33.2800   38.6720 C   0  0  0  0  0  0  0  0  0  0  0  0
   44.4420   33.6610   38.1680 N   0  0  0  0  0  0  0  0  0  0  0  0
   46.2910   31.0570   38.8840 H   0  0  0  0  0  0  0  0  0  0  0  0
   44.1260   30.2450   39.8490 H   0  0  0  0  0  0  0  0  0  0  0  0
   42.1790   31.6420   39.7230 H   0  0  0  0  0  0  0  0  0  0  0  0
   42.0110   34.1450   38.6000 C   0  0  0  0  0  0  0  0  0  0  0  0
   40.8030   33.3690   38.1980 C   0  0  0  0  0  0  0  0  0  0  0  0
   39.5040   34.0410   38.3930 C   0  0  0  0  0  0  0  0  0  0  0  0
   39.4340   34.9500   39.5870 C   0  0  0  0  0  0  0  0  0  0  0  0
   40.5460   34.4390   40.5160 C   0  0  0  0  0  0  0  0  0  0  0  0
   41.8210   34.9080   39.8580 C   0  0  0  0  0  0  0  0  0  0  0  0
  2  1  2  1  0  0  0
  2  5  1  0  0  0  0
  3  4  1  0  0  0  0
  3  2  1  0  0  0  0
  5  8  1  0  0  0  0
  6  9  1  1  0  0  0
  6 15  1  0  0  0  0
  7 10  1  0  0  0  0
  7  6  1  0  0  0  0
  7 11  1  0  0  0  0
  8 12  1  6  0  0  0
  8  7  1  0  0  0  0
  8  6  1  0  0  0  0
 13 19  1  0  0  0  0
 14 20  1  0  0  0  0
 14 13  2  0  0  0  0
 15 14  1  0  0  0  0
 16 15  2  0  0  0  0
 16 17  1  0  0  0  0
 17 18  2  0  0  0  0
 18 13  1  0  0  0  0
 21 17  1  0  0  0  0
 22 23  1  0  0  0  0
 22  2  1  0  0  0  0
 23 24  1  0  0  0  0
 24 29  1  0  0  0  0
 24 25  2  0  0  0  0
 25 30  1  0  0  0  0
 26 25  1  0  0  0  0
 26 31  1  0  0  0  0
 27 26  2  0  0  0  0
 28 23  2  0  0  0  0
 28 27  1  0  0  0  0
 32 27  1  0  0  0  0
 32 37  1  0  0  0  0
 33 34  1  0  0  0  0
 33 32  1  0  0  0  0
 34 35  1  0  0  0  0
 35 36  1  0  0  0  0
 37 36  1  0  0  0  0
M  END
>  <minimizedAffinity>
-5.7297616

>  <minimizedRMSD>
2.16288424

$$$$
