
 OpenBabel03252505093D

 40 43  0  0  1  0  0  0  0  0999 V2000
   39.6700   34.7230   39.9480 C   0  0  0  0  0  0  0  0  0  0  0  0
   38.6750   33.7810   40.2960 C   0  0  0  0  0  0  0  0  0  0  0  0
   38.9910   32.4080   40.1690 C   0  0  0  0  0  0  0  0  0  0  0  0
   40.2280   32.0610   39.7220 N   0  0  0  0  0  0  0  0  0  0  0  0
   41.1480   32.9870   39.4010 C   0  0  0  0  0  0  0  0  0  0  0  0
   40.8740   34.3240   39.5120 N   0  0  0  0  0  0  0  0  0  0  0  0
   39.4040   35.7710   40.0540 H   0  0  0  0  0  0  0  0  0  0  0  0
   37.6900   34.0240   40.6520 H   0  0  0  0  0  0  0  0  0  0  0  0
   42.4860   32.5460   38.9120 C   0  0  2  0  0  0  0  0  0  0  0  0
   43.2840   32.2410   40.1500 C   0  0  0  0  0  0  0  0  0  0  0  0
   44.3030   33.2350   40.5280 C   0  0  0  0  0  0  0  0  0  0  0  0
   45.1930   33.4120   39.3060 C   0  0  0  0  0  0  0  0  0  0  0  0
   44.4710   33.9920   38.1790 C   0  0  0  0  0  0  0  0  0  0  0  0
   43.0730   33.5140   38.0140 C   0  0  0  0  0  0  0  0  0  0  0  0
   42.2890   31.5990   38.3640 H   0  0  0  0  0  0  0  0  0  0  0  0
   43.8110   31.2680   39.9860 H   0  0  0  0  0  0  0  0  0  0  0  0
   42.6420   32.0600   41.0430 H   0  0  0  0  0  0  0  0  0  0  0  0
   43.7950   34.2190   40.7220 H   0  0  0  0  0  0  0  0  0  0  0  0
   44.8840   32.8580   41.3660 H   0  0  0  0  0  0  0  0  0  0  0  0
   45.9410   34.1600   39.6020 H   0  0  0  0  0  0  0  0  0  0  0  0
   45.6260   32.4370   39.0810 H   0  0  0  0  0  0  0  0  0  0  0  0
   44.7230   34.6990   37.4250 H   0  0  0  0  0  0  0  0  0  0  0  0
   42.2580   34.0050   36.9480 N   0  0  0  0  0  0  0  0  0  0  0  0
   41.6300   34.8460   36.8330 H   0  0  0  0  0  0  0  0  0  0  0  0
   42.1490   33.5660   36.0280 H   0  0  0  0  0  0  0  0  0  0  0  0
   37.9930   31.4160   40.5200 C   0  0  0  0  0  0  0  0  0  0  0  0
   36.8450   31.3760   39.7940 C   0  0  0  0  0  0  0  0  0  0  0  0
   35.9010   30.4030   40.1630 C   0  0  0  0  0  0  0  0  0  0  0  0
   36.2330   29.5860   41.2230 C   0  0  0  0  0  0  0  0  0  0  0  0
   37.3870   29.6320   41.9480 C   0  0  0  0  0  0  0  0  0  0  0  0
   38.2610   30.5890   41.5490 N   0  0  0  0  0  0  0  0  0  0  0  0
   36.6080   32.0300   38.9660 H   0  0  0  0  0  0  0  0  0  0  0  0
   34.9660   30.3080   39.6370 H   0  0  0  0  0  0  0  0  0  0  0  0
   35.4870   28.8450   41.4870 H   0  0  0  0  0  0  0  0  0  0  0  0
   37.7100   28.7330   43.0860 C   0  0  0  0  0  3  0  0  0  0  0  0
   39.1460   28.2870   43.0670 C   0  0  0  0  0  2  0  0  0  0  0  0
   39.2190   26.9160   43.7030 C   0  0  0  0  0  2  0  0  0  0  0  0
   38.6260   25.8840   42.7590 C   0  0  0  0  0  2  0  0  0  0  0  0
   37.3790   26.4580   42.1180 C   0  0  0  0  0  2  0  0  0  0  0  0
   36.8430   27.4850   43.0690 C   0  0  0  0  0  2  0  0  0  0  0  0
  1  7  1  0  0  0  0
  1  2  1  0  0  0  0
  2  8  1  0  0  0  0
  3  2  2  0  0  0  0
  3 26  1  0  0  0  0
  4  3  1  0  0  0  0
  5  6  1  0  0  0  0
  5  4  2  0  0  0  0
  6  1  2  0  0  0  0
  9 15  1  6  0  0  0
  9  5  1  0  0  0  0
  9 10  1  0  0  0  0
 10 11  1  0  0  0  0
 10 17  1  0  0  0  0
 11 18  1  0  0  0  0
 11 19  1  0  0  0  0
 12 20  1  0  0  0  0
 12 11  1  0  0  0  0
 13 12  1  0  0  0  0
 14 13  2  0  0  0  0
 14  9  1  0  0  0  0
 16 10  1  0  0  0  0
 21 12  1  0  0  0  0
 22 13  1  0  0  0  0
 23 14  1  0  0  0  0
 24 23  1  0  0  0  0
 25 23  1  0  0  0  0
 26 31  1  0  0  0  0
 27 28  1  0  0  0  0
 27 26  2  0  0  0  0
 28 29  2  0  0  0  0
 29 34  1  0  0  0  0
 29 30  1  0  0  0  0
 30 35  1  0  0  0  0
 31 30  2  0  0  0  0
 32 27  1  0  0  0  0
 33 28  1  0  0  0  0
 36 35  1  0  0  0  0
 36 37  1  0  0  0  0
 38 37  1  0  0  0  0
 39 38  1  0  0  0  0
 39 40  1  0  0  0  0
 40 35  1  0  0  0  0
M  END
>  <minimizedAffinity>
-7.20364428

$$$$

 OpenBabel03252505093D

 40 43  0  0  1  0  0  0  0  0999 V2000
   37.4510   32.6200   39.9170 C   0  0  0  0  0  0  0  0  0  0  0  0
   37.0950   31.4600   40.6420 C   0  0  0  0  0  0  0  0  0  0  0  0
   38.0910   30.4760   40.8470 C   0  0  0  0  0  0  0  0  0  0  0  0
   39.3350   30.6910   40.3410 N   0  0  0  0  0  0  0  0  0  0  0  0
   39.6350   31.8080   39.6550 C   0  0  0  0  0  0  0  0  0  0  0  0
   38.6940   32.7790   39.4390 N   0  0  0  0  0  0  0  0  0  0  0  0
   36.6690   33.3600   39.7730 H   0  0  0  0  0  0  0  0  0  0  0  0
   36.1220   31.2620   41.0550 H   0  0  0  0  0  0  0  0  0  0  0  0
   41.0150   31.9860   39.1200 C   0  0  2  0  0  0  0  0  0  0  0  0
   41.8070   32.5920   40.2460 C   0  0  0  0  0  0  0  0  0  0  0  0
   42.1120   34.0290   40.1280 C   0  0  0  0  0  0  0  0  0  0  0  0
   42.8080   34.2020   38.7850 C   0  0  0  0  0  0  0  0  0  0  0  0
   41.9280   33.8880   37.6650 C   0  0  0  0  0  0  0  0  0  0  0  0
   41.0170   32.7330   37.8830 C   0  0  0  0  0  0  0  0  0  0  0  0
   41.3820   30.9530   38.9330 H   0  0  0  0  0  0  0  0  0  0  0  0
   42.7820   32.0480   40.3110 H   0  0  0  0  0  0  0  0  0  0  0  0
   41.3330   32.4290   41.2420 H   0  0  0  0  0  0  0  0  0  0  0  0
   41.1460   34.6010   40.0850 H   0  0  0  0  0  0  0  0  0  0  0  0
   42.7740   34.3260   40.9360 H   0  0  0  0  0  0  0  0  0  0  0  0
   43.0210   35.2760   38.7100 H   0  0  0  0  0  0  0  0  0  0  0  0
   43.7070   33.5850   38.8090 H   0  0  0  0  0  0  0  0  0  0  0  0
   41.7840   34.3080   36.6980 H   0  0  0  0  0  0  0  0  0  0  0  0
   40.1050   32.3240   36.8630 N   0  0  0  0  0  0  0  0  0  0  0  0
   39.1260   32.6150   36.5940 H   0  0  0  0  0  0  0  0  0  0  0  0
   40.2830   31.6040   36.1550 H   0  0  0  0  0  0  0  0  0  0  0  0
   37.7590   29.2760   41.5910 C   0  0  0  0  0  0  0  0  0  0  0  0
   37.7390   29.3470   42.9470 C   0  0  0  0  0  0  0  0  0  0  0  0
   37.4140   28.1640   43.6340 C   0  0  0  0  0  0  0  0  0  0  0  0
   37.1480   27.0520   42.8640 C   0  0  0  0  0  0  0  0  0  0  0  0
   37.1710   26.9880   41.5020 C   0  0  0  0  0  0  0  0  0  0  0  0
   37.4900   28.1570   40.8920 N   0  0  0  0  0  0  0  0  0  0  0  0
   37.9520   30.2330   43.5290 H   0  0  0  0  0  0  0  0  0  0  0  0
   37.3770   28.1390   44.7100 H   0  0  0  0  0  0  0  0  0  0  0  0
   36.9000   26.1550   43.4180 H   0  0  0  0  0  0  0  0  0  0  0  0
   36.8770   25.7690   40.7060 C   0  0  0  0  0  3  0  0  0  0  0  0
   36.8100   24.5340   41.5610 C   0  0  0  0  0  2  0  0  0  0  0  0
   37.2470   23.3560   40.7180 C   0  0  0  0  0  2  0  0  0  0  0  0
   38.7480   23.4200   40.4900 C   0  0  0  0  0  2  0  0  0  0  0  0
   39.1460   24.8560   40.2160 C   0  0  0  0  0  2  0  0  0  0  0  0
   37.9370   25.5330   39.6430 C   0  0  0  0  0  2  0  0  0  0  0  0
  1  2  1  0  0  0  0
  2  3  2  0  0  0  0
  2  8  1  0  0  0  0
  3 26  1  0  0  0  0
  4  3  1  0  0  0  0
  5  4  2  0  0  0  0
  6  5  1  0  0  0  0
  6  1  2  0  0  0  0
  7  1  1  0  0  0  0
  9 15  1  6  0  0  0
  9  5  1  0  0  0  0
  9 10  1  0  0  0  0
 10 16  1  0  0  0  0
 10 17  1  0  0  0  0
 11 10  1  0  0  0  0
 11 19  1  0  0  0  0
 12 21  1  0  0  0  0
 12 11  1  0  0  0  0
 13 14  2  0  0  0  0
 13 12  1  0  0  0  0
 14  9  1  0  0  0  0
 18 11  1  0  0  0  0
 20 12  1  0  0  0  0
 22 13  1  0  0  0  0
 23 14  1  0  0  0  0
 24 23  1  0  0  0  0
 25 23  1  0  0  0  0
 26 27  1  0  0  0  0
 27 32  1  0  0  0  0
 27 28  2  0  0  0  0
 28 33  1  0  0  0  0
 29 34  1  0  0  0  0
 29 28  1  0  0  0  0
 30 29  2  0  0  0  0
 31 30  1  0  0  0  0
 31 26  2  0  0  0  0
 35 30  1  0  0  0  0
 35 36  1  0  0  0  0
 37 36  1  0  0  0  0
 38 37  1  0  0  0  0
 39 38  1  0  0  0  0
 40 39  1  0  0  0  0
 40 35  1  0  0  0  0
M  END
>  <minimizedAffinity>
-6.98587894

$$$$

 OpenBabel03252505093D

 40 43  0  0  1  0  0  0  0  0999 V2000
   36.1030   25.1310   38.9840 C   0  0  0  0  0  0  0  0  0  0  0  0
   36.2380   26.4230   38.4250 C   0  0  0  0  0  0  0  0  0  0  0  0
   36.8130   27.4350   39.2290 C   0  0  0  0  0  0  0  0  0  0  0  0
   37.2050   27.1210   40.4930 N   0  0  0  0  0  0  0  0  0  0  0  0
   37.0590   25.8800   40.9900 C   0  0  0  0  0  0  0  0  0  0  0  0
   36.5060   24.8780   40.2380 N   0  0  0  0  0  0  0  0  0  0  0  0
   35.6600   24.3720   38.3470 H   0  0  0  0  0  0  0  0  0  0  0  0
   35.9390   26.7010   37.4310 H   0  0  0  0  0  0  0  0  0  0  0  0
   37.5040   25.5970   42.3850 C   0  0  2  0  0  0  0  0  0  0  0  0
   37.6090   26.9400   43.0530 C   0  0  0  0  0  0  0  0  0  0  0  0
   38.9720   27.4620   43.2550 C   0  0  0  0  0  0  0  0  0  0  0  0
   39.7250   26.3840   44.0220 C   0  0  0  0  0  0  0  0  0  0  0  0
   39.8790   25.1600   43.2430 C   0  0  0  0  0  0  0  0  0  0  0  0
   38.7030   24.7910   42.4100 C   0  0  0  0  0  0  0  0  0  0  0  0
   36.6630   25.0300   42.8400 H   0  0  0  0  0  0  0  0  0  0  0  0
   37.1290   26.8600   44.0600 H   0  0  0  0  0  0  0  0  0  0  0  0
   37.0210   27.7290   42.5290 H   0  0  0  0  0  0  0  0  0  0  0  0
   39.4680   27.5740   42.2530 H   0  0  0  0  0  0  0  0  0  0  0  0
   38.9270   28.3770   43.8380 H   0  0  0  0  0  0  0  0  0  0  0  0
   40.7390   26.7840   44.1570 H   0  0  0  0  0  0  0  0  0  0  0  0
   39.1950   26.2290   44.9610 H   0  0  0  0  0  0  0  0  0  0  0  0
   40.6620   24.4490   43.1310 H   0  0  0  0  0  0  0  0  0  0  0  0
   38.7270   23.6150   41.6010 N   0  0  0  0  0  0  0  0  0  0  0  0
   39.0640   23.4040   40.6220 H   0  0  0  0  0  0  0  0  0  0  0  0
   38.3810   22.6900   41.8790 H   0  0  0  0  0  0  0  0  0  0  0  0
   36.9690   28.7700   38.6840 C   0  0  0  0  0  0  0  0  0  0  0  0
   36.9300   28.9200   37.3340 C   0  0  0  0  0  0  0  0  0  0  0  0
   37.0850   30.2270   36.8410 C   0  0  0  0  0  0  0  0  0  0  0  0
   37.2600   31.2250   37.7760 C   0  0  0  0  0  0  0  0  0  0  0  0
   37.2980   31.0680   39.1300 C   0  0  0  0  0  0  0  0  0  0  0  0
   37.1430   29.7880   39.5490 N   0  0  0  0  0  0  0  0  0  0  0  0
   36.7910   28.1180   36.6220 H   0  0  0  0  0  0  0  0  0  0  0  0
   37.0660   30.4280   35.7840 H   0  0  0  0  0  0  0  0  0  0  0  0
   37.3770   32.2230   37.3690 H   0  0  0  0  0  0  0  0  0  0  0  0
   37.4890   32.1710   40.1060 C   0  0  0  0  0  3  0  0  0  0  0  0
   37.4490   33.5240   39.4500 C   0  0  0  0  0  2  0  0  0  0  0  0
   38.3290   34.4580   40.2510 C   0  0  0  0  0  2  0  0  0  0  0  0
   39.7890   34.1100   40.0140 C   0  0  0  0  0  2  0  0  0  0  0  0
   39.9430   32.6030   39.9980 C   0  0  0  0  0  2  0  0  0  0  0  0
   38.8220   32.0500   40.8250 C   0  0  0  0  0  2  0  0  0  0  0  0
  1  6  1  0  0  0  0
  2  1  2  0  0  0  0
  2  3  1  0  0  0  0
  3  4  2  0  0  0  0
  4  5  1  0  0  0  0
  5  9  1  0  0  0  0
  6  5  2  0  0  0  0
  7  1  1  0  0  0  0
  8  2  1  0  0  0  0
  9 14  1  0  0  0  0
  9 15  1  1  0  0  0
  9 10  1  0  0  0  0
 10 11  1  0  0  0  0
 10 16  1  0  0  0  0
 11 19  1  0  0  0  0
 11 12  1  0  0  0  0
 12 20  1  0  0  0  0
 12 21  1  0  0  0  0
 13 12  1  0  0  0  0
 14 13  2  0  0  0  0
 17 10  1  0  0  0  0
 18 11  1  0  0  0  0
 22 13  1  0  0  0  0
 23 25  1  0  0  0  0
 23 14  1  0  0  0  0
 24 23  1  0  0  0  0
 26  3  1  0  0  0  0
 26 31  1  0  0  0  0
 27 26  2  0  0  0  0
 28 27  1  0  0  0  0
 28 29  2  0  0  0  0
 29 30  1  0  0  0  0
 30 31  2  0  0  0  0
 30 35  1  0  0  0  0
 32 27  1  0  0  0  0
 33 28  1  0  0  0  0
 34 29  1  0  0  0  0
 35 40  1  0  0  0  0
 36 35  1  0  0  0  0
 36 37  1  0  0  0  0
 38 37  1  0  0  0  0
 39 38  1  0  0  0  0
 39 40  1  0  0  0  0
M  END
>  <minimizedAffinity>
-6.78394127

$$$$

 OpenBabel03252505093D

 40 43  0  0  1  0  0  0  0  0999 V2000
   40.3800   33.0100   40.4010 C   0  0  0  0  0  0  0  0  0  0  0  0
   40.7310   31.9120   41.2190 C   0  0  0  0  0  0  0  0  0  0  0  0
   39.9330   30.7460   41.1410 C   0  0  0  0  0  0  0  0  0  0  0  0
   38.8730   30.7370   40.2890 N   0  0  0  0  0  0  0  0  0  0  0  0
   38.5700   31.8020   39.5270 C   0  0  0  0  0  0  0  0  0  0  0  0
   39.3220   32.9460   39.5790 N   0  0  0  0  0  0  0  0  0  0  0  0
   41.0080   33.8930   40.4790 H   0  0  0  0  0  0  0  0  0  0  0  0
   41.5620   31.8890   41.9010 H   0  0  0  0  0  0  0  0  0  0  0  0
   37.3930   31.7340   38.6140 C   0  0  2  0  0  0  0  0  0  0  0  0
   36.4440   30.7600   39.2560 C   0  0  0  0  0  0  0  0  0  0  0  0
   36.3690   29.4230   38.6400 C   0  0  0  0  0  0  0  0  0  0  0  0
   36.0410   29.6540   37.1720 C   0  0  0  0  0  0  0  0  0  0  0  0
   37.1130   30.3540   36.4730 C   0  0  0  0  0  0  0  0  0  0  0  0
   37.7850   31.4240   37.2580 C   0  0  0  0  0  0  0  0  0  0  0  0
   36.9480   32.7520   38.6500 H   0  0  0  0  0  0  0  0  0  0  0  0
   35.4180   31.2040   39.2150 H   0  0  0  0  0  0  0  0  0  0  0  0
   36.6410   30.6190   40.3440 H   0  0  0  0  0  0  0  0  0  0  0  0
   37.3850   28.9450   38.6900 H   0  0  0  0  0  0  0  0  0  0  0  0
   35.5790   28.8490   39.1170 H   0  0  0  0  0  0  0  0  0  0  0  0
   35.9970   28.6500   36.7280 H   0  0  0  0  0  0  0  0  0  0  0  0
   35.0890   30.1830   37.1350 H   0  0  0  0  0  0  0  0  0  0  0  0
   37.5370   30.2740   35.5000 H   0  0  0  0  0  0  0  0  0  0  0  0
   38.8500   32.1840   36.6870 N   0  0  0  0  0  0  0  0  0  0  0  0
   39.8950   32.0440   36.6160 H   0  0  0  0  0  0  0  0  0  0  0  0
   38.7520   33.0830   36.2040 H   0  0  0  0  0  0  0  0  0  0  0  0
   40.2680   29.6010   41.9650 C   0  0  0  0  0  0  0  0  0  0  0  0
   41.5270   29.5230   42.4720 C   0  0  0  0  0  0  0  0  0  0  0  0
   41.8170   28.3990   43.2650 C   0  0  0  0  0  0  0  0  0  0  0  0
   40.7960   27.4910   43.4500 C   0  0  0  0  0  0  0  0  0  0  0  0
   39.5350   27.5750   42.9380 C   0  0  0  0  0  0  0  0  0  0  0  0
   39.3120   28.6780   42.1820 N   0  0  0  0  0  0  0  0  0  0  0  0
   42.3100   30.2500   42.3110 H   0  0  0  0  0  0  0  0  0  0  0  0
   42.7910   28.2640   43.7030 H   0  0  0  0  0  0  0  0  0  0  0  0
   41.0470   26.6340   44.0660 H   0  0  0  0  0  0  0  0  0  0  0  0
   38.4610   26.5740   43.1610 C   0  0  0  0  0  3  0  0  0  0  0  0
   38.8180   25.2240   42.6020 C   0  0  0  0  0  2  0  0  0  0  0  0
   37.5360   24.5320   42.1940 C   0  0  0  0  0  2  0  0  0  0  0  0
   36.9840   25.1830   40.9370 C   0  0  0  0  0  2  0  0  0  0  0  0
   37.1400   26.6860   41.0480 C   0  0  0  0  0  2  0  0  0  0  0  0
   37.1570   27.0080   42.5110 C   0  0  0  0  0  2  0  0  0  0  0  0
  1  7  1  0  0  0  0
  1  2  1  0  0  0  0
  2  8  1  0  0  0  0
  3  2  2  0  0  0  0
  3 26  1  0  0  0  0
  4  3  1  0  0  0  0
  5  6  1  0  0  0  0
  5  4  2  0  0  0  0
  6  1  2  0  0  0  0
  9 15  1  6  0  0  0
  9 10  1  0  0  0  0
  9  5  1  0  0  0  0
 10 17  1  0  0  0  0
 11 18  1  0  0  0  0
 11 19  1  0  0  0  0
 11 10  1  0  0  0  0
 12 11  1  0  0  0  0
 13 12  1  0  0  0  0
 13 14  2  0  0  0  0
 14  9  1  0  0  0  0
 16 10  1  0  0  0  0
 20 12  1  0  0  0  0
 21 12  1  0  0  0  0
 22 13  1  0  0  0  0
 23 14  1  0  0  0  0
 24 23  1  0  0  0  0
 25 23  1  0  0  0  0
 26 31  2  0  0  0  0
 26 27  1  0  0  0  0
 27 28  2  0  0  0  0
 28 29  1  0  0  0  0
 28 33  1  0  0  0  0
 29 34  1  0  0  0  0
 30 35  1  0  0  0  0
 30 29  2  0  0  0  0
 31 30  1  0  0  0  0
 32 27  1  0  0  0  0
 36 35  1  0  0  0  0
 37 36  1  0  0  0  0
 38 39  1  0  0  0  0
 38 37  1  0  0  0  0
 39 40  1  0  0  0  0
 40 35  1  0  0  0  0
M  END
>  <minimizedAffinity>
-6.76141071

$$$$

 OpenBabel03252505093D

 40 43  0  0  1  0  0  0  0  0999 V2000
   38.2990   32.9570   40.4080 C   0  0  0  0  0  0  0  0  0  0  0  0
   37.8500   31.7740   41.0370 C   0  0  0  0  0  0  0  0  0  0  0  0
   38.6590   30.6180   40.9280 C   0  0  0  0  0  0  0  0  0  0  0  0
   39.8230   30.6990   40.2290 N   0  0  0  0  0  0  0  0  0  0  0  0
   40.2170   31.8440   39.6440 C   0  0  0  0  0  0  0  0  0  0  0  0
   39.4560   32.9800   39.7290 N   0  0  0  0  0  0  0  0  0  0  0  0
   37.6610   33.8300   40.5050 H   0  0  0  0  0  0  0  0  0  0  0  0
   36.9370   31.6780   41.5960 H   0  0  0  0  0  0  0  0  0  0  0  0
   41.5010   31.8710   38.8860 C   0  0  2  0  0  0  0  0  0  0  0  0
   42.5370   32.3350   39.8710 C   0  0  0  0  0  0  0  0  0  0  0  0
   42.9980   33.7270   39.7240 C   0  0  0  0  0  0  0  0  0  0  0  0
   43.4790   33.8620   38.2870 C   0  0  0  0  0  0  0  0  0  0  0  0
   42.3930   33.6980   37.3260 C   0  0  0  0  0  0  0  0  0  0  0  0
   41.3920   32.6560   37.6780 C   0  0  0  0  0  0  0  0  0  0  0  0
   41.6980   30.8090   38.6250 H   0  0  0  0  0  0  0  0  0  0  0  0
   43.4330   31.6740   39.7630 H   0  0  0  0  0  0  0  0  0  0  0  0
   42.2180   32.1960   40.9310 H   0  0  0  0  0  0  0  0  0  0  0  0
   42.1180   34.4150   39.8530 H   0  0  0  0  0  0  0  0  0  0  0  0
   43.8170   33.9130   40.4140 H   0  0  0  0  0  0  0  0  0  0  0  0
   43.8100   34.9050   38.1920 H   0  0  0  0  0  0  0  0  0  0  0  0
   44.2840   33.1400   38.1490 H   0  0  0  0  0  0  0  0  0  0  0  0
   42.1450   34.1670   36.4040 H   0  0  0  0  0  0  0  0  0  0  0  0
   40.2800   32.3980   36.8200 N   0  0  0  0  0  0  0  0  0  0  0  0
   39.3150   32.8160   36.7240 H   0  0  0  0  0  0  0  0  0  0  0  0
   40.2460   31.6870   36.0820 H   0  0  0  0  0  0  0  0  0  0  0  0
   38.2280   29.3890   41.5650 C   0  0  0  0  0  0  0  0  0  0  0  0
   36.9650   28.9500   41.3220 C   0  0  0  0  0  0  0  0  0  0  0  0
   36.5810   27.7560   41.9560 C   0  0  0  0  0  0  0  0  0  0  0  0
   37.5230   27.1490   42.7600 C   0  0  0  0  0  0  0  0  0  0  0  0
   38.7890   27.5960   43.0000 C   0  0  0  0  0  0  0  0  0  0  0  0
   39.1050   28.7510   42.3630 N   0  0  0  0  0  0  0  0  0  0  0  0
   36.2440   29.4450   40.6860 H   0  0  0  0  0  0  0  0  0  0  0  0
   35.5970   27.3430   41.8140 H   0  0  0  0  0  0  0  0  0  0  0  0
   37.2010   26.2310   43.2370 H   0  0  0  0  0  0  0  0  0  0  0  0
   39.7780   26.9130   43.8740 C   0  0  0  0  0  3  0  0  0  0  0  0
   41.1740   27.4300   43.6620 C   0  0  0  0  0  2  0  0  0  0  0  0
   42.1400   26.3020   43.9550 C   0  0  0  0  0  2  0  0  0  0  0  0
   42.0810   25.2770   42.8350 C   0  0  0  0  0  2  0  0  0  0  0  0
   40.6360   25.0740   42.4240 C   0  0  0  0  0  2  0  0  0  0  0  0
   39.8000   25.4150   43.6200 C   0  0  0  0  0  2  0  0  0  0  0  0
  1  7  1  0  0  0  0
  1  2  1  0  0  0  0
  2  8  1  0  0  0  0
  3  2  2  0  0  0  0
  3 26  1  0  0  0  0
  4  3  1  0  0  0  0
  5  6  1  0  0  0  0
  5  4  2  0  0  0  0
  6  1  2  0  0  0  0
  9 15  1  6  0  0  0
  9  5  1  0  0  0  0
  9 10  1  0  0  0  0
 10 17  1  0  0  0  0
 11 18  1  0  0  0  0
 11 10  1  0  0  0  0
 11 19  1  0  0  0  0
 12 11  1  0  0  0  0
 13 14  2  0  0  0  0
 13 12  1  0  0  0  0
 14  9  1  0  0  0  0
 16 10  1  0  0  0  0
 20 12  1  0  0  0  0
 21 12  1  0  0  0  0
 22 13  1  0  0  0  0
 23 14  1  0  0  0  0
 24 23  1  0  0  0  0
 25 23  1  0  0  0  0
 26 31  1  0  0  0  0
 27 26  2  0  0  0  0
 27 28  1  0  0  0  0
 28 29  2  0  0  0  0
 29 30  1  0  0  0  0
 29 34  1  0  0  0  0
 30 35  1  0  0  0  0
 31 30  2  0  0  0  0
 32 27  1  0  0  0  0
 33 28  1  0  0  0  0
 36 35  1  0  0  0  0
 36 37  1  0  0  0  0
 38 37  1  0  0  0  0
 39 38  1  0  0  0  0
 39 40  1  0  0  0  0
 40 35  1  0  0  0  0
M  END
>  <minimizedAffinity>
-6.7190094

$$$$

 OpenBabel03252505093D

 40 43  0  0  1  0  0  0  0  0999 V2000
   38.8500   34.5800   40.1950 C   0  0  0  0  0  0  0  0  0  0  0  0
   37.9560   33.4960   40.3520 C   0  0  0  0  0  0  0  0  0  0  0  0
   38.5030   32.2260   40.6520 C   0  0  0  0  0  0  0  0  0  0  0  0
   39.8520   32.1080   40.7740 N   0  0  0  0  0  0  0  0  0  0  0  0
   40.6700   33.1630   40.6170 C   0  0  0  0  0  0  0  0  0  0  0  0
   40.1740   34.4060   40.3260 N   0  0  0  0  0  0  0  0  0  0  0  0
   38.4070   35.5440   39.9650 H   0  0  0  0  0  0  0  0  0  0  0  0
   36.8870   33.5580   40.2620 H   0  0  0  0  0  0  0  0  0  0  0  0
   42.1420   32.9720   40.7590 C   0  0  2  0  0  0  0  0  0  0  0  0
   42.6610   32.8010   39.3580 C   0  0  0  0  0  0  0  0  0  0  0  0
   43.0230   31.4290   38.9610 C   0  0  0  0  0  0  0  0  0  0  0  0
   44.0210   30.9400   40.0000 C   0  0  0  0  0  0  0  0  0  0  0  0
   43.4230   30.8260   41.3260 C   0  0  0  0  0  0  0  0  0  0  0  0
   42.4560   31.9000   41.6760 C   0  0  0  0  0  0  0  0  0  0  0  0
   42.5150   33.9350   41.1690 H   0  0  0  0  0  0  0  0  0  0  0  0
   43.5780   33.4320   39.2520 H   0  0  0  0  0  0  0  0  0  0  0  0
   41.9610   33.2000   38.5870 H   0  0  0  0  0  0  0  0  0  0  0  0
   42.1100   30.7780   39.0350 H   0  0  0  0  0  0  0  0  0  0  0  0
   43.4830   31.4460   37.9760 H   0  0  0  0  0  0  0  0  0  0  0  0
   44.2750   29.9160   39.6950 H   0  0  0  0  0  0  0  0  0  0  0  0
   44.8720   31.6200   39.9730 H   0  0  0  0  0  0  0  0  0  0  0  0
   43.5230   30.1300   42.1250 H   0  0  0  0  0  0  0  0  0  0  0  0
   41.8010   31.9030   42.9450 N   0  0  0  0  0  0  0  0  0  0  0  0
   40.9210   31.4520   43.3170 H   0  0  0  0  0  0  0  0  0  0  0  0
   42.1220   32.3990   43.7830 H   0  0  0  0  0  0  0  0  0  0  0  0
   37.6120   31.0940   40.8230 C   0  0  0  0  0  0  0  0  0  0  0  0
   36.5310   31.0000   40.0060 C   0  0  0  0  0  0  0  0  0  0  0  0
   35.6900   29.8910   40.2000 C   0  0  0  0  0  0  0  0  0  0  0  0
   36.0460   29.0100   41.1990 C   0  0  0  0  0  0  0  0  0  0  0  0
   37.1330   29.1110   42.0160 C   0  0  0  0  0  0  0  0  0  0  0  0
   37.9080   30.1990   41.7850 N   0  0  0  0  0  0  0  0  0  0  0  0
   36.2740   31.7060   39.2280 H   0  0  0  0  0  0  0  0  0  0  0  0
   34.8130   29.7450   39.5930 H   0  0  0  0  0  0  0  0  0  0  0  0
   35.3810   28.1640   41.3280 H   0  0  0  0  0  0  0  0  0  0  0  0
   37.4840   28.1390   43.0840 C   0  0  0  0  0  3  0  0  0  0  0  0
   38.9690   28.0570   43.3100 C   0  0  0  0  0  2  0  0  0  0  0  0
   39.2930   26.6570   43.7840 C   0  0  0  0  0  2  0  0  0  0  0  0
   39.1650   25.6840   42.6240 C   0  0  0  0  0  2  0  0  0  0  0  0
   37.9380   26.0430   41.8110 C   0  0  0  0  0  2  0  0  0  0  0  0
   36.9950   26.7410   42.7430 C   0  0  0  0  0  2  0  0  0  0  0  0
  1  6  2  0  0  0  0
  1  2  1  0  0  0  0
  2  3  2  0  0  0  0
  3  4  1  0  0  0  0
  3 26  1  0  0  0  0
  5  9  1  0  0  0  0
  5  4  2  0  0  0  0
  6  5  1  0  0  0  0
  7  1  1  0  0  0  0
  8  2  1  0  0  0  0
  9 15  1  1  0  0  0
  9 14  1  0  0  0  0
 10  9  1  0  0  0  0
 11 18  1  0  0  0  0
 11 10  1  0  0  0  0
 11 12  1  0  0  0  0
 12 13  1  0  0  0  0
 13 14  2  0  0  0  0
 13 22  1  0  0  0  0
 14 23  1  0  0  0  0
 16 10  1  0  0  0  0
 17 10  1  0  0  0  0
 19 11  1  0  0  0  0
 20 12  1  0  0  0  0
 21 12  1  0  0  0  0
 23 24  1  0  0  0  0
 23 25  1  0  0  0  0
 26 31  1  0  0  0  0
 27 28  1  0  0  0  0
 27 26  2  0  0  0  0
 28 29  2  0  0  0  0
 29 34  1  0  0  0  0
 29 30  1  0  0  0  0
 30 35  1  0  0  0  0
 31 30  2  0  0  0  0
 32 27  1  0  0  0  0
 33 28  1  0  0  0  0
 35 36  1  0  0  0  0
 36 37  1  0  0  0  0
 38 37  1  0  0  0  0
 39 38  1  0  0  0  0
 39 40  1  0  0  0  0
 40 35  1  0  0  0  0
M  END
>  <minimizedAffinity>
-6.70729876

$$$$

 OpenBabel03252505093D

 40 43  0  0  1  0  0  0  0  0999 V2000
   36.0290   29.0790   38.0670 C   0  0  0  0  0  0  0  0  0  0  0  0
   36.2730   28.4350   39.3010 C   0  0  0  0  0  0  0  0  0  0  0  0
   37.1610   29.0610   40.2090 C   0  0  0  0  0  0  0  0  0  0  0  0
   37.7320   30.2430   39.8550 N   0  0  0  0  0  0  0  0  0  0  0  0
   37.4740   30.8240   38.6700 C   0  0  0  0  0  0  0  0  0  0  0  0
   36.6210   30.2450   37.7690 N   0  0  0  0  0  0  0  0  0  0  0  0
   35.3440   28.5800   37.3880 H   0  0  0  0  0  0  0  0  0  0  0  0
   35.8380   27.5020   39.6100 H   0  0  0  0  0  0  0  0  0  0  0  0
   38.1340   32.1190   38.3350 C   0  0  2  0  0  0  0  0  0  0  0  0
   39.4700   31.7490   37.7520 C   0  0  0  0  0  0  0  0  0  0  0  0
   40.6390   31.9510   38.6250 C   0  0  0  0  0  0  0  0  0  0  0  0
   40.5930   33.4090   39.0610 C   0  0  0  0  0  0  0  0  0  0  0  0
   39.4250   33.6990   39.8860 C   0  0  0  0  0  0  0  0  0  0  0  0
   38.1740   33.0090   39.4730 C   0  0  0  0  0  0  0  0  0  0  0  0
   37.4990   32.5620   37.5370 H   0  0  0  0  0  0  0  0  0  0  0  0
   39.6270   32.3690   36.8350 H   0  0  0  0  0  0  0  0  0  0  0  0
   39.5030   30.6970   37.3830 H   0  0  0  0  0  0  0  0  0  0  0  0
   40.5170   31.3180   39.5460 H   0  0  0  0  0  0  0  0  0  0  0  0
   41.5490   31.7540   38.0640 H   0  0  0  0  0  0  0  0  0  0  0  0
   41.4640   33.5400   39.7160 H   0  0  0  0  0  0  0  0  0  0  0  0
   40.6380   34.0150   38.1560 H   0  0  0  0  0  0  0  0  0  0  0  0
   39.2570   34.3090   40.7410 H   0  0  0  0  0  0  0  0  0  0  0  0
   36.9600   33.2090   40.1990 N   0  0  0  0  0  0  0  0  0  0  0  0
   36.5320   32.7550   41.0510 H   0  0  0  0  0  0  0  0  0  0  0  0
   36.2390   33.9030   39.9780 H   0  0  0  0  0  0  0  0  0  0  0  0
   37.4310   28.4270   41.4860 C   0  0  0  0  0  0  0  0  0  0  0  0
   36.3740   28.0130   42.2320 C   0  0  0  0  0  0  0  0  0  0  0  0
   36.6730   27.4040   43.4630 C   0  0  0  0  0  0  0  0  0  0  0  0
   38.0080   27.2880   43.7900 C   0  0  0  0  0  0  0  0  0  0  0  0
   39.0640   27.7060   43.0350 C   0  0  0  0  0  0  0  0  0  0  0  0
   38.7170   28.2850   41.8590 N   0  0  0  0  0  0  0  0  0  0  0  0
   35.3340   28.1170   41.9530 H   0  0  0  0  0  0  0  0  0  0  0  0
   35.8910   27.0490   44.1130 H   0  0  0  0  0  0  0  0  0  0  0  0
   38.2110   26.8150   44.7440 H   0  0  0  0  0  0  0  0  0  0  0  0
   40.4910   27.5630   43.4210 C   0  0  0  0  0  3  0  0  0  0  0  0
   41.4170   27.7440   42.2500 C   0  0  0  0  0  2  0  0  0  0  0  0
   42.6540   26.9080   42.4970 C   0  0  0  0  0  2  0  0  0  0  0  0
   42.3170   25.4370   42.3210 C   0  0  0  0  0  2  0  0  0  0  0  0
   40.9650   25.1600   42.9470 C   0  0  0  0  0  2  0  0  0  0  0  0
   40.7690   26.1920   44.0160 C   0  0  0  0  0  2  0  0  0  0  0  0
  1  2  1  0  0  0  0
  2  8  1  0  0  0  0
  2  3  2  0  0  0  0
  3 26  1  0  0  0  0
  4  3  1  0  0  0  0
  5  4  2  0  0  0  0
  6  1  2  0  0  0  0
  6  5  1  0  0  0  0
  7  1  1  0  0  0  0
  9 15  1  6  0  0  0
  9  5  1  0  0  0  0
  9 14  1  0  0  0  0
 10  9  1  0  0  0  0
 10 11  1  0  0  0  0
 11 12  1  0  0  0  0
 11 18  1  0  0  0  0
 12 20  1  0  0  0  0
 12 13  1  0  0  0  0
 13 22  1  0  0  0  0
 14 13  2  0  0  0  0
 14 23  1  0  0  0  0
 16 10  1  0  0  0  0
 17 10  1  0  0  0  0
 19 11  1  0  0  0  0
 21 12  1  0  0  0  0
 23 24  1  0  0  0  0
 25 23  1  0  0  0  0
 26 31  2  0  0  0  0
 26 27  1  0  0  0  0
 27 28  2  0  0  0  0
 28 29  1  0  0  0  0
 28 33  1  0  0  0  0
 29 34  1  0  0  0  0
 30 35  1  0  0  0  0
 30 29  2  0  0  0  0
 31 30  1  0  0  0  0
 32 27  1  0  0  0  0
 35 40  1  0  0  0  0
 36 37  1  0  0  0  0
 36 35  1  0  0  0  0
 38 37  1  0  0  0  0
 38 39  1  0  0  0  0
 39 40  1  0  0  0  0
M  END
>  <minimizedAffinity>
-6.64108515

$$$$

 OpenBabel03252505093D

 40 43  0  0  1  0  0  0  0  0999 V2000
   35.2060   27.8980   37.4590 C   0  0  0  0  0  0  0  0  0  0  0  0
   35.6780   26.9270   38.3720 C   0  0  0  0  0  0  0  0  0  0  0  0
   36.4860   27.3680   39.4470 C   0  0  0  0  0  0  0  0  0  0  0  0
   36.7690   28.6940   39.5510 N   0  0  0  0  0  0  0  0  0  0  0  0
   36.3020   29.5870   38.6610 C   0  0  0  0  0  0  0  0  0  0  0  0
   35.5180   29.1940   37.6090 N   0  0  0  0  0  0  0  0  0  0  0  0
   34.5890   27.5350   36.6430 H   0  0  0  0  0  0  0  0  0  0  0  0
   35.4720   25.8740   38.3170 H   0  0  0  0  0  0  0  0  0  0  0  0
   36.6490   31.0280   38.8240 C   0  0  2  0  0  0  0  0  0  0  0  0
   37.8380   31.2570   37.9320 C   0  0  0  0  0  0  0  0  0  0  0  0
   39.1430   31.3800   38.6050 C   0  0  0  0  0  0  0  0  0  0  0  0
   38.9820   32.4890   39.6350 C   0  0  0  0  0  0  0  0  0  0  0  0
   38.0270   32.1350   40.6800 C   0  0  0  0  0  0  0  0  0  0  0  0
   36.8340   31.3800   40.2130 C   0  0  0  0  0  0  0  0  0  0  0  0
   35.7750   31.5780   38.4130 H   0  0  0  0  0  0  0  0  0  0  0  0
   37.6640   32.2060   37.3660 H   0  0  0  0  0  0  0  0  0  0  0  0
   37.9400   30.4780   37.1410 H   0  0  0  0  0  0  0  0  0  0  0  0
   39.3530   30.4280   39.1640 H   0  0  0  0  0  0  0  0  0  0  0  0
   39.9030   31.6500   37.8770 H   0  0  0  0  0  0  0  0  0  0  0  0
   39.9590   32.5620   40.1320 H   0  0  0  0  0  0  0  0  0  0  0  0
   38.7070   33.3930   39.0920 H   0  0  0  0  0  0  0  0  0  0  0  0
   37.9860   32.3000   41.7300 H   0  0  0  0  0  0  0  0  0  0  0  0
   35.8240   30.9740   41.1380 N   0  0  0  0  0  0  0  0  0  0  0  0
   35.6970   30.1310   41.7630 H   0  0  0  0  0  0  0  0  0  0  0  0
   34.9720   31.4980   41.3610 H   0  0  0  0  0  0  0  0  0  0  0  0
   36.9840   26.3970   40.4030 C   0  0  0  0  0  0  0  0  0  0  0  0
   36.5740   25.1080   40.2800 C   0  0  0  0  0  0  0  0  0  0  0  0
   37.0760   24.1950   41.2240 C   0  0  0  0  0  0  0  0  0  0  0  0
   37.9320   24.6990   42.1800 C   0  0  0  0  0  0  0  0  0  0  0  0
   38.3380   25.9950   42.2980 C   0  0  0  0  0  0  0  0  0  0  0  0
   37.8250   26.8310   41.3620 N   0  0  0  0  0  0  0  0  0  0  0  0
   35.9000   24.7370   39.5190 H   0  0  0  0  0  0  0  0  0  0  0  0
   36.7990   23.1550   41.1940 H   0  0  0  0  0  0  0  0  0  0  0  0
   38.3040   23.9750   42.8950 H   0  0  0  0  0  0  0  0  0  0  0  0
   39.2650   26.5010   43.3440 C   0  0  0  0  0  3  0  0  0  0  0  0
   39.9650   27.7630   42.9190 C   0  0  0  0  0  2  0  0  0  0  0  0
   41.3170   27.8000   43.5980 C   0  0  0  0  0  2  0  0  0  0  0  0
   42.2370   26.7760   42.9550 C   0  0  0  0  0  2  0  0  0  0  0  0
   41.4550   25.5070   42.6850 C   0  0  0  0  0  2  0  0  0  0  0  0
   40.3340   25.4760   43.6800 C   0  0  0  0  0  2  0  0  0  0  0  0
  1  6  2  0  0  0  0
  1  2  1  0  0  0  0
  2  3  2  0  0  0  0
  3  4  1  0  0  0  0
  3 26  1  0  0  0  0
  5  9  1  0  0  0  0
  5  4  2  0  0  0  0
  6  5  1  0  0  0  0
  7  1  1  0  0  0  0
  8  2  1  0  0  0  0
  9 15  1  6  0  0  0
  9 14  1  0  0  0  0
 10 11  1  0  0  0  0
 10  9  1  0  0  0  0
 11 18  1  0  0  0  0
 11 12  1  0  0  0  0
 12 20  1  0  0  0  0
 12 13  1  0  0  0  0
 13 22  1  0  0  0  0
 14 13  2  0  0  0  0
 14 23  1  0  0  0  0
 16 10  1  0  0  0  0
 17 10  1  0  0  0  0
 19 11  1  0  0  0  0
 21 12  1  0  0  0  0
 23 25  1  0  0  0  0
 23 24  1  0  0  0  0
 26 31  1  0  0  0  0
 27 26  2  0  0  0  0
 27 28  1  0  0  0  0
 28 29  2  0  0  0  0
 29 30  1  0  0  0  0
 29 34  1  0  0  0  0
 30 35  1  0  0  0  0
 31 30  2  0  0  0  0
 32 27  1  0  0  0  0
 33 28  1  0  0  0  0
 35 40  1  0  0  0  0
 36 35  1  0  0  0  0
 36 37  1  0  0  0  0
 38 37  1  0  0  0  0
 39 38  1  0  0  0  0
 39 40  1  0  0  0  0
M  END
>  <minimizedAffinity>
-6.59119558

$$$$

 OpenBabel03252505093D

 40 43  0  0  1  0  0  0  0  0999 V2000
   34.7490   29.0610   35.2110 C   0  0  0  0  0  0  0  0  0  0  0  0
   35.4090   28.7660   36.4260 C   0  0  0  0  0  0  0  0  0  0  0  0
   34.6440   28.7900   37.6170 C   0  0  0  0  0  0  0  0  0  0  0  0
   33.3220   29.0950   37.5380 N   0  0  0  0  0  0  0  0  0  0  0  0
   32.7290   29.3710   36.3630 C   0  0  0  0  0  0  0  0  0  0  0  0
   33.4400   29.3560   35.1920 N   0  0  0  0  0  0  0  0  0  0  0  0
   35.3560   29.0360   34.3110 H   0  0  0  0  0  0  0  0  0  0  0  0
   36.4510   28.5210   36.5210 H   0  0  0  0  0  0  0  0  0  0  0  0
   31.2760   29.7020   36.3390 C   0  0  2  0  0  0  0  0  0  0  0  0
   31.0740   30.5320   35.1020 C   0  0  0  0  0  0  0  0  0  0  0  0
   30.8910   31.9790   35.3110 C   0  0  0  0  0  0  0  0  0  0  0  0
   29.7310   32.1200   36.2870 C   0  0  0  0  0  0  0  0  0  0  0  0
   30.0450   31.5640   37.5990 C   0  0  0  0  0  0  0  0  0  0  0  0
   30.8460   30.3120   37.5770 C   0  0  0  0  0  0  0  0  0  0  0  0
   30.7650   28.7240   36.2080 H   0  0  0  0  0  0  0  0  0  0  0  0
   30.1610   30.1530   34.5800 H   0  0  0  0  0  0  0  0  0  0  0  0
   31.8930   30.4010   34.3560 H   0  0  0  0  0  0  0  0  0  0  0  0
   31.8080   32.3900   35.8150 H   0  0  0  0  0  0  0  0  0  0  0  0
   30.6480   32.4550   34.3650 H   0  0  0  0  0  0  0  0  0  0  0  0
   29.6130   33.2010   36.4380 H   0  0  0  0  0  0  0  0  0  0  0  0
   28.8630   31.6530   35.8210 H   0  0  0  0  0  0  0  0  0  0  0  0
   29.8250   31.8570   38.5970 H   0  0  0  0  0  0  0  0  0  0  0  0
   31.2200   29.6670   38.7950 N   0  0  0  0  0  0  0  0  0  0  0  0
   32.0290   29.7770   39.4660 H   0  0  0  0  0  0  0  0  0  0  0  0
   30.6990   28.9150   39.2580 H   0  0  0  0  0  0  0  0  0  0  0  0
   35.2910   28.4890   38.8800 C   0  0  0  0  0  0  0  0  0  0  0  0
   35.2690   29.4360   39.8530 C   0  0  0  0  0  0  0  0  0  0  0  0
   35.9060   29.1090   41.0630 C   0  0  0  0  0  0  0  0  0  0  0  0
   36.4880   27.8620   41.1410 C   0  0  0  0  0  0  0  0  0  0  0  0
   36.5070   26.9160   40.1590 C   0  0  0  0  0  0  0  0  0  0  0  0
   35.8780   27.2840   39.0150 N   0  0  0  0  0  0  0  0  0  0  0  0
   34.8050   30.4090   39.7670 H   0  0  0  0  0  0  0  0  0  0  0  0
   35.9330   29.8060   41.8830 H   0  0  0  0  0  0  0  0  0  0  0  0
   36.9720   27.6360   42.0840 H   0  0  0  0  0  0  0  0  0  0  0  0
   37.1450   25.5800   40.2800 C   0  0  0  0  0  3  0  0  0  0  0  0
   37.1540   25.0820   41.7000 C   0  0  0  0  0  2  0  0  0  0  0  0
   38.3680   24.1950   41.8770 C   0  0  0  0  0  2  0  0  0  0  0  0
   39.6240   25.0510   41.9050 C   0  0  0  0  0  2  0  0  0  0  0  0
   39.5080   26.1340   40.8520 C   0  0  0  0  0  2  0  0  0  0  0  0
   38.5850   25.6080   39.7960 C   0  0  0  0  0  2  0  0  0  0  0  0
  1  2  1  0  0  0  0
  2  8  1  0  0  0  0
  2  3  2  0  0  0  0
  3 26  1  0  0  0  0
  4  3  1  0  0  0  0
  5  4  2  0  0  0  0
  6  1  2  0  0  0  0
  6  5  1  0  0  0  0
  7  1  1  0  0  0  0
  9 15  1  6  0  0  0
  9  5  1  0  0  0  0
  9 14  1  0  0  0  0
 10 11  1  0  0  0  0
 10  9  1  0  0  0  0
 11 18  1  0  0  0  0
 11 12  1  0  0  0  0
 12 20  1  0  0  0  0
 12 13  1  0  0  0  0
 13 22  1  0  0  0  0
 14 13  2  0  0  0  0
 14 23  1  0  0  0  0
 16 10  1  0  0  0  0
 17 10  1  0  0  0  0
 19 11  1  0  0  0  0
 21 12  1  0  0  0  0
 23 25  1  0  0  0  0
 23 24  1  0  0  0  0
 26 31  2  0  0  0  0
 26 27  1  0  0  0  0
 27 28  2  0  0  0  0
 28 29  1  0  0  0  0
 28 33  1  0  0  0  0
 29 34  1  0  0  0  0
 30 35  1  0  0  0  0
 30 29  2  0  0  0  0
 31 30  1  0  0  0  0
 32 27  1  0  0  0  0
 35 36  1  0  0  0  0
 36 37  1  0  0  0  0
 37 38  1  0  0  0  0
 39 38  1  0  0  0  0
 40 35  1  0  0  0  0
 40 39  1  0  0  0  0
M  END
>  <minimizedAffinity>
-6.45778179

$$$$
