
 OpenBabel03252509173D

 22 24  0  0  0  0  0  0  0  0999 V2000
   38.4610   30.0380   41.3970 C   0  0  0  0  0  0  0  0  0  0  0  0
   38.4430   29.6310   42.7550 C   0  0  0  0  0  0  0  0  0  0  0  0
   38.4230   28.3040   43.0190 C   0  0  0  0  0  0  0  0  0  0  0  0
   38.4210   27.3700   41.9510 C   0  0  0  0  0  0  0  0  0  0  0  0
   38.4500   28.4570   40.4870 S   0  0  0  0  0  0  0  0  0  0  0  0
   38.4440   30.3540   43.5560 H   0  0  0  0  0  0  0  0  0  0  0  0
   38.4060   27.8290   43.9550 H   0  0  0  0  0  0  0  0  0  0  0  0
   39.2950   33.5990   40.7270 C   0  0  0  0  0  0  0  0  0  0  0  0
   38.1730   33.9640   39.9530 C   0  0  0  0  0  0  0  0  0  0  0  0
   37.1940   32.9850   39.6990 C   0  0  0  0  0  0  0  0  0  0  0  0
   37.3830   31.7320   40.2160 N   0  0  0  0  0  0  0  0  0  0  0  0
   38.4830   31.4340   40.9560 C   0  0  0  0  0  0  0  0  0  0  0  0
   39.4370   32.3610   41.2120 N   0  0  0  0  0  0  0  0  0  0  0  0
   40.0630   34.3180   40.9410 H   0  0  0  0  0  0  0  0  0  0  0  0
   38.0550   34.9600   39.5590 H   0  0  0  0  0  0  0  0  0  0  0  0
   36.3100   33.1950   39.1150 H   0  0  0  0  0  0  0  0  0  0  0  0
   38.4040   25.9550   41.8190 C   0  0  0  0  0  3  0  0  0  0  0  0
   37.0730   25.3520   42.1780 C   0  0  0  0  0  2  0  0  0  0  0  0
   36.6400   24.2150   41.3050 C   0  0  0  0  0  2  0  0  0  0  0  0
   37.7490   23.2590   40.9660 C   0  0  0  0  0  2  0  0  0  0  0  0
   39.0290   23.9600   40.5870 C   0  0  0  0  0  2  0  0  0  0  0  0
   38.7630   25.4530   40.4140 C   0  0  0  0  0  2  0  0  0  0  0  0
  1  2  2  0  0  0  0
  2  3  1  0  0  0  0
  2  6  1  0  0  0  0
  3  7  1  0  0  0  0
  4  3  2  0  0  0  0
  5  1  1  0  0  0  0
  5  4  1  0  0  0  0
  8 14  1  0  0  0  0
  8 13  1  0  0  0  0
  9  8  2  0  0  0  0
 10  9  1  0  0  0  0
 10 11  2  0  0  0  0
 11 12  1  0  0  0  0
 12 13  2  0  0  0  0
 12  1  1  0  0  0  0
 15  9  1  0  0  0  0
 16 10  1  0  0  0  0
 17  4  1  0  0  0  0
 17 18  1  0  0  0  0
 19 18  1  0  0  0  0
 20 19  1  0  0  0  0
 21 20  1  0  0  0  0
 22 21  1  0  0  0  0
 22 17  1  0  0  0  0
M  END
>  <minimizedAffinity>
-4.95507574

$$$$

 OpenBabel03252509173D

 22 24  0  0  0  0  0  0  0  0999 V2000
   38.7110   30.5280   41.3850 C   0  0  0  0  0  0  0  0  0  0  0  0
   38.8000   29.9730   42.6860 C   0  0  0  0  0  0  0  0  0  0  0  0
   38.2850   28.7380   42.8870 C   0  0  0  0  0  0  0  0  0  0  0  0
   37.6790   28.0410   41.8100 C   0  0  0  0  0  0  0  0  0  0  0  0
   37.8600   29.2230   40.4340 S   0  0  0  0  0  0  0  0  0  0  0  0
   39.2630   30.5170   43.4950 H   0  0  0  0  0  0  0  0  0  0  0  0
   38.2630   28.1810   43.7770 H   0  0  0  0  0  0  0  0  0  0  0  0
   39.1300   34.0880   40.3990 C   0  0  0  0  0  0  0  0  0  0  0  0
   40.5380   34.1590   40.3600 C   0  0  0  0  0  0  0  0  0  0  0  0
   41.2710   32.9980   40.6690 C   0  0  0  0  0  0  0  0  0  0  0  0
   40.5780   31.8620   40.9920 N   0  0  0  0  0  0  0  0  0  0  0  0
   39.2200   31.8490   41.0150 C   0  0  0  0  0  0  0  0  0  0  0  0
   38.4960   32.9550   40.7200 N   0  0  0  0  0  0  0  0  0  0  0  0
   38.5360   34.9530   40.1690 H   0  0  0  0  0  0  0  0  0  0  0  0
   41.0530   35.0700   40.1020 H   0  0  0  0  0  0  0  0  0  0  0  0
   42.3510   32.9820   40.6590 H   0  0  0  0  0  0  0  0  0  0  0  0
   37.0500   26.7800   41.6220 C   0  0  0  0  0  3  0  0  0  0  0  0
   36.6630   26.5310   40.1890 C   0  0  0  0  0  2  0  0  0  0  0  0
   36.8690   25.1250   39.7170 C   0  0  0  0  0  2  0  0  0  0  0  0
   36.4600   24.0850   40.7220 C   0  0  0  0  0  2  0  0  0  0  0  0
   36.9250   24.4090   42.1190 C   0  0  0  0  0  2  0  0  0  0  0  0
   37.8970   25.5850   42.0760 C   0  0  0  0  0  2  0  0  0  0  0  0
  1  2  2  0  0  0  0
  2  3  1  0  0  0  0
  2  6  1  0  0  0  0
  3  7  1  0  0  0  0
  4  3  2  0  0  0  0
  5  1  1  0  0  0  0
  5  4  1  0  0  0  0
  8 13  1  0  0  0  0
  9  8  2  0  0  0  0
  9 10  1  0  0  0  0
 10 11  2  0  0  0  0
 11 12  1  0  0  0  0
 12  1  1  0  0  0  0
 13 12  2  0  0  0  0
 14  8  1  0  0  0  0
 15  9  1  0  0  0  0
 16 10  1  0  0  0  0
 17  4  1  0  0  0  0
 17 22  1  0  0  0  0
 18 17  1  0  0  0  0
 19 18  1  0  0  0  0
 19 20  1  0  0  0  0
 20 21  1  0  0  0  0
 22 21  1  0  0  0  0
M  END
>  <minimizedAffinity>
-4.93645763

$$$$

 OpenBabel03252509173D

 22 24  0  0  0  0  0  0  0  0999 V2000
   37.5670   30.4330   40.4000 C   0  0  0  0  0  0  0  0  0  0  0  0
   36.1850   30.1210   40.4200 C   0  0  0  0  0  0  0  0  0  0  0  0
   35.8290   28.8200   40.5370 C   0  0  0  0  0  0  0  0  0  0  0  0
   36.8300   27.8190   40.6350 C   0  0  0  0  0  0  0  0  0  0  0  0
   38.3650   28.7990   40.5560 S   0  0  0  0  0  0  0  0  0  0  0  0
   35.4360   30.8940   40.3440 H   0  0  0  0  0  0  0  0  0  0  0  0
   34.8620   28.4120   40.5670 H   0  0  0  0  0  0  0  0  0  0  0  0
   38.0730   34.0850   39.9270 C   0  0  0  0  0  0  0  0  0  0  0  0
   39.4670   34.1610   40.1300 C   0  0  0  0  0  0  0  0  0  0  0  0
   40.1620   32.9700   40.4170 C   0  0  0  0  0  0  0  0  0  0  0  0
   39.4470   31.8040   40.4830 N   0  0  0  0  0  0  0  0  0  0  0  0
   38.1040   31.7890   40.2790 C   0  0  0  0  0  0  0  0  0  0  0  0
   37.4170   32.9230   40.0020 N   0  0  0  0  0  0  0  0  0  0  0  0
   37.5090   34.9720   39.7060 H   0  0  0  0  0  0  0  0  0  0  0  0
   40.0000   35.0950   40.0710 H   0  0  0  0  0  0  0  0  0  0  0  0
   41.2290   32.9540   40.5840 H   0  0  0  0  0  0  0  0  0  0  0  0
   36.8630   26.4040   40.7650 C   0  0  0  0  0  3  0  0  0  0  0  0
   37.7490   25.7460   39.7420 C   0  0  0  0  0  2  0  0  0  0  0  0
   38.5500   24.5890   40.2540 C   0  0  0  0  0  2  0  0  0  0  0  0
   37.7780   23.6800   41.1690 C   0  0  0  0  0  2  0  0  0  0  0  0
   36.9500   24.4340   42.1780 C   0  0  0  0  0  2  0  0  0  0  0  0
   37.3230   25.9140   42.1440 C   0  0  0  0  0  2  0  0  0  0  0  0
  1  2  2  0  0  0  0
  1  5  1  0  0  0  0
  2  3  1  0  0  0  0
  3  7  1  0  0  0  0
  3  4  2  0  0  0  0
  4 17  1  0  0  0  0
  5  4  1  0  0  0  0
  6  2  1  0  0  0  0
  8 13  2  0  0  0  0
  8  9  1  0  0  0  0
  9 10  2  0  0  0  0
 10 11  1  0  0  0  0
 10 16  1  0  0  0  0
 12  1  1  0  0  0  0
 12 11  2  0  0  0  0
 13 12  1  0  0  0  0
 14  8  1  0  0  0  0
 15  9  1  0  0  0  0
 17 22  1  0  0  0  0
 18 19  1  0  0  0  0
 18 17  1  0  0  0  0
 19 20  1  0  0  0  0
 20 21  1  0  0  0  0
 22 21  1  0  0  0  0
M  END
>  <minimizedAffinity>
-4.75815868

$$$$

 OpenBabel03252509173D

 22 24  0  0  0  0  0  0  0  0999 V2000
   40.3640   32.3120   40.0120 C   0  0  0  0  0  0  0  0  0  0  0  0
   39.0930   32.9300   40.1110 C   0  0  0  0  0  0  0  0  0  0  0  0
   38.0940   32.2380   40.7040 C   0  0  0  0  0  0  0  0  0  0  0  0
   38.3390   30.9320   41.2050 C   0  0  0  0  0  0  0  0  0  0  0  0
   40.1000   30.6880   40.8000 S   0  0  0  0  0  0  0  0  0  0  0  0
   38.9230   33.9240   39.7250 H   0  0  0  0  0  0  0  0  0  0  0  0
   37.1000   32.5370   40.8610 H   0  0  0  0  0  0  0  0  0  0  0  0
   43.6130   33.9760   39.3070 C   0  0  0  0  0  0  0  0  0  0  0  0
   43.5520   34.0290   37.8980 C   0  0  0  0  0  0  0  0  0  0  0  0
   42.4140   33.4980   37.2620 C   0  0  0  0  0  0  0  0  0  0  0  0
   41.4280   32.9590   38.0440 N   0  0  0  0  0  0  0  0  0  0  0  0
   41.5380   32.9340   39.3980 C   0  0  0  0  0  0  0  0  0  0  0  0
   42.6250   33.4390   40.0300 N   0  0  0  0  0  0  0  0  0  0  0  0
   44.4650   34.3710   39.8280 H   0  0  0  0  0  0  0  0  0  0  0  0
   44.3470   34.4600   37.3110 H   0  0  0  0  0  0  0  0  0  0  0  0
   42.3020   33.5050   36.1870 H   0  0  0  0  0  0  0  0  0  0  0  0
   37.5860   29.9240   41.8660 C   0  0  0  0  0  3  0  0  0  0  0  0
   36.9170   28.9760   40.9080 C   0  0  0  0  0  2  0  0  0  0  0  0
   36.9160   27.5420   41.3380 C   0  0  0  0  0  2  0  0  0  0  0  0
   36.6220   27.3510   42.8000 C   0  0  0  0  0  2  0  0  0  0  0  0
   37.3670   28.3250   43.6770 C   0  0  0  0  0  2  0  0  0  0  0  0
   38.4050   29.0730   42.8450 C   0  0  0  0  0  2  0  0  0  0  0  0
  1  2  2  0  0  0  0
  1  5  1  0  0  0  0
  2  3  1  0  0  0  0
  3  7  1  0  0  0  0
  3  4  2  0  0  0  0
  4 17  1  0  0  0  0
  5  4  1  0  0  0  0
  6  2  1  0  0  0  0
  8 14  1  0  0  0  0
  8 13  1  0  0  0  0
  9  8  2  0  0  0  0
 10  9  1  0  0  0  0
 10 11  2  0  0  0  0
 11 12  1  0  0  0  0
 12  1  1  0  0  0  0
 12 13  2  0  0  0  0
 15  9  1  0  0  0  0
 16 10  1  0  0  0  0
 17 22  1  0  0  0  0
 18 19  1  0  0  0  0
 18 17  1  0  0  0  0
 19 20  1  0  0  0  0
 20 21  1  0  0  0  0
 22 21  1  0  0  0  0
M  END
>  <minimizedAffinity>
-4.68788767

$$$$

 OpenBabel03252509173D

 22 24  0  0  0  0  0  0  0  0999 V2000
   35.3940   28.4060   38.9380 C   0  0  0  0  0  0  0  0  0  0  0  0
   35.2170   29.1990   40.0990 C   0  0  0  0  0  0  0  0  0  0  0  0
   35.8540   28.8180   41.2310 C   0  0  0  0  0  0  0  0  0  0  0  0
   36.6690   27.6570   41.2270 C   0  0  0  0  0  0  0  0  0  0  0  0
   36.5120   27.0790   39.5050 S   0  0  0  0  0  0  0  0  0  0  0  0
   34.5930   30.0800   40.0850 H   0  0  0  0  0  0  0  0  0  0  0  0
   35.8350   29.2810   42.1730 H   0  0  0  0  0  0  0  0  0  0  0  0
   34.6550   29.0310   35.3480 C   0  0  0  0  0  0  0  0  0  0  0  0
   33.2630   29.2490   35.4260 C   0  0  0  0  0  0  0  0  0  0  0  0
   32.6490   29.1730   36.6910 C   0  0  0  0  0  0  0  0  0  0  0  0
   33.4340   28.8910   37.7760 N   0  0  0  0  0  0  0  0  0  0  0  0
   34.7710   28.6890   37.6440 C   0  0  0  0  0  0  0  0  0  0  0  0
   35.3820   28.7580   36.4360 N   0  0  0  0  0  0  0  0  0  0  0  0
   35.1590   29.0800   34.4010 H   0  0  0  0  0  0  0  0  0  0  0  0
   32.6730   29.4680   34.5520 H   0  0  0  0  0  0  0  0  0  0  0  0
   31.5880   29.3280   36.8240 H   0  0  0  0  0  0  0  0  0  0  0  0
   37.4690   26.9560   42.1700 C   0  0  0  0  0  3  0  0  0  0  0  0
   37.7030   25.5210   41.7830 C   0  0  0  0  0  2  0  0  0  0  0  0
   39.0800   25.0080   42.0680 C   0  0  0  0  0  2  0  0  0  0  0  0
   39.6250   25.4500   43.3980 C   0  0  0  0  0  2  0  0  0  0  0  0
   39.3700   26.9100   43.6770 C   0  0  0  0  0  2  0  0  0  0  0  0
   38.8450   27.5880   42.4140 C   0  0  0  0  0  2  0  0  0  0  0  0
  1  5  1  0  0  0  0
  1  2  2  0  0  0  0
  2  3  1  0  0  0  0
  3  7  1  0  0  0  0
  4  3  2  0  0  0  0
  4 17  1  0  0  0  0
  5  4  1  0  0  0  0
  6  2  1  0  0  0  0
  8  9  2  0  0  0  0
  8 13  1  0  0  0  0
  9 10  1  0  0  0  0
 10 16  1  0  0  0  0
 10 11  2  0  0  0  0
 12 11  1  0  0  0  0
 12  1  1  0  0  0  0
 13 12  2  0  0  0  0
 14  8  1  0  0  0  0
 15  9  1  0  0  0  0
 17 22  1  0  0  0  0
 18 19  1  0  0  0  0
 18 17  1  0  0  0  0
 19 20  1  0  0  0  0
 20 21  1  0  0  0  0
 22 21  1  0  0  0  0
M  END
>  <minimizedAffinity>
-4.63630342

$$$$

 OpenBabel03252509173D

 22 24  0  0  0  0  0  0  0  0999 V2000
   37.2300   27.4890   41.1040 C   0  0  0  0  0  0  0  0  0  0  0  0
   36.2260   28.3620   41.5940 C   0  0  0  0  0  0  0  0  0  0  0  0
   35.4230   28.9740   40.6930 C   0  0  0  0  0  0  0  0  0  0  0  0
   35.6010   28.7310   39.3070 C   0  0  0  0  0  0  0  0  0  0  0  0
   36.9980   27.5600   39.2960 S   0  0  0  0  0  0  0  0  0  0  0  0
   36.1040   28.5360   42.6520 H   0  0  0  0  0  0  0  0  0  0  0  0
   34.6370   29.6450   40.8760 H   0  0  0  0  0  0  0  0  0  0  0  0
   39.2630   24.9160   42.8540 C   0  0  0  0  0  0  0  0  0  0  0  0
   40.0450   25.7510   43.6800 C   0  0  0  0  0  0  0  0  0  0  0  0
   39.8420   27.1420   43.6000 C   0  0  0  0  0  0  0  0  0  0  0  0
   38.8980   27.6080   42.7250 N   0  0  0  0  0  0  0  0  0  0  0  0
   38.1720   26.7580   41.9530 C   0  0  0  0  0  0  0  0  0  0  0  0
   38.3520   25.4170   42.0150 N   0  0  0  0  0  0  0  0  0  0  0  0
   39.3900   23.8490   42.8880 H   0  0  0  0  0  0  0  0  0  0  0  0
   40.7820   25.3510   44.3570 H   0  0  0  0  0  0  0  0  0  0  0  0
   40.4060   27.8390   44.2020 H   0  0  0  0  0  0  0  0  0  0  0  0
   34.9890   29.1610   38.0980 C   0  0  0  0  0  3  0  0  0  0  0  0
   35.9600   29.2480   36.9520 C   0  0  0  0  0  2  0  0  0  0  0  0
   35.4200   28.7930   35.6320 C   0  0  0  0  0  2  0  0  0  0  0  0
   34.0140   29.2520   35.3660 C   0  0  0  0  0  2  0  0  0  0  0  0
   33.1110   29.0920   36.5630 C   0  0  0  0  0  2  0  0  0  0  0  0
   33.8240   28.2750   37.6370 C   0  0  0  0  0  2  0  0  0  0  0  0
  1  2  2  0  0  0  0
  1 12  1  0  0  0  0
  2  6  1  0  0  0  0
  3  7  1  0  0  0  0
  3  2  1  0  0  0  0
  4  3  2  0  0  0  0
  5  4  1  0  0  0  0
  5  1  1  0  0  0  0
  8 14  1  0  0  0  0
  8  9  1  0  0  0  0
  9 15  1  0  0  0  0
 10  9  2  0  0  0  0
 10 16  1  0  0  0  0
 11 10  1  0  0  0  0
 12 13  1  0  0  0  0
 12 11  2  0  0  0  0
 13  8  2  0  0  0  0
 17  4  1  0  0  0  0
 18 17  1  0  0  0  0
 19 18  1  0  0  0  0
 20 19  1  0  0  0  0
 20 21  1  0  0  0  0
 21 22  1  0  0  0  0
 22 17  1  0  0  0  0
M  END
>  <minimizedAffinity>
-4.60019636

$$$$

 OpenBabel03252509173D

 22 24  0  0  0  0  0  0  0  0999 V2000
   39.1550   31.2180   39.1530 C   0  0  0  0  0  0  0  0  0  0  0  0
   37.7650   31.4130   38.9600 C   0  0  0  0  0  0  0  0  0  0  0  0
   36.9120   30.5630   39.5780 C   0  0  0  0  0  0  0  0  0  0  0  0
   37.4220   29.5160   40.3890 C   0  0  0  0  0  0  0  0  0  0  0  0
   39.2230   29.7670   40.2580 S   0  0  0  0  0  0  0  0  0  0  0  0
   37.3940   32.2140   38.3390 H   0  0  0  0  0  0  0  0  0  0  0  0
   35.8630   30.5590   39.5450 H   0  0  0  0  0  0  0  0  0  0  0  0
   41.8650   32.6530   37.0500 C   0  0  0  0  0  0  0  0  0  0  0  0
   42.0630   33.8780   37.7210 C   0  0  0  0  0  0  0  0  0  0  0  0
   41.2670   34.1540   38.8500 C   0  0  0  0  0  0  0  0  0  0  0  0
   40.3450   33.2180   39.2350 N   0  0  0  0  0  0  0  0  0  0  0  0
   40.1960   32.0530   38.5530 C   0  0  0  0  0  0  0  0  0  0  0  0
   40.9520   31.7680   37.4640 N   0  0  0  0  0  0  0  0  0  0  0  0
   42.4530   32.4070   36.1860 H   0  0  0  0  0  0  0  0  0  0  0  0
   42.7970   34.5940   37.3900 H   0  0  0  0  0  0  0  0  0  0  0  0
   41.3650   35.0720   39.4100 H   0  0  0  0  0  0  0  0  0  0  0  0
   36.8790   28.4620   41.1730 C   0  0  0  0  0  3  0  0  0  0  0  0
   37.0210   27.1160   40.5150 C   0  0  0  0  0  2  0  0  0  0  0  0
   37.3570   25.9930   41.4470 C   0  0  0  0  0  2  0  0  0  0  0  0
   36.6000   26.0380   42.7450 C   0  0  0  0  0  2  0  0  0  0  0  0
   36.5450   27.4230   43.3400 C   0  0  0  0  0  2  0  0  0  0  0  0
   37.4890   28.3470   42.5750 C   0  0  0  0  0  2  0  0  0  0  0  0
  1  5  1  0  0  0  0
  2  1  2  0  0  0  0
  2  3  1  0  0  0  0
  3  4  2  0  0  0  0
  4 17  1  0  0  0  0
  5  4  1  0  0  0  0
  6  2  1  0  0  0  0
  7  3  1  0  0  0  0
  8 13  2  0  0  0  0
  8  9  1  0  0  0  0
  9 10  2  0  0  0  0
 10 11  1  0  0  0  0
 10 16  1  0  0  0  0
 12  1  1  0  0  0  0
 12 11  2  0  0  0  0
 13 12  1  0  0  0  0
 14  8  1  0  0  0  0
 15  9  1  0  0  0  0
 17 22  1  0  0  0  0
 18 17  1  0  0  0  0
 18 19  1  0  0  0  0
 19 20  1  0  0  0  0
 20 21  1  0  0  0  0
 22 21  1  0  0  0  0
M  END
>  <minimizedAffinity>
-4.5525713

$$$$

 OpenBabel03252509173D

 22 24  0  0  0  0  0  0  0  0999 V2000
   38.0010   27.9430   41.6690 C   0  0  0  0  0  0  0  0  0  0  0  0
   38.3240   28.5010   42.9310 C   0  0  0  0  0  0  0  0  0  0  0  0
   38.7470   29.7860   42.9670 C   0  0  0  0  0  0  0  0  0  0  0  0
   38.8560   30.5290   41.7630 C   0  0  0  0  0  0  0  0  0  0  0  0
   38.3200   29.3170   40.5110 S   0  0  0  0  0  0  0  0  0  0  0  0
   38.2360   27.9230   43.8380 H   0  0  0  0  0  0  0  0  0  0  0  0
   39.0270   30.3540   43.8050 H   0  0  0  0  0  0  0  0  0  0  0  0
   37.1180   24.3470   42.0020 C   0  0  0  0  0  0  0  0  0  0  0  0
   36.5430   24.1250   40.7330 C   0  0  0  0  0  0  0  0  0  0  0  0
   36.4850   25.2050   39.8320 C   0  0  0  0  0  0  0  0  0  0  0  0
   36.9890   26.4120   40.2360 N   0  0  0  0  0  0  0  0  0  0  0  0
   37.5320   26.5710   41.4710 C   0  0  0  0  0  0  0  0  0  0  0  0
   37.5980   25.5440   42.3530 N   0  0  0  0  0  0  0  0  0  0  0  0
   37.1800   23.5470   42.7170 H   0  0  0  0  0  0  0  0  0  0  0  0
   36.1540   23.1610   40.4470 H   0  0  0  0  0  0  0  0  0  0  0  0
   36.0590   25.1050   38.8440 H   0  0  0  0  0  0  0  0  0  0  0  0
   39.2440   31.8460   41.3960 C   0  0  0  0  0  3  0  0  0  0  0  0
   40.6580   31.9150   40.8860 C   0  0  0  0  0  2  0  0  0  0  0  0
   40.8670   32.8470   39.7330 C   0  0  0  0  0  2  0  0  0  0  0  0
   40.1290   34.1490   39.8680 C   0  0  0  0  0  2  0  0  0  0  0  0
   38.7130   33.9710   40.3510 C   0  0  0  0  0  2  0  0  0  0  0  0
   38.3470   32.4890   40.3300 C   0  0  0  0  0  2  0  0  0  0  0  0
  1  2  2  0  0  0  0
  2  3  1  0  0  0  0
  2  6  1  0  0  0  0
  3  7  1  0  0  0  0
  4  3  2  0  0  0  0
  5  1  1  0  0  0  0
  5  4  1  0  0  0  0
  8 13  1  0  0  0  0
  8 14  1  0  0  0  0
  9  8  2  0  0  0  0
 10 11  2  0  0  0  0
 10  9  1  0  0  0  0
 11 12  1  0  0  0  0
 12  1  1  0  0  0  0
 12 13  2  0  0  0  0
 15  9  1  0  0  0  0
 16 10  1  0  0  0  0
 17  4  1  0  0  0  0
 18 17  1  0  0  0  0
 19 20  1  0  0  0  0
 19 18  1  0  0  0  0
 20 21  1  0  0  0  0
 22 21  1  0  0  0  0
 22 17  1  0  0  0  0
M  END
>  <minimizedAffinity>
-4.52343607

$$$$

 OpenBabel03252509173D

 22 24  0  0  0  0  0  0  0  0999 V2000
   34.5480   28.5590   38.2930 C   0  0  0  0  0  0  0  0  0  0  0  0
   35.4180   27.4540   38.1280 C   0  0  0  0  0  0  0  0  0  0  0  0
   36.2420   27.1350   39.1540 C   0  0  0  0  0  0  0  0  0  0  0  0
   36.2140   27.9020   40.3470 C   0  0  0  0  0  0  0  0  0  0  0  0
   34.9350   29.1480   39.9760 S   0  0  0  0  0  0  0  0  0  0  0  0
   35.4270   26.8800   37.2140 H   0  0  0  0  0  0  0  0  0  0  0  0
   36.9450   26.3570   39.2040 H   0  0  0  0  0  0  0  0  0  0  0  0
   31.5990   29.8290   36.4170 C   0  0  0  0  0  0  0  0  0  0  0  0
   32.1290   29.8240   35.1100 C   0  0  0  0  0  0  0  0  0  0  0  0
   33.4580   29.3920   34.9330 C   0  0  0  0  0  0  0  0  0  0  0  0
   34.1630   29.0000   36.0390 N   0  0  0  0  0  0  0  0  0  0  0  0
   33.6030   29.0240   37.2760 C   0  0  0  0  0  0  0  0  0  0  0  0
   32.3260   29.4360   37.4680 N   0  0  0  0  0  0  0  0  0  0  0  0
   30.5900   30.1520   36.5920 H   0  0  0  0  0  0  0  0  0  0  0  0
   31.5470   30.1410   34.2600 H   0  0  0  0  0  0  0  0  0  0  0  0
   33.9270   29.3630   33.9600 H   0  0  0  0  0  0  0  0  0  0  0  0
   36.8910   27.8900   41.5970 C   0  0  0  0  0  3  0  0  0  0  0  0
   37.1100   26.4980   42.1260 C   0  0  0  0  0  2  0  0  0  0  0  0
   38.4330   26.2790   42.7930 C   0  0  0  0  0  2  0  0  0  0  0  0
   38.8590   27.4170   43.6770 C   0  0  0  0  0  2  0  0  0  0  0  0
   38.6310   28.7660   43.0430 C   0  0  0  0  0  2  0  0  0  0  0  0
   38.2580   28.5850   41.5740 C   0  0  0  0  0  2  0  0  0  0  0  0
  1  5  1  0  0  0  0
  2  1  2  0  0  0  0
  2  3  1  0  0  0  0
  3  7  1  0  0  0  0
  3  4  2  0  0  0  0
  4 17  1  0  0  0  0
  5  4  1  0  0  0  0
  6  2  1  0  0  0  0
  8 14  1  0  0  0  0
  8 13  1  0  0  0  0
  9  8  2  0  0  0  0
 10  9  1  0  0  0  0
 10 11  2  0  0  0  0
 11 12  1  0  0  0  0
 12 13  2  0  0  0  0
 12  1  1  0  0  0  0
 15  9  1  0  0  0  0
 16 10  1  0  0  0  0
 17 18  1  0  0  0  0
 18 19  1  0  0  0  0
 19 20  1  0  0  0  0
 21 20  1  0  0  0  0
 22 17  1  0  0  0  0
 22 21  1  0  0  0  0
M  END
>  <minimizedAffinity>
-4.4437933

$$$$
