
 OpenBabel03252506563D

 35 39  0  0  0  0  0  0  0  0999 V2000
   47.2340   31.3420   45.1590 C   0  0  0  0  0  0  0  0  0  0  0  0
   46.8840   32.6790   45.1400 C   0  0  0  0  0  0  0  0  0  0  0  0
   46.2720   33.3210   46.2030 C   0  0  0  0  0  0  0  0  0  0  0  0
   45.9840   32.6060   47.3600 C   0  0  0  0  0  0  0  0  0  0  0  0
   45.4110   32.8870   48.5640 N   0  0  0  0  0  0  0  0  0  0  0  0
   45.4090   31.7530   49.3040 C   0  0  0  0  0  0  0  0  0  0  0  0
   45.9800   30.7840   48.5530 N   0  0  0  0  0  0  0  0  0  0  0  0
   46.3380   31.2810   47.3650 C   0  0  0  0  0  0  0  0  0  0  0  0
   46.9440   30.6260   46.3270 C   0  0  0  0  0  0  0  0  0  0  0  0
   47.7070   30.8740   44.3210 H   0  0  0  0  0  0  0  0  0  0  0  0
   46.0060   34.3590   46.1750 H   0  0  0  0  0  0  0  0  0  0  0  0
   45.0510   33.8520   48.8090 H   0  0  0  0  0  0  0  0  0  0  0  0
   45.0070   31.7040   50.3080 H   0  0  0  0  0  0  0  0  0  0  0  0
   46.5660   35.1400   42.4150 C   0  0  0  0  0  0  0  0  0  0  0  0
   47.7130   34.9220   41.6710 C   0  0  0  0  0  0  0  0  0  0  0  0
   48.6040   33.9310   42.0980 C   0  0  0  0  0  0  0  0  0  0  0  0
   48.2960   33.2250   43.2310 N   0  0  0  0  0  0  0  0  0  0  0  0
   47.1760   33.4590   43.9310 C   0  0  0  0  0  0  0  0  0  0  0  0
   46.3050   34.4110   43.5340 N   0  0  0  0  0  0  0  0  0  0  0  0
   45.8400   35.9060   42.1170 H   0  0  0  0  0  0  0  0  0  0  0  0
   47.9250   35.4910   40.7890 H   0  0  0  0  0  0  0  0  0  0  0  0
   49.5200   33.7190   41.5500 H   0  0  0  0  0  0  0  0  0  0  0  0
   47.2850   29.1960   46.4270 C   0  0  0  0  0  0  0  0  0  0  0  0
   48.5880   28.7090   46.4350 C   0  0  0  0  0  0  0  0  0  0  0  0
   48.4040   27.3170   46.5430 C   0  0  0  0  0  0  0  0  0  0  0  0
   47.0450   27.0610   46.5920 C   0  0  0  0  0  0  0  0  0  0  0  0
   46.4250   28.2260   46.5180 O   0  0  0  0  0  0  0  0  0  0  0  0
   49.5260   29.2510   46.3750 H   0  0  0  0  0  0  0  0  0  0  0  0
   49.1910   26.5790   46.5820 H   0  0  0  0  0  0  0  0  0  0  0  0
   46.3490   25.7380   46.7060 C   0  0  0  0  0  3  0  0  0  0  0  0
   45.1500   25.8170   47.6050 C   0  0  0  0  0  2  0  0  0  0  0  0
   45.4410   25.3430   49.0080 C   0  0  0  0  0  2  0  0  0  0  0  0
   45.8420   23.8890   49.0150 C   0  0  0  0  0  2  0  0  0  0  0  0
   46.6000   23.5290   47.7710 C   0  0  0  0  0  2  0  0  0  0  0  0
   47.3280   24.6860   47.1390 C   0  0  0  0  0  2  0  0  0  0  0  0
  1  9  1  0  0  0  0
  2  1  2  0  0  0  0
  2  3  1  0  0  0  0
  3  4  2  0  0  0  0
  4  8  1  0  0  0  0
  4  5  1  0  0  0  0
  5 12  1  0  0  0  0
  5  6  1  0  0  0  0
  6 13  1  0  0  0  0
  7  6  2  0  0  0  0
  8  7  1  0  0  0  0
  9 23  1  0  0  0  0
  9  8  2  0  0  0  0
 10  1  1  0  0  0  0
 11  3  1  0  0  0  0
 14 19  1  0  0  0  0
 15 16  1  0  0  0  0
 15 14  2  0  0  0  0
 16 17  2  0  0  0  0
 17 18  1  0  0  0  0
 18  2  1  0  0  0  0
 19 18  2  0  0  0  0
 20 14  1  0  0  0  0
 21 15  1  0  0  0  0
 22 16  1  0  0  0  0
 23 24  2  0  0  0  0
 23 27  1  0  0  0  0
 24 25  1  0  0  0  0
 25 29  1  0  0  0  0
 25 26  2  0  0  0  0
 26 30  1  0  0  0  0
 27 26  1  0  0  0  0
 28 24  1  0  0  0  0
 30 35  1  0  0  0  0
 30 31  1  0  0  0  0
 31 32  1  0  0  0  0
 32 33  1  0  0  0  0
 34 33  1  0  0  0  0
 35 34  1  0  0  0  0
M  END
>  <minimizedAffinity>
-5.74034023

>  <minimizedRMSD>
0.486119717

$$$$
