REMARK  Name = 
REMARK  2 active torsions:
REMARK  status: ('A' for Active; 'I' for Inactive)
REMARK    1  A    between atoms: C_2  and  N_7
REMARK    2  A    between atoms: C_8  and  C_24
REMARK                            x       y       z     vdW  Elec       q    Type
REMARK                         _______ _______ _______ _____ _____    ______ ____
ROOT
ATOM      1  N   UNL     1      44.351  34.424  41.951  0.00  0.00    +0.000 N 
ATOM      2  C   UNL     1      44.663  33.588  40.874  0.00  0.00    +0.000 C 
ATOM      3  C   UNL     1      43.750  33.665  39.680  0.00  0.00    +0.000 C 
ATOM      4  N   UNL     1      42.519  34.298  39.796  0.00  0.00    +0.000 NA
ATOM      5  C   UNL     1      42.371  35.280  40.769  0.00  0.00    +0.000 C 
ATOM      6  C   UNL     1      43.590  35.578  41.554  0.00  0.00    +0.000 C 
ATOM      7  H   UNL     1      44.688  32.527  41.206  0.00  0.00    +0.000 HD
ATOM      8  H   UNL     1      43.586  32.592  39.325  0.00  0.00    +0.000 HD
ATOM      9  H   UNL     1      44.291  34.112  38.823  0.00  0.00    +0.000 HD
ATOM     10  H   UNL     1      42.146  34.509  38.849  0.00  0.00    +0.000 HD
ATOM     11  H   UNL     1      41.525  35.018  41.468  0.00  0.00    +0.000 HD
ATOM     12  H   UNL     1      42.042  36.249  40.295  0.00  0.00    +0.000 HD
ATOM     13  H   UNL     1      44.220  36.393  41.105  0.00  0.00    +0.000 HD
ATOM     14  H   UNL     1      43.219  36.067  42.510  0.00  0.00    +0.000 HD
ENDROOT
BRANCH   1  16
ATOM     15  C   UNL     1      44.718  35.173  44.194  0.00  0.00    +0.000 A 
ATOM     16  C   UNL     1      44.772  34.130  43.277  0.00  0.00    +0.000 A 
ATOM     17  C   UNL     1      45.232  32.898  43.693  0.00  0.00    +0.000 A 
ATOM     18  N   UNL     1      45.630  32.702  44.978  0.00  0.00    +0.000 NA
ATOM     19  C   UNL     1      45.568  33.747  45.865  0.00  0.00    +0.000 A 
ATOM     20  N   UNL     1      45.117  34.957  45.465  0.00  0.00    +0.000 NA
ATOM     21  H   UNL     1      44.402  36.196  44.079  0.00  0.00    +0.000 HD
ATOM     22  H   UNL     1      45.284  32.065  43.034  0.00  0.00    +0.000 HD
ATOM     23  H   UNL     1      45.890  33.574  46.893  0.00  0.00    +0.000 HD
ENDBRANCH   1  16
BRANCH   2  24
ATOM     24  C   UNL     1      46.076  33.824  40.311  0.00  0.00    +0.000 C 
ATOM     25  C   UNL     1      47.145  33.887  41.336  0.00  0.00    +0.000 C 
ATOM     26  C   UNL     1      48.333  34.597  40.700  0.00  0.00    +0.000 C 
ATOM     27  C   UNL     1      48.227  34.655  39.209  0.00  0.00    +0.000 C 
ATOM     28  C   UNL     1      47.765  33.373  38.589  0.00  0.00    +0.000 C 
ATOM     29  C   UNL     1      46.463  32.907  39.210  0.00  0.00    +0.000 C 
ENDBRANCH   2  24
TORSDOF 2
