
 OpenBabel03242511483D

 41 43  0  0  0  0  0  0  0  0999 V2000
   40.9870   30.8320   41.6220 C   0  0  0  0  0  0  0  0  0  0  0  0
   41.0830   30.7160   40.5210 H   0  0  0  0  0  0  0  0  0  0  0  0
   41.8050   31.5200   41.9640 H   0  0  0  0  0  0  0  0  0  0  0  0
   42.5060   28.0000   43.3830 C   0  0  0  0  0  0  0  0  0  0  0  0
   41.3760   27.2310   43.7500 C   0  0  0  0  0  0  0  0  0  0  0  0
   40.1420   27.7180   43.3770 C   0  0  0  0  0  0  0  0  0  0  0  0
   40.0530   28.8780   42.6950 N   0  0  0  0  0  0  0  0  0  0  0  0
   41.1630   29.5700   42.3700 C   0  0  0  0  0  0  0  0  0  0  0  0
   42.3680   29.1610   42.6960 N   0  0  0  0  0  0  0  0  0  0  0  0
   43.5060   27.6880   43.6370 H   0  0  0  0  0  0  0  0  0  0  0  0
   41.5900   26.3180   44.2980 H   0  0  0  0  0  0  0  0  0  0  0  0
   38.9640   26.9020   43.7690 C   0  0  0  0  0  0  0  0  0  0  0  0
   38.9360   26.7060   44.8410 H   0  0  0  0  0  0  0  0  0  0  0  0
   39.1310   25.9060   43.2690 H   0  0  0  0  0  0  0  0  0  0  0  0
   37.6740   27.4860   43.2340 C   0  0  0  0  0  0  0  0  0  0  0  0
   36.9800   27.5560   44.0950 H   0  0  0  0  0  0  0  0  0  0  0  0
   37.8700   28.5190   42.8850 H   0  0  0  0  0  0  0  0  0  0  0  0
   37.0630   26.6720   42.1210 C   0  0  0  0  0  3  0  0  0  0  0  0
   37.6070   25.2420   42.2340 C   0  0  0  0  0  2  0  0  0  0  0  0
   36.7770   24.3100   41.4040 C   0  0  0  0  0  2  0  0  0  0  0  0
   36.5390   24.9540   40.0610 C   0  0  0  0  0  2  0  0  0  0  0  0
   37.5910   26.0040   39.7980 C   0  0  0  0  0  2  0  0  0  0  0  0
   37.4390   27.1620   40.7630 C   0  0  0  0  0  2  0  0  0  0  0  0
   39.6640   31.4470   42.0000 C   0  0  0  0  0  0  0  0  0  0  0  0
   39.1940   30.7940   42.7800 H   0  0  0  0  0  0  0  0  0  0  0  0
   39.8080   32.4360   42.5110 H   0  0  0  0  0  0  0  0  0  0  0  0
   38.7950   31.6240   40.8590 C   0  0  0  0  0  0  0  0  0  0  0  0
   38.3020   30.6790   39.9980 C   0  0  0  0  0  0  0  0  0  0  0  0
   37.4840   30.9580   38.9490 C   0  0  0  0  0  0  0  0  0  0  0  0
   37.1260   32.2720   38.7370 C   0  0  0  0  0  0  0  0  0  0  0  0
   37.6110   33.2340   39.5910 C   0  0  0  0  0  0  0  0  0  0  0  0
   38.4410   32.9240   40.6480 C   0  0  0  0  0  0  0  0  0  0  0  0
   38.6110   29.6530   40.2050 H   0  0  0  0  0  0  0  0  0  0  0  0
   37.1660   30.1190   38.3460 H   0  0  0  0  0  0  0  0  0  0  0  0
   36.4670   32.4320   37.8800 H   0  0  0  0  0  0  0  0  0  0  0  0
   37.2320   34.2180   39.2820 H   0  0  0  0  0  0  0  0  0  0  0  0
   39.7590   34.9590   40.6590 C   0  0  0  0  0  0  0  0  0  0  0  0
   40.4770   34.9290   39.5970 O   0  0  0  0  0  0  0  0  0  0  0  0
   38.7610   34.1540   41.3220 N   0  0  0  0  0  0  0  0  0  0  0  0
   40.2080   35.9110   40.9310 H   0  0  0  0  0  0  0  0  0  0  0  0
   38.4320   34.6100   42.1990 H   0  0  0  0  0  0  0  0  0  0  0  0
  1  3  1  0  0  0  0
  1 24  1  0  0  0  0
  1  8  1  0  0  0  0
  2  1  1  0  0  0  0
  4 10  1  0  0  0  0
  4  5  1  0  0  0  0
  5 11  1  0  0  0  0
  6  5  2  0  0  0  0
  6 12  1  0  0  0  0
  7  6  1  0  0  0  0
  8  7  2  0  0  0  0
  8  9  1  0  0  0  0
  9  4  2  0  0  0  0
 12 13  1  0  0  0  0
 14 12  1  0  0  0  0
 15 12  1  0  0  0  0
 15 16  1  0  0  0  0
 17 15  1  0  0  0  0
 18 19  1  0  0  0  0
 18 15  1  0  0  0  0
 20 19  1  0  0  0  0
 21 20  1  0  0  0  0
 22 21  1  0  0  0  0
 22 23  1  0  0  0  0
 23 18  1  0  0  0  0
 24 26  1  0  0  0  0
 24 25  1  0  0  0  0
 27 24  1  0  0  0  0
 28 33  1  0  0  0  0
 28 27  2  0  0  0  0
 29 28  1  0  0  0  0
 30 29  2  0  0  0  0
 30 31  1  0  0  0  0
 31 32  2  0  0  0  0
 32 27  1  0  0  0  0
 32 39  1  0  0  0  0
 34 29  1  0  0  0  0
 35 30  1  0  0  0  0
 36 31  1  0  0  0  0
 37 40  1  0  0  0  0
 37 39  1  0  0  0  0
 38 37  2  0  0  0  0
 39 41  1  0  0  0  0
M  END
>  <minimizedAffinity>
-5.9898715

$$$$

 OpenBabel03242511483D

 41 43  0  0  0  0  0  0  0  0999 V2000
   38.1430   31.6620   38.6220 C   0  0  0  0  0  0  0  0  0  0  0  0
   37.5730   32.5550   38.2850 H   0  0  0  0  0  0  0  0  0  0  0  0
   38.5940   31.1830   37.7130 H   0  0  0  0  0  0  0  0  0  0  0  0
   35.5690   29.1210   39.2090 C   0  0  0  0  0  0  0  0  0  0  0  0
   35.8220   28.7380   40.5480 C   0  0  0  0  0  0  0  0  0  0  0  0
   36.8650   29.3690   41.1900 C   0  0  0  0  0  0  0  0  0  0  0  0
   37.5910   30.3030   40.5430 N   0  0  0  0  0  0  0  0  0  0  0  0
   37.3050   30.6300   39.2670 C   0  0  0  0  0  0  0  0  0  0  0  0
   36.3250   30.0660   38.5980 N   0  0  0  0  0  0  0  0  0  0  0  0
   34.7710   28.6760   38.6370 H   0  0  0  0  0  0  0  0  0  0  0  0
   35.1620   27.9740   40.9480 H   0  0  0  0  0  0  0  0  0  0  0  0
   37.1200   28.9570   42.5950 C   0  0  0  0  0  0  0  0  0  0  0  0
   36.7790   29.7030   43.3130 H   0  0  0  0  0  0  0  0  0  0  0  0
   38.2430   28.9260   42.6810 H   0  0  0  0  0  0  0  0  0  0  0  0
   36.5870   27.5680   42.8780 C   0  0  0  0  0  0  0  0  0  0  0  0
   35.9250   27.6600   43.7610 H   0  0  0  0  0  0  0  0  0  0  0  0
   35.9560   27.2500   42.0240 H   0  0  0  0  0  0  0  0  0  0  0  0
   37.6710   26.5490   43.1260 C   0  0  0  0  0  3  0  0  0  0  0  0
   38.9810   27.3100   43.3700 C   0  0  0  0  0  2  0  0  0  0  0  0
   40.0020   26.3940   43.9750 C   0  0  0  0  0  2  0  0  0  0  0  0
   39.9810   25.0910   43.2150 C   0  0  0  0  0  2  0  0  0  0  0  0
   39.3820   25.3020   41.8460 C   0  0  0  0  0  2  0  0  0  0  0  0
   37.9120   25.6540   41.9570 C   0  0  0  0  0  2  0  0  0  0  0  0
   39.2610   32.0430   39.5590 C   0  0  0  0  0  0  0  0  0  0  0  0
   38.8270   32.6890   40.3640 H   0  0  0  0  0  0  0  0  0  0  0  0
   39.6570   31.1440   40.1020 H   0  0  0  0  0  0  0  0  0  0  0  0
   40.3500   32.7030   38.8750 C   0  0  0  0  0  0  0  0  0  0  0  0
   40.9370   32.3790   37.6810 C   0  0  0  0  0  0  0  0  0  0  0  0
   41.9640   33.0740   37.1240 C   0  0  0  0  0  0  0  0  0  0  0  0
   42.4440   34.1740   37.8010 C   0  0  0  0  0  0  0  0  0  0  0  0
   41.8670   34.5140   39.0010 C   0  0  0  0  0  0  0  0  0  0  0  0
   40.8270   33.7900   39.5450 C   0  0  0  0  0  0  0  0  0  0  0  0
   40.5230   31.5020   37.1800 H   0  0  0  0  0  0  0  0  0  0  0  0
   42.3360   32.7130   36.1750 H   0  0  0  0  0  0  0  0  0  0  0  0
   43.2680   34.6920   37.3030 H   0  0  0  0  0  0  0  0  0  0  0  0
   42.3660   35.4070   39.4040 H   0  0  0  0  0  0  0  0  0  0  0  0
   39.2480   35.1720   40.7600 C   0  0  0  0  0  0  0  0  0  0  0  0
   38.3190   35.4740   39.9290 O   0  0  0  0  0  0  0  0  0  0  0  0
   40.4740   34.4110   40.7940 N   0  0  0  0  0  0  0  0  0  0  0  0
   38.7460   35.7550   41.5270 H   0  0  0  0  0  0  0  0  0  0  0  0
   40.9090   34.4390   41.7400 H   0  0  0  0  0  0  0  0  0  0  0  0
  1  8  1  0  0  0  0
  1 24  1  0  0  0  0
  2  1  1  0  0  0  0
  3  1  1  0  0  0  0
  4  5  1  0  0  0  0
  5 11  1  0  0  0  0
  5  6  2  0  0  0  0
  6 12  1  0  0  0  0
  7  6  1  0  0  0  0
  8  7  2  0  0  0  0
  9  4  2  0  0  0  0
  9  8  1  0  0  0  0
 10  4  1  0  0  0  0
 12 14  1  0  0  0  0
 12 15  1  0  0  0  0
 12 13  1  0  0  0  0
 15 18  1  0  0  0  0
 15 16  1  0  0  0  0
 17 15  1  0  0  0  0
 18 19  1  0  0  0  0
 19 20  1  0  0  0  0
 21 20  1  0  0  0  0
 22 23  1  0  0  0  0
 22 21  1  0  0  0  0
 23 18  1  0  0  0  0
 24 26  1  0  0  0  0
 24 25  1  0  0  0  0
 27 32  1  0  0  0  0
 27 24  1  0  0  0  0
 28 27  2  0  0  0  0
 29 28  1  0  0  0  0
 29 30  2  0  0  0  0
 30 31  1  0  0  0  0
 31 36  1  0  0  0  0
 31 32  2  0  0  0  0
 32 39  1  0  0  0  0
 33 28  1  0  0  0  0
 34 29  1  0  0  0  0
 35 30  1  0  0  0  0
 37 39  1  0  0  0  0
 37 40  1  0  0  0  0
 38 37  2  0  0  0  0
 39 41  1  0  0  0  0
M  END
>  <minimizedAffinity>
-5.97348166

$$$$

 OpenBabel03242511483D

 41 43  0  0  0  0  0  0  0  0999 V2000
   37.6590   31.8580   39.5330 C   0  0  0  0  0  0  0  0  0  0  0  0
   38.2140   30.9550   39.1980 H   0  0  0  0  0  0  0  0  0  0  0  0
   37.0020   32.1880   38.6850 H   0  0  0  0  0  0  0  0  0  0  0  0
   38.8470   35.2560   40.2210 C   0  0  0  0  0  0  0  0  0  0  0  0
   40.2280   35.0510   40.4570 C   0  0  0  0  0  0  0  0  0  0  0  0
   40.6900   33.7560   40.3690 C   0  0  0  0  0  0  0  0  0  0  0  0
   39.8390   32.7540   40.0710 N   0  0  0  0  0  0  0  0  0  0  0  0
   38.5320   33.0070   39.8550 C   0  0  0  0  0  0  0  0  0  0  0  0
   38.0290   34.2170   39.9230 N   0  0  0  0  0  0  0  0  0  0  0  0
   38.4080   36.2390   40.2690 H   0  0  0  0  0  0  0  0  0  0  0  0
   40.8000   35.9450   40.6880 H   0  0  0  0  0  0  0  0  0  0  0  0
   42.1410   33.5550   40.6200 C   0  0  0  0  0  0  0  0  0  0  0  0
   42.6430   33.0740   39.7810 H   0  0  0  0  0  0  0  0  0  0  0  0
   42.1820   32.8230   41.4750 H   0  0  0  0  0  0  0  0  0  0  0  0
   42.8160   34.8360   41.0650 C   0  0  0  0  0  0  0  0  0  0  0  0
   43.4190   35.1880   40.2050 H   0  0  0  0  0  0  0  0  0  0  0  0
   42.0360   35.6000   41.2550 H   0  0  0  0  0  0  0  0  0  0  0  0
   43.6800   34.6650   42.2900 C   0  0  0  0  0  3  0  0  0  0  0  0
   45.0600   35.2550   41.9730 C   0  0  0  0  0  2  0  0  0  0  0  0
   45.8380   35.4490   43.2400 C   0  0  0  0  0  2  0  0  0  0  0  0
   45.6910   34.2070   44.0830 C   0  0  0  0  0  2  0  0  0  0  0  0
   45.2970   33.0370   43.2140 C   0  0  0  0  0  2  0  0  0  0  0  0
   43.9040   33.2360   42.6540 C   0  0  0  0  0  2  0  0  0  0  0  0
   36.7820   31.5590   40.7220 C   0  0  0  0  0  0  0  0  0  0  0  0
   36.8560   32.4260   41.4270 H   0  0  0  0  0  0  0  0  0  0  0  0
   35.7000   31.5270   40.4280 H   0  0  0  0  0  0  0  0  0  0  0  0
   37.1360   30.3150   41.3660 C   0  0  0  0  0  0  0  0  0  0  0  0
   38.2860   29.9920   42.0370 C   0  0  0  0  0  0  0  0  0  0  0  0
   38.5170   28.7810   42.6110 C   0  0  0  0  0  0  0  0  0  0  0  0
   37.5350   27.8200   42.5150 C   0  0  0  0  0  0  0  0  0  0  0  0
   36.3740   28.1270   41.8450 C   0  0  0  0  0  0  0  0  0  0  0  0
   36.1660   29.3630   41.2700 C   0  0  0  0  0  0  0  0  0  0  0  0
   39.0350   30.7840   42.0900 H   0  0  0  0  0  0  0  0  0  0  0  0
   39.4670   28.6560   43.1120 H   0  0  0  0  0  0  0  0  0  0  0  0
   37.7790   26.8690   42.9960 H   0  0  0  0  0  0  0  0  0  0  0  0
   35.7040   27.2560   41.8610 H   0  0  0  0  0  0  0  0  0  0  0  0
   34.8720   28.9700   39.2570 C   0  0  0  0  0  0  0  0  0  0  0  0
   35.7100   28.6250   38.3510 O   0  0  0  0  0  0  0  0  0  0  0  0
   34.8660   29.3390   40.6530 N   0  0  0  0  0  0  0  0  0  0  0  0
   34.0630   28.8840   38.5360 H   0  0  0  0  0  0  0  0  0  0  0  0
   33.8990   29.5310   40.9880 H   0  0  0  0  0  0  0  0  0  0  0  0
  1  8  1  0  0  0  0
  1 24  1  0  0  0  0
  2  1  1  0  0  0  0
  3  1  1  0  0  0  0
  4 10  1  0  0  0  0
  4  5  1  0  0  0  0
  5 11  1  0  0  0  0
  6  5  2  0  0  0  0
  6 12  1  0  0  0  0
  7  6  1  0  0  0  0
  8  9  1  0  0  0  0
  8  7  2  0  0  0  0
  9  4  2  0  0  0  0
 12 15  1  0  0  0  0
 12 14  1  0  0  0  0
 13 12  1  0  0  0  0
 15 17  1  0  0  0  0
 15 18  1  0  0  0  0
 16 15  1  0  0  0  0
 18 23  1  0  0  0  0
 19 18  1  0  0  0  0
 19 20  1  0  0  0  0
 20 21  1  0  0  0  0
 22 21  1  0  0  0  0
 23 22  1  0  0  0  0
 24 27  1  0  0  0  0
 24 25  1  0  0  0  0
 26 24  1  0  0  0  0
 27 28  1  0  0  0  0
 28 33  1  0  0  0  0
 28 29  2  0  0  0  0
 29 34  1  0  0  0  0
 30 29  1  0  0  0  0
 30 35  1  0  0  0  0
 31 36  1  0  0  0  0
 31 30  2  0  0  0  0
 32 27  2  0  0  0  0
 32 31  1  0  0  0  0
 37 39  1  0  0  0  0
 38 37  2  0  0  0  0
 39 41  1  0  0  0  0
 39 32  1  0  0  0  0
 40 37  1  0  0  0  0
M  END
>  <minimizedAffinity>
-5.89316034

$$$$

 OpenBabel03242511483D

 41 43  0  0  0  0  0  0  0  0999 V2000
   37.3430   33.4710   39.4840 C   0  0  0  0  0  0  0  0  0  0  0  0
   36.4230   34.0000   39.8160 H   0  0  0  0  0  0  0  0  0  0  0  0
   37.7760   34.0480   38.6240 H   0  0  0  0  0  0  0  0  0  0  0  0
   37.2170   30.5090   37.3300 C   0  0  0  0  0  0  0  0  0  0  0  0
   36.5890   29.5540   38.1650 C   0  0  0  0  0  0  0  0  0  0  0  0
   36.2370   29.9690   39.4310 C   0  0  0  0  0  0  0  0  0  0  0  0
   36.4940   31.2330   39.8230 N   0  0  0  0  0  0  0  0  0  0  0  0
   37.0940   32.1020   38.9850 C   0  0  0  0  0  0  0  0  0  0  0  0
   37.4550   31.7700   37.7670 N   0  0  0  0  0  0  0  0  0  0  0  0
   37.5230   30.2640   36.3260 H   0  0  0  0  0  0  0  0  0  0  0  0
   36.4430   28.5720   37.7250 H   0  0  0  0  0  0  0  0  0  0  0  0
   35.5800   28.9560   40.2980 C   0  0  0  0  0  0  0  0  0  0  0  0
   34.5300   28.8160   40.0460 H   0  0  0  0  0  0  0  0  0  0  0  0
   35.6000   29.4110   41.3290 H   0  0  0  0  0  0  0  0  0  0  0  0
   36.3630   27.6610   40.3400 C   0  0  0  0  0  0  0  0  0  0  0  0
   35.6210   26.8490   40.4680 H   0  0  0  0  0  0  0  0  0  0  0  0
   36.8510   27.5100   39.3570 H   0  0  0  0  0  0  0  0  0  0  0  0
   37.3960   27.6190   41.4400 C   0  0  0  0  0  3  0  0  0  0  0  0
   37.4930   26.1700   41.9330 C   0  0  0  0  0  2  0  0  0  0  0  0
   38.7360   25.9890   42.7520 C   0  0  0  0  0  2  0  0  0  0  0  0
   38.8490   27.1520   43.7060 C   0  0  0  0  0  2  0  0  0  0  0  0
   37.4960   27.7900   43.9050 C   0  0  0  0  0  2  0  0  0  0  0  0
   37.0240   28.4460   42.6240 C   0  0  0  0  0  2  0  0  0  0  0  0
   38.3740   33.4130   40.5820 C   0  0  0  0  0  0  0  0  0  0  0  0
   37.9920   34.0220   41.4410 H   0  0  0  0  0  0  0  0  0  0  0  0
   38.4700   32.3740   40.9930 H   0  0  0  0  0  0  0  0  0  0  0  0
   39.6720   33.8710   40.1400 C   0  0  0  0  0  0  0  0  0  0  0  0
   40.0940   35.1500   39.8930 C   0  0  0  0  0  0  0  0  0  0  0  0
   41.3480   35.4710   39.4780 C   0  0  0  0  0  0  0  0  0  0  0  0
   42.2530   34.4480   39.2960 C   0  0  0  0  0  0  0  0  0  0  0  0
   41.8470   33.1570   39.5390 C   0  0  0  0  0  0  0  0  0  0  0  0
   40.5670   32.8590   39.9580 C   0  0  0  0  0  0  0  0  0  0  0  0
   39.3450   35.9280   40.0520 H   0  0  0  0  0  0  0  0  0  0  0  0
   41.5530   36.5210   39.3190 H   0  0  0  0  0  0  0  0  0  0  0  0
   43.2440   34.7690   38.9630 H   0  0  0  0  0  0  0  0  0  0  0  0
   42.6830   32.4710   39.3460 H   0  0  0  0  0  0  0  0  0  0  0  0
   40.9200   30.9360   41.3930 C   0  0  0  0  0  0  0  0  0  0  0  0
   41.3680   31.3920   42.5040 O   0  0  0  0  0  0  0  0  0  0  0  0
   40.4830   31.4310   40.1080 N   0  0  0  0  0  0  0  0  0  0  0  0
   40.9870   29.9250   41.7850 H   0  0  0  0  0  0  0  0  0  0  0  0
   40.1730   30.6510   39.4910 H   0  0  0  0  0  0  0  0  0  0  0  0
  1  2  1  0  0  0  0
  1 24  1  0  0  0  0
  3  1  1  0  0  0  0
  4  9  2  0  0  0  0
  4  5  1  0  0  0  0
  5  6  2  0  0  0  0
  6  7  1  0  0  0  0
  6 12  1  0  0  0  0
  8  1  1  0  0  0  0
  8  7  2  0  0  0  0
  9  8  1  0  0  0  0
 10  4  1  0  0  0  0
 11  5  1  0  0  0  0
 12 15  1  0  0  0  0
 12 14  1  0  0  0  0
 13 12  1  0  0  0  0
 15 16  1  0  0  0  0
 15 18  1  0  0  0  0
 17 15  1  0  0  0  0
 18 19  1  0  0  0  0
 18 23  1  0  0  0  0
 19 20  1  0  0  0  0
 20 21  1  0  0  0  0
 21 22  1  0  0  0  0
 23 22  1  0  0  0  0
 24 26  1  0  0  0  0
 24 25  1  0  0  0  0
 27 24  1  0  0  0  0
 28 33  1  0  0  0  0
 28 27  2  0  0  0  0
 29 28  1  0  0  0  0
 30 29  2  0  0  0  0
 30 31  1  0  0  0  0
 31 32  2  0  0  0  0
 32 39  1  0  0  0  0
 32 27  1  0  0  0  0
 34 29  1  0  0  0  0
 35 30  1  0  0  0  0
 36 31  1  0  0  0  0
 37 40  1  0  0  0  0
 37 38  2  0  0  0  0
 39 37  1  0  0  0  0
 41 39  1  0  0  0  0
M  END
>  <minimizedAffinity>
-5.85467625

$$$$

 OpenBabel03242511483D

 41 43  0  0  0  0  0  0  0  0999 V2000
   37.5330   32.7500   39.5350 C   0  0  0  0  0  0  0  0  0  0  0  0
   36.7220   33.4790   39.3200 H   0  0  0  0  0  0  0  0  0  0  0  0
   38.1620   32.6570   38.6100 H   0  0  0  0  0  0  0  0  0  0  0  0
   35.8660   29.4970   39.2780 C   0  0  0  0  0  0  0  0  0  0  0  0
   36.1940   28.8900   40.5140 C   0  0  0  0  0  0  0  0  0  0  0  0
   36.9740   29.6250   41.3810 C   0  0  0  0  0  0  0  0  0  0  0  0
   37.3870   30.8610   41.0360 N   0  0  0  0  0  0  0  0  0  0  0  0
   37.0440   31.3900   39.8450 C   0  0  0  0  0  0  0  0  0  0  0  0
   36.3050   30.7430   38.9730 N   0  0  0  0  0  0  0  0  0  0  0  0
   35.2610   28.9890   38.5450 H   0  0  0  0  0  0  0  0  0  0  0  0
   35.7970   27.8910   40.6640 H   0  0  0  0  0  0  0  0  0  0  0  0
   37.3120   28.9760   42.6750 C   0  0  0  0  0  0  0  0  0  0  0  0
   37.1420   29.6360   43.5250 H   0  0  0  0  0  0  0  0  0  0  0  0
   38.4240   28.8060   42.6240 H   0  0  0  0  0  0  0  0  0  0  0  0
   36.6350   27.6290   42.8200 C   0  0  0  0  0  0  0  0  0  0  0  0
   35.8990   27.7350   43.6410 H   0  0  0  0  0  0  0  0  0  0  0  0
   36.0670   27.4150   41.8930 H   0  0  0  0  0  0  0  0  0  0  0  0
   37.5970   26.5030   43.1070 C   0  0  0  0  0  3  0  0  0  0  0  0
   39.0120   27.0950   43.1450 C   0  0  0  0  0  2  0  0  0  0  0  0
   39.9600   26.1200   43.7760 C   0  0  0  0  0  2  0  0  0  0  0  0
   39.6960   24.7550   43.1920 C   0  0  0  0  0  2  0  0  0  0  0  0
   38.9970   24.8890   41.8610 C   0  0  0  0  0  2  0  0  0  0  0  0
   37.6040   25.4540   42.0450 C   0  0  0  0  0  2  0  0  0  0  0  0
   38.4170   33.2220   40.6610 C   0  0  0  0  0  0  0  0  0  0  0  0
   37.8790   34.0480   41.1930 H   0  0  0  0  0  0  0  0  0  0  0  0
   38.5440   32.4230   41.4380 H   0  0  0  0  0  0  0  0  0  0  0  0
   39.7190   33.6450   40.1980 C   0  0  0  0  0  0  0  0  0  0  0  0
   40.1360   34.8970   39.8310 C   0  0  0  0  0  0  0  0  0  0  0  0
   41.3950   35.1860   39.4070 C   0  0  0  0  0  0  0  0  0  0  0  0
   42.3100   34.1580   39.3430 C   0  0  0  0  0  0  0  0  0  0  0  0
   41.9090   32.8940   39.7070 C   0  0  0  0  0  0  0  0  0  0  0  0
   40.6240   32.6280   40.1330 C   0  0  0  0  0  0  0  0  0  0  0  0
   39.3790   35.6800   39.8990 H   0  0  0  0  0  0  0  0  0  0  0  0
   41.5940   36.2170   39.1480 H   0  0  0  0  0  0  0  0  0  0  0  0
   43.3030   34.4530   38.9960 H   0  0  0  0  0  0  0  0  0  0  0  0
   42.7530   32.2000   39.5970 H   0  0  0  0  0  0  0  0  0  0  0  0
   41.0040   30.8560   41.7440 C   0  0  0  0  0  0  0  0  0  0  0  0
   41.4650   31.4200   42.7980 O   0  0  0  0  0  0  0  0  0  0  0  0
   40.5480   31.2210   40.4230 N   0  0  0  0  0  0  0  0  0  0  0  0
   41.0810   29.8880   42.2330 H   0  0  0  0  0  0  0  0  0  0  0  0
   40.2330   30.3840   39.8890 H   0  0  0  0  0  0  0  0  0  0  0  0
  1  8  1  0  0  0  0
  1 24  1  0  0  0  0
  2  1  1  0  0  0  0
  3  1  1  0  0  0  0
  4  5  1  0  0  0  0
  5 11  1  0  0  0  0
  5  6  2  0  0  0  0
  6 12  1  0  0  0  0
  7  6  1  0  0  0  0
  8  7  2  0  0  0  0
  9  4  2  0  0  0  0
  9  8  1  0  0  0  0
 10  4  1  0  0  0  0
 12 15  1  0  0  0  0
 12 13  1  0  0  0  0
 14 12  1  0  0  0  0
 15 18  1  0  0  0  0
 15 16  1  0  0  0  0
 17 15  1  0  0  0  0
 18 19  1  0  0  0  0
 19 20  1  0  0  0  0
 21 20  1  0  0  0  0
 22 23  1  0  0  0  0
 22 21  1  0  0  0  0
 23 18  1  0  0  0  0
 24 25  1  0  0  0  0
 24 26  1  0  0  0  0
 27 24  1  0  0  0  0
 28 33  1  0  0  0  0
 28 27  2  0  0  0  0
 29 28  1  0  0  0  0
 30 29  2  0  0  0  0
 30 31  1  0  0  0  0
 31 32  2  0  0  0  0
 32 27  1  0  0  0  0
 32 39  1  0  0  0  0
 34 29  1  0  0  0  0
 35 30  1  0  0  0  0
 36 31  1  0  0  0  0
 37 40  1  0  0  0  0
 37 38  2  0  0  0  0
 39 37  1  0  0  0  0
 41 39  1  0  0  0  0
M  END
>  <minimizedAffinity>
-5.70957661

$$$$

 OpenBabel03242511483D

 41 43  0  0  0  0  0  0  0  0999 V2000
   38.9890   26.8470   43.6740 C   0  0  0  0  0  0  0  0  0  0  0  0
   39.0010   26.6950   44.7750 H   0  0  0  0  0  0  0  0  0  0  0  0
   39.3560   25.9000   43.1960 H   0  0  0  0  0  0  0  0  0  0  0  0
   41.9950   28.7320   42.7590 C   0  0  0  0  0  0  0  0  0  0  0  0
   41.4580   29.9740   42.3430 C   0  0  0  0  0  0  0  0  0  0  0  0
   40.0870   30.1090   42.3940 C   0  0  0  0  0  0  0  0  0  0  0  0
   39.3240   29.0850   42.8260 N   0  0  0  0  0  0  0  0  0  0  0  0
   39.8890   27.9240   43.2120 C   0  0  0  0  0  0  0  0  0  0  0  0
   41.1880   27.7310   43.1870 N   0  0  0  0  0  0  0  0  0  0  0  0
   43.0560   28.5470   42.7500 H   0  0  0  0  0  0  0  0  0  0  0  0
   42.1850   30.7130   42.0180 H   0  0  0  0  0  0  0  0  0  0  0  0
   39.5360   31.4170   41.9540 C   0  0  0  0  0  0  0  0  0  0  0  0
   40.0410   32.2590   42.4270 H   0  0  0  0  0  0  0  0  0  0  0  0
   38.4790   31.4240   42.3410 H   0  0  0  0  0  0  0  0  0  0  0  0
   39.4850   31.5240   40.4440 C   0  0  0  0  0  0  0  0  0  0  0  0
   40.1690   30.7460   40.0510 H   0  0  0  0  0  0  0  0  0  0  0  0
   38.4620   31.2650   40.1050 H   0  0  0  0  0  0  0  0  0  0  0  0
   39.8700   32.8870   39.9250 C   0  0  0  0  0  3  0  0  0  0  0  0
   41.1330   33.3320   40.6740 C   0  0  0  0  0  2  0  0  0  0  0  0
   41.7700   34.4890   39.9650 C   0  0  0  0  0  2  0  0  0  0  0  0
   40.6890   35.4740   39.5970 C   0  0  0  0  0  2  0  0  0  0  0  0
   39.4800   35.2670   40.4770 C   0  0  0  0  0  2  0  0  0  0  0  0
   38.8340   33.9280   40.1860 C   0  0  0  0  0  2  0  0  0  0  0  0
   37.5950   27.1200   43.1680 C   0  0  0  0  0  0  0  0  0  0  0  0
   36.8950   27.0390   44.0390 H   0  0  0  0  0  0  0  0  0  0  0  0
   37.4920   28.1830   42.8220 H   0  0  0  0  0  0  0  0  0  0  0  0
   37.2160   26.2320   42.0940 C   0  0  0  0  0  0  0  0  0  0  0  0
   36.9150   24.8960   42.1490 C   0  0  0  0  0  0  0  0  0  0  0  0
   36.5670   24.1500   41.0670 C   0  0  0  0  0  0  0  0  0  0  0  0
   36.5120   24.7730   39.8400 C   0  0  0  0  0  0  0  0  0  0  0  0
   36.8110   26.1130   39.7650 C   0  0  0  0  0  0  0  0  0  0  0  0
   37.1630   26.8470   40.8790 C   0  0  0  0  0  0  0  0  0  0  0  0
   36.9700   24.4450   43.1410 H   0  0  0  0  0  0  0  0  0  0  0  0
   36.3530   23.1060   41.2480 H   0  0  0  0  0  0  0  0  0  0  0  0
   36.2260   24.1210   39.0100 H   0  0  0  0  0  0  0  0  0  0  0  0
   36.7200   26.4480   38.7230 H   0  0  0  0  0  0  0  0  0  0  0  0
   36.2440   29.0410   40.4100 C   0  0  0  0  0  0  0  0  0  0  0  0
   34.9900   28.9690   40.6690 O   0  0  0  0  0  0  0  0  0  0  0  0
   37.4140   28.1960   40.4460 N   0  0  0  0  0  0  0  0  0  0  0  0
   36.1190   30.0790   40.1140 H   0  0  0  0  0  0  0  0  0  0  0  0
   38.2640   28.7170   40.1450 H   0  0  0  0  0  0  0  0  0  0  0  0
  1  2  1  0  0  0  0
  3  1  1  0  0  0  0
  4  9  1  0  0  0  0
  5  6  1  0  0  0  0
  5  4  2  0  0  0  0
  6  7  2  0  0  0  0
  7  8  1  0  0  0  0
  8  1  1  0  0  0  0
  9  8  2  0  0  0  0
 10  4  1  0  0  0  0
 11  5  1  0  0  0  0
 12 14  1  0  0  0  0
 12  6  1  0  0  0  0
 12 13  1  0  0  0  0
 15 12  1  0  0  0  0
 16 15  1  0  0  0  0
 17 15  1  0  0  0  0
 18 23  1  0  0  0  0
 18 15  1  0  0  0  0
 18 19  1  0  0  0  0
 20 19  1  0  0  0  0
 21 20  1  0  0  0  0
 21 22  1  0  0  0  0
 23 22  1  0  0  0  0
 24  1  1  0  0  0  0
 24 25  1  0  0  0  0
 26 24  1  0  0  0  0
 27 28  1  0  0  0  0
 27 24  1  0  0  0  0
 28 33  1  0  0  0  0
 29 34  1  0  0  0  0
 29 28  2  0  0  0  0
 30 29  1  0  0  0  0
 31 30  2  0  0  0  0
 31 32  1  0  0  0  0
 32 27  2  0  0  0  0
 35 30  1  0  0  0  0
 36 31  1  0  0  0  0
 37 39  1  0  0  0  0
 37 38  2  0  0  0  0
 39 32  1  0  0  0  0
 40 37  1  0  0  0  0
 41 39  1  0  0  0  0
M  END
>  <minimizedAffinity>
-5.70477104

$$$$

 OpenBabel03242511483D

 41 43  0  0  0  0  0  0  0  0999 V2000
   35.4050   29.0930   40.3350 C   0  0  0  0  0  0  0  0  0  0  0  0
   34.3420   28.9520   40.0430 H   0  0  0  0  0  0  0  0  0  0  0  0
   35.4190   29.5400   41.3650 H   0  0  0  0  0  0  0  0  0  0  0  0
   37.0900   30.5770   37.4390 C   0  0  0  0  0  0  0  0  0  0  0  0
   37.5010   31.8350   37.9410 C   0  0  0  0  0  0  0  0  0  0  0  0
   37.1820   32.1190   39.2510 C   0  0  0  0  0  0  0  0  0  0  0  0
   36.5070   31.2170   39.9920 N   0  0  0  0  0  0  0  0  0  0  0  0
   36.1410   30.0320   39.4630 C   0  0  0  0  0  0  0  0  0  0  0  0
   36.4140   29.7010   38.2220 N   0  0  0  0  0  0  0  0  0  0  0  0
   37.3010   30.2790   36.4250 H   0  0  0  0  0  0  0  0  0  0  0  0
   38.0350   32.4670   37.2370 H   0  0  0  0  0  0  0  0  0  0  0  0
   37.6180   33.4430   39.7640 C   0  0  0  0  0  0  0  0  0  0  0  0
   36.8620   33.9120   40.3940 H   0  0  0  0  0  0  0  0  0  0  0  0
   37.7070   34.0880   38.8450 H   0  0  0  0  0  0  0  0  0  0  0  0
   38.9800   33.3690   40.4210 C   0  0  0  0  0  0  0  0  0  0  0  0
   38.8890   33.8920   41.3940 H   0  0  0  0  0  0  0  0  0  0  0  0
   39.2120   32.3070   40.6380 H   0  0  0  0  0  0  0  0  0  0  0  0
   40.0820   33.9780   39.5890 C   0  0  0  0  0  3  0  0  0  0  0  0
   40.7940   32.8360   38.8510 C   0  0  0  0  0  2  0  0  0  0  0  0
   41.6420   33.3900   37.7450 C   0  0  0  0  0  2  0  0  0  0  0  0
   42.4050   34.5760   38.2800 C   0  0  0  0  0  2  0  0  0  0  0  0
   42.4920   34.4970   39.7850 C   0  0  0  0  0  2  0  0  0  0  0  0
   41.1210   34.6670   40.4070 C   0  0  0  0  0  2  0  0  0  0  0  0
   36.1450   27.7810   40.3800 C   0  0  0  0  0  0  0  0  0  0  0  0
   35.3860   26.9590   40.3150 H   0  0  0  0  0  0  0  0  0  0  0  0
   36.7850   27.6460   39.4680 H   0  0  0  0  0  0  0  0  0  0  0  0
   36.9680   27.6540   41.5610 C   0  0  0  0  0  0  0  0  0  0  0  0
   36.6030   27.7510   42.8780 C   0  0  0  0  0  0  0  0  0  0  0  0
   37.4660   27.6130   43.9190 C   0  0  0  0  0  0  0  0  0  0  0  0
   38.7900   27.3580   43.6340 C   0  0  0  0  0  0  0  0  0  0  0  0
   39.1750   27.2570   42.3180 C   0  0  0  0  0  0  0  0  0  0  0  0
   38.2780   27.4030   41.2800 C   0  0  0  0  0  0  0  0  0  0  0  0
   35.5450   27.9520   43.0550 H   0  0  0  0  0  0  0  0  0  0  0  0
   37.0490   27.7120   44.9110 H   0  0  0  0  0  0  0  0  0  0  0  0
   39.4340   27.2570   44.5120 H   0  0  0  0  0  0  0  0  0  0  0  0
   40.2530   27.0540   42.2690 H   0  0  0  0  0  0  0  0  0  0  0  0
   39.5930   28.4650   39.5410 C   0  0  0  0  0  0  0  0  0  0  0  0
   39.6820   29.7030   39.8620 O   0  0  0  0  0  0  0  0  0  0  0  0
   39.0100   27.2460   40.0520 N   0  0  0  0  0  0  0  0  0  0  0  0
   40.1750   28.6590   38.6440 H   0  0  0  0  0  0  0  0  0  0  0  0
   39.2220   26.4390   39.4290 H   0  0  0  0  0  0  0  0  0  0  0  0
  1 24  1  0  0  0  0
  1  3  1  0  0  0  0
  2  1  1  0  0  0  0
  4  5  2  0  0  0  0
  4  9  1  0  0  0  0
  5  6  1  0  0  0  0
  6 12  1  0  0  0  0
  6  7  2  0  0  0  0
  8  7  1  0  0  0  0
  8  1  1  0  0  0  0
  9  8  2  0  0  0  0
 10  4  1  0  0  0  0
 11  5  1  0  0  0  0
 12 13  1  0  0  0  0
 12 15  1  0  0  0  0
 14 12  1  0  0  0  0
 15 17  1  0  0  0  0
 15 16  1  0  0  0  0
 18 23  1  0  0  0  0
 18 15  1  0  0  0  0
 19 18  1  0  0  0  0
 20 21  1  0  0  0  0
 20 19  1  0  0  0  0
 21 22  1  0  0  0  0
 22 23  1  0  0  0  0
 24 27  1  0  0  0  0
 25 24  1  0  0  0  0
 26 24  1  0  0  0  0
 27 28  1  0  0  0  0
 28 33  1  0  0  0  0
 28 29  2  0  0  0  0
 29 34  1  0  0  0  0
 30 29  1  0  0  0  0
 30 35  1  0  0  0  0
 31 30  2  0  0  0  0
 32 27  2  0  0  0  0
 32 31  1  0  0  0  0
 36 31  1  0  0  0  0
 37 38  2  0  0  0  0
 37 39  1  0  0  0  0
 39 32  1  0  0  0  0
 40 37  1  0  0  0  0
 41 39  1  0  0  0  0
M  END
>  <minimizedAffinity>
-5.70174646

$$$$

 OpenBabel03242511483D

 41 43  0  0  0  0  0  0  0  0999 V2000
   36.5780   31.4640   40.0960 C   0  0  0  0  0  0  0  0  0  0  0  0
   36.2680   32.5030   40.3380 H   0  0  0  0  0  0  0  0  0  0  0  0
   35.6650   30.8140   40.1510 H   0  0  0  0  0  0  0  0  0  0  0  0
   39.6500   30.8430   41.9950 C   0  0  0  0  0  0  0  0  0  0  0  0
   39.2670   29.7810   42.8490 C   0  0  0  0  0  0  0  0  0  0  0  0
   37.9720   29.3250   42.7370 C   0  0  0  0  0  0  0  0  0  0  0  0
   37.1340   29.8880   41.8420 N   0  0  0  0  0  0  0  0  0  0  0  0
   37.5520   30.8970   41.0520 C   0  0  0  0  0  0  0  0  0  0  0  0
   38.7730   31.3770   41.1100 N   0  0  0  0  0  0  0  0  0  0  0  0
   40.6450   31.2550   42.0210 H   0  0  0  0  0  0  0  0  0  0  0  0
   40.0400   29.4210   43.5230 H   0  0  0  0  0  0  0  0  0  0  0  0
   37.5830   28.2120   43.6400 C   0  0  0  0  0  0  0  0  0  0  0  0
   37.2400   28.5680   44.6110 H   0  0  0  0  0  0  0  0  0  0  0  0
   38.5430   27.6530   43.8300 H   0  0  0  0  0  0  0  0  0  0  0  0
   36.6100   27.2630   42.9740 C   0  0  0  0  0  0  0  0  0  0  0  0
   36.0800   26.7320   43.7900 H   0  0  0  0  0  0  0  0  0  0  0  0
   35.8540   27.8580   42.4230 H   0  0  0  0  0  0  0  0  0  0  0  0
   37.2730   26.2810   42.0400 C   0  0  0  0  0  3  0  0  0  0  0  0
   36.8300   26.6230   40.6120 C   0  0  0  0  0  2  0  0  0  0  0  0
   37.7200   25.9360   39.6200 C   0  0  0  0  0  2  0  0  0  0  0  0
   37.9090   24.5060   40.0620 C   0  0  0  0  0  2  0  0  0  0  0  0
   36.7850   24.0980   40.9830 C   0  0  0  0  0  2  0  0  0  0  0  0
   36.8590   24.8680   42.2850 C   0  0  0  0  0  2  0  0  0  0  0  0
   37.1440   31.3660   38.7020 C   0  0  0  0  0  0  0  0  0  0  0  0
   36.7860   32.2570   38.1250 H   0  0  0  0  0  0  0  0  0  0  0  0
   38.2610   31.4660   38.7110 H   0  0  0  0  0  0  0  0  0  0  0  0
   36.7830   30.1280   38.0490 C   0  0  0  0  0  0  0  0  0  0  0  0
   35.5660   29.5020   38.0050 C   0  0  0  0  0  0  0  0  0  0  0  0
   35.3350   28.3310   37.3550 C   0  0  0  0  0  0  0  0  0  0  0  0
   36.3900   27.7350   36.6980 C   0  0  0  0  0  0  0  0  0  0  0  0
   37.6200   28.3490   36.7310 C   0  0  0  0  0  0  0  0  0  0  0  0
   37.8270   29.5380   37.4000 C   0  0  0  0  0  0  0  0  0  0  0  0
   34.7600   30.0100   38.5370 H   0  0  0  0  0  0  0  0  0  0  0  0
   34.3270   27.9430   37.3980 H   0  0  0  0  0  0  0  0  0  0  0  0
   36.1420   26.7970   36.1940 H   0  0  0  0  0  0  0  0  0  0  0  0
   38.3420   27.7470   36.1630 H   0  0  0  0  0  0  0  0  0  0  0  0
   40.0870   29.3660   38.2600 C   0  0  0  0  0  0  0  0  0  0  0  0
   40.0180   28.6370   39.3130 O   0  0  0  0  0  0  0  0  0  0  0  0
   39.2120   29.8890   37.2380 N   0  0  0  0  0  0  0  0  0  0  0  0
   41.1580   29.4750   38.4110 H   0  0  0  0  0  0  0  0  0  0  0  0
   39.7440   30.4470   36.5370 H   0  0  0  0  0  0  0  0  0  0  0  0
  1  3  1  0  0  0  0
  1  2  1  0  0  0  0
  1  8  1  0  0  0  0
  4 10  1  0  0  0  0
  4  5  1  0  0  0  0
  5 11  1  0  0  0  0
  6  5  2  0  0  0  0
  6 12  1  0  0  0  0
  7  6  1  0  0  0  0
  8  9  1  0  0  0  0
  8  7  2  0  0  0  0
  9  4  2  0  0  0  0
 12 14  1  0  0  0  0
 12 13  1  0  0  0  0
 15 12  1  0  0  0  0
 15 16  1  0  0  0  0
 17 15  1  0  0  0  0
 18 23  1  0  0  0  0
 18 15  1  0  0  0  0
 19 18  1  0  0  0  0
 20 21  1  0  0  0  0
 20 19  1  0  0  0  0
 21 22  1  0  0  0  0
 22 23  1  0  0  0  0
 24 26  1  0  0  0  0
 24  1  1  0  0  0  0
 25 24  1  0  0  0  0
 27 24  1  0  0  0  0
 28 27  1  0  0  0  0
 28 33  1  0  0  0  0
 29 34  1  0  0  0  0
 29 28  2  0  0  0  0
 30 31  2  0  0  0  0
 30 29  1  0  0  0  0
 31 32  1  0  0  0  0
 32 27  2  0  0  0  0
 35 30  1  0  0  0  0
 36 31  1  0  0  0  0
 37 40  1  0  0  0  0
 37 38  2  0  0  0  0
 39 32  1  0  0  0  0
 39 37  1  0  0  0  0
 41 39  1  0  0  0  0
M  END
>  <minimizedAffinity>
-5.66446638

$$$$

 OpenBabel03242511483D

 41 43  0  0  0  0  0  0  0  0999 V2000
   37.3260   28.4700   43.7680 C   0  0  0  0  0  0  0  0  0  0  0  0
   36.7280   29.4030   43.6970 H   0  0  0  0  0  0  0  0  0  0  0  0
   37.3860   28.1850   44.8510 H   0  0  0  0  0  0  0  0  0  0  0  0
   40.8190   27.7610   42.9170 C   0  0  0  0  0  0  0  0  0  0  0  0
   41.2630   29.0030   42.4030 C   0  0  0  0  0  0  0  0  0  0  0  0
   40.3440   30.0290   42.3710 C   0  0  0  0  0  0  0  0  0  0  0  0
   39.0880   29.8240   42.8170 N   0  0  0  0  0  0  0  0  0  0  0  0
   38.7190   28.6200   43.2970 C   0  0  0  0  0  0  0  0  0  0  0  0
   39.5460   27.6020   43.3540 N   0  0  0  0  0  0  0  0  0  0  0  0
   41.4770   26.9100   42.9760 H   0  0  0  0  0  0  0  0  0  0  0  0
   42.2990   29.0310   42.0780 H   0  0  0  0  0  0  0  0  0  0  0  0
   40.8220   31.3270   41.8290 C   0  0  0  0  0  0  0  0  0  0  0  0
   41.8000   31.6040   42.2220 H   0  0  0  0  0  0  0  0  0  0  0  0
   40.0930   32.0870   42.2280 H   0  0  0  0  0  0  0  0  0  0  0  0
   40.7560   31.3610   40.3160 C   0  0  0  0  0  0  0  0  0  0  0  0
   41.7100   31.8050   39.9700 H   0  0  0  0  0  0  0  0  0  0  0  0
   40.7200   30.3200   39.9390 H   0  0  0  0  0  0  0  0  0  0  0  0
   39.5790   32.1420   39.7850 C   0  0  0  0  0  3  0  0  0  0  0  0
   39.2450   33.2360   40.8080 C   0  0  0  0  0  2  0  0  0  0  0  0
   38.3420   34.2600   40.1880 C   0  0  0  0  0  2  0  0  0  0  0  0
   37.2580   33.5390   39.4270 C   0  0  0  0  0  2  0  0  0  0  0  0
   37.1110   32.1300   39.9480 C   0  0  0  0  0  2  0  0  0  0  0  0
   38.3480   31.3140   39.6310 C   0  0  0  0  0  2  0  0  0  0  0  0
   36.6740   27.3370   43.0170 C   0  0  0  0  0  0  0  0  0  0  0  0
   37.3260   26.4330   43.1280 H   0  0  0  0  0  0  0  0  0  0  0  0
   35.7010   27.0430   43.4940 H   0  0  0  0  0  0  0  0  0  0  0  0
   36.4420   27.6590   41.6280 C   0  0  0  0  0  0  0  0  0  0  0  0
   35.6520   28.6430   41.0940 C   0  0  0  0  0  0  0  0  0  0  0  0
   35.5050   28.8610   39.7600 C   0  0  0  0  0  0  0  0  0  0  0  0
   36.1940   28.0440   38.8900 C   0  0  0  0  0  0  0  0  0  0  0  0
   36.9920   27.0520   39.4080 C   0  0  0  0  0  0  0  0  0  0  0  0
   37.1220   26.8510   40.7670 C   0  0  0  0  0  0  0  0  0  0  0  0
   35.1260   29.2650   41.8200 H   0  0  0  0  0  0  0  0  0  0  0  0
   34.8510   29.6710   39.4710 H   0  0  0  0  0  0  0  0  0  0  0  0
   36.0360   28.2700   37.8320 H   0  0  0  0  0  0  0  0  0  0  0  0
   37.4640   26.4990   38.5840 H   0  0  0  0  0  0  0  0  0  0  0  0
   37.3690   24.4500   40.9970 C   0  0  0  0  0  0  0  0  0  0  0  0
   36.1900   23.9550   40.8990 O   0  0  0  0  0  0  0  0  0  0  0  0
   38.0160   25.7400   40.9550 N   0  0  0  0  0  0  0  0  0  0  0  0
   37.7710   23.4510   41.1420 H   0  0  0  0  0  0  0  0  0  0  0  0
   39.0470   25.6470   41.0720 H   0  0  0  0  0  0  0  0  0  0  0  0
  1  3  1  0  0  0  0
  2  1  1  0  0  0  0
  4 10  1  0  0  0  0
  4  9  1  0  0  0  0
  5  4  2  0  0  0  0
  6  5  1  0  0  0  0
  6  7  2  0  0  0  0
  7  8  1  0  0  0  0
  8  9  2  0  0  0  0
  8  1  1  0  0  0  0
 11  5  1  0  0  0  0
 12 13  1  0  0  0  0
 12 14  1  0  0  0  0
 12  6  1  0  0  0  0
 15 12  1  0  0  0  0
 16 15  1  0  0  0  0
 17 15  1  0  0  0  0
 18 15  1  0  0  0  0
 18 19  1  0  0  0  0
 20 19  1  0  0  0  0
 21 22  1  0  0  0  0
 21 20  1  0  0  0  0
 23 18  1  0  0  0  0
 23 22  1  0  0  0  0
 24 25  1  0  0  0  0
 24 26  1  0  0  0  0
 24  1  1  0  0  0  0
 27 24  1  0  0  0  0
 28 27  1  0  0  0  0
 28 33  1  0  0  0  0
 29 28  2  0  0  0  0
 30 31  2  0  0  0  0
 30 29  1  0  0  0  0
 31 32  1  0  0  0  0
 32 39  1  0  0  0  0
 32 27  2  0  0  0  0
 34 29  1  0  0  0  0
 35 30  1  0  0  0  0
 36 31  1  0  0  0  0
 37 40  1  0  0  0  0
 38 37  2  0  0  0  0
 39 37  1  0  0  0  0
 39 41  1  0  0  0  0
M  END
>  <minimizedAffinity>
-5.6278367

$$$$
