
 OpenBabel03242514103D

 43 46  0  0  1  0  0  0  0  0999 V2000
   47.3020   33.9970   42.5580 C   0  0  0  0  0  0  0  0  0  0  0  0
   48.1770   35.0470   42.4230 C   0  0  0  0  0  0  0  0  0  0  0  0
   48.6780   35.4830   41.2090 C   0  0  0  0  0  0  0  0  0  0  0  0
   48.2140   34.7560   40.1010 C   0  0  0  0  0  0  0  0  0  0  0  0
   47.3200   33.6840   40.2400 C   0  0  0  0  0  0  0  0  0  0  0  0
   46.8740   33.3140   41.4540 N   0  0  0  0  0  0  0  0  0  0  0  0
   48.4780   35.5470   43.3390 H   0  0  0  0  0  0  0  0  0  0  0  0
   49.3530   36.3000   41.1520 H   0  0  0  0  0  0  0  0  0  0  0  0
   48.6370   35.1360   39.1820 H   0  0  0  0  0  0  0  0  0  0  0  0
   46.8640   32.9860   39.0450 C   0  0  1  0  0  0  0  0  0  0  0  0
   45.3430   33.3190   38.7520 C   0  0  0  0  0  0  0  0  0  0  0  0
   44.9540   32.1660   37.7790 C   0  0  0  0  0  0  0  0  0  0  0  0
   45.6140   32.5910   36.4670 C   0  0  0  0  0  0  0  0  0  0  0  0
   47.0950   32.5830   36.5970 C   0  0  0  0  0  0  0  0  0  0  0  0
   47.6570   33.1180   37.8590 C   0  0  2  0  0  0  0  0  0  0  0  0
   46.7590   31.9020   39.3490 H   0  0  0  0  0  0  0  0  0  0  0  0
   45.2940   34.2930   38.2500 H   0  0  0  0  0  0  0  0  0  0  0  0
   44.7970   33.2190   39.6880 H   0  0  0  0  0  0  0  0  0  0  0  0
   43.8640   32.1500   37.6420 H   0  0  0  0  0  0  0  0  0  0  0  0
   45.3840   31.2480   38.1860 H   0  0  0  0  0  0  0  0  0  0  0  0
   45.2830   31.8860   35.6930 H   0  0  0  0  0  0  0  0  0  0  0  0
   45.1910   33.5880   36.2220 H   0  0  0  0  0  0  0  0  0  0  0  0
   47.5180   33.1190   35.7190 H   0  0  0  0  0  0  0  0  0  0  0  0
   47.3980   31.5090   36.4370 H   0  0  0  0  0  0  0  0  0  0  0  0
   47.8680   34.2130   37.6570 H   0  0  0  0  0  0  0  0  0  0  0  0
   49.1990   32.1880   38.1560 S   0  0  0  0  0  0  0  0  0  0  0  0
   48.8880   30.8230   37.9010 H   0  0  0  0  0  0  0  0  0  0  0  0
   46.7260   32.2340   45.7070 C   0  0  0  0  0  0  0  0  0  0  0  0
   45.7740   33.0220   46.3600 C   0  0  0  0  0  0  0  0  0  0  0  0
   45.3600   34.1440   45.6960 C   0  0  0  0  0  0  0  0  0  0  0  0
   45.8830   34.4190   44.4690 N   0  0  0  0  0  0  0  0  0  0  0  0
   46.8200   33.6060   43.8700 C   0  0  0  0  0  0  0  0  0  0  0  0
   47.2190   32.5490   44.4860 N   0  0  0  0  0  0  0  0  0  0  0  0
   44.4340   35.0440   46.2000 N   0  0  0  0  0  0  0  0  0  0  0  0
   47.0970   31.3330   46.1780 H   0  0  0  0  0  0  0  0  0  0  0  0
   43.4400   35.1090   46.4440 H   0  0  0  0  0  0  0  0  0  0  0  0
   44.8080   36.0100   46.4280 H   0  0  0  0  0  0  0  0  0  0  0  0
   45.3170   32.5500   47.6850 C   0  0  0  0  0  0  0  0  0  0  0  0
   46.3790   32.7760   48.7330 C   0  0  0  0  0  0  0  0  0  0  0  0
   47.4270   31.7000   48.7930 C   0  0  0  0  0  0  0  0  0  0  0  0
   46.8160   30.3350   49.0080 C   0  0  0  0  0  0  0  0  0  0  0  0
   45.3020   30.4190   48.9900 C   0  0  0  0  0  0  0  0  0  0  0  0
   44.8170   31.1680   47.7760 C   0  0  0  0  0  0  0  0  0  0  0  0
  1 32  1  0  0  0  0
  2  1  1  0  0  0  0
  2  7  1  0  0  0  0
  3  2  2  0  0  0  0
  4  5  2  0  0  0  0
  4  3  1  0  0  0  0
  5  6  1  0  0  0  0
  6  1  2  0  0  0  0
  8  3  1  0  0  0  0
  9  4  1  0  0  0  0
 10 16  1  1  0  0  0
 10  5  1  0  0  0  0
 11 10  1  0  0  0  0
 11 18  1  0  0  0  0
 12 20  1  0  0  0  0
 12 11  1  0  0  0  0
 13 14  1  0  0  0  0
 13 12  1  0  0  0  0
 14 15  1  0  0  0  0
 15 25  1  6  0  0  0
 15 26  1  0  0  0  0
 15 10  1  0  0  0  0
 17 11  1  0  0  0  0
 19 12  1  0  0  0  0
 21 13  1  0  0  0  0
 22 13  1  0  0  0  0
 23 14  1  0  0  0  0
 24 14  1  0  0  0  0
 27 26  1  0  0  0  0
 28 35  1  0  0  0  0
 28 29  1  0  0  0  0
 29 38  1  0  0  0  0
 30 34  1  0  0  0  0
 30 29  2  0  0  0  0
 31 30  1  0  0  0  0
 32 31  2  0  0  0  0
 32 33  1  0  0  0  0
 33 28  2  0  0  0  0
 34 37  1  0  0  0  0
 34 36  1  0  0  0  0
 38 43  1  0  0  0  0
 38 39  1  0  0  0  0
 39 40  1  0  0  0  0
 40 41  1  0  0  0  0
 42 41  1  0  0  0  0
 43 42  1  0  0  0  0
M  END
>  <minimizedAffinity>
-6.6678257

>  <minimizedRMSD>
0.631141841

$$$$
