REMARK  Name = 
REMARK  3 active torsions:
REMARK  status: ('A' for Active; 'I' for Inactive)
REMARK    1  A    between atoms: C_1  and  C_18
REMARK    2  A    between atoms: C_3  and  C_4
REMARK    3  A    between atoms: C_16  and  C_33
REMARK                            x       y       z     vdW  Elec       q    Type
REMARK                         _______ _______ _______ _____ _____    ______ ____
ROOT
ATOM      1  C   UNL     1      46.392  32.669  45.874  0.00  0.00    +0.000 C 
ATOM      2  C   UNL     1      46.977  32.836  47.211  0.00  0.00    +0.000 C 
ATOM      3  C   UNL     1      45.547  32.207  46.957  0.00  0.00    +0.000 C 
ATOM      4  H   UNL     1      47.149  32.027  45.295  0.00  0.00    +0.000 HD
ATOM      5  H   UNL     1      47.650  32.110  47.698  0.00  0.00    +0.000 HD
ATOM      6  H   UNL     1      47.010  33.826  47.694  0.00  0.00    +0.000 HD
ATOM      7  H   UNL     1      44.899  32.882  47.586  0.00  0.00    +0.000 HD
ENDROOT
BRANCH   3   8
ATOM      8  C   UNL     1      45.301  30.804  47.300  0.00  0.00    +0.000 A 
ATOM      9  C   UNL     1      45.167  30.267  48.544  0.00  0.00    +0.000 A 
ATOM     10  C   UNL     1      45.059  28.915  48.839  0.00  0.00    +0.000 A 
ATOM     11  C   UNL     1      45.093  28.035  47.745  0.00  0.00    +0.000 A 
ATOM     12  C   UNL     1      45.225  28.553  46.461  0.00  0.00    +0.000 A 
ATOM     13  C   UNL     1      45.197  27.657  45.407  0.00  0.00    +0.000 A 
ATOM     14  C   UNL     1      45.260  28.141  44.110  0.00  0.00    +0.000 A 
ATOM     15  C   UNL     1      45.348  29.492  43.861  0.00  0.00    +0.000 A 
ATOM     16  C   UNL     1      45.375  30.345  44.941  0.00  0.00    +0.000 A 
ATOM     17  C   UNL     1      45.324  29.917  46.252  0.00  0.00    +0.000 A 
ATOM     18  H   UNL     1      45.147  30.986  49.358  0.00  0.00    +0.000 HD
ATOM     19  H   UNL     1      44.955  28.560  49.856  0.00  0.00    +0.000 HD
ATOM     20  H   UNL     1      45.016  26.971  47.919  0.00  0.00    +0.000 HD
ATOM     21  H   UNL     1      45.124  26.593  45.633  0.00  0.00    +0.000 HD
ATOM     22  H   UNL     1      45.232  27.335  43.358  0.00  0.00    +0.000 HD
ATOM     23  H   UNL     1      45.383  29.667  42.799  0.00  0.00    +0.000 HD
ATOM     24  H   UNL     1      45.358  31.301  44.504  0.00  0.00    +0.000 HD
ENDBRANCH   3   8
BRANCH   1  29
ATOM     25  C   UNL     1      44.624  35.742  44.841  0.00  0.00    +0.000 A 
ATOM     26  C   UNL     1      45.131  35.967  43.514  0.00  0.00    +0.000 A 
ATOM     27  C   UNL     1      46.103  35.022  43.025  0.00  0.00    +0.000 A 
ATOM     28  N   UNL     1      46.474  34.021  43.801  0.00  0.00    +0.000 NA
ATOM     29  C   UNL     1      45.957  33.847  45.070  0.00  0.00    +0.000 A 
ATOM     30  N   UNL     1      45.060  34.688  45.566  0.00  0.00    +0.000 NA
ATOM     31  H   UNL     1      43.891  36.455  45.207  0.00  0.00    +0.000 HD
ATOM     32  H   UNL     1      44.793  36.794  42.939  0.00  0.00    +0.000 HD
BRANCH  27  33
ATOM     33  C   UNL     1      46.642  35.231  41.652  0.00  0.00    +0.000 C 
ATOM     34  C   UNL     1      47.893  34.417  41.481  0.00  0.00    +0.000 C 
ATOM     35  C   UNL     1      48.363  34.271  40.082  0.00  0.00    +0.000 C 
ATOM     36  C   UNL     1      47.281  33.858  39.137  0.00  0.00    +0.000 C 
ATOM     37  C   UNL     1      46.158  34.859  39.243  0.00  0.00    +0.000 C 
ATOM     38  C   UNL     1      45.591  34.909  40.618  0.00  0.00    +0.000 C 
ENDBRANCH  27  33
ENDBRANCH   1  29
TORSDOF 3
