
     RDKit          3D

 29 30  0  0  0  0  0  0  0  0999 V2000
   44.5600   36.0103   44.4959 C   0  0  0  0  0  0  0  0  0  0  0  0
   45.3058   35.9229   43.2947 C   0  0  0  0  0  0  0  0  0  0  0  0
   46.1939   34.8585   43.1708 C   0  0  0  0  0  0  0  0  0  0  0  0
   46.3108   33.9588   44.1881 N   0  0  0  0  0  0  0  0  0  0  0  0
   45.5691   34.0859   45.3280 C   0  0  0  0  0  0  0  0  0  0  0  0
   44.7024   35.1043   45.4764 N   0  0  0  0  0  0  0  0  0  0  0  0
   46.9601   34.7743   41.9291 C   0  0  0  0  0  0  0  0  0  0  0  0
   43.8673   36.8277   44.6099 H   0  0  0  0  0  0  0  0  0  0  0  0
   45.1559   36.6696   42.5439 H   0  0  0  0  0  0  0  0  0  0  0  0
   45.6607   33.3798   46.1265 H   0  0  0  0  0  0  0  0  0  0  0  0
   47.2149   33.7053   41.7702 H   0  0  0  0  0  0  0  0  0  0  0  0
   46.4079   35.1105   41.0431 H   0  0  0  0  0  0  0  0  0  0  0  0
   48.2732   35.5063   41.9812 C   0  0  0  0  0  0  0  0  0  0  0  0
   49.4788   34.6449   41.7542 C   0  0  0  0  0  0  0  0  0  0  0  0
   50.6694   35.4621   42.2602 C   0  0  0  0  0  0  0  0  0  0  0  0
   50.7756   36.6737   41.3742 C   0  0  0  0  0  0  0  0  0  0  0  0
   49.5194   37.5090   41.4585 C   0  0  0  0  0  0  0  0  0  0  0  0
   48.3374   36.6518   40.9898 C   0  0  0  0  0  0  0  0  0  0  0  0
   48.3980   35.9657   42.9824 H   0  0  0  0  0  0  0  0  0  0  0  0
   49.6860   34.4448   40.6821 H   0  0  0  0  0  0  0  0  0  0  0  0
   49.4510   33.6964   42.3242 H   0  0  0  0  0  0  0  0  0  0  0  0
   50.3765   35.8190   43.2800 H   0  0  0  0  0  0  0  0  0  0  0  0
   51.5973   34.8818   42.2340 H   0  0  0  0  0  0  0  0  0  0  0  0
   51.6142   37.3402   41.7137 H   0  0  0  0  0  0  0  0  0  0  0  0
   50.9431   36.3207   40.3414 H   0  0  0  0  0  0  0  0  0  0  0  0
   49.2931   37.7274   42.5211 H   0  0  0  0  0  0  0  0  0  0  0  0
   49.6078   38.4212   40.8662 H   0  0  0  0  0  0  0  0  0  0  0  0
   47.4020   37.2317   41.0816 H   0  0  0  0  0  0  0  0  0  0  0  0
   48.5040   36.3024   39.9452 H   0  0  0  0  0  0  0  0  0  0  0  0
  1  6  2  0
  2  1  1  0
  3  2  2  0
  3  4  1  0
  4  5  2  0
  5  6  1  0
  7  3  1  0
  1  8  1  0
  2  9  1  0
  5 10  1  0
  7 11  1  0
  7 12  1  0
 13 14  1  0
 14 15  1  0
 15 16  1  0
 16 17  1  0
 17 18  1  0
 18 13  1  0
 13 19  1  0
 14 20  1  0
 14 21  1  0
 15 22  1  0
 15 23  1  0
 16 24  1  0
 16 25  1  0
 17 26  1  0
 17 27  1  0
 18 28  1  0
 18 29  1  0
  7 13  1  0
M  ISO  5   8  14   9  14  10  14  11   8  12   8
M  END
>  <DihAtoms>  (1) 
2,6,12,13

>  <DihDeg>  (1) 
-59.99933838426612

$$$$
