
 OpenBabel03252505073D

 40 43  0  0  1  0  0  0  0  0999 V2000
   44.5680   35.5580   44.5820 C   0  0  0  0  0  0  0  0  0  0  0  0
   45.2490   35.5830   43.3430 C   0  0  0  0  0  0  0  0  0  0  0  0
   46.3440   34.7030   43.1720 C   0  0  0  0  0  0  0  0  0  0  0  0
   46.6880   33.8810   44.2000 N   0  0  0  0  0  0  0  0  0  0  0  0
   46.0150   33.8870   45.3640 C   0  0  0  0  0  0  0  0  0  0  0  0
   44.9510   34.7260   45.5620 N   0  0  0  0  0  0  0  0  0  0  0  0
   43.7310   36.2420   44.6880 H   0  0  0  0  0  0  0  0  0  0  0  0
   45.0020   36.2200   42.5130 H   0  0  0  0  0  0  0  0  0  0  0  0
   46.4410   32.9660   46.4560 C   0  0  2  0  0  0  0  0  0  0  0  0
   46.9710   31.7410   45.7640 C   0  0  0  0  0  0  0  0  0  0  0  0
   46.0980   30.5540   45.7810 C   0  0  0  0  0  0  0  0  0  0  0  0
   45.7800   30.2870   47.2460 C   0  0  0  0  0  0  0  0  0  0  0  0
   44.9990   31.3650   47.8440 C   0  0  0  0  0  0  0  0  0  0  0  0
   45.3760   32.7350   47.4060 C   0  0  0  0  0  0  0  0  0  0  0  0
   47.2810   33.4920   46.9590 H   0  0  0  0  0  0  0  0  0  0  0  0
   47.9320   31.4560   46.2600 H   0  0  0  0  0  0  0  0  0  0  0  0
   47.2550   31.9340   44.7030 H   0  0  0  0  0  0  0  0  0  0  0  0
   45.1320   30.8080   45.2660 H   0  0  0  0  0  0  0  0  0  0  0  0
   46.6270   29.7090   45.3510 H   0  0  0  0  0  0  0  0  0  0  0  0
   45.1230   29.4070   47.2400 H   0  0  0  0  0  0  0  0  0  0  0  0
   46.7280   30.1140   47.7530 H   0  0  0  0  0  0  0  0  0  0  0  0
   44.1980   31.3960   48.5430 H   0  0  0  0  0  0  0  0  0  0  0  0
   44.6880   33.8760   47.9180 N   0  0  0  0  0  0  0  0  0  0  0  0
   43.8100   34.3910   47.6370 H   0  0  0  0  0  0  0  0  0  0  0  0
   44.9750   34.4330   48.7310 H   0  0  0  0  0  0  0  0  0  0  0  0
   47.0620   34.7020   41.9120 C   0  0  0  0  0  0  0  0  0  0  0  0
   48.1770   35.4720   41.8090 C   0  0  0  0  0  0  0  0  0  0  0  0
   48.8470   35.4470   40.5740 C   0  0  0  0  0  0  0  0  0  0  0  0
   48.3070   34.6440   39.5920 C   0  0  0  0  0  0  0  0  0  0  0  0
   47.1870   33.8740   39.7020 C   0  0  0  0  0  0  0  0  0  0  0  0
   46.5820   33.9360   40.9140 N   0  0  0  0  0  0  0  0  0  0  0  0
   48.5800   36.0950   42.5960 H   0  0  0  0  0  0  0  0  0  0  0  0
   49.7380   36.0300   40.4120 H   0  0  0  0  0  0  0  0  0  0  0  0
   48.8430   34.6430   38.6490 H   0  0  0  0  0  0  0  0  0  0  0  0
   46.6350   33.0200   38.6190 C   0  0  0  0  0  0  0  0  0  0  0  0
   47.1850   31.6200   38.6640 C   0  0  0  0  0  0  0  0  0  0  0  0
   47.2060   31.0800   37.2510 C   0  0  0  0  0  0  0  0  0  0  0  0
   48.3150   31.7570   36.4630 C   0  0  0  0  0  0  0  0  0  0  0  0
   48.3390   33.2320   36.8100 C   0  0  0  0  0  0  0  0  0  0  0  0
   46.9510   33.5920   37.2470 C   0  0  0  0  0  0  0  0  0  0  0  0
  1  7  1  0  0  0  0
  1  6  1  0  0  0  0
  2  1  2  0  0  0  0
  3  2  1  0  0  0  0
  3  4  2  0  0  0  0
  4  5  1  0  0  0  0
  5  6  2  0  0  0  0
  5  9  1  0  0  0  0
  8  2  1  0  0  0  0
  9 15  1  1  0  0  0
  9 14  1  0  0  0  0
 10 11  1  0  0  0  0
 10 16  1  0  0  0  0
 10  9  1  0  0  0  0
 11 12  1  0  0  0  0
 12 21  1  0  0  0  0
 12 13  1  0  0  0  0
 13 22  1  0  0  0  0
 14 13  2  0  0  0  0
 14 23  1  0  0  0  0
 17 10  1  0  0  0  0
 18 11  1  0  0  0  0
 19 11  1  0  0  0  0
 20 12  1  0  0  0  0
 23 25  1  0  0  0  0
 24 23  1  0  0  0  0
 26  3  1  0  0  0  0
 27 26  1  0  0  0  0
 27 32  1  0  0  0  0
 28 27  2  0  0  0  0
 29 30  2  0  0  0  0
 29 28  1  0  0  0  0
 30 31  1  0  0  0  0
 31 26  2  0  0  0  0
 33 28  1  0  0  0  0
 34 29  1  0  0  0  0
 35 36  1  0  0  0  0
 35 30  1  0  0  0  0
 37 36  1  0  0  0  0
 38 39  1  0  0  0  0
 38 37  1  0  0  0  0
 39 40  1  0  0  0  0
 40 35  1  0  0  0  0
M  END
>  <minimizedAffinity>
-7.41336441

>  <minimizedRMSD>
0.262082964

$$$$
