
     RDKit          3D

 29 30  0  0  0  0  0  0  0  0999 V2000
   45.4423   35.0633   43.9954 C   0  0  0  0  0  0  0  0  0  0  0  0
   46.5012   34.2973   43.5003 C   0  0  0  0  0  0  0  0  0  0  0  0
   47.0133   33.2929   44.3356 C   0  0  0  0  0  0  0  0  0  0  0  0
   46.4604   33.1243   45.5584 N   0  0  0  0  0  0  0  0  0  0  0  0
   45.4279   33.8928   46.0045 C   0  0  0  0  0  0  0  0  0  0  0  0
   44.9204   34.8631   45.2192 N   0  0  0  0  0  0  0  0  0  0  0  0
   44.8994   36.1393   43.0907 C   0  0  0  0  0  0  0  0  0  0  0  0
   46.9385   34.4378   42.5211 H   0  0  0  0  0  0  0  0  0  0  0  0
   47.8399   32.6624   44.0042 H   0  0  0  0  0  0  0  0  0  0  0  0
   44.8038   35.7604   42.0590 H   0  0  0  0  0  0  0  0  0  0  0  0
   43.9352   36.5139   43.4411 H   0  0  0  0  0  0  0  0  0  0  0  0
   45.6581   36.9586   43.0863 H   0  0  0  0  0  0  0  0  0  0  0  0
   44.8995   33.6308   47.3441 C   0  0  0  0  0  0  0  0  0  0  0  0
   44.8028   32.1897   47.7054 C   0  0  0  0  0  0  0  0  0  0  0  0
   45.4717   31.8527   49.0156 C   0  0  0  0  0  0  0  0  0  0  0  0
   45.1606   32.8094   50.1318 C   0  0  0  0  0  0  0  0  0  0  0  0
   45.2102   34.2637   49.7198 C   0  0  0  0  0  0  0  0  0  0  0  0
   45.7838   34.4015   48.3294 C   0  0  0  0  0  0  0  0  0  0  0  0
   43.9031   34.1547   47.4192 H   0  0  0  0  0  0  0  0  0  0  0  0
   43.7350   31.8400   47.7209 H   0  0  0  0  0  0  0  0  0  0  0  0
   45.2907   31.5556   46.9336 H   0  0  0  0  0  0  0  0  0  0  0  0
   45.0815   30.8504   49.3335 H   0  0  0  0  0  0  0  0  0  0  0  0
   46.5437   31.7108   48.8490 H   0  0  0  0  0  0  0  0  0  0  0  0
   44.2058   32.6285   50.6225 H   0  0  0  0  0  0  0  0  0  0  0  0
   45.9804   32.6782   50.8964 H   0  0  0  0  0  0  0  0  0  0  0  0
   45.8338   34.8822   50.3982 H   0  0  0  0  0  0  0  0  0  0  0  0
   44.1864   34.7275   49.7273 H   0  0  0  0  0  0  0  0  0  0  0  0
   46.8249   34.0767   48.2890 H   0  0  0  0  0  0  0  0  0  0  0  0
   45.7316   35.4591   48.0164 H   0  0  0  0  0  0  0  0  0  0  0  0
  1  6  2  0
  2  1  1  0
  2  3  2  0
  3  4  1  0
  4  5  2  0
  6  5  1  0
  7  1  1  0
  2  8  1  0
  3  9  1  0
  7 10  1  0
  7 11  1  0
  7 12  1  0
 13 14  1  0
 14 15  1  0
 15 16  1  0
 16 17  1  0
 17 18  1  0
 18 13  1  0
 13 19  1  0
 14 20  1  0
 14 21  1  0
 15 22  1  0
 15 23  1  0
 16 24  1  0
 16 25  1  0
 17 26  1  0
 17 27  1  0
 18 28  1  0
 18 29  1  0
  5 13  1  0
M  ISO  5   8  14   9  14  10   8  11   8  12   8
M  END
>  <DihAtoms>  (1) 
3,4,12,13

>  <DihDeg>  (1) 
125.23094953198665

$$$$
