
 OpenBabel03252502443D

 28 30  0  0  1  0  0  0  0  0999 V2000
   47.5310   35.2880   41.8600 C   0  0  0  0  0  0  0  0  0  0  0  0
   47.1060   35.9080   41.0730 H   0  0  0  0  0  0  0  0  0  0  0  0
   47.7010   35.9170   42.7920 H   0  0  0  0  0  0  0  0  0  0  0  0
   48.8830   34.7370   41.5490 C   0  0  1  0  0  0  0  0  0  0  0  0
   49.9930   35.0620   42.4970 C   0  0  0  0  0  0  0  0  0  0  0  0
   49.4050   33.7000   42.4500 C   0  0  2  0  0  0  0  0  0  0  0  0
   49.0830   34.7310   40.4430 H   0  0  0  0  0  0  0  0  0  0  0  0
   49.8800   35.7660   43.3380 H   0  0  0  0  0  0  0  0  0  0  0  0
   50.9570   35.2800   41.9800 H   0  0  0  0  0  0  0  0  0  0  0  0
   48.9220   33.1230   43.2060 H   0  0  0  0  0  0  0  0  0  0  0  0
   50.3070   32.7110   41.7010 C   0  0  0  0  0  0  0  0  0  0  0  0
   50.5870   31.4680   42.4960 C   0  0  0  0  0  0  0  0  0  0  0  0
   51.6690   30.7250   41.7640 C   0  0  0  0  0  0  0  0  0  0  0  0
   51.2510   30.3430   40.3620 C   0  0  0  0  0  0  0  0  0  0  0  0
   50.6080   31.4570   39.6140 C   0  0  0  0  0  0  0  0  0  0  0  0
   49.6310   32.2540   40.4110 C   0  0  0  0  0  0  0  0  0  0  0  0
   46.6780   34.0930   42.2560 C   0  0  0  0  0  0  0  0  0  0  0  0
   47.3920   33.3860   42.7850 H   0  0  0  0  0  0  0  0  0  0  0  0
   46.0980   33.6500   41.4660 H   0  0  0  0  0  0  0  0  0  0  0  0
   44.5020   35.9000   44.7120 C   0  0  0  0  0  0  0  0  0  0  0  0
   45.1530   35.5790   43.5040 C   0  0  0  0  0  0  0  0  0  0  0  0
   45.9280   34.4470   43.4930 C   0  0  0  0  0  0  0  0  0  0  0  0
   46.0360   33.6920   44.6230 N   0  0  0  0  0  0  0  0  0  0  0  0
   45.4150   34.0110   45.7470 C   0  0  0  0  0  0  0  0  0  0  0  0
   44.6470   35.1120   45.8080 N   0  0  0  0  0  0  0  0  0  0  0  0
   43.8690   36.7650   44.8440 H   0  0  0  0  0  0  0  0  0  0  0  0
   44.9280   36.2860   42.7410 H   0  0  0  0  0  0  0  0  0  0  0  0
   45.6060   33.3080   46.5460 H   0  0  0  0  0  0  0  0  0  0  0  0
  1 17  1  0  0  0  0
  1  3  1  0  0  0  0
  2  1  1  0  0  0  0
  4  7  1  6  0  0  0
  4  1  1  0  0  0  0
  4  6  1  0  0  0  0
  4  5  1  0  0  0  0
  5  8  1  0  0  0  0
  6  5  1  0  0  0  0
  6 10  1  1  0  0  0
  9  5  1  0  0  0  0
 11  6  1  0  0  0  0
 11 12  1  0  0  0  0
 13 12  1  0  0  0  0
 14 13  1  0  0  0  0
 15 14  1  0  0  0  0
 15 16  1  0  0  0  0
 16 11  1  0  0  0  0
 17 18  1  0  0  0  0
 17 22  1  0  0  0  0
 19 17  1  0  0  0  0
 20 26  1  0  0  0  0
 20 25  1  0  0  0  0
 21 20  2  0  0  0  0
 22 21  1  0  0  0  0
 22 23  2  0  0  0  0
 23 24  1  0  0  0  0
 24 25  2  0  0  0  0
 24 28  1  0  0  0  0
 27 21  1  0  0  0  0
M  END
>  <minimizedAffinity>
-4.78448868

>  <minimizedRMSD>
1.19726443

$$$$
