
 OpenBabel03242523283D

 18 19  0  0  0  0  0  0  0  0999 V2000
   44.4290   35.7000   44.5800 C   0  0  0  0  0  0  0  0  0  0  0  0
   44.9140   35.7960   43.2750 C   0  0  0  0  0  0  0  0  0  0  0  0
   45.9870   34.9850   42.9250 C   0  0  0  0  0  0  0  0  0  0  0  0
   46.5140   34.1420   43.8520 N   0  0  0  0  0  0  0  0  0  0  0  0
   46.0220   34.0680   45.1170 C   0  0  0  0  0  0  0  0  0  0  0  0
   44.9960   34.8450   45.4520 N   0  0  0  0  0  0  0  0  0  0  0  0
   43.5930   36.3390   44.8390 H   0  0  0  0  0  0  0  0  0  0  0  0
   44.5200   36.4550   42.5110 H   0  0  0  0  0  0  0  0  0  0  0  0
   46.3970   35.0280   41.9150 H   0  0  0  0  0  0  0  0  0  0  0  0
   46.6950   33.1050   46.0250 C   0  0  0  0  0  0  0  0  0  0  0  0
   47.3770   32.4360   45.4570 H   0  0  0  0  0  0  0  0  0  0  0  0
   47.3080   33.6090   46.7780 H   0  0  0  0  0  0  0  0  0  0  0  0
   45.6590   32.1800   46.6720 C   0  0  0  0  0  0  0  0  0  0  0  0
   45.2830   32.6520   48.0400 C   0  0  0  0  0  0  0  0  0  0  0  0
   44.9640   31.4860   48.9380 C   0  0  0  0  0  0  0  0  0  0  0  0
   46.2480   30.7050   49.0990 C   0  0  0  0  0  0  0  0  0  0  0  0
   46.7260   30.1770   47.7860 C   0  0  0  0  0  0  0  0  0  0  0  0
   46.0720   30.7520   46.5770 C   0  0  0  0  0  0  0  0  0  0  0  0
  1  7  1  0  0  0  0
  1  6  1  0  0  0  0
  2  1  2  0  0  0  0
  3  2  1  0  0  0  0
  3  4  2  0  0  0  0
  4  5  1  0  0  0  0
  5  6  2  0  0  0  0
  5 10  1  0  0  0  0
  8  2  1  0  0  0  0
  9  3  1  0  0  0  0
 10 13  1  0  0  0  0
 10 12  1  0  0  0  0
 11 10  1  0  0  0  0
 13 14  1  0  0  0  0
 14 15  1  0  0  0  0
 15 16  1  0  0  0  0
 17 16  1  0  0  0  0
 18 13  1  0  0  0  0
 18 17  1  0  0  0  0
M  END
>  <minimizedAffinity>
-4.36758327

>  <minimizedRMSD>
1.56119835

$$$$
