
 OpenBabel03242510103D

 25 27  0  0  1  0  0  0  0  0999 V2000
   38.4490   28.4540   39.1110 Br  0  0  0  0  0  0  0  0  0  0  0  0
   37.9500   28.1040   40.9360 C   0  0  0  0  0  0  0  0  0  0  0  0
   37.8450   29.1390   41.8310 C   0  0  0  0  0  0  0  0  0  0  0  0
   37.4840   28.8840   43.1470 C   0  0  0  0  0  0  0  0  0  0  0  0
   37.2370   27.6020   43.5370 C   0  0  0  0  0  0  0  0  0  0  0  0
   37.3570   26.5920   42.5930 C   0  0  0  0  0  0  0  0  0  0  0  0
   37.7050   26.7980   41.3040 C   0  0  0  0  0  0  0  0  0  0  0  0
   37.4040   29.7110   43.8490 H   0  0  0  0  0  0  0  0  0  0  0  0
   36.9570   27.3990   44.5550 H   0  0  0  0  0  0  0  0  0  0  0  0
   37.1450   25.5980   42.9770 H   0  0  0  0  0  0  0  0  0  0  0  0
   39.6240   32.2650   41.1920 C   0  0  0  0  0  0  0  0  0  0  0  0
   38.6710   33.0610   40.5140 C   0  0  0  0  0  0  0  0  0  0  0  0
   37.4230   32.4860   40.2920 C   0  0  0  0  0  0  0  0  0  0  0  0
   37.1800   31.2180   40.7270 N   0  0  0  0  0  0  0  0  0  0  0  0
   38.1180   30.4890   41.3730 C   0  0  0  0  0  0  0  0  0  0  0  0
   39.3410   31.0260   41.6010 N   0  0  0  0  0  0  0  0  0  0  0  0
   40.6220   32.6370   41.4060 H   0  0  0  0  0  0  0  0  0  0  0  0
   38.9320   34.0590   40.1960 H   0  0  0  0  0  0  0  0  0  0  0  0
   36.6590   33.0600   39.7740 H   0  0  0  0  0  0  0  0  0  0  0  0
   37.8180   25.6530   40.3270 C   0  0  2  0  0  3  0  0  0  0  0  0
   36.4780   25.0380   40.0690 C   0  0  0  0  0  3  0  0  0  0  0  0
   36.3830   23.5730   39.9870 C   0  0  0  0  0  3  0  0  0  0  0  0
   37.6790   22.8100   40.0320 C   0  0  0  0  0  2  0  0  0  0  0  0
   38.4450   23.3940   41.2240 C   0  0  0  0  0  2  0  0  0  0  0  0
   38.9150   24.7360   40.7150 C   0  0  0  0  0  2  0  0  0  0  0  0
  1  2  1  0  0  0  0
  2  7  2  0  0  0  0
  2  3  1  0  0  0  0
  3  4  2  0  0  0  0
  4  5  1  0  0  0  0
  4  8  1  0  0  0  0
  5  9  1  0  0  0  0
  6 10  1  0  0  0  0
  6  5  2  0  0  0  0
  7  6  1  0  0  0  0
 11 17  1  0  0  0  0
 11 16  1  0  0  0  0
 12 11  2  0  0  0  0
 13 12  1  0  0  0  0
 13 14  2  0  0  0  0
 14 15  1  0  0  0  0
 15 16  2  0  0  0  0
 15  3  1  0  0  0  0
 18 12  1  0  0  0  0
 19 13  1  0  0  0  0
 20 25  1  0  0  0  0
 20  7  1  1  0  0  0
 21 20  1  0  0  0  0
 22 23  1  0  0  0  0
 22 21  2  0  0  0  0
 23 24  1  0  0  0  0
 25 24  1  0  0  0  0
M  END
>  <minimizedAffinity>
-5.27469158

$$$$

 OpenBabel03242510103D

 25 27  0  0  1  0  0  0  0  0999 V2000
   38.4370   28.6100   39.1190 Br  0  0  0  0  0  0  0  0  0  0  0  0
   38.0520   28.3720   40.9890 C   0  0  0  0  0  0  0  0  0  0  0  0
   37.9780   29.4610   41.8200 C   0  0  0  0  0  0  0  0  0  0  0  0
   37.6990   29.2860   43.1690 C   0  0  0  0  0  0  0  0  0  0  0  0
   37.5010   28.0280   43.6550 C   0  0  0  0  0  0  0  0  0  0  0  0
   37.5870   26.9610   42.7720 C   0  0  0  0  0  0  0  0  0  0  0  0
   37.8560   27.0880   41.4530 C   0  0  0  0  0  0  0  0  0  0  0  0
   37.6430   30.1550   43.8210 H   0  0  0  0  0  0  0  0  0  0  0  0
   37.2850   27.8870   44.6980 H   0  0  0  0  0  0  0  0  0  0  0  0
   37.4180   25.9910   43.2300 H   0  0  0  0  0  0  0  0  0  0  0  0
   37.3240   32.6460   40.1540 C   0  0  0  0  0  0  0  0  0  0  0  0
   38.5760   33.3030   40.1850 C   0  0  0  0  0  0  0  0  0  0  0  0
   39.6270   32.6180   40.7900 C   0  0  0  0  0  0  0  0  0  0  0  0
   39.4090   31.3780   41.3100 N   0  0  0  0  0  0  0  0  0  0  0  0
   38.1960   30.7820   41.2610 C   0  0  0  0  0  0  0  0  0  0  0  0
   37.1570   31.4290   40.6780 N   0  0  0  0  0  0  0  0  0  0  0  0
   36.4530   33.1090   39.7010 H   0  0  0  0  0  0  0  0  0  0  0  0
   38.6780   34.2870   39.7530 H   0  0  0  0  0  0  0  0  0  0  0  0
   40.6070   33.0840   40.8360 H   0  0  0  0  0  0  0  0  0  0  0  0
   37.9350   25.8840   40.5470 C   0  0  2  0  0  3  0  0  0  0  0  0
   36.5760   25.3030   40.3120 C   0  0  0  0  0  3  0  0  0  0  0  0
   36.4300   23.8400   40.3160 C   0  0  0  0  0  3  0  0  0  0  0  0
   37.6960   23.0350   40.4190 C   0  0  0  0  0  2  0  0  0  0  0  0
   38.4740   23.6610   41.5820 C   0  0  0  0  0  2  0  0  0  0  0  0
   38.9960   24.9540   41.0000 C   0  0  0  0  0  2  0  0  0  0  0  0
  1  2  1  0  0  0  0
  2  7  2  0  0  0  0
  2  3  1  0  0  0  0
  3  4  2  0  0  0  0
  4  5  1  0  0  0  0
  4  8  1  0  0  0  0
  5  9  1  0  0  0  0
  6 10  1  0  0  0  0
  6  5  2  0  0  0  0
  7  6  1  0  0  0  0
 11 12  2  0  0  0  0
 11 16  1  0  0  0  0
 12 13  1  0  0  0  0
 13 19  1  0  0  0  0
 13 14  2  0  0  0  0
 15 14  1  0  0  0  0
 15  3  1  0  0  0  0
 16 15  2  0  0  0  0
 17 11  1  0  0  0  0
 18 12  1  0  0  0  0
 20 25  1  0  0  0  0
 20  7  1  1  0  0  0
 21 22  2  0  0  0  0
 21 20  1  0  0  0  0
 22 23  1  0  0  0  0
 23 24  1  0  0  0  0
 25 24  1  0  0  0  0
M  END
>  <minimizedAffinity>
-5.25727844

$$$$

 OpenBabel03242510103D

 25 27  0  0  1  0  0  0  0  0999 V2000
   40.8730   29.8900   40.6650 Br  0  0  0  0  0  0  0  0  0  0  0  0
   39.0880   30.6070   40.6350 C   0  0  0  0  0  0  0  0  0  0  0  0
   38.8610   31.8650   40.1370 C   0  0  0  0  0  0  0  0  0  0  0  0
   37.5710   32.3800   40.1160 C   0  0  0  0  0  0  0  0  0  0  0  0
   36.5410   31.6260   40.5930 C   0  0  0  0  0  0  0  0  0  0  0  0
   36.8250   30.3600   41.0860 C   0  0  0  0  0  0  0  0  0  0  0  0
   38.0640   29.8230   41.1240 C   0  0  0  0  0  0  0  0  0  0  0  0
   37.4010   33.3790   39.7200 H   0  0  0  0  0  0  0  0  0  0  0  0
   35.5410   32.0200   40.5800 H   0  0  0  0  0  0  0  0  0  0  0  0
   35.9560   29.8190   41.4480 H   0  0  0  0  0  0  0  0  0  0  0  0
   41.7020   34.1600   40.0690 C   0  0  0  0  0  0  0  0  0  0  0  0
   42.1380   34.1140   38.7240 C   0  0  0  0  0  0  0  0  0  0  0  0
   41.4280   33.2790   37.8660 C   0  0  0  0  0  0  0  0  0  0  0  0
   40.3730   32.5630   38.3460 N   0  0  0  0  0  0  0  0  0  0  0  0
   39.9870   32.6340   39.6400 C   0  0  0  0  0  0  0  0  0  0  0  0
   40.6620   33.4400   40.4950 N   0  0  0  0  0  0  0  0  0  0  0  0
   42.2000   34.7860   40.8050 H   0  0  0  0  0  0  0  0  0  0  0  0
   42.9830   34.7090   38.4120 H   0  0  0  0  0  0  0  0  0  0  0  0
   41.7270   33.2130   36.8240 H   0  0  0  0  0  0  0  0  0  0  0  0
   38.3050   28.4380   41.6740 C   0  0  2  0  0  3  0  0  0  0  0  0
   37.8620   27.3930   40.6980 C   0  0  0  0  0  3  0  0  0  0  0  0
   37.1520   26.2120   41.2110 C   0  0  0  0  0  3  0  0  0  0  0  0
   37.0490   26.0830   42.7060 C   0  0  0  0  0  2  0  0  0  0  0  0
   36.5660   27.4530   43.1930 C   0  0  0  0  0  2  0  0  0  0  0  0
   37.7920   28.3260   43.0590 C   0  0  0  0  0  2  0  0  0  0  0  0
  2  1  1  0  0  0  0
  2  7  1  0  0  0  0
  3  2  2  0  0  0  0
  4  3  1  0  0  0  0
  4  5  2  0  0  0  0
  5  6  1  0  0  0  0
  6  7  2  0  0  0  0
  6 10  1  0  0  0  0
  8  4  1  0  0  0  0
  9  5  1  0  0  0  0
 11 16  1  0  0  0  0
 11 17  1  0  0  0  0
 12 11  2  0  0  0  0
 13 14  2  0  0  0  0
 13 12  1  0  0  0  0
 14 15  1  0  0  0  0
 15  3  1  0  0  0  0
 15 16  2  0  0  0  0
 18 12  1  0  0  0  0
 19 13  1  0  0  0  0
 20  7  1  6  0  0  0
 20 25  1  0  0  0  0
 21 22  2  0  0  0  0
 21 20  1  0  0  0  0
 22 23  1  0  0  0  0
 23 24  1  0  0  0  0
 25 24  1  0  0  0  0
M  END
>  <minimizedAffinity>
-5.18004227

$$$$

 OpenBabel03242510103D

 25 27  0  0  1  0  0  0  0  0999 V2000
   38.5890   27.4290   39.1760 Br  0  0  0  0  0  0  0  0  0  0  0  0
   38.0610   27.8220   40.9840 C   0  0  0  0  0  0  0  0  0  0  0  0
   37.6480   26.8110   41.8150 C   0  0  0  0  0  0  0  0  0  0  0  0
   37.2670   27.0980   43.1190 C   0  0  0  0  0  0  0  0  0  0  0  0
   37.3090   28.3860   43.5610 C   0  0  0  0  0  0  0  0  0  0  0  0
   37.7340   29.3710   42.6810 C   0  0  0  0  0  0  0  0  0  0  0  0
   38.1120   29.1350   41.4050 C   0  0  0  0  0  0  0  0  0  0  0  0
   36.9410   26.2900   43.7700 H   0  0  0  0  0  0  0  0  0  0  0  0
   37.0150   28.6130   44.5700 H   0  0  0  0  0  0  0  0  0  0  0  0
   37.7400   30.3720   43.1030 H   0  0  0  0  0  0  0  0  0  0  0  0
   38.7280   23.4240   40.9760 C   0  0  0  0  0  0  0  0  0  0  0  0
   37.5980   22.8610   40.3370 C   0  0  0  0  0  0  0  0  0  0  0  0
   36.4790   23.6790   40.2120 C   0  0  0  0  0  0  0  0  0  0  0  0
   36.5190   24.9510   40.6970 N   0  0  0  0  0  0  0  0  0  0  0  0
   37.6190   25.4540   41.3030 C   0  0  0  0  0  0  0  0  0  0  0  0
   38.7220   24.6770   41.4360 N   0  0  0  0  0  0  0  0  0  0  0  0
   39.6420   22.8540   41.1140 H   0  0  0  0  0  0  0  0  0  0  0  0
   37.6360   21.8440   39.9760 H   0  0  0  0  0  0  0  0  0  0  0  0
   35.5880   23.2880   39.7280 H   0  0  0  0  0  0  0  0  0  0  0  0
   38.5650   30.2530   40.4980 C   0  0  2  0  0  3  0  0  0  0  0  0
   39.4450   31.2130   41.2350 C   0  0  0  0  0  3  0  0  0  0  0  0
   39.2660   32.6530   40.9950 C   0  0  0  0  0  3  0  0  0  0  0  0
   38.2960   33.0410   39.9130 C   0  0  0  0  0  2  0  0  0  0  0  0
   37.0330   32.2190   40.1950 C   0  0  0  0  0  2  0  0  0  0  0  0
   37.4170   30.8250   39.7560 C   0  0  0  0  0  2  0  0  0  0  0  0
  1  2  1  0  0  0  0
  2  7  2  0  0  0  0
  2  3  1  0  0  0  0
  3  4  2  0  0  0  0
  4  5  1  0  0  0  0
  4  8  1  0  0  0  0
  5  9  1  0  0  0  0
  6 10  1  0  0  0  0
  6  5  2  0  0  0  0
  7  6  1  0  0  0  0
 11 17  1  0  0  0  0
 11 16  1  0  0  0  0
 12 11  2  0  0  0  0
 13 12  1  0  0  0  0
 13 14  2  0  0  0  0
 14 15  1  0  0  0  0
 15 16  2  0  0  0  0
 15  3  1  0  0  0  0
 18 12  1  0  0  0  0
 19 13  1  0  0  0  0
 20 21  1  0  0  0  0
 20  7  1  1  0  0  0
 22 21  2  0  0  0  0
 23 24  1  0  0  0  0
 23 22  1  0  0  0  0
 25 24  1  0  0  0  0
 25 20  1  0  0  0  0
M  END
>  <minimizedAffinity>
-5.00981092

$$$$

 OpenBabel03242510103D

 25 27  0  0  1  0  0  0  0  0999 V2000
   37.0180   26.4670   38.3030 Br  0  0  0  0  0  0  0  0  0  0  0  0
   36.9550   26.7260   40.2080 C   0  0  0  0  0  0  0  0  0  0  0  0
   37.0340   25.6470   41.0520 C   0  0  0  0  0  0  0  0  0  0  0  0
   36.9880   25.8370   42.4270 C   0  0  0  0  0  0  0  0  0  0  0  0
   36.8650   27.0990   42.9250 C   0  0  0  0  0  0  0  0  0  0  0  0
   36.7890   28.1560   42.0290 C   0  0  0  0  0  0  0  0  0  0  0  0
   36.8300   28.0140   40.6850 C   0  0  0  0  0  0  0  0  0  0  0  0
   37.0510   24.9750   43.0880 H   0  0  0  0  0  0  0  0  0  0  0  0
   36.8300   27.2520   43.9880 H   0  0  0  0  0  0  0  0  0  0  0  0
   36.6930   29.1310   42.4980 H   0  0  0  0  0  0  0  0  0  0  0  0
   36.1450   22.4840   39.4540 C   0  0  0  0  0  0  0  0  0  0  0  0
   37.3750   21.7890   39.3800 C   0  0  0  0  0  0  0  0  0  0  0  0
   38.4930   22.4420   39.8910 C   0  0  0  0  0  0  0  0  0  0  0  0
   38.3570   23.6880   40.4270 N   0  0  0  0  0  0  0  0  0  0  0  0
   37.1630   24.3200   40.4790 C   0  0  0  0  0  0  0  0  0  0  0  0
   36.0600   23.7050   39.9870 N   0  0  0  0  0  0  0  0  0  0  0  0
   35.2240   22.0470   39.0780 H   0  0  0  0  0  0  0  0  0  0  0  0
   37.4100   20.8030   38.9420 H   0  0  0  0  0  0  0  0  0  0  0  0
   39.4590   21.9460   39.8560 H   0  0  0  0  0  0  0  0  0  0  0  0
   36.7420   29.2080   39.7650 C   0  0  2  0  0  3  0  0  0  0  0  0
   38.1070   29.7150   39.4190 C   0  0  0  0  0  3  0  0  0  0  0  0
   38.3260   31.1690   39.3850 C   0  0  0  0  0  3  0  0  0  0  0  0
   37.1120   32.0380   39.5670 C   0  0  0  0  0  2  0  0  0  0  0  0
   36.3940   31.4690   40.7970 C   0  0  0  0  0  2  0  0  0  0  0  0
   35.7660   30.1970   40.2780 C   0  0  0  0  0  2  0  0  0  0  0  0
  1  2  1  0  0  0  0
  2  7  2  0  0  0  0
  2  3  1  0  0  0  0
  3  4  2  0  0  0  0
  4  5  1  0  0  0  0
  4  8  1  0  0  0  0
  5  9  1  0  0  0  0
  6 10  1  0  0  0  0
  6  5  2  0  0  0  0
  7  6  1  0  0  0  0
 11 16  1  0  0  0  0
 12 11  2  0  0  0  0
 12 13  1  0  0  0  0
 13 14  2  0  0  0  0
 14 15  1  0  0  0  0
 15  3  1  0  0  0  0
 16 15  2  0  0  0  0
 17 11  1  0  0  0  0
 18 12  1  0  0  0  0
 19 13  1  0  0  0  0
 20 25  1  0  0  0  0
 20  7  1  1  0  0  0
 21 20  1  0  0  0  0
 22 21  2  0  0  0  0
 22 23  1  0  0  0  0
 23 24  1  0  0  0  0
 25 24  1  0  0  0  0
M  END
>  <minimizedAffinity>
-4.91288996

$$$$

 OpenBabel03242510103D

 25 27  0  0  1  0  0  0  0  0999 V2000
   40.5270   30.3790   39.0750 Br  0  0  0  0  0  0  0  0  0  0  0  0
   39.2810   31.8150   39.3690 C   0  0  0  0  0  0  0  0  0  0  0  0
   39.7410   33.0770   39.6490 C   0  0  0  0  0  0  0  0  0  0  0  0
   38.8390   34.1130   39.8600 C   0  0  0  0  0  0  0  0  0  0  0  0
   37.5020   33.8610   39.7870 C   0  0  0  0  0  0  0  0  0  0  0  0
   37.0900   32.5670   39.5010 C   0  0  0  0  0  0  0  0  0  0  0  0
   37.9330   31.5330   39.2890 C   0  0  0  0  0  0  0  0  0  0  0  0
   39.2130   35.1100   40.0820 H   0  0  0  0  0  0  0  0  0  0  0  0
   36.8000   34.6590   39.9500 H   0  0  0  0  0  0  0  0  0  0  0  0
   36.0120   32.4430   39.4590 H   0  0  0  0  0  0  0  0  0  0  0  0
   43.1240   33.3340   41.0010 C   0  0  0  0  0  0  0  0  0  0  0  0
   43.9030   33.7180   39.8850 C   0  0  0  0  0  0  0  0  0  0  0  0
   43.2280   33.8790   38.6780 C   0  0  0  0  0  0  0  0  0  0  0  0
   41.8830   33.6670   38.6270 N   0  0  0  0  0  0  0  0  0  0  0  0
   41.1730   33.3000   39.7180 C   0  0  0  0  0  0  0  0  0  0  0  0
   41.8070   33.1370   40.9040 N   0  0  0  0  0  0  0  0  0  0  0  0
   43.5720   33.1870   41.9800 H   0  0  0  0  0  0  0  0  0  0  0  0
   44.9670   33.8690   39.9970 H   0  0  0  0  0  0  0  0  0  0  0  0
   43.7860   34.1730   37.7930 H   0  0  0  0  0  0  0  0  0  0  0  0
   37.4180   30.1480   38.9820 C   0  0  2  0  0  3  0  0  0  0  0  0
   36.6480   30.1380   37.6980 C   0  0  0  0  0  3  0  0  0  0  0  0
   35.4060   29.3530   37.6330 C   0  0  0  0  0  3  0  0  0  0  0  0
   35.0820   28.5040   38.8310 C   0  0  0  0  0  2  0  0  0  0  0  0
   35.2570   29.4310   40.0380 C   0  0  0  0  0  2  0  0  0  0  0  0
   36.7570   29.5570   40.1680 C   0  0  0  0  0  2  0  0  0  0  0  0
  1  2  1  0  0  0  0
  2  3  1  0  0  0  0
  3 15  1  0  0  0  0
  3  4  2  0  0  0  0
  4  8  1  0  0  0  0
  5  4  1  0  0  0  0
  5  9  1  0  0  0  0
  6  5  2  0  0  0  0
  7  2  2  0  0  0  0
  7  6  1  0  0  0  0
 10  6  1  0  0  0  0
 11 17  1  0  0  0  0
 12 18  1  0  0  0  0
 12 11  2  0  0  0  0
 13 12  1  0  0  0  0
 14 13  2  0  0  0  0
 14 15  1  0  0  0  0
 15 16  2  0  0  0  0
 16 11  1  0  0  0  0
 19 13  1  0  0  0  0
 20  7  1  1  0  0  0
 20 25  1  0  0  0  0
 21 20  1  0  0  0  0
 22 21  2  0  0  0  0
 22 23  1  0  0  0  0
 23 24  1  0  0  0  0
 24 25  1  0  0  0  0
M  END
>  <minimizedAffinity>
-4.89342737

$$$$

 OpenBabel03242510103D

 25 27  0  0  1  0  0  0  0  0999 V2000
   36.1540   29.8280   39.9680 Br  0  0  0  0  0  0  0  0  0  0  0  0
   36.0150   28.0310   39.2930 C   0  0  0  0  0  0  0  0  0  0  0  0
   36.6160   26.9960   39.9650 C   0  0  0  0  0  0  0  0  0  0  0  0
   36.5140   25.7000   39.4750 C   0  0  0  0  0  0  0  0  0  0  0  0
   35.8150   25.4710   38.3280 C   0  0  0  0  0  0  0  0  0  0  0  0
   35.2270   26.5520   37.6880 C   0  0  0  0  0  0  0  0  0  0  0  0
   35.3020   27.8270   38.1300 C   0  0  0  0  0  0  0  0  0  0  0  0
   36.9940   24.8860   40.0140 H   0  0  0  0  0  0  0  0  0  0  0  0
   35.7340   24.4700   37.9450 H   0  0  0  0  0  0  0  0  0  0  0  0
   34.6880   26.2930   36.7820 H   0  0  0  0  0  0  0  0  0  0  0  0
   39.3930   27.7610   42.2110 C   0  0  0  0  0  0  0  0  0  0  0  0
   38.7820   27.8400   43.4850 C   0  0  0  0  0  0  0  0  0  0  0  0
   37.4070   27.6240   43.5320 C   0  0  0  0  0  0  0  0  0  0  0  0
   36.7300   27.3530   42.3820 N   0  0  0  0  0  0  0  0  0  0  0  0
   37.3500   27.2860   41.1820 C   0  0  0  0  0  0  0  0  0  0  0  0
   38.6880   27.4930   41.1090 N   0  0  0  0  0  0  0  0  0  0  0  0
   40.4610   27.9160   42.0850 H   0  0  0  0  0  0  0  0  0  0  0  0
   39.3810   28.0590   44.3560 H   0  0  0  0  0  0  0  0  0  0  0  0
   36.8960   27.6740   44.4890 H   0  0  0  0  0  0  0  0  0  0  0  0
   34.6390   28.9590   37.3850 C   0  0  2  0  0  3  0  0  0  0  0  0
   33.1560   28.9380   37.5930 C   0  0  0  0  0  3  0  0  0  0  0  0
   32.2840   29.2110   36.4410 C   0  0  0  0  0  3  0  0  0  0  0  0
   32.9610   29.6300   35.1660 C   0  0  0  0  0  2  0  0  0  0  0  0
   34.0900   28.6130   34.9590 C   0  0  0  0  0  2  0  0  0  0  0  0
   35.1210   29.0220   35.9850 C   0  0  0  0  0  2  0  0  0  0  0  0
  2  3  1  0  0  0  0
  2  1  1  0  0  0  0
  3 15  1  0  0  0  0
  4  3  2  0  0  0  0
  4  8  1  0  0  0  0
  5  4  1  0  0  0  0
  6  7  1  0  0  0  0
  6  5  2  0  0  0  0
  7  2  2  0  0  0  0
  9  5  1  0  0  0  0
 10  6  1  0  0  0  0
 11 12  1  0  0  0  0
 12 13  2  0  0  0  0
 12 18  1  0  0  0  0
 13 19  1  0  0  0  0
 14 13  1  0  0  0  0
 15 14  2  0  0  0  0
 16 15  1  0  0  0  0
 16 11  2  0  0  0  0
 17 11  1  0  0  0  0
 20 21  1  0  0  0  0
 20  7  1  6  0  0  0
 22 21  2  0  0  0  0
 23 22  1  0  0  0  0
 24 23  1  0  0  0  0
 24 25  1  0  0  0  0
 25 20  1  0  0  0  0
M  END
>  <minimizedAffinity>
-4.86240149

$$$$

 OpenBabel03242510103D

 25 27  0  0  1  0  0  0  0  0999 V2000
   40.0440   28.8400   40.3160 Br  0  0  0  0  0  0  0  0  0  0  0  0
   38.1520   29.1840   40.2930 C   0  0  0  0  0  0  0  0  0  0  0  0
   37.6870   30.4580   40.0820 C   0  0  0  0  0  0  0  0  0  0  0  0
   36.3210   30.7040   40.0660 C   0  0  0  0  0  0  0  0  0  0  0  0
   35.4520   29.6720   40.2590 C   0  0  0  0  0  0  0  0  0  0  0  0
   35.9740   28.4030   40.4680 C   0  0  0  0  0  0  0  0  0  0  0  0
   37.2950   28.1220   40.4910 C   0  0  0  0  0  0  0  0  0  0  0  0
   35.9620   31.7170   39.8990 H   0  0  0  0  0  0  0  0  0  0  0  0
   34.3930   29.8570   40.2480 H   0  0  0  0  0  0  0  0  0  0  0  0
   35.2220   27.6320   40.6140 H   0  0  0  0  0  0  0  0  0  0  0  0
   40.1130   32.6450   38.4460 C   0  0  0  0  0  0  0  0  0  0  0  0
   40.4830   33.5560   39.4630 C   0  0  0  0  0  0  0  0  0  0  0  0
   39.8750   33.3870   40.7040 C   0  0  0  0  0  0  0  0  0  0  0  0
   38.9750   32.3790   40.8790 N   0  0  0  0  0  0  0  0  0  0  0  0
   38.6470   31.5280   39.8810 C   0  0  0  0  0  0  0  0  0  0  0  0
   39.2260   31.6710   38.6640 N   0  0  0  0  0  0  0  0  0  0  0  0
   40.5400   32.7060   37.4490 H   0  0  0  0  0  0  0  0  0  0  0  0
   41.2040   34.3320   39.2530 H   0  0  0  0  0  0  0  0  0  0  0  0
   40.1290   34.0630   41.5150 H   0  0  0  0  0  0  0  0  0  0  0  0
   37.7970   26.7170   40.7230 C   0  0  2  0  0  3  0  0  0  0  0  0
   37.1540   25.7580   39.7710 C   0  0  0  0  0  3  0  0  0  0  0  0
   36.7270   24.4460   40.2800 C   0  0  0  0  0  3  0  0  0  0  0  0
   37.1020   24.1190   41.7000 C   0  0  0  0  0  2  0  0  0  0  0  0
   36.6910   25.3500   42.5150 C   0  0  0  0  0  2  0  0  0  0  0  0
   37.7470   26.3720   42.1630 C   0  0  0  0  0  2  0  0  0  0  0  0
  2  1  1  0  0  0  0
  2  7  1  0  0  0  0
  3  2  2  0  0  0  0
  4  3  1  0  0  0  0
  4  5  2  0  0  0  0
  5  6  1  0  0  0  0
  6  7  2  0  0  0  0
  6 10  1  0  0  0  0
  8  4  1  0  0  0  0
  9  5  1  0  0  0  0
 11 16  2  0  0  0  0
 11 12  1  0  0  0  0
 12 13  2  0  0  0  0
 13 14  1  0  0  0  0
 13 19  1  0  0  0  0
 15  3  1  0  0  0  0
 15 14  2  0  0  0  0
 16 15  1  0  0  0  0
 17 11  1  0  0  0  0
 18 12  1  0  0  0  0
 20  7  1  1  0  0  0
 20 25  1  0  0  0  0
 21 22  2  0  0  0  0
 21 20  1  0  0  0  0
 22 23  1  0  0  0  0
 23 24  1  0  0  0  0
 25 24  1  0  0  0  0
M  END
>  <minimizedAffinity>
-4.85750294

$$$$

 OpenBabel03242510103D

 25 27  0  0  1  0  0  0  0  0999 V2000
   39.6440   29.9190   38.5240 Br  0  0  0  0  0  0  0  0  0  0  0  0
   39.1130   31.6590   39.1490 C   0  0  0  0  0  0  0  0  0  0  0  0
   37.8080   31.8950   39.5010 C   0  0  0  0  0  0  0  0  0  0  0  0
   37.4270   33.1520   39.9520 C   0  0  0  0  0  0  0  0  0  0  0  0
   38.3600   34.1420   40.0410 C   0  0  0  0  0  0  0  0  0  0  0  0
   39.6660   33.8510   39.6720 C   0  0  0  0  0  0  0  0  0  0  0  0
   40.0770   32.6430   39.2290 C   0  0  0  0  0  0  0  0  0  0  0  0
   36.3910   33.3290   40.2290 H   0  0  0  0  0  0  0  0  0  0  0  0
   38.0700   35.1170   40.3890 H   0  0  0  0  0  0  0  0  0  0  0  0
   40.3510   34.6880   39.7690 H   0  0  0  0  0  0  0  0  0  0  0  0
   35.5490   29.4330   38.0250 C   0  0  0  0  0  0  0  0  0  0  0  0
   35.0190   28.7510   39.1450 C   0  0  0  0  0  0  0  0  0  0  0  0
   35.4630   29.1660   40.3980 C   0  0  0  0  0  0  0  0  0  0  0  0
   36.3640   30.1840   40.4870 N   0  0  0  0  0  0  0  0  0  0  0  0
   36.8490   30.8120   39.3910 C   0  0  0  0  0  0  0  0  0  0  0  0
   36.4310   30.4260   38.1610 N   0  0  0  0  0  0  0  0  0  0  0  0
   35.2550   29.1720   37.0120 H   0  0  0  0  0  0  0  0  0  0  0  0
   34.3070   27.9510   39.0010 H   0  0  0  0  0  0  0  0  0  0  0  0
   35.0830   28.6710   41.2860 H   0  0  0  0  0  0  0  0  0  0  0  0
   41.5150   32.3930   38.8440 C   0  0  2  0  0  3  0  0  0  0  0  0
   42.4410   32.8050   39.9450 C   0  0  0  0  0  3  0  0  0  0  0  0
   43.6820   33.5080   39.5900 C   0  0  0  0  0  3  0  0  0  0  0  0
   43.9900   33.6340   38.1240 C   0  0  0  0  0  2  0  0  0  0  0  0
   42.6930   34.1440   37.4850 C   0  0  0  0  0  2  0  0  0  0  0  0
   41.7980   32.9280   37.4910 C   0  0  0  0  0  2  0  0  0  0  0  0
  1  2  1  0  0  0  0
  2  7  2  0  0  0  0
  2  3  1  0  0  0  0
  3  4  2  0  0  0  0
  4  5  1  0  0  0  0
  4  8  1  0  0  0  0
  5  9  1  0  0  0  0
  6 10  1  0  0  0  0
  6  5  2  0  0  0  0
  7  6  1  0  0  0  0
 11 16  2  0  0  0  0
 11 12  1  0  0  0  0
 12 13  2  0  0  0  0
 13 14  1  0  0  0  0
 13 19  1  0  0  0  0
 15  3  1  0  0  0  0
 15 14  2  0  0  0  0
 16 15  1  0  0  0  0
 17 11  1  0  0  0  0
 18 12  1  0  0  0  0
 20  7  1  1  0  0  0
 20 21  1  0  0  0  0
 22 21  2  0  0  0  0
 23 22  1  0  0  0  0
 24 25  1  0  0  0  0
 24 23  1  0  0  0  0
 25 20  1  0  0  0  0
M  END
>  <minimizedAffinity>
-4.82647038

$$$$
