
     RDKit          3D

 35 37  0  0  0  0  0  0  0  0999 V2000
   44.6299   35.4562   45.1299 C   0  0  0  0  0  0  0  0  0  0  0  0
   45.0982   35.7144   43.8040 C   0  0  0  0  0  0  0  0  0  0  0  0
   46.0413   34.8270   43.3608 C   0  0  0  0  0  0  0  0  0  0  0  0
   46.4881   33.7810   44.1472 N   0  0  0  0  0  0  0  0  0  0  0  0
   46.0134   33.5885   45.3827 C   0  0  0  0  0  0  0  0  0  0  0  0
   45.0718   34.4375   45.8795 N   0  0  0  0  0  0  0  0  0  0  0  0
   46.5413   34.9751   41.9327 C   0  0  1  0  0  0  0  0  0  0  0  0
   48.0611   35.2777   41.9339 C   0  0  0  0  0  0  0  0  0  0  0  0
   47.3889   33.9720   41.3986 C   0  0  2  0  0  0  0  0  0  0  0  0
   44.6489   36.8116   43.0187 N   0  0  0  0  0  0  0  0  0  0  0  0
   43.8830   36.1289   45.5259 H   0  0  0  0  0  0  0  0  0  0  0  0
   46.4717   32.7289   45.8497 H   0  0  0  0  0  0  0  0  0  0  0  0
   45.9496   35.6966   41.3447 H   0  0  0  0  0  0  0  0  0  0  0  0
   48.6217   35.2228   42.8636 H   0  0  0  0  0  0  0  0  0  0  0  0
   48.3491   36.0108   41.1845 H   0  0  0  0  0  0  0  0  0  0  0  0
   47.6282   33.0927   42.0678 H   0  0  0  0  0  0  0  0  0  0  0  0
   45.1136   37.7349   42.8454 H   0  0  0  0  0  0  0  0  0  0  0  0
   43.7092   36.5328   42.6087 H   0  0  0  0  0  0  0  0  0  0  0  0
   47.5409   33.6839   39.9358 C   0  0  0  0  0  0  0  0  0  0  0  0
   48.2143   32.3523   39.6790 C   0  0  0  0  0  0  0  0  0  0  0  0
   48.5396   32.1397   38.2377 C   0  0  0  0  0  0  0  0  0  0  0  0
   47.6962   32.9724   37.3108 C   0  0  0  0  0  0  0  0  0  0  0  0
   46.2949   33.0465   37.8676 C   0  0  0  0  0  0  0  0  0  0  0  0
   46.2209   33.6851   39.2312 C   0  0  0  0  0  0  0  0  0  0  0  0
   48.1689   34.4924   39.5111 H   0  0  0  0  0  0  0  0  0  0  0  0
   47.5447   31.5306   40.0073 H   0  0  0  0  0  0  0  0  0  0  0  0
   49.1664   32.3957   40.2802 H   0  0  0  0  0  0  0  0  0  0  0  0
   48.3964   31.0757   37.9700 H   0  0  0  0  0  0  0  0  0  0  0  0
   49.6013   32.4637   38.0690 H   0  0  0  0  0  0  0  0  0  0  0  0
   48.1220   33.9516   37.0822 H   0  0  0  0  0  0  0  0  0  0  0  0
   47.6163   32.4335   36.3489 H   0  0  0  0  0  0  0  0  0  0  0  0
   45.8934   32.0164   37.9613 H   0  0  0  0  0  0  0  0  0  0  0  0
   45.6477   33.5622   37.1191 H   0  0  0  0  0  0  0  0  0  0  0  0
   45.8672   34.7324   39.0799 H   0  0  0  0  0  0  0  0  0  0  0  0
   45.4727   33.1406   39.8746 H   0  0  0  0  0  0  0  0  0  0  0  0
  1  6  2  0
  2  1  1  0
  3  2  2  0
  3  4  1  0
  4  5  2  0
  5  6  1  0
  7  3  1  0
  8  7  1  0
  9  8  1  0
  9  7  1  0
 10  2  1  0
  1 11  1  0
  5 12  1  0
  7 13  1  6
  8 14  1  0
  8 15  1  0
  9 16  1  1
 10 17  1  0
 10 18  1  0
 19 20  1  0
 20 21  1  0
 21 22  1  0
 22 23  1  0
 23 24  1  0
 24 19  1  0
 19 25  1  0
 20 26  1  0
 20 27  1  0
 21 28  1  0
 21 29  1  0
 22 30  1  0
 22 31  1  0
 23 32  1  0
 23 33  1  0
 24 34  1  0
 24 35  1  0
  9 19  1  0
M  ISO  6  11  14  12  14  13  13  14  13  15  13  16  13
M  END
>  <DihAtoms>  (1) 
7,8,18,19

>  <DihDeg>  (1) 
-13.602938366458762

$$$$
