
     RDKit          3D

 29 30  0  0  0  0  0  0  0  0999 V2000
   45.4423   35.0633   43.9954 C   0  0  0  0  0  0  0  0  0  0  0  0
   46.5012   34.2973   43.5003 C   0  0  0  0  0  0  0  0  0  0  0  0
   47.0133   33.2929   44.3356 C   0  0  0  0  0  0  0  0  0  0  0  0
   46.4604   33.1243   45.5584 N   0  0  0  0  0  0  0  0  0  0  0  0
   45.4279   33.8928   46.0045 C   0  0  0  0  0  0  0  0  0  0  0  0
   44.9204   34.8631   45.2192 N   0  0  0  0  0  0  0  0  0  0  0  0
   44.8994   36.1393   43.0907 C   0  0  0  0  0  0  0  0  0  0  0  0
   46.9385   34.4378   42.5211 H   0  0  0  0  0  0  0  0  0  0  0  0
   47.8399   32.6624   44.0042 H   0  0  0  0  0  0  0  0  0  0  0  0
   44.8038   35.7604   42.0590 H   0  0  0  0  0  0  0  0  0  0  0  0
   43.9352   36.5139   43.4411 H   0  0  0  0  0  0  0  0  0  0  0  0
   45.6581   36.9586   43.0863 H   0  0  0  0  0  0  0  0  0  0  0  0
   44.8995   33.6308   47.3441 C   0  0  0  0  0  0  0  0  0  0  0  0
   43.4297   33.8227   47.4832 C   0  0  0  0  0  0  0  0  0  0  0  0
   42.7225   32.6324   48.0837 C   0  0  0  0  0  0  0  0  0  0  0  0
   43.4043   32.0537   49.2913 C   0  0  0  0  0  0  0  0  0  0  0  0
   44.9037   31.9248   49.1415 C   0  0  0  0  0  0  0  0  0  0  0  0
   45.3202   32.2058   47.7172 C   0  0  0  0  0  0  0  0  0  0  0  0
   45.4814   34.2744   48.0652 H   0  0  0  0  0  0  0  0  0  0  0  0
   43.1895   34.7477   48.0744 H   0  0  0  0  0  0  0  0  0  0  0  0
   42.9588   33.9980   46.4915 H   0  0  0  0  0  0  0  0  0  0  0  0
   41.7147   32.9882   48.4236 H   0  0  0  0  0  0  0  0  0  0  0  0
   42.5244   31.8954   47.2997 H   0  0  0  0  0  0  0  0  0  0  0  0
   43.2010   32.5873   50.2181 H   0  0  0  0  0  0  0  0  0  0  0  0
   43.0142   31.0000   49.3981 H   0  0  0  0  0  0  0  0  0  0  0  0
   45.2768   30.9126   49.4021 H   0  0  0  0  0  0  0  0  0  0  0  0
   45.4466   32.6411   49.8164 H   0  0  0  0  0  0  0  0  0  0  0  0
   44.9179   31.4635   47.0257 H   0  0  0  0  0  0  0  0  0  0  0  0
   46.4223   32.1904   47.6495 H   0  0  0  0  0  0  0  0  0  0  0  0
  1  6  2  0
  2  1  1  0
  2  3  2  0
  3  4  1  0
  4  5  2  0
  6  5  1  0
  7  1  1  0
  2  8  1  0
  3  9  1  0
  7 10  1  0
  7 11  1  0
  7 12  1  0
 13 14  1  0
 14 15  1  0
 15 16  1  0
 16 17  1  0
 17 18  1  0
 18 13  1  0
 13 19  1  0
 14 20  1  0
 14 21  1  0
 15 22  1  0
 15 23  1  0
 16 24  1  0
 16 25  1  0
 17 26  1  0
 17 27  1  0
 18 28  1  0
 18 29  1  0
  5 13  1  0
M  ISO  5   8  14   9  14  10   8  11   8  12   8
M  END
>  <DihAtoms>  (1) 
3,4,12,13

>  <DihDeg>  (1) 
125.23094953198665

$$$$
