
 OpenBabel03252508263D

 38 42  0  0  1  0  0  0  0  0999 V2000
   46.3290   32.3630   46.1120 C   0  0  1  0  0  0  0  0  0  0  0  0
   46.7240   32.4570   47.5240 C   0  0  0  0  0  0  0  0  0  0  0  0
   45.3950   31.7490   47.0350 C   0  0  2  0  0  0  0  0  0  0  0  0
   47.2040   31.8300   45.5920 H   0  0  0  0  0  0  0  0  0  0  0  0
   47.3880   31.7430   48.0400 H   0  0  0  0  0  0  0  0  0  0  0  0
   46.6120   33.4010   48.0800 H   0  0  0  0  0  0  0  0  0  0  0  0
   44.6180   32.3190   47.6210 H   0  0  0  0  0  0  0  0  0  0  0  0
   45.2260   30.3080   47.2350 C   0  0  0  0  0  0  0  0  0  0  0  0
   45.1300   29.6420   48.4190 C   0  0  0  0  0  0  0  0  0  0  0  0
   45.0950   28.2630   48.5760 C   0  0  0  0  0  0  0  0  0  0  0  0
   45.1670   27.5010   47.3990 C   0  0  0  0  0  0  0  0  0  0  0  0
   45.2610   28.1520   46.1730 C   0  0  0  0  0  0  0  0  0  0  0  0
   45.2720   27.3660   45.0340 C   0  0  0  0  0  0  0  0  0  0  0  0
   45.2990   27.9810   43.7930 C   0  0  0  0  0  0  0  0  0  0  0  0
   45.3140   29.3530   43.6810 C   0  0  0  0  0  0  0  0  0  0  0  0
   45.3050   30.0930   44.8420 C   0  0  0  0  0  0  0  0  0  0  0  0
   45.2870   29.5330   46.1030 C   0  0  0  0  0  0  0  0  0  0  0  0
   45.0780   30.2730   49.3010 H   0  0  0  0  0  0  0  0  0  0  0  0
   45.0180   27.8030   49.5520 H   0  0  0  0  0  0  0  0  0  0  0  0
   45.1470   26.4220   47.4650 H   0  0  0  0  0  0  0  0  0  0  0  0
   45.2570   26.2820   45.1520 H   0  0  0  0  0  0  0  0  0  0  0  0
   45.3080   27.2540   42.9630 H   0  0  0  0  0  0  0  0  0  0  0  0
   45.3320   29.6350   42.6420 H   0  0  0  0  0  0  0  0  0  0  0  0
   45.2350   31.0860   44.5030 H   0  0  0  0  0  0  0  0  0  0  0  0
   44.6330   35.5180   45.2130 C   0  0  0  0  0  0  0  0  0  0  0  0
   45.0870   35.7480   43.8680 C   0  0  0  0  0  0  0  0  0  0  0  0
   45.9980   34.7760   43.3180 C   0  0  0  0  0  0  0  0  0  0  0  0
   46.3660   33.7480   44.0600 N   0  0  0  0  0  0  0  0  0  0  0  0
   45.9020   33.5700   45.3490 C   0  0  0  0  0  0  0  0  0  0  0  0
   45.0620   34.4350   45.9000 N   0  0  0  0  0  0  0  0  0  0  0  0
   43.9450   36.2510   45.6250 H   0  0  0  0  0  0  0  0  0  0  0  0
   44.7540   36.5970   43.3230 H   0  0  0  0  0  0  0  0  0  0  0  0
   46.4810   34.9900   41.9250 C   0  0  0  0  0  3  0  0  0  0  0  0
   47.9470   35.3160   41.9540 C   0  0  0  0  0  2  0  0  0  0  0  0
   48.6350   35.2410   40.6420 C   0  0  0  0  0  2  0  0  0  0  0  0
   48.3470   33.9760   39.8970 C   0  0  0  0  0  2  0  0  0  0  0  0
   46.8510   33.8500   39.7490 C   0  0  0  0  0  2  0  0  0  0  0  0
   46.1680   33.7870   41.0680 C   0  0  0  0  0  2  0  0  0  0  0  0
  1  4  1  6  0  0  0
  1  3  1  0  0  0  0
  1  2  1  0  0  0  0
  2  5  1  0  0  0  0
  2  6  1  0  0  0  0
  3  8  1  0  0  0  0
  3  2  1  0  0  0  0
  3  7  1  1  0  0  0
  8  9  1  0  0  0  0
  9 10  2  0  0  0  0
  9 18  1  0  0  0  0
 10 19  1  0  0  0  0
 11 20  1  0  0  0  0
 11 10  1  0  0  0  0
 12 11  2  0  0  0  0
 13 21  1  0  0  0  0
 13 12  1  0  0  0  0
 14 13  2  0  0  0  0
 15 14  1  0  0  0  0
 15 16  2  0  0  0  0
 16 17  1  0  0  0  0
 17 12  1  0  0  0  0
 17  8  2  0  0  0  0
 22 14  1  0  0  0  0
 23 15  1  0  0  0  0
 24 16  1  0  0  0  0
 25 31  1  0  0  0  0
 25 30  1  0  0  0  0
 26 25  2  0  0  0  0
 27 26  1  0  0  0  0
 27 28  2  0  0  0  0
 28 29  1  0  0  0  0
 29 30  2  0  0  0  0
 29  1  1  0  0  0  0
 32 26  1  0  0  0  0
 33 34  1  0  0  0  0
 33 27  1  0  0  0  0
 35 34  1  0  0  0  0
 36 35  1  0  0  0  0
 37 36  1  0  0  0  0
 37 38  1  0  0  0  0
 38 33  1  0  0  0  0
M  END
>  <minimizedAffinity>
-6.09018707

>  <minimizedRMSD>
0.705385864

$$$$
