REMARK  Name = 
REMARK  3 active torsions:
REMARK  status: ('A' for Active; 'I' for Inactive)
REMARK    1  A    between atoms: C_1  and  C_11
REMARK    2  A    between atoms: C_5  and  C_7
REMARK    3  A    between atoms: C_13  and  C_20
REMARK                            x       y       z     vdW  Elec       q    Type
REMARK                         _______ _______ _______ _____ _____    ______ ____
ROOT
ATOM      1  C   UNL     1      44.569  35.158  43.884  0.00  0.00    +0.000 C 
ATOM      2  C   UNL     1      44.880  36.604  44.325  0.00  0.00    +0.000 C 
ATOM      3  C   UNL     1      44.977  36.155  42.894  0.00  0.00    +0.000 C 
ATOM      4  H   UNL     1      43.510  34.852  43.986  0.00  0.00    +0.000 HD
ATOM      5  H   UNL     1      45.778  36.775  44.936  0.00  0.00    +0.000 HD
ATOM      6  H   UNL     1      43.989  37.196  44.555  0.00  0.00    +0.000 HD
ATOM      7  H   UNL     1      46.052  36.062  42.564  0.00  0.00    +0.000 HD
ENDROOT
BRANCH   1   8
ATOM      8  C   UNL     1      45.528  34.149  44.415  0.00  0.00    +0.000 A 
ATOM      9  C   UNL     1      46.504  33.603  43.541  0.00  0.00    +0.000 A 
ATOM     10  C   UNL     1      47.395  32.675  44.061  0.00  0.00    +0.000 A 
ATOM     11  N   UNL     1      47.285  32.343  45.370  0.00  0.00    +0.000 NA
ATOM     12  C   UNL     1      46.339  32.886  46.174  0.00  0.00    +0.000 A 
ATOM     13  N   UNL     1      45.458  33.795  45.685  0.00  0.00    +0.000 NA
ATOM     14  H   UNL     1      46.523  33.923  42.510  0.00  0.00    +0.000 HD
ATOM     15  H   UNL     1      48.138  32.253  43.412  0.00  0.00    +0.000 HD
BRANCH  12  16
ATOM     16  C   UNL     1      46.398  32.387  47.587  0.00  0.00    +0.000 C 
ATOM     17  F   UNL     1      45.387  32.917  48.355  0.00  0.00    +0.000 F 
ATOM     18  F   UNL     1      47.619  32.748  48.163  0.00  0.00    +0.000 F 
ATOM     19  F   UNL     1      46.379  30.998  47.573  0.00  0.00    +0.000 F 
ENDBRANCH  12  16
ENDBRANCH   1   8
BRANCH   3  20
ATOM     20  C   UNL     1      44.040  36.663  41.846  0.00  0.00    +0.000 C 
ATOM     21  C   UNL     1      42.635  36.280  42.235  0.00  0.00    +0.000 C 
ATOM     22  C   UNL     1      41.768  35.878  41.070  0.00  0.00    +0.000 C 
ATOM     23  C   UNL     1      42.026  36.685  39.834  0.00  0.00    +0.000 C 
ATOM     24  C   UNL     1      43.491  36.748  39.473  0.00  0.00    +0.000 C 
ATOM     25  C   UNL     1      44.351  36.054  40.515  0.00  0.00    +0.000 C 
ENDBRANCH   3  20
TORSDOF 3
