
 OpenBabel03252506263D

 42 46  0  0  0  0  0  0  0  0999 V2000
   46.1560   30.1990   48.3500 C   0  0  0  0  0  0  0  0  0  0  0  0
   45.4950   31.0800   48.4740 H   0  0  0  0  0  0  0  0  0  0  0  0
   46.3590   29.8590   49.4080 H   0  0  0  0  0  0  0  0  0  0  0  0
   45.6240   27.7180   47.8390 C   0  0  0  0  0  0  0  0  0  0  0  0
   45.4430   29.0860   47.7130 C   0  0  0  0  0  0  0  0  0  0  0  0
   44.4300   29.5060   46.8510 C   0  0  0  0  0  0  0  0  0  0  0  0
   43.6430   28.6180   46.1550 C   0  0  0  0  0  0  0  0  0  0  0  0
   42.6290   28.7280   45.2920 N   0  0  0  0  0  0  0  0  0  0  0  0
   42.1980   27.5110   44.8990 C   0  0  0  0  0  0  0  0  0  0  0  0
   42.9550   26.5330   45.5250 C   0  0  0  0  0  0  0  0  0  0  0  0
   43.8370   27.2640   46.2930 C   0  0  0  0  0  0  0  0  0  0  0  0
   44.8380   26.8500   47.1440 C   0  0  0  0  0  0  0  0  0  0  0  0
   46.4270   27.4760   48.5230 H   0  0  0  0  0  0  0  0  0  0  0  0
   44.1840   30.5420   46.6610 H   0  0  0  0  0  0  0  0  0  0  0  0
   42.2190   29.6450   44.9590 H   0  0  0  0  0  0  0  0  0  0  0  0
   41.3820   27.3010   44.1980 H   0  0  0  0  0  0  0  0  0  0  0  0
   42.9010   25.4530   45.4570 H   0  0  0  0  0  0  0  0  0  0  0  0
   45.0740   25.4130   47.3140 C   0  0  0  0  0  3  0  0  0  0  0  0
   46.0010   24.7640   46.3600 C   0  0  0  0  0  2  0  0  0  0  0  0
   47.2080   24.1090   46.9670 C   0  0  0  0  0  2  0  0  0  0  0  0
   46.8780   23.0990   48.0170 C   0  0  0  0  0  2  0  0  0  0  0  0
   45.7690   23.5930   48.8860 C   0  0  0  0  0  2  0  0  0  0  0  0
   45.6350   25.1080   48.7100 C   0  0  0  0  0  2  0  0  0  0  0  0
   47.4500   30.5900   47.7560 C   0  0  0  0  0  0  0  0  0  0  0  0
   48.1140   29.7380   47.6200 H   0  0  0  0  0  0  0  0  0  0  0  0
   47.9550   31.2810   48.4810 H   0  0  0  0  0  0  0  0  0  0  0  0
   46.5800   32.8670   45.1500 C   0  0  0  0  0  0  0  0  0  0  0  0
   47.2250   31.8250   44.4370 C   0  0  0  0  0  0  0  0  0  0  0  0
   47.6180   30.8690   45.3140 C   0  0  0  0  0  0  0  0  0  0  0  0
   47.2340   31.2980   46.5200 N   0  0  0  0  0  0  0  0  0  0  0  0
   46.6190   32.4820   46.4230 N   0  0  0  0  0  0  0  0  0  0  0  0
   47.3840   31.7890   43.3660 H   0  0  0  0  0  0  0  0  0  0  0  0
   48.1360   29.9570   45.0390 H   0  0  0  0  0  0  0  0  0  0  0  0
   44.5330   35.8280   44.6210 C   0  0  0  0  0  0  0  0  0  0  0  0
   44.9530   36.2950   43.3780 C   0  0  0  0  0  0  0  0  0  0  0  0
   45.9470   35.5820   42.7210 C   0  0  0  0  0  0  0  0  0  0  0  0
   46.4550   34.4740   43.3230 N   0  0  0  0  0  0  0  0  0  0  0  0
   46.0390   34.0440   44.5150 C   0  0  0  0  0  0  0  0  0  0  0  0
   45.0720   34.7290   45.1640 N   0  0  0  0  0  0  0  0  0  0  0  0
   43.7640   36.3310   45.1890 H   0  0  0  0  0  0  0  0  0  0  0  0
   44.5120   37.1690   42.9650 H   0  0  0  0  0  0  0  0  0  0  0  0
   46.3070   35.9100   41.7460 H   0  0  0  0  0  0  0  0  0  0  0  0
  1  2  1  0  0  0  0
  1  3  1  0  0  0  0
  4 13  1  0  0  0  0
  5  4  1  0  0  0  0
  5  1  1  0  0  0  0
  6  5  2  0  0  0  0
  7 11  2  0  0  0  0
  7  6  1  0  0  0  0
  8  7  1  0  0  0  0
  9  8  1  0  0  0  0
  9 10  2  0  0  0  0
 10 11  1  0  0  0  0
 11 12  1  0  0  0  0
 12 18  1  0  0  0  0
 12  4  2  0  0  0  0
 14  6  1  0  0  0  0
 15  8  1  0  0  0  0
 16  9  1  0  0  0  0
 17 10  1  0  0  0  0
 18 23  1  0  0  0  0
 19 20  1  0  0  0  0
 19 18  1  0  0  0  0
 20 21  1  0  0  0  0
 21 22  1  0  0  0  0
 23 22  1  0  0  0  0
 24  1  1  0  0  0  0
 24 26  1  0  0  0  0
 25 24  1  0  0  0  0
 27 31  2  0  0  0  0
 28 27  1  0  0  0  0
 28 29  2  0  0  0  0
 29 30  1  0  0  0  0
 30 24  1  0  0  0  0
 31 30  1  0  0  0  0
 32 28  1  0  0  0  0
 33 29  1  0  0  0  0
 34 39  1  0  0  0  0
 34 40  1  0  0  0  0
 35 34  2  0  0  0  0
 36 37  2  0  0  0  0
 36 35  1  0  0  0  0
 37 38  1  0  0  0  0
 38 27  1  0  0  0  0
 38 39  2  0  0  0  0
 41 35  1  0  0  0  0
 42 36  1  0  0  0  0
M  END
>  <minimizedAffinity>
-5.43555498

>  <minimizedRMSD>
0.674593687

$$$$
