
 OpenBabel03252502503D

 31 33  0  0  1  0  0  0  0  0999 V2000
   44.5990   35.6740   43.3630 C   0  0  0  0  0  0  0  0  0  0  0  0
   45.0830   35.0090   44.4920 C   0  0  0  0  0  0  0  0  0  0  0  0
   46.0660   34.0410   44.3040 C   0  0  0  0  0  0  0  0  0  0  0  0
   46.5020   33.7940   43.0530 N   0  0  0  0  0  0  0  0  0  0  0  0
   46.0120   34.4590   41.9680 C   0  0  0  0  0  0  0  0  0  0  0  0
   45.0660   35.3950   42.1230 N   0  0  0  0  0  0  0  0  0  0  0  0
   43.8360   36.4330   43.4630 H   0  0  0  0  0  0  0  0  0  0  0  0
   44.6670   35.2800   45.4590 H   0  0  0  0  0  0  0  0  0  0  0  0
   48.7030   35.5990   41.3520 Cl  0  0  0  0  0  0  0  0  0  0  0  0
   47.7580   34.6030   40.2540 C   0  0  0  0  0  0  0  0  0  0  0  0
   46.5390   34.1320   40.6320 C   0  0  0  0  0  0  0  0  0  0  0  0
   45.7640   33.3410   39.7860 C   0  0  0  0  0  0  0  0  0  0  0  0
   46.3100   33.0670   38.5470 C   0  0  0  0  0  0  0  0  0  0  0  0
   47.5410   33.5490   38.1760 C   0  0  0  0  0  0  0  0  0  0  0  0
   48.2740   34.3160   39.0190 C   0  0  0  0  0  0  0  0  0  0  0  0
   44.8030   32.9940   40.1380 H   0  0  0  0  0  0  0  0  0  0  0  0
   45.6960   32.4490   37.8970 H   0  0  0  0  0  0  0  0  0  0  0  0
   47.8550   33.2610   37.1790 H   0  0  0  0  0  0  0  0  0  0  0  0
   49.2430   34.6650   38.6600 H   0  0  0  0  0  0  0  0  0  0  0  0
   46.5890   33.3260   45.5020 C   0  0  0  0  0  0  0  0  0  0  0  0
   46.1140   33.8260   46.3720 H   0  0  0  0  0  0  0  0  0  0  0  0
   47.6950   33.4150   45.5250 H   0  0  0  0  0  0  0  0  0  0  0  0
   46.1970   31.8780   45.5350 C   0  0  0  0  0  0  0  0  0  0  0  0
   45.3760   31.7420   44.8160 H   0  0  0  0  0  0  0  0  0  0  0  0
   47.0560   31.2530   45.2270 H   0  0  0  0  0  0  0  0  0  0  0  0
   45.6790   31.4590   46.8860 C   0  0  2  0  0  0  0  0  0  0  0  0
   46.3500   32.2290   47.9810 C   0  0  0  0  0  0  0  0  0  0  0  0
   45.7580   31.9460   49.3240 C   0  0  0  0  0  0  0  0  0  0  0  0
   44.9960   30.6810   49.4450 C   0  0  0  0  0  0  0  0  0  0  0  0
   45.1550   29.6510   48.3990 C   0  0  0  0  0  0  0  0  0  0  0  0
   45.9830   30.0100   47.2110 C   0  0  0  0  0  0  0  0  0  0  0  0
  1  7  1  0  0  0  0
  1  2  1  0  0  0  0
  2  8  1  0  0  0  0
  3  2  2  0  0  0  0
  3 20  1  0  0  0  0
  4  3  1  0  0  0  0
  5  6  1  0  0  0  0
  5  4  2  0  0  0  0
  6  1  2  0  0  0  0
 10 11  1  0  0  0  0
 10  9  1  0  0  0  0
 11  5  1  0  0  0  0
 12 16  1  0  0  0  0
 12 11  2  0  0  0  0
 13 12  1  0  0  0  0
 14 13  2  0  0  0  0
 14 15  1  0  0  0  0
 15 10  2  0  0  0  0
 17 13  1  0  0  0  0
 18 14  1  0  0  0  0
 19 15  1  0  0  0  0
 20 22  1  0  0  0  0
 20 23  1  0  0  0  0
 20 21  1  0  0  0  0
 24 23  1  0  0  0  0
 25 23  1  0  0  0  0
 26 23  1  6  0  0  0
 26 31  1  0  0  0  0
 26 27  1  0  0  0  0
 27 28  1  0  0  0  0
 28 29  1  0  0  0  0
 30 29  2  0  0  0  0
 31 30  1  0  0  0  0
M  END
>  <minimizedAffinity>
-5.86652613

>  <minimizedRMSD>
1.37474418

$$$$
