
 OpenBabel03252509243D

 24 26  0  0  1  0  0  0  0  0999 V2000
   46.5160   34.9140   41.9490 C   0  0  1  0  0  0  0  0  0  0  0  0
   48.0200   35.2870   41.9540 C   0  0  0  0  0  0  0  0  0  0  0  0
   47.4170   33.9250   41.4820 C   0  0  2  0  0  0  0  0  0  0  0  0
   45.9020   35.5750   41.3150 H   0  0  0  0  0  0  0  0  0  0  0  0
   48.5680   35.3080   42.8940 H   0  0  0  0  0  0  0  0  0  0  0  0
   48.2860   35.9920   41.1700 H   0  0  0  0  0  0  0  0  0  0  0  0
   47.6850   33.0950   42.2010 H   0  0  0  0  0  0  0  0  0  0  0  0
   44.5860   35.5310   45.1110 C   0  0  0  0  0  0  0  0  0  0  0  0
   45.0710   35.7390   43.7830 C   0  0  0  0  0  0  0  0  0  0  0  0
   46.0000   34.8200   43.3760 C   0  0  0  0  0  0  0  0  0  0  0  0
   46.4180   33.7890   44.1970 N   0  0  0  0  0  0  0  0  0  0  0  0
   45.9280   33.6440   45.4340 C   0  0  0  0  0  0  0  0  0  0  0  0
   45.0000   34.5270   45.8960 N   0  0  0  0  0  0  0  0  0  0  0  0
   43.8500   36.2300   45.4800 H   0  0  0  0  0  0  0  0  0  0  0  0
   46.3650   32.7900   45.9310 H   0  0  0  0  0  0  0  0  0  0  0  0
   44.6520   36.8210   42.9610 N   0  0  0  0  0  0  0  0  0  0  0  0
   45.1380   37.7290   42.7640 H   0  0  0  0  0  0  0  0  0  0  0  0
   43.7100   36.5490   42.5500 H   0  0  0  0  0  0  0  0  0  0  0  0
   47.6060   33.5660   40.0390 C   0  0  0  0  0  3  0  0  0  0  0  0
   46.2890   33.3540   39.3220 C   0  0  0  0  0  2  0  0  0  0  0  0
   46.4650   32.8170   37.9400 C   0  0  0  0  0  2  0  0  0  0  0  0
   47.8260   33.0970   37.3640 C   0  0  0  0  0  2  0  0  0  0  0  0
   48.2650   34.4720   37.8070 C   0  0  0  0  0  2  0  0  0  0  0  0
   48.3770   34.6160   39.3040 C   0  0  0  0  0  2  0  0  0  0  0  0
  1  4  1  6  0  0  0
  1  2  1  0  0  0  0
  1 10  1  0  0  0  0
  2  5  1  0  0  0  0
  3  1  1  0  0  0  0
  3  2  1  0  0  0  0
  3  7  1  1  0  0  0
  6  2  1  0  0  0  0
  8 14  1  0  0  0  0
  8 13  1  0  0  0  0
  9  8  2  0  0  0  0
 10  9  1  0  0  0  0
 10 11  2  0  0  0  0
 11 12  1  0  0  0  0
 12 13  2  0  0  0  0
 12 15  1  0  0  0  0
 16  9  1  0  0  0  0
 17 16  1  0  0  0  0
 18 16  1  0  0  0  0
 19  3  1  0  0  0  0
 20 19  1  0  0  0  0
 21 20  1  0  0  0  0
 22 23  1  0  0  0  0
 22 21  1  0  0  0  0
 23 24  1  0  0  0  0
 24 19  1  0  0  0  0
M  END
>  <minimizedAffinity>
-5.2762785

>  <minimizedRMSD>
0.453581929

$$$$
