
 OpenBabel03242515113D

 33 35  0  0  0  0  0  0  0  0999 V2000
   37.2410   30.7090   37.5180 C   0  0  0  0  0  0  0  0  0  0  0  0
   37.1560   30.8320   36.1560 C   0  0  0  0  0  0  0  0  0  0  0  0
   36.5600   29.9110   35.3300 C   0  0  0  0  0  0  0  0  0  0  0  0
   36.0050   28.7840   35.8950 C   0  0  0  0  0  0  0  0  0  0  0  0
   36.0740   28.6330   37.2530 C   0  0  0  0  0  0  0  0  0  0  0  0
   36.6830   29.5820   38.0560 C   0  0  0  0  0  0  0  0  0  0  0  0
   37.5820   31.7090   35.6640 H   0  0  0  0  0  0  0  0  0  0  0  0
   36.5260   30.0660   34.2590 H   0  0  0  0  0  0  0  0  0  0  0  0
   35.5350   28.0610   35.2250 H   0  0  0  0  0  0  0  0  0  0  0  0
   35.6190   27.7270   37.6310 H   0  0  0  0  0  0  0  0  0  0  0  0
   37.6440   33.4590   39.9120 C   0  0  0  0  0  0  0  0  0  0  0  0
   39.0200   33.6600   39.9370 C   0  0  0  0  0  0  0  0  0  0  0  0
   39.8170   32.8490   39.1270 C   0  0  0  0  0  0  0  0  0  0  0  0
   39.2570   31.8890   38.3390 N   0  0  0  0  0  0  0  0  0  0  0  0
   37.8860   31.7200   38.3420 C   0  0  0  0  0  0  0  0  0  0  0  0
   37.1360   32.5090   39.1260 N   0  0  0  0  0  0  0  0  0  0  0  0
   36.9490   34.0320   40.4970 H   0  0  0  0  0  0  0  0  0  0  0  0
   39.4170   34.4350   40.5780 H   0  0  0  0  0  0  0  0  0  0  0  0
   40.8790   33.0030   39.1460 H   0  0  0  0  0  0  0  0  0  0  0  0
   36.6690   29.2750   39.4370 N   0  0  0  0  0  0  0  0  0  0  0  0
   37.5880   28.8670   39.7470 H   0  0  0  0  0  0  0  0  0  0  0  0
   35.4820   29.4380   40.6520 S   0  0  0  0  0  0  0  0  0  0  0  0
   35.6430   30.8240   41.2780 O   0  0  0  0  0  0  0  0  0  0  0  0
   36.2770   31.5060   40.9750 H   0  0  0  0  0  0  0  0  0  0  0  0
   34.0740   29.3180   40.1650 O   0  0  0  0  0  0  0  0  0  0  0  0
   33.7440   28.5360   39.6520 H   0  0  0  0  0  0  0  0  0  0  0  0
   35.8620   28.3580   41.8640 O   0  0  0  0  0  0  0  0  0  0  0  0
   37.1590   28.1110   42.1220 C   0  0  0  0  0  3  0  0  0  0  0  0
   37.3680   26.6690   42.5390 C   0  0  0  0  0  2  0  0  0  0  0  0
   38.8000   26.2990   42.7370 C   0  0  0  0  0  2  0  0  0  0  0  0
   39.6750   27.3630   43.3020 C   0  0  0  0  0  2  0  0  0  0  0  0
   39.3190   28.7650   42.9190 C   0  0  0  0  0  2  0  0  0  0  0  0
   37.8300   28.9450   43.1650 C   0  0  0  0  0  2  0  0  0  0  0  0
  1  6  1  0  0  0  0
  1 15  1  0  0  0  0
  2  1  2  0  0  0  0
  3  4  2  0  0  0  0
  3  2  1  0  0  0  0
  4  5  1  0  0  0  0
  5 10  1  0  0  0  0
  5  6  2  0  0  0  0
  6 20  1  0  0  0  0
  7  2  1  0  0  0  0
  8  3  1  0  0  0  0
  9  4  1  0  0  0  0
 11 12  1  0  0  0  0
 11 17  1  0  0  0  0
 12 18  1  0  0  0  0
 13 19  1  0  0  0  0
 13 12  2  0  0  0  0
 14 15  2  0  0  0  0
 14 13  1  0  0  0  0
 15 16  1  0  0  0  0
 16 11  2  0  0  0  0
 20 21  1  0  0  0  0
 20 22  1  0  0  0  0
 22 23  1  0  0  0  0
 22 27  1  0  0  0  0
 24 23  1  0  0  0  0
 25 22  1  0  0  0  0
 26 25  1  0  0  0  0
 27 28  1  0  0  0  0
 28 29  1  0  0  0  0
 28 33  1  0  0  0  0
 29 30  1  0  0  0  0
 30 31  1  0  0  0  0
 32 33  1  0  0  0  0
 32 31  1  0  0  0  0
M  END
>  <minimizedAffinity>
-6.10788679

$$$$

 OpenBabel03242515113D

 33 35  0  0  0  0  0  0  0  0999 V2000
   36.6570   30.5300   39.2970 C   0  0  0  0  0  0  0  0  0  0  0  0
   36.4230   30.3920   37.9530 C   0  0  0  0  0  0  0  0  0  0  0  0
   35.5960   29.4450   37.4030 C   0  0  0  0  0  0  0  0  0  0  0  0
   34.9490   28.5690   38.2470 C   0  0  0  0  0  0  0  0  0  0  0  0
   35.1610   28.6820   39.5930 C   0  0  0  0  0  0  0  0  0  0  0  0
   36.0030   29.6500   40.1140 C   0  0  0  0  0  0  0  0  0  0  0  0
   36.9150   31.0650   37.2470 H   0  0  0  0  0  0  0  0  0  0  0  0
   35.4530   29.3870   36.3320 H   0  0  0  0  0  0  0  0  0  0  0  0
   34.2930   27.8210   37.7950 H   0  0  0  0  0  0  0  0  0  0  0  0
   34.6230   27.9640   40.1990 H   0  0  0  0  0  0  0  0  0  0  0  0
   38.0630   33.8480   39.9830 C   0  0  0  0  0  0  0  0  0  0  0  0
   39.1750   33.5660   40.7700 C   0  0  0  0  0  0  0  0  0  0  0  0
   39.4460   32.2290   41.0680 C   0  0  0  0  0  0  0  0  0  0  0  0
   38.6410   31.2350   40.5990 N   0  0  0  0  0  0  0  0  0  0  0  0
   37.5470   31.5560   39.8200 C   0  0  0  0  0  0  0  0  0  0  0  0
   37.3010   32.8450   39.5440 N   0  0  0  0  0  0  0  0  0  0  0  0
   37.7730   34.8430   39.6990 H   0  0  0  0  0  0  0  0  0  0  0  0
   39.7840   34.3890   41.1170 H   0  0  0  0  0  0  0  0  0  0  0  0
   40.3040   32.0100   41.6750 H   0  0  0  0  0  0  0  0  0  0  0  0
   36.1130   29.6320   41.5240 N   0  0  0  0  0  0  0  0  0  0  0  0
   35.4810   30.3470   41.9660 H   0  0  0  0  0  0  0  0  0  0  0  0
   37.0460   28.6980   42.6060 S   0  0  0  0  0  0  0  0  0  0  0  0
   38.0490   29.6330   43.2840 O   0  0  0  0  0  0  0  0  0  0  0  0
   38.0870   30.6030   43.1540 H   0  0  0  0  0  0  0  0  0  0  0  0
   36.2570   28.0200   43.6800 O   0  0  0  0  0  0  0  0  0  0  0  0
   35.4910   27.4200   43.4910 H   0  0  0  0  0  0  0  0  0  0  0  0
   37.9640   27.6500   41.6910 O   0  0  0  0  0  0  0  0  0  0  0  0
   37.4240   26.4740   41.3230 C   0  0  0  0  0  3  0  0  0  0  0  0
   37.9810   25.3340   42.1520 C   0  0  0  0  0  2  0  0  0  0  0  0
   37.3450   24.0150   41.8690 C   0  0  0  0  0  2  0  0  0  0  0  0
   36.9510   23.7720   40.4540 C   0  0  0  0  0  2  0  0  0  0  0  0
   36.5200   24.9820   39.6860 C   0  0  0  0  0  2  0  0  0  0  0  0
   37.5710   26.0590   39.8960 C   0  0  0  0  0  2  0  0  0  0  0  0
  1 15  1  0  0  0  0
  1  6  1  0  0  0  0
  2  1  2  0  0  0  0
  3  2  1  0  0  0  0
  3  4  2  0  0  0  0
  4  5  1  0  0  0  0
  5  6  2  0  0  0  0
  5 10  1  0  0  0  0
  6 20  1  0  0  0  0
  7  2  1  0  0  0  0
  8  3  1  0  0  0  0
  9  4  1  0  0  0  0
 11 12  1  0  0  0  0
 12 13  2  0  0  0  0
 12 18  1  0  0  0  0
 13 19  1  0  0  0  0
 14 13  1  0  0  0  0
 15 14  2  0  0  0  0
 16 15  1  0  0  0  0
 16 11  2  0  0  0  0
 17 11  1  0  0  0  0
 20 21  1  0  0  0  0
 20 22  1  0  0  0  0
 22 23  1  0  0  0  0
 22 25  1  0  0  0  0
 24 23  1  0  0  0  0
 26 25  1  0  0  0  0
 27 22  1  0  0  0  0
 28 27  1  0  0  0  0
 28 29  1  0  0  0  0
 30 29  1  0  0  0  0
 31 30  1  0  0  0  0
 32 33  1  0  0  0  0
 32 31  1  0  0  0  0
 33 28  1  0  0  0  0
M  END
>  <minimizedAffinity>
-6.02427149

$$$$

 OpenBabel03242515113D

 33 35  0  0  0  0  0  0  0  0999 V2000
   36.5970   30.4820   39.2770 C   0  0  0  0  0  0  0  0  0  0  0  0
   36.4130   30.3280   37.9280 C   0  0  0  0  0  0  0  0  0  0  0  0
   35.6790   29.3200   37.3550 C   0  0  0  0  0  0  0  0  0  0  0  0
   35.0790   28.3940   38.1810 C   0  0  0  0  0  0  0  0  0  0  0  0
   35.2450   28.5210   39.5320 C   0  0  0  0  0  0  0  0  0  0  0  0
   35.9930   29.5510   40.0760 C   0  0  0  0  0  0  0  0  0  0  0  0
   36.8700   31.0390   37.2350 H   0  0  0  0  0  0  0  0  0  0  0  0
   35.5710   29.2530   36.2800 H   0  0  0  0  0  0  0  0  0  0  0  0
   34.4980   27.5980   37.7110 H   0  0  0  0  0  0  0  0  0  0  0  0
   34.7490   27.7610   40.1230 H   0  0  0  0  0  0  0  0  0  0  0  0
   37.8630   33.8810   39.8300 C   0  0  0  0  0  0  0  0  0  0  0  0
   38.8370   33.7020   40.8060 C   0  0  0  0  0  0  0  0  0  0  0  0
   39.0650   32.4080   41.2790 C   0  0  0  0  0  0  0  0  0  0  0  0
   38.3480   31.3560   40.7940 N   0  0  0  0  0  0  0  0  0  0  0  0
   37.3890   31.5740   39.8250 C   0  0  0  0  0  0  0  0  0  0  0  0
   37.1840   32.8230   39.3830 N   0  0  0  0  0  0  0  0  0  0  0  0
   37.6150   34.8350   39.4040 H   0  0  0  0  0  0  0  0  0  0  0  0
   39.3800   34.5690   41.1580 H   0  0  0  0  0  0  0  0  0  0  0  0
   39.8170   32.2700   42.0320 H   0  0  0  0  0  0  0  0  0  0  0  0
   36.0650   29.5390   41.4890 N   0  0  0  0  0  0  0  0  0  0  0  0
   35.4100   30.2460   41.9110 H   0  0  0  0  0  0  0  0  0  0  0  0
   36.9820   28.6230   42.5990 S   0  0  0  0  0  0  0  0  0  0  0  0
   37.8110   29.5980   43.4360 O   0  0  0  0  0  0  0  0  0  0  0  0
   37.7600   30.5750   43.3740 H   0  0  0  0  0  0  0  0  0  0  0  0
   36.1700   27.7920   43.5390 O   0  0  0  0  0  0  0  0  0  0  0  0
   35.4920   27.1350   43.2340 H   0  0  0  0  0  0  0  0  0  0  0  0
   38.0900   27.7420   41.7180 O   0  0  0  0  0  0  0  0  0  0  0  0
   38.6800   26.6830   42.3010 C   0  0  0  0  0  3  0  0  0  0  0  0
   40.0450   27.0510   42.8470 C   0  0  0  0  0  2  0  0  0  0  0  0
   40.7090   25.9490   43.6020 C   0  0  0  0  0  2  0  0  0  0  0  0
   40.4670   24.5720   43.0930 C   0  0  0  0  0  2  0  0  0  0  0  0
   39.1270   24.3380   42.4710 C   0  0  0  0  0  2  0  0  0  0  0  0
   38.8820   25.4570   41.4720 C   0  0  0  0  0  2  0  0  0  0  0  0
  1 15  1  0  0  0  0
  1  6  1  0  0  0  0
  2  1  2  0  0  0  0
  3  2  1  0  0  0  0
  3  4  2  0  0  0  0
  4  5  1  0  0  0  0
  5  6  2  0  0  0  0
  5 10  1  0  0  0  0
  6 20  1  0  0  0  0
  7  2  1  0  0  0  0
  8  3  1  0  0  0  0
  9  4  1  0  0  0  0
 11 12  1  0  0  0  0
 12 18  1  0  0  0  0
 12 13  2  0  0  0  0
 13 19  1  0  0  0  0
 14 13  1  0  0  0  0
 15 14  2  0  0  0  0
 16 15  1  0  0  0  0
 16 11  2  0  0  0  0
 17 11  1  0  0  0  0
 20 21  1  0  0  0  0
 20 22  1  0  0  0  0
 22 23  1  0  0  0  0
 22 25  1  0  0  0  0
 24 23  1  0  0  0  0
 26 25  1  0  0  0  0
 27 28  1  0  0  0  0
 27 22  1  0  0  0  0
 28 29  1  0  0  0  0
 29 30  1  0  0  0  0
 31 30  1  0  0  0  0
 32 31  1  0  0  0  0
 33 28  1  0  0  0  0
 33 32  1  0  0  0  0
M  END
>  <minimizedAffinity>
-5.98297882

$$$$

 OpenBabel03242515113D

 33 35  0  0  0  0  0  0  0  0999 V2000
   36.6920   30.5390   39.0090 C   0  0  0  0  0  0  0  0  0  0  0  0
   36.5070   30.4210   37.6560 C   0  0  0  0  0  0  0  0  0  0  0  0
   35.7270   29.4620   37.0600 C   0  0  0  0  0  0  0  0  0  0  0  0
   35.0790   28.5500   37.8650 C   0  0  0  0  0  0  0  0  0  0  0  0
   35.2440   28.6420   39.2190 C   0  0  0  0  0  0  0  0  0  0  0  0
   36.0390   29.6220   39.7860 C   0  0  0  0  0  0  0  0  0  0  0  0
   37.0010   31.1230   36.9790 H   0  0  0  0  0  0  0  0  0  0  0  0
   35.6220   29.4220   35.9830 H   0  0  0  0  0  0  0  0  0  0  0  0
   34.4620   27.7930   37.3760 H   0  0  0  0  0  0  0  0  0  0  0  0
   34.7090   27.8950   39.7920 H   0  0  0  0  0  0  0  0  0  0  0  0
   39.4580   32.1210   40.8270 C   0  0  0  0  0  0  0  0  0  0  0  0
   39.1860   33.4790   40.7000 C   0  0  0  0  0  0  0  0  0  0  0  0
   38.0460   33.8570   39.9880 C   0  0  0  0  0  0  0  0  0  0  0  0
   37.2300   32.9180   39.4350 N   0  0  0  0  0  0  0  0  0  0  0  0
   37.5330   31.5790   39.5820 C   0  0  0  0  0  0  0  0  0  0  0  0
   38.6320   31.2340   40.2700 N   0  0  0  0  0  0  0  0  0  0  0  0
   40.3080   31.7310   41.3560 H   0  0  0  0  0  0  0  0  0  0  0  0
   39.8640   34.1860   41.1580 H   0  0  0  0  0  0  0  0  0  0  0  0
   37.8360   34.9050   39.8900 H   0  0  0  0  0  0  0  0  0  0  0  0
   36.1040   29.5790   41.1990 N   0  0  0  0  0  0  0  0  0  0  0  0
   35.4280   30.2580   41.6330 H   0  0  0  0  0  0  0  0  0  0  0  0
   37.0390   28.6610   42.2920 S   0  0  0  0  0  0  0  0  0  0  0  0
   38.4680   28.6080   41.7530 O   0  0  0  0  0  0  0  0  0  0  0  0
   38.7840   29.0800   40.9540 H   0  0  0  0  0  0  0  0  0  0  0  0
   37.0950   29.2160   43.6790 O   0  0  0  0  0  0  0  0  0  0  0  0
   36.2850   29.4190   44.2140 H   0  0  0  0  0  0  0  0  0  0  0  0
   36.4810   27.0910   42.2250 O   0  0  0  0  0  0  0  0  0  0  0  0
   37.2730   26.1500   41.6820 C   0  0  0  0  0  3  0  0  0  0  0  0
   36.8740   25.8630   40.2480 C   0  0  0  0  0  2  0  0  0  0  0  0
   37.7810   24.9040   39.5500 C   0  0  0  0  0  2  0  0  0  0  0  0
   38.3450   23.8130   40.3900 C   0  0  0  0  0  2  0  0  0  0  0  0
   38.6010   24.1640   41.8220 C   0  0  0  0  0  2  0  0  0  0  0  0
   37.3440   24.8230   42.3650 C   0  0  0  0  0  2  0  0  0  0  0  0
  1 15  1  0  0  0  0
  1  6  1  0  0  0  0
  2  1  2  0  0  0  0
  3  2  1  0  0  0  0
  3  4  2  0  0  0  0
  4  5  1  0  0  0  0
  5  6  2  0  0  0  0
  5 10  1  0  0  0  0
  6 20  1  0  0  0  0
  7  2  1  0  0  0  0
  8  3  1  0  0  0  0
  9  4  1  0  0  0  0
 11 17  1  0  0  0  0
 12 11  1  0  0  0  0
 12 18  1  0  0  0  0
 13 12  2  0  0  0  0
 14 15  2  0  0  0  0
 14 13  1  0  0  0  0
 15 16  1  0  0  0  0
 16 11  2  0  0  0  0
 19 13  1  0  0  0  0
 20 21  1  0  0  0  0
 20 22  1  0  0  0  0
 22 25  1  0  0  0  0
 23 22  1  0  0  0  0
 24 23  1  0  0  0  0
 25 26  1  0  0  0  0
 27 22  1  0  0  0  0
 28 27  1  0  0  0  0
 28 33  1  0  0  0  0
 29 28  1  0  0  0  0
 30 29  1  0  0  0  0
 30 31  1  0  0  0  0
 31 32  1  0  0  0  0
 32 33  1  0  0  0  0
M  END
>  <minimizedAffinity>
-5.71463776

$$$$

 OpenBabel03242515113D

 33 35  0  0  0  0  0  0  0  0999 V2000
   39.7030   28.7150   42.3650 C   0  0  0  0  0  0  0  0  0  0  0  0
   41.0540   28.6710   42.5900 C   0  0  0  0  0  0  0  0  0  0  0  0
   41.8460   29.7780   42.7700 C   0  0  0  0  0  0  0  0  0  0  0  0
   41.2560   31.0220   42.7250 C   0  0  0  0  0  0  0  0  0  0  0  0
   39.9090   31.0980   42.5020 C   0  0  0  0  0  0  0  0  0  0  0  0
   39.1400   29.9600   42.3240 C   0  0  0  0  0  0  0  0  0  0  0  0
   41.5640   27.7060   42.6340 H   0  0  0  0  0  0  0  0  0  0  0  0
   42.9100   29.6770   42.9440 H   0  0  0  0  0  0  0  0  0  0  0  0
   41.8990   31.8930   42.8690 H   0  0  0  0  0  0  0  0  0  0  0  0
   39.5090   32.1030   42.4780 H   0  0  0  0  0  0  0  0  0  0  0  0
   36.9240   26.3360   42.6490 C   0  0  0  0  0  0  0  0  0  0  0  0
   37.3530   25.2540   41.8880 C   0  0  0  0  0  0  0  0  0  0  0  0
   38.6040   25.3370   41.2730 C   0  0  0  0  0  0  0  0  0  0  0  0
   39.3760   26.4500   41.4180 N   0  0  0  0  0  0  0  0  0  0  0  0
   38.9150   27.5040   42.1810 C   0  0  0  0  0  0  0  0  0  0  0  0
   37.7110   27.4070   42.7650 N   0  0  0  0  0  0  0  0  0  0  0  0
   35.9800   26.3670   43.1610 H   0  0  0  0  0  0  0  0  0  0  0  0
   36.7050   24.3920   41.8040 H   0  0  0  0  0  0  0  0  0  0  0  0
   38.9360   24.5020   40.6860 H   0  0  0  0  0  0  0  0  0  0  0  0
   37.7650   30.2120   42.1040 N   0  0  0  0  0  0  0  0  0  0  0  0
   37.1790   29.8530   42.9000 H   0  0  0  0  0  0  0  0  0  0  0  0
   36.9090   30.9650   40.8340 S   0  0  0  0  0  0  0  0  0  0  0  0
   35.4160   30.7550   41.0890 O   0  0  0  0  0  0  0  0  0  0  0  0
   35.0380   30.3210   41.8820 H   0  0  0  0  0  0  0  0  0  0  0  0
   37.1490   32.4350   40.7100 O   0  0  0  0  0  0  0  0  0  0  0  0
   38.0540   32.8300   40.6170 H   0  0  0  0  0  0  0  0  0  0  0  0
   37.2450   30.1150   39.4390 O   0  0  0  0  0  0  0  0  0  0  0  0
   36.3760   29.1700   39.0370 C   0  0  0  0  0  3  0  0  0  0  0  0
   37.0430   27.8120   38.9600 C   0  0  0  0  0  2  0  0  0  0  0  0
   36.1090   26.6990   38.6220 C   0  0  0  0  0  2  0  0  0  0  0  0
   35.0100   27.0340   37.6760 C   0  0  0  0  0  2  0  0  0  0  0  0
   34.4930   28.4360   37.7550 C   0  0  0  0  0  2  0  0  0  0  0  0
   35.6910   29.3710   37.7240 C   0  0  0  0  0  2  0  0  0  0  0  0
  1  2  1  0  0  0  0
  2  7  1  0  0  0  0
  2  3  2  0  0  0  0
  3  8  1  0  0  0  0
  4  3  1  0  0  0  0
  4  9  1  0  0  0  0
  5  4  2  0  0  0  0
  6  1  2  0  0  0  0
  6  5  1  0  0  0  0
 10  5  1  0  0  0  0
 11 16  1  0  0  0  0
 11 17  1  0  0  0  0
 12 11  2  0  0  0  0
 13 14  2  0  0  0  0
 13 12  1  0  0  0  0
 14 15  1  0  0  0  0
 15  1  1  0  0  0  0
 15 16  2  0  0  0  0
 18 12  1  0  0  0  0
 19 13  1  0  0  0  0
 20  6  1  0  0  0  0
 20 21  1  0  0  0  0
 22 23  1  0  0  0  0
 22 20  1  0  0  0  0
 23 24  1  0  0  0  0
 25 22  1  0  0  0  0
 26 25  1  0  0  0  0
 27 22  1  0  0  0  0
 28 27  1  0  0  0  0
 29 28  1  0  0  0  0
 30 29  1  0  0  0  0
 31 32  1  0  0  0  0
 31 30  1  0  0  0  0
 33 32  1  0  0  0  0
 33 28  1  0  0  0  0
M  END
>  <minimizedAffinity>
-5.7008009

$$$$

 OpenBabel03242515113D

 33 35  0  0  0  0  0  0  0  0999 V2000
   36.2300   28.0850   39.0120 C   0  0  0  0  0  0  0  0  0  0  0  0
   35.4870   27.3670   38.1120 C   0  0  0  0  0  0  0  0  0  0  0  0
   35.1350   27.8150   36.8630 C   0  0  0  0  0  0  0  0  0  0  0  0
   35.5510   29.0690   36.4750 C   0  0  0  0  0  0  0  0  0  0  0  0
   36.2950   29.8110   37.3510 C   0  0  0  0  0  0  0  0  0  0  0  0
   36.6310   29.3270   38.6030 C   0  0  0  0  0  0  0  0  0  0  0  0
   35.1350   26.3670   38.3770 H   0  0  0  0  0  0  0  0  0  0  0  0
   34.5450   27.1980   36.1980 H   0  0  0  0  0  0  0  0  0  0  0  0
   35.2640   29.4120   35.4780 H   0  0  0  0  0  0  0  0  0  0  0  0
   36.5880   30.7860   36.9830 H   0  0  0  0  0  0  0  0  0  0  0  0
   37.6700   25.8860   41.5710 C   0  0  0  0  0  0  0  0  0  0  0  0
   37.2690   26.4800   42.7620 C   0  0  0  0  0  0  0  0  0  0  0  0
   36.4980   27.6420   42.6910 C   0  0  0  0  0  0  0  0  0  0  0  0
   36.1540   28.1740   41.4850 N   0  0  0  0  0  0  0  0  0  0  0  0
   36.5720   27.5550   40.3230 C   0  0  0  0  0  0  0  0  0  0  0  0
   37.3110   26.4390   40.4110 N   0  0  0  0  0  0  0  0  0  0  0  0
   38.2630   24.9920   41.5220 H   0  0  0  0  0  0  0  0  0  0  0  0
   37.5670   26.0200   43.6940 H   0  0  0  0  0  0  0  0  0  0  0  0
   36.1880   28.1000   43.6100 H   0  0  0  0  0  0  0  0  0  0  0  0
   37.4030   30.2180   39.3860 N   0  0  0  0  0  0  0  0  0  0  0  0
   38.4330   30.0710   39.2280 H   0  0  0  0  0  0  0  0  0  0  0  0
   36.9910   31.4440   40.4980 S   0  0  0  0  0  0  0  0  0  0  0  0
   36.7130   32.7210   39.7030 O   0  0  0  0  0  0  0  0  0  0  0  0
   36.7130   32.7840   38.7250 H   0  0  0  0  0  0  0  0  0  0  0  0
   35.7810   31.1510   41.3260 O   0  0  0  0  0  0  0  0  0  0  0  0
   35.6870   30.3300   41.8740 H   0  0  0  0  0  0  0  0  0  0  0  0
   38.3530   31.7720   41.4020 O   0  0  0  0  0  0  0  0  0  0  0  0
   39.3270   30.8460   41.4560 C   0  0  0  0  0  3  0  0  0  0  0  0
   39.1650   29.9530   42.6690 C   0  0  0  0  0  2  0  0  0  0  0  0
   40.1520   28.8350   42.7320 C   0  0  0  0  0  2  0  0  0  0  0  0
   41.5160   29.1400   42.2190 C   0  0  0  0  0  2  0  0  0  0  0  0
   41.5790   30.1210   41.0900 C   0  0  0  0  0  2  0  0  0  0  0  0
   40.7420   31.3280   41.4820 C   0  0  0  0  0  2  0  0  0  0  0  0
  1 15  1  0  0  0  0
  2  7  1  0  0  0  0
  2  1  2  0  0  0  0
  3  2  1  0  0  0  0
  4  3  2  0  0  0  0
  4  5  1  0  0  0  0
  5  6  2  0  0  0  0
  6  1  1  0  0  0  0
  6 20  1  0  0  0  0
  8  3  1  0  0  0  0
  9  4  1  0  0  0  0
 10  5  1  0  0  0  0
 11 12  1  0  0  0  0
 12 18  1  0  0  0  0
 13 12  2  0  0  0  0
 13 19  1  0  0  0  0
 14 13  1  0  0  0  0
 15 16  1  0  0  0  0
 15 14  2  0  0  0  0
 16 11  2  0  0  0  0
 17 11  1  0  0  0  0
 20 22  1  0  0  0  0
 21 20  1  0  0  0  0
 22 25  1  0  0  0  0
 22 27  1  0  0  0  0
 23 22  1  0  0  0  0
 24 23  1  0  0  0  0
 25 26  1  0  0  0  0
 27 28  1  0  0  0  0
 28 33  1  0  0  0  0
 28 29  1  0  0  0  0
 29 30  1  0  0  0  0
 31 30  1  0  0  0  0
 32 33  1  0  0  0  0
 32 31  1  0  0  0  0
M  END
>  <minimizedAffinity>
-5.55748081

$$$$

 OpenBabel03242515113D

 33 35  0  0  0  0  0  0  0  0999 V2000
   37.4340   31.7540   39.7810 C   0  0  0  0  0  0  0  0  0  0  0  0
   37.0590   32.9670   39.2670 C   0  0  0  0  0  0  0  0  0  0  0  0
   37.6670   34.1600   39.5690 C   0  0  0  0  0  0  0  0  0  0  0  0
   38.7290   34.1510   40.4470 C   0  0  0  0  0  0  0  0  0  0  0  0
   39.1280   32.9550   40.9770 C   0  0  0  0  0  0  0  0  0  0  0  0
   38.4910   31.7710   40.6500 C   0  0  0  0  0  0  0  0  0  0  0  0
   36.2220   33.0220   38.5670 H   0  0  0  0  0  0  0  0  0  0  0  0
   37.3220   35.0870   39.1290 H   0  0  0  0  0  0  0  0  0  0  0  0
   39.2030   35.1070   40.6780 H   0  0  0  0  0  0  0  0  0  0  0  0
   39.9660   33.0190   41.6590 H   0  0  0  0  0  0  0  0  0  0  0  0
   34.8770   29.1240   39.7250 C   0  0  0  0  0  0  0  0  0  0  0  0
   35.3780   28.2130   38.8020 C   0  0  0  0  0  0  0  0  0  0  0  0
   36.6020   28.4990   38.1940 C   0  0  0  0  0  0  0  0  0  0  0  0
   37.2790   29.6410   38.5000 N   0  0  0  0  0  0  0  0  0  0  0  0
   36.7490   30.5210   39.4220 C   0  0  0  0  0  0  0  0  0  0  0  0
   35.5720   30.2300   39.9970 N   0  0  0  0  0  0  0  0  0  0  0  0
   33.9460   28.9930   40.2460 H   0  0  0  0  0  0  0  0  0  0  0  0
   34.8040   27.3210   38.5930 H   0  0  0  0  0  0  0  0  0  0  0  0
   36.9890   27.7960   37.4810 H   0  0  0  0  0  0  0  0  0  0  0  0
   39.0250   30.6240   41.2840 N   0  0  0  0  0  0  0  0  0  0  0  0
   38.4160   29.7820   41.1270 H   0  0  0  0  0  0  0  0  0  0  0  0
   40.4260   30.3610   42.2230 S   0  0  0  0  0  0  0  0  0  0  0  0
   41.6270   30.3570   41.2760 O   0  0  0  0  0  0  0  0  0  0  0  0
   41.5840   30.5400   40.3150 H   0  0  0  0  0  0  0  0  0  0  0  0
   40.6750   31.3990   43.2700 O   0  0  0  0  0  0  0  0  0  0  0  0
   40.0040   31.6450   43.9580 H   0  0  0  0  0  0  0  0  0  0  0  0
   40.3320   28.8110   42.8290 O   0  0  0  0  0  0  0  0  0  0  0  0
   39.2460   28.0720   42.5410 C   0  0  0  0  0  3  0  0  0  0  0  0
   38.1520   28.2880   43.5680 C   0  0  0  0  0  2  0  0  0  0  0  0
   36.8780   27.5790   43.2500 C   0  0  0  0  0  2  0  0  0  0  0  0
   37.0170   26.2520   42.5900 C   0  0  0  0  0  2  0  0  0  0  0  0
   38.1940   26.1040   41.6780 C   0  0  0  0  0  2  0  0  0  0  0  0
   39.4220   26.5930   42.4280 C   0  0  0  0  0  2  0  0  0  0  0  0
  1  6  1  0  0  0  0
  2  3  1  0  0  0  0
  2  1  2  0  0  0  0
  3  4  2  0  0  0  0
  4  9  1  0  0  0  0
  4  5  1  0  0  0  0
  5 10  1  0  0  0  0
  6  5  2  0  0  0  0
  6 20  1  0  0  0  0
  7  2  1  0  0  0  0
  8  3  1  0  0  0  0
 11 16  1  0  0  0  0
 11 17  1  0  0  0  0
 12 11  2  0  0  0  0
 13 14  2  0  0  0  0
 13 12  1  0  0  0  0
 14 15  1  0  0  0  0
 15  1  1  0  0  0  0
 15 16  2  0  0  0  0
 18 12  1  0  0  0  0
 19 13  1  0  0  0  0
 20 22  1  0  0  0  0
 21 20  1  0  0  0  0
 22 27  1  0  0  0  0
 22 25  1  0  0  0  0
 23 22  1  0  0  0  0
 24 23  1  0  0  0  0
 25 26  1  0  0  0  0
 28 27  1  0  0  0  0
 28 29  1  0  0  0  0
 30 29  1  0  0  0  0
 31 30  1  0  0  0  0
 32 33  1  0  0  0  0
 32 31  1  0  0  0  0
 33 28  1  0  0  0  0
M  END
>  <minimizedAffinity>
-5.50779819

$$$$

 OpenBabel03242515113D

 33 35  0  0  0  0  0  0  0  0999 V2000
   39.6970   29.0450   42.2350 C   0  0  0  0  0  0  0  0  0  0  0  0
   40.1030   27.8070   42.6590 C   0  0  0  0  0  0  0  0  0  0  0  0
   39.3180   26.9330   43.3680 C   0  0  0  0  0  0  0  0  0  0  0  0
   38.0300   27.3130   43.6790 C   0  0  0  0  0  0  0  0  0  0  0  0
   37.5950   28.5430   43.2700 C   0  0  0  0  0  0  0  0  0  0  0  0
   38.4160   29.4000   42.5560 C   0  0  0  0  0  0  0  0  0  0  0  0
   41.1160   27.4640   42.4340 H   0  0  0  0  0  0  0  0  0  0  0  0
   39.6980   25.9680   43.6750 H   0  0  0  0  0  0  0  0  0  0  0  0
   37.4170   26.6070   44.2440 H   0  0  0  0  0  0  0  0  0  0  0  0
   36.5760   28.7790   43.5470 H   0  0  0  0  0  0  0  0  0  0  0  0
   41.5750   32.0540   41.2980 C   0  0  0  0  0  0  0  0  0  0  0  0
   42.2310   31.6700   40.1340 C   0  0  0  0  0  0  0  0  0  0  0  0
   42.0290   30.3710   39.6640 C   0  0  0  0  0  0  0  0  0  0  0  0
   41.2120   29.5100   40.3320 N   0  0  0  0  0  0  0  0  0  0  0  0
   40.5780   29.9280   41.4850 C   0  0  0  0  0  0  0  0  0  0  0  0
   40.7840   31.1800   41.9220 N   0  0  0  0  0  0  0  0  0  0  0  0
   41.6650   33.0300   41.7380 H   0  0  0  0  0  0  0  0  0  0  0  0
   42.8680   32.3900   39.6390 H   0  0  0  0  0  0  0  0  0  0  0  0
   42.5340   30.0740   38.7650 H   0  0  0  0  0  0  0  0  0  0  0  0
   37.8140   30.6320   42.2090 N   0  0  0  0  0  0  0  0  0  0  0  0
   37.9800   31.3600   42.9490 H   0  0  0  0  0  0  0  0  0  0  0  0
   36.9020   31.1410   40.8590 S   0  0  0  0  0  0  0  0  0  0  0  0
   35.4380   30.7860   41.1250 O   0  0  0  0  0  0  0  0  0  0  0  0
   35.0980   30.3960   41.9570 H   0  0  0  0  0  0  0  0  0  0  0  0
   36.9720   32.6080   40.5800 O   0  0  0  0  0  0  0  0  0  0  0  0
   37.8270   33.0940   40.4510 H   0  0  0  0  0  0  0  0  0  0  0  0
   37.3610   30.1940   39.5660 O   0  0  0  0  0  0  0  0  0  0  0  0
   36.5990   29.1330   39.2440 C   0  0  0  0  0  3  0  0  0  0  0  0
   37.3680   27.8380   39.4130 C   0  0  0  0  0  2  0  0  0  0  0  0
   36.5480   26.6140   39.1750 C   0  0  0  0  0  2  0  0  0  0  0  0
   35.5110   26.7210   38.1120 C   0  0  0  0  0  2  0  0  0  0  0  0
   34.8890   28.0720   37.9490 C   0  0  0  0  0  2  0  0  0  0  0  0
   36.0140   29.0910   37.8690 C   0  0  0  0  0  2  0  0  0  0  0  0
  1  6  2  0  0  0  0
  1  2  1  0  0  0  0
  2  3  2  0  0  0  0
  3  8  1  0  0  0  0
  3  4  1  0  0  0  0
  4  9  1  0  0  0  0
  5 10  1  0  0  0  0
  5  4  2  0  0  0  0
  6  5  1  0  0  0  0
  7  2  1  0  0  0  0
 11 17  1  0  0  0  0
 11 16  1  0  0  0  0
 12 11  2  0  0  0  0
 13 12  1  0  0  0  0
 13 14  2  0  0  0  0
 14 15  1  0  0  0  0
 15 16  2  0  0  0  0
 15  1  1  0  0  0  0
 18 12  1  0  0  0  0
 19 13  1  0  0  0  0
 20  6  1  0  0  0  0
 20 21  1  0  0  0  0
 22 23  1  0  0  0  0
 22 20  1  0  0  0  0
 23 24  1  0  0  0  0
 25 22  1  0  0  0  0
 26 25  1  0  0  0  0
 27 22  1  0  0  0  0
 28 29  1  0  0  0  0
 28 27  1  0  0  0  0
 30 29  1  0  0  0  0
 31 30  1  0  0  0  0
 32 31  1  0  0  0  0
 33 32  1  0  0  0  0
 33 28  1  0  0  0  0
M  END
>  <minimizedAffinity>
-5.47812986

$$$$

 OpenBabel03242515113D

 33 35  0  0  0  0  0  0  0  0999 V2000
   37.9150   26.4670   41.5340 C   0  0  0  0  0  0  0  0  0  0  0  0
   38.7330   26.0030   42.5310 C   0  0  0  0  0  0  0  0  0  0  0  0
   39.4550   26.8060   43.3770 C   0  0  0  0  0  0  0  0  0  0  0  0
   39.3610   28.1720   43.2260 C   0  0  0  0  0  0  0  0  0  0  0  0
   38.5520   28.6660   42.2400 C   0  0  0  0  0  0  0  0  0  0  0  0
   37.8370   27.8260   41.4040 C   0  0  0  0  0  0  0  0  0  0  0  0
   38.8380   24.9270   42.6880 H   0  0  0  0  0  0  0  0  0  0  0  0
   40.0850   26.3780   44.1470 H   0  0  0  0  0  0  0  0  0  0  0  0
   39.9420   28.7990   43.9070 H   0  0  0  0  0  0  0  0  0  0  0  0
   38.5230   29.7460   42.1760 H   0  0  0  0  0  0  0  0  0  0  0  0
   36.4660   25.0340   38.4830 C   0  0  0  0  0  0  0  0  0  0  0  0
   35.7940   23.9090   38.9480 C   0  0  0  0  0  0  0  0  0  0  0  0
   35.8350   23.6380   40.3180 C   0  0  0  0  0  0  0  0  0  0  0  0
   36.5170   24.4560   41.1670 N   0  0  0  0  0  0  0  0  0  0  0  0
   37.1720   25.5640   40.6670 C   0  0  0  0  0  0  0  0  0  0  0  0
   37.1220   25.8080   39.3490 N   0  0  0  0  0  0  0  0  0  0  0  0
   36.4930   25.3260   37.4500 H   0  0  0  0  0  0  0  0  0  0  0  0
   35.2660   23.2910   38.2350 H   0  0  0  0  0  0  0  0  0  0  0  0
   35.3160   22.7700   40.6770 H   0  0  0  0  0  0  0  0  0  0  0  0
   37.0490   28.4950   40.4370 N   0  0  0  0  0  0  0  0  0  0  0  0
   37.1080   28.0190   39.5010 H   0  0  0  0  0  0  0  0  0  0  0  0
   36.0550   29.8800   40.5050 S   0  0  0  0  0  0  0  0  0  0  0  0
   34.6800   29.4930   39.9590 O   0  0  0  0  0  0  0  0  0  0  0  0
   34.4180   28.5890   39.6860 H   0  0  0  0  0  0  0  0  0  0  0  0
   35.8600   30.4370   41.8780 O   0  0  0  0  0  0  0  0  0  0  0  0
   36.6130   30.6910   42.4710 H   0  0  0  0  0  0  0  0  0  0  0  0
   36.6690   30.9840   39.4180 O   0  0  0  0  0  0  0  0  0  0  0  0
   37.6910   31.7690   39.8060 C   0  0  0  0  0  3  0  0  0  0  0  0
   37.4260   33.2210   39.4600 C   0  0  0  0  0  2  0  0  0  0  0  0
   38.4720   34.1600   39.9590 C   0  0  0  0  0  2  0  0  0  0  0  0
   39.8680   33.6440   39.9520 C   0  0  0  0  0  2  0  0  0  0  0  0
   40.0170   32.1750   40.1940 C   0  0  0  0  0  2  0  0  0  0  0  0
   39.0490   31.4560   39.2680 C   0  0  0  0  0  2  0  0  0  0  0  0
  1  2  1  0  0  0  0
  2  7  1  0  0  0  0
  2  3  2  0  0  0  0
  3  8  1  0  0  0  0
  4  3  1  0  0  0  0
  4  9  1  0  0  0  0
  5  4  2  0  0  0  0
  6  1  2  0  0  0  0
  6  5  1  0  0  0  0
 10  5  1  0  0  0  0
 11 12  2  0  0  0  0
 11 16  1  0  0  0  0
 12 13  1  0  0  0  0
 13 19  1  0  0  0  0
 13 14  2  0  0  0  0
 15 14  1  0  0  0  0
 15  1  1  0  0  0  0
 16 15  2  0  0  0  0
 17 11  1  0  0  0  0
 18 12  1  0  0  0  0
 20 22  1  0  0  0  0
 20  6  1  0  0  0  0
 21 20  1  0  0  0  0
 22 25  1  0  0  0  0
 23 22  1  0  0  0  0
 24 23  1  0  0  0  0
 25 26  1  0  0  0  0
 27 28  1  0  0  0  0
 27 22  1  0  0  0  0
 29 28  1  0  0  0  0
 29 30  1  0  0  0  0
 31 30  1  0  0  0  0
 31 32  1  0  0  0  0
 33 28  1  0  0  0  0
 33 32  1  0  0  0  0
M  END
>  <minimizedAffinity>
-5.46389866

$$$$
