
 OpenBabel03242511393D

 21 22  0  0  0  0  0  0  0  0999 V2000
   46.4590   32.7260   45.0750 C   0  0  0  0  0  0  0  0  0  0  0  0
   47.3490   32.3510   44.5640 H   0  0  0  0  0  0  0  0  0  0  0  0
   45.6360   31.9910   44.9880 H   0  0  0  0  0  0  0  0  0  0  0  0
   44.5750   35.8750   44.5150 C   0  0  0  0  0  0  0  0  0  0  0  0
   45.0590   36.2840   43.2440 C   0  0  0  0  0  0  0  0  0  0  0  0
   46.0060   35.4690   42.6350 C   0  0  0  0  0  0  0  0  0  0  0  0
   46.3990   34.3540   43.2830 N   0  0  0  0  0  0  0  0  0  0  0  0
   45.9180   33.9900   44.4960 C   0  0  0  0  0  0  0  0  0  0  0  0
   45.0050   34.7490   45.1170 N   0  0  0  0  0  0  0  0  0  0  0  0
   43.8460   36.5430   44.9400 H   0  0  0  0  0  0  0  0  0  0  0  0
   44.6980   37.1950   42.7830 H   0  0  0  0  0  0  0  0  0  0  0  0
   46.4110   35.7230   41.6750 H   0  0  0  0  0  0  0  0  0  0  0  0
   46.7380   33.0380   46.5480 C   0  0  0  0  0  0  0  0  0  0  0  0
   47.7820   32.8940   46.8090 H   0  0  0  0  0  0  0  0  0  0  0  0
   46.4140   34.0820   46.7400 H   0  0  0  0  0  0  0  0  0  0  0  0
   45.8080   32.1450   47.3540 C   0  0  0  0  0  0  0  0  0  0  0  0
   45.6740   30.7800   46.7700 C   0  0  0  0  0  0  0  0  0  0  0  0
   45.8370   29.6620   47.7500 C   0  0  0  0  0  0  0  0  0  0  0  0
   45.0520   29.8740   49.0220 C   0  0  0  0  0  0  0  0  0  0  0  0
   45.1900   31.2850   49.5470 C   0  0  0  0  0  0  0  0  0  0  0  0
   46.3010   31.9900   48.7790 C   0  0  0  0  0  0  0  0  0  0  0  0
  1 13  1  0  0  0  0
  2  1  1  0  0  0  0
  3  1  1  0  0  0  0
  4 10  1  0  0  0  0
  4  9  1  0  0  0  0
  5  4  2  0  0  0  0
  6  5  1  0  0  0  0
  6  7  2  0  0  0  0
  7  8  1  0  0  0  0
  8  1  1  0  0  0  0
  8  9  2  0  0  0  0
 11  5  1  0  0  0  0
 12  6  1  0  0  0  0
 13 15  1  0  0  0  0
 13 14  1  0  0  0  0
 13 16  1  0  0  0  0
 16 21  1  0  0  0  0
 17 16  1  0  0  0  0
 17 18  1  0  0  0  0
 18 19  1  0  0  0  0
 19 20  1  0  0  0  0
 21 20  1  0  0  0  0
M  END
>  <minimizedAffinity>
-4.63955879

>  <minimizedRMSD>
1.70536375

$$$$
