
 OpenBabel03252503583D

 17 18  0  0  0  0  0  0  0  0999 V2000
   37.8600   31.2570   40.8080 C   0  0  0  0  0  0  0  0  0  0  0  0
   36.7130   31.1290   40.0240 C   0  0  0  0  0  0  0  0  0  0  0  0
   35.8290   30.0800   40.3410 C   0  0  0  0  0  0  0  0  0  0  0  0
   36.1450   29.2620   41.3880 N   0  0  0  0  0  0  0  0  0  0  0  0
   37.2690   29.4430   42.1040 C   0  0  0  0  0  0  0  0  0  0  0  0
   38.1220   30.4320   41.8210 N   0  0  0  0  0  0  0  0  0  0  0  0
   36.4290   31.7540   39.1900 H   0  0  0  0  0  0  0  0  0  0  0  0
   34.9280   29.8990   39.8010 H   0  0  0  0  0  0  0  0  0  0  0  0
   37.5760   28.5370   43.2290 C   0  0  0  0  0  3  0  0  0  0  0  0
   39.0250   28.1870   43.2440 C   0  0  0  0  0  2  0  0  0  0  0  0
   39.4000   27.0890   42.3050 C   0  0  0  0  0  2  0  0  0  0  0  0
   38.4970   25.9050   42.3110 C   0  0  0  0  0  2  0  0  0  0  0  0
   37.0300   26.2250   42.3730 C   0  0  0  0  0  2  0  0  0  0  0  0
   36.6720   27.3460   43.2850 C   0  0  0  0  0  2  0  0  0  0  0  0
   38.7070   32.3450   40.4240 C   0  0  0  0  0  0  0  0  0  0  0  0
   38.8090   33.4650   41.0240 O   0  0  0  0  0  0  0  0  0  0  0  0
   39.4080   32.4990   39.6190 H   0  0  0  0  0  0  0  0  0  0  0  0
  1  6  1  0  0  0  0
  2  3  1  0  0  0  0
  2  1  2  0  0  0  0
  3  4  2  0  0  0  0
  4  5  1  0  0  0  0
  5  9  1  0  0  0  0
  6  5  2  0  0  0  0
  7  2  1  0  0  0  0
  8  3  1  0  0  0  0
  9 10  1  0  0  0  0
  9 14  1  0  0  0  0
 11 12  1  0  0  0  0
 11 10  1  0  0  0  0
 12 13  1  0  0  0  0
 13 14  1  0  0  0  0
 15  1  1  0  0  0  0
 15 16  2  0  0  0  0
 17 15  1  0  0  0  0
M  END
>  <minimizedAffinity>
-4.55011082

$$$$

 OpenBabel03252503583D

 17 18  0  0  0  0  0  0  0  0999 V2000
   37.3810   26.8170   41.8640 C   0  0  0  0  0  0  0  0  0  0  0  0
   38.2790   27.2240   42.8510 C   0  0  0  0  0  0  0  0  0  0  0  0
   38.3370   28.6010   43.1420 C   0  0  0  0  0  0  0  0  0  0  0  0
   37.5180   29.4440   42.4470 N   0  0  0  0  0  0  0  0  0  0  0  0
   36.6730   28.9830   41.5070 C   0  0  0  0  0  0  0  0  0  0  0  0
   36.6010   27.6820   41.2150 N   0  0  0  0  0  0  0  0  0  0  0  0
   38.9420   26.5900   43.4210 H   0  0  0  0  0  0  0  0  0  0  0  0
   38.9910   29.0100   43.8780 H   0  0  0  0  0  0  0  0  0  0  0  0
   35.8030   29.9270   40.7770 C   0  0  0  0  0  3  0  0  0  0  0  0
   35.3120   29.3180   39.5080 C   0  0  0  0  0  2  0  0  0  0  0  0
   36.2810   29.3920   38.3750 C   0  0  0  0  0  2  0  0  0  0  0  0
   36.9460   30.7110   38.1890 C   0  0  0  0  0  2  0  0  0  0  0  0
   37.3860   31.3870   39.4570 C   0  0  0  0  0  2  0  0  0  0  0  0
   36.4270   31.2740   40.5900 C   0  0  0  0  0  2  0  0  0  0  0  0
   37.3810   25.4060   41.6260 C   0  0  0  0  0  0  0  0  0  0  0  0
   36.7100   24.5360   42.2740 O   0  0  0  0  0  0  0  0  0  0  0  0
   37.8860   24.7660   40.9200 H   0  0  0  0  0  0  0  0  0  0  0  0
  1  2  1  0  0  0  0
  2  3  2  0  0  0  0
  2  7  1  0  0  0  0
  3  8  1  0  0  0  0
  4  3  1  0  0  0  0
  5  4  2  0  0  0  0
  6  5  1  0  0  0  0
  6  1  2  0  0  0  0
  9  5  1  0  0  0  0
 10  9  1  0  0  0  0
 11 10  1  0  0  0  0
 12 11  1  0  0  0  0
 12 13  1  0  0  0  0
 13 14  1  0  0  0  0
 14  9  1  0  0  0  0
 15  1  1  0  0  0  0
 15 16  2  0  0  0  0
 17 15  1  0  0  0  0
M  END
>  <minimizedAffinity>
-4.41791487

$$$$

 OpenBabel03252503583D

 17 18  0  0  0  0  0  0  0  0999 V2000
   35.6140   29.5210   40.1280 C   0  0  0  0  0  0  0  0  0  0  0  0
   36.3190   30.6320   39.6650 C   0  0  0  0  0  0  0  0  0  0  0  0
   37.4360   31.0450   40.4160 C   0  0  0  0  0  0  0  0  0  0  0  0
   37.7570   30.3390   41.5410 N   0  0  0  0  0  0  0  0  0  0  0  0
   37.0330   29.2740   41.9300 C   0  0  0  0  0  0  0  0  0  0  0  0
   35.9700   28.8650   41.2320 N   0  0  0  0  0  0  0  0  0  0  0  0
   36.0970   31.2160   38.7840 H   0  0  0  0  0  0  0  0  0  0  0  0
   38.0390   31.8820   40.1460 H   0  0  0  0  0  0  0  0  0  0  0  0
   37.4120   28.5360   43.1510 C   0  0  0  0  0  3  0  0  0  0  0  0
   38.8890   28.3410   43.2120 C   0  0  0  0  0  2  0  0  0  0  0  0
   39.3910   27.1910   42.4050 C   0  0  0  0  0  2  0  0  0  0  0  0
   38.6140   25.9280   42.5400 C   0  0  0  0  0  2  0  0  0  0  0  0
   37.1210   26.0990   42.5580 C   0  0  0  0  0  2  0  0  0  0  0  0
   36.6350   27.2720   43.3360 C   0  0  0  0  0  2  0  0  0  0  0  0
   34.4940   29.1640   39.3120 C   0  0  0  0  0  0  0  0  0  0  0  0
   34.4860   29.0900   38.0390 O   0  0  0  0  0  0  0  0  0  0  0  0
   33.4720   28.8910   39.5230 H   0  0  0  0  0  0  0  0  0  0  0  0
  1  6  1  0  0  0  0
  2  1  2  0  0  0  0
  2  3  1  0  0  0  0
  3  4  2  0  0  0  0
  4  5  1  0  0  0  0
  5  9  1  0  0  0  0
  6  5  2  0  0  0  0
  7  2  1  0  0  0  0
  8  3  1  0  0  0  0
  9 10  1  0  0  0  0
  9 14  1  0  0  0  0
 11 12  1  0  0  0  0
 11 10  1  0  0  0  0
 12 13  1  0  0  0  0
 13 14  1  0  0  0  0
 15 17  1  0  0  0  0
 15  1  1  0  0  0  0
 16 15  2  0  0  0  0
M  END
>  <minimizedAffinity>
-4.36983109

$$$$

 OpenBabel03252503583D

 17 18  0  0  0  0  0  0  0  0999 V2000
   36.8570   30.8070   39.7410 C   0  0  0  0  0  0  0  0  0  0  0  0
   35.8850   30.0330   39.1060 C   0  0  0  0  0  0  0  0  0  0  0  0
   35.3920   28.9150   39.8060 C   0  0  0  0  0  0  0  0  0  0  0  0
   35.8900   28.6610   41.0520 N   0  0  0  0  0  0  0  0  0  0  0  0
   36.8270   29.4510   41.6060 C   0  0  0  0  0  0  0  0  0  0  0  0
   37.3090   30.5160   40.9610 N   0  0  0  0  0  0  0  0  0  0  0  0
   35.4670   30.2010   38.1240 H   0  0  0  0  0  0  0  0  0  0  0  0
   34.6500   28.2630   39.4060 H   0  0  0  0  0  0  0  0  0  0  0  0
   37.3400   29.1430   42.9560 C   0  0  0  0  0  3  0  0  0  0  0  0
   38.8050   29.4100   43.0370 C   0  0  0  0  0  2  0  0  0  0  0  0
   39.6600   28.3110   42.5010 C   0  0  0  0  0  2  0  0  0  0  0  0
   39.2770   26.9370   42.9270 C   0  0  0  0  0  2  0  0  0  0  0  0
   37.8000   26.6600   42.9300 C   0  0  0  0  0  2  0  0  0  0  0  0
   36.9550   27.7780   43.4320 C   0  0  0  0  0  2  0  0  0  0  0  0
   37.3070   31.9230   38.9660 C   0  0  0  0  0  0  0  0  0  0  0  0
   37.0110   33.1460   39.1700 O   0  0  0  0  0  0  0  0  0  0  0  0
   37.9430   32.0250   38.1020 H   0  0  0  0  0  0  0  0  0  0  0  0
  1  6  1  0  0  0  0
  2  1  2  0  0  0  0
  2  3  1  0  0  0  0
  3  4  2  0  0  0  0
  4  5  1  0  0  0  0
  5  9  1  0  0  0  0
  6  5  2  0  0  0  0
  7  2  1  0  0  0  0
  8  3  1  0  0  0  0
  9 10  1  0  0  0  0
  9 14  1  0  0  0  0
 11 12  1  0  0  0  0
 11 10  1  0  0  0  0
 12 13  1  0  0  0  0
 13 14  1  0  0  0  0
 15 16  2  0  0  0  0
 15  1  1  0  0  0  0
 17 15  1  0  0  0  0
M  END
>  <minimizedAffinity>
-4.32145834

$$$$

 OpenBabel03252503583D

 17 18  0  0  0  0  0  0  0  0999 V2000
   38.4270   28.5730   42.7720 C   0  0  0  0  0  0  0  0  0  0  0  0
   39.6780   29.1880   42.7900 C   0  0  0  0  0  0  0  0  0  0  0  0
   39.8140   30.3960   42.0780 C   0  0  0  0  0  0  0  0  0  0  0  0
   38.7210   30.8850   41.4210 N   0  0  0  0  0  0  0  0  0  0  0  0
   37.5410   30.2390   41.4460 C   0  0  0  0  0  0  0  0  0  0  0  0
   37.3900   29.0930   42.1150 N   0  0  0  0  0  0  0  0  0  0  0  0
   40.5640   28.8330   43.2960 H   0  0  0  0  0  0  0  0  0  0  0  0
   40.7280   30.9410   42.0310 H   0  0  0  0  0  0  0  0  0  0  0  0
   36.3830   30.8010   40.7220 C   0  0  0  0  0  3  0  0  0  0  0  0
   35.4310   29.7210   40.3320 C   0  0  0  0  0  2  0  0  0  0  0  0
   35.8080   28.9900   39.0870 C   0  0  0  0  0  2  0  0  0  0  0  0
   36.2420   29.8470   37.9490 C   0  0  0  0  0  2  0  0  0  0  0  0
   37.1420   30.9920   38.3210 C   0  0  0  0  0  2  0  0  0  0  0  0
   36.7770   31.6890   39.5850 C   0  0  0  0  0  2  0  0  0  0  0  0
   38.3690   27.3520   43.5170 C   0  0  0  0  0  0  0  0  0  0  0  0
   39.3270   26.5250   43.6780 O   0  0  0  0  0  0  0  0  0  0  0  0
   37.5950   26.8550   44.0790 H   0  0  0  0  0  0  0  0  0  0  0  0
  1  2  1  0  0  0  0
  1 15  1  0  0  0  0
  2  7  1  0  0  0  0
  3  2  2  0  0  0  0
  4  5  2  0  0  0  0
  4  3  1  0  0  0  0
  5  6  1  0  0  0  0
  6  1  2  0  0  0  0
  8  3  1  0  0  0  0
  9  5  1  0  0  0  0
 10  9  1  0  0  0  0
 11 10  1  0  0  0  0
 12 13  1  0  0  0  0
 12 11  1  0  0  0  0
 13 14  1  0  0  0  0
 14  9  1  0  0  0  0
 15 16  2  0  0  0  0
 15 17  1  0  0  0  0
M  END
>  <minimizedAffinity>
-4.26947689

$$$$

 OpenBabel03252503583D

 17 18  0  0  0  0  0  0  0  0999 V2000
   35.9940   29.0060   39.3950 C   0  0  0  0  0  0  0  0  0  0  0  0
   36.2790   30.3620   39.5490 C   0  0  0  0  0  0  0  0  0  0  0  0
   36.7250   30.7880   40.8150 C   0  0  0  0  0  0  0  0  0  0  0  0
   36.8490   29.8550   41.8050 N   0  0  0  0  0  0  0  0  0  0  0  0
   36.5560   28.5600   41.5870 C   0  0  0  0  0  0  0  0  0  0  0  0
   36.1330   28.1340   40.3940 N   0  0  0  0  0  0  0  0  0  0  0  0
   36.1940   31.1290   38.7930 H   0  0  0  0  0  0  0  0  0  0  0  0
   36.9670   31.8030   41.0320 H   0  0  0  0  0  0  0  0  0  0  0  0
   36.7040   27.5820   42.6830 C   0  0  0  0  0  3  0  0  0  0  0  0
   37.7070   28.0530   43.6800 C   0  0  0  0  0  2  0  0  0  0  0  0
   39.1250   27.7840   43.2980 C   0  0  0  0  0  2  0  0  0  0  0  0
   39.3970   26.4170   42.7730 C   0  0  0  0  0  2  0  0  0  0  0  0
   38.3630   25.8830   41.8230 C   0  0  0  0  0  2  0  0  0  0  0  0
   36.9540   26.1900   42.1950 C   0  0  0  0  0  2  0  0  0  0  0  0
   35.5480   28.6520   38.0820 C   0  0  0  0  0  0  0  0  0  0  0  0
   34.6890   29.2860   37.3850 O   0  0  0  0  0  0  0  0  0  0  0  0
   35.7850   27.8480   37.4030 H   0  0  0  0  0  0  0  0  0  0  0  0
  1  2  2  0  0  0  0
  1  6  1  0  0  0  0
  2  3  1  0  0  0  0
  3  8  1  0  0  0  0
  3  4  2  0  0  0  0
  5  4  1  0  0  0  0
  5  9  1  0  0  0  0
  6  5  2  0  0  0  0
  7  2  1  0  0  0  0
  9 10  1  0  0  0  0
 11 10  1  0  0  0  0
 12 11  1  0  0  0  0
 13 14  1  0  0  0  0
 13 12  1  0  0  0  0
 14  9  1  0  0  0  0
 15  1  1  0  0  0  0
 16 15  2  0  0  0  0
 17 15  1  0  0  0  0
M  END
>  <minimizedAffinity>
-4.26289797

$$$$

 OpenBabel03252503583D

 17 18  0  0  0  0  0  0  0  0999 V2000
   38.3250   24.4020   41.7690 C   0  0  0  0  0  0  0  0  0  0  0  0
   39.5220   24.2750   42.4740 C   0  0  0  0  0  0  0  0  0  0  0  0
   39.8690   25.3220   43.3500 C   0  0  0  0  0  0  0  0  0  0  0  0
   39.0190   26.3860   43.4540 N   0  0  0  0  0  0  0  0  0  0  0  0
   37.8780   26.4440   42.7450 C   0  0  0  0  0  0  0  0  0  0  0  0
   37.5290   25.4620   41.9080 N   0  0  0  0  0  0  0  0  0  0  0  0
   40.2190   23.4520   42.4190 H   0  0  0  0  0  0  0  0  0  0  0  0
   40.7620   25.3190   43.9310 H   0  0  0  0  0  0  0  0  0  0  0  0
   36.9850   27.6110   42.8860 C   0  0  0  0  0  3  0  0  0  0  0  0
   36.4590   28.0360   41.5570 C   0  0  0  0  0  2  0  0  0  0  0  0
   37.3940   28.8930   40.7710 C   0  0  0  0  0  2  0  0  0  0  0  0
   38.0510   29.9900   41.5340 C   0  0  0  0  0  2  0  0  0  0  0  0
   38.5250   29.6120   42.9090 C   0  0  0  0  0  2  0  0  0  0  0  0
   37.6000   28.7270   43.6690 C   0  0  0  0  0  2  0  0  0  0  0  0
   38.0430   23.2990   40.9020 C   0  0  0  0  0  0  0  0  0  0  0  0
   36.9420   23.0830   40.2970 O   0  0  0  0  0  0  0  0  0  0  0  0
   38.6140   22.4500   40.5610 H   0  0  0  0  0  0  0  0  0  0  0  0
  1  6  2  0  0  0  0
  1  2  1  0  0  0  0
  2  3  2  0  0  0  0
  3  4  1  0  0  0  0
  3  8  1  0  0  0  0
  5  9  1  0  0  0  0
  5  4  2  0  0  0  0
  6  5  1  0  0  0  0
  7  2  1  0  0  0  0
  9 14  1  0  0  0  0
 10  9  1  0  0  0  0
 11 12  1  0  0  0  0
 11 10  1  0  0  0  0
 12 13  1  0  0  0  0
 13 14  1  0  0  0  0
 15  1  1  0  0  0  0
 16 15  2  0  0  0  0
 17 15  1  0  0  0  0
M  END
>  <minimizedAffinity>
-4.21547604

$$$$

 OpenBabel03252503583D

 17 18  0  0  0  0  0  0  0  0999 V2000
   38.9210   28.7970   42.4140 C   0  0  0  0  0  0  0  0  0  0  0  0
   38.5320   27.5680   42.9470 C   0  0  0  0  0  0  0  0  0  0  0  0
   37.1910   27.1790   42.7600 C   0  0  0  0  0  0  0  0  0  0  0  0
   36.3630   28.0210   42.0750 N   0  0  0  0  0  0  0  0  0  0  0  0
   36.8050   29.1940   41.5860 C   0  0  0  0  0  0  0  0  0  0  0  0
   38.0720   29.5830   41.7510 N   0  0  0  0  0  0  0  0  0  0  0  0
   39.1560   26.8750   43.4940 H   0  0  0  0  0  0  0  0  0  0  0  0
   36.7980   26.2600   43.1300 H   0  0  0  0  0  0  0  0  0  0  0  0
   35.8780   30.0770   40.8500 C   0  0  0  0  0  3  0  0  0  0  0  0
   34.8820   29.2760   40.0840 C   0  0  0  0  0  2  0  0  0  0  0  0
   35.3800   28.7670   38.7730 C   0  0  0  0  0  2  0  0  0  0  0  0
   36.1190   29.7570   37.9420 C   0  0  0  0  0  2  0  0  0  0  0  0
   37.0770   30.6340   38.6980 C   0  0  0  0  0  2  0  0  0  0  0  0
   36.5830   31.1040   40.0210 C   0  0  0  0  0  2  0  0  0  0  0  0
   40.2950   29.1200   42.6440 C   0  0  0  0  0  0  0  0  0  0  0  0
   41.1710   29.3600   41.7480 O   0  0  0  0  0  0  0  0  0  0  0  0
   40.8980   29.2370   43.5310 H   0  0  0  0  0  0  0  0  0  0  0  0
  1 15  1  0  0  0  0
  1  2  1  0  0  0  0
  2  7  1  0  0  0  0
  3  2  2  0  0  0  0
  3  8  1  0  0  0  0
  4  3  1  0  0  0  0
  5  6  1  0  0  0  0
  5  4  2  0  0  0  0
  6  1  2  0  0  0  0
  9  5  1  0  0  0  0
 10  9  1  0  0  0  0
 11 10  1  0  0  0  0
 12 13  1  0  0  0  0
 12 11  1  0  0  0  0
 13 14  1  0  0  0  0
 14  9  1  0  0  0  0
 15 17  1  0  0  0  0
 16 15  2  0  0  0  0
M  END
>  <minimizedAffinity>
-4.17837334

$$$$

 OpenBabel03252503583D

 17 18  0  0  0  0  0  0  0  0999 V2000
   36.9540   29.0890   41.9740 C   0  0  0  0  0  0  0  0  0  0  0  0
   35.8770   28.4980   41.3140 C   0  0  0  0  0  0  0  0  0  0  0  0
   35.2830   29.2280   40.2670 C   0  0  0  0  0  0  0  0  0  0  0  0
   35.7940   30.4580   39.9650 N   0  0  0  0  0  0  0  0  0  0  0  0
   36.8380   30.9690   40.6430 C   0  0  0  0  0  0  0  0  0  0  0  0
   37.4170   30.2940   41.6390 N   0  0  0  0  0  0  0  0  0  0  0  0
   35.4450   27.5300   41.5230 H   0  0  0  0  0  0  0  0  0  0  0  0
   34.4550   28.8630   39.7030 H   0  0  0  0  0  0  0  0  0  0  0  0
   37.3620   32.3030   40.2860 C   0  0  0  0  0  3  0  0  0  0  0  0
   37.2240   32.5490   38.8220 C   0  0  0  0  0  2  0  0  0  0  0  0
   38.3060   31.9420   37.9920 C   0  0  0  0  0  2  0  0  0  0  0  0
   39.6900   32.1370   38.5050 C   0  0  0  0  0  2  0  0  0  0  0  0
   39.8480   31.9700   39.9910 C   0  0  0  0  0  2  0  0  0  0  0  0
   38.7430   32.5470   40.8050 C   0  0  0  0  0  2  0  0  0  0  0  0
   37.5030   28.2860   43.0240 C   0  0  0  0  0  0  0  0  0  0  0  0
   36.8860   27.3830   43.6790 O   0  0  0  0  0  0  0  0  0  0  0  0
   38.4720   28.2300   43.4940 H   0  0  0  0  0  0  0  0  0  0  0  0
  1 15  1  0  0  0  0
  2  7  1  0  0  0  0
  2  1  2  0  0  0  0
  3  2  1  0  0  0  0
  4  3  2  0  0  0  0
  4  5  1  0  0  0  0
  5  6  2  0  0  0  0
  6  1  1  0  0  0  0
  8  3  1  0  0  0  0
  9  5  1  0  0  0  0
  9 14  1  0  0  0  0
 10  9  1  0  0  0  0
 11 12  1  0  0  0  0
 11 10  1  0  0  0  0
 12 13  1  0  0  0  0
 13 14  1  0  0  0  0
 15 17  1  0  0  0  0
 15 16  2  0  0  0  0
M  END
>  <minimizedAffinity>
-4.14603615

$$$$
