
     RDKit          3D

 29 30  0  0  0  0  0  0  0  0999 V2000
   45.4423   35.0633   43.9954 C   0  0  0  0  0  0  0  0  0  0  0  0
   46.5012   34.2973   43.5003 C   0  0  0  0  0  0  0  0  0  0  0  0
   47.0133   33.2929   44.3356 C   0  0  0  0  0  0  0  0  0  0  0  0
   46.4604   33.1243   45.5584 N   0  0  0  0  0  0  0  0  0  0  0  0
   45.4279   33.8928   46.0045 C   0  0  0  0  0  0  0  0  0  0  0  0
   44.9204   34.8631   45.2192 N   0  0  0  0  0  0  0  0  0  0  0  0
   44.8994   36.1393   43.0907 C   0  0  0  0  0  0  0  0  0  0  0  0
   46.9385   34.4378   42.5211 H   0  0  0  0  0  0  0  0  0  0  0  0
   47.8399   32.6624   44.0042 H   0  0  0  0  0  0  0  0  0  0  0  0
   44.8038   35.7604   42.0590 H   0  0  0  0  0  0  0  0  0  0  0  0
   43.9352   36.5139   43.4411 H   0  0  0  0  0  0  0  0  0  0  0  0
   45.6581   36.9586   43.0863 H   0  0  0  0  0  0  0  0  0  0  0  0
   44.8995   33.6308   47.3441 C   0  0  0  0  0  0  0  0  0  0  0  0
   43.8783   32.5494   47.4111 C   0  0  0  0  0  0  0  0  0  0  0  0
   44.1914   31.4904   48.4397 C   0  0  0  0  0  0  0  0  0  0  0  0
   44.6300   32.0328   49.7707 C   0  0  0  0  0  0  0  0  0  0  0  0
   45.6234   33.1686   49.6686 C   0  0  0  0  0  0  0  0  0  0  0  0
   46.1012   33.3286   48.2448 C   0  0  0  0  0  0  0  0  0  0  0  0
   44.5081   34.6093   47.7468 H   0  0  0  0  0  0  0  0  0  0  0  0
   42.8500   32.9650   47.5919 H   0  0  0  0  0  0  0  0  0  0  0  0
   43.7966   32.0226   46.4356 H   0  0  0  0  0  0  0  0  0  0  0  0
   43.2425   30.9210   48.6219 H   0  0  0  0  0  0  0  0  0  0  0  0
   44.8909   30.7658   48.0122 H   0  0  0  0  0  0  0  0  0  0  0  0
   43.8126   32.3543   50.4137 H   0  0  0  0  0  0  0  0  0  0  0  0
   45.1764   31.1920   50.2886 H   0  0  0  0  0  0  0  0  0  0  0  0
   46.5204   33.0142   50.3037 H   0  0  0  0  0  0  0  0  0  0  0  0
   45.1695   34.1418   50.0006 H   0  0  0  0  0  0  0  0  0  0  0  0
   46.6596   32.4541   47.9065 H   0  0  0  0  0  0  0  0  0  0  0  0
   46.7575   34.2142   48.1775 H   0  0  0  0  0  0  0  0  0  0  0  0
  1  6  2  0
  2  1  1  0
  2  3  2  0
  3  4  1  0
  4  5  2  0
  6  5  1  0
  7  1  1  0
  2  8  1  0
  3  9  1  0
  7 10  1  0
  7 11  1  0
  7 12  1  0
 13 14  1  0
 14 15  1  0
 15 16  1  0
 16 17  1  0
 17 18  1  0
 18 13  1  0
 13 19  1  0
 14 20  1  0
 14 21  1  0
 15 22  1  0
 15 23  1  0
 16 24  1  0
 16 25  1  0
 17 26  1  0
 17 27  1  0
 18 28  1  0
 18 29  1  0
  5 13  1  0
M  ISO  5   8  14   9  14  10   8  11   8  12   8
M  END
>  <DihAtoms>  (1) 
3,4,12,13

>  <DihDeg>  (1) 
125.23094953198665

$$$$
