
 OpenBabel03242510063D

 15 16  0  0  1  0  0  0  0  0999 V2000
   43.5220   31.4890   42.3680 C   0  0  0  0  0  0  0  0  0  0  0  0
   44.5370   32.4510   42.5130 C   0  0  0  0  0  0  0  0  0  0  0  0
   44.2680   33.7530   42.0810 C   0  0  0  0  0  0  0  0  0  0  0  0
   43.0440   34.0160   41.5470 N   0  0  0  0  0  0  0  0  0  0  0  0
   42.0860   33.0700   41.4210 C   0  0  0  0  0  0  0  0  0  0  0  0
   42.3230   31.8000   41.8320 N   0  0  0  0  0  0  0  0  0  0  0  0
   43.7170   30.4640   42.7010 H   0  0  0  0  0  0  0  0  0  0  0  0
   45.4860   32.2170   42.9330 H   0  0  0  0  0  0  0  0  0  0  0  0
   44.9850   34.5600   42.1520 H   0  0  0  0  0  0  0  0  0  0  0  0
   40.7700   33.4410   40.8260 C   0  0  2  0  0  3  0  0  0  0  0  0
   40.6610   32.7160   39.5380 C   0  0  0  0  0  2  0  0  0  0  0  0
   40.8660   33.5740   38.3190 C   0  0  0  0  0  2  0  0  0  0  0  0
   39.8490   34.6810   38.4060 C   0  0  0  0  0  2  0  0  0  0  0  0
   40.0350   35.5430   39.6010 C   0  0  0  0  0  3  0  0  0  0  0  0
   40.6640   34.9180   40.7880 C   0  0  0  0  0  3  0  0  0  0  0  0
  1  2  1  0  0  0  0
  1  7  1  0  0  0  0
  2  8  1  0  0  0  0
  3  9  1  0  0  0  0
  3  2  2  0  0  0  0
  4  3  1  0  0  0  0
  5  4  2  0  0  0  0
  5  6  1  0  0  0  0
  6  1  2  0  0  0  0
 10  5  1  6  0  0  0
 11 10  1  0  0  0  0
 12 13  1  0  0  0  0
 12 11  1  0  0  0  0
 13 14  1  0  0  0  0
 14 15  2  0  0  0  0
 15 10  1  0  0  0  0
M  END
>  <minimizedAffinity>
-3.29813123

>  <minimizedRMSD>
8.1457901

$$$$
