
     RDKit          3D

 35 37  0  0  0  0  0  0  0  0999 V2000
   44.6299   35.4562   45.1299 C   0  0  0  0  0  0  0  0  0  0  0  0
   45.0982   35.7144   43.8040 C   0  0  0  0  0  0  0  0  0  0  0  0
   46.0413   34.8270   43.3608 C   0  0  0  0  0  0  0  0  0  0  0  0
   46.4881   33.7810   44.1472 N   0  0  0  0  0  0  0  0  0  0  0  0
   46.0134   33.5885   45.3827 C   0  0  0  0  0  0  0  0  0  0  0  0
   45.0718   34.4375   45.8795 N   0  0  0  0  0  0  0  0  0  0  0  0
   46.5413   34.9751   41.9327 C   0  0  1  0  0  0  0  0  0  0  0  0
   48.0611   35.2777   41.9339 C   0  0  0  0  0  0  0  0  0  0  0  0
   47.3889   33.9720   41.3986 C   0  0  2  0  0  0  0  0  0  0  0  0
   44.6489   36.8116   43.0187 N   0  0  0  0  0  0  0  0  0  0  0  0
   43.8830   36.1289   45.5259 H   0  0  0  0  0  0  0  0  0  0  0  0
   46.4717   32.7289   45.8497 H   0  0  0  0  0  0  0  0  0  0  0  0
   45.9496   35.6966   41.3447 H   0  0  0  0  0  0  0  0  0  0  0  0
   48.6217   35.2228   42.8636 H   0  0  0  0  0  0  0  0  0  0  0  0
   48.3491   36.0108   41.1845 H   0  0  0  0  0  0  0  0  0  0  0  0
   47.6282   33.0927   42.0678 H   0  0  0  0  0  0  0  0  0  0  0  0
   45.1136   37.7349   42.8454 H   0  0  0  0  0  0  0  0  0  0  0  0
   43.7092   36.5328   42.6087 H   0  0  0  0  0  0  0  0  0  0  0  0
   47.5409   33.6839   39.9358 C   0  0  0  0  0  0  0  0  0  0  0  0
   48.7571   32.8316   39.6410 C   0  0  0  0  0  0  0  0  0  0  0  0
   49.0242   32.6949   38.1787 C   0  0  0  0  0  0  0  0  0  0  0  0
   47.8072   32.9405   37.3287 C   0  0  0  0  0  0  0  0  0  0  0  0
   46.6015   32.3670   38.0333 C   0  0  0  0  0  0  0  0  0  0  0  0
   46.3369   32.9908   39.3801 C   0  0  0  0  0  0  0  0  0  0  0  0
   47.6538   34.6607   39.4245 H   0  0  0  0  0  0  0  0  0  0  0  0
   48.6066   31.8157   40.0615 H   0  0  0  0  0  0  0  0  0  0  0  0
   49.6114   33.3771   40.1332 H   0  0  0  0  0  0  0  0  0  0  0  0
   49.3998   31.6783   37.9556 H   0  0  0  0  0  0  0  0  0  0  0  0
   49.7721   33.4798   37.8866 H   0  0  0  0  0  0  0  0  0  0  0  0
   47.6772   33.9827   37.0298 H   0  0  0  0  0  0  0  0  0  0  0  0
   47.9226   32.3594   36.3953 H   0  0  0  0  0  0  0  0  0  0  0  0
   46.7664   31.2820   38.1966 H   0  0  0  0  0  0  0  0  0  0  0  0
   45.7251   32.4452   37.3471 H   0  0  0  0  0  0  0  0  0  0  0  0
   45.5037   33.7197   39.2416 H   0  0  0  0  0  0  0  0  0  0  0  0
   46.0084   32.2021   40.1151 H   0  0  0  0  0  0  0  0  0  0  0  0
  1  6  2  0
  2  1  1  0
  3  2  2  0
  3  4  1  0
  4  5  2  0
  5  6  1  0
  7  3  1  0
  8  7  1  0
  9  8  1  0
  9  7  1  0
 10  2  1  0
  1 11  1  0
  5 12  1  0
  7 13  1  6
  8 14  1  0
  8 15  1  0
  9 16  1  1
 10 17  1  0
 10 18  1  0
 19 20  1  0
 20 21  1  0
 21 22  1  0
 22 23  1  0
 23 24  1  0
 24 19  1  0
 19 25  1  0
 20 26  1  0
 20 27  1  0
 21 28  1  0
 21 29  1  0
 22 30  1  0
 22 31  1  0
 23 32  1  0
 23 33  1  0
 24 34  1  0
 24 35  1  0
  9 19  1  0
M  ISO  6  11  14  12  14  13  13  14  13  15  13  16  13
M  END
>  <DihAtoms>  (1) 
7,8,18,19

>  <DihDeg>  (1) 
-13.602938366458762

$$$$
