
     RDKit          3D

 33 35  0  0  0  0  0  0  0  0999 V2000
   44.5969   35.8051   44.7204 C   0  0  0  0  0  0  0  0  0  0  0  0
   45.2742   35.5690   43.5047 C   0  0  0  0  0  0  0  0  0  0  0  0
   46.1243   34.4493   43.4249 C   0  0  0  0  0  0  0  0  0  0  0  0
   46.2477   33.6509   44.5303 N   0  0  0  0  0  0  0  0  0  0  0  0
   45.5717   33.9249   45.6762 C   0  0  0  0  0  0  0  0  0  0  0  0
   44.7487   34.9970   45.7744 N   0  0  0  0  0  0  0  0  0  0  0  0
   45.8638   32.9333   46.7125 C   0  0  0  0  0  0  0  0  0  0  0  0
   45.1074   32.7717   47.8986 C   0  0  0  0  0  0  0  0  0  0  0  0
   45.4907   31.8121   48.7721 C   0  0  0  0  0  0  0  0  0  0  0  0
   46.6222   31.0049   48.4833 C   0  0  0  0  0  0  0  0  0  0  0  0
   47.1634   31.6609   46.8696 S   0  0  0  0  0  0  0  0  0  0  0  0
   43.9403   36.6486   44.8194 H   0  0  0  0  0  0  0  0  0  0  0  0
   45.1546   36.2178   42.6529 H   0  0  0  0  0  0  0  0  0  0  0  0
   46.6726   34.2093   42.5263 H   0  0  0  0  0  0  0  0  0  0  0  0
   44.2490   33.3938   48.1040 H   0  0  0  0  0  0  0  0  0  0  0  0
   45.0512   31.5561   49.6895 H   0  0  0  0  0  0  0  0  0  0  0  0
   47.3156   29.9383   49.1161 C   0  0  0  0  0  0  0  0  0  0  0  0
   46.5944   28.6225   48.9970 C   0  0  0  0  0  0  0  0  0  0  0  0
   47.4786   27.4383   48.7636 C   0  0  0  0  0  0  0  0  0  0  0  0
   48.7347   27.4514   49.5899 C   0  0  0  0  0  0  0  0  0  0  0  0
   49.4008   28.8030   49.6190 C   0  0  0  0  0  0  0  0  0  0  0  0
   48.7408   29.7211   48.5926 C   0  0  0  0  0  0  0  0  0  0  0  0
   47.4535   30.1789   50.1899 H   0  0  0  0  0  0  0  0  0  0  0  0
   45.8734   28.4849   49.8242 H   0  0  0  0  0  0  0  0  0  0  0  0
   45.9696   28.7114   48.0641 H   0  0  0  0  0  0  0  0  0  0  0  0
   46.8986   26.5338   49.0524 H   0  0  0  0  0  0  0  0  0  0  0  0
   47.7469   27.3137   47.6880 H   0  0  0  0  0  0  0  0  0  0  0  0
   48.4996   27.0397   50.5904 H   0  0  0  0  0  0  0  0  0  0  0  0
   49.4498   26.7386   49.1188 H   0  0  0  0  0  0  0  0  0  0  0  0
   49.2052   29.2455   50.6181 H   0  0  0  0  0  0  0  0  0  0  0  0
   50.4877   28.7353   49.4257 H   0  0  0  0  0  0  0  0  0  0  0  0
   48.7284   29.2520   47.6010 H   0  0  0  0  0  0  0  0  0  0  0  0
   49.2464   30.7000   48.6121 H   0  0  0  0  0  0  0  0  0  0  0  0
  1  6  2  0
  2  1  1  0
  3  2  2  0
  3  4  1  0
  4  5  2  0
  5  6  1  0
  5  7  1  0
  7 11  1  0
  7  8  2  0
  8  9  1  0
 10  9  2  0
 11 10  1  0
  1 12  1  0
  2 13  1  0
  3 14  1  0
  8 15  1  0
  9 16  1  0
 17 18  1  0
 18 19  1  0
 19 20  1  0
 20 21  1  0
 21 22  1  0
 22 17  1  0
 17 23  1  0
 18 24  1  0
 18 25  1  0
 19 26  1  0
 19 27  1  0
 20 28  1  0
 20 29  1  0
 21 30  1  0
 21 31  1  0
 22 32  1  0
 22 33  1  0
 10 17  1  0
M  ISO  5  12  14  13  14  14  14  15  14  16  14
M  END
>  <DihAtoms>  (1) 
8,9,16,17

>  <DihDeg>  (1) 
121.3800526359521

$$$$
