
     RDKit          3D

 33 35  0  0  0  0  0  0  0  0999 V2000
   44.5969   35.8051   44.7204 C   0  0  0  0  0  0  0  0  0  0  0  0
   45.2742   35.5690   43.5047 C   0  0  0  0  0  0  0  0  0  0  0  0
   46.1243   34.4493   43.4249 C   0  0  0  0  0  0  0  0  0  0  0  0
   46.2477   33.6509   44.5303 N   0  0  0  0  0  0  0  0  0  0  0  0
   45.5717   33.9249   45.6762 C   0  0  0  0  0  0  0  0  0  0  0  0
   44.7487   34.9970   45.7744 N   0  0  0  0  0  0  0  0  0  0  0  0
   45.8638   32.9333   46.7125 C   0  0  0  0  0  0  0  0  0  0  0  0
   45.1074   32.7717   47.8986 C   0  0  0  0  0  0  0  0  0  0  0  0
   45.4907   31.8121   48.7721 C   0  0  0  0  0  0  0  0  0  0  0  0
   46.6222   31.0049   48.4833 C   0  0  0  0  0  0  0  0  0  0  0  0
   47.1634   31.6609   46.8696 S   0  0  0  0  0  0  0  0  0  0  0  0
   43.9403   36.6486   44.8194 H   0  0  0  0  0  0  0  0  0  0  0  0
   45.1546   36.2178   42.6529 H   0  0  0  0  0  0  0  0  0  0  0  0
   46.6726   34.2093   42.5263 H   0  0  0  0  0  0  0  0  0  0  0  0
   44.2490   33.3938   48.1040 H   0  0  0  0  0  0  0  0  0  0  0  0
   45.0512   31.5561   49.6895 H   0  0  0  0  0  0  0  0  0  0  0  0
   47.3156   29.9383   49.1161 C   0  0  0  0  0  0  0  0  0  0  0  0
   46.3914   28.8718   49.6394 C   0  0  0  0  0  0  0  0  0  0  0  0
   46.8854   27.4700   49.4671 C   0  0  0  0  0  0  0  0  0  0  0  0
   48.3498   27.3056   49.7659 C   0  0  0  0  0  0  0  0  0  0  0  0
   49.1943   28.4029   49.1709 C   0  0  0  0  0  0  0  0  0  0  0  0
   48.3459   29.2422   48.2181 C   0  0  0  0  0  0  0  0  0  0  0  0
   47.9155   30.3413   49.9573 H   0  0  0  0  0  0  0  0  0  0  0  0
   46.0547   29.1029   50.6672 H   0  0  0  0  0  0  0  0  0  0  0  0
   45.4685   28.9393   48.9974 H   0  0  0  0  0  0  0  0  0  0  0  0
   46.3243   26.8335   50.1868 H   0  0  0  0  0  0  0  0  0  0  0  0
   46.6696   27.0655   48.4501 H   0  0  0  0  0  0  0  0  0  0  0  0
   48.4719   27.1812   50.8593 H   0  0  0  0  0  0  0  0  0  0  0  0
   48.6776   26.3463   49.3036 H   0  0  0  0  0  0  0  0  0  0  0  0
   49.4995   29.0717   50.0027 H   0  0  0  0  0  0  0  0  0  0  0  0
   50.0803   28.0052   48.6417 H   0  0  0  0  0  0  0  0  0  0  0  0
   47.8523   28.6063   47.4728 H   0  0  0  0  0  0  0  0  0  0  0  0
   48.9777   30.0304   47.7778 H   0  0  0  0  0  0  0  0  0  0  0  0
  1  6  2  0
  2  1  1  0
  3  2  2  0
  3  4  1  0
  4  5  2  0
  5  6  1  0
  5  7  1  0
  7 11  1  0
  7  8  2  0
  8  9  1  0
 10  9  2  0
 11 10  1  0
  1 12  1  0
  2 13  1  0
  3 14  1  0
  8 15  1  0
  9 16  1  0
 17 18  1  0
 18 19  1  0
 19 20  1  0
 20 21  1  0
 21 22  1  0
 22 17  1  0
 17 23  1  0
 18 24  1  0
 18 25  1  0
 19 26  1  0
 19 27  1  0
 20 28  1  0
 20 29  1  0
 21 30  1  0
 21 31  1  0
 22 32  1  0
 22 33  1  0
 10 17  1  0
M  ISO  5  12  14  13  14  14  14  15  14  16  14
M  END
>  <DihAtoms>  (1) 
8,9,16,17

>  <DihDeg>  (1) 
121.3800526359521

$$$$
