
 OpenBabel03252506263D

 42 46  0  0  0  0  0  0  0  0999 V2000
   45.1350   30.1050   48.4050 C   0  0  0  0  0  0  0  0  0  0  0  0
   44.3780   30.8140   48.0150 H   0  0  0  0  0  0  0  0  0  0  0  0
   44.9240   30.0630   49.5150 H   0  0  0  0  0  0  0  0  0  0  0  0
   45.2620   27.5200   48.4440 C   0  0  0  0  0  0  0  0  0  0  0  0
   44.8940   28.7440   47.9110 C   0  0  0  0  0  0  0  0  0  0  0  0
   44.1770   28.7160   46.7150 C   0  0  0  0  0  0  0  0  0  0  0  0
   43.8470   27.5380   46.0850 C   0  0  0  0  0  0  0  0  0  0  0  0
   43.1850   27.2160   44.9690 N   0  0  0  0  0  0  0  0  0  0  0  0
   43.1390   25.8760   44.8090 C   0  0  0  0  0  0  0  0  0  0  0  0
   43.7990   25.2660   45.8630 C   0  0  0  0  0  0  0  0  0  0  0  0
   44.2210   26.3330   46.6280 C   0  0  0  0  0  0  0  0  0  0  0  0
   44.9290   26.3610   47.8100 C   0  0  0  0  0  0  0  0  0  0  0  0
   45.8130   27.6280   49.3690 H   0  0  0  0  0  0  0  0  0  0  0  0
   43.8290   29.5970   46.1930 H   0  0  0  0  0  0  0  0  0  0  0  0
   42.7560   27.9140   44.3010 H   0  0  0  0  0  0  0  0  0  0  0  0
   42.6620   25.3330   43.9840 H   0  0  0  0  0  0  0  0  0  0  0  0
   43.9660   24.2160   46.0730 H   0  0  0  0  0  0  0  0  0  0  0  0
   45.3460   25.0940   48.4170 C   0  0  0  0  0  0  0  0  0  0  0  0
   46.7010   24.6000   48.0830 C   0  0  0  0  0  0  0  0  0  0  0  0
   47.6310   24.4140   49.2480 C   0  0  0  0  0  0  0  0  0  0  0  0
   47.0870   23.5210   50.3160 C   0  0  0  0  0  0  0  0  0  0  0  0
   45.6380   23.8050   50.5410 C   0  0  0  0  0  0  0  0  0  0  0  0
   45.2980   25.1750   49.9490 C   0  0  0  0  0  0  0  0  0  0  0  0
   46.4990   30.6440   48.2370 C   0  0  0  0  0  0  0  0  0  0  0  0
   47.2610   29.8710   48.3280 H   0  0  0  0  0  0  0  0  0  0  0  0
   46.6750   31.3730   49.0700 H   0  0  0  0  0  0  0  0  0  0  0  0
   46.2760   32.8800   45.4650 C   0  0  0  0  0  0  0  0  0  0  0  0
   47.1560   31.8810   44.9760 C   0  0  0  0  0  0  0  0  0  0  0  0
   47.3380   30.9450   45.9390 C   0  0  0  0  0  0  0  0  0  0  0  0
   46.6030   31.3440   46.9820 N   0  0  0  0  0  0  0  0  0  0  0  0
   45.9740   32.4900   46.7010 N   0  0  0  0  0  0  0  0  0  0  0  0
   47.6150   31.8610   43.9950 H   0  0  0  0  0  0  0  0  0  0  0  0
   47.9650   30.0670   45.8330 H   0  0  0  0  0  0  0  0  0  0  0  0
   44.5310   35.9350   44.5410 C   0  0  0  0  0  0  0  0  0  0  0  0
   45.0410   36.2330   43.2790 C   0  0  0  0  0  0  0  0  0  0  0  0
   45.9930   35.3710   42.7480 C   0  0  0  0  0  0  0  0  0  0  0  0
   46.3730   34.2930   43.4820 N   0  0  0  0  0  0  0  0  0  0  0  0
   45.8710   34.0270   44.6880 C   0  0  0  0  0  0  0  0  0  0  0  0
   44.9440   34.8560   45.2160 N   0  0  0  0  0  0  0  0  0  0  0  0
   43.7870   36.5590   45.0160 H   0  0  0  0  0  0  0  0  0  0  0  0
   44.7000   37.0940   42.7590 H   0  0  0  0  0  0  0  0  0  0  0  0
   46.4210   35.5640   41.7640 H   0  0  0  0  0  0  0  0  0  0  0  0
  1  3  1  0  0  0  0
  2  1  1  0  0  0  0
  4 13  1  0  0  0  0
  5  1  1  0  0  0  0
  5  4  1  0  0  0  0
  6  5  2  0  0  0  0
  7 11  2  0  0  0  0
  7  6  1  0  0  0  0
  8  7  1  0  0  0  0
  9  8  1  0  0  0  0
  9 10  2  0  0  0  0
 10 17  1  0  0  0  0
 10 11  1  0  0  0  0
 11 12  1  0  0  0  0
 12 18  1  0  0  0  0
 12  4  2  0  0  0  0
 14  6  1  0  0  0  0
 15  8  1  0  0  0  0
 16  9  1  0  0  0  0
 18 23  1  0  0  0  0
 19 18  1  0  0  0  0
 19 20  1  0  0  0  0
 20 21  1  0  0  0  0
 21 22  1  0  0  0  0
 23 22  1  0  0  0  0
 24 25  1  0  0  0  0
 24  1  1  0  0  0  0
 24 26  1  0  0  0  0
 27 31  2  0  0  0  0
 28 27  1  0  0  0  0
 28 29  2  0  0  0  0
 29 30  1  0  0  0  0
 30 24  1  0  0  0  0
 31 30  1  0  0  0  0
 32 28  1  0  0  0  0
 33 29  1  0  0  0  0
 34 40  1  0  0  0  0
 34 39  1  0  0  0  0
 35 34  2  0  0  0  0
 36 35  1  0  0  0  0
 36 37  2  0  0  0  0
 37 38  1  0  0  0  0
 38 39  2  0  0  0  0
 38 27  1  0  0  0  0
 41 35  1  0  0  0  0
 42 36  1  0  0  0  0
M  END
>  <minimizedAffinity>
-5.65719223

>  <minimizedRMSD>
1.93201792

$$$$
