
     RDKit          3D

 29 30  0  0  0  0  0  0  0  0999 V2000
   44.5600   36.0103   44.4959 C   0  0  0  0  0  0  0  0  0  0  0  0
   45.3058   35.9229   43.2947 C   0  0  0  0  0  0  0  0  0  0  0  0
   46.1939   34.8585   43.1708 C   0  0  0  0  0  0  0  0  0  0  0  0
   46.3108   33.9588   44.1881 N   0  0  0  0  0  0  0  0  0  0  0  0
   45.5691   34.0859   45.3280 C   0  0  0  0  0  0  0  0  0  0  0  0
   44.7024   35.1043   45.4764 N   0  0  0  0  0  0  0  0  0  0  0  0
   46.9601   34.7743   41.9291 C   0  0  0  0  0  0  0  0  0  0  0  0
   43.8673   36.8277   44.6099 H   0  0  0  0  0  0  0  0  0  0  0  0
   45.1559   36.6696   42.5439 H   0  0  0  0  0  0  0  0  0  0  0  0
   45.6607   33.3798   46.1265 H   0  0  0  0  0  0  0  0  0  0  0  0
   47.2149   33.7053   41.7702 H   0  0  0  0  0  0  0  0  0  0  0  0
   46.4079   35.1105   41.0431 H   0  0  0  0  0  0  0  0  0  0  0  0
   48.2732   35.5063   41.9812 C   0  0  0  0  0  0  0  0  0  0  0  0
   49.2285   35.1560   40.8806 C   0  0  0  0  0  0  0  0  0  0  0  0
   50.5965   35.6580   41.3478 C   0  0  0  0  0  0  0  0  0  0  0  0
   50.5036   37.1570   41.4392 C   0  0  0  0  0  0  0  0  0  0  0  0
   49.4482   37.5670   42.4396 C   0  0  0  0  0  0  0  0  0  0  0  0
   48.0975   37.0123   41.9711 C   0  0  0  0  0  0  0  0  0  0  0  0
   48.7886   35.2686   42.9335 H   0  0  0  0  0  0  0  0  0  0  0  0
   49.0229   35.6879   39.9281 H   0  0  0  0  0  0  0  0  0  0  0  0
   49.3091   34.0663   40.7029 H   0  0  0  0  0  0  0  0  0  0  0  0
   50.7195   35.2670   42.3895 H   0  0  0  0  0  0  0  0  0  0  0  0
   51.3924   35.3616   40.6571 H   0  0  0  0  0  0  0  0  0  0  0  0
   51.4702   37.5915   41.8129 H   0  0  0  0  0  0  0  0  0  0  0  0
   50.2596   37.5403   40.4327 H   0  0  0  0  0  0  0  0  0  0  0  0
   49.6345   37.0522   43.4032 H   0  0  0  0  0  0  0  0  0  0  0  0
   49.4126   38.6511   42.5586 H   0  0  0  0  0  0  0  0  0  0  0  0
   47.3177   37.2671   42.7103 H   0  0  0  0  0  0  0  0  0  0  0  0
   47.8488   37.4055   40.9588 H   0  0  0  0  0  0  0  0  0  0  0  0
  1  6  2  0
  2  1  1  0
  3  2  2  0
  3  4  1  0
  4  5  2  0
  5  6  1  0
  7  3  1  0
  1  8  1  0
  2  9  1  0
  5 10  1  0
  7 11  1  0
  7 12  1  0
 13 14  1  0
 14 15  1  0
 15 16  1  0
 16 17  1  0
 17 18  1  0
 18 13  1  0
 13 19  1  0
 14 20  1  0
 14 21  1  0
 15 22  1  0
 15 23  1  0
 16 24  1  0
 16 25  1  0
 17 26  1  0
 17 27  1  0
 18 28  1  0
 18 29  1  0
  7 13  1  0
M  ISO  5   8  14   9  14  10  14  11   8  12   8
M  END
>  <DihAtoms>  (1) 
2,6,12,13

>  <DihDeg>  (1) 
-59.99933838426612

$$$$
