
 OpenBabel03252506253D

 42 46  0  0  0  0  0  0  0  0999 V2000
   46.2420   30.0650   48.3790 C   0  0  0  0  0  0  0  0  0  0  0  0
   45.5600   30.9030   48.6280 H   0  0  0  0  0  0  0  0  0  0  0  0
   46.4680   29.5900   49.3800 H   0  0  0  0  0  0  0  0  0  0  0  0
   45.8080   27.6730   47.4900 C   0  0  0  0  0  0  0  0  0  0  0  0
   45.5500   29.0290   47.6040 C   0  0  0  0  0  0  0  0  0  0  0  0
   44.4640   29.5220   46.8790 C   0  0  0  0  0  0  0  0  0  0  0  0
   43.6820   28.7140   46.0870 C   0  0  0  0  0  0  0  0  0  0  0  0
   42.6120   28.9010   45.3090 N   0  0  0  0  0  0  0  0  0  0  0  0
   42.2210   27.7400   44.7420 C   0  0  0  0  0  0  0  0  0  0  0  0
   43.0650   26.7220   45.1550 C   0  0  0  0  0  0  0  0  0  0  0  0
   43.9540   27.3700   45.9870 C   0  0  0  0  0  0  0  0  0  0  0  0
   45.0260   26.8840   46.7020 C   0  0  0  0  0  0  0  0  0  0  0  0
   46.6640   27.3720   48.0800 H   0  0  0  0  0  0  0  0  0  0  0  0
   44.1530   30.5580   46.8780 H   0  0  0  0  0  0  0  0  0  0  0  0
   42.1350   29.8330   45.1570 H   0  0  0  0  0  0  0  0  0  0  0  0
   41.3740   27.5990   44.0600 H   0  0  0  0  0  0  0  0  0  0  0  0
   43.0630   25.6660   44.9110 H   0  0  0  0  0  0  0  0  0  0  0  0
   45.3470   25.4560   46.6170 C   0  0  0  0  0  3  0  0  0  0  0  0
   44.3100   24.5050   47.0790 C   0  0  0  0  0  2  0  0  0  0  0  0
   43.8210   23.5250   46.0520 C   0  0  0  0  0  2  0  0  0  0  0  0
   44.9110   22.7190   45.4230 C   0  0  0  0  0  2  0  0  0  0  0  0
   46.1000   23.5780   45.1440 C   0  0  0  0  0  2  0  0  0  0  0  0
   45.6710   25.0480   45.1730 C   0  0  0  0  0  2  0  0  0  0  0  0
   47.5180   30.5670   47.8320 C   0  0  0  0  0  0  0  0  0  0  0  0
   48.2560   29.7750   47.7170 H   0  0  0  0  0  0  0  0  0  0  0  0
   47.9360   31.2950   48.5750 H   0  0  0  0  0  0  0  0  0  0  0  0
   46.6100   32.8120   45.2110 C   0  0  0  0  0  0  0  0  0  0  0  0
   47.2480   31.7630   44.5020 C   0  0  0  0  0  0  0  0  0  0  0  0
   47.6540   30.8180   45.3840 C   0  0  0  0  0  0  0  0  0  0  0  0
   47.2850   31.2600   46.5900 N   0  0  0  0  0  0  0  0  0  0  0  0
   46.6660   32.4420   46.4870 N   0  0  0  0  0  0  0  0  0  0  0  0
   47.3940   31.7150   43.4300 H   0  0  0  0  0  0  0  0  0  0  0  0
   48.1720   29.9050   45.1130 H   0  0  0  0  0  0  0  0  0  0  0  0
   44.5490   35.7610   44.6720 C   0  0  0  0  0  0  0  0  0  0  0  0
   44.9530   36.2160   43.4190 C   0  0  0  0  0  0  0  0  0  0  0  0
   45.9420   35.4980   42.7590 C   0  0  0  0  0  0  0  0  0  0  0  0
   46.4600   34.3990   43.3680 N   0  0  0  0  0  0  0  0  0  0  0  0
   46.0590   33.9810   44.5680 C   0  0  0  0  0  0  0  0  0  0  0  0
   45.0960   34.6700   45.2200 N   0  0  0  0  0  0  0  0  0  0  0  0
   43.7840   36.2680   45.2430 H   0  0  0  0  0  0  0  0  0  0  0  0
   44.5050   37.0840   43.0020 H   0  0  0  0  0  0  0  0  0  0  0  0
   46.2900   35.8170   41.7770 H   0  0  0  0  0  0  0  0  0  0  0  0
  1  2  1  0  0  0  0
  1  3  1  0  0  0  0
  4  5  1  0  0  0  0
  4 13  1  0  0  0  0
  5  1  1  0  0  0  0
  6  5  2  0  0  0  0
  7  6  1  0  0  0  0
  8  7  1  0  0  0  0
  9 10  2  0  0  0  0
  9  8  1  0  0  0  0
 10 11  1  0  0  0  0
 11  7  2  0  0  0  0
 11 12  1  0  0  0  0
 12  4  2  0  0  0  0
 14  6  1  0  0  0  0
 15  8  1  0  0  0  0
 16  9  1  0  0  0  0
 17 10  1  0  0  0  0
 18 12  1  0  0  0  0
 18 19  1  0  0  0  0
 20 19  1  0  0  0  0
 21 20  1  0  0  0  0
 22 23  1  0  0  0  0
 22 21  1  0  0  0  0
 23 18  1  0  0  0  0
 24  1  1  0  0  0  0
 24 26  1  0  0  0  0
 25 24  1  0  0  0  0
 27 31  2  0  0  0  0
 28 27  1  0  0  0  0
 28 29  2  0  0  0  0
 29 30  1  0  0  0  0
 30 24  1  0  0  0  0
 31 30  1  0  0  0  0
 32 28  1  0  0  0  0
 33 29  1  0  0  0  0
 34 39  1  0  0  0  0
 34 40  1  0  0  0  0
 35 34  2  0  0  0  0
 36 37  2  0  0  0  0
 36 35  1  0  0  0  0
 37 38  1  0  0  0  0
 38 27  1  0  0  0  0
 38 39  2  0  0  0  0
 41 35  1  0  0  0  0
 42 36  1  0  0  0  0
M  END
>  <minimizedAffinity>
-5.21900654

>  <minimizedRMSD>
1.12670302

$$$$
