
     RDKit          3D

 29 30  0  0  0  0  0  0  0  0999 V2000
   44.5600   36.0103   44.4959 C   0  0  0  0  0  0  0  0  0  0  0  0
   45.3058   35.9229   43.2947 C   0  0  0  0  0  0  0  0  0  0  0  0
   46.1939   34.8585   43.1708 C   0  0  0  0  0  0  0  0  0  0  0  0
   46.3108   33.9588   44.1881 N   0  0  0  0  0  0  0  0  0  0  0  0
   45.5691   34.0859   45.3280 C   0  0  0  0  0  0  0  0  0  0  0  0
   44.7024   35.1043   45.4764 N   0  0  0  0  0  0  0  0  0  0  0  0
   46.9601   34.7743   41.9291 C   0  0  0  0  0  0  0  0  0  0  0  0
   43.8673   36.8277   44.6099 H   0  0  0  0  0  0  0  0  0  0  0  0
   45.1559   36.6696   42.5439 H   0  0  0  0  0  0  0  0  0  0  0  0
   45.6607   33.3798   46.1265 H   0  0  0  0  0  0  0  0  0  0  0  0
   47.2149   33.7053   41.7702 H   0  0  0  0  0  0  0  0  0  0  0  0
   46.4079   35.1105   41.0431 H   0  0  0  0  0  0  0  0  0  0  0  0
   48.2732   35.5063   41.9812 C   0  0  0  0  0  0  0  0  0  0  0  0
   49.4771   34.6226   42.1092 C   0  0  0  0  0  0  0  0  0  0  0  0
   50.6141   35.5397   42.5649 C   0  0  0  0  0  0  0  0  0  0  0  0
   50.8585   36.5196   41.4495 C   0  0  0  0  0  0  0  0  0  0  0  0
   49.6216   37.3454   41.1832 C   0  0  0  0  0  0  0  0  0  0  0  0
   48.4875   36.3978   40.7736 C   0  0  0  0  0  0  0  0  0  0  0  0
   48.2827   36.1812   42.8606 H   0  0  0  0  0  0  0  0  0  0  0  0
   49.8119   34.1859   41.1449 H   0  0  0  0  0  0  0  0  0  0  0  0
   49.3562   33.8276   42.8700 H   0  0  0  0  0  0  0  0  0  0  0  0
   50.2045   36.1167   43.4324 H   0  0  0  0  0  0  0  0  0  0  0  0
   51.5241   34.9736   42.7882 H   0  0  0  0  0  0  0  0  0  0  0  0
   51.6635   37.2503   41.7338 H   0  0  0  0  0  0  0  0  0  0  0  0
   51.1454   35.9428   40.5527 H   0  0  0  0  0  0  0  0  0  0  0  0
   49.2694   37.7976   42.1317 H   0  0  0  0  0  0  0  0  0  0  0  0
   49.8046   38.1003   40.4168 H   0  0  0  0  0  0  0  0  0  0  0  0
   47.5619   36.9783   40.6127 H   0  0  0  0  0  0  0  0  0  0  0  0
   48.7751   35.8218   39.8644 H   0  0  0  0  0  0  0  0  0  0  0  0
  1  6  2  0
  2  1  1  0
  3  2  2  0
  3  4  1  0
  4  5  2  0
  5  6  1  0
  7  3  1  0
  1  8  1  0
  2  9  1  0
  5 10  1  0
  7 11  1  0
  7 12  1  0
 13 14  1  0
 14 15  1  0
 15 16  1  0
 16 17  1  0
 17 18  1  0
 18 13  1  0
 13 19  1  0
 14 20  1  0
 14 21  1  0
 15 22  1  0
 15 23  1  0
 16 24  1  0
 16 25  1  0
 17 26  1  0
 17 27  1  0
 18 28  1  0
 18 29  1  0
  7 13  1  0
M  ISO  5   8  14   9  14  10  14  11   8  12   8
M  END
>  <DihAtoms>  (1) 
2,6,12,13

>  <DihDeg>  (1) 
-59.99933838426612

$$$$
