
 OpenBabel03242520343D

 25 27  0  0  1  0  0  0  0  0999 V2000
   36.1880   30.0280   40.8630 C   0  0  0  0  0  0  0  0  0  0  0  0
   37.2880   30.9430   40.7970 C   0  0  0  0  0  0  0  0  0  0  0  0
   38.5340   30.4830   41.1790 C   0  0  0  0  0  0  0  0  0  0  0  0
   38.6450   29.1920   41.5920 N   0  0  0  0  0  0  0  0  0  0  0  0
   37.6010   28.3490   41.6470 C   0  0  0  0  0  0  0  0  0  0  0  0
   36.3890   28.7870   41.2790 N   0  0  0  0  0  0  0  0  0  0  0  0
   35.2250   30.4230   40.5570 H   0  0  0  0  0  0  0  0  0  0  0  0
   39.4160   31.1080   41.1590 H   0  0  0  0  0  0  0  0  0  0  0  0
   37.1190   32.3580   40.3430 C   0  0  1  0  0  0  0  0  0  0  0  0
   38.2550   33.0950   39.8280 C   0  0  0  0  0  0  0  0  0  0  0  0
   37.2320   32.6460   38.8510 C   0  0  1  0  0  0  0  0  0  0  0  0
   36.2200   32.8150   40.8060 H   0  0  0  0  0  0  0  0  0  0  0  0
   39.2460   32.5870   39.7610 H   0  0  0  0  0  0  0  0  0  0  0  0
   38.3810   34.1920   39.9260 H   0  0  0  0  0  0  0  0  0  0  0  0
   36.5300   33.4260   38.4540 H   0  0  0  0  0  0  0  0  0  0  0  0
   37.5080   31.5400   37.8910 C   0  0  0  0  0  0  0  0  0  0  0  0
   36.5000   30.5920   37.8890 F   0  0  0  0  0  0  0  0  0  0  0  0
   38.7190   30.9120   38.1800 F   0  0  0  0  0  0  0  0  0  0  0  0
   37.5670   32.0710   36.6320 F   0  0  0  0  0  0  0  0  0  0  0  0
   37.8090   26.9530   42.1120 C   0  0  0  0  0  3  0  0  0  0  0  0
   39.2450   26.5020   42.0780 C   0  0  0  0  0  2  0  0  0  0  0  0
   39.2560   25.1960   42.8830 C   0  0  0  0  0  2  0  0  0  0  0  0
   38.3260   24.1770   42.2910 C   0  0  0  0  0  2  0  0  0  0  0  0
   36.9410   24.7050   42.0400 C   0  0  0  0  0  2  0  0  0  0  0  0
   37.0580   25.9780   41.2250 C   0  0  0  0  0  2  0  0  0  0  0  0
  1  6  1  0  0  0  0
  2  1  2  0  0  0  0
  2  3  1  0  0  0  0
  3  4  2  0  0  0  0
  4  5  1  0  0  0  0
  5 20  1  0  0  0  0
  6  5  2  0  0  0  0
  7  1  1  0  0  0  0
  8  3  1  0  0  0  0
  9  2  1  0  0  0  0
  9 12  1  1  0  0  0
 10 14  1  0  0  0  0
 10  9  1  0  0  0  0
 11 15  1  6  0  0  0
 11 10  1  0  0  0  0
 11  9  1  0  0  0  0
 13 10  1  0  0  0  0
 16 18  1  0  0  0  0
 16 11  1  0  0  0  0
 17 16  1  0  0  0  0
 19 16  1  0  0  0  0
 21 20  1  0  0  0  0
 21 22  1  0  0  0  0
 23 22  1  0  0  0  0
 24 23  1  0  0  0  0
 25 24  1  0  0  0  0
 25 20  1  0  0  0  0
M  END
>  <minimizedAffinity>
-5.29461098

$$$$

 OpenBabel03242520343D

 25 27  0  0  1  0  0  0  0  0999 V2000
   37.7040   26.9530   40.2070 C   0  0  0  0  0  0  0  0  0  0  0  0
   37.1480   26.6070   41.4810 C   0  0  0  0  0  0  0  0  0  0  0  0
   36.9610   27.6230   42.4000 C   0  0  0  0  0  0  0  0  0  0  0  0
   37.3130   28.8870   42.0430 N   0  0  0  0  0  0  0  0  0  0  0  0
   37.8320   29.1910   40.8420 C   0  0  0  0  0  0  0  0  0  0  0  0
   38.0170   28.2120   39.9450 N   0  0  0  0  0  0  0  0  0  0  0  0
   37.8370   26.1310   39.5110 H   0  0  0  0  0  0  0  0  0  0  0  0
   36.5480   27.4490   43.3840 H   0  0  0  0  0  0  0  0  0  0  0  0
   36.7830   25.2010   41.8350 C   0  0  1  0  0  0  0  0  0  0  0  0
   37.2930   24.0980   41.0470 C   0  0  0  0  0  0  0  0  0  0  0  0
   37.8750   24.3010   42.3970 C   0  0  1  0  0  0  0  0  0  0  0  0
   35.8490   25.1770   42.4360 H   0  0  0  0  0  0  0  0  0  0  0  0
   37.9720   24.3140   40.1880 H   0  0  0  0  0  0  0  0  0  0  0  0
   36.7530   23.1430   40.8920 H   0  0  0  0  0  0  0  0  0  0  0  0
   37.5520   23.5910   43.2030 H   0  0  0  0  0  0  0  0  0  0  0  0
   39.2610   24.8200   42.5740 C   0  0  0  0  0  0  0  0  0  0  0  0
   39.2910   25.9520   43.3720 F   0  0  0  0  0  0  0  0  0  0  0  0
   39.8490   25.1190   41.3440 F   0  0  0  0  0  0  0  0  0  0  0  0
   40.0010   23.8600   43.2050 F   0  0  0  0  0  0  0  0  0  0  0  0
   38.1900   30.6000   40.5320 C   0  0  0  0  0  3  0  0  0  0  0  0
   39.1550   31.2170   41.5090 C   0  0  0  0  0  2  0  0  0  0  0  0
   39.6160   32.5110   40.8280 C   0  0  0  0  0  2  0  0  0  0  0  0
   38.4580   33.4160   40.5240 C   0  0  0  0  0  2  0  0  0  0  0  0
   37.3370   32.7300   39.7940 C   0  0  0  0  0  2  0  0  0  0  0  0
   36.9580   31.4830   40.5680 C   0  0  0  0  0  2  0  0  0  0  0  0
  1  2  1  0  0  0  0
  2  9  1  0  0  0  0
  2  3  2  0  0  0  0
  3  8  1  0  0  0  0
  4  3  1  0  0  0  0
  5  4  2  0  0  0  0
  6  1  2  0  0  0  0
  6  5  1  0  0  0  0
  7  1  1  0  0  0  0
  9 11  1  0  0  0  0
  9 12  1  1  0  0  0
 10  9  1  0  0  0  0
 10 11  1  0  0  0  0
 11 16  1  0  0  0  0
 11 15  1  1  0  0  0
 13 10  1  0  0  0  0
 14 10  1  0  0  0  0
 16 19  1  0  0  0  0
 16 17  1  0  0  0  0
 18 16  1  0  0  0  0
 20 25  1  0  0  0  0
 20  5  1  0  0  0  0
 20 21  1  0  0  0  0
 22 21  1  0  0  0  0
 23 22  1  0  0  0  0
 24 23  1  0  0  0  0
 24 25  1  0  0  0  0
M  END
>  <minimizedAffinity>
-5.16821051

$$$$

 OpenBabel03242520343D

 25 27  0  0  1  0  0  0  0  0999 V2000
   39.5050   29.6750   40.2180 C   0  0  0  0  0  0  0  0  0  0  0  0
   39.0120   30.4960   41.2830 C   0  0  0  0  0  0  0  0  0  0  0  0
   38.1120   29.9340   42.1680 C   0  0  0  0  0  0  0  0  0  0  0  0
   37.7480   28.6370   41.9790 N   0  0  0  0  0  0  0  0  0  0  0  0
   38.2220   27.8820   40.9750 C   0  0  0  0  0  0  0  0  0  0  0  0
   39.0950   28.4200   40.1110 N   0  0  0  0  0  0  0  0  0  0  0  0
   40.2080   30.1480   39.5420 H   0  0  0  0  0  0  0  0  0  0  0  0
   37.6920   30.4830   42.9990 H   0  0  0  0  0  0  0  0  0  0  0  0
   39.4340   31.9210   41.4480 C   0  0  1  0  0  0  0  0  0  0  0  0
   40.0170   32.6400   40.3340 C   0  0  0  0  0  0  0  0  0  0  0  0
   38.6290   32.9920   40.7230 C   0  0  1  0  0  0  0  0  0  0  0  0
   39.6040   32.1580   42.5200 H   0  0  0  0  0  0  0  0  0  0  0  0
   40.1300   32.1200   39.3530 H   0  0  0  0  0  0  0  0  0  0  0  0
   40.7680   33.4480   40.4400 H   0  0  0  0  0  0  0  0  0  0  0  0
   38.4850   33.9530   41.2830 H   0  0  0  0  0  0  0  0  0  0  0  0
   37.4650   32.6110   39.8730 C   0  0  0  0  0  0  0  0  0  0  0  0
   36.5060   31.9160   40.5910 F   0  0  0  0  0  0  0  0  0  0  0  0
   37.8660   31.8340   38.7860 F   0  0  0  0  0  0  0  0  0  0  0  0
   36.8760   33.7560   39.4140 F   0  0  0  0  0  0  0  0  0  0  0  0
   37.7710   26.4720   40.8390 C   0  0  0  0  0  3  0  0  0  0  0  0
   36.6720   26.2740   39.8300 C   0  0  0  0  0  2  0  0  0  0  0  0
   36.6030   24.7540   39.6320 C   0  0  0  0  0  2  0  0  0  0  0  0
   36.3250   24.0420   40.9240 C   0  0  0  0  0  2  0  0  0  0  0  0
   37.2410   24.4520   42.0420 C   0  0  0  0  0  2  0  0  0  0  0  0
   37.2110   25.9630   42.1530 C   0  0  0  0  0  2  0  0  0  0  0  0
  1  2  1  0  0  0  0
  2  9  1  0  0  0  0
  2  3  2  0  0  0  0
  3  8  1  0  0  0  0
  4  3  1  0  0  0  0
  5  4  2  0  0  0  0
  6  1  2  0  0  0  0
  6  5  1  0  0  0  0
  7  1  1  0  0  0  0
  9 12  1  1  0  0  0
 10 14  1  0  0  0  0
 10 11  1  0  0  0  0
 10  9  1  0  0  0  0
 11 15  1  1  0  0  0
 11  9  1  0  0  0  0
 13 10  1  0  0  0  0
 16 17  1  0  0  0  0
 16 11  1  0  0  0  0
 18 16  1  0  0  0  0
 19 16  1  0  0  0  0
 20  5  1  0  0  0  0
 20 25  1  0  0  0  0
 21 20  1  0  0  0  0
 22 21  1  0  0  0  0
 22 23  1  0  0  0  0
 23 24  1  0  0  0  0
 24 25  1  0  0  0  0
M  END
>  <minimizedAffinity>
-5.06211233

$$$$

 OpenBabel03242520343D

 25 27  0  0  1  0  0  0  0  0999 V2000
   39.3950   28.5400   42.5360 C   0  0  0  0  0  0  0  0  0  0  0  0
   39.6140   27.4520   41.6310 C   0  0  0  0  0  0  0  0  0  0  0  0
   39.5360   27.7140   40.2750 C   0  0  0  0  0  0  0  0  0  0  0  0
   39.2580   28.9850   39.8810 N   0  0  0  0  0  0  0  0  0  0  0  0
   39.0550   29.9930   40.7450 C   0  0  0  0  0  0  0  0  0  0  0  0
   39.1290   29.7470   42.0610 N   0  0  0  0  0  0  0  0  0  0  0  0
   39.4630   28.2990   43.5910 H   0  0  0  0  0  0  0  0  0  0  0  0
   39.6890   26.9500   39.5250 H   0  0  0  0  0  0  0  0  0  0  0  0
   39.9110   26.0660   42.1090 C   0  0  1  0  0  0  0  0  0  0  0  0
   39.6300   25.6970   43.4810 C   0  0  0  0  0  0  0  0  0  0  0  0
   38.7320   25.1570   42.4320 C   0  0  1  0  0  0  0  0  0  0  0  0
   40.6690   25.5800   41.4600 H   0  0  0  0  0  0  0  0  0  0  0  0
   39.1780   26.4540   44.1660 H   0  0  0  0  0  0  0  0  0  0  0  0
   40.2120   24.9470   44.0540 H   0  0  0  0  0  0  0  0  0  0  0  0
   38.8630   24.0770   42.1560 H   0  0  0  0  0  0  0  0  0  0  0  0
   37.3350   25.6520   42.2760 C   0  0  0  0  0  0  0  0  0  0  0  0
   37.0740   26.0640   40.9800 F   0  0  0  0  0  0  0  0  0  0  0  0
   37.0740   26.7100   43.1470 F   0  0  0  0  0  0  0  0  0  0  0  0
   36.4820   24.6200   42.5530 F   0  0  0  0  0  0  0  0  0  0  0  0
   38.7550   31.3540   40.2290 C   0  0  0  0  0  3  0  0  0  0  0  0
   39.1700   32.4660   41.1550 C   0  0  0  0  0  2  0  0  0  0  0  0
   39.0650   33.7360   40.3010 C   0  0  0  0  0  2  0  0  0  0  0  0
   37.6750   33.9280   39.7680 C   0  0  0  0  0  2  0  0  0  0  0  0
   37.1220   32.7090   39.0860 C   0  0  0  0  0  2  0  0  0  0  0  0
   37.2620   31.5300   40.0290 C   0  0  0  0  0  2  0  0  0  0  0  0
  1  7  1  0  0  0  0
  2  9  1  0  0  0  0
  2  1  2  0  0  0  0
  3  2  1  0  0  0  0
  4  3  2  0  0  0  0
  4  5  1  0  0  0  0
  5  6  2  0  0  0  0
  6  1  1  0  0  0  0
  8  3  1  0  0  0  0
  9 12  1  6  0  0  0
  9 11  1  0  0  0  0
  9 10  1  0  0  0  0
 10 14  1  0  0  0  0
 10 13  1  0  0  0  0
 11 15  1  6  0  0  0
 11 10  1  0  0  0  0
 16 11  1  0  0  0  0
 16 19  1  0  0  0  0
 16 18  1  0  0  0  0
 17 16  1  0  0  0  0
 20  5  1  0  0  0  0
 20 21  1  0  0  0  0
 22 21  1  0  0  0  0
 23 22  1  0  0  0  0
 24 23  1  0  0  0  0
 24 25  1  0  0  0  0
 25 20  1  0  0  0  0
M  END
>  <minimizedAffinity>
-5.04497719

$$$$

 OpenBabel03242520343D

 25 27  0  0  1  0  0  0  0  0999 V2000
   35.7410   29.7700   40.1640 C   0  0  0  0  0  0  0  0  0  0  0  0
   36.9560   30.5220   40.2580 C   0  0  0  0  0  0  0  0  0  0  0  0
   38.1220   29.8320   40.5370 C   0  0  0  0  0  0  0  0  0  0  0  0
   38.0470   28.4850   40.7050 N   0  0  0  0  0  0  0  0  0  0  0  0
   36.8980   27.7970   40.6120 C   0  0  0  0  0  0  0  0  0  0  0  0
   35.7630   28.4590   40.3430 N   0  0  0  0  0  0  0  0  0  0  0  0
   34.8460   30.3430   39.9450 H   0  0  0  0  0  0  0  0  0  0  0  0
   39.0810   30.3220   40.6250 H   0  0  0  0  0  0  0  0  0  0  0  0
   36.9910   32.0060   40.0740 C   0  0  1  0  0  0  0  0  0  0  0  0
   38.2500   32.6760   39.8230 C   0  0  0  0  0  0  0  0  0  0  0  0
   37.3060   32.5450   38.6850 C   0  0  1  0  0  0  0  0  0  0  0  0
   36.0960   32.4790   40.5300 H   0  0  0  0  0  0  0  0  0  0  0  0
   39.1840   32.0700   39.7530 H   0  0  0  0  0  0  0  0  0  0  0  0
   38.4770   33.7130   40.1450 H   0  0  0  0  0  0  0  0  0  0  0  0
   36.7420   33.4650   38.3820 H   0  0  0  0  0  0  0  0  0  0  0  0
   37.5760   31.6070   37.5580 C   0  0  0  0  0  0  0  0  0  0  0  0
   37.6270   32.2630   36.3400 F   0  0  0  0  0  0  0  0  0  0  0  0
   36.6070   30.6060   37.4920 F   0  0  0  0  0  0  0  0  0  0  0  0
   38.8010   31.0340   37.7610 F   0  0  0  0  0  0  0  0  0  0  0  0
   36.9040   26.3240   40.8100 C   0  0  0  0  0  3  0  0  0  0  0  0
   37.2920   25.8940   42.2000 C   0  0  0  0  0  2  0  0  0  0  0  0
   36.9220   24.4060   42.2580 C   0  0  0  0  0  2  0  0  0  0  0  0
   37.6370   23.6190   41.1980 C   0  0  0  0  0  2  0  0  0  0  0  0
   37.5030   24.2090   39.8220 C   0  0  0  0  0  2  0  0  0  0  0  0
   37.9120   25.6670   39.8870 C   0  0  0  0  0  2  0  0  0  0  0  0
  1  2  2  0  0  0  0
  1  6  1  0  0  0  0
  2  3  1  0  0  0  0
  3  8  1  0  0  0  0
  3  4  2  0  0  0  0
  5  4  1  0  0  0  0
  5 20  1  0  0  0  0
  6  5  2  0  0  0  0
  7  1  1  0  0  0  0
  9  2  1  0  0  0  0
  9 12  1  1  0  0  0
 10  9  1  0  0  0  0
 10 14  1  0  0  0  0
 11 15  1  6  0  0  0
 11 10  1  0  0  0  0
 11  9  1  0  0  0  0
 13 10  1  0  0  0  0
 16 19  1  0  0  0  0
 16 11  1  0  0  0  0
 17 16  1  0  0  0  0
 18 16  1  0  0  0  0
 20 21  1  0  0  0  0
 21 22  1  0  0  0  0
 23 22  1  0  0  0  0
 24 25  1  0  0  0  0
 24 23  1  0  0  0  0
 25 20  1  0  0  0  0
M  END
>  <minimizedAffinity>
-5.00152493

$$$$

 OpenBabel03242520343D

 25 27  0  0  1  0  0  0  0  0999 V2000
   37.8140   29.7270   42.3310 C   0  0  0  0  0  0  0  0  0  0  0  0
   38.5180   28.5780   42.8140 C   0  0  0  0  0  0  0  0  0  0  0  0
   39.8810   28.5160   42.5930 C   0  0  0  0  0  0  0  0  0  0  0  0
   40.4730   29.5480   41.9340 N   0  0  0  0  0  0  0  0  0  0  0  0
   39.7960   30.6180   41.4890 C   0  0  0  0  0  0  0  0  0  0  0  0
   38.4730   30.6850   41.6990 N   0  0  0  0  0  0  0  0  0  0  0  0
   36.7460   29.7420   42.5210 H   0  0  0  0  0  0  0  0  0  0  0  0
   40.4870   27.6850   42.9250 H   0  0  0  0  0  0  0  0  0  0  0  0
   37.8240   27.4620   43.5280 C   0  0  1  0  0  0  0  0  0  0  0  0
   36.3790   27.3790   43.5140 C   0  0  0  0  0  0  0  0  0  0  0  0
   37.1270   26.4010   42.6860 C   0  0  1  0  0  0  0  0  0  0  0  0
   38.4800   27.0300   44.3130 H   0  0  0  0  0  0  0  0  0  0  0  0
   35.7960   28.1470   42.9520 H   0  0  0  0  0  0  0  0  0  0  0  0
   35.7720   26.9510   44.3380 H   0  0  0  0  0  0  0  0  0  0  0  0
   37.1950   25.3510   43.0750 H   0  0  0  0  0  0  0  0  0  0  0  0
   37.1400   26.4940   41.1990 C   0  0  0  0  0  0  0  0  0  0  0  0
   36.5000   27.6350   40.7450 F   0  0  0  0  0  0  0  0  0  0  0  0
   36.5370   25.3770   40.6190 F   0  0  0  0  0  0  0  0  0  0  0  0
   38.4410   26.5670   40.7860 F   0  0  0  0  0  0  0  0  0  0  0  0
   40.5200   31.7020   40.7760 C   0  0  0  0  0  3  0  0  0  0  0  0
   41.8080   32.1170   41.4370 C   0  0  0  0  0  2  0  0  0  0  0  0
   42.5160   32.9830   40.3870 C   0  0  0  0  0  2  0  0  0  0  0  0
   41.6770   34.1610   39.9870 C   0  0  0  0  0  2  0  0  0  0  0  0
   40.2730   33.7910   39.5990 C   0  0  0  0  0  2  0  0  0  0  0  0
   39.6740   32.9590   40.7150 C   0  0  0  0  0  2  0  0  0  0  0  0
  1  7  1  0  0  0  0
  1  2  1  0  0  0  0
  2  9  1  0  0  0  0
  3  2  2  0  0  0  0
  3  8  1  0  0  0  0
  4  3  1  0  0  0  0
  5  6  1  0  0  0  0
  5  4  2  0  0  0  0
  6  1  2  0  0  0  0
  9 12  1  1  0  0  0
 10  9  1  0  0  0  0
 10 14  1  0  0  0  0
 11 15  1  1  0  0  0
 11 10  1  0  0  0  0
 11  9  1  0  0  0  0
 13 10  1  0  0  0  0
 16 11  1  0  0  0  0
 17 16  1  0  0  0  0
 18 16  1  0  0  0  0
 19 16  1  0  0  0  0
 20 21  1  0  0  0  0
 20  5  1  0  0  0  0
 22 21  1  0  0  0  0
 23 22  1  0  0  0  0
 24 23  1  0  0  0  0
 24 25  1  0  0  0  0
 25 20  1  0  0  0  0
M  END
>  <minimizedAffinity>
-4.85071898

$$$$

 OpenBabel03242520343D

 25 27  0  0  1  0  0  0  0  0999 V2000
   37.9700   30.2400   38.8050 C   0  0  0  0  0  0  0  0  0  0  0  0
   36.8380   30.6790   39.5660 C   0  0  0  0  0  0  0  0  0  0  0  0
   36.9110   31.9190   40.1730 C   0  0  0  0  0  0  0  0  0  0  0  0
   38.0480   32.6480   40.0130 N   0  0  0  0  0  0  0  0  0  0  0  0
   39.0980   32.2190   39.2950 C   0  0  0  0  0  0  0  0  0  0  0  0
   39.0360   31.0170   38.7030 N   0  0  0  0  0  0  0  0  0  0  0  0
   37.8790   29.2620   38.3430 H   0  0  0  0  0  0  0  0  0  0  0  0
   36.1030   32.3250   40.7640 H   0  0  0  0  0  0  0  0  0  0  0  0
   35.6100   29.8400   39.7220 C   0  0  1  0  0  0  0  0  0  0  0  0
   35.6590   28.4220   39.4320 C   0  0  0  0  0  0  0  0  0  0  0  0
   35.5800   28.8250   40.8570 C   0  0  1  0  0  0  0  0  0  0  0  0
   34.6970   30.4690   39.6790 H   0  0  0  0  0  0  0  0  0  0  0  0
   36.6250   27.9670   39.1070 H   0  0  0  0  0  0  0  0  0  0  0  0
   34.7990   27.8370   39.0470 H   0  0  0  0  0  0  0  0  0  0  0  0
   34.5900   28.6990   41.3690 H   0  0  0  0  0  0  0  0  0  0  0  0
   36.7510   28.6820   41.7690 C   0  0  0  0  0  0  0  0  0  0  0  0
   37.0620   29.8730   42.4020 F   0  0  0  0  0  0  0  0  0  0  0  0
   37.8760   28.2300   41.0790 F   0  0  0  0  0  0  0  0  0  0  0  0
   36.4270   27.7780   42.7430 F   0  0  0  0  0  0  0  0  0  0  0  0
   40.3040   33.0790   39.1710 C   0  0  0  0  0  3  0  0  0  0  0  0
   41.1050   32.8350   37.9200 C   0  0  0  0  0  2  0  0  0  0  0  0
   42.0790   34.0190   37.8510 C   0  0  0  0  0  2  0  0  0  0  0  0
   42.9440   34.0920   39.0750 C   0  0  0  0  0  2  0  0  0  0  0  0
   42.1680   34.0390   40.3610 C   0  0  0  0  0  2  0  0  0  0  0  0
   41.2610   32.8240   40.3190 C   0  0  0  0  0  2  0  0  0  0  0  0
  1  2  1  0  0  0  0
  2  9  1  0  0  0  0
  2  3  2  0  0  0  0
  3  8  1  0  0  0  0
  4  3  1  0  0  0  0
  5  4  2  0  0  0  0
  6  1  2  0  0  0  0
  6  5  1  0  0  0  0
  7  1  1  0  0  0  0
  9 12  1  6  0  0  0
  9 11  1  0  0  0  0
 10  9  1  0  0  0  0
 10 11  1  0  0  0  0
 11 15  1  1  0  0  0
 11 16  1  0  0  0  0
 13 10  1  0  0  0  0
 14 10  1  0  0  0  0
 16 17  1  0  0  0  0
 16 19  1  0  0  0  0
 18 16  1  0  0  0  0
 20  5  1  0  0  0  0
 20 25  1  0  0  0  0
 21 20  1  0  0  0  0
 22 21  1  0  0  0  0
 22 23  1  0  0  0  0
 23 24  1  0  0  0  0
 25 24  1  0  0  0  0
M  END
>  <minimizedAffinity>
-4.8181138

$$$$

 OpenBabel03242520343D

 25 27  0  0  1  0  0  0  0  0999 V2000
   35.5730   29.0090   41.1280 C   0  0  0  0  0  0  0  0  0  0  0  0
   36.4600   27.9480   41.5010 C   0  0  0  0  0  0  0  0  0  0  0  0
   36.8320   27.0440   40.5240 C   0  0  0  0  0  0  0  0  0  0  0  0
   36.3360   27.2140   39.2680 N   0  0  0  0  0  0  0  0  0  0  0  0
   35.5060   28.2160   38.9380 C   0  0  0  0  0  0  0  0  0  0  0  0
   35.1400   29.0970   39.8800 N   0  0  0  0  0  0  0  0  0  0  0  0
   35.3030   29.6990   41.9200 H   0  0  0  0  0  0  0  0  0  0  0  0
   37.4970   26.2140   40.7200 H   0  0  0  0  0  0  0  0  0  0  0  0
   36.9750   27.7940   42.8970 C   0  0  1  0  0  0  0  0  0  0  0  0
   38.2430   27.1360   43.1340 C   0  0  0  0  0  0  0  0  0  0  0  0
   38.1960   28.6090   43.3000 C   0  0  1  0  0  0  0  0  0  0  0  0
   36.1450   27.8630   43.6310 H   0  0  0  0  0  0  0  0  0  0  0  0
   38.8330   26.7630   42.2630 H   0  0  0  0  0  0  0  0  0  0  0  0
   38.4800   26.5540   44.0470 H   0  0  0  0  0  0  0  0  0  0  0  0
   38.1910   29.0040   44.3500 H   0  0  0  0  0  0  0  0  0  0  0  0
   38.8490   29.5220   42.3180 C   0  0  0  0  0  0  0  0  0  0  0  0
   38.0020   30.5410   41.9160 F   0  0  0  0  0  0  0  0  0  0  0  0
   39.2820   28.8230   41.1910 F   0  0  0  0  0  0  0  0  0  0  0  0
   39.9250   30.1050   42.9260 F   0  0  0  0  0  0  0  0  0  0  0  0
   35.0100   28.3290   37.5410 C   0  0  0  0  0  3  0  0  0  0  0  0
   35.8070   29.2740   36.6820 C   0  0  0  0  0  2  0  0  0  0  0  0
   35.3300   28.9870   35.2530 C   0  0  0  0  0  2  0  0  0  0  0  0
   33.8510   29.2000   35.1120 C   0  0  0  0  0  2  0  0  0  0  0  0
   33.0410   28.4890   36.1600 C   0  0  0  0  0  2  0  0  0  0  0  0
   33.5910   28.8640   37.5220 C   0  0  0  0  0  2  0  0  0  0  0  0
  1  2  1  0  0  0  0
  1  7  1  0  0  0  0
  2  9  1  0  0  0  0
  3  8  1  0  0  0  0
  3  2  2  0  0  0  0
  4  3  1  0  0  0  0
  5  4  2  0  0  0  0
  5  6  1  0  0  0  0
  6  1  2  0  0  0  0
  9 10  1  0  0  0  0
  9 11  1  0  0  0  0
  9 12  1  1  0  0  0
 10 11  1  0  0  0  0
 10 14  1  0  0  0  0
 11 15  1  1  0  0  0
 13 10  1  0  0  0  0
 16 19  1  0  0  0  0
 16 11  1  0  0  0  0
 17 16  1  0  0  0  0
 18 16  1  0  0  0  0
 20  5  1  0  0  0  0
 21 20  1  0  0  0  0
 22 21  1  0  0  0  0
 23 22  1  0  0  0  0
 23 24  1  0  0  0  0
 24 25  1  0  0  0  0
 25 20  1  0  0  0  0
M  END
>  <minimizedAffinity>
-4.78512144

$$$$

 OpenBabel03242520343D

 25 27  0  0  1  0  0  0  0  0999 V2000
   38.1860   28.4740   39.9290 C   0  0  0  0  0  0  0  0  0  0  0  0
   37.6050   28.4150   41.2370 C   0  0  0  0  0  0  0  0  0  0  0  0
   36.2410   28.6080   41.3460 C   0  0  0  0  0  0  0  0  0  0  0  0
   35.5310   28.8400   40.2090 N   0  0  0  0  0  0  0  0  0  0  0  0
   36.0940   28.8910   38.9920 C   0  0  0  0  0  0  0  0  0  0  0  0
   37.4170   28.7060   38.8770 N   0  0  0  0  0  0  0  0  0  0  0  0
   39.2580   28.3180   39.8800 H   0  0  0  0  0  0  0  0  0  0  0  0
   35.7230   28.5800   42.2940 H   0  0  0  0  0  0  0  0  0  0  0  0
   38.4260   28.1640   42.4620 C   0  0  1  0  0  0  0  0  0  0  0  0
   37.7900   27.7050   43.6790 C   0  0  0  0  0  0  0  0  0  0  0  0
   38.6010   26.7220   42.9190 C   0  0  1  0  0  0  0  0  0  0  0  0
   39.3830   28.7240   42.4140 H   0  0  0  0  0  0  0  0  0  0  0  0
   36.6880   27.5270   43.6820 H   0  0  0  0  0  0  0  0  0  0  0  0
   38.1530   27.9450   44.6990 H   0  0  0  0  0  0  0  0  0  0  0  0
   39.6100   26.4650   43.3350 H   0  0  0  0  0  0  0  0  0  0  0  0
   37.9620   25.6090   42.1610 C   0  0  0  0  0  0  0  0  0  0  0  0
   38.3110   25.6290   40.8210 F   0  0  0  0  0  0  0  0  0  0  0  0
   36.5710   25.6610   42.2660 F   0  0  0  0  0  0  0  0  0  0  0  0
   38.4080   24.4260   42.6790 F   0  0  0  0  0  0  0  0  0  0  0  0
   35.2450   29.1510   37.8000 C   0  0  0  0  0  3  0  0  0  0  0  0
   33.8760   28.5280   37.8730 C   0  0  0  0  0  2  0  0  0  0  0  0
   33.0950   29.1820   36.7270 C   0  0  0  0  0  2  0  0  0  0  0  0
   33.7580   28.9430   35.4020 C   0  0  0  0  0  2  0  0  0  0  0  0
   35.2200   29.2890   35.3930 C   0  0  0  0  0  2  0  0  0  0  0  0
   35.8850   28.5740   36.5520 C   0  0  0  0  0  2  0  0  0  0  0  0
  1  2  1  0  0  0  0
  2  3  2  0  0  0  0
  2  9  1  0  0  0  0
  3  8  1  0  0  0  0
  4  3  1  0  0  0  0
  5  4  2  0  0  0  0
  6  5  1  0  0  0  0
  6  1  2  0  0  0  0
  7  1  1  0  0  0  0
  9 12  1  1  0  0  0
  9 11  1  0  0  0  0
  9 10  1  0  0  0  0
 10 13  1  0  0  0  0
 10 14  1  0  0  0  0
 11 15  1  1  0  0  0
 11 10  1  0  0  0  0
 16 18  1  0  0  0  0
 16 19  1  0  0  0  0
 16 11  1  0  0  0  0
 17 16  1  0  0  0  0
 20 21  1  0  0  0  0
 20  5  1  0  0  0  0
 22 21  1  0  0  0  0
 23 22  1  0  0  0  0
 24 23  1  0  0  0  0
 24 25  1  0  0  0  0
 25 20  1  0  0  0  0
M  END
>  <minimizedAffinity>
-4.7662344

$$$$
