
 OpenBabel03252505373D

 30 32  0  0  0  0  0  0  0  0999 V2000
   45.0290   34.3270   44.9880 C   0  0  0  0  0  0  0  0  0  0  0  0
   45.9440   34.0490   43.9420 C   0  0  0  0  0  0  0  0  0  0  0  0
   47.0790   33.3290   44.2750 C   0  0  0  0  0  0  0  0  0  0  0  0
   47.2670   32.9310   45.5650 N   0  0  0  0  0  0  0  0  0  0  0  0
   46.3550   33.2310   46.5300 C   0  0  0  0  0  0  0  0  0  0  0  0
   45.2410   33.9250   46.2340 N   0  0  0  0  0  0  0  0  0  0  0  0
   46.5840   32.8470   47.8820 N   0  0  0  0  0  0  0  0  0  0  0  0
   44.1160   34.8760   44.8530 H   0  0  0  0  0  0  0  0  0  0  0  0
   47.3090   33.5440   48.1950 H   0  0  0  0  0  0  0  0  0  0  0  0
   46.1340   32.0690   48.3980 H   0  0  0  0  0  0  0  0  0  0  0  0
   48.0850   32.9630   43.3210 C   0  0  0  0  0  0  0  0  0  0  0  0
   48.9860   33.9520   42.9270 C   0  0  0  0  0  0  0  0  0  0  0  0
   50.0030   33.6790   42.0010 C   0  0  0  0  0  0  0  0  0  0  0  0
   50.1290   32.4260   41.4640 C   0  0  0  0  0  0  0  0  0  0  0  0
   49.2410   31.4670   41.8570 C   0  0  0  0  0  0  0  0  0  0  0  0
   48.2310   31.7140   42.7690 C   0  0  0  0  0  0  0  0  0  0  0  0
   48.9010   34.9500   43.3420 H   0  0  0  0  0  0  0  0  0  0  0  0
   50.6870   34.4710   41.7160 H   0  0  0  0  0  0  0  0  0  0  0  0
   50.8910   32.1540   40.7470 H   0  0  0  0  0  0  0  0  0  0  0  0
   49.2880   30.4550   41.4680 H   0  0  0  0  0  0  0  0  0  0  0  0
   47.2890   30.6520   43.1870 C   0  0  0  0  0  0  0  0  0  0  0  0
   47.6670   30.2130   44.4540 F   0  0  0  0  0  0  0  0  0  0  0  0
   47.3490   29.6110   42.2860 F   0  0  0  0  0  0  0  0  0  0  0  0
   45.9760   31.0460   43.2320 F   0  0  0  0  0  0  0  0  0  0  0  0
   45.6620   34.6060   42.5920 C   0  0  0  0  0  3  0  0  0  0  0  0
   44.7010   35.8100   42.7180 C   0  0  0  0  0  2  0  0  0  0  0  0
   43.3300   35.3640   42.1950 C   0  0  0  0  0  2  0  0  0  0  0  0
   43.4830   35.3150   40.6880 C   0  0  0  0  0  2  0  0  0  0  0  0
   44.6820   34.4290   40.3990 C   0  0  0  0  0  2  0  0  0  0  0  0
   45.0820   33.6310   41.6230 C   0  0  0  0  0  2  0  0  0  0  0  0
  1  6  1  0  0  0  0
  2  3  1  0  0  0  0
  2  1  2  0  0  0  0
  3  4  2  0  0  0  0
  4  5  1  0  0  0  0
  5  7  1  0  0  0  0
  6  5  2  0  0  0  0
  7  9  1  0  0  0  0
  7 10  1  0  0  0  0
  8  1  1  0  0  0  0
 11  3  1  0  0  0  0
 12 11  1  0  0  0  0
 12 17  1  0  0  0  0
 13 12  2  0  0  0  0
 14 15  2  0  0  0  0
 14 13  1  0  0  0  0
 15 16  1  0  0  0  0
 16 21  1  0  0  0  0
 16 11  2  0  0  0  0
 18 13  1  0  0  0  0
 19 14  1  0  0  0  0
 20 15  1  0  0  0  0
 21 24  1  0  0  0  0
 21 22  1  0  0  0  0
 23 21  1  0  0  0  0
 25 26  1  0  0  0  0
 25  2  1  0  0  0  0
 27 26  1  0  0  0  0
 28 27  1  0  0  0  0
 29 28  1  0  0  0  0
 29 30  1  0  0  0  0
 30 25  1  0  0  0  0
M  END
>  <minimizedAffinity>
-5.08124542

>  <minimizedRMSD>
3.69471002

$$$$
