
 OpenBabel03252507083D

 21 22  0  0  0  0  0  0  0  0999 V2000
   44.5440   35.8700   44.5480 C   0  0  0  0  0  0  0  0  0  0  0  0
   45.1660   35.8350   43.2720 C   0  0  0  0  0  0  0  0  0  0  0  0
   46.1180   34.8510   43.0530 C   0  0  0  0  0  0  0  0  0  0  0  0
   46.4090   33.9800   44.0480 N   0  0  0  0  0  0  0  0  0  0  0  0
   45.8110   34.0260   45.2510 C   0  0  0  0  0  0  0  0  0  0  0  0
   44.8810   34.9630   45.5070 N   0  0  0  0  0  0  0  0  0  0  0  0
   43.8060   36.6490   44.6870 H   0  0  0  0  0  0  0  0  0  0  0  0
   44.8930   36.5490   42.5300 H   0  0  0  0  0  0  0  0  0  0  0  0
   46.2150   33.0160   46.2620 C   0  0  0  0  0  0  0  0  0  0  0  0
   46.1510   31.6380   45.6280 C   0  0  0  0  0  0  0  0  0  0  0  0
   46.8980   30.6460   46.4570 C   0  0  0  0  0  0  0  0  0  0  0  0
   46.6130   30.9070   47.9060 C   0  0  0  0  0  0  0  0  0  0  0  0
   45.3050   31.6380   48.1440 C   0  0  0  0  0  0  0  0  0  0  0  0
   45.2580   32.9620   47.4440 C   0  0  0  0  0  0  0  0  0  0  0  0
   46.7280   34.8190   41.7980 O   0  0  0  0  0  0  0  0  0  0  0  0
   48.7300   33.2560   41.0930 O   0  0  0  0  0  0  0  0  0  0  0  0
   48.4280   34.6140   41.6980 P   0  0  0  0  0  0  0  0  0  0  0  0
   49.0810   35.8550   40.7920 O   0  0  0  0  0  0  0  0  0  0  0  0
   49.7060   36.3830   41.3390 H   0  0  0  0  0  0  0  0  0  0  0  0
   49.0380   34.6310   43.2850 O   0  0  0  0  0  0  0  0  0  0  0  0
   49.0400   35.5430   43.6630 H   0  0  0  0  0  0  0  0  0  0  0  0
  1  7  1  0  0  0  0
  1  6  1  0  0  0  0
  2  1  2  0  0  0  0
  3  2  1  0  0  0  0
  3  4  2  0  0  0  0
  4  5  1  0  0  0  0
  5  6  2  0  0  0  0
  5  9  1  0  0  0  0
  8  2  1  0  0  0  0
  9 14  1  0  0  0  0
 10  9  1  0  0  0  0
 10 11  1  0  0  0  0
 11 12  1  0  0  0  0
 12 13  1  0  0  0  0
 14 13  1  0  0  0  0
 15  3  1  0  0  0  0
 16 17  2  0  0  0  0
 17 15  1  0  0  0  0
 17 20  1  0  0  0  0
 18 19  1  0  0  0  0
 18 17  1  0  0  0  0
 20 21  1  0  0  0  0
M  END
>  <minimizedAffinity>
-5.72670221

>  <minimizedRMSD>
0.390707552

$$$$
