
 OpenBabel03252506573D

 35 39  0  0  0  0  0  0  0  0999 V2000
   47.3180   31.4200   45.1780 C   0  0  0  0  0  0  0  0  0  0  0  0
   46.8920   32.7350   45.1400 C   0  0  0  0  0  0  0  0  0  0  0  0
   46.2240   33.3490   46.1850 C   0  0  0  0  0  0  0  0  0  0  0  0
   45.9590   32.6290   47.3450 C   0  0  0  0  0  0  0  0  0  0  0  0
   45.3500   32.8880   48.5360 N   0  0  0  0  0  0  0  0  0  0  0  0
   45.4010   31.7620   49.2870 C   0  0  0  0  0  0  0  0  0  0  0  0
   46.0400   30.8220   48.5560 N   0  0  0  0  0  0  0  0  0  0  0  0
   46.3890   31.3280   47.3690 C   0  0  0  0  0  0  0  0  0  0  0  0
   47.0490   30.6990   46.3480 C   0  0  0  0  0  0  0  0  0  0  0  0
   47.8310   30.9730   44.3520 H   0  0  0  0  0  0  0  0  0  0  0  0
   45.8990   34.3700   46.1430 H   0  0  0  0  0  0  0  0  0  0  0  0
   44.9300   33.8330   48.7650 H   0  0  0  0  0  0  0  0  0  0  0  0
   44.9840   31.6990   50.2840 H   0  0  0  0  0  0  0  0  0  0  0  0
   46.4950   35.1740   42.4050 C   0  0  0  0  0  0  0  0  0  0  0  0
   47.6490   34.9900   41.6620 C   0  0  0  0  0  0  0  0  0  0  0  0
   48.5710   34.0300   42.0930 C   0  0  0  0  0  0  0  0  0  0  0  0
   48.2850   33.3190   43.2280 N   0  0  0  0  0  0  0  0  0  0  0  0
   47.1580   33.5190   43.9280 C   0  0  0  0  0  0  0  0  0  0  0  0
   46.2570   34.4420   43.5270 N   0  0  0  0  0  0  0  0  0  0  0  0
   45.7460   35.9160   42.1050 H   0  0  0  0  0  0  0  0  0  0  0  0
   47.8430   35.5630   40.7790 H   0  0  0  0  0  0  0  0  0  0  0  0
   49.4930   33.8460   41.5460 H   0  0  0  0  0  0  0  0  0  0  0  0
   47.4710   29.2930   46.4680 C   0  0  0  0  0  0  0  0  0  0  0  0
   48.7980   28.8870   46.5630 C   0  0  0  0  0  0  0  0  0  0  0  0
   48.6940   27.4850   46.6560 C   0  0  0  0  0  0  0  0  0  0  0  0
   47.3530   27.1460   46.6120 C   0  0  0  0  0  0  0  0  0  0  0  0
   46.6690   28.2710   46.4980 O   0  0  0  0  0  0  0  0  0  0  0  0
   49.7020   29.4860   46.5680 H   0  0  0  0  0  0  0  0  0  0  0  0
   49.5210   26.7970   46.7470 H   0  0  0  0  0  0  0  0  0  0  0  0
   46.7340   25.7820   46.6760 C   0  0  0  0  0  3  0  0  0  0  0  0
   45.7000   25.5900   45.6040 C   0  0  0  0  0  2  0  0  0  0  0  0
   44.2950   25.8230   46.1030 C   0  0  0  0  0  2  0  0  0  0  0  0
   43.9330   24.8310   47.1810 C   0  0  0  0  0  2  0  0  0  0  0  0
   45.1290   24.4680   48.0090 C   0  0  0  0  0  2  0  0  0  0  0  0
   46.1910   25.5350   48.0530 C   0  0  0  0  0  2  0  0  0  0  0  0
  1  9  1  0  0  0  0
  2  1  2  0  0  0  0
  2  3  1  0  0  0  0
  3  4  2  0  0  0  0
  4  8  1  0  0  0  0
  4  5  1  0  0  0  0
  5 12  1  0  0  0  0
  5  6  1  0  0  0  0
  6 13  1  0  0  0  0
  7  6  2  0  0  0  0
  8  7  1  0  0  0  0
  9 23  1  0  0  0  0
  9  8  2  0  0  0  0
 10  1  1  0  0  0  0
 11  3  1  0  0  0  0
 14 19  1  0  0  0  0
 15 16  1  0  0  0  0
 15 14  2  0  0  0  0
 16 17  2  0  0  0  0
 17 18  1  0  0  0  0
 18  2  1  0  0  0  0
 19 18  2  0  0  0  0
 20 14  1  0  0  0  0
 21 15  1  0  0  0  0
 22 16  1  0  0  0  0
 23 27  1  0  0  0  0
 23 24  2  0  0  0  0
 24 28  1  0  0  0  0
 24 25  1  0  0  0  0
 25 29  1  0  0  0  0
 26 25  2  0  0  0  0
 26 30  1  0  0  0  0
 27 26  1  0  0  0  0
 30 35  1  0  0  0  0
 31 32  1  0  0  0  0
 31 30  1  0  0  0  0
 32 33  1  0  0  0  0
 33 34  1  0  0  0  0
 34 35  1  0  0  0  0
M  END
>  <minimizedAffinity>
-5.68613815

>  <minimizedRMSD>
0.288884223

$$$$
