
 OpenBabel03252503143D

 31 34  0  0  0  0  0  0  0  0999 V2000
   41.4990   33.9480   39.4880 C   0  0  0  0  0  0  0  0  0  0  0  0
   40.4250   33.0470   39.3610 C   0  0  0  0  0  0  0  0  0  0  0  0
   40.3610   32.4000   38.1440 C   0  0  0  0  0  0  0  0  0  0  0  0
   41.2550   32.6110   37.1490 N   0  0  0  0  0  0  0  0  0  0  0  0
   42.2740   33.4940   37.3270 C   0  0  0  0  0  0  0  0  0  0  0  0
   42.3910   34.1600   38.5000 N   0  0  0  0  0  0  0  0  0  0  0  0
   41.6240   34.5010   40.4200 H   0  0  0  0  0  0  0  0  0  0  0  0
   42.9610   33.6260   36.5020 H   0  0  0  0  0  0  0  0  0  0  0  0
   39.3210   31.4840   37.9220 C   0  0  0  0  0  0  0  0  0  0  0  0
   38.0190   31.5800   37.5270 C   0  0  0  0  0  0  0  0  0  0  0  0
   37.2170   30.5300   37.3860 C   0  0  0  0  0  0  0  0  0  0  0  0
   37.7680   29.3150   37.6640 C   0  0  0  0  0  0  0  0  0  0  0  0
   39.5010   29.7230   38.1410 S   0  0  0  0  0  0  0  0  0  0  0  0
   37.6820   32.6190   37.3290 H   0  0  0  0  0  0  0  0  0  0  0  0
   36.1810   30.5500   37.0760 H   0  0  0  0  0  0  0  0  0  0  0  0
   37.3270   28.2990   37.6280 H   0  0  0  0  0  0  0  0  0  0  0  0
   39.5210   32.8620   40.4270 C   0  0  0  0  0  0  0  0  0  0  0  0
   38.6000   33.7360   40.5270 O   0  0  0  0  0  0  0  0  0  0  0  0
   39.6770   31.6940   41.3540 C   0  0  0  0  0  0  0  0  0  0  0  0
   40.8320   31.2730   41.9570 C   0  0  0  0  0  0  0  0  0  0  0  0
   40.5070   30.2000   42.6930 N   0  0  0  0  0  0  0  0  0  0  0  0
   39.1800   29.9700   42.5460 C   0  0  0  0  0  0  0  0  0  0  0  0
   38.6610   30.9000   41.7100 N   0  0  0  0  0  0  0  0  0  0  0  0
   41.8170   31.7270   41.8520 H   0  0  0  0  0  0  0  0  0  0  0  0
   41.2180   29.6960   43.2510 H   0  0  0  0  0  0  0  0  0  0  0  0
   38.4260   28.8610   43.2060 C   0  0  0  0  0  3  0  0  0  0  0  0
   37.0540   28.6660   42.6470 C   0  0  0  0  0  2  0  0  0  0  0  0
   36.5340   27.3360   43.1620 C   0  0  0  0  0  2  0  0  0  0  0  0
   37.2560   26.1580   42.5850 C   0  0  0  0  0  2  0  0  0  0  0  0
   38.5980   26.6660   42.0470 C   0  0  0  0  0  2  0  0  0  0  0  0
   39.1840   27.5590   43.1310 C   0  0  0  0  0  2  0  0  0  0  0  0
  1  7  1  0  0  0  0
  2  1  1  0  0  0  0
  2 17  1  0  0  0  0
  3  2  2  0  0  0  0
  4  5  2  0  0  0  0
  4  3  1  0  0  0  0
  5  6  1  0  0  0  0
  6  1  2  0  0  0  0
  8  5  1  0  0  0  0
  9 13  1  0  0  0  0
  9  3  1  0  0  0  0
 10  9  2  0  0  0  0
 11 10  1  0  0  0  0
 11 12  2  0  0  0  0
 12 13  1  0  0  0  0
 14 10  1  0  0  0  0
 15 11  1  0  0  0  0
 16 12  1  0  0  0  0
 17 18  2  0  0  0  0
 17 19  1  0  0  0  0
 19 23  1  0  0  0  0
 19 20  2  0  0  0  0
 20 21  1  0  0  0  0
 21 25  1  0  0  0  0
 22 21  1  0  0  0  0
 22 26  1  0  0  0  0
 23 22  2  0  0  0  0
 24 20  1  0  0  0  0
 27 28  1  0  0  0  0
 27 26  1  0  0  0  0
 29 28  1  0  0  0  0
 30 29  1  0  0  0  0
 30 31  1  0  0  0  0
 31 26  1  0  0  0  0
M  END
>  <minimizedAffinity>
-5.93948174

$$$$

 OpenBabel03252503143D

 31 34  0  0  0  0  0  0  0  0999 V2000
   41.0310   32.2110   40.9280 C   0  0  0  0  0  0  0  0  0  0  0  0
   39.8910   31.8760   40.1730 C   0  0  0  0  0  0  0  0  0  0  0  0
   40.1610   31.2460   38.9750 C   0  0  0  0  0  0  0  0  0  0  0  0
   41.4200   30.9720   38.5550 N   0  0  0  0  0  0  0  0  0  0  0  0
   42.4840   31.3190   39.3260 C   0  0  0  0  0  0  0  0  0  0  0  0
   42.2830   31.9390   40.5130 N   0  0  0  0  0  0  0  0  0  0  0  0
   40.9050   32.7110   41.8900 H   0  0  0  0  0  0  0  0  0  0  0  0
   43.4670   31.0770   38.9450 H   0  0  0  0  0  0  0  0  0  0  0  0
   39.0870   30.8760   38.1510 C   0  0  0  0  0  0  0  0  0  0  0  0
   38.1950   31.5490   37.3690 C   0  0  0  0  0  0  0  0  0  0  0  0
   37.2430   30.9500   36.6610 C   0  0  0  0  0  0  0  0  0  0  0  0
   37.1940   29.5910   36.7560 C   0  0  0  0  0  0  0  0  0  0  0  0
   38.5760   29.1840   37.9070 S   0  0  0  0  0  0  0  0  0  0  0  0
   38.3330   32.6510   37.3700 H   0  0  0  0  0  0  0  0  0  0  0  0
   36.5130   31.4330   36.0280 H   0  0  0  0  0  0  0  0  0  0  0  0
   36.5110   28.8600   36.2790 H   0  0  0  0  0  0  0  0  0  0  0  0
   38.6010   32.1830   40.6550 C   0  0  0  0  0  0  0  0  0  0  0  0
   38.3150   33.4230   40.7140 O   0  0  0  0  0  0  0  0  0  0  0  0
   37.6650   31.0830   41.0580 C   0  0  0  0  0  0  0  0  0  0  0  0
   36.3000   31.0840   40.9470 C   0  0  0  0  0  0  0  0  0  0  0  0
   35.8800   29.9040   41.4280 N   0  0  0  0  0  0  0  0  0  0  0  0
   36.9640   29.1960   41.8240 C   0  0  0  0  0  0  0  0  0  0  0  0
   38.0780   29.9290   41.5950 N   0  0  0  0  0  0  0  0  0  0  0  0
   35.6870   31.8900   40.5470 H   0  0  0  0  0  0  0  0  0  0  0  0
   34.8740   29.6630   41.4520 H   0  0  0  0  0  0  0  0  0  0  0  0
   36.9190   27.8250   42.4170 C   0  0  0  0  0  3  0  0  0  0  0  0
   37.0300   26.7370   41.3990 C   0  0  0  0  0  2  0  0  0  0  0  0
   37.2960   25.4400   42.1400 C   0  0  0  0  0  2  0  0  0  0  0  0
   38.6530   25.3900   42.7720 C   0  0  0  0  0  2  0  0  0  0  0  0
   39.1510   26.8340   42.8930 C   0  0  0  0  0  2  0  0  0  0  0  0
   37.9910   27.6410   43.4610 C   0  0  0  0  0  2  0  0  0  0  0  0
  1  7  1  0  0  0  0
  2 17  1  0  0  0  0
  2  1  2  0  0  0  0
  3  2  1  0  0  0  0
  4  3  2  0  0  0  0
  4  5  1  0  0  0  0
  5  6  2  0  0  0  0
  6  1  1  0  0  0  0
  8  5  1  0  0  0  0
  9  3  1  0  0  0  0
 10 14  1  0  0  0  0
 10  9  2  0  0  0  0
 11 12  2  0  0  0  0
 11 10  1  0  0  0  0
 12 13  1  0  0  0  0
 13  9  1  0  0  0  0
 15 11  1  0  0  0  0
 16 12  1  0  0  0  0
 17 18  2  0  0  0  0
 17 19  1  0  0  0  0
 19 23  1  0  0  0  0
 20 19  2  0  0  0  0
 20 21  1  0  0  0  0
 21 25  1  0  0  0  0
 21 22  1  0  0  0  0
 22 26  1  0  0  0  0
 23 22  2  0  0  0  0
 24 20  1  0  0  0  0
 26 31  1  0  0  0  0
 27 28  1  0  0  0  0
 27 26  1  0  0  0  0
 28 29  1  0  0  0  0
 29 30  1  0  0  0  0
 30 31  1  0  0  0  0
M  END
>  <minimizedAffinity>
-5.78402853

$$$$

 OpenBabel03252503143D

 31 34  0  0  0  0  0  0  0  0999 V2000
   39.9020   32.6550   40.3330 C   0  0  0  0  0  0  0  0  0  0  0  0
   39.0670   31.5380   40.1410 C   0  0  0  0  0  0  0  0  0  0  0  0
   37.7460   31.8460   39.8910 C   0  0  0  0  0  0  0  0  0  0  0  0
   37.2840   33.1180   39.8350 N   0  0  0  0  0  0  0  0  0  0  0  0
   38.1360   34.1590   40.0280 C   0  0  0  0  0  0  0  0  0  0  0  0
   39.4450   33.9220   40.2770 N   0  0  0  0  0  0  0  0  0  0  0  0
   40.9630   32.5000   40.5350 H   0  0  0  0  0  0  0  0  0  0  0  0
   37.7170   35.1550   39.9730 H   0  0  0  0  0  0  0  0  0  0  0  0
   36.8360   30.7970   39.6900 C   0  0  0  0  0  0  0  0  0  0  0  0
   35.8790   30.1900   40.4500 C   0  0  0  0  0  0  0  0  0  0  0  0
   35.1250   29.1870   40.0150 C   0  0  0  0  0  0  0  0  0  0  0  0
   35.3560   28.7750   38.7370 C   0  0  0  0  0  0  0  0  0  0  0  0
   36.7100   29.8870   38.1600 S   0  0  0  0  0  0  0  0  0  0  0  0
   35.7810   30.6110   41.4730 H   0  0  0  0  0  0  0  0  0  0  0  0
   34.3550   28.6730   40.5740 H   0  0  0  0  0  0  0  0  0  0  0  0
   34.8770   27.9740   38.1400 H   0  0  0  0  0  0  0  0  0  0  0  0
   39.5970   30.2330   40.2090 C   0  0  0  0  0  0  0  0  0  0  0  0
   40.4760   29.9480   39.3330 O   0  0  0  0  0  0  0  0  0  0  0  0
   39.1220   29.2810   41.2660 C   0  0  0  0  0  0  0  0  0  0  0  0
   39.0100   29.5310   42.6070 C   0  0  0  0  0  0  0  0  0  0  0  0
   38.5500   28.4020   43.1670 N   0  0  0  0  0  0  0  0  0  0  0  0
   38.3820   27.4810   42.1890 C   0  0  0  0  0  0  0  0  0  0  0  0
   38.7390   28.0250   41.0030 N   0  0  0  0  0  0  0  0  0  0  0  0
   39.2520   30.4660   43.1100 H   0  0  0  0  0  0  0  0  0  0  0  0
   38.3800   28.3400   44.1860 H   0  0  0  0  0  0  0  0  0  0  0  0
   37.8820   26.0880   42.4040 C   0  0  0  0  0  3  0  0  0  0  0  0
   36.9130   25.6420   41.3580 C   0  0  0  0  0  2  0  0  0  0  0  0
   36.7420   24.1410   41.5020 C   0  0  0  0  0  2  0  0  0  0  0  0
   37.9660   23.3680   41.1180 C   0  0  0  0  0  2  0  0  0  0  0  0
   39.1510   24.3370   41.1730 C   0  0  0  0  0  2  0  0  0  0  0  0
   39.0200   25.1010   42.4840 C   0  0  0  0  0  2  0  0  0  0  0  0
  1  7  1  0  0  0  0
  2 17  1  0  0  0  0
  2  1  2  0  0  0  0
  3  2  1  0  0  0  0
  4  3  2  0  0  0  0
  4  5  1  0  0  0  0
  5  6  2  0  0  0  0
  6  1  1  0  0  0  0
  8  5  1  0  0  0  0
  9  3  1  0  0  0  0
  9 10  2  0  0  0  0
 10 14  1  0  0  0  0
 11 10  1  0  0  0  0
 11 15  1  0  0  0  0
 12 11  2  0  0  0  0
 13 12  1  0  0  0  0
 13  9  1  0  0  0  0
 16 12  1  0  0  0  0
 17 19  1  0  0  0  0
 18 17  2  0  0  0  0
 19 20  2  0  0  0  0
 20 24  1  0  0  0  0
 20 21  1  0  0  0  0
 21 25  1  0  0  0  0
 22 26  1  0  0  0  0
 22 21  1  0  0  0  0
 23 19  1  0  0  0  0
 23 22  2  0  0  0  0
 26 31  1  0  0  0  0
 27 28  1  0  0  0  0
 27 26  1  0  0  0  0
 29 30  1  0  0  0  0
 29 28  1  0  0  0  0
 30 31  1  0  0  0  0
M  END
>  <minimizedAffinity>
-5.72624159

$$$$

 OpenBabel03252503143D

 31 34  0  0  0  0  0  0  0  0999 V2000
   39.3010   27.6220   43.5160 C   0  0  0  0  0  0  0  0  0  0  0  0
   38.2790   27.0690   42.7220 C   0  0  0  0  0  0  0  0  0  0  0  0
   38.6490   25.9450   42.0110 C   0  0  0  0  0  0  0  0  0  0  0  0
   39.8950   25.4150   42.0690 N   0  0  0  0  0  0  0  0  0  0  0  0
   40.8430   25.9920   42.8540 C   0  0  0  0  0  0  0  0  0  0  0  0
   40.5400   27.0970   43.5760 N   0  0  0  0  0  0  0  0  0  0  0  0
   39.0910   28.5130   44.1110 H   0  0  0  0  0  0  0  0  0  0  0  0
   41.8210   25.5300   42.8640 H   0  0  0  0  0  0  0  0  0  0  0  0
   37.6980   25.3240   41.1880 C   0  0  0  0  0  0  0  0  0  0  0  0
   36.8000   24.3100   41.3460 C   0  0  0  0  0  0  0  0  0  0  0  0
   35.9830   23.8970   40.3830 C   0  0  0  0  0  0  0  0  0  0  0  0
   36.0860   24.5510   39.1910 C   0  0  0  0  0  0  0  0  0  0  0  0
   37.4090   25.8000   39.4930 S   0  0  0  0  0  0  0  0  0  0  0  0
   36.8080   23.8530   42.3580 H   0  0  0  0  0  0  0  0  0  0  0  0
   35.2560   23.1010   40.4550 H   0  0  0  0  0  0  0  0  0  0  0  0
   35.5330   24.4090   38.2410 H   0  0  0  0  0  0  0  0  0  0  0  0
   36.9980   27.6580   42.6960 C   0  0  0  0  0  0  0  0  0  0  0  0
   36.1510   27.1730   43.5140 O   0  0  0  0  0  0  0  0  0  0  0  0
   36.7040   28.7830   41.7490 C   0  0  0  0  0  0  0  0  0  0  0  0
   35.6310   28.8870   40.9040 C   0  0  0  0  0  0  0  0  0  0  0  0
   35.7760   30.0470   40.2480 N   0  0  0  0  0  0  0  0  0  0  0  0
   36.9120   30.6430   40.6820 C   0  0  0  0  0  0  0  0  0  0  0  0
   37.4930   29.8560   41.6170 N   0  0  0  0  0  0  0  0  0  0  0  0
   34.8260   28.1620   40.7940 H   0  0  0  0  0  0  0  0  0  0  0  0
   35.0820   30.3560   39.5450 H   0  0  0  0  0  0  0  0  0  0  0  0
   37.4270   31.9580   40.1950 C   0  0  0  0  0  3  0  0  0  0  0  0
   38.5320   32.5080   41.0380 C   0  0  0  0  0  2  0  0  0  0  0  0
   39.1710   33.6510   40.2700 C   0  0  0  0  0  2  0  0  0  0  0  0
   39.9240   33.1960   39.0580 C   0  0  0  0  0  2  0  0  0  0  0  0
   39.4090   31.7990   38.7000 C   0  0  0  0  0  2  0  0  0  0  0  0
   37.8900   31.8720   38.7620 C   0  0  0  0  0  2  0  0  0  0  0  0
  1  6  1  0  0  0  0
  1  7  1  0  0  0  0
  2  1  2  0  0  0  0
  3  4  2  0  0  0  0
  3  2  1  0  0  0  0
  4  5  1  0  0  0  0
  5  8  1  0  0  0  0
  5  6  2  0  0  0  0
  9 10  2  0  0  0  0
  9  3  1  0  0  0  0
 10 14  1  0  0  0  0
 11 15  1  0  0  0  0
 11 10  1  0  0  0  0
 12 13  1  0  0  0  0
 12 11  2  0  0  0  0
 13  9  1  0  0  0  0
 16 12  1  0  0  0  0
 17  2  1  0  0  0  0
 17 18  2  0  0  0  0
 19 17  1  0  0  0  0
 20 19  2  0  0  0  0
 21 22  1  0  0  0  0
 21 20  1  0  0  0  0
 22 23  2  0  0  0  0
 23 19  1  0  0  0  0
 24 20  1  0  0  0  0
 25 21  1  0  0  0  0
 26 22  1  0  0  0  0
 26 27  1  0  0  0  0
 28 27  1  0  0  0  0
 29 28  1  0  0  0  0
 30 31  1  0  0  0  0
 30 29  1  0  0  0  0
 31 26  1  0  0  0  0
M  END
>  <minimizedAffinity>
-5.68329763

$$$$

 OpenBabel03252503143D

 31 34  0  0  0  0  0  0  0  0999 V2000
   39.0730   32.6430   41.0580 C   0  0  0  0  0  0  0  0  0  0  0  0
   38.3760   31.6230   40.3820 C   0  0  0  0  0  0  0  0  0  0  0  0
   38.7390   31.4600   39.0610 C   0  0  0  0  0  0  0  0  0  0  0  0
   39.6870   32.2170   38.4580 N   0  0  0  0  0  0  0  0  0  0  0  0
   40.3280   33.1880   39.1610 C   0  0  0  0  0  0  0  0  0  0  0  0
   40.0170   33.3970   40.4620 N   0  0  0  0  0  0  0  0  0  0  0  0
   38.8470   32.8380   42.1080 H   0  0  0  0  0  0  0  0  0  0  0  0
   41.0770   33.7640   38.6330 H   0  0  0  0  0  0  0  0  0  0  0  0
   38.0950   30.4690   38.3030 C   0  0  0  0  0  0  0  0  0  0  0  0
   36.9490   30.4100   37.5670 C   0  0  0  0  0  0  0  0  0  0  0  0
   36.5480   29.3200   36.9210 C   0  0  0  0  0  0  0  0  0  0  0  0
   37.3560   28.2290   37.0320 C   0  0  0  0  0  0  0  0  0  0  0  0
   38.7360   28.8160   38.1050 S   0  0  0  0  0  0  0  0  0  0  0  0
   36.3730   31.3590   37.5500 H   0  0  0  0  0  0  0  0  0  0  0  0
   35.6510   29.2200   36.3260 H   0  0  0  0  0  0  0  0  0  0  0  0
   37.2570   27.2130   36.6020 H   0  0  0  0  0  0  0  0  0  0  0  0
   37.3970   30.8630   41.0550 C   0  0  0  0  0  0  0  0  0  0  0  0
   36.1990   31.2810   40.9410 O   0  0  0  0  0  0  0  0  0  0  0  0
   37.7940   29.6480   41.8380 C   0  0  0  0  0  0  0  0  0  0  0  0
   38.6220   29.6070   42.9290 C   0  0  0  0  0  0  0  0  0  0  0  0
   38.6940   28.3210   43.3030 N   0  0  0  0  0  0  0  0  0  0  0  0
   37.9260   27.5890   42.4600 C   0  0  0  0  0  0  0  0  0  0  0  0
   37.3650   28.4140   41.5460 N   0  0  0  0  0  0  0  0  0  0  0  0
   39.1190   30.4580   43.3920 H   0  0  0  0  0  0  0  0  0  0  0  0
   39.2660   28.0300   44.1140 H   0  0  0  0  0  0  0  0  0  0  0  0
   37.7410   26.1080   42.5410 C   0  0  0  0  0  3  0  0  0  0  0  0
   36.9490   25.5500   41.4040 C   0  0  0  0  0  2  0  0  0  0  0  0
   37.1110   24.0410   41.4290 C   0  0  0  0  0  2  0  0  0  0  0  0
   38.4940   23.5910   41.0740 C   0  0  0  0  0  2  0  0  0  0  0  0
   39.4290   24.7880   41.2770 C   0  0  0  0  0  2  0  0  0  0  0  0
   39.0650   25.3910   42.6270 C   0  0  0  0  0  2  0  0  0  0  0  0
  1  7  1  0  0  0  0
  2 17  1  0  0  0  0
  2  1  2  0  0  0  0
  3  2  1  0  0  0  0
  4  3  2  0  0  0  0
  4  5  1  0  0  0  0
  5  6  2  0  0  0  0
  6  1  1  0  0  0  0
  8  5  1  0  0  0  0
  9  3  1  0  0  0  0
 10  9  2  0  0  0  0
 11 12  2  0  0  0  0
 11 10  1  0  0  0  0
 12 13  1  0  0  0  0
 13  9  1  0  0  0  0
 14 10  1  0  0  0  0
 15 11  1  0  0  0  0
 16 12  1  0  0  0  0
 17 19  1  0  0  0  0
 18 17  2  0  0  0  0
 19 20  2  0  0  0  0
 20 21  1  0  0  0  0
 20 24  1  0  0  0  0
 21 25  1  0  0  0  0
 22 26  1  0  0  0  0
 22 21  1  0  0  0  0
 23 19  1  0  0  0  0
 23 22  2  0  0  0  0
 26 31  1  0  0  0  0
 27 28  1  0  0  0  0
 27 26  1  0  0  0  0
 29 30  1  0  0  0  0
 29 28  1  0  0  0  0
 30 31  1  0  0  0  0
M  END
>  <minimizedAffinity>
-5.66885614

$$$$

 OpenBabel03252503143D

 31 34  0  0  0  0  0  0  0  0999 V2000
   39.2210   32.0940   38.2420 C   0  0  0  0  0  0  0  0  0  0  0  0
   39.6420   31.8340   39.5590 C   0  0  0  0  0  0  0  0  0  0  0  0
   40.9410   31.3790   39.6660 C   0  0  0  0  0  0  0  0  0  0  0  0
   41.7480   31.1960   38.5930 N   0  0  0  0  0  0  0  0  0  0  0  0
   41.2870   31.4640   37.3430 C   0  0  0  0  0  0  0  0  0  0  0  0
   40.0210   31.9140   37.1730 N   0  0  0  0  0  0  0  0  0  0  0  0
   38.2070   32.4580   38.0680 H   0  0  0  0  0  0  0  0  0  0  0  0
   41.9710   31.3020   36.5200 H   0  0  0  0  0  0  0  0  0  0  0  0
   41.4500   31.0880   40.9410 C   0  0  0  0  0  0  0  0  0  0  0  0
   41.4220   30.0030   41.7660 C   0  0  0  0  0  0  0  0  0  0  0  0
   42.0010   29.9760   42.9620 C   0  0  0  0  0  0  0  0  0  0  0  0
   42.6430   31.1170   43.3400 C   0  0  0  0  0  0  0  0  0  0  0  0
   42.3930   32.2530   41.9090 S   0  0  0  0  0  0  0  0  0  0  0  0
   40.8700   29.1330   41.3510 H   0  0  0  0  0  0  0  0  0  0  0  0
   42.0090   29.1450   43.6530 H   0  0  0  0  0  0  0  0  0  0  0  0
   43.1970   31.3580   44.2690 H   0  0  0  0  0  0  0  0  0  0  0  0
   38.7640   32.0410   40.6420 C   0  0  0  0  0  0  0  0  0  0  0  0
   38.9140   33.1370   41.2730 O   0  0  0  0  0  0  0  0  0  0  0  0
   37.7360   31.0050   40.9880 C   0  0  0  0  0  0  0  0  0  0  0  0
   36.3750   31.1450   40.9280 C   0  0  0  0  0  0  0  0  0  0  0  0
   35.8550   29.9750   41.3260 N   0  0  0  0  0  0  0  0  0  0  0  0
   36.8750   29.1350   41.6220 C   0  0  0  0  0  0  0  0  0  0  0  0
   38.0490   29.7750   41.4140 N   0  0  0  0  0  0  0  0  0  0  0  0
   35.8330   32.0370   40.6170 H   0  0  0  0  0  0  0  0  0  0  0  0
   34.8310   29.8290   41.3660 H   0  0  0  0  0  0  0  0  0  0  0  0
   36.7120   27.7290   42.1030 C   0  0  0  0  0  3  0  0  0  0  0  0
   36.9980   26.7080   41.0500 C   0  0  0  0  0  2  0  0  0  0  0  0
   37.1150   25.3600   41.7370 C   0  0  0  0  0  2  0  0  0  0  0  0
   38.3350   25.2430   42.5980 C   0  0  0  0  0  2  0  0  0  0  0  0
   38.8130   26.6650   42.9060 C   0  0  0  0  0  2  0  0  0  0  0  0
   37.5760   27.4560   43.3090 C   0  0  0  0  0  2  0  0  0  0  0  0
  1  2  1  0  0  0  0
  2  3  2  0  0  0  0
  2 17  1  0  0  0  0
  3  9  1  0  0  0  0
  4  3  1  0  0  0  0
  5  4  2  0  0  0  0
  6  5  1  0  0  0  0
  6  1  2  0  0  0  0
  7  1  1  0  0  0  0
  8  5  1  0  0  0  0
  9 10  2  0  0  0  0
  9 13  1  0  0  0  0
 10 11  1  0  0  0  0
 11 12  2  0  0  0  0
 11 15  1  0  0  0  0
 12 16  1  0  0  0  0
 13 12  1  0  0  0  0
 14 10  1  0  0  0  0
 17 19  1  0  0  0  0
 17 18  2  0  0  0  0
 19 23  1  0  0  0  0
 20 19  2  0  0  0  0
 20 21  1  0  0  0  0
 21 25  1  0  0  0  0
 21 22  1  0  0  0  0
 22 26  1  0  0  0  0
 23 22  2  0  0  0  0
 24 20  1  0  0  0  0
 26 31  1  0  0  0  0
 27 28  1  0  0  0  0
 27 26  1  0  0  0  0
 28 29  1  0  0  0  0
 29 30  1  0  0  0  0
 30 31  1  0  0  0  0
M  END
>  <minimizedAffinity>
-5.6383009

$$$$

 OpenBabel03252503143D

 31 34  0  0  0  0  0  0  0  0999 V2000
   36.0460   29.5190   38.4450 C   0  0  0  0  0  0  0  0  0  0  0  0
   36.7800   30.4140   39.2470 C   0  0  0  0  0  0  0  0  0  0  0  0
   37.5730   31.2950   38.5420 C   0  0  0  0  0  0  0  0  0  0  0  0
   37.6450   31.3020   37.1880 N   0  0  0  0  0  0  0  0  0  0  0  0
   36.9130   30.4140   36.4650 C   0  0  0  0  0  0  0  0  0  0  0  0
   36.1140   29.5230   37.1000 N   0  0  0  0  0  0  0  0  0  0  0  0
   35.3920   28.7880   38.9240 H   0  0  0  0  0  0  0  0  0  0  0  0
   37.0060   30.4610   35.3890 H   0  0  0  0  0  0  0  0  0  0  0  0
   38.3460   32.2250   39.2550 C   0  0  0  0  0  0  0  0  0  0  0  0
   38.1240   33.4640   39.7780 C   0  0  0  0  0  0  0  0  0  0  0  0
   39.0480   34.1600   40.4330 C   0  0  0  0  0  0  0  0  0  0  0  0
   40.2670   33.5630   40.5600 C   0  0  0  0  0  0  0  0  0  0  0  0
   40.0500   31.9450   39.7030 S   0  0  0  0  0  0  0  0  0  0  0  0
   37.0960   33.8480   39.6120 H   0  0  0  0  0  0  0  0  0  0  0  0
   38.9250   35.1420   40.8660 H   0  0  0  0  0  0  0  0  0  0  0  0
   41.1950   33.9170   41.0500 H   0  0  0  0  0  0  0  0  0  0  0  0
   36.6710   30.3660   40.6520 C   0  0  0  0  0  0  0  0  0  0  0  0
   35.8890   31.2250   41.1740 O   0  0  0  0  0  0  0  0  0  0  0  0
   37.4460   29.3490   41.4340 C   0  0  0  0  0  0  0  0  0  0  0  0
   38.3570   29.5960   42.4270 C   0  0  0  0  0  0  0  0  0  0  0  0
   38.8010   28.4000   42.8410 N   0  0  0  0  0  0  0  0  0  0  0  0
   38.1750   27.4410   42.1190 C   0  0  0  0  0  0  0  0  0  0  0  0
   37.3310   28.0300   41.2400 N   0  0  0  0  0  0  0  0  0  0  0  0
   38.6550   30.5760   42.7980 H   0  0  0  0  0  0  0  0  0  0  0  0
   39.5050   28.3210   43.5950 H   0  0  0  0  0  0  0  0  0  0  0  0
   38.3940   25.9710   42.2780 C   0  0  0  0  0  3  0  0  0  0  0  0
   37.2300   25.1490   41.8270 C   0  0  0  0  0  2  0  0  0  0  0  0
   37.6950   23.7070   41.7360 C   0  0  0  0  0  2  0  0  0  0  0  0
   38.6700   23.4720   40.6240 C   0  0  0  0  0  2  0  0  0  0  0  0
   39.2650   24.8320   40.2450 C   0  0  0  0  0  2  0  0  0  0  0  0
   39.6360   25.5170   41.5540 C   0  0  0  0  0  2  0  0  0  0  0  0
  1  7  1  0  0  0  0
  1  2  1  0  0  0  0
  2 17  1  0  0  0  0
  3  2  2  0  0  0  0
  3  9  1  0  0  0  0
  4  3  1  0  0  0  0
  5  6  1  0  0  0  0
  5  4  2  0  0  0  0
  6  1  2  0  0  0  0
  8  5  1  0  0  0  0
  9 13  1  0  0  0  0
  9 10  2  0  0  0  0
 10 11  1  0  0  0  0
 11 12  2  0  0  0  0
 11 15  1  0  0  0  0
 12 16  1  0  0  0  0
 13 12  1  0  0  0  0
 14 10  1  0  0  0  0
 17 18  2  0  0  0  0
 17 19  1  0  0  0  0
 19 20  2  0  0  0  0
 20 24  1  0  0  0  0
 20 21  1  0  0  0  0
 21 25  1  0  0  0  0
 22 26  1  0  0  0  0
 22 21  1  0  0  0  0
 23 19  1  0  0  0  0
 23 22  2  0  0  0  0
 27 26  1  0  0  0  0
 28 27  1  0  0  0  0
 29 28  1  0  0  0  0
 30 29  1  0  0  0  0
 30 31  1  0  0  0  0
 31 26  1  0  0  0  0
M  END
>  <minimizedAffinity>
-5.54900265

$$$$

 OpenBabel03252503143D

 31 34  0  0  0  0  0  0  0  0999 V2000
   37.2160   24.4080   39.5850 C   0  0  0  0  0  0  0  0  0  0  0  0
   37.8800   25.0120   40.6700 C   0  0  0  0  0  0  0  0  0  0  0  0
   39.2570   24.9870   40.5840 C   0  0  0  0  0  0  0  0  0  0  0  0
   39.9210   24.4270   39.5440 N   0  0  0  0  0  0  0  0  0  0  0  0
   39.2270   23.8580   38.5230 C   0  0  0  0  0  0  0  0  0  0  0  0
   37.8730   23.8510   38.5490 N   0  0  0  0  0  0  0  0  0  0  0  0
   36.1250   24.3850   39.5740 H   0  0  0  0  0  0  0  0  0  0  0  0
   39.8040   23.4250   37.7170 H   0  0  0  0  0  0  0  0  0  0  0  0
   40.0070   25.5630   41.6210 C   0  0  0  0  0  0  0  0  0  0  0  0
   40.4000   25.1630   42.8650 C   0  0  0  0  0  0  0  0  0  0  0  0
   41.1310   25.9150   43.6800 C   0  0  0  0  0  0  0  0  0  0  0  0
   41.4810   27.1440   43.2050 C   0  0  0  0  0  0  0  0  0  0  0  0
   40.7220   27.1950   41.5260 S   0  0  0  0  0  0  0  0  0  0  0  0
   40.0550   24.1440   43.1420 H   0  0  0  0  0  0  0  0  0  0  0  0
   41.4690   25.6480   44.6710 H   0  0  0  0  0  0  0  0  0  0  0  0
   42.0770   27.9540   43.6720 H   0  0  0  0  0  0  0  0  0  0  0  0
   37.1430   25.5810   41.7280 C   0  0  0  0  0  0  0  0  0  0  0  0
   36.6380   24.7550   42.5560 O   0  0  0  0  0  0  0  0  0  0  0  0
   36.9950   27.0700   41.8290 C   0  0  0  0  0  0  0  0  0  0  0  0
   37.1610   27.8390   42.9500 C   0  0  0  0  0  0  0  0  0  0  0  0
   36.9300   29.1070   42.5790 N   0  0  0  0  0  0  0  0  0  0  0  0
   36.6310   29.1150   41.2580 C   0  0  0  0  0  0  0  0  0  0  0  0
   36.6690   27.8460   40.7890 N   0  0  0  0  0  0  0  0  0  0  0  0
   37.4270   27.4800   43.9430 H   0  0  0  0  0  0  0  0  0  0  0  0
   36.9950   29.8850   43.2580 H   0  0  0  0  0  0  0  0  0  0  0  0
   36.3100   30.3390   40.4620 C   0  0  0  0  0  3  0  0  0  0  0  0
   37.2860   31.4510   40.6700 C   0  0  0  0  0  2  0  0  0  0  0  0
   37.0410   32.4850   39.5870 C   0  0  0  0  0  2  0  0  0  0  0  0
   37.4250   32.0090   38.2200 C   0  0  0  0  0  2  0  0  0  0  0  0
   37.4780   30.4780   38.2700 C   0  0  0  0  0  2  0  0  0  0  0  0
   36.2140   30.0290   38.9900 C   0  0  0  0  0  2  0  0  0  0  0  0
  1  2  1  0  0  0  0
  2 17  1  0  0  0  0
  3  2  2  0  0  0  0
  3  9  1  0  0  0  0
  4  3  1  0  0  0  0
  5  6  1  0  0  0  0
  5  4  2  0  0  0  0
  6  1  2  0  0  0  0
  7  1  1  0  0  0  0
  8  5  1  0  0  0  0
  9 10  2  0  0  0  0
 10 14  1  0  0  0  0
 10 11  1  0  0  0  0
 11 15  1  0  0  0  0
 12 16  1  0  0  0  0
 12 11  2  0  0  0  0
 13  9  1  0  0  0  0
 13 12  1  0  0  0  0
 17 19  1  0  0  0  0
 17 18  2  0  0  0  0
 19 20  2  0  0  0  0
 20 24  1  0  0  0  0
 21 20  1  0  0  0  0
 21 25  1  0  0  0  0
 22 21  1  0  0  0  0
 23 22  2  0  0  0  0
 23 19  1  0  0  0  0
 26 27  1  0  0  0  0
 26 22  1  0  0  0  0
 28 27  1  0  0  0  0
 29 30  1  0  0  0  0
 29 28  1  0  0  0  0
 30 31  1  0  0  0  0
 31 26  1  0  0  0  0
M  END
>  <minimizedAffinity>
-5.44380999

$$$$

 OpenBabel03252503143D

 31 34  0  0  0  0  0  0  0  0999 V2000
   41.8800   27.6650   41.2410 C   0  0  0  0  0  0  0  0  0  0  0  0
   40.6690   26.9870   41.4740 C   0  0  0  0  0  0  0  0  0  0  0  0
   40.3380   26.0570   40.5100 C   0  0  0  0  0  0  0  0  0  0  0  0
   41.1120   25.8130   39.4250 N   0  0  0  0  0  0  0  0  0  0  0  0
   42.2730   26.4990   39.2510 C   0  0  0  0  0  0  0  0  0  0  0  0
   42.6530   27.4240   40.1640 N   0  0  0  0  0  0  0  0  0  0  0  0
   42.2170   28.4170   41.9570 H   0  0  0  0  0  0  0  0  0  0  0  0
   42.8540   26.2660   38.3690 H   0  0  0  0  0  0  0  0  0  0  0  0
   39.1440   25.3330   40.6540 C   0  0  0  0  0  0  0  0  0  0  0  0
   38.7780   24.1990   41.3170 C   0  0  0  0  0  0  0  0  0  0  0  0
   37.5450   23.7040   41.2970 C   0  0  0  0  0  0  0  0  0  0  0  0
   36.6340   24.4000   40.5610 C   0  0  0  0  0  0  0  0  0  0  0  0
   37.6070   25.8120   39.8850 S   0  0  0  0  0  0  0  0  0  0  0  0
   39.6040   23.7180   41.8820 H   0  0  0  0  0  0  0  0  0  0  0  0
   37.2020   22.8120   41.8020 H   0  0  0  0  0  0  0  0  0  0  0  0
   35.5570   24.2090   40.3790 H   0  0  0  0  0  0  0  0  0  0  0  0
   39.8990   27.2770   42.6200 C   0  0  0  0  0  0  0  0  0  0  0  0
   40.2290   26.6520   43.6790 O   0  0  0  0  0  0  0  0  0  0  0  0
   38.7750   28.2670   42.5420 C   0  0  0  0  0  0  0  0  0  0  0  0
   37.7410   28.4070   43.4290 C   0  0  0  0  0  0  0  0  0  0  0  0
   36.9770   29.4080   42.9660 N   0  0  0  0  0  0  0  0  0  0  0  0
   37.5320   29.8710   41.8210 C   0  0  0  0  0  0  0  0  0  0  0  0
   38.6520   29.1600   41.5540 N   0  0  0  0  0  0  0  0  0  0  0  0
   37.5810   27.8160   44.3290 H   0  0  0  0  0  0  0  0  0  0  0  0
   36.1240   29.7080   43.4690 H   0  0  0  0  0  0  0  0  0  0  0  0
   36.9800   30.9880   40.9950 C   0  0  0  0  0  3  0  0  0  0  0  0
   37.9930   32.0380   40.6710 C   0  0  0  0  0  2  0  0  0  0  0  0
   37.4080   32.9210   39.5850 C   0  0  0  0  0  2  0  0  0  0  0  0
   37.2750   32.2230   38.2660 C   0  0  0  0  0  2  0  0  0  0  0  0
   37.3070   30.7170   38.5440 C   0  0  0  0  0  2  0  0  0  0  0  0
   36.3660   30.4770   39.7170 C   0  0  0  0  0  2  0  0  0  0  0  0
  1  2  1  0  0  0  0
  1  7  1  0  0  0  0
  2 17  1  0  0  0  0
  3  9  1  0  0  0  0
  3  2  2  0  0  0  0
  4  3  1  0  0  0  0
  5  4  2  0  0  0  0
  5  6  1  0  0  0  0
  6  1  2  0  0  0  0
  8  5  1  0  0  0  0
  9 10  2  0  0  0  0
 10 14  1  0  0  0  0
 11 10  1  0  0  0  0
 11 15  1  0  0  0  0
 12 11  2  0  0  0  0
 13 12  1  0  0  0  0
 13  9  1  0  0  0  0
 16 12  1  0  0  0  0
 17 18  2  0  0  0  0
 19 17  1  0  0  0  0
 19 20  2  0  0  0  0
 20 24  1  0  0  0  0
 21 20  1  0  0  0  0
 21 25  1  0  0  0  0
 22 21  1  0  0  0  0
 23 22  2  0  0  0  0
 23 19  1  0  0  0  0
 26 22  1  0  0  0  0
 27 26  1  0  0  0  0
 28 27  1  0  0  0  0
 29 30  1  0  0  0  0
 29 28  1  0  0  0  0
 30 31  1  0  0  0  0
 31 26  1  0  0  0  0
M  END
>  <minimizedAffinity>
-5.40067434

$$$$
