
 OpenBabel03252506593D

 21 22  0  0  0  0  0  0  0  0999 V2000
   47.0670   34.4530   42.3340 C   0  0  0  0  0  0  0  0  0  0  0  0
   46.8830   35.2020   41.5090 H   0  0  0  0  0  0  0  0  0  0  0  0
   46.9320   33.4790   41.8840 H   0  0  0  0  0  0  0  0  0  0  0  0
   46.1810   34.7240   43.4680 C   0  0  0  0  0  0  0  0  0  0  0  0
   45.2950   35.7920   43.4590 C   0  0  0  0  0  0  0  0  0  0  0  0
   44.4750   35.9780   44.5980 C   0  0  0  0  0  0  0  0  0  0  0  0
   44.6080   35.0920   45.6350 N   0  0  0  0  0  0  0  0  0  0  0  0
   45.4910   34.0630   45.5900 C   0  0  0  0  0  0  0  0  0  0  0  0
   46.2720   33.8900   44.5020 N   0  0  0  0  0  0  0  0  0  0  0  0
   45.2200   36.4670   42.6250 H   0  0  0  0  0  0  0  0  0  0  0  0
   43.7910   36.7950   44.6040 H   0  0  0  0  0  0  0  0  0  0  0  0
   45.5280   33.4150   46.4540 H   0  0  0  0  0  0  0  0  0  0  0  0
   48.4960   34.5240   42.8080 C   0  0  0  0  0  0  0  0  0  0  0  0
   48.5580   33.8500   43.6940 H   0  0  0  0  0  0  0  0  0  0  0  0
   48.7670   35.5320   43.1590 H   0  0  0  0  0  0  0  0  0  0  0  0
   49.4610   34.0490   41.7130 C   0  0  0  0  0  0  0  0  0  0  0  0
   50.6580   33.4300   42.2890 C   0  0  0  0  0  0  0  0  0  0  0  0
   51.0880   32.1100   41.7430 C   0  0  0  0  0  0  0  0  0  0  0  0
   50.5090   31.7760   40.4000 C   0  0  0  0  0  0  0  0  0  0  0  0
   48.9930   31.8240   40.6170 C   0  0  0  0  0  0  0  0  0  0  0  0
   48.6630   33.2770   40.7340 C   0  0  0  0  0  0  0  0  0  0  0  0
  1 13  1  0  0  0  0
  1  4  1  0  0  0  0
  2  1  1  0  0  0  0
  3  1  1  0  0  0  0
  4  9  1  0  0  0  0
  5  4  2  0  0  0  0
  5  6  1  0  0  0  0
  6 11  1  0  0  0  0
  6  7  2  0  0  0  0
  8  7  1  0  0  0  0
  8 12  1  0  0  0  0
  9  8  2  0  0  0  0
 10  5  1  0  0  0  0
 13 15  1  0  0  0  0
 13 14  1  0  0  0  0
 16 17  1  0  0  0  0
 16 13  1  0  0  0  0
 18 17  1  0  0  0  0
 19 20  1  0  0  0  0
 19 18  1  0  0  0  0
 20 21  1  0  0  0  0
 21 16  1  0  0  0  0
M  END
>  <minimizedAffinity>
-4.34822035

>  <minimizedRMSD>
1.75077784

$$$$
