
 OpenBabel03252506323D

 29 31  0  0  1  0  0  0  0  0999 V2000
   39.0480   33.2560   40.1480 C   0  0  0  0  0  0  0  0  0  0  0  0
   37.7040   32.9440   39.9750 C   0  0  0  0  0  0  0  0  0  0  0  0
   37.2050   31.8300   40.6030 C   0  0  0  0  0  0  0  0  0  0  0  0
   38.0570   31.0870   41.3630 N   0  0  0  0  0  0  0  0  0  0  0  0
   39.3400   31.4080   41.5110 C   0  0  0  0  0  0  0  0  0  0  0  0
   39.8470   32.4840   40.9120 N   0  0  0  0  0  0  0  0  0  0  0  0
   40.1340   30.5650   42.3390 N   0  0  0  0  0  0  0  0  0  0  0  0
   41.4560   30.9610   42.8540 C   0  0  0  0  0  0  0  0  0  0  0  0
   42.1960   29.6540   42.7850 C   0  0  0  0  0  0  0  0  0  0  0  0
   41.1750   28.5690   42.5340 C   0  0  0  0  0  0  0  0  0  0  0  0
   39.8760   29.2460   42.8470 C   0  0  2  0  0  0  0  0  0  0  0  0
   39.5590   34.1160   39.6990 H   0  0  0  0  0  0  0  0  0  0  0  0
   36.1770   31.6360   40.4390 H   0  0  0  0  0  0  0  0  0  0  0  0
   41.9040   31.7810   42.2950 H   0  0  0  0  0  0  0  0  0  0  0  0
   41.2970   31.1790   43.9300 H   0  0  0  0  0  0  0  0  0  0  0  0
   42.7850   29.4490   43.7000 H   0  0  0  0  0  0  0  0  0  0  0  0
   42.9390   29.7570   41.9590 H   0  0  0  0  0  0  0  0  0  0  0  0
   41.3010   28.2910   41.4620 H   0  0  0  0  0  0  0  0  0  0  0  0
   41.3360   27.7140   43.2220 H   0  0  0  0  0  0  0  0  0  0  0  0
   39.8150   29.3220   43.9530 H   0  0  0  0  0  0  0  0  0  0  0  0
   38.7550   28.4860   42.3310 C   0  0  0  0  0  3  0  0  0  0  0  0
   37.8700   28.1170   43.5410 C   0  0  0  0  0  2  0  0  0  0  0  0
   36.6660   27.3310   43.0690 C   0  0  0  0  0  2  0  0  0  0  0  0
   37.0570   26.0510   42.3750 C   0  0  0  0  0  2  0  0  0  0  0  0
   37.9130   26.4450   41.1780 C   0  0  0  0  0  2  0  0  0  0  0  0
   39.1610   27.1100   41.7760 C   0  0  0  0  0  2  0  0  0  0  0  0
   36.9530   33.8430   39.1450 N   0  0  0  0  0  0  0  0  0  0  0  0
   36.4950   34.5440   39.7750 H   0  0  0  0  0  0  0  0  0  0  0  0
   36.8400   33.8560   38.1170 H   0  0  0  0  0  0  0  0  0  0  0  0
  1  6  1  0  0  0  0
  2  1  2  0  0  0  0
  2  3  1  0  0  0  0
  3  4  2  0  0  0  0
  4  5  1  0  0  0  0
  5  7  1  0  0  0  0
  6  5  2  0  0  0  0
  7 11  1  0  0  0  0
  7  8  1  0  0  0  0
  8 15  1  0  0  0  0
  9  8  1  0  0  0  0
  9 16  1  0  0  0  0
 10  9  1  0  0  0  0
 10 11  1  0  0  0  0
 10 19  1  0  0  0  0
 11 20  1  1  0  0  0
 12  1  1  0  0  0  0
 13  3  1  0  0  0  0
 14  8  1  0  0  0  0
 17  9  1  0  0  0  0
 18 10  1  0  0  0  0
 21 11  1  0  0  0  0
 21 22  1  0  0  0  0
 23 22  1  0  0  0  0
 24 23  1  0  0  0  0
 25 26  1  0  0  0  0
 25 24  1  0  0  0  0
 26 21  1  0  0  0  0
 27 28  1  0  0  0  0
 27  2  1  0  0  0  0
 29 27  1  0  0  0  0
M  END
>  <minimizedAffinity>
-5.64663649

$$$$

 OpenBabel03252506323D

 29 31  0  0  1  0  0  0  0  0999 V2000
   37.4990   33.1440   39.6410 C   0  0  0  0  0  0  0  0  0  0  0  0
   38.3940   32.9640   40.6910 C   0  0  0  0  0  0  0  0  0  0  0  0
   38.7680   31.6840   41.0190 C   0  0  0  0  0  0  0  0  0  0  0  0
   38.2400   30.6570   40.2970 N   0  0  0  0  0  0  0  0  0  0  0  0
   37.3850   30.8570   39.2970 C   0  0  0  0  0  0  0  0  0  0  0  0
   37.0070   32.0900   38.9600 N   0  0  0  0  0  0  0  0  0  0  0  0
   36.9080   29.7090   38.6050 N   0  0  0  0  0  0  0  0  0  0  0  0
   36.2310   29.7840   37.2980 C   0  0  0  0  0  0  0  0  0  0  0  0
   35.1960   28.7030   37.4470 C   0  0  0  0  0  0  0  0  0  0  0  0
   35.5520   27.9030   38.6780 C   0  0  0  0  0  0  0  0  0  0  0  0
   36.9640   28.3170   38.9570 C   0  0  2  0  0  0  0  0  0  0  0  0
   37.1280   34.1130   39.2880 H   0  0  0  0  0  0  0  0  0  0  0  0
   39.4500   31.6010   41.8250 H   0  0  0  0  0  0  0  0  0  0  0  0
   35.8410   30.7760   37.0750 H   0  0  0  0  0  0  0  0  0  0  0  0
   36.9740   29.4120   36.5640 H   0  0  0  0  0  0  0  0  0  0  0  0
   35.1250   28.0540   36.5520 H   0  0  0  0  0  0  0  0  0  0  0  0
   34.2110   29.2210   37.5300 H   0  0  0  0  0  0  0  0  0  0  0  0
   34.8180   28.2220   39.4550 H   0  0  0  0  0  0  0  0  0  0  0  0
   35.5070   26.8160   38.4650 H   0  0  0  0  0  0  0  0  0  0  0  0
   37.5990   27.8090   38.2020 H   0  0  0  0  0  0  0  0  0  0  0  0
   37.3650   27.9330   40.2950 C   0  0  0  0  0  3  0  0  0  0  0  0
   37.5970   26.4060   40.2710 C   0  0  0  0  0  2  0  0  0  0  0  0
   38.0370   25.9370   41.6410 C   0  0  0  0  0  2  0  0  0  0  0  0
   37.0060   26.2310   42.7010 C   0  0  0  0  0  2  0  0  0  0  0  0
   36.8100   27.7420   42.7160 C   0  0  0  0  0  2  0  0  0  0  0  0
   36.2400   28.0870   41.3320 C   0  0  0  0  0  2  0  0  0  0  0  0
   38.8530   34.1610   41.3360 N   0  0  0  0  0  0  0  0  0  0  0  0
   39.7590   34.4340   40.8840 H   0  0  0  0  0  0  0  0  0  0  0  0
   38.4240   34.7050   42.1040 H   0  0  0  0  0  0  0  0  0  0  0  0
  1  2  1  0  0  0  0
  2  3  2  0  0  0  0
  2 27  1  0  0  0  0
  3 13  1  0  0  0  0
  4  3  1  0  0  0  0
  5  4  2  0  0  0  0
  6  5  1  0  0  0  0
  6  1  2  0  0  0  0
  7 11  1  0  0  0  0
  7  5  1  0  0  0  0
  8  9  1  0  0  0  0
  8  7  1  0  0  0  0
  9 17  1  0  0  0  0
  9 10  1  0  0  0  0
 10 11  1  0  0  0  0
 10 18  1  0  0  0  0
 11 20  1  6  0  0  0
 11 21  1  0  0  0  0
 12  1  1  0  0  0  0
 14  8  1  0  0  0  0
 15  8  1  0  0  0  0
 16  9  1  0  0  0  0
 19 10  1  0  0  0  0
 21 26  1  0  0  0  0
 22 21  1  0  0  0  0
 22 23  1  0  0  0  0
 23 24  1  0  0  0  0
 24 25  1  0  0  0  0
 26 25  1  0  0  0  0
 27 29  1  0  0  0  0
 28 27  1  0  0  0  0
M  END
>  <minimizedAffinity>
-5.54517889

$$$$

 OpenBabel03252506323D

 29 31  0  0  1  0  0  0  0  0999 V2000
   37.6250   30.0340   42.2010 C   0  0  0  0  0  0  0  0  0  0  0  0
   36.4830   29.9130   41.4150 C   0  0  0  0  0  0  0  0  0  0  0  0
   36.0760   28.6560   41.0420 C   0  0  0  0  0  0  0  0  0  0  0  0
   36.8160   27.5920   41.4620 N   0  0  0  0  0  0  0  0  0  0  0  0
   37.9050   27.7350   42.2130 C   0  0  0  0  0  0  0  0  0  0  0  0
   38.3200   28.9450   42.5880 N   0  0  0  0  0  0  0  0  0  0  0  0
   38.5920   26.5510   42.6030 N   0  0  0  0  0  0  0  0  0  0  0  0
   39.5980   26.5250   43.6790 C   0  0  0  0  0  0  0  0  0  0  0  0
   40.5880   25.5390   43.1240 C   0  0  0  0  0  0  0  0  0  0  0  0
   39.9350   24.8590   41.9440 C   0  0  0  0  0  0  0  0  0  0  0  0
   38.4880   25.2070   42.1080 C   0  0  2  0  0  0  0  0  0  0  0  0
   38.0460   30.9800   42.5600 H   0  0  0  0  0  0  0  0  0  0  0  0
   35.2030   28.6180   40.4450 H   0  0  0  0  0  0  0  0  0  0  0  0
   40.0010   27.5100   43.9120 H   0  0  0  0  0  0  0  0  0  0  0  0
   39.0980   26.0260   44.5340 H   0  0  0  0  0  0  0  0  0  0  0  0
   40.9230   24.8000   43.8790 H   0  0  0  0  0  0  0  0  0  0  0  0
   41.4950   26.1260   42.8470 H   0  0  0  0  0  0  0  0  0  0  0  0
   40.4170   25.3090   41.0450 H   0  0  0  0  0  0  0  0  0  0  0  0
   40.0730   23.7600   41.9990 H   0  0  0  0  0  0  0  0  0  0  0  0
   38.1010   24.5770   42.9360 H   0  0  0  0  0  0  0  0  0  0  0  0
   37.7480   24.9480   40.8890 C   0  0  0  0  0  3  0  0  0  0  0  0
   36.6050   23.9780   41.2570 C   0  0  0  0  0  2  0  0  0  0  0  0
   35.7780   23.6750   40.0260 C   0  0  0  0  0  2  0  0  0  0  0  0
   36.5950   23.0330   38.9350 C   0  0  0  0  0  2  0  0  0  0  0  0
   37.7040   24.0160   38.5790 C   0  0  0  0  0  2  0  0  0  0  0  0
   38.5520   24.1450   39.8520 C   0  0  0  0  0  2  0  0  0  0  0  0
   35.8250   31.1410   41.0720 N   0  0  0  0  0  0  0  0  0  0  0  0
   35.0690   31.3010   41.7800 H   0  0  0  0  0  0  0  0  0  0  0  0
   36.0090   31.7940   40.2910 H   0  0  0  0  0  0  0  0  0  0  0  0
  1 12  1  0  0  0  0
  1  6  1  0  0  0  0
  2  1  2  0  0  0  0
  3  2  1  0  0  0  0
  3  4  2  0  0  0  0
  4  5  1  0  0  0  0
  5  6  2  0  0  0  0
  5  7  1  0  0  0  0
  7  8  1  0  0  0  0
  8 14  1  0  0  0  0
  8 15  1  0  0  0  0
  9  8  1  0  0  0  0
  9 16  1  0  0  0  0
 10 19  1  0  0  0  0
 10 11  1  0  0  0  0
 10  9  1  0  0  0  0
 11  7  1  0  0  0  0
 11 20  1  1  0  0  0
 13  3  1  0  0  0  0
 17  9  1  0  0  0  0
 18 10  1  0  0  0  0
 21 22  1  0  0  0  0
 21 11  1  0  0  0  0
 23 22  1  0  0  0  0
 24 23  1  0  0  0  0
 25 24  1  0  0  0  0
 25 26  1  0  0  0  0
 26 21  1  0  0  0  0
 27  2  1  0  0  0  0
 27 28  1  0  0  0  0
 29 27  1  0  0  0  0
M  END
>  <minimizedAffinity>
-5.39104557

$$$$

 OpenBabel03252506323D

 29 31  0  0  1  0  0  0  0  0999 V2000
   39.7070   31.9310   38.0990 C   0  0  0  0  0  0  0  0  0  0  0  0
   38.3810   31.6240   37.8110 C   0  0  0  0  0  0  0  0  0  0  0  0
   37.6350   30.9810   38.7670 C   0  0  0  0  0  0  0  0  0  0  0  0
   38.2360   30.6770   39.9510 N   0  0  0  0  0  0  0  0  0  0  0  0
   39.5070   30.9810   40.2020 C   0  0  0  0  0  0  0  0  0  0  0  0
   40.2520   31.6050   39.2890 N   0  0  0  0  0  0  0  0  0  0  0  0
   40.0260   30.6250   41.4780 N   0  0  0  0  0  0  0  0  0  0  0  0
   41.2840   31.1740   42.0150 C   0  0  0  0  0  0  0  0  0  0  0  0
   41.8380   29.9750   42.7330 C   0  0  0  0  0  0  0  0  0  0  0  0
   40.7350   28.9460   42.8120 C   0  0  0  0  0  0  0  0  0  0  0  0
   39.5070   29.7370   42.4810 C   0  0  2  0  0  0  0  0  0  0  0  0
   40.3990   32.4400   37.4190 H   0  0  0  0  0  0  0  0  0  0  0  0
   36.6330   30.7710   38.4980 H   0  0  0  0  0  0  0  0  0  0  0  0
   41.9280   31.5960   41.2450 H   0  0  0  0  0  0  0  0  0  0  0  0
   40.9760   31.8970   42.7960 H   0  0  0  0  0  0  0  0  0  0  0  0
   42.2300   30.2240   43.7390 H   0  0  0  0  0  0  0  0  0  0  0  0
   42.7170   29.6310   42.1380 H   0  0  0  0  0  0  0  0  0  0  0  0
   41.0020   28.1720   42.0550 H   0  0  0  0  0  0  0  0  0  0  0  0
   40.6580   28.5330   43.8390 H   0  0  0  0  0  0  0  0  0  0  0  0
   39.2710   30.3480   43.3760 H   0  0  0  0  0  0  0  0  0  0  0  0
   38.3960   28.8630   42.1580 C   0  0  0  0  0  3  0  0  0  0  0  0
   37.7620   28.4340   43.4990 C   0  0  0  0  0  2  0  0  0  0  0  0
   36.5790   27.5280   43.2340 C   0  0  0  0  0  2  0  0  0  0  0  0
   36.9740   26.2780   42.4890 C   0  0  0  0  0  2  0  0  0  0  0  0
   37.5800   26.7300   41.1660 C   0  0  0  0  0  2  0  0  0  0  0  0
   38.8380   27.5220   41.5480 C   0  0  0  0  0  2  0  0  0  0  0  0
   37.9120   32.0260   36.5150 N   0  0  0  0  0  0  0  0  0  0  0  0
   37.4550   32.9640   36.6230 H   0  0  0  0  0  0  0  0  0  0  0  0
   37.9780   31.5370   35.6060 H   0  0  0  0  0  0  0  0  0  0  0  0
  1  6  1  0  0  0  0
  2  1  2  0  0  0  0
  2  3  1  0  0  0  0
  3  4  2  0  0  0  0
  4  5  1  0  0  0  0
  5  7  1  0  0  0  0
  6  5  2  0  0  0  0
  7  8  1  0  0  0  0
  7 11  1  0  0  0  0
  8  9  1  0  0  0  0
  8 15  1  0  0  0  0
  9 10  1  0  0  0  0
  9 16  1  0  0  0  0
 10 19  1  0  0  0  0
 11 10  1  0  0  0  0
 11 20  1  1  0  0  0
 12  1  1  0  0  0  0
 13  3  1  0  0  0  0
 14  8  1  0  0  0  0
 17  9  1  0  0  0  0
 18 10  1  0  0  0  0
 21 11  1  0  0  0  0
 21 22  1  0  0  0  0
 23 22  1  0  0  0  0
 24 23  1  0  0  0  0
 25 26  1  0  0  0  0
 25 24  1  0  0  0  0
 26 21  1  0  0  0  0
 27 28  1  0  0  0  0
 27  2  1  0  0  0  0
 29 27  1  0  0  0  0
M  END
>  <minimizedAffinity>
-5.28011131

$$$$

 OpenBabel03252506323D

 29 31  0  0  1  0  0  0  0  0999 V2000
   38.4230   31.9420   37.1010 C   0  0  0  0  0  0  0  0  0  0  0  0
   39.6730   31.7170   37.6680 C   0  0  0  0  0  0  0  0  0  0  0  0
   39.8080   30.6880   38.5660 C   0  0  0  0  0  0  0  0  0  0  0  0
   38.7060   29.9400   38.8550 N   0  0  0  0  0  0  0  0  0  0  0  0
   37.5210   30.1770   38.2980 C   0  0  0  0  0  0  0  0  0  0  0  0
   37.3650   31.1710   37.4240 N   0  0  0  0  0  0  0  0  0  0  0  0
   36.4430   29.3230   38.6660 N   0  0  0  0  0  0  0  0  0  0  0  0
   35.1820   29.2520   37.9070 C   0  0  0  0  0  0  0  0  0  0  0  0
   34.1860   29.0780   39.0200 C   0  0  0  0  0  0  0  0  0  0  0  0
   34.9630   28.7590   40.2760 C   0  0  0  0  0  0  0  0  0  0  0  0
   36.3190   28.3950   39.7540 C   0  0  2  0  0  0  0  0  0  0  0  0
   38.1920   32.7310   36.3750 H   0  0  0  0  0  0  0  0  0  0  0  0
   40.7790   30.5580   38.9690 H   0  0  0  0  0  0  0  0  0  0  0  0
   35.0190   30.1180   37.2670 H   0  0  0  0  0  0  0  0  0  0  0  0
   35.2230   28.2860   37.3640 H   0  0  0  0  0  0  0  0  0  0  0  0
   33.4360   28.2930   38.8010 H   0  0  0  0  0  0  0  0  0  0  0  0
   33.6180   30.0360   39.0860 H   0  0  0  0  0  0  0  0  0  0  0  0
   34.9400   29.6970   40.8790 H   0  0  0  0  0  0  0  0  0  0  0  0
   34.5130   27.8960   40.8070 H   0  0  0  0  0  0  0  0  0  0  0  0
   36.2290   27.3790   39.3160 H   0  0  0  0  0  0  0  0  0  0  0  0
   37.3050   28.4000   40.8170 C   0  0  0  0  0  3  0  0  0  0  0  0
   37.2290   27.0190   41.5040 C   0  0  0  0  0  2  0  0  0  0  0  0
   38.2490   26.9500   42.6200 C   0  0  0  0  0  2  0  0  0  0  0  0
   38.0140   28.0030   43.6730 C   0  0  0  0  0  2  0  0  0  0  0  0
   38.1110   29.3540   42.9730 C   0  0  0  0  0  2  0  0  0  0  0  0
   36.9550   29.3670   41.9610 C   0  0  0  0  0  2  0  0  0  0  0  0
   40.7230   32.5990   37.2430 N   0  0  0  0  0  0  0  0  0  0  0  0
   41.2270   32.1300   36.4520 H   0  0  0  0  0  0  0  0  0  0  0  0
   40.9880   33.5330   37.6000 H   0  0  0  0  0  0  0  0  0  0  0  0
  1  6  2  0  0  0  0
  1  2  1  0  0  0  0
  2  3  2  0  0  0  0
  3  4  1  0  0  0  0
  3 13  1  0  0  0  0
  5  7  1  0  0  0  0
  5  4  2  0  0  0  0
  6  5  1  0  0  0  0
  7 11  1  0  0  0  0
  8  7  1  0  0  0  0
  8  9  1  0  0  0  0
  9 17  1  0  0  0  0
  9 10  1  0  0  0  0
 10 19  1  0  0  0  0
 10 18  1  0  0  0  0
 11 20  1  6  0  0  0
 11 10  1  0  0  0  0
 11 21  1  0  0  0  0
 12  1  1  0  0  0  0
 14  8  1  0  0  0  0
 15  8  1  0  0  0  0
 16  9  1  0  0  0  0
 21 22  1  0  0  0  0
 21 26  1  0  0  0  0
 22 23  1  0  0  0  0
 23 24  1  0  0  0  0
 25 24  1  0  0  0  0
 26 25  1  0  0  0  0
 27 29  1  0  0  0  0
 27  2  1  0  0  0  0
 28 27  1  0  0  0  0
M  END
>  <minimizedAffinity>
-5.11764288

$$$$

 OpenBabel03252506323D

 29 31  0  0  1  0  0  0  0  0999 V2000
   37.2240   31.0730   38.0990 C   0  0  0  0  0  0  0  0  0  0  0  0
   38.4820   31.4300   37.6220 C   0  0  0  0  0  0  0  0  0  0  0  0
   39.5890   30.9670   38.2880 C   0  0  0  0  0  0  0  0  0  0  0  0
   39.3960   30.1810   39.3840 N   0  0  0  0  0  0  0  0  0  0  0  0
   38.1810   29.8550   39.8190 C   0  0  0  0  0  0  0  0  0  0  0  0
   37.0910   30.2930   39.1900 N   0  0  0  0  0  0  0  0  0  0  0  0
   38.1010   29.0180   40.9680 N   0  0  0  0  0  0  0  0  0  0  0  0
   36.8660   28.3180   41.3650 C   0  0  0  0  0  0  0  0  0  0  0  0
   36.9490   28.4160   42.8630 C   0  0  0  0  0  0  0  0  0  0  0  0
   38.3440   28.8800   43.2090 C   0  0  0  0  0  0  0  0  0  0  0  0
   39.1010   28.6630   41.9350 C   0  0  2  0  0  0  0  0  0  0  0  0
   36.2710   31.3810   37.6540 H   0  0  0  0  0  0  0  0  0  0  0  0
   40.5220   31.2660   37.8860 H   0  0  0  0  0  0  0  0  0  0  0  0
   35.9700   28.7460   40.9180 H   0  0  0  0  0  0  0  0  0  0  0  0
   37.0390   27.2530   41.1060 H   0  0  0  0  0  0  0  0  0  0  0  0
   36.7070   27.4590   43.3660 H   0  0  0  0  0  0  0  0  0  0  0  0
   36.1570   29.1360   43.1750 H   0  0  0  0  0  0  0  0  0  0  0  0
   38.2320   29.9500   43.5000 H   0  0  0  0  0  0  0  0  0  0  0  0
   38.7750   28.2570   44.0200 H   0  0  0  0  0  0  0  0  0  0  0  0
   39.2730   27.5700   41.8490 H   0  0  0  0  0  0  0  0  0  0  0  0
   40.3650   29.3730   41.9520 C   0  0  0  0  0  3  0  0  0  0  0  0
   41.3260   28.5520   42.8380 C   0  0  0  0  0  2  0  0  0  0  0  0
   42.6780   29.2320   42.8880 C   0  0  0  0  0  2  0  0  0  0  0  0
   42.5940   30.6240   43.4610 C   0  0  0  0  0  2  0  0  0  0  0  0
   41.6550   31.4150   42.5590 C   0  0  0  0  0  2  0  0  0  0  0  0
   40.2920   30.7200   42.6890 C   0  0  0  0  0  2  0  0  0  0  0  0
   38.4960   32.2600   36.4500 N   0  0  0  0  0  0  0  0  0  0  0  0
   38.5890   31.6280   35.6190 H   0  0  0  0  0  0  0  0  0  0  0  0
   38.4310   33.2890   36.3670 H   0  0  0  0  0  0  0  0  0  0  0  0
  1  6  1  0  0  0  0
  2  1  2  0  0  0  0
  2  3  1  0  0  0  0
  3  4  2  0  0  0  0
  4  5  1  0  0  0  0
  5  7  1  0  0  0  0
  6  5  2  0  0  0  0
  7  8  1  0  0  0  0
  7 11  1  0  0  0  0
  8  9  1  0  0  0  0
  9 17  1  0  0  0  0
  9 10  1  0  0  0  0
  9 16  1  0  0  0  0
 10 18  1  0  0  0  0
 10 19  1  0  0  0  0
 11 20  1  6  0  0  0
 11 21  1  0  0  0  0
 11 10  1  0  0  0  0
 12  1  1  0  0  0  0
 13  3  1  0  0  0  0
 14  8  1  0  0  0  0
 15  8  1  0  0  0  0
 21 26  1  0  0  0  0
 21 22  1  0  0  0  0
 22 23  1  0  0  0  0
 23 24  1  0  0  0  0
 25 26  1  0  0  0  0
 25 24  1  0  0  0  0
 27  2  1  0  0  0  0
 28 27  1  0  0  0  0
 29 27  1  0  0  0  0
M  END
>  <minimizedAffinity>
-5.00240421

$$$$

 OpenBabel03252506323D

 29 31  0  0  1  0  0  0  0  0999 V2000
   38.0620   30.1850   37.2890 C   0  0  0  0  0  0  0  0  0  0  0  0
   37.4880   29.0610   36.7040 C   0  0  0  0  0  0  0  0  0  0  0  0
   37.0730   28.0380   37.5220 C   0  0  0  0  0  0  0  0  0  0  0  0
   37.2490   28.1810   38.8650 N   0  0  0  0  0  0  0  0  0  0  0  0
   37.8020   29.2670   39.3990 C   0  0  0  0  0  0  0  0  0  0  0  0
   38.2120   30.2720   38.6260 N   0  0  0  0  0  0  0  0  0  0  0  0
   37.9240   29.3110   40.8160 N   0  0  0  0  0  0  0  0  0  0  0  0
   38.2050   30.5510   41.5590 C   0  0  0  0  0  0  0  0  0  0  0  0
   39.1040   30.0370   42.6490 C   0  0  0  0  0  0  0  0  0  0  0  0
   39.0210   28.5290   42.6290 C   0  0  0  0  0  0  0  0  0  0  0  0
   37.8050   28.2660   41.7950 C   0  0  2  0  0  0  0  0  0  0  0  0
   38.4300   31.0610   36.7430 H   0  0  0  0  0  0  0  0  0  0  0  0
   36.6430   27.2060   37.0280 H   0  0  0  0  0  0  0  0  0  0  0  0
   38.6310   31.3360   40.9350 H   0  0  0  0  0  0  0  0  0  0  0  0
   37.2460   30.8260   42.0430 H   0  0  0  0  0  0  0  0  0  0  0  0
   38.8400   30.4420   43.6460 H   0  0  0  0  0  0  0  0  0  0  0  0
   40.1260   30.4230   42.4220 H   0  0  0  0  0  0  0  0  0  0  0  0
   39.9770   28.1890   42.1680 H   0  0  0  0  0  0  0  0  0  0  0  0
   38.8740   28.1310   43.6540 H   0  0  0  0  0  0  0  0  0  0  0  0
   36.9260   28.5040   42.4290 H   0  0  0  0  0  0  0  0  0  0  0  0
   37.7580   26.8830   41.3640 C   0  0  0  0  0  3  0  0  0  0  0  0
   37.0260   26.0950   42.4720 C   0  0  0  0  0  2  0  0  0  0  0  0
   36.9270   24.6370   42.0780 C   0  0  0  0  0  2  0  0  0  0  0  0
   38.2820   24.0070   41.8800 C   0  0  0  0  0  2  0  0  0  0  0  0
   38.9740   24.7920   40.7720 C   0  0  0  0  0  2  0  0  0  0  0  0
   39.1410   26.2130   41.3290 C   0  0  0  0  0  2  0  0  0  0  0  0
   37.3760   29.0860   35.2730 N   0  0  0  0  0  0  0  0  0  0  0  0
   36.4180   29.4410   35.0390 H   0  0  0  0  0  0  0  0  0  0  0  0
   38.0670   28.8190   34.5510 H   0  0  0  0  0  0  0  0  0  0  0  0
  1  6  1  0  0  0  0
  2  1  2  0  0  0  0
  2  3  1  0  0  0  0
  3  4  2  0  0  0  0
  4  5  1  0  0  0  0
  5  7  1  0  0  0  0
  6  5  2  0  0  0  0
  7  8  1  0  0  0  0
  7 11  1  0  0  0  0
  8 15  1  0  0  0  0
  8  9  1  0  0  0  0
  9 16  1  0  0  0  0
 10  9  1  0  0  0  0
 10 19  1  0  0  0  0
 11 20  1  1  0  0  0
 11 10  1  0  0  0  0
 12  1  1  0  0  0  0
 13  3  1  0  0  0  0
 14  8  1  0  0  0  0
 17  9  1  0  0  0  0
 18 10  1  0  0  0  0
 21 11  1  0  0  0  0
 21 22  1  0  0  0  0
 23 22  1  0  0  0  0
 24 23  1  0  0  0  0
 25 26  1  0  0  0  0
 25 24  1  0  0  0  0
 26 21  1  0  0  0  0
 27  2  1  0  0  0  0
 28 27  1  0  0  0  0
 29 27  1  0  0  0  0
M  END
>  <minimizedAffinity>
-4.89957476

$$$$

 OpenBabel03252506323D

 29 31  0  0  1  0  0  0  0  0999 V2000
   37.5390   30.4940   38.1200 C   0  0  0  0  0  0  0  0  0  0  0  0
   37.1970   29.5300   37.1780 C   0  0  0  0  0  0  0  0  0  0  0  0
   36.9080   28.2610   37.6150 C   0  0  0  0  0  0  0  0  0  0  0  0
   36.9740   28.0140   38.9540 N   0  0  0  0  0  0  0  0  0  0  0  0
   37.3040   28.9550   39.8350 C   0  0  0  0  0  0  0  0  0  0  0  0
   37.5890   30.1940   39.4340 N   0  0  0  0  0  0  0  0  0  0  0  0
   37.3280   28.5860   41.2090 N   0  0  0  0  0  0  0  0  0  0  0  0
   37.3520   29.5710   42.3040 C   0  0  0  0  0  0  0  0  0  0  0  0
   38.2540   28.8840   43.2910 C   0  0  0  0  0  0  0  0  0  0  0  0
   38.4240   27.4550   42.8280 C   0  0  0  0  0  0  0  0  0  0  0  0
   37.3240   27.2890   41.8260 C   0  0  2  0  0  0  0  0  0  0  0  0
   37.7900   31.5370   37.8930 H   0  0  0  0  0  0  0  0  0  0  0  0
   36.6550   27.5640   36.8590 H   0  0  0  0  0  0  0  0  0  0  0  0
   37.6790   30.5590   41.9830 H   0  0  0  0  0  0  0  0  0  0  0  0
   36.3320   29.5500   42.7380 H   0  0  0  0  0  0  0  0  0  0  0  0
   37.8650   28.9280   44.3270 H   0  0  0  0  0  0  0  0  0  0  0  0
   39.2100   29.4590   43.2970 H   0  0  0  0  0  0  0  0  0  0  0  0
   39.4510   27.4080   42.3960 H   0  0  0  0  0  0  0  0  0  0  0  0
   38.2820   26.7510   43.6730 H   0  0  0  0  0  0  0  0  0  0  0  0
   36.3800   27.1990   42.4020 H   0  0  0  0  0  0  0  0  0  0  0  0
   37.5340   26.1080   41.0130 C   0  0  0  0  0  3  0  0  0  0  0  0
   36.9260   24.9180   41.7870 C   0  0  0  0  0  2  0  0  0  0  0  0
   37.0980   23.6470   40.9830 C   0  0  0  0  0  2  0  0  0  0  0  0
   38.5480   23.3340   40.7170 C   0  0  0  0  0  2  0  0  0  0  0  0
   39.1170   24.5130   39.9380 C   0  0  0  0  0  2  0  0  0  0  0  0
   39.0150   25.7120   40.8920 C   0  0  0  0  0  2  0  0  0  0  0  0
   37.1730   29.9690   35.8110 N   0  0  0  0  0  0  0  0  0  0  0  0
   36.1860   30.2410   35.5870 H   0  0  0  0  0  0  0  0  0  0  0  0
   37.9420   30.0320   35.1230 H   0  0  0  0  0  0  0  0  0  0  0  0
  1  6  1  0  0  0  0
  2  3  1  0  0  0  0
  2  1  2  0  0  0  0
  3  4  2  0  0  0  0
  4  5  1  0  0  0  0
  5  7  1  0  0  0  0
  6  5  2  0  0  0  0
  7 11  1  0  0  0  0
  7  8  1  0  0  0  0
  8 15  1  0  0  0  0
  8  9  1  0  0  0  0
  9 17  1  0  0  0  0
  9 16  1  0  0  0  0
 10  9  1  0  0  0  0
 10 19  1  0  0  0  0
 11 20  1  1  0  0  0
 11 10  1  0  0  0  0
 12  1  1  0  0  0  0
 13  3  1  0  0  0  0
 14  8  1  0  0  0  0
 18 10  1  0  0  0  0
 21 22  1  0  0  0  0
 21 11  1  0  0  0  0
 23 22  1  0  0  0  0
 24 23  1  0  0  0  0
 25 24  1  0  0  0  0
 25 26  1  0  0  0  0
 26 21  1  0  0  0  0
 27  2  1  0  0  0  0
 28 27  1  0  0  0  0
 29 27  1  0  0  0  0
M  END
>  <minimizedAffinity>
-4.87217331

$$$$

 OpenBabel03252506323D

 29 31  0  0  1  0  0  0  0  0999 V2000
   39.0240   31.9970   40.7030 C   0  0  0  0  0  0  0  0  0  0  0  0
   38.4500   32.9090   39.8230 C   0  0  0  0  0  0  0  0  0  0  0  0
   37.2910   32.5540   39.1780 C   0  0  0  0  0  0  0  0  0  0  0  0
   36.7650   31.3240   39.4360 N   0  0  0  0  0  0  0  0  0  0  0  0
   37.3350   30.4710   40.2830 C   0  0  0  0  0  0  0  0  0  0  0  0
   38.4600   30.7920   40.9200 N   0  0  0  0  0  0  0  0  0  0  0  0
   36.6880   29.2180   40.4830 N   0  0  0  0  0  0  0  0  0  0  0  0
   37.0080   28.3220   41.6080 C   0  0  0  0  0  0  0  0  0  0  0  0
   36.8860   26.9760   40.9480 C   0  0  0  0  0  0  0  0  0  0  0  0
   36.2190   27.1890   39.6090 C   0  0  0  0  0  0  0  0  0  0  0  0
   35.6540   28.5710   39.7260 C   0  0  2  0  0  0  0  0  0  0  0  0
   39.9460   32.1650   41.2730 H   0  0  0  0  0  0  0  0  0  0  0  0
   36.8950   33.2820   38.5200 H   0  0  0  0  0  0  0  0  0  0  0  0
   37.9760   28.5330   42.0610 H   0  0  0  0  0  0  0  0  0  0  0  0
   36.1510   28.4120   42.3060 H   0  0  0  0  0  0  0  0  0  0  0  0
   36.3250   26.2480   41.5660 H   0  0  0  0  0  0  0  0  0  0  0  0
   37.9220   26.5730   40.8620 H   0  0  0  0  0  0  0  0  0  0  0  0
   37.0350   27.0890   38.8570 H   0  0  0  0  0  0  0  0  0  0  0  0
   35.4020   26.4540   39.4570 H   0  0  0  0  0  0  0  0  0  0  0  0
   34.7610   28.4950   40.3810 H   0  0  0  0  0  0  0  0  0  0  0  0
   35.2830   29.0950   38.4260 C   0  0  0  0  0  3  0  0  0  0  0  0
   33.8170   28.6770   38.1780 C   0  0  0  0  0  2  0  0  0  0  0  0
   33.3580   29.2070   36.8370 C   0  0  0  0  0  2  0  0  0  0  0  0
   34.1900   28.6740   35.6980 C   0  0  0  0  0  2  0  0  0  0  0  0
   35.6250   29.1140   35.9590 C   0  0  0  0  0  2  0  0  0  0  0  0
   36.0300   28.4160   37.2660 C   0  0  0  0  0  2  0  0  0  0  0  0
   39.1390   34.1600   39.6790 N   0  0  0  0  0  0  0  0  0  0  0  0
   38.6980   34.8400   40.3440 H   0  0  0  0  0  0  0  0  0  0  0  0
   39.9270   34.4140   39.0590 H   0  0  0  0  0  0  0  0  0  0  0  0
  1  6  1  0  0  0  0
  1 12  1  0  0  0  0
  2  1  2  0  0  0  0
  3  4  2  0  0  0  0
  3  2  1  0  0  0  0
  4  5  1  0  0  0  0
  5  7  1  0  0  0  0
  5  6  2  0  0  0  0
  7  8  1  0  0  0  0
  8 14  1  0  0  0  0
  8 15  1  0  0  0  0
  9 16  1  0  0  0  0
  9  8  1  0  0  0  0
 10 11  1  0  0  0  0
 10  9  1  0  0  0  0
 11 20  1  1  0  0  0
 11  7  1  0  0  0  0
 13  3  1  0  0  0  0
 17  9  1  0  0  0  0
 18 10  1  0  0  0  0
 19 10  1  0  0  0  0
 21 11  1  0  0  0  0
 22 21  1  0  0  0  0
 23 22  1  0  0  0  0
 24 25  1  0  0  0  0
 24 23  1  0  0  0  0
 25 26  1  0  0  0  0
 26 21  1  0  0  0  0
 27  2  1  0  0  0  0
 27 28  1  0  0  0  0
 29 27  1  0  0  0  0
M  END
>  <minimizedAffinity>
-4.85463428

$$$$
