
     RDKit          3D

 36 38  0  0  0  0  0  0  0  0999 V2000
   45.2258   33.5563   43.7734 C   0  0  1  0  0  0  0  0  0  0  0  0
   45.8559   34.9514   43.4614 C   0  0  1  0  0  0  0  0  0  0  0  0
   45.7522   33.8249   42.4728 C   0  0  0  0  0  0  0  0  0  0  0  0
   45.9591   32.8592   44.8424 C   0  0  0  0  0  0  0  0  0  0  0  0
   46.6394   31.6497   44.5299 C   0  0  0  0  0  0  0  0  0  0  0  0
   47.3553   30.9565   45.5070 C   0  0  0  0  0  0  0  0  0  0  0  0
   47.3562   31.5104   46.7559 N   0  0  0  0  0  0  0  0  0  0  0  0
   46.6905   32.6754   47.0175 C   0  0  0  0  0  0  0  0  0  0  0  0
   46.0149   33.3222   46.0810 N   0  0  0  0  0  0  0  0  0  0  0  0
   44.8373   36.0504   43.2766 C   0  0  0  0  0  0  0  0  0  0  0  0
   45.4118   37.3021   43.2553 F   0  0  0  0  0  0  0  0  0  0  0  0
   44.2123   35.8607   42.0348 F   0  0  0  0  0  0  0  0  0  0  0  0
   43.8412   35.9627   44.2240 F   0  0  0  0  0  0  0  0  0  0  0  0
   44.1203   33.6080   43.9735 H   0  0  0  0  0  0  0  0  0  0  0  0
   46.8018   35.2097   43.9256 H   0  0  0  0  0  0  0  0  0  0  0  0
   45.0896   33.9320   41.5916 H   0  0  0  0  0  0  0  0  0  0  0  0
   46.7492   33.4164   42.1820 H   0  0  0  0  0  0  0  0  0  0  0  0
   46.5911   31.2840   43.5345 H   0  0  0  0  0  0  0  0  0  0  0  0
   47.8646   30.0524   45.2781 H   0  0  0  0  0  0  0  0  0  0  0  0
   46.7129   33.2515   48.3902 C   0  0  0  0  0  0  0  0  0  0  0  0
   46.7166   32.2277   49.4764 C   0  0  0  0  0  0  0  0  0  0  0  0
   45.3232   31.8833   49.9701 C   0  0  0  0  0  0  0  0  0  0  0  0
   44.6044   33.0824   50.5554 C   0  0  0  0  0  0  0  0  0  0  0  0
   45.2323   34.3732   50.0625 C   0  0  0  0  0  0  0  0  0  0  0  0
   45.5130   34.1790   48.5969 C   0  0  0  0  0  0  0  0  0  0  0  0
   47.5982   33.9305   48.4265 H   0  0  0  0  0  0  0  0  0  0  0  0
   47.2934   32.6341   50.3450 H   0  0  0  0  0  0  0  0  0  0  0  0
   47.1672   31.2546   49.1755 H   0  0  0  0  0  0  0  0  0  0  0  0
   45.4575   31.1667   50.8161 H   0  0  0  0  0  0  0  0  0  0  0  0
   44.7617   31.4371   49.1295 H   0  0  0  0  0  0  0  0  0  0  0  0
   43.5535   33.0758   50.1578 H   0  0  0  0  0  0  0  0  0  0  0  0
   44.5733   33.0891   51.6476 H   0  0  0  0  0  0  0  0  0  0  0  0
   46.1880   34.6064   50.5621 H   0  0  0  0  0  0  0  0  0  0  0  0
   44.5293   35.2235   50.1696 H   0  0  0  0  0  0  0  0  0  0  0  0
   45.6658   35.1323   48.0484 H   0  0  0  0  0  0  0  0  0  0  0  0
   44.6428   33.6438   48.1622 H   0  0  0  0  0  0  0  0  0  0  0  0
  1  4  1  0
  2  1  1  0
  3  2  1  0
  3  1  1  0
  4  9  1  0
  5  4  2  0
  5  6  1  0
  6  7  2  0
  7  8  1  0
  9  8  2  0
 10  2  1  0
 10 13  1  0
 11 10  1  0
 12 10  1  0
  1 14  1  6
  2 15  1  1
  3 16  1  0
  3 17  1  0
  5 18  1  0
  6 19  1  0
 20 21  1  0
 21 22  1  0
 22 23  1  0
 23 24  1  0
 24 25  1  0
 25 20  1  0
 20 26  1  0
 21 27  1  0
 21 28  1  0
 22 29  1  0
 22 30  1  0
 23 31  1  0
 23 32  1  0
 24 33  1  0
 24 34  1  0
 25 35  1  0
 25 36  1  0
  8 20  1  0
M  ISO  6  14  13  15  13  16  13  17  13  18  14  19  14
M  END
>  <DihAtoms>  (1) 
6,7,19,20

>  <DihDeg>  (1) 
-125.01788457359623

$$$$
