
 OpenBabel03252509243D

 24 26  0  0  1  0  0  0  0  0999 V2000
   46.5510   34.9230   41.9560 C   0  0  1  0  0  0  0  0  0  0  0  0
   48.0460   35.3330   41.9740 C   0  0  0  0  0  0  0  0  0  0  0  0
   47.4810   33.9550   41.4990 C   0  0  2  0  0  0  0  0  0  0  0  0
   45.9270   35.5680   41.3140 H   0  0  0  0  0  0  0  0  0  0  0  0
   48.5840   35.3700   42.9180 H   0  0  0  0  0  0  0  0  0  0  0  0
   48.3020   36.0420   41.1900 H   0  0  0  0  0  0  0  0  0  0  0  0
   47.7630   33.1340   42.2230 H   0  0  0  0  0  0  0  0  0  0  0  0
   44.5890   35.5110   45.1030 C   0  0  0  0  0  0  0  0  0  0  0  0
   45.0830   35.7270   43.7790 C   0  0  0  0  0  0  0  0  0  0  0  0
   46.0250   34.8200   43.3780 C   0  0  0  0  0  0  0  0  0  0  0  0
   46.4470   33.7920   44.2000 N   0  0  0  0  0  0  0  0  0  0  0  0
   45.9490   33.6390   45.4320 C   0  0  0  0  0  0  0  0  0  0  0  0
   45.0080   34.5100   45.8890 N   0  0  0  0  0  0  0  0  0  0  0  0
   43.8420   36.2010   45.4670 H   0  0  0  0  0  0  0  0  0  0  0  0
   46.3910   32.7880   45.9310 H   0  0  0  0  0  0  0  0  0  0  0  0
   44.6580   36.8070   42.9560 N   0  0  0  0  0  0  0  0  0  0  0  0
   45.1360   37.7210   42.7650 H   0  0  0  0  0  0  0  0  0  0  0  0
   43.7230   36.5260   42.5380 H   0  0  0  0  0  0  0  0  0  0  0  0
   47.6920   33.5980   40.0590 C   0  0  0  0  0  3  0  0  0  0  0  0
   48.3160   34.7300   39.2710 C   0  0  0  0  0  2  0  0  0  0  0  0
   48.3590   34.4570   37.8040 C   0  0  0  0  0  2  0  0  0  0  0  0
   48.2950   32.9900   37.4730 C   0  0  0  0  0  2  0  0  0  0  0  0
   49.0870   32.2260   38.5070 C   0  0  0  0  0  2  0  0  0  0  0  0
   48.5600   32.3890   39.9100 C   0  0  0  0  0  2  0  0  0  0  0  0
  1  4  1  6  0  0  0
  1  2  1  0  0  0  0
  1 10  1  0  0  0  0
  2  5  1  0  0  0  0
  3  1  1  0  0  0  0
  3  2  1  0  0  0  0
  3  7  1  1  0  0  0
  6  2  1  0  0  0  0
  8 14  1  0  0  0  0
  8 13  1  0  0  0  0
  9  8  2  0  0  0  0
 10  9  1  0  0  0  0
 10 11  2  0  0  0  0
 11 12  1  0  0  0  0
 12 13  2  0  0  0  0
 12 15  1  0  0  0  0
 16  9  1  0  0  0  0
 17 16  1  0  0  0  0
 18 16  1  0  0  0  0
 19  3  1  0  0  0  0
 20 19  1  0  0  0  0
 21 20  1  0  0  0  0
 22 21  1  0  0  0  0
 22 23  1  0  0  0  0
 23 24  1  0  0  0  0
 24 19  1  0  0  0  0
M  END
>  <minimizedAffinity>
-5.23500586

>  <minimizedRMSD>
0.690776467

$$$$
