
 OpenBabel03252501163D

 32 35  0  0  1  0  0  0  0  0999 V2000
   46.3380   30.7390   44.0660 C   0  0  1  0  0  0  0  0  0  0  0  0
   45.5280   31.6930   43.2810 C   0  0  0  0  0  0  0  0  0  0  0  0
   46.9990   32.0130   43.7560 C   0  0  2  0  0  0  0  0  0  0  0  0
   46.6990   29.8160   43.5630 H   0  0  0  0  0  0  0  0  0  0  0  0
   45.3900   31.5800   42.1900 H   0  0  0  0  0  0  0  0  0  0  0  0
   44.7700   32.3390   43.7350 H   0  0  0  0  0  0  0  0  0  0  0  0
   47.0600   32.8110   44.4980 H   0  0  0  0  0  0  0  0  0  0  0  0
   45.6380   30.9700   47.7480 C   0  0  0  0  0  0  0  0  0  0  0  0
   46.1490   31.3320   46.5060 C   0  0  0  0  0  0  0  0  0  0  0  0
   45.8470   30.4720   45.4500 C   0  0  0  0  0  0  0  0  0  0  0  0
   45.1020   29.3630   45.6590 N   0  0  0  0  0  0  0  0  0  0  0  0
   44.6260   29.0560   46.9040 C   0  0  0  0  0  0  0  0  0  0  0  0
   44.9060   29.8760   47.9450 N   0  0  0  0  0  0  0  0  0  0  0  0
   46.7410   32.2100   46.3300 H   0  0  0  0  0  0  0  0  0  0  0  0
   44.0370   28.1590   47.0140 H   0  0  0  0  0  0  0  0  0  0  0  0
   45.9300   31.8750   48.9060 C   0  0  0  0  0  0  0  0  0  0  0  0
   45.2020   31.4280   49.9830 F   0  0  0  0  0  0  0  0  0  0  0  0
   45.4860   33.1360   48.5690 F   0  0  0  0  0  0  0  0  0  0  0  0
   47.2660   31.8620   49.2230 F   0  0  0  0  0  0  0  0  0  0  0  0
   47.9790   31.9620   42.6240 C   0  0  0  0  0  0  0  0  0  0  0  0
   49.1560   31.2230   42.5460 C   0  0  0  0  0  0  0  0  0  0  0  0
   49.6280   31.5680   41.2960 C   0  0  0  0  0  0  0  0  0  0  0  0
   48.7710   32.4630   40.6690 C   0  0  0  0  0  0  0  0  0  0  0  0
   47.8070   32.6460   41.5360 O   0  0  0  0  0  0  0  0  0  0  0  0
   49.5480   30.5730   43.2890 H   0  0  0  0  0  0  0  0  0  0  0  0
   50.5510   31.1920   40.8500 H   0  0  0  0  0  0  0  0  0  0  0  0
   48.8640   33.1020   39.3400 C   0  0  0  0  0  0  0  0  0  0  0  0
   47.5750   33.7770   38.9360 C   0  0  0  0  0  0  0  0  0  0  0  0
   47.3300   33.7030   37.4580 C   0  0  0  0  0  0  0  0  0  0  0  0
   47.1660   32.2570   37.0890 C   0  0  0  0  0  0  0  0  0  0  0  0
   48.2680   31.3780   37.5990 C   0  0  0  0  0  0  0  0  0  0  0  0
   49.3630   32.1380   38.3110 C   0  0  0  0  0  0  0  0  0  0  0  0
  1  4  1  6  0  0  0
  1 10  1  0  0  0  0
  2  6  1  0  0  0  0
  2  3  1  0  0  0  0
  2  1  1  0  0  0  0
  3  1  1  0  0  0  0
  3  7  1  1  0  0  0
  5  2  1  0  0  0  0
  8 13  1  0  0  0  0
  8 16  1  0  0  0  0
  9  8  2  0  0  0  0
 10 11  2  0  0  0  0
 10  9  1  0  0  0  0
 11 12  1  0  0  0  0
 12 15  1  0  0  0  0
 12 13  2  0  0  0  0
 14  9  1  0  0  0  0
 16 19  1  0  0  0  0
 16 17  1  0  0  0  0
 18 16  1  0  0  0  0
 20  3  1  0  0  0  0
 21 20  2  0  0  0  0
 21 25  1  0  0  0  0
 22 21  1  0  0  0  0
 23 22  2  0  0  0  0
 23 24  1  0  0  0  0
 24 20  1  0  0  0  0
 26 22  1  0  0  0  0
 27 23  1  0  0  0  0
 28 27  1  0  0  0  0
 29 28  1  0  0  0  0
 30 29  1  0  0  0  0
 30 31  1  0  0  0  0
 31 32  1  0  0  0  0
 32 27  1  0  0  0  0
M  END
>  <minimizedAffinity>
-4.72981215

>  <minimizedRMSD>
3.94160414

$$$$
