
 OpenBabel03252501283D

 39 43  0  0  0  0  0  0  0  0999 V2000
   46.2140   32.3690   44.8220 C   0  0  0  0  0  0  0  0  0  0  0  0
   47.2270   33.2200   44.4030 C   0  0  0  0  0  0  0  0  0  0  0  0
   46.7860   33.9430   43.3370 C   0  0  0  0  0  0  0  0  0  0  0  0
   45.5250   33.5410   43.1100 N   0  0  0  0  0  0  0  0  0  0  0  0
   45.2010   32.6110   43.9950 N   0  0  0  0  0  0  0  0  0  0  0  0
   48.2020   33.2670   44.8800 H   0  0  0  0  0  0  0  0  0  0  0  0
   47.3470   34.6870   42.7940 H   0  0  0  0  0  0  0  0  0  0  0  0
   44.4810   31.9270   41.0440 F   0  0  0  0  0  0  0  0  0  0  0  0
   44.1210   33.2080   41.1200 C   0  0  0  0  0  0  0  0  0  0  0  0
   44.6270   33.9810   42.1180 C   0  0  0  0  0  0  0  0  0  0  0  0
   44.2590   35.3360   42.2150 C   0  0  0  0  0  0  0  0  0  0  0  0
   43.3960   35.9100   41.3260 C   0  0  0  0  0  0  0  0  0  0  0  0
   42.8990   35.1050   40.3260 C   0  0  0  0  0  0  0  0  0  0  0  0
   43.2550   33.7580   40.2170 C   0  0  0  0  0  0  0  0  0  0  0  0
   44.6420   35.9900   42.9990 H   0  0  0  0  0  0  0  0  0  0  0  0
   43.1170   36.9630   41.4100 H   0  0  0  0  0  0  0  0  0  0  0  0
   42.2120   35.5350   39.6070 H   0  0  0  0  0  0  0  0  0  0  0  0
   42.6690   33.0040   39.1220 C   0  0  0  0  0  0  0  0  0  0  0  0
   43.2370   32.4220   38.0060 C   0  0  0  0  0  0  0  0  0  0  0  0
   42.2790   31.8240   37.2680 N   0  0  0  0  0  0  0  0  0  0  0  0
   41.1040   32.0210   37.9070 C   0  0  0  0  0  0  0  0  0  0  0  0
   41.3450   32.7300   39.0190 N   0  0  0  0  0  0  0  0  0  0  0  0
   44.3040   32.4600   37.7870 H   0  0  0  0  0  0  0  0  0  0  0  0
   42.4140   31.3040   36.3710 H   0  0  0  0  0  0  0  0  0  0  0  0
   40.1680   31.6290   37.5060 H   0  0  0  0  0  0  0  0  0  0  0  0
   47.3040   30.7910   47.9310 C   0  0  0  0  0  0  0  0  0  0  0  0
   46.4480   29.6620   48.0210 C   0  0  0  0  0  0  0  0  0  0  0  0
   45.5040   29.4660   46.9980 C   0  0  0  0  0  0  0  0  0  0  0  0
   45.4970   30.3830   46.0080 N   0  0  0  0  0  0  0  0  0  0  0  0
   46.3010   31.4470   45.9230 C   0  0  0  0  0  0  0  0  0  0  0  0
   47.2160   31.6510   46.8980 N   0  0  0  0  0  0  0  0  0  0  0  0
   48.0120   30.8970   48.7430 H   0  0  0  0  0  0  0  0  0  0  0  0
   46.5390   28.9910   48.8560 H   0  0  0  0  0  0  0  0  0  0  0  0
   44.6130   28.3050   47.0760 C   0  0  0  0  0  0  0  0  0  0  0  0
   44.9570   27.3550   48.1640 C   0  0  0  0  0  0  0  0  0  0  0  0
   45.8040   26.1930   47.7780 C   0  0  0  0  0  0  0  0  0  0  0  0
   46.5550   26.2960   46.4990 C   0  0  0  0  0  0  0  0  0  0  0  0
   45.8320   27.0160   45.4010 C   0  0  0  0  0  0  0  0  0  0  0  0
   44.4940   27.5390   45.7860 C   0  0  0  0  0  0  0  0  0  0  0  0
  1 30  1  0  0  0  0
  2  1  1  0  0  0  0
  2  6  1  0  0  0  0
  3  2  2  0  0  0  0
  4  3  1  0  0  0  0
  4  5  1  0  0  0  0
  5  1  2  0  0  0  0
  7  3  1  0  0  0  0
  8  9  1  0  0  0  0
  9 10  1  0  0  0  0
 10 11  2  0  0  0  0
 10  4  1  0  0  0  0
 11 15  1  0  0  0  0
 12 16  1  0  0  0  0
 12 11  1  0  0  0  0
 13 12  2  0  0  0  0
 14 13  1  0  0  0  0
 14  9  2  0  0  0  0
 17 13  1  0  0  0  0
 18 14  1  0  0  0  0
 19 18  2  0  0  0  0
 20 21  1  0  0  0  0
 20 19  1  0  0  0  0
 21 22  2  0  0  0  0
 22 18  1  0  0  0  0
 23 19  1  0  0  0  0
 24 20  1  0  0  0  0
 25 21  1  0  0  0  0
 26 27  1  0  0  0  0
 26 32  1  0  0  0  0
 27 33  1  0  0  0  0
 28 34  1  0  0  0  0
 28 27  2  0  0  0  0
 29 28  1  0  0  0  0
 30 29  2  0  0  0  0
 30 31  1  0  0  0  0
 31 26  2  0  0  0  0
 34 35  1  0  0  0  0
 36 35  1  0  0  0  0
 37 36  1  0  0  0  0
 38 39  1  0  0  0  0
 38 37  1  0  0  0  0
 39 34  1  0  0  0  0
M  END
>  <minimizedAffinity>
-5.23210812

>  <minimizedRMSD>
3.0066855

$$$$
