
 OpenBabel03252509243D

 24 26  0  0  1  0  0  0  0  0999 V2000
   46.5900   35.0120   41.9680 C   0  0  1  0  0  0  0  0  0  0  0  0
   48.0950   35.3800   41.9900 C   0  0  0  0  0  0  0  0  0  0  0  0
   47.4860   34.0530   41.4320 C   0  0  2  0  0  0  0  0  0  0  0  0
   45.9750   35.7160   41.3820 H   0  0  0  0  0  0  0  0  0  0  0  0
   48.6480   35.3370   42.9260 H   0  0  0  0  0  0  0  0  0  0  0  0
   48.3600   36.1340   41.2530 H   0  0  0  0  0  0  0  0  0  0  0  0
   47.7550   33.1770   42.0940 H   0  0  0  0  0  0  0  0  0  0  0  0
   44.6430   35.3910   45.1570 C   0  0  0  0  0  0  0  0  0  0  0  0
   45.1170   35.6850   43.8410 C   0  0  0  0  0  0  0  0  0  0  0  0
   46.0810   34.8250   43.3880 C   0  0  0  0  0  0  0  0  0  0  0  0
   46.5410   33.7720   44.1570 N   0  0  0  0  0  0  0  0  0  0  0  0
   46.0590   33.5460   45.3840 C   0  0  0  0  0  0  0  0  0  0  0  0
   45.0980   34.3660   45.8900 N   0  0  0  0  0  0  0  0  0  0  0  0
   43.8800   36.0420   45.5600 H   0  0  0  0  0  0  0  0  0  0  0  0
   46.5300   32.6850   45.8370 H   0  0  0  0  0  0  0  0  0  0  0  0
   44.6540   36.7910   43.0740 N   0  0  0  0  0  0  0  0  0  0  0  0
   45.1030   37.7260   42.9240 H   0  0  0  0  0  0  0  0  0  0  0  0
   43.7230   36.5030   42.6500 H   0  0  0  0  0  0  0  0  0  0  0  0
   47.6670   33.7900   39.9680 C   0  0  0  0  0  3  0  0  0  0  0  0
   48.6770   32.6940   39.7010 C   0  0  0  0  0  2  0  0  0  0  0  0
   49.0040   32.5530   38.2510 C   0  0  0  0  0  2  0  0  0  0  0  0
   47.9330   33.0970   37.3460 C   0  0  0  0  0  2  0  0  0  0  0  0
   46.5850   32.7890   37.9520 C   0  0  0  0  0  2  0  0  0  0  0  0
   46.3780   33.4080   39.3100 C   0  0  0  0  0  2  0  0  0  0  0  0
  1  4  1  6  0  0  0
  1  2  1  0  0  0  0
  1 10  1  0  0  0  0
  2  5  1  0  0  0  0
  3  1  1  0  0  0  0
  3  2  1  0  0  0  0
  3  7  1  1  0  0  0
  6  2  1  0  0  0  0
  8 14  1  0  0  0  0
  8 13  1  0  0  0  0
  9  8  2  0  0  0  0
 10  9  1  0  0  0  0
 10 11  2  0  0  0  0
 11 12  1  0  0  0  0
 12 15  1  0  0  0  0
 12 13  2  0  0  0  0
 16  9  1  0  0  0  0
 17 16  1  0  0  0  0
 18 16  1  0  0  0  0
 19  3  1  0  0  0  0
 20 19  1  0  0  0  0
 21 20  1  0  0  0  0
 22 23  1  0  0  0  0
 22 21  1  0  0  0  0
 23 24  1  0  0  0  0
 24 19  1  0  0  0  0
M  END
>  <minimizedAffinity>
-4.89624834

>  <minimizedRMSD>
0.2678307

$$$$
