
 OpenBabel03252504563D

 28 30  0  0  1  0  0  0  0  0999 V2000
   47.0360   34.4990   41.4810 N   0  0  0  0  0  0  0  0  0  0  0  0
   47.4050   34.2680   40.1170 C   0  0  0  0  0  0  0  0  0  0  0  0
   48.6820   35.0790   40.0210 C   0  0  0  0  0  0  0  0  0  0  0  0
   48.9980   35.6590   41.3700 C   0  0  0  0  0  0  0  0  0  0  0  0
   48.0970   34.8150   42.3080 C   0  0  2  0  0  0  0  0  0  0  0  0
   47.0750   33.7540   39.2590 H   0  0  0  0  0  0  0  0  0  0  0  0
   49.3140   35.1940   39.1320 H   0  0  0  0  0  0  0  0  0  0  0  0
   50.0660   35.4650   41.5430 H   0  0  0  0  0  0  0  0  0  0  0  0
   48.8100   36.7240   41.4540 H   0  0  0  0  0  0  0  0  0  0  0  0
   47.9320   35.4660   43.1690 H   0  0  0  0  0  0  0  0  0  0  0  0
   48.9650   33.6660   42.7710 C   0  0  0  0  0  0  0  0  0  0  0  0
   48.4700   32.3240   42.2790 C   0  0  0  0  0  0  0  0  0  0  0  0
   49.3910   31.3000   42.9590 C   0  0  0  0  0  0  0  0  0  0  0  0
   50.7760   31.4070   42.4160 C   0  0  0  0  0  0  0  0  0  0  0  0
   51.0310   32.7170   41.7070 C   0  0  0  0  0  0  0  0  0  0  0  0
   50.4190   33.8890   42.4280 C   0  0  0  0  0  0  0  0  0  0  0  0
   45.7100   34.4890   41.7890 C   0  0  0  0  0  0  0  0  0  0  0  0
   45.0050   35.0810   41.1440 H   0  0  0  0  0  0  0  0  0  0  0  0
   45.2920   33.4370   41.6270 H   0  0  0  0  0  0  0  0  0  0  0  0
   44.4580   36.0950   44.9700 C   0  0  0  0  0  0  0  0  0  0  0  0
   44.7810   35.9810   43.5960 C   0  0  0  0  0  0  0  0  0  0  0  0
   45.3630   34.7890   43.1710 C   0  0  0  0  0  0  0  0  0  0  0  0
   45.5830   33.8230   44.0910 N   0  0  0  0  0  0  0  0  0  0  0  0
   45.2640   33.9530   45.4130 C   0  0  0  0  0  0  0  0  0  0  0  0
   44.7010   35.0940   45.8450 N   0  0  0  0  0  0  0  0  0  0  0  0
   44.0080   37.0370   45.2440 H   0  0  0  0  0  0  0  0  0  0  0  0
   44.6010   36.7610   42.8730 H   0  0  0  0  0  0  0  0  0  0  0  0
   45.4950   33.1040   46.0420 H   0  0  0  0  0  0  0  0  0  0  0  0
  1 17  1  0  0  0  0
  1  5  1  0  0  0  0
  2  1  1  0  0  0  0
  3  2  2  0  0  0  0
  3  4  1  0  0  0  0
  4  9  1  0  0  0  0
  4  8  1  0  0  0  0
  4  5  1  0  0  0  0
  5 11  1  0  0  0  0
  5 10  1  1  0  0  0
  6  2  1  0  0  0  0
  7  3  1  0  0  0  0
 12 11  1  0  0  0  0
 12 13  1  0  0  0  0
 14 13  1  0  0  0  0
 15 14  1  0  0  0  0
 15 16  1  0  0  0  0
 16 11  1  0  0  0  0
 17 22  1  0  0  0  0
 18 17  1  0  0  0  0
 19 17  1  0  0  0  0
 20 26  1  0  0  0  0
 20 25  1  0  0  0  0
 21 20  2  0  0  0  0
 22 21  1  0  0  0  0
 22 23  2  0  0  0  0
 23 24  1  0  0  0  0
 24 25  2  0  0  0  0
 24 28  1  0  0  0  0
 27 21  1  0  0  0  0
M  END
>  <minimizedAffinity>
-5.4328866

>  <minimizedRMSD>
0.522889495

$$$$
