
     RDKit          3D

 29 30  0  0  0  0  0  0  0  0999 V2000
   45.4423   35.0633   43.9954 C   0  0  0  0  0  0  0  0  0  0  0  0
   46.5012   34.2973   43.5003 C   0  0  0  0  0  0  0  0  0  0  0  0
   47.0133   33.2929   44.3356 C   0  0  0  0  0  0  0  0  0  0  0  0
   46.4604   33.1243   45.5584 N   0  0  0  0  0  0  0  0  0  0  0  0
   45.4279   33.8928   46.0045 C   0  0  0  0  0  0  0  0  0  0  0  0
   44.9204   34.8631   45.2192 N   0  0  0  0  0  0  0  0  0  0  0  0
   44.8994   36.1393   43.0907 C   0  0  0  0  0  0  0  0  0  0  0  0
   46.9385   34.4378   42.5211 H   0  0  0  0  0  0  0  0  0  0  0  0
   47.8399   32.6624   44.0042 H   0  0  0  0  0  0  0  0  0  0  0  0
   44.8038   35.7604   42.0590 H   0  0  0  0  0  0  0  0  0  0  0  0
   43.9352   36.5139   43.4411 H   0  0  0  0  0  0  0  0  0  0  0  0
   45.6581   36.9586   43.0863 H   0  0  0  0  0  0  0  0  0  0  0  0
   44.8995   33.6308   47.3441 C   0  0  0  0  0  0  0  0  0  0  0  0
   43.4202   33.4772   47.4119 C   0  0  0  0  0  0  0  0  0  0  0  0
   42.9788   32.2099   48.1021 C   0  0  0  0  0  0  0  0  0  0  0  0
   43.7066   31.9193   49.3842 C   0  0  0  0  0  0  0  0  0  0  0  0
   45.2004   32.1400   49.3006 C   0  0  0  0  0  0  0  0  0  0  0  0
   45.6207   32.3862   47.8710 C   0  0  0  0  0  0  0  0  0  0  0  0
   45.2716   34.4557   48.0179 H   0  0  0  0  0  0  0  0  0  0  0  0
   42.9360   34.3662   47.8998 H   0  0  0  0  0  0  0  0  0  0  0  0
   42.9793   33.4470   46.3918 H   0  0  0  0  0  0  0  0  0  0  0  0
   41.8977   32.3428   48.3696 H   0  0  0  0  0  0  0  0  0  0  0  0
   43.0046   31.3809   47.3885 H   0  0  0  0  0  0  0  0  0  0  0  0
   43.3307   32.4682   50.2459 H   0  0  0  0  0  0  0  0  0  0  0  0
   43.5691   30.8165   49.5811 H   0  0  0  0  0  0  0  0  0  0  0  0
   45.7850   31.2732   49.6731 H   0  0  0  0  0  0  0  0  0  0  0  0
   45.5203   33.0217   49.9199 H   0  0  0  0  0  0  0  0  0  0  0  0
   45.4443   31.5114   47.2427 H   0  0  0  0  0  0  0  0  0  0  0  0
   46.6976   32.6288   47.8439 H   0  0  0  0  0  0  0  0  0  0  0  0
  1  6  2  0
  2  1  1  0
  2  3  2  0
  3  4  1  0
  4  5  2  0
  6  5  1  0
  7  1  1  0
  2  8  1  0
  3  9  1  0
  7 10  1  0
  7 11  1  0
  7 12  1  0
 13 14  1  0
 14 15  1  0
 15 16  1  0
 16 17  1  0
 17 18  1  0
 18 13  1  0
 13 19  1  0
 14 20  1  0
 14 21  1  0
 15 22  1  0
 15 23  1  0
 16 24  1  0
 16 25  1  0
 17 26  1  0
 17 27  1  0
 18 28  1  0
 18 29  1  0
  5 13  1  0
M  ISO  5   8  14   9  14  10   8  11   8  12   8
M  END
>  <DihAtoms>  (1) 
3,4,12,13

>  <DihDeg>  (1) 
125.23094953198665

$$$$
