
     RDKit          3D

 29 30  0  0  0  0  0  0  0  0999 V2000
   45.4423   35.0633   43.9954 C   0  0  0  0  0  0  0  0  0  0  0  0
   46.5012   34.2973   43.5003 C   0  0  0  0  0  0  0  0  0  0  0  0
   47.0133   33.2929   44.3356 C   0  0  0  0  0  0  0  0  0  0  0  0
   46.4604   33.1243   45.5584 N   0  0  0  0  0  0  0  0  0  0  0  0
   45.4279   33.8928   46.0045 C   0  0  0  0  0  0  0  0  0  0  0  0
   44.9204   34.8631   45.2192 N   0  0  0  0  0  0  0  0  0  0  0  0
   44.8994   36.1393   43.0907 C   0  0  0  0  0  0  0  0  0  0  0  0
   46.9385   34.4378   42.5211 H   0  0  0  0  0  0  0  0  0  0  0  0
   47.8399   32.6624   44.0042 H   0  0  0  0  0  0  0  0  0  0  0  0
   44.8038   35.7604   42.0590 H   0  0  0  0  0  0  0  0  0  0  0  0
   43.9352   36.5139   43.4411 H   0  0  0  0  0  0  0  0  0  0  0  0
   45.6581   36.9586   43.0863 H   0  0  0  0  0  0  0  0  0  0  0  0
   44.8995   33.6308   47.3441 C   0  0  0  0  0  0  0  0  0  0  0  0
   43.4961   33.1346   47.3748 C   0  0  0  0  0  0  0  0  0  0  0  0
   43.3255   31.8641   48.1712 C   0  0  0  0  0  0  0  0  0  0  0  0
   44.0261   31.8697   49.5006 C   0  0  0  0  0  0  0  0  0  0  0  0
   45.4287   32.4330   49.4479 C   0  0  0  0  0  0  0  0  0  0  0  0
   45.8611   32.6460   48.0166 C   0  0  0  0  0  0  0  0  0  0  0  0
   45.0282   34.5766   47.9455 H   0  0  0  0  0  0  0  0  0  0  0  0
   42.7896   33.9213   47.7551 H   0  0  0  0  0  0  0  0  0  0  0  0
   43.1341   32.9103   46.3479 H   0  0  0  0  0  0  0  0  0  0  0  0
   42.2298   31.7577   48.3861 H   0  0  0  0  0  0  0  0  0  0  0  0
   43.5862   31.0060   47.5446 H   0  0  0  0  0  0  0  0  0  0  0  0
   43.4829   32.3864   50.2900 H   0  0  0  0  0  0  0  0  0  0  0  0
   44.1402   30.7878   49.8008 H   0  0  0  0  0  0  0  0  0  0  0  0
   46.1779   31.7673   49.9248 H   0  0  0  0  0  0  0  0  0  0  0  0
   45.4965   33.4165   49.9877 H   0  0  0  0  0  0  0  0  0  0  0  0
   45.9313   31.7027   47.4722 H   0  0  0  0  0  0  0  0  0  0  0  0
   46.8507   33.1356   48.0034 H   0  0  0  0  0  0  0  0  0  0  0  0
  1  6  2  0
  2  1  1  0
  2  3  2  0
  3  4  1  0
  4  5  2  0
  6  5  1  0
  7  1  1  0
  2  8  1  0
  3  9  1  0
  7 10  1  0
  7 11  1  0
  7 12  1  0
 13 14  1  0
 14 15  1  0
 15 16  1  0
 16 17  1  0
 17 18  1  0
 18 13  1  0
 13 19  1  0
 14 20  1  0
 14 21  1  0
 15 22  1  0
 15 23  1  0
 16 24  1  0
 16 25  1  0
 17 26  1  0
 17 27  1  0
 18 28  1  0
 18 29  1  0
  5 13  1  0
M  ISO  5   8  14   9  14  10   8  11   8  12   8
M  END
>  <DihAtoms>  (1) 
3,4,12,13

>  <DihDeg>  (1) 
125.23094953198665

$$$$
