
 OpenBabel03252508433D

 28 30  0  0  0  0  0  0  0  0999 V2000
   45.0420   33.2260   42.2840 C   0  0  0  0  0  0  0  0  0  0  0  0
   45.9080   32.7990   41.2770 C   0  0  0  0  0  0  0  0  0  0  0  0
   45.5410   33.0510   39.9640 C   0  0  0  0  0  0  0  0  0  0  0  0
   44.3730   33.6940   39.6870 C   0  0  0  0  0  0  0  0  0  0  0  0
   43.5170   34.1190   40.6540 C   0  0  0  0  0  0  0  0  0  0  0  0
   43.9000   33.8570   41.9670 C   0  0  0  0  0  0  0  0  0  0  0  0
   46.1350   32.7550   39.1410 H   0  0  0  0  0  0  0  0  0  0  0  0
   44.0550   33.9090   38.6650 H   0  0  0  0  0  0  0  0  0  0  0  0
   42.5900   34.6260   40.5410 H   0  0  0  0  0  0  0  0  0  0  0  0
   43.2750   34.1630   42.8100 H   0  0  0  0  0  0  0  0  0  0  0  0
   46.2180   33.4940   45.8730 C   0  0  0  0  0  0  0  0  0  0  0  0
   45.8320   33.8980   44.5770 C   0  0  0  0  0  0  0  0  0  0  0  0
   45.4630   32.9350   43.6580 C   0  0  0  0  0  0  0  0  0  0  0  0
   45.4950   31.6380   44.0600 N   0  0  0  0  0  0  0  0  0  0  0  0
   45.8680   31.2620   45.3060 C   0  0  0  0  0  0  0  0  0  0  0  0
   46.2280   32.1840   46.2100 N   0  0  0  0  0  0  0  0  0  0  0  0
   46.5030   34.2680   46.5710 H   0  0  0  0  0  0  0  0  0  0  0  0
   45.7990   34.9110   44.2390 H   0  0  0  0  0  0  0  0  0  0  0  0
   45.8760   30.2140   45.5740 H   0  0  0  0  0  0  0  0  0  0  0  0
   47.1680   32.1120   41.6290 C   0  0  0  0  0  0  0  0  0  0  0  0
   47.1560   31.9820   42.7400 H   0  0  0  0  0  0  0  0  0  0  0  0
   47.0530   31.0610   41.2380 H   0  0  0  0  0  0  0  0  0  0  0  0
   48.4200   32.7270   41.1460 C   0  0  0  0  0  3  0  0  0  0  0  0
   49.4180   32.7090   42.3180 C   0  0  0  0  0  2  0  0  0  0  0  0
   50.4460   33.7890   42.2080 C   0  0  0  0  0  2  0  0  0  0  0  0
   49.7650   35.0740   42.6710 C   0  0  0  0  0  2  0  0  0  0  0  0
   48.3550   35.0130   42.1820 C   0  0  0  0  0  2  0  0  0  0  0  0
   48.1650   34.2170   40.9130 C   0  0  0  0  0  2  0  0  0  0  0  0
  1 13  1  0  0  0  0
  2 20  1  0  0  0  0
  2  1  2  0  0  0  0
  3  2  1  0  0  0  0
  4  3  2  0  0  0  0
  4  5  1  0  0  0  0
  5  6  2  0  0  0  0
  6  1  1  0  0  0  0
  6 10  1  0  0  0  0
  7  3  1  0  0  0  0
  8  4  1  0  0  0  0
  9  5  1  0  0  0  0
 11 16  1  0  0  0  0
 11 17  1  0  0  0  0
 12 11  2  0  0  0  0
 13 14  2  0  0  0  0
 13 12  1  0  0  0  0
 14 15  1  0  0  0  0
 15 19  1  0  0  0  0
 15 16  2  0  0  0  0
 18 12  1  0  0  0  0
 20 21  1  0  0  0  0
 22 20  1  0  0  0  0
 23 20  1  0  0  0  0
 23 24  1  0  0  0  0
 25 24  1  0  0  0  0
 25 26  1  0  0  0  0
 27 26  1  0  0  0  0
 28 23  1  0  0  0  0
 28 27  1  0  0  0  0
M  END
>  <minimizedAffinity>
-4.42063904

>  <minimizedRMSD>
3.3991127

$$$$
