
 OpenBabel03242518273D

 42 46  0  0  1  0  0  0  0  0999 V2000
   32.3540   29.9390   34.6120 C   0  0  0  0  0  0  0  0  0  0  0  0
   31.1720   30.3540   35.2270 C   0  0  0  0  0  0  0  0  0  0  0  0
   31.0370   30.1030   36.5980 C   0  0  0  0  0  0  0  0  0  0  0  0
   32.0390   29.4780   37.2660 N   0  0  0  0  0  0  0  0  0  0  0  0
   33.1770   29.0910   36.6200 C   0  0  0  0  0  0  0  0  0  0  0  0
   33.3290   29.3190   35.3120 N   0  0  0  0  0  0  0  0  0  0  0  0
   32.5270   30.1010   33.5480 H   0  0  0  0  0  0  0  0  0  0  0  0
   30.1290   30.4270   37.0460 H   0  0  0  0  0  0  0  0  0  0  0  0
   30.2160   30.9890   34.4190 N   0  0  0  0  0  0  0  0  0  0  0  0
   29.7950   32.3070   34.7780 C   0  0  0  0  0  0  0  0  0  0  0  0
   28.7020   32.8440   33.9300 C   0  0  0  0  0  0  0  0  0  0  0  0
   28.9420   32.6780   32.5300 N   0  0  0  0  0  0  0  0  0  0  0  0
   29.5910   31.5020   32.1170 C   0  0  0  0  0  0  0  0  0  0  0  0
   29.5910   30.4670   33.2430 C   0  0  0  0  0  0  0  0  0  0  0  0
   29.4960   32.3380   35.8410 H   0  0  0  0  0  0  0  0  0  0  0  0
   30.6730   32.9980   34.6480 H   0  0  0  0  0  0  0  0  0  0  0  0
   28.5740   33.9110   34.1630 H   0  0  0  0  0  0  0  0  0  0  0  0
   27.7630   32.2820   34.1800 H   0  0  0  0  0  0  0  0  0  0  0  0
   28.0050   32.7510   32.0520 H   0  0  0  0  0  0  0  0  0  0  0  0
   29.0910   30.9690   31.2570 H   0  0  0  0  0  0  0  0  0  0  0  0
   30.6450   31.6120   31.7850 H   0  0  0  0  0  0  0  0  0  0  0  0
   28.5640   30.0980   33.4070 H   0  0  0  0  0  0  0  0  0  0  0  0
   30.2020   29.6180   32.8730 H   0  0  0  0  0  0  0  0  0  0  0  0
   34.4420   27.0930   37.3270 C   0  0  0  0  0  0  0  0  0  0  0  0
   34.2110   28.4200   37.4220 C   0  0  0  0  0  0  0  0  0  0  0  0
   34.9810   29.1670   38.3080 C   0  0  0  0  0  0  0  0  0  0  0  0
   35.9520   28.5430   39.0630 C   0  0  0  0  0  0  0  0  0  0  0  0
   36.1770   27.1660   38.9500 C   0  0  0  0  0  0  0  0  0  0  0  0
   35.4070   26.4220   38.0650 C   0  0  0  0  0  0  0  0  0  0  0  0
   37.2110   26.8510   39.8350 O   0  0  0  0  0  0  0  0  0  0  0  0
   37.3170   27.9210   40.7590 C   0  0  2  0  0  0  0  0  0  0  0  0
   36.8660   29.0250   40.0200 O   0  0  0  0  0  0  0  0  0  0  0  0
   33.8470   26.4990   36.6390 H   0  0  0  0  0  0  0  0  0  0  0  0
   34.8040   30.2320   38.3930 H   0  0  0  0  0  0  0  0  0  0  0  0
   35.5640   25.3620   37.9630 H   0  0  0  0  0  0  0  0  0  0  0  0
   36.5780   27.7420   41.5540 H   0  0  0  0  0  0  0  0  0  0  0  0
   38.7160   28.1000   41.2900 C   0  0  0  0  0  3  0  0  0  0  0  0
   39.2030   26.8820   42.0120 C   0  0  0  0  0  2  0  0  0  0  0  0
   39.0620   26.9460   43.5000 C   0  0  0  0  0  2  0  0  0  0  0  0
   37.7670   27.5480   43.9700 C   0  0  0  0  0  2  0  0  0  0  0  0
   37.6490   28.9260   43.4100 C   0  0  0  0  0  2  0  0  0  0  0  0
   38.6560   29.2210   42.3130 C   0  0  0  0  0  2  0  0  0  0  0  0
  1  2  2  0  0  0  0
  1  6  1  0  0  0  0
  2  3  1  0  0  0  0
  3  8  1  0  0  0  0
  3  4  2  0  0  0  0
  5  4  1  0  0  0  0
  5 25  1  0  0  0  0
  6  5  2  0  0  0  0
  7  1  1  0  0  0  0
  9 10  1  0  0  0  0
  9  2  1  0  0  0  0
 10 15  1  0  0  0  0
 11 17  1  0  0  0  0
 11 18  1  0  0  0  0
 11 10  1  0  0  0  0
 12 11  1  0  0  0  0
 13 12  1  0  0  0  0
 13 14  1  0  0  0  0
 14 22  1  0  0  0  0
 14  9  1  0  0  0  0
 16 10  1  0  0  0  0
 19 12  1  0  0  0  0
 20 13  1  0  0  0  0
 21 13  1  0  0  0  0
 23 14  1  0  0  0  0
 24 25  2  0  0  0  0
 24 29  1  0  0  0  0
 25 26  1  0  0  0  0
 26 34  1  0  0  0  0
 26 27  2  0  0  0  0
 27 32  1  0  0  0  0
 28 27  1  0  0  0  0
 28 30  1  0  0  0  0
 29 28  2  0  0  0  0
 30 31  1  0  0  0  0
 31 37  1  0  0  0  0
 31 36  1  1  0  0  0
 32 31  1  0  0  0  0
 33 24  1  0  0  0  0
 35 29  1  0  0  0  0
 37 38  1  0  0  0  0
 37 42  1  0  0  0  0
 38 39  1  0  0  0  0
 39 40  1  0  0  0  0
 41 40  1  0  0  0  0
 42 41  1  0  0  0  0
M  END
>  <minimizedAffinity>
-6.06175518

$$$$

 OpenBabel03242518273D

 42 46  0  0  1  0  0  0  0  0999 V2000
   37.6750   26.3080   40.0330 C   0  0  0  0  0  0  0  0  0  0  0  0
   37.5510   26.9370   41.2720 C   0  0  0  0  0  0  0  0  0  0  0  0
   36.6490   28.0060   41.3640 C   0  0  0  0  0  0  0  0  0  0  0  0
   35.9440   28.3820   40.2680 N   0  0  0  0  0  0  0  0  0  0  0  0
   36.1000   27.7340   39.0770 C   0  0  0  0  0  0  0  0  0  0  0  0
   36.9550   26.7120   38.9640 N   0  0  0  0  0  0  0  0  0  0  0  0
   38.3570   25.4700   39.8890 H   0  0  0  0  0  0  0  0  0  0  0  0
   36.5710   28.4710   42.3170 H   0  0  0  0  0  0  0  0  0  0  0  0
   38.3400   26.4480   42.3240 N   0  0  0  0  0  0  0  0  0  0  0  0
   38.9080   25.1420   42.1920 C   0  0  0  0  0  0  0  0  0  0  0  0
   39.6280   24.6720   43.4020 C   0  0  0  0  0  0  0  0  0  0  0  0
   40.5340   25.6430   43.9300 N   0  0  0  0  0  0  0  0  0  0  0  0
   40.1510   26.9930   43.8650 C   0  0  0  0  0  0  0  0  0  0  0  0
   38.6590   27.1110   43.5500 C   0  0  0  0  0  0  0  0  0  0  0  0
   38.1290   24.4110   41.9100 H   0  0  0  0  0  0  0  0  0  0  0  0
   39.6630   25.1760   41.3600 H   0  0  0  0  0  0  0  0  0  0  0  0
   40.1740   23.7520   43.1450 H   0  0  0  0  0  0  0  0  0  0  0  0
   38.8650   24.4560   44.1960 H   0  0  0  0  0  0  0  0  0  0  0  0
   40.7130   25.3750   44.9350 H   0  0  0  0  0  0  0  0  0  0  0  0
   40.2710   27.5620   44.8330 H   0  0  0  0  0  0  0  0  0  0  0  0
   40.6850   27.6210   43.1200 H   0  0  0  0  0  0  0  0  0  0  0  0
   38.0690   26.7640   44.4160 H   0  0  0  0  0  0  0  0  0  0  0  0
   38.4630   28.1960   43.4180 H   0  0  0  0  0  0  0  0  0  0  0  0
   35.8210   28.3630   36.7070 C   0  0  0  0  0  0  0  0  0  0  0  0
   35.2960   28.2090   37.9410 C   0  0  0  0  0  0  0  0  0  0  0  0
   33.9510   28.5100   38.1350 C   0  0  0  0  0  0  0  0  0  0  0  0
   33.1920   28.9560   37.0730 C   0  0  0  0  0  0  0  0  0  0  0  0
   33.7540   29.1090   35.8000 C   0  0  0  0  0  0  0  0  0  0  0  0
   35.0970   28.8080   35.6100 C   0  0  0  0  0  0  0  0  0  0  0  0
   32.7360   29.5700   34.9610 O   0  0  0  0  0  0  0  0  0  0  0  0
   31.7060   30.0830   35.7890 C   0  0  2  0  0  0  0  0  0  0  0  0
   31.8380   29.3300   36.9650 O   0  0  0  0  0  0  0  0  0  0  0  0
   36.8700   28.1310   36.5450 H   0  0  0  0  0  0  0  0  0  0  0  0
   33.5190   28.3910   39.1200 H   0  0  0  0  0  0  0  0  0  0  0  0
   35.5490   28.9190   34.6390 H   0  0  0  0  0  0  0  0  0  0  0  0
   31.9730   31.1210   36.0390 H   0  0  0  0  0  0  0  0  0  0  0  0
   30.3400   29.9650   35.1640 C   0  0  0  0  0  3  0  0  0  0  0  0
   30.3980   30.0280   33.6690 C   0  0  0  0  0  2  0  0  0  0  0  0
   30.1020   31.3780   33.0950 C   0  0  0  0  0  2  0  0  0  0  0  0
   30.7210   32.5190   33.8520 C   0  0  0  0  0  2  0  0  0  0  0  0
   30.2380   32.4750   35.2640 C   0  0  0  0  0  2  0  0  0  0  0  0
   29.5430   31.1740   35.6230 C   0  0  0  0  0  2  0  0  0  0  0  0
  1  2  1  0  0  0  0
  2  3  2  0  0  0  0
  2  9  1  0  0  0  0
  3  8  1  0  0  0  0
  4  3  1  0  0  0  0
  5  4  2  0  0  0  0
  6  5  1  0  0  0  0
  6  1  2  0  0  0  0
  7  1  1  0  0  0  0
  9 14  1  0  0  0  0
 10  9  1  0  0  0  0
 10 11  1  0  0  0  0
 11 12  1  0  0  0  0
 11 18  1  0  0  0  0
 12 19  1  0  0  0  0
 13 12  1  0  0  0  0
 13 20  1  0  0  0  0
 14 13  1  0  0  0  0
 14 22  1  0  0  0  0
 15 10  1  0  0  0  0
 16 10  1  0  0  0  0
 17 11  1  0  0  0  0
 21 13  1  0  0  0  0
 23 14  1  0  0  0  0
 24 25  1  0  0  0  0
 25 26  2  0  0  0  0
 25  5  1  0  0  0  0
 26 34  1  0  0  0  0
 27 26  1  0  0  0  0
 28 27  2  0  0  0  0
 29 28  1  0  0  0  0
 29 24  2  0  0  0  0
 30 31  1  0  0  0  0
 30 28  1  0  0  0  0
 31 36  1  1  0  0  0
 31 32  1  0  0  0  0
 32 27  1  0  0  0  0
 33 24  1  0  0  0  0
 35 29  1  0  0  0  0
 37 42  1  0  0  0  0
 37 31  1  0  0  0  0
 38 37  1  0  0  0  0
 39 38  1  0  0  0  0
 39 40  1  0  0  0  0
 40 41  1  0  0  0  0
 41 42  1  0  0  0  0
M  END
>  <minimizedAffinity>
-5.95889997

$$$$

 OpenBabel03242518273D

 42 46  0  0  1  0  0  0  0  0999 V2000
   33.3840   29.0610   35.0620 C   0  0  0  0  0  0  0  0  0  0  0  0
   32.1000   29.5250   35.3500 C   0  0  0  0  0  0  0  0  0  0  0  0
   31.7440   29.6400   36.7000 C   0  0  0  0  0  0  0  0  0  0  0  0
   32.6420   29.3020   37.6590 N   0  0  0  0  0  0  0  0  0  0  0  0
   33.8870   28.8520   37.3280 C   0  0  0  0  0  0  0  0  0  0  0  0
   34.2500   28.7340   36.0460 N   0  0  0  0  0  0  0  0  0  0  0  0
   33.7290   28.9460   34.0340 H   0  0  0  0  0  0  0  0  0  0  0  0
   30.7610   29.9950   36.8960 H   0  0  0  0  0  0  0  0  0  0  0  0
   31.2720   29.8390   34.2610 N   0  0  0  0  0  0  0  0  0  0  0  0
   30.7500   28.7640   33.4770 C   0  0  0  0  0  0  0  0  0  0  0  0
   29.9820   29.2040   32.2850 C   0  0  0  0  0  0  0  0  0  0  0  0
   29.0210   30.2200   32.5780 N   0  0  0  0  0  0  0  0  0  0  0  0
   29.3670   31.1830   33.5410 C   0  0  0  0  0  0  0  0  0  0  0  0
   30.8700   31.1400   33.8250 C   0  0  0  0  0  0  0  0  0  0  0  0
   31.5640   28.0830   33.1690 H   0  0  0  0  0  0  0  0  0  0  0  0
   30.0390   28.1790   34.1210 H   0  0  0  0  0  0  0  0  0  0  0  0
   29.4780   28.3260   31.8540 H   0  0  0  0  0  0  0  0  0  0  0  0
   30.7090   29.6300   31.5440 H   0  0  0  0  0  0  0  0  0  0  0  0
   28.7980   30.6990   31.6650 H   0  0  0  0  0  0  0  0  0  0  0  0
   29.1800   32.2510   33.2250 H   0  0  0  0  0  0  0  0  0  0  0  0
   28.8550   31.1040   34.5230 H   0  0  0  0  0  0  0  0  0  0  0  0
   31.4240   31.5100   32.9440 H   0  0  0  0  0  0  0  0  0  0  0  0
   31.0410   31.8530   34.6580 H   0  0  0  0  0  0  0  0  0  0  0  0
   34.7140   29.1090   39.6380 C   0  0  0  0  0  0  0  0  0  0  0  0
   34.7950   28.5090   38.4310 C   0  0  0  0  0  0  0  0  0  0  0  0
   35.7720   27.5370   38.2360 C   0  0  0  0  0  0  0  0  0  0  0  0
   36.6280   27.2120   39.2670 C   0  0  0  0  0  0  0  0  0  0  0  0
   36.5280   27.8440   40.5120 C   0  0  0  0  0  0  0  0  0  0  0  0
   35.5530   28.8140   40.7050 C   0  0  0  0  0  0  0  0  0  0  0  0
   37.5240   27.2960   41.3250 O   0  0  0  0  0  0  0  0  0  0  0  0
   38.4640   26.6640   40.4740 C   0  0  2  0  0  0  0  0  0  0  0  0
   37.6890   26.2910   39.3650 O   0  0  0  0  0  0  0  0  0  0  0  0
   33.9560   29.8690   39.8030 H   0  0  0  0  0  0  0  0  0  0  0  0
   35.8470   27.0500   37.2720 H   0  0  0  0  0  0  0  0  0  0  0  0
   35.4590   29.3120   41.6550 H   0  0  0  0  0  0  0  0  0  0  0  0
   39.1670   27.4370   40.1300 H   0  0  0  0  0  0  0  0  0  0  0  0
   39.1550   25.4960   41.1290 C   0  0  0  0  0  3  0  0  0  0  0  0
   39.0600   24.2510   40.3020 C   0  0  0  0  0  2  0  0  0  0  0  0
   37.9660   23.3170   40.7130 C   0  0  0  0  0  2  0  0  0  0  0  0
   36.6760   24.0000   41.0720 C   0  0  0  0  0  2  0  0  0  0  0  0
   36.9370   24.9620   42.1830 C   0  0  0  0  0  2  0  0  0  0  0  0
   38.4130   25.2190   42.4250 C   0  0  0  0  0  2  0  0  0  0  0  0
  1  2  2  0  0  0  0
  1  6  1  0  0  0  0
  2  3  1  0  0  0  0
  3  8  1  0  0  0  0
  3  4  2  0  0  0  0
  5  4  1  0  0  0  0
  5 25  1  0  0  0  0
  6  5  2  0  0  0  0
  7  1  1  0  0  0  0
  9  2  1  0  0  0  0
 10 16  1  0  0  0  0
 10  9  1  0  0  0  0
 11 12  1  0  0  0  0
 11 10  1  0  0  0  0
 12 13  1  0  0  0  0
 13 14  1  0  0  0  0
 13 21  1  0  0  0  0
 14  9  1  0  0  0  0
 14 23  1  0  0  0  0
 15 10  1  0  0  0  0
 17 11  1  0  0  0  0
 18 11  1  0  0  0  0
 19 12  1  0  0  0  0
 20 13  1  0  0  0  0
 22 14  1  0  0  0  0
 24 33  1  0  0  0  0
 24 29  1  0  0  0  0
 25 24  2  0  0  0  0
 26 25  1  0  0  0  0
 26 27  2  0  0  0  0
 27 32  1  0  0  0  0
 27 28  1  0  0  0  0
 28 29  2  0  0  0  0
 28 30  1  0  0  0  0
 29 35  1  0  0  0  0
 31 36  1  6  0  0  0
 31 37  1  0  0  0  0
 31 30  1  0  0  0  0
 32 31  1  0  0  0  0
 34 26  1  0  0  0  0
 37 42  1  0  0  0  0
 38 39  1  0  0  0  0
 38 37  1  0  0  0  0
 39 40  1  0  0  0  0
 40 41  1  0  0  0  0
 41 42  1  0  0  0  0
M  END
>  <minimizedAffinity>
-5.75441837

$$$$

 OpenBabel03242518273D

 42 46  0  0  1  0  0  0  0  0999 V2000
   38.3860   31.4040   37.9510 C   0  0  0  0  0  0  0  0  0  0  0  0
   38.1710   32.0470   39.1710 C   0  0  0  0  0  0  0  0  0  0  0  0
   37.0900   31.6110   39.9480 C   0  0  0  0  0  0  0  0  0  0  0  0
   36.3070   30.5990   39.4960 N   0  0  0  0  0  0  0  0  0  0  0  0
   36.5570   30.0010   38.2960 C   0  0  0  0  0  0  0  0  0  0  0  0
   37.5830   30.3990   37.5360 N   0  0  0  0  0  0  0  0  0  0  0  0
   39.2070   31.6910   37.2950 H   0  0  0  0  0  0  0  0  0  0  0  0
   36.9440   32.1160   40.8720 H   0  0  0  0  0  0  0  0  0  0  0  0
   39.0570   33.0790   39.5170 N   0  0  0  0  0  0  0  0  0  0  0  0
   38.5420   34.1950   40.2490 C   0  0  0  0  0  0  0  0  0  0  0  0
   39.5300   35.2820   40.4650 C   0  0  0  0  0  0  0  0  0  0  0  0
   40.7900   34.8100   40.9470 N   0  0  0  0  0  0  0  0  0  0  0  0
   41.2520   33.5770   40.4570 C   0  0  0  0  0  0  0  0  0  0  0  0
   40.4540   33.1590   39.2210 C   0  0  0  0  0  0  0  0  0  0  0  0
   37.6420   34.5980   39.7520 H   0  0  0  0  0  0  0  0  0  0  0  0
   38.2370   33.8290   41.2670 H   0  0  0  0  0  0  0  0  0  0  0  0
   39.1020   36.0010   41.1800 H   0  0  0  0  0  0  0  0  0  0  0  0
   39.7120   35.7840   39.4790 H   0  0  0  0  0  0  0  0  0  0  0  0
   41.4970   35.5620   40.7320 H   0  0  0  0  0  0  0  0  0  0  0  0
   42.3230   33.5870   40.0980 H   0  0  0  0  0  0  0  0  0  0  0  0
   41.2170   32.7210   41.1640 H   0  0  0  0  0  0  0  0  0  0  0  0
   40.6970   33.8280   38.3780 H   0  0  0  0  0  0  0  0  0  0  0  0
   40.8110   32.1400   38.9610 H   0  0  0  0  0  0  0  0  0  0  0  0
   34.4810   29.1510   37.2670 C   0  0  0  0  0  0  0  0  0  0  0  0
   35.6580   28.9130   37.8850 C   0  0  0  0  0  0  0  0  0  0  0  0
   36.0220   27.5930   38.1370 C   0  0  0  0  0  0  0  0  0  0  0  0
   35.1820   26.5690   37.7540 C   0  0  0  0  0  0  0  0  0  0  0  0
   33.9660   26.8350   37.1140 C   0  0  0  0  0  0  0  0  0  0  0  0
   33.6050   28.1530   36.8640 C   0  0  0  0  0  0  0  0  0  0  0  0
   33.3610   25.6010   36.8630 O   0  0  0  0  0  0  0  0  0  0  0  0
   33.9870   24.6450   37.7020 C   0  0  2  0  0  0  0  0  0  0  0  0
   35.2780   25.1680   37.8720 O   0  0  0  0  0  0  0  0  0  0  0  0
   34.1870   30.1770   37.0660 H   0  0  0  0  0  0  0  0  0  0  0  0
   36.9630   27.3900   38.6320 H   0  0  0  0  0  0  0  0  0  0  0  0
   32.6740   28.3800   36.3720 H   0  0  0  0  0  0  0  0  0  0  0  0
   33.4890   24.6930   38.6820 H   0  0  0  0  0  0  0  0  0  0  0  0
   33.9860   23.2580   37.1130 C   0  0  0  0  0  3  0  0  0  0  0  0
   32.6040   22.7950   36.7690 C   0  0  0  0  0  2  0  0  0  0  0  0
   31.9690   21.9200   37.8050 C   0  0  0  0  0  2  0  0  0  0  0  0
   32.2090   22.3680   39.2190 C   0  0  0  0  0  2  0  0  0  0  0  0
   33.6810   22.4190   39.4620 C   0  0  0  0  0  2  0  0  0  0  0  0
   34.5060   22.3240   38.1920 C   0  0  0  0  0  2  0  0  0  0  0  0
  1  2  1  0  0  0  0
  2  9  1  0  0  0  0
  2  3  2  0  0  0  0
  3  8  1  0  0  0  0
  4  3  1  0  0  0  0
  5  4  2  0  0  0  0
  6  1  2  0  0  0  0
  6  5  1  0  0  0  0
  7  1  1  0  0  0  0
  9 10  1  0  0  0  0
 10 11  1  0  0  0  0
 10 16  1  0  0  0  0
 11 12  1  0  0  0  0
 11 17  1  0  0  0  0
 13 12  1  0  0  0  0
 13 21  1  0  0  0  0
 14  9  1  0  0  0  0
 14 13  1  0  0  0  0
 15 10  1  0  0  0  0
 18 11  1  0  0  0  0
 19 12  1  0  0  0  0
 20 13  1  0  0  0  0
 22 14  1  0  0  0  0
 23 14  1  0  0  0  0
 24 25  1  0  0  0  0
 25 26  2  0  0  0  0
 25  5  1  0  0  0  0
 26 34  1  0  0  0  0
 27 32  1  0  0  0  0
 27 26  1  0  0  0  0
 28 27  2  0  0  0  0
 29 28  1  0  0  0  0
 29 24  2  0  0  0  0
 30 28  1  0  0  0  0
 30 31  1  0  0  0  0
 31 32  1  0  0  0  0
 31 36  1  1  0  0  0
 33 24  1  0  0  0  0
 35 29  1  0  0  0  0
 37 31  1  0  0  0  0
 37 42  1  0  0  0  0
 38 37  1  0  0  0  0
 38 39  1  0  0  0  0
 39 40  1  0  0  0  0
 40 41  1  0  0  0  0
 42 41  1  0  0  0  0
M  END
>  <minimizedAffinity>
-5.5422163

$$$$

 OpenBabel03242518273D

 42 46  0  0  1  0  0  0  0  0999 V2000
   33.7830   26.2390   35.0790 C   0  0  0  0  0  0  0  0  0  0  0  0
   34.5160   26.7230   33.9950 C   0  0  0  0  0  0  0  0  0  0  0  0
   35.5010   27.6840   34.2600 C   0  0  0  0  0  0  0  0  0  0  0  0
   35.7020   28.1010   35.5360 N   0  0  0  0  0  0  0  0  0  0  0  0
   34.9590   27.5980   36.5630 C   0  0  0  0  0  0  0  0  0  0  0  0
   34.0130   26.6800   36.3350 N   0  0  0  0  0  0  0  0  0  0  0  0
   33.0020   25.4910   34.9470 H   0  0  0  0  0  0  0  0  0  0  0  0
   36.0470   28.0390   33.4200 H   0  0  0  0  0  0  0  0  0  0  0  0
   34.2060   26.2060   32.7280 N   0  0  0  0  0  0  0  0  0  0  0  0
   32.8300   26.1320   32.3470 C   0  0  0  0  0  0  0  0  0  0  0  0
   32.6010   25.4660   31.0390 C   0  0  0  0  0  0  0  0  0  0  0  0
   33.4590   25.9500   30.0040 N   0  0  0  0  0  0  0  0  0  0  0  0
   34.7760   26.2900   30.3580 C   0  0  0  0  0  0  0  0  0  0  0  0
   35.1210   25.7290   31.7380 C   0  0  0  0  0  0  0  0  0  0  0  0
   32.2400   25.6280   33.1330 H   0  0  0  0  0  0  0  0  0  0  0  0
   32.4420   27.1820   32.2460 H   0  0  0  0  0  0  0  0  0  0  0  0
   31.5490   25.6170   30.7540 H   0  0  0  0  0  0  0  0  0  0  0  0
   32.8100   24.3720   31.1680 H   0  0  0  0  0  0  0  0  0  0  0  0
   33.4760   25.2090   29.2540 H   0  0  0  0  0  0  0  0  0  0  0  0
   35.5700   25.8560   29.6810 H   0  0  0  0  0  0  0  0  0  0  0  0
   35.0140   27.3740   30.3850 H   0  0  0  0  0  0  0  0  0  0  0  0
   35.1920   24.6290   31.6840 H   0  0  0  0  0  0  0  0  0  0  0  0
   36.1300   26.1230   31.9810 H   0  0  0  0  0  0  0  0  0  0  0  0
   34.3200   28.7750   38.6360 C   0  0  0  0  0  0  0  0  0  0  0  0
   35.2440   28.1070   37.9130 C   0  0  0  0  0  0  0  0  0  0  0  0
   36.5020   27.8990   38.4700 C   0  0  0  0  0  0  0  0  0  0  0  0
   36.7750   28.3740   39.7350 C   0  0  0  0  0  0  0  0  0  0  0  0
   35.8040   29.0640   40.4710 C   0  0  0  0  0  0  0  0  0  0  0  0
   34.5490   29.2710   39.9120 C   0  0  0  0  0  0  0  0  0  0  0  0
   36.3890   29.4060   41.6930 O   0  0  0  0  0  0  0  0  0  0  0  0
   37.7930   29.3020   41.5330 C   0  0  2  0  0  0  0  0  0  0  0  0
   37.9290   28.3180   40.5430 O   0  0  0  0  0  0  0  0  0  0  0  0
   33.3350   28.9440   38.2110 H   0  0  0  0  0  0  0  0  0  0  0  0
   37.2510   27.3650   37.8990 H   0  0  0  0  0  0  0  0  0  0  0  0
   33.7880   29.7990   40.4610 H   0  0  0  0  0  0  0  0  0  0  0  0
   38.1450   30.2480   41.0970 H   0  0  0  0  0  0  0  0  0  0  0  0
   38.5040   28.9490   42.8140 C   0  0  0  0  0  3  0  0  0  0  0  0
   39.4430   27.7950   42.6360 C   0  0  0  0  0  2  0  0  0  0  0  0
   38.8840   26.4720   43.0530 C   0  0  0  0  0  2  0  0  0  0  0  0
   37.4510   26.2560   42.6540 C   0  0  0  0  0  2  0  0  0  0  0  0
   36.6190   27.3440   43.2470 C   0  0  0  0  0  2  0  0  0  0  0  0
   37.4380   28.4970   43.7970 C   0  0  0  0  0  2  0  0  0  0  0  0
  1  6  1  0  0  0  0
  2  3  1  0  0  0  0
  2  1  2  0  0  0  0
  3  4  2  0  0  0  0
  4  5  1  0  0  0  0
  5 25  1  0  0  0  0
  6  5  2  0  0  0  0
  7  1  1  0  0  0  0
  8  3  1  0  0  0  0
  9  2  1  0  0  0  0
 10  9  1  0  0  0  0
 10 15  1  0  0  0  0
 11 18  1  0  0  0  0
 11 10  1  0  0  0  0
 12 13  1  0  0  0  0
 12 11  1  0  0  0  0
 13 21  1  0  0  0  0
 13 14  1  0  0  0  0
 14 23  1  0  0  0  0
 14  9  1  0  0  0  0
 16 10  1  0  0  0  0
 17 11  1  0  0  0  0
 19 12  1  0  0  0  0
 20 13  1  0  0  0  0
 22 14  1  0  0  0  0
 24 29  1  0  0  0  0
 25 26  1  0  0  0  0
 25 24  2  0  0  0  0
 26 27  2  0  0  0  0
 27 28  1  0  0  0  0
 27 32  1  0  0  0  0
 28 30  1  0  0  0  0
 29 35  1  0  0  0  0
 29 28  2  0  0  0  0
 31 36  1  6  0  0  0
 31 30  1  0  0  0  0
 31 37  1  0  0  0  0
 32 31  1  0  0  0  0
 33 24  1  0  0  0  0
 34 26  1  0  0  0  0
 37 42  1  0  0  0  0
 38 37  1  0  0  0  0
 38 39  1  0  0  0  0
 40 39  1  0  0  0  0
 40 41  1  0  0  0  0
 41 42  1  0  0  0  0
M  END
>  <minimizedAffinity>
-5.49233198

$$$$

 OpenBabel03242518273D

 42 46  0  0  1  0  0  0  0  0999 V2000
   31.8690   29.4890   37.0040 C   0  0  0  0  0  0  0  0  0  0  0  0
   32.2700   29.3400   35.6760 C   0  0  0  0  0  0  0  0  0  0  0  0
   33.5880   28.9260   35.4430 C   0  0  0  0  0  0  0  0  0  0  0  0
   34.4100   28.6900   36.4960 N   0  0  0  0  0  0  0  0  0  0  0  0
   33.9720   28.8500   37.7780 C   0  0  0  0  0  0  0  0  0  0  0  0
   32.7180   29.2440   38.0250 N   0  0  0  0  0  0  0  0  0  0  0  0
   30.8590   29.8080   37.2590 H   0  0  0  0  0  0  0  0  0  0  0  0
   33.8720   28.8190   34.4240 H   0  0  0  0  0  0  0  0  0  0  0  0
   31.3180   29.6170   34.6820 N   0  0  0  0  0  0  0  0  0  0  0  0
   31.3190   30.9190   34.0900 C   0  0  0  0  0  0  0  0  0  0  0  0
   30.2050   31.1480   33.1360 C   0  0  0  0  0  0  0  0  0  0  0  0
   30.0440   30.0860   32.1930 N   0  0  0  0  0  0  0  0  0  0  0  0
   30.2770   28.7760   32.6430 C   0  0  0  0  0  0  0  0  0  0  0  0
   30.3150   28.7340   34.1710 C   0  0  0  0  0  0  0  0  0  0  0  0
   31.3100   31.6970   34.8730 H   0  0  0  0  0  0  0  0  0  0  0  0
   32.2730   31.0310   33.5050 H   0  0  0  0  0  0  0  0  0  0  0  0
   30.3920   32.0940   32.6060 H   0  0  0  0  0  0  0  0  0  0  0  0
   29.2540   31.2220   33.7270 H   0  0  0  0  0  0  0  0  0  0  0  0
   29.0610   30.1610   31.8180 H   0  0  0  0  0  0  0  0  0  0  0  0
   29.4680   28.0360   32.3710 H   0  0  0  0  0  0  0  0  0  0  0  0
   31.2100   28.2910   32.2870 H   0  0  0  0  0  0  0  0  0  0  0  0
   29.3050   28.9220   34.5730 H   0  0  0  0  0  0  0  0  0  0  0  0
   30.6000   27.6960   34.4380 H   0  0  0  0  0  0  0  0  0  0  0  0
   34.9270   29.2680   40.0150 C   0  0  0  0  0  0  0  0  0  0  0  0
   34.9300   28.5720   38.8580 C   0  0  0  0  0  0  0  0  0  0  0  0
   35.8750   27.5630   38.6910 C   0  0  0  0  0  0  0  0  0  0  0  0
   36.7760   27.2990   39.7000 C   0  0  0  0  0  0  0  0  0  0  0  0
   36.7570   28.0310   40.8940 C   0  0  0  0  0  0  0  0  0  0  0  0
   35.8140   29.0370   41.0570 C   0  0  0  0  0  0  0  0  0  0  0  0
   37.7820   27.5240   41.6960 O   0  0  0  0  0  0  0  0  0  0  0  0
   38.6620   26.8020   40.8520 C   0  0  2  0  0  0  0  0  0  0  0  0
   37.8220   26.3620   39.8180 O   0  0  0  0  0  0  0  0  0  0  0  0
   34.1950   30.0580   40.1560 H   0  0  0  0  0  0  0  0  0  0  0  0
   35.8870   26.9990   37.7670 H   0  0  0  0  0  0  0  0  0  0  0  0
   35.7810   29.6120   41.9670 H   0  0  0  0  0  0  0  0  0  0  0  0
   39.3620   27.5280   40.4100 H   0  0  0  0  0  0  0  0  0  0  0  0
   39.3620   25.6730   41.5630 C   0  0  0  0  0  3  0  0  0  0  0  0
   39.1990   25.7580   43.0490 C   0  0  0  0  0  2  0  0  0  0  0  0
   40.3540   26.3880   43.7630 C   0  0  0  0  0  2  0  0  0  0  0  0
   40.9260   27.5910   43.0660 C   0  0  0  0  0  2  0  0  0  0  0  0
   41.3610   27.1900   41.6970 C   0  0  0  0  0  2  0  0  0  0  0  0
   40.8450   25.8260   41.2750 C   0  0  0  0  0  2  0  0  0  0  0  0
  1  7  1  0  0  0  0
  1  6  1  0  0  0  0
  2  1  2  0  0  0  0
  3  2  1  0  0  0  0
  3  4  2  0  0  0  0
  4  5  1  0  0  0  0
  5  6  2  0  0  0  0
  5 25  1  0  0  0  0
  8  3  1  0  0  0  0
  9  2  1  0  0  0  0
 10  9  1  0  0  0  0
 10 15  1  0  0  0  0
 11 18  1  0  0  0  0
 11 10  1  0  0  0  0
 12 13  1  0  0  0  0
 12 11  1  0  0  0  0
 13 14  1  0  0  0  0
 14 23  1  0  0  0  0
 14 22  1  0  0  0  0
 14  9  1  0  0  0  0
 16 10  1  0  0  0  0
 17 11  1  0  0  0  0
 19 12  1  0  0  0  0
 20 13  1  0  0  0  0
 21 13  1  0  0  0  0
 24 33  1  0  0  0  0
 24 29  1  0  0  0  0
 25 24  2  0  0  0  0
 26 25  1  0  0  0  0
 26 27  2  0  0  0  0
 27 32  1  0  0  0  0
 27 28  1  0  0  0  0
 28 29  2  0  0  0  0
 28 30  1  0  0  0  0
 29 35  1  0  0  0  0
 31 36  1  6  0  0  0
 31 37  1  0  0  0  0
 31 30  1  0  0  0  0
 32 31  1  0  0  0  0
 34 26  1  0  0  0  0
 37 38  1  0  0  0  0
 38 39  1  0  0  0  0
 40 39  1  0  0  0  0
 41 40  1  0  0  0  0
 42 37  1  0  0  0  0
 42 41  1  0  0  0  0
M  END
>  <minimizedAffinity>
-5.42924023

$$$$

 OpenBabel03242518273D

 42 46  0  0  1  0  0  0  0  0999 V2000
   39.6780   31.1380   41.9630 C   0  0  0  0  0  0  0  0  0  0  0  0
   40.0170   31.6980   40.7310 C   0  0  0  0  0  0  0  0  0  0  0  0
   39.7340   30.9470   39.5820 C   0  0  0  0  0  0  0  0  0  0  0  0
   39.1510   29.7280   39.7070 N   0  0  0  0  0  0  0  0  0  0  0  0
   38.8390   29.2220   40.9340 C   0  0  0  0  0  0  0  0  0  0  0  0
   39.0990   29.9200   42.0450 N   0  0  0  0  0  0  0  0  0  0  0  0
   39.8700   31.6650   42.8970 H   0  0  0  0  0  0  0  0  0  0  0  0
   40.0010   31.3930   38.6540 H   0  0  0  0  0  0  0  0  0  0  0  0
   40.6140   32.9680   40.7450 N   0  0  0  0  0  0  0  0  0  0  0  0
   42.0090   33.0550   41.0470 C   0  0  0  0  0  0  0  0  0  0  0  0
   42.5180   34.4460   41.1500 C   0  0  0  0  0  0  0  0  0  0  0  0
   42.1120   35.2760   40.0580 N   0  0  0  0  0  0  0  0  0  0  0  0
   40.8250   35.0740   39.5320 C   0  0  0  0  0  0  0  0  0  0  0  0
   39.9840   34.2250   40.4860 C   0  0  0  0  0  0  0  0  0  0  0  0
   42.2360   32.5020   41.9760 H   0  0  0  0  0  0  0  0  0  0  0  0
   42.5760   32.5650   40.2080 H   0  0  0  0  0  0  0  0  0  0  0  0
   43.6160   34.4100   41.2030 H   0  0  0  0  0  0  0  0  0  0  0  0
   42.1030   34.8970   42.0890 H   0  0  0  0  0  0  0  0  0  0  0  0
   42.2070   36.2740   40.3860 H   0  0  0  0  0  0  0  0  0  0  0  0
   40.2190   36.0180   39.4000 H   0  0  0  0  0  0  0  0  0  0  0  0
   40.7720   34.5830   38.5370 H   0  0  0  0  0  0  0  0  0  0  0  0
   39.7540   34.8080   41.3950 H   0  0  0  0  0  0  0  0  0  0  0  0
   39.0290   34.0310   39.9560 H   0  0  0  0  0  0  0  0  0  0  0  0
   38.3340   27.0770   42.0440 C   0  0  0  0  0  0  0  0  0  0  0  0
   38.2110   27.8940   40.9760 C   0  0  0  0  0  0  0  0  0  0  0  0
   37.4650   27.4560   39.8860 C   0  0  0  0  0  0  0  0  0  0  0  0
   36.8740   26.2100   39.9190 C   0  0  0  0  0  0  0  0  0  0  0  0
   37.0120   25.3770   41.0360 C   0  0  0  0  0  0  0  0  0  0  0  0
   37.7580   25.8160   42.1220 C   0  0  0  0  0  0  0  0  0  0  0  0
   36.3050   24.2050   40.7560 O   0  0  0  0  0  0  0  0  0  0  0  0
   36.1030   24.1570   39.3540 C   0  0  2  0  0  0  0  0  0  0  0  0
   36.0780   25.5120   38.9890 O   0  0  0  0  0  0  0  0  0  0  0  0
   38.9140   27.4070   42.9000 H   0  0  0  0  0  0  0  0  0  0  0  0
   37.3590   28.1020   39.0240 H   0  0  0  0  0  0  0  0  0  0  0  0
   37.8760   25.1910   42.9910 H   0  0  0  0  0  0  0  0  0  0  0  0
   37.0090   23.7200   38.9070 H   0  0  0  0  0  0  0  0  0  0  0  0
   34.8470   23.4200   38.9670 C   0  0  0  0  0  3  0  0  0  0  0  0
   35.0240   21.9340   39.0350 C   0  0  0  0  0  2  0  0  0  0  0  0
   35.3280   21.2870   37.7210 C   0  0  0  0  0  2  0  0  0  0  0  0
   36.2980   22.0540   36.8670 C   0  0  0  0  0  2  0  0  0  0  0  0
   35.7450   23.4180   36.6200 C   0  0  0  0  0  2  0  0  0  0  0  0
   34.5680   23.7620   37.5140 C   0  0  0  0  0  2  0  0  0  0  0  0
  1  6  1  0  0  0  0
  1  7  1  0  0  0  0
  2  9  1  0  0  0  0
  2  1  2  0  0  0  0
  3  4  2  0  0  0  0
  3  2  1  0  0  0  0
  4  5  1  0  0  0  0
  5 25  1  0  0  0  0
  5  6  2  0  0  0  0
  8  3  1  0  0  0  0
  9 10  1  0  0  0  0
 10 11  1  0  0  0  0
 10 15  1  0  0  0  0
 11 17  1  0  0  0  0
 11 18  1  0  0  0  0
 12 19  1  0  0  0  0
 12 11  1  0  0  0  0
 13 12  1  0  0  0  0
 13 14  1  0  0  0  0
 14  9  1  0  0  0  0
 14 22  1  0  0  0  0
 16 10  1  0  0  0  0
 20 13  1  0  0  0  0
 21 13  1  0  0  0  0
 23 14  1  0  0  0  0
 24 29  1  0  0  0  0
 24 33  1  0  0  0  0
 25 24  2  0  0  0  0
 26 27  2  0  0  0  0
 26 25  1  0  0  0  0
 27 28  1  0  0  0  0
 28 29  2  0  0  0  0
 29 35  1  0  0  0  0
 30 28  1  0  0  0  0
 31 36  1  6  0  0  0
 31 30  1  0  0  0  0
 32 31  1  0  0  0  0
 32 27  1  0  0  0  0
 34 26  1  0  0  0  0
 37 38  1  0  0  0  0
 37 31  1  0  0  0  0
 39 38  1  0  0  0  0
 40 39  1  0  0  0  0
 41 40  1  0  0  0  0
 41 42  1  0  0  0  0
 42 37  1  0  0  0  0
M  END
>  <minimizedAffinity>
-5.37457132

$$$$

 OpenBabel03242518273D

 42 46  0  0  1  0  0  0  0  0999 V2000
   32.4270   28.1040   34.4690 C   0  0  0  0  0  0  0  0  0  0  0  0
   31.2710   28.8390   34.7340 C   0  0  0  0  0  0  0  0  0  0  0  0
   31.2580   29.6250   35.8940 C   0  0  0  0  0  0  0  0  0  0  0  0
   32.3490   29.6440   36.7010 N   0  0  0  0  0  0  0  0  0  0  0  0
   33.4570   28.9070   36.3990 C   0  0  0  0  0  0  0  0  0  0  0  0
   33.4930   28.1490   35.2980 N   0  0  0  0  0  0  0  0  0  0  0  0
   32.5070   27.4710   33.5860 H   0  0  0  0  0  0  0  0  0  0  0  0
   30.3680   30.1760   36.0760 H   0  0  0  0  0  0  0  0  0  0  0  0
   30.2150   28.7290   33.8160 N   0  0  0  0  0  0  0  0  0  0  0  0
   29.9010   29.8650   33.0070 C   0  0  0  0  0  0  0  0  0  0  0  0
   28.7000   29.6850   32.1540 C   0  0  0  0  0  0  0  0  0  0  0  0
   28.7000   28.4490   31.4350 N   0  0  0  0  0  0  0  0  0  0  0  0
   29.2350   27.3220   32.0810 C   0  0  0  0  0  0  0  0  0  0  0  0
   29.3880   27.5860   33.5790 C   0  0  0  0  0  0  0  0  0  0  0  0
   29.7830   30.7650   33.6380 H   0  0  0  0  0  0  0  0  0  0  0  0
   30.7660   30.0450   32.3120 H   0  0  0  0  0  0  0  0  0  0  0  0
   28.6460   30.5280   31.4490 H   0  0  0  0  0  0  0  0  0  0  0  0
   27.7980   29.6860   32.8210 H   0  0  0  0  0  0  0  0  0  0  0  0
   27.7000   28.2580   31.1610 H   0  0  0  0  0  0  0  0  0  0  0  0
   28.5830   26.4010   32.0320 H   0  0  0  0  0  0  0  0  0  0  0  0
   30.2220   26.9680   31.7170 H   0  0  0  0  0  0  0  0  0  0  0  0
   28.3910   27.6480   34.0490 H   0  0  0  0  0  0  0  0  0  0  0  0
   29.9030   26.6940   33.9920 H   0  0  0  0  0  0  0  0  0  0  0  0
   35.8560   29.1930   36.9010 C   0  0  0  0  0  0  0  0  0  0  0  0
   34.5930   28.9870   37.3300 C   0  0  0  0  0  0  0  0  0  0  0  0
   34.3690   28.8460   38.6960 C   0  0  0  0  0  0  0  0  0  0  0  0
   35.4300   28.9190   39.5730 C   0  0  0  0  0  0  0  0  0  0  0  0
   36.7330   29.1340   39.1100 C   0  0  0  0  0  0  0  0  0  0  0  0
   36.9550   29.2740   37.7460 C   0  0  0  0  0  0  0  0  0  0  0  0
   37.5640   29.1560   40.2330 O   0  0  0  0  0  0  0  0  0  0  0  0
   36.8500   28.5500   41.2980 C   0  0  2  0  0  0  0  0  0  0  0  0
   35.5110   28.8170   40.9760 O   0  0  0  0  0  0  0  0  0  0  0  0
   36.0440   29.3040   35.8370 H   0  0  0  0  0  0  0  0  0  0  0  0
   33.3590   28.6800   39.0510 H   0  0  0  0  0  0  0  0  0  0  0  0
   37.9500   29.4400   37.3680 H   0  0  0  0  0  0  0  0  0  0  0  0
   36.9920   27.4630   41.2110 H   0  0  0  0  0  0  0  0  0  0  0  0
   37.2490   29.0850   42.6490 C   0  0  0  0  0  3  0  0  0  0  0  0
   38.6050   29.7210   42.6240 C   0  0  0  0  0  2  0  0  0  0  0  0
   39.7130   28.8330   43.0960 C   0  0  0  0  0  2  0  0  0  0  0  0
   39.6130   27.4130   42.6110 C   0  0  0  0  0  2  0  0  0  0  0  0
   38.3090   26.8440   43.0620 C   0  0  0  0  0  2  0  0  0  0  0  0
   37.3420   27.8910   43.5830 C   0  0  0  0  0  2  0  0  0  0  0  0
  1  2  2  0  0  0  0
  1  6  1  0  0  0  0
  2  3  1  0  0  0  0
  3  8  1  0  0  0  0
  3  4  2  0  0  0  0
  5  4  1  0  0  0  0
  5 25  1  0  0  0  0
  6  5  2  0  0  0  0
  7  1  1  0  0  0  0
  9  2  1  0  0  0  0
 10 15  1  0  0  0  0
 10  9  1  0  0  0  0
 11 18  1  0  0  0  0
 11 10  1  0  0  0  0
 12 13  1  0  0  0  0
 12 11  1  0  0  0  0
 13 14  1  0  0  0  0
 14  9  1  0  0  0  0
 14 23  1  0  0  0  0
 14 22  1  0  0  0  0
 16 10  1  0  0  0  0
 17 11  1  0  0  0  0
 19 12  1  0  0  0  0
 20 13  1  0  0  0  0
 21 13  1  0  0  0  0
 24 25  2  0  0  0  0
 24 29  1  0  0  0  0
 25 26  1  0  0  0  0
 26 34  1  0  0  0  0
 26 27  2  0  0  0  0
 27 32  1  0  0  0  0
 28 27  1  0  0  0  0
 28 30  1  0  0  0  0
 29 28  2  0  0  0  0
 30 31  1  0  0  0  0
 31 36  1  6  0  0  0
 31 37  1  0  0  0  0
 32 31  1  0  0  0  0
 33 24  1  0  0  0  0
 35 29  1  0  0  0  0
 37 42  1  0  0  0  0
 38 37  1  0  0  0  0
 38 39  1  0  0  0  0
 40 41  1  0  0  0  0
 40 39  1  0  0  0  0
 41 42  1  0  0  0  0
M  END
>  <minimizedAffinity>
-5.34999847

$$$$

 OpenBabel03242518273D

 42 46  0  0  1  0  0  0  0  0999 V2000
   33.2590   29.3130   35.0210 C   0  0  0  0  0  0  0  0  0  0  0  0
   32.0190   29.3390   35.6590 C   0  0  0  0  0  0  0  0  0  0  0  0
   32.0130   29.2880   37.0590 C   0  0  0  0  0  0  0  0  0  0  0  0
   33.1900   29.2170   37.7300 N   0  0  0  0  0  0  0  0  0  0  0  0
   34.3790   29.1950   37.0610 C   0  0  0  0  0  0  0  0  0  0  0  0
   34.4100   29.2420   35.7250 N   0  0  0  0  0  0  0  0  0  0  0  0
   33.3390   29.3490   33.9340 H   0  0  0  0  0  0  0  0  0  0  0  0
   31.0570   29.3080   37.5240 H   0  0  0  0  0  0  0  0  0  0  0  0
   30.8790   29.4130   34.8440 N   0  0  0  0  0  0  0  0  0  0  0  0
   30.8930   30.3240   33.7420 C   0  0  0  0  0  0  0  0  0  0  0  0
   29.6020   30.4110   33.0140 C   0  0  0  0  0  0  0  0  0  0  0  0
   29.0490   29.1320   32.6960 N   0  0  0  0  0  0  0  0  0  0  0  0
   29.2170   28.0990   33.6330 C   0  0  0  0  0  0  0  0  0  0  0  0
   29.6650   28.6680   34.9810 C   0  0  0  0  0  0  0  0  0  0  0  0
   31.2030   31.3290   34.0790 H   0  0  0  0  0  0  0  0  0  0  0  0
   31.6570   29.9600   33.0020 H   0  0  0  0  0  0  0  0  0  0  0  0
   29.7640   30.9880   32.0910 H   0  0  0  0  0  0  0  0  0  0  0  0
   28.8680   30.9420   33.6750 H   0  0  0  0  0  0  0  0  0  0  0  0
   28.0200   29.2830   32.5180 H   0  0  0  0  0  0  0  0  0  0  0  0
   28.2720   27.5300   33.8790 H   0  0  0  0  0  0  0  0  0  0  0  0
   29.9440   27.3040   33.3650 H   0  0  0  0  0  0  0  0  0  0  0  0
   28.8370   29.2380   35.4370 H   0  0  0  0  0  0  0  0  0  0  0  0
   29.8700   27.7890   35.6270 H   0  0  0  0  0  0  0  0  0  0  0  0
   36.6390   29.9660   37.6840 C   0  0  0  0  0  0  0  0  0  0  0  0
   35.6050   29.1170   37.8680 C   0  0  0  0  0  0  0  0  0  0  0  0
   35.7140   28.1420   38.8550 C   0  0  0  0  0  0  0  0  0  0  0  0
   36.8620   28.0640   39.6150 C   0  0  0  0  0  0  0  0  0  0  0  0
   37.9230   28.9530   39.4090 C   0  0  0  0  0  0  0  0  0  0  0  0
   37.8120   29.9250   38.4230 C   0  0  0  0  0  0  0  0  0  0  0  0
   38.9200   28.6130   40.3270 O   0  0  0  0  0  0  0  0  0  0  0  0
   38.6460   27.2980   40.7800 C   0  0  2  0  0  0  0  0  0  0  0  0
   37.2510   27.2040   40.6610 O   0  0  0  0  0  0  0  0  0  0  0  0
   36.5660   30.7310   36.9160 H   0  0  0  0  0  0  0  0  0  0  0  0
   34.8910   27.4550   39.0120 H   0  0  0  0  0  0  0  0  0  0  0  0
   38.6170   30.6200   38.2490 H   0  0  0  0  0  0  0  0  0  0  0  0
   39.0790   26.6010   40.0460 H   0  0  0  0  0  0  0  0  0  0  0  0
   39.1350   27.0480   42.1830 C   0  0  0  0  0  3  0  0  0  0  0  0
   38.0210   26.6600   43.1060 C   0  0  0  0  0  2  0  0  0  0  0  0
   37.4770   27.7870   43.9270 C   0  0  0  0  0  2  0  0  0  0  0  0
   37.3240   29.0790   43.1740 C   0  0  0  0  0  2  0  0  0  0  0  0
   38.6550   29.4740   42.6270 C   0  0  0  0  0  2  0  0  0  0  0  0
   39.6900   28.3660   42.6950 C   0  0  0  0  0  2  0  0  0  0  0  0
  1  2  2  0  0  0  0
  1  6  1  0  0  0  0
  2  3  1  0  0  0  0
  3  8  1  0  0  0  0
  3  4  2  0  0  0  0
  5  4  1  0  0  0  0
  5 25  1  0  0  0  0
  6  5  2  0  0  0  0
  7  1  1  0  0  0  0
  9 14  1  0  0  0  0
  9  2  1  0  0  0  0
 10 15  1  0  0  0  0
 10  9  1  0  0  0  0
 11 18  1  0  0  0  0
 11 10  1  0  0  0  0
 12 11  1  0  0  0  0
 12 13  1  0  0  0  0
 13 20  1  0  0  0  0
 13 14  1  0  0  0  0
 14 22  1  0  0  0  0
 14 23  1  0  0  0  0
 16 10  1  0  0  0  0
 17 11  1  0  0  0  0
 19 12  1  0  0  0  0
 21 13  1  0  0  0  0
 24 25  2  0  0  0  0
 24 29  1  0  0  0  0
 25 26  1  0  0  0  0
 26 34  1  0  0  0  0
 26 27  2  0  0  0  0
 27 32  1  0  0  0  0
 28 27  1  0  0  0  0
 28 30  1  0  0  0  0
 29 28  2  0  0  0  0
 30 31  1  0  0  0  0
 31 36  1  6  0  0  0
 31 37  1  0  0  0  0
 32 31  1  0  0  0  0
 33 24  1  0  0  0  0
 35 29  1  0  0  0  0
 37 42  1  0  0  0  0
 37 38  1  0  0  0  0
 38 39  1  0  0  0  0
 40 39  1  0  0  0  0
 41 42  1  0  0  0  0
 41 40  1  0  0  0  0
M  END
>  <minimizedAffinity>
-5.34137917

$$$$
