
 OpenBabel03252502203D

 30 32  0  0  1  0  0  0  0  0999 V2000
   46.8400   34.6060   42.3430 N   0  0  0  0  0  0  0  0  0  0  0  0
   48.3010   34.6050   42.4210 C   0  0  0  0  0  0  0  0  0  0  0  0
   48.7520   35.4370   41.2160 C   0  0  0  0  0  0  0  0  0  0  0  0
   48.4070   34.7400   39.9480 C   0  0  0  0  0  0  0  0  0  0  0  0
   47.0690   34.1120   39.9530 C   0  0  0  0  0  0  0  0  0  0  0  0
   46.1780   34.4270   41.1040 C   0  0  1  0  0  0  0  0  0  0  0  0
   48.6670   35.0820   43.3440 H   0  0  0  0  0  0  0  0  0  0  0  0
   48.7170   33.6090   42.2760 H   0  0  0  0  0  0  0  0  0  0  0  0
   48.1290   36.3740   41.2620 H   0  0  0  0  0  0  0  0  0  0  0  0
   49.8010   35.7220   41.2850 H   0  0  0  0  0  0  0  0  0  0  0  0
   48.5840   35.4100   39.1000 H   0  0  0  0  0  0  0  0  0  0  0  0
   49.1750   33.9200   39.8270 H   0  0  0  0  0  0  0  0  0  0  0  0
   47.1190   33.0120   39.8030 H   0  0  0  0  0  0  0  0  0  0  0  0
   46.5440   34.4720   39.0170 H   0  0  0  0  0  0  0  0  0  0  0  0
   45.7280   35.4410   40.8640 H   0  0  0  0  0  0  0  0  0  0  0  0
   44.4580   35.9700   44.8650 C   0  0  0  0  0  0  0  0  0  0  0  0
   45.1900   35.8560   43.6850 C   0  0  0  0  0  0  0  0  0  0  0  0
   46.0830   34.7860   43.5290 C   0  0  0  0  0  0  0  0  0  0  0  0
   46.1990   33.8850   44.5610 N   0  0  0  0  0  0  0  0  0  0  0  0
   45.4530   34.0480   45.6990 C   0  0  0  0  0  0  0  0  0  0  0  0
   44.5950   35.0820   45.8400 N   0  0  0  0  0  0  0  0  0  0  0  0
   43.7560   36.7650   45.0510 H   0  0  0  0  0  0  0  0  0  0  0  0
   45.0720   36.5780   42.9090 H   0  0  0  0  0  0  0  0  0  0  0  0
   45.6500   33.2630   46.4230 H   0  0  0  0  0  0  0  0  0  0  0  0
   45.0280   33.4830   41.0260 C   0  0  0  0  0  0  0  0  0  0  0  0
   45.1820   32.3240   40.0790 C   0  0  0  0  0  0  0  0  0  0  0  0
   44.1070   31.2980   40.4900 C   0  0  0  0  0  0  0  0  0  0  0  0
   42.7380   31.8980   40.3890 C   0  0  0  0  0  0  0  0  0  0  0  0
   42.6190   33.2020   41.1490 C   0  0  0  0  0  0  0  0  0  0  0  0
   43.7170   34.1340   40.6690 C   0  0  0  0  0  0  0  0  0  0  0  0
  1  2  1  0  0  0  0
  1 18  1  0  0  0  0
  2  7  1  0  0  0  0
  3  9  1  0  0  0  0
  3 10  1  0  0  0  0
  3  2  1  0  0  0  0
  4  5  1  0  0  0  0
  4  3  1  0  0  0  0
  5  6  1  0  0  0  0
  6 15  1  6  0  0  0
  6  1  1  0  0  0  0
  8  2  1  0  0  0  0
 11  4  1  0  0  0  0
 12  4  1  0  0  0  0
 13  5  1  0  0  0  0
 14  5  1  0  0  0  0
 16 22  1  0  0  0  0
 16 21  1  0  0  0  0
 17 16  2  0  0  0  0
 18 17  1  0  0  0  0
 18 19  2  0  0  0  0
 19 20  1  0  0  0  0
 20 21  2  0  0  0  0
 20 24  1  0  0  0  0
 23 17  1  0  0  0  0
 25  6  1  0  0  0  0
 26 27  1  0  0  0  0
 26 25  1  0  0  0  0
 28 27  1  0  0  0  0
 28 29  1  0  0  0  0
 30 25  1  0  0  0  0
 30 29  1  0  0  0  0
M  END
>  <minimizedAffinity>
-5.24369287

>  <minimizedRMSD>
0.75188005

$$$$
