
 OpenBabel03252508543D

 40 43  0  0  1  0  0  0  0  0999 V2000
   43.3910   34.4730   40.7590 C   0  0  0  0  0  0  0  0  0  0  0  0
   43.3240   35.7330   40.5220 O   0  0  0  0  0  0  0  0  0  0  0  0
   42.0360   34.1030   40.3940 N   0  0  0  0  0  0  0  0  0  0  0  0
   41.6870   34.3830   39.0190 C   0  0  0  0  0  0  0  0  0  0  0  0
   40.8580   35.6840   39.0910 C   0  0  0  0  0  0  0  0  0  0  0  0
   40.0370   35.6000   40.3760 C   0  0  0  0  0  0  0  0  0  0  0  0
   39.7230   34.1480   40.7590 C   0  0  0  0  0  0  0  0  0  0  0  0
   41.0170   33.5060   41.2220 C   0  0  1  0  0  0  0  0  0  0  0  0
   40.9560   33.6740   38.5810 H   0  0  0  0  0  0  0  0  0  0  0  0
   42.5610   34.5210   38.3660 H   0  0  0  0  0  0  0  0  0  0  0  0
   40.2120   35.7870   38.1960 H   0  0  0  0  0  0  0  0  0  0  0  0
   41.5560   36.5130   39.1960 H   0  0  0  0  0  0  0  0  0  0  0  0
   40.5680   36.0750   41.2120 H   0  0  0  0  0  0  0  0  0  0  0  0
   39.0870   36.1110   40.2050 H   0  0  0  0  0  0  0  0  0  0  0  0
   38.9780   34.2440   41.5780 H   0  0  0  0  0  0  0  0  0  0  0  0
   39.2850   33.6310   39.8900 H   0  0  0  0  0  0  0  0  0  0  0  0
   41.1920   33.8810   42.2540 H   0  0  0  0  0  0  0  0  0  0  0  0
   40.9660   32.0310   41.2670 C   0  0  1  0  0  0  0  0  0  0  0  0
   41.9190   31.3160   42.1430 C   0  0  0  0  0  0  0  0  0  0  0  0
   41.9290   29.8680   41.7220 C   0  0  0  0  0  0  0  0  0  0  0  0
   40.6270   29.2760   41.3710 C   0  0  0  0  0  0  0  0  0  0  0  0
   39.4010   30.0740   41.5220 C   0  0  0  0  0  0  0  0  0  0  0  0
   39.6020   31.5500   41.7290 C   0  0  0  0  0  0  0  0  0  0  0  0
   44.4720   33.7890   41.2170 O   0  0  0  0  0  0  0  0  0  0  0  0
   45.7960   34.1220   41.0680 C   0  0  0  0  0  0  0  0  0  0  0  0
   46.4230   34.7500   42.1630 C   0  0  0  0  0  0  0  0  0  0  0  0
   47.7770   35.0830   41.9880 C   0  0  0  0  0  0  0  0  0  0  0  0
   48.3890   34.7840   40.8000 N   0  0  0  0  0  0  0  0  0  0  0  0
   47.7310   34.1850   39.8030 C   0  0  0  0  0  0  0  0  0  0  0  0
   46.4390   33.8560   39.9380 N   0  0  0  0  0  0  0  0  0  0  0  0
   48.2450   35.5580   42.8210 H   0  0  0  0  0  0  0  0  0  0  0  0
   48.2400   33.9610   38.8730 H   0  0  0  0  0  0  0  0  0  0  0  0
   45.6860   35.0200   43.3720 C   0  0  0  0  0  0  0  0  0  0  0  0
   45.0540   36.2440   43.5940 C   0  0  0  0  0  0  0  0  0  0  0  0
   44.4800   36.0830   44.8400 C   0  0  0  0  0  0  0  0  0  0  0  0
   44.7480   34.8480   45.3310 N   0  0  0  0  0  0  0  0  0  0  0  0
   45.4740   34.2360   44.4240 N   0  0  0  0  0  0  0  0  0  0  0  0
   44.9880   37.1340   42.9930 H   0  0  0  0  0  0  0  0  0  0  0  0
   43.8940   36.8220   45.3740 H   0  0  0  0  0  0  0  0  0  0  0  0
   44.4710   34.4080   46.2280 H   0  0  0  0  0  0  0  0  0  0  0  0
  1 24  1  0  0  0  0
  2  1  2  0  0  0  0
  3  1  1  0  0  0  0
  3  8  1  0  0  0  0
  4  5  1  0  0  0  0
  4  3  1  0  0  0  0
  5 12  1  0  0  0  0
  5  6  1  0  0  0  0
  6  7  1  0  0  0  0
  6 13  1  0  0  0  0
  7  8  1  0  0  0  0
  7 15  1  0  0  0  0
  8 18  1  0  0  0  0
  8 17  1  1  0  0  0
  9  4  1  0  0  0  0
 10  4  1  0  0  0  0
 11  5  1  0  0  0  0
 14  6  1  0  0  0  0
 16  7  1  0  0  0  0
 18 23  1  1  0  0  0
 18 19  1  0  0  0  0
 20 19  1  0  0  0  0
 21 22  1  0  0  0  0
 21 20  2  0  0  0  0
 22 23  1  0  0  0  0
 25 24  1  0  0  0  0
 25 26  1  0  0  0  0
 26 33  1  0  0  0  0
 27 26  2  0  0  0  0
 27 31  1  0  0  0  0
 28 27  1  0  0  0  0
 29 30  1  0  0  0  0
 29 28  2  0  0  0  0
 30 25  2  0  0  0  0
 32 29  1  0  0  0  0
 33 34  1  0  0  0  0
 33 37  2  0  0  0  0
 34 35  2  0  0  0  0
 35 36  1  0  0  0  0
 35 39  1  0  0  0  0
 36 40  1  0  0  0  0
 37 36  1  0  0  0  0
 38 34  1  0  0  0  0
M  END
>  <minimizedAffinity>
-6.75421906

>  <minimizedRMSD>
0.691198766

$$$$
