
     RDKit          3D

 36 38  0  0  0  0  0  0  0  0999 V2000
   45.5283   34.1487   44.4154 C   0  0  0  0  0  0  0  0  0  0  0  0
   46.5040   33.6030   43.5411 C   0  0  0  0  0  0  0  0  0  0  0  0
   47.3952   32.6746   44.0611 C   0  0  0  0  0  0  0  0  0  0  0  0
   47.2847   32.3425   45.3703 N   0  0  0  0  0  0  0  0  0  0  0  0
   46.3388   32.8864   46.1742 C   0  0  0  0  0  0  0  0  0  0  0  0
   45.4578   33.7953   45.6850 N   0  0  0  0  0  0  0  0  0  0  0  0
   46.3979   32.3867   47.5869 C   0  0  0  0  0  0  0  0  0  0  0  0
   45.3869   32.9171   48.3550 F   0  0  0  0  0  0  0  0  0  0  0  0
   47.6191   32.7475   48.1635 F   0  0  0  0  0  0  0  0  0  0  0  0
   46.3789   30.9982   47.5726 F   0  0  0  0  0  0  0  0  0  0  0  0
   44.5694   35.1581   43.8840 C   0  0  1  0  0  0  0  0  0  0  0  0
   44.8804   36.6042   44.3255 C   0  0  0  0  0  0  0  0  0  0  0  0
   44.9765   36.1547   42.8935 C   0  0  2  0  0  0  0  0  0  0  0  0
   46.5227   33.9233   42.5099 H   0  0  0  0  0  0  0  0  0  0  0  0
   48.1379   32.2532   43.4123 H   0  0  0  0  0  0  0  0  0  0  0  0
   43.5104   34.8521   43.9855 H   0  0  0  0  0  0  0  0  0  0  0  0
   45.7777   36.7750   44.9360 H   0  0  0  0  0  0  0  0  0  0  0  0
   43.9895   37.1956   44.5549 H   0  0  0  0  0  0  0  0  0  0  0  0
   46.0523   36.0623   42.5643 H   0  0  0  0  0  0  0  0  0  0  0  0
   44.0402   36.6625   41.8465 C   0  0  0  0  0  0  0  0  0  0  0  0
   42.7080   35.9808   42.0245 C   0  0  0  0  0  0  0  0  0  0  0  0
   42.0198   35.6380   40.7290 C   0  0  0  0  0  0  0  0  0  0  0  0
   42.2100   36.6768   39.6646 C   0  0  0  0  0  0  0  0  0  0  0  0
   43.6599   37.0537   39.4709 C   0  0  0  0  0  0  0  0  0  0  0  0
   44.5568   36.3531   40.4762 C   0  0  0  0  0  0  0  0  0  0  0  0
   43.9006   37.7572   41.9097 H   0  0  0  0  0  0  0  0  0  0  0  0
   42.0802   36.5899   42.7053 H   0  0  0  0  0  0  0  0  0  0  0  0
   42.8731   35.0031   42.5414 H   0  0  0  0  0  0  0  0  0  0  0  0
   42.3261   34.6266   40.3607 H   0  0  0  0  0  0  0  0  0  0  0  0
   40.9309   35.5703   40.9414 H   0  0  0  0  0  0  0  0  0  0  0  0
   41.5508   37.5531   39.8680 H   0  0  0  0  0  0  0  0  0  0  0  0
   41.8603   36.2265   38.7119 H   0  0  0  0  0  0  0  0  0  0  0  0
   44.0022   36.8874   38.4242 H   0  0  0  0  0  0  0  0  0  0  0  0
   43.7432   38.1394   39.6832 H   0  0  0  0  0  0  0  0  0  0  0  0
   45.5510   36.8424   40.3707 H   0  0  0  0  0  0  0  0  0  0  0  0
   44.6121   35.2676   40.2620 H   0  0  0  0  0  0  0  0  0  0  0  0
  1  6  2  0
  2  3  2  0
  2  1  1  0
  3  4  1  0
  4  5  2  0
  5  7  1  0
  6  5  1  0
  7  9  1  0
  7  8  1  0
 10  7  1  0
 11 12  1  0
 11  1  1  0
 13 11  1  0
 13 12  1  0
  2 14  1  0
  3 15  1  0
 11 16  1  6
 12 17  1  0
 12 18  1  0
 13 19  1  6
 20 21  1  0
 21 22  1  0
 22 23  1  0
 23 24  1  0
 24 25  1  0
 25 20  1  0
 20 26  1  0
 21 27  1  0
 21 28  1  0
 22 29  1  0
 22 30  1  0
 23 31  1  0
 23 32  1  0
 24 33  1  0
 24 34  1  0
 25 35  1  0
 25 36  1  0
 13 20  1  0
M  ISO  6  14  14  15  14  16  13  17  13  18  13  19  13
M  END
>  <DihAtoms>  (1) 
10,12,19,20

>  <DihDeg>  (1) 
-59.99748515956114

$$$$
