
 OpenBabel03252506573D

 35 39  0  0  0  0  0  0  0  0999 V2000
   47.2350   31.3410   45.1600 C   0  0  0  0  0  0  0  0  0  0  0  0
   46.8850   32.6780   45.1400 C   0  0  0  0  0  0  0  0  0  0  0  0
   46.2720   33.3200   46.2030 C   0  0  0  0  0  0  0  0  0  0  0  0
   45.9840   32.6050   47.3600 C   0  0  0  0  0  0  0  0  0  0  0  0
   45.4110   32.8870   48.5640 N   0  0  0  0  0  0  0  0  0  0  0  0
   45.4090   31.7530   49.3040 C   0  0  0  0  0  0  0  0  0  0  0  0
   45.9800   30.7840   48.5530 N   0  0  0  0  0  0  0  0  0  0  0  0
   46.3390   31.2800   47.3660 C   0  0  0  0  0  0  0  0  0  0  0  0
   46.9440   30.6250   46.3270 C   0  0  0  0  0  0  0  0  0  0  0  0
   47.7080   30.8730   44.3210 H   0  0  0  0  0  0  0  0  0  0  0  0
   46.0060   34.3580   46.1750 H   0  0  0  0  0  0  0  0  0  0  0  0
   45.0510   33.8520   48.8080 H   0  0  0  0  0  0  0  0  0  0  0  0
   45.0070   31.7040   50.3080 H   0  0  0  0  0  0  0  0  0  0  0  0
   46.5670   35.1390   42.4150 C   0  0  0  0  0  0  0  0  0  0  0  0
   47.7140   34.9200   41.6700 C   0  0  0  0  0  0  0  0  0  0  0  0
   48.6030   33.9280   42.0970 C   0  0  0  0  0  0  0  0  0  0  0  0
   48.2960   33.2230   43.2300 N   0  0  0  0  0  0  0  0  0  0  0  0
   47.1760   33.4580   43.9310 C   0  0  0  0  0  0  0  0  0  0  0  0
   46.3060   34.4110   43.5340 N   0  0  0  0  0  0  0  0  0  0  0  0
   45.8420   35.9070   42.1190 H   0  0  0  0  0  0  0  0  0  0  0  0
   47.9260   35.4900   40.7890 H   0  0  0  0  0  0  0  0  0  0  0  0
   49.5190   33.7160   41.5490 H   0  0  0  0  0  0  0  0  0  0  0  0
   47.2860   29.1960   46.4270 C   0  0  0  0  0  0  0  0  0  0  0  0
   48.5890   28.7080   46.4360 C   0  0  0  0  0  0  0  0  0  0  0  0
   48.4050   27.3160   46.5440 C   0  0  0  0  0  0  0  0  0  0  0  0
   47.0460   27.0600   46.5930 C   0  0  0  0  0  0  0  0  0  0  0  0
   46.4260   28.2260   46.5180 O   0  0  0  0  0  0  0  0  0  0  0  0
   49.5260   29.2500   46.3770 H   0  0  0  0  0  0  0  0  0  0  0  0
   49.1920   26.5780   46.5840 H   0  0  0  0  0  0  0  0  0  0  0  0
   46.3500   25.7370   46.7060 C   0  0  0  0  0  3  0  0  0  0  0  0
   45.1500   25.8170   47.6040 C   0  0  0  0  0  2  0  0  0  0  0  0
   45.4410   25.3430   49.0080 C   0  0  0  0  0  2  0  0  0  0  0  0
   45.8420   23.8890   49.0150 C   0  0  0  0  0  2  0  0  0  0  0  0
   46.6000   23.5280   47.7720 C   0  0  0  0  0  2  0  0  0  0  0  0
   47.3290   24.6850   47.1400 C   0  0  0  0  0  2  0  0  0  0  0  0
  1  9  1  0  0  0  0
  2  1  2  0  0  0  0
  2  3  1  0  0  0  0
  3  4  2  0  0  0  0
  4  8  1  0  0  0  0
  4  5  1  0  0  0  0
  5 12  1  0  0  0  0
  5  6  1  0  0  0  0
  6 13  1  0  0  0  0
  7  6  2  0  0  0  0
  8  7  1  0  0  0  0
  9 23  1  0  0  0  0
  9  8  2  0  0  0  0
 10  1  1  0  0  0  0
 11  3  1  0  0  0  0
 14 19  1  0  0  0  0
 15 16  1  0  0  0  0
 15 14  2  0  0  0  0
 16 17  2  0  0  0  0
 17 18  1  0  0  0  0
 18  2  1  0  0  0  0
 19 18  2  0  0  0  0
 20 14  1  0  0  0  0
 21 15  1  0  0  0  0
 22 16  1  0  0  0  0
 23 24  2  0  0  0  0
 23 27  1  0  0  0  0
 24 25  1  0  0  0  0
 25 29  1  0  0  0  0
 25 26  2  0  0  0  0
 26 30  1  0  0  0  0
 27 26  1  0  0  0  0
 28 24  1  0  0  0  0
 30 35  1  0  0  0  0
 30 31  1  0  0  0  0
 31 32  1  0  0  0  0
 32 33  1  0  0  0  0
 34 33  1  0  0  0  0
 35 34  1  0  0  0  0
M  END
>  <minimizedAffinity>
-5.7378726

>  <minimizedRMSD>
0.282182306

$$$$
