
 OpenBabel03252508433D

 28 30  0  0  0  0  0  0  0  0999 V2000
   36.8190   30.6020   39.3080 C   0  0  0  0  0  0  0  0  0  0  0  0
   36.3220   29.8930   40.4010 C   0  0  0  0  0  0  0  0  0  0  0  0
   35.3540   28.9310   40.1570 C   0  0  0  0  0  0  0  0  0  0  0  0
   34.9170   28.7010   38.8880 C   0  0  0  0  0  0  0  0  0  0  0  0
   35.3900   29.3810   37.8090 C   0  0  0  0  0  0  0  0  0  0  0  0
   36.3610   30.3440   38.0730 C   0  0  0  0  0  0  0  0  0  0  0  0
   34.9180   28.3540   40.9290 H   0  0  0  0  0  0  0  0  0  0  0  0
   34.1570   27.9520   38.6610 H   0  0  0  0  0  0  0  0  0  0  0  0
   35.1160   29.2750   36.7890 H   0  0  0  0  0  0  0  0  0  0  0  0
   36.8000   30.9390   37.2680 H   0  0  0  0  0  0  0  0  0  0  0  0
   38.6200   33.8050   40.2250 C   0  0  0  0  0  0  0  0  0  0  0  0
   37.5530   32.9210   39.9550 C   0  0  0  0  0  0  0  0  0  0  0  0
   37.8370   31.6140   39.6100 C   0  0  0  0  0  0  0  0  0  0  0  0
   39.1440   31.2510   39.5480 N   0  0  0  0  0  0  0  0  0  0  0  0
   40.1600   32.1070   39.8070 C   0  0  0  0  0  0  0  0  0  0  0  0
   39.9010   33.3780   40.1440 N   0  0  0  0  0  0  0  0  0  0  0  0
   38.3690   34.8220   40.4900 H   0  0  0  0  0  0  0  0  0  0  0  0
   36.5180   33.1850   39.9970 H   0  0  0  0  0  0  0  0  0  0  0  0
   41.1840   31.7660   39.7420 H   0  0  0  0  0  0  0  0  0  0  0  0
   36.8340   30.1730   41.7590 C   0  0  0  0  0  0  0  0  0  0  0  0
   37.1390   31.2490   41.7640 H   0  0  0  0  0  0  0  0  0  0  0  0
   35.9270   30.1520   42.4290 H   0  0  0  0  0  0  0  0  0  0  0  0
   37.8950   29.2830   42.2690 C   0  0  0  0  0  3  0  0  0  0  0  0
   38.0590   28.1390   41.2500 C   0  0  0  0  0  2  0  0  0  0  0  0
   38.6040   26.8940   41.8730 C   0  0  0  0  0  2  0  0  0  0  0  0
   37.4310   26.2290   42.5900 C   0  0  0  0  0  2  0  0  0  0  0  0
   36.6000   27.3270   43.1660 C   0  0  0  0  0  2  0  0  0  0  0  0
   37.3700   28.5780   43.5200 C   0  0  0  0  0  2  0  0  0  0  0  0
  1 13  1  0  0  0  0
  1  2  1  0  0  0  0
  2 20  1  0  0  0  0
  3  2  2  0  0  0  0
  3  7  1  0  0  0  0
  4  3  1  0  0  0  0
  5  6  1  0  0  0  0
  5  4  2  0  0  0  0
  6  1  2  0  0  0  0
  8  4  1  0  0  0  0
  9  5  1  0  0  0  0
 10  6  1  0  0  0  0
 11 17  1  0  0  0  0
 12 18  1  0  0  0  0
 12 11  2  0  0  0  0
 13 12  1  0  0  0  0
 14 13  2  0  0  0  0
 14 15  1  0  0  0  0
 15 16  2  0  0  0  0
 16 11  1  0  0  0  0
 19 15  1  0  0  0  0
 20 21  1  0  0  0  0
 20 23  1  0  0  0  0
 20 22  1  0  0  0  0
 23 28  1  0  0  0  0
 24 25  1  0  0  0  0
 24 23  1  0  0  0  0
 25 26  1  0  0  0  0
 26 27  1  0  0  0  0
 27 28  1  0  0  0  0
M  END
>  <minimizedAffinity>
-5.64722776

$$$$

 OpenBabel03252508433D

 28 30  0  0  0  0  0  0  0  0999 V2000
   37.5490   31.8530   39.9190 C   0  0  0  0  0  0  0  0  0  0  0  0
   38.7670   31.4410   40.4580 C   0  0  0  0  0  0  0  0  0  0  0  0
   39.6960   32.4210   40.7710 C   0  0  0  0  0  0  0  0  0  0  0  0
   39.4120   33.7350   40.5520 C   0  0  0  0  0  0  0  0  0  0  0  0
   38.2300   34.1560   40.0280 C   0  0  0  0  0  0  0  0  0  0  0  0
   37.3090   33.1580   39.7190 C   0  0  0  0  0  0  0  0  0  0  0  0
   40.6470   32.1950   41.1770 H   0  0  0  0  0  0  0  0  0  0  0  0
   40.1200   34.5310   40.7870 H   0  0  0  0  0  0  0  0  0  0  0  0
   37.9150   35.1500   39.8220 H   0  0  0  0  0  0  0  0  0  0  0  0
   36.3320   33.4040   39.2950 H   0  0  0  0  0  0  0  0  0  0  0  0
   34.8850   29.1670   40.0880 C   0  0  0  0  0  0  0  0  0  0  0  0
   35.7630   30.1860   40.5190 C   0  0  0  0  0  0  0  0  0  0  0  0
   36.5970   30.7860   39.5960 C   0  0  0  0  0  0  0  0  0  0  0  0
   36.5240   30.3550   38.3100 N   0  0  0  0  0  0  0  0  0  0  0  0
   35.6800   29.3770   37.9070 C   0  0  0  0  0  0  0  0  0  0  0  0
   34.8630   28.7840   38.7900 N   0  0  0  0  0  0  0  0  0  0  0  0
   34.2450   28.7140   40.8310 H   0  0  0  0  0  0  0  0  0  0  0  0
   35.8360   30.5400   41.5240 H   0  0  0  0  0  0  0  0  0  0  0  0
   35.6630   29.0710   36.8700 H   0  0  0  0  0  0  0  0  0  0  0  0
   39.0260   30.0040   40.6860 C   0  0  0  0  0  0  0  0  0  0  0  0
   38.0590   29.4760   40.4950 H   0  0  0  0  0  0  0  0  0  0  0  0
   39.6790   29.6790   39.8250 H   0  0  0  0  0  0  0  0  0  0  0  0
   39.6270   29.6310   41.9810 C   0  0  0  0  0  3  0  0  0  0  0  0
   39.9850   28.1350   41.9040 C   0  0  0  0  0  2  0  0  0  0  0  0
   40.0150   27.4860   43.2500 C   0  0  0  0  0  2  0  0  0  0  0  0
   38.5590   27.2260   43.6290 C   0  0  0  0  0  2  0  0  0  0  0  0
   37.7690   28.3860   43.1210 C   0  0  0  0  0  2  0  0  0  0  0  0
   38.5360   29.6850   43.0500 C   0  0  0  0  0  2  0  0  0  0  0  0
  1  2  1  0  0  0  0
  2 20  1  0  0  0  0
  2  3  2  0  0  0  0
  3  7  1  0  0  0  0
  4  3  1  0  0  0  0
  4  8  1  0  0  0  0
  5  4  2  0  0  0  0
  6  1  2  0  0  0  0
  6  5  1  0  0  0  0
  9  5  1  0  0  0  0
 10  6  1  0  0  0  0
 11 12  1  0  0  0  0
 11 17  1  0  0  0  0
 12 18  1  0  0  0  0
 13  1  1  0  0  0  0
 13 12  2  0  0  0  0
 14 13  1  0  0  0  0
 15 14  2  0  0  0  0
 15 16  1  0  0  0  0
 16 11  2  0  0  0  0
 19 15  1  0  0  0  0
 20 23  1  0  0  0  0
 21 20  1  0  0  0  0
 22 20  1  0  0  0  0
 23 28  1  0  0  0  0
 24 23  1  0  0  0  0
 24 25  1  0  0  0  0
 25 26  1  0  0  0  0
 27 26  1  0  0  0  0
 28 27  1  0  0  0  0
M  END
>  <minimizedAffinity>
-5.37366676

$$$$

 OpenBabel03252508433D

 28 30  0  0  0  0  0  0  0  0999 V2000
   36.7720   30.2010   38.7450 C   0  0  0  0  0  0  0  0  0  0  0  0
   36.0340   29.3810   39.5970 C   0  0  0  0  0  0  0  0  0  0  0  0
   35.0980   28.5330   39.0230 C   0  0  0  0  0  0  0  0  0  0  0  0
   34.9200   28.5180   37.6730 C   0  0  0  0  0  0  0  0  0  0  0  0
   35.6310   29.3100   36.8260 C   0  0  0  0  0  0  0  0  0  0  0  0
   36.5650   30.1550   37.4200 C   0  0  0  0  0  0  0  0  0  0  0  0
   34.4920   27.8840   39.5970 H   0  0  0  0  0  0  0  0  0  0  0  0
   34.1930   27.8630   37.1890 H   0  0  0  0  0  0  0  0  0  0  0  0
   35.5670   29.3700   35.7670 H   0  0  0  0  0  0  0  0  0  0  0  0
   37.1830   30.8260   36.8170 H   0  0  0  0  0  0  0  0  0  0  0  0
   38.4480   33.0420   40.6050 C   0  0  0  0  0  0  0  0  0  0  0  0
   37.4200   32.2750   40.0150 C   0  0  0  0  0  0  0  0  0  0  0  0
   37.7460   31.0860   39.3910 C   0  0  0  0  0  0  0  0  0  0  0  0
   39.0540   30.7210   39.3800 N   0  0  0  0  0  0  0  0  0  0  0  0
   40.0320   31.4650   39.9470 C   0  0  0  0  0  0  0  0  0  0  0  0
   39.7330   32.6200   40.5580 N   0  0  0  0  0  0  0  0  0  0  0  0
   38.1650   33.9680   41.0850 H   0  0  0  0  0  0  0  0  0  0  0  0
   36.3860   32.5420   40.0130 H   0  0  0  0  0  0  0  0  0  0  0  0
   41.0590   31.1280   39.9090 H   0  0  0  0  0  0  0  0  0  0  0  0
   36.2690   29.4280   41.0550 C   0  0  0  0  0  0  0  0  0  0  0  0
   37.0620   30.1980   41.2210 H   0  0  0  0  0  0  0  0  0  0  0  0
   35.3440   29.9020   41.4910 H   0  0  0  0  0  0  0  0  0  0  0  0
   36.5770   28.1480   41.7230 C   0  0  0  0  0  3  0  0  0  0  0  0
   37.0970   28.4840   43.1330 C   0  0  0  0  0  2  0  0  0  0  0  0
   37.9920   27.4180   43.6800 C   0  0  0  0  0  2  0  0  0  0  0  0
   39.3510   27.6220   43.0150 C   0  0  0  0  0  2  0  0  0  0  0  0
   39.0830   28.0480   41.6100 C   0  0  0  0  0  2  0  0  0  0  0  0
   37.7900   27.5250   41.0310 C   0  0  0  0  0  2  0  0  0  0  0  0
  1 13  1  0  0  0  0
  1  2  1  0  0  0  0
  2 20  1  0  0  0  0
  3  2  2  0  0  0  0
  3  7  1  0  0  0  0
  4  3  1  0  0  0  0
  5  6  1  0  0  0  0
  5  4  2  0  0  0  0
  6  1  2  0  0  0  0
  8  4  1  0  0  0  0
  9  5  1  0  0  0  0
 10  6  1  0  0  0  0
 11 17  1  0  0  0  0
 12 11  2  0  0  0  0
 13 12  1  0  0  0  0
 14 13  2  0  0  0  0
 14 15  1  0  0  0  0
 15 16  2  0  0  0  0
 16 11  1  0  0  0  0
 18 12  1  0  0  0  0
 19 15  1  0  0  0  0
 20 21  1  0  0  0  0
 20 22  1  0  0  0  0
 20 23  1  0  0  0  0
 23 24  1  0  0  0  0
 24 25  1  0  0  0  0
 26 25  1  0  0  0  0
 27 26  1  0  0  0  0
 28 27  1  0  0  0  0
 28 23  1  0  0  0  0
M  END
>  <minimizedAffinity>
-5.18659353

$$$$

 OpenBabel03252508433D

 28 30  0  0  0  0  0  0  0  0999 V2000
   36.7620   29.6260   38.9510 C   0  0  0  0  0  0  0  0  0  0  0  0
   36.5530   29.9420   40.2930 C   0  0  0  0  0  0  0  0  0  0  0  0
   36.7420   31.2600   40.6800 C   0  0  0  0  0  0  0  0  0  0  0  0
   37.1170   32.1980   39.7680 C   0  0  0  0  0  0  0  0  0  0  0  0
   37.3240   31.9100   38.4550 C   0  0  0  0  0  0  0  0  0  0  0  0
   37.1320   30.5810   38.0840 C   0  0  0  0  0  0  0  0  0  0  0  0
   36.6120   31.5840   41.6790 H   0  0  0  0  0  0  0  0  0  0  0  0
   37.2740   33.2440   40.0380 H   0  0  0  0  0  0  0  0  0  0  0  0
   37.6150   32.5660   37.6720 H   0  0  0  0  0  0  0  0  0  0  0  0
   37.2740   30.2580   37.0500 H   0  0  0  0  0  0  0  0  0  0  0  0
   37.1940   25.9110   38.3570 C   0  0  0  0  0  0  0  0  0  0  0  0
   37.5080   27.2310   38.7470 C   0  0  0  0  0  0  0  0  0  0  0  0
   36.5580   28.2210   38.5840 C   0  0  0  0  0  0  0  0  0  0  0  0
   35.3620   27.8620   38.0500 N   0  0  0  0  0  0  0  0  0  0  0  0
   35.0720   26.5940   37.6770 C   0  0  0  0  0  0  0  0  0  0  0  0
   35.9820   25.6210   37.8300 N   0  0  0  0  0  0  0  0  0  0  0  0
   37.9550   25.1580   38.4940 H   0  0  0  0  0  0  0  0  0  0  0  0
   38.4410   27.5360   39.1690 H   0  0  0  0  0  0  0  0  0  0  0  0
   34.1040   26.3620   37.2560 H   0  0  0  0  0  0  0  0  0  0  0  0
   36.1380   28.8900   41.2450 C   0  0  0  0  0  0  0  0  0  0  0  0
   35.0580   29.0780   41.4690 H   0  0  0  0  0  0  0  0  0  0  0  0
   36.1210   27.9360   40.6440 H   0  0  0  0  0  0  0  0  0  0  0  0
   36.9500   28.7370   42.4670 C   0  0  0  0  0  3  0  0  0  0  0  0
   38.4070   28.5180   42.0220 C   0  0  0  0  0  2  0  0  0  0  0  0
   39.2070   27.7640   43.0360 C   0  0  0  0  0  2  0  0  0  0  0  0
   38.8250   26.2950   42.8710 C   0  0  0  0  0  2  0  0  0  0  0  0
   37.3660   26.2630   42.5550 C   0  0  0  0  0  2  0  0  0  0  0  0
   36.5740   27.4130   43.1310 C   0  0  0  0  0  2  0  0  0  0  0  0
  1  2  1  0  0  0  0
  2  3  2  0  0  0  0
  2 20  1  0  0  0  0
  3  7  1  0  0  0  0
  4  8  1  0  0  0  0
  4  3  1  0  0  0  0
  5  4  2  0  0  0  0
  6  5  1  0  0  0  0
  6  1  2  0  0  0  0
  9  5  1  0  0  0  0
 10  6  1  0  0  0  0
 11 17  1  0  0  0  0
 11 12  1  0  0  0  0
 12 18  1  0  0  0  0
 13 12  2  0  0  0  0
 13  1  1  0  0  0  0
 14 13  1  0  0  0  0
 15 16  1  0  0  0  0
 15 14  2  0  0  0  0
 16 11  2  0  0  0  0
 19 15  1  0  0  0  0
 20 21  1  0  0  0  0
 20 23  1  0  0  0  0
 22 20  1  0  0  0  0
 23 28  1  0  0  0  0
 24 23  1  0  0  0  0
 24 25  1  0  0  0  0
 26 25  1  0  0  0  0
 27 26  1  0  0  0  0
 27 28  1  0  0  0  0
M  END
>  <minimizedAffinity>
-5.07939386

$$$$

 OpenBabel03252508433D

 28 30  0  0  0  0  0  0  0  0999 V2000
   38.0910   29.3960   41.7790 C   0  0  0  0  0  0  0  0  0  0  0  0
   37.4400   28.5110   40.9200 C   0  0  0  0  0  0  0  0  0  0  0  0
   36.8400   27.3940   41.4810 C   0  0  0  0  0  0  0  0  0  0  0  0
   36.8960   27.1850   42.8250 C   0  0  0  0  0  0  0  0  0  0  0  0
   37.5240   28.0370   43.6800 C   0  0  0  0  0  0  0  0  0  0  0  0
   38.1220   29.1520   43.0990 C   0  0  0  0  0  0  0  0  0  0  0  0
   36.3320   26.6700   40.9010 H   0  0  0  0  0  0  0  0  0  0  0  0
   36.4340   26.3170   43.2990 H   0  0  0  0  0  0  0  0  0  0  0  0
   37.6210   27.9630   44.7350 H   0  0  0  0  0  0  0  0  0  0  0  0
   38.6490   29.8920   43.7080 H   0  0  0  0  0  0  0  0  0  0  0  0
   40.4970   31.7560   40.0530 C   0  0  0  0  0  0  0  0  0  0  0  0
   40.0030   30.5720   40.6420 C   0  0  0  0  0  0  0  0  0  0  0  0
   38.7180   30.5610   41.1460 C   0  0  0  0  0  0  0  0  0  0  0  0
   37.9930   31.7050   41.0450 N   0  0  0  0  0  0  0  0  0  0  0  0
   38.4770   32.8360   40.4790 C   0  0  0  0  0  0  0  0  0  0  0  0
   39.7220   32.8630   39.9840 N   0  0  0  0  0  0  0  0  0  0  0  0
   41.5060   31.7370   39.6680 H   0  0  0  0  0  0  0  0  0  0  0  0
   40.5550   29.6610   40.7320 H   0  0  0  0  0  0  0  0  0  0  0  0
   37.8580   33.7200   40.4250 H   0  0  0  0  0  0  0  0  0  0  0  0
   37.4000   28.7850   39.4690 C   0  0  0  0  0  0  0  0  0  0  0  0
   38.3260   29.3660   39.2330 H   0  0  0  0  0  0  0  0  0  0  0  0
   37.5780   27.7890   38.9720 H   0  0  0  0  0  0  0  0  0  0  0  0
   36.1810   29.4320   38.9450 C   0  0  0  0  0  3  0  0  0  0  0  0
   35.3610   28.3440   38.2270 C   0  0  0  0  0  2  0  0  0  0  0  0
   34.4710   28.9070   37.1650 C   0  0  0  0  0  2  0  0  0  0  0  0
   35.3670   29.1760   35.9590 C   0  0  0  0  0  2  0  0  0  0  0  0
   36.6760   29.6560   36.4940 C   0  0  0  0  0  2  0  0  0  0  0  0
   36.5870   30.3800   37.8160 C   0  0  0  0  0  2  0  0  0  0  0  0
  1  6  1  0  0  0  0
  2  3  1  0  0  0  0
  2  1  2  0  0  0  0
  3  4  2  0  0  0  0
  4  8  1  0  0  0  0
  4  5  1  0  0  0  0
  5  9  1  0  0  0  0
  6  5  2  0  0  0  0
  6 10  1  0  0  0  0
  7  3  1  0  0  0  0
 11 12  1  0  0  0  0
 12 18  1  0  0  0  0
 12 13  2  0  0  0  0
 13  1  1  0  0  0  0
 14 13  1  0  0  0  0
 15 14  2  0  0  0  0
 16 11  2  0  0  0  0
 16 15  1  0  0  0  0
 17 11  1  0  0  0  0
 19 15  1  0  0  0  0
 20  2  1  0  0  0  0
 21 20  1  0  0  0  0
 22 20  1  0  0  0  0
 23 20  1  0  0  0  0
 24 23  1  0  0  0  0
 25 24  1  0  0  0  0
 26 27  1  0  0  0  0
 26 25  1  0  0  0  0
 27 28  1  0  0  0  0
 28 23  1  0  0  0  0
M  END
>  <minimizedAffinity>
-5.03152657

$$$$

 OpenBabel03252508433D

 28 30  0  0  0  0  0  0  0  0999 V2000
   35.8480   28.5560   39.9730 C   0  0  0  0  0  0  0  0  0  0  0  0
   36.3600   27.6970   39.0010 C   0  0  0  0  0  0  0  0  0  0  0  0
   35.5970   27.4860   37.8630 C   0  0  0  0  0  0  0  0  0  0  0  0
   34.3930   28.1040   37.7180 C   0  0  0  0  0  0  0  0  0  0  0  0
   33.8770   28.9460   38.6530 C   0  0  0  0  0  0  0  0  0  0  0  0
   34.6570   29.1460   39.7900 C   0  0  0  0  0  0  0  0  0  0  0  0
   35.9080   26.8440   37.0810 H   0  0  0  0  0  0  0  0  0  0  0  0
   33.7670   27.9610   36.8340 H   0  0  0  0  0  0  0  0  0  0  0  0
   32.9550   29.4730   38.6320 H   0  0  0  0  0  0  0  0  0  0  0  0
   34.3230   29.8070   40.5940 H   0  0  0  0  0  0  0  0  0  0  0  0
   37.4320   28.2770   43.4010 C   0  0  0  0  0  0  0  0  0  0  0  0
   36.5690   28.0000   42.3190 C   0  0  0  0  0  0  0  0  0  0  0  0
   36.6830   28.7480   41.1630 C   0  0  0  0  0  0  0  0  0  0  0  0
   37.6290   29.7210   41.1360 N   0  0  0  0  0  0  0  0  0  0  0  0
   38.4510   29.9800   42.1800 C   0  0  0  0  0  0  0  0  0  0  0  0
   38.3550   29.2620   43.3080 N   0  0  0  0  0  0  0  0  0  0  0  0
   37.3210   27.6780   44.2930 H   0  0  0  0  0  0  0  0  0  0  0  0
   35.8180   27.2400   42.3190 H   0  0  0  0  0  0  0  0  0  0  0  0
   39.1880   30.7670   42.1050 H   0  0  0  0  0  0  0  0  0  0  0  0
   37.6760   27.0550   39.2010 C   0  0  0  0  0  0  0  0  0  0  0  0
   38.3530   27.4750   38.4160 H   0  0  0  0  0  0  0  0  0  0  0  0
   38.0790   27.4930   40.1590 H   0  0  0  0  0  0  0  0  0  0  0  0
   37.7010   25.5800   39.2380 C   0  0  0  0  0  3  0  0  0  0  0  0
   36.5720   25.1280   40.1810 C   0  0  0  0  0  2  0  0  0  0  0  0
   36.8390   23.7890   40.7910 C   0  0  0  0  0  2  0  0  0  0  0  0
   37.8330   24.0280   41.9240 C   0  0  0  0  0  2  0  0  0  0  0  0
   38.7690   25.0940   41.4580 C   0  0  0  0  0  2  0  0  0  0  0  0
   38.9730   25.1390   39.9620 C   0  0  0  0  0  2  0  0  0  0  0  0
  1 13  1  0  0  0  0
  2 20  1  0  0  0  0
  2  1  2  0  0  0  0
  3  2  1  0  0  0  0
  4  3  2  0  0  0  0
  4  5  1  0  0  0  0
  5  6  2  0  0  0  0
  6  1  1  0  0  0  0
  6 10  1  0  0  0  0
  7  3  1  0  0  0  0
  8  4  1  0  0  0  0
  9  5  1  0  0  0  0
 11 17  1  0  0  0  0
 12 11  2  0  0  0  0
 13 12  1  0  0  0  0
 14 13  2  0  0  0  0
 14 15  1  0  0  0  0
 15 16  2  0  0  0  0
 16 11  1  0  0  0  0
 18 12  1  0  0  0  0
 19 15  1  0  0  0  0
 20 23  1  0  0  0  0
 20 22  1  0  0  0  0
 21 20  1  0  0  0  0
 23 28  1  0  0  0  0
 23 24  1  0  0  0  0
 24 25  1  0  0  0  0
 25 26  1  0  0  0  0
 27 26  1  0  0  0  0
 28 27  1  0  0  0  0
M  END
>  <minimizedAffinity>
-5.02359486

$$$$

 OpenBabel03252508433D

 28 30  0  0  0  0  0  0  0  0999 V2000
   38.1090   30.7710   41.1160 C   0  0  0  0  0  0  0  0  0  0  0  0
   37.0190   31.0430   40.2900 C   0  0  0  0  0  0  0  0  0  0  0  0
   36.9550   32.2970   39.7010 C   0  0  0  0  0  0  0  0  0  0  0  0
   37.9320   33.2170   39.9340 C   0  0  0  0  0  0  0  0  0  0  0  0
   39.0030   32.9700   40.7350 C   0  0  0  0  0  0  0  0  0  0  0  0
   39.0500   31.7060   41.3190 C   0  0  0  0  0  0  0  0  0  0  0  0
   36.1600   32.5880   39.0680 H   0  0  0  0  0  0  0  0  0  0  0  0
   37.9130   34.2120   39.4870 H   0  0  0  0  0  0  0  0  0  0  0  0
   39.8110   33.6160   40.9770 H   0  0  0  0  0  0  0  0  0  0  0  0
   39.8740   31.4190   41.9760 H   0  0  0  0  0  0  0  0  0  0  0  0
   38.6990   27.1000   41.8310 C   0  0  0  0  0  0  0  0  0  0  0  0
   38.7370   28.3350   41.1480 C   0  0  0  0  0  0  0  0  0  0  0  0
   38.1360   29.4370   41.7230 C   0  0  0  0  0  0  0  0  0  0  0  0
   37.5340   29.2660   42.9290 N   0  0  0  0  0  0  0  0  0  0  0  0
   37.5020   28.0770   43.5750 C   0  0  0  0  0  0  0  0  0  0  0  0
   38.0810   26.9980   43.0310 N   0  0  0  0  0  0  0  0  0  0  0  0
   39.1760   26.2540   41.3570 H   0  0  0  0  0  0  0  0  0  0  0  0
   39.2050   28.4920   40.2000 H   0  0  0  0  0  0  0  0  0  0  0  0
   37.0080   27.9960   44.5330 H   0  0  0  0  0  0  0  0  0  0  0  0
   35.9890   30.0090   40.0610 C   0  0  0  0  0  0  0  0  0  0  0  0
   36.3190   29.1050   40.6320 H   0  0  0  0  0  0  0  0  0  0  0  0
   35.0810   30.3630   40.6280 H   0  0  0  0  0  0  0  0  0  0  0  0
   35.6540   29.6990   38.6580 C   0  0  0  0  0  3  0  0  0  0  0  0
   34.3570   28.8700   38.6710 C   0  0  0  0  0  2  0  0  0  0  0  0
   34.2280   27.9920   37.4670 C   0  0  0  0  0  2  0  0  0  0  0  0
   35.1260   26.7850   37.7240 C   0  0  0  0  0  2  0  0  0  0  0  0
   36.3340   27.2920   38.4400 C   0  0  0  0  0  2  0  0  0  0  0  0
   36.7000   28.7220   38.1190 C   0  0  0  0  0  2  0  0  0  0  0  0
  1  6  1  0  0  0  0
  1 13  1  0  0  0  0
  2  1  2  0  0  0  0
  3  4  2  0  0  0  0
  3  2  1  0  0  0  0
  4  5  1  0  0  0  0
  5  9  1  0  0  0  0
  5  6  2  0  0  0  0
  6 10  1  0  0  0  0
  7  3  1  0  0  0  0
  8  4  1  0  0  0  0
 11 16  1  0  0  0  0
 12 13  1  0  0  0  0
 12 11  2  0  0  0  0
 13 14  2  0  0  0  0
 14 15  1  0  0  0  0
 15 19  1  0  0  0  0
 16 15  2  0  0  0  0
 17 11  1  0  0  0  0
 18 12  1  0  0  0  0
 20  2  1  0  0  0  0
 20 22  1  0  0  0  0
 20 21  1  0  0  0  0
 23 24  1  0  0  0  0
 23 20  1  0  0  0  0
 25 26  1  0  0  0  0
 25 24  1  0  0  0  0
 26 27  1  0  0  0  0
 28 27  1  0  0  0  0
 28 23  1  0  0  0  0
M  END
>  <minimizedAffinity>
-4.98236132

$$$$

 OpenBabel03252508433D

 28 30  0  0  0  0  0  0  0  0999 V2000
   37.0020   28.2710   41.1760 C   0  0  0  0  0  0  0  0  0  0  0  0
   37.1470   26.9180   41.4840 C   0  0  0  0  0  0  0  0  0  0  0  0
   37.5600   26.5910   42.7670 C   0  0  0  0  0  0  0  0  0  0  0  0
   37.8100   27.5700   43.6790 C   0  0  0  0  0  0  0  0  0  0  0  0
   37.6730   28.8940   43.3990 C   0  0  0  0  0  0  0  0  0  0  0  0
   37.2590   29.2040   42.1060 C   0  0  0  0  0  0  0  0  0  0  0  0
   37.7020   25.5910   43.0810 H   0  0  0  0  0  0  0  0  0  0  0  0
   38.1360   27.3480   44.6970 H   0  0  0  0  0  0  0  0  0  0  0  0
   37.8420   29.7260   44.0370 H   0  0  0  0  0  0  0  0  0  0  0  0
   37.1210   30.2410   41.7910 H   0  0  0  0  0  0  0  0  0  0  0  0
   34.9580   29.0230   38.0780 C   0  0  0  0  0  0  0  0  0  0  0  0
   35.2510   28.7300   39.4280 C   0  0  0  0  0  0  0  0  0  0  0  0
   36.5700   28.5740   39.8080 C   0  0  0  0  0  0  0  0  0  0  0  0
   37.5210   28.7120   38.8480 N   0  0  0  0  0  0  0  0  0  0  0  0
   37.2290   28.9920   37.5570 C   0  0  0  0  0  0  0  0  0  0  0  0
   35.9550   29.1470   37.1710 N   0  0  0  0  0  0  0  0  0  0  0  0
   33.9190   29.1380   37.8080 H   0  0  0  0  0  0  0  0  0  0  0  0
   34.5200   28.6170   40.1990 H   0  0  0  0  0  0  0  0  0  0  0  0
   38.0250   29.0910   36.8320 H   0  0  0  0  0  0  0  0  0  0  0  0
   36.8550   25.8920   40.4610 C   0  0  0  0  0  0  0  0  0  0  0  0
   35.8970   26.1990   39.9730 H   0  0  0  0  0  0  0  0  0  0  0  0
   37.6260   26.0490   39.6530 H   0  0  0  0  0  0  0  0  0  0  0  0
   36.8340   24.4870   40.9130 C   0  0  0  0  0  3  0  0  0  0  0  0
   38.1790   23.8580   40.5050 C   0  0  0  0  0  2  0  0  0  0  0  0
   38.0860   22.3760   40.3290 C   0  0  0  0  0  2  0  0  0  0  0  0
   37.4460   22.1500   38.9620 C   0  0  0  0  0  2  0  0  0  0  0  0
   36.4230   23.2220   38.7830 C   0  0  0  0  0  2  0  0  0  0  0  0
   35.8110   23.7270   40.0690 C   0  0  0  0  0  2  0  0  0  0  0  0
  1  2  2  0  0  0  0
  1  6  1  0  0  0  0
  2  3  1  0  0  0  0
  3  7  1  0  0  0  0
  3  4  2  0  0  0  0
  4  8  1  0  0  0  0
  5  4  1  0  0  0  0
  5  9  1  0  0  0  0
  6  5  2  0  0  0  0
 10  6  1  0  0  0  0
 11 12  1  0  0  0  0
 12 13  2  0  0  0  0
 12 18  1  0  0  0  0
 13  1  1  0  0  0  0
 14 13  1  0  0  0  0
 15 14  2  0  0  0  0
 16 15  1  0  0  0  0
 16 11  2  0  0  0  0
 17 11  1  0  0  0  0
 19 15  1  0  0  0  0
 20 23  1  0  0  0  0
 20  2  1  0  0  0  0
 21 20  1  0  0  0  0
 22 20  1  0  0  0  0
 24 23  1  0  0  0  0
 25 24  1  0  0  0  0
 26 25  1  0  0  0  0
 27 26  1  0  0  0  0
 27 28  1  0  0  0  0
 28 23  1  0  0  0  0
M  END
>  <minimizedAffinity>
-4.98183441

$$$$

 OpenBabel03252508433D

 28 30  0  0  0  0  0  0  0  0999 V2000
   37.0840   25.7750   40.4390 C   0  0  0  0  0  0  0  0  0  0  0  0
   36.9090   26.6900   39.4020 C   0  0  0  0  0  0  0  0  0  0  0  0
   36.1850   26.2760   38.2950 C   0  0  0  0  0  0  0  0  0  0  0  0
   35.6710   25.0160   38.2400 C   0  0  0  0  0  0  0  0  0  0  0  0
   35.8300   24.1100   39.2420 C   0  0  0  0  0  0  0  0  0  0  0  0
   36.5600   24.5420   40.3460 C   0  0  0  0  0  0  0  0  0  0  0  0
   36.0120   26.9040   37.4610 H   0  0  0  0  0  0  0  0  0  0  0  0
   35.0960   24.6590   37.3840 H   0  0  0  0  0  0  0  0  0  0  0  0
   35.4700   23.1120   39.2930 H   0  0  0  0  0  0  0  0  0  0  0  0
   36.7380   23.8830   41.1990 H   0  0  0  0  0  0  0  0  0  0  0  0
   38.1830   27.3970   43.6800 C   0  0  0  0  0  0  0  0  0  0  0  0
   37.3350   26.9990   42.6240 C   0  0  0  0  0  0  0  0  0  0  0  0
   37.8600   26.2490   41.5900 C   0  0  0  0  0  0  0  0  0  0  0  0
   39.1800   25.9360   41.6480 N   0  0  0  0  0  0  0  0  0  0  0  0
   39.9860   26.3240   42.6650 C   0  0  0  0  0  0  0  0  0  0  0  0
   39.4910   27.0510   43.6770 N   0  0  0  0  0  0  0  0  0  0  0  0
   37.7470   27.9840   44.4750 H   0  0  0  0  0  0  0  0  0  0  0  0
   36.2950   27.2340   42.5570 H   0  0  0  0  0  0  0  0  0  0  0  0
   41.0310   26.0470   42.6620 H   0  0  0  0  0  0  0  0  0  0  0  0
   37.4790   28.0490   39.5120 C   0  0  0  0  0  0  0  0  0  0  0  0
   37.7230   28.2010   40.5930 H   0  0  0  0  0  0  0  0  0  0  0  0
   38.4910   27.9880   39.0180 H   0  0  0  0  0  0  0  0  0  0  0  0
   36.6780   29.1560   38.9520 C   0  0  0  0  0  3  0  0  0  0  0  0
   37.6640   30.2490   38.5030 C   0  0  0  0  0  2  0  0  0  0  0  0
   37.0440   31.6100   38.4980 C   0  0  0  0  0  2  0  0  0  0  0  0
   37.0280   32.0740   39.9530 C   0  0  0  0  0  2  0  0  0  0  0  0
   36.7380   30.8700   40.7860 C   0  0  0  0  0  2  0  0  0  0  0  0
   35.9060   29.8150   40.0950 C   0  0  0  0  0  2  0  0  0  0  0  0
  1 13  1  0  0  0  0
  2 20  1  0  0  0  0
  2  1  2  0  0  0  0
  3  2  1  0  0  0  0
  4  3  2  0  0  0  0
  4  5  1  0  0  0  0
  5  9  1  0  0  0  0
  5  6  2  0  0  0  0
  6  1  1  0  0  0  0
  6 10  1  0  0  0  0
  7  3  1  0  0  0  0
  8  4  1  0  0  0  0
 11 17  1  0  0  0  0
 12 11  2  0  0  0  0
 13 14  2  0  0  0  0
 13 12  1  0  0  0  0
 14 15  1  0  0  0  0
 15 16  2  0  0  0  0
 16 11  1  0  0  0  0
 18 12  1  0  0  0  0
 19 15  1  0  0  0  0
 20 21  1  0  0  0  0
 22 20  1  0  0  0  0
 23 20  1  0  0  0  0
 23 28  1  0  0  0  0
 24 23  1  0  0  0  0
 25 24  1  0  0  0  0
 25 26  1  0  0  0  0
 26 27  1  0  0  0  0
 28 27  1  0  0  0  0
M  END
>  <minimizedAffinity>
-4.91562891

$$$$
