
 OpenBabel03252504543D

 18 19  0  0  0  0  0  0  0  0999 V2000
   44.3750   36.0020   44.7180 C   0  0  0  0  0  0  0  0  0  0  0  0
   44.8770   35.4400   43.5180 C   0  0  0  0  0  0  0  0  0  0  0  0
   45.5100   34.2030   43.6090 C   0  0  0  0  0  0  0  0  0  0  0  0
   45.6220   33.5930   44.8220 N   0  0  0  0  0  0  0  0  0  0  0  0
   45.1210   34.1760   45.9510 C   0  0  0  0  0  0  0  0  0  0  0  0
   44.5040   35.3700   45.8950 N   0  0  0  0  0  0  0  0  0  0  0  0
   43.8810   36.9590   44.6670 H   0  0  0  0  0  0  0  0  0  0  0  0
   44.7490   35.9830   42.6060 H   0  0  0  0  0  0  0  0  0  0  0  0
   45.2090   33.6970   46.9040 H   0  0  0  0  0  0  0  0  0  0  0  0
   46.0250   33.6290   42.3670 C   0  0  0  0  0  0  0  0  0  0  0  0
   45.9810   32.5240   42.4710 H   0  0  0  0  0  0  0  0  0  0  0  0
   45.4400   33.8950   41.4790 H   0  0  0  0  0  0  0  0  0  0  0  0
   47.4690   33.9590   42.1050 C   0  0  0  0  0  3  0  0  0  0  0  0
   47.8050   35.4180   42.1990 C   0  0  0  0  0  2  0  0  0  0  0  0
   49.1560   35.5750   41.5000 C   0  0  0  0  0  2  0  0  0  0  0  0
   50.1600   34.8020   42.3130 C   0  0  0  0  0  2  0  0  0  0  0  0
   49.7900   33.3390   42.3700 C   0  0  0  0  0  2  0  0  0  0  0  0
   48.4110   33.2140   43.0310 C   0  0  0  0  0  2  0  0  0  0  0  0
  1  6  1  0  0  0  0
  2  3  1  0  0  0  0
  2  1  2  0  0  0  0
  3  4  2  0  0  0  0
  4  5  1  0  0  0  0
  5  9  1  0  0  0  0
  6  5  2  0  0  0  0
  7  1  1  0  0  0  0
  8  2  1  0  0  0  0
 10 11  1  0  0  0  0
 10  3  1  0  0  0  0
 12 10  1  0  0  0  0
 13 14  1  0  0  0  0
 13 10  1  0  0  0  0
 13 18  1  0  0  0  0
 15 14  1  0  0  0  0
 15 16  1  0  0  0  0
 16 17  1  0  0  0  0
 17 18  1  0  0  0  0
M  END
>  <minimizedAffinity>
-4.38988113

>  <minimizedRMSD>
1.5640744

$$$$
