
     RDKit          3D

 56 59  0  0  0  0  0  0  0  0999 V2000
   45.6860   33.6867   40.6631 C   0  0  0  0  0  0  0  0  0  0  0  0
   46.1746   33.3407   39.4222 C   0  0  0  0  0  0  0  0  0  0  0  0
   47.4035   33.6963   38.9422 C   0  0  0  0  0  0  0  0  0  0  0  0
   48.1965   34.4681   39.8032 C   0  0  0  0  0  0  0  0  0  0  0  0
   47.7649   34.8397   41.0440 C   0  0  0  0  0  0  0  0  0  0  0  0
   46.5276   34.4593   41.4786 C   0  0  0  0  0  0  0  0  0  0  0  0
   46.1774   34.8833   42.7808 N   0  0  0  0  0  0  0  0  0  0  0  0
   45.3180   35.9947   43.0620 C   0  0  0  0  0  0  0  0  0  0  0  0
   44.7589   35.9076   44.4731 C   0  0  0  0  0  0  0  0  0  0  0  0
   44.4198   34.5898   44.8876 N   0  0  0  0  0  0  0  0  0  0  0  0
   45.4675   33.6417   44.7664 C   0  0  0  0  0  0  0  0  0  0  0  0
   46.6391   34.2539   44.0276 C   0  0  0  0  0  0  0  0  0  0  0  0
   44.3670   33.3071   41.1661 C   0  0  0  0  0  0  0  0  0  0  0  0
   43.3972   33.0286   40.0403 C   0  0  0  0  0  0  0  0  0  0  0  0
   40.7966   35.6967   39.4271 C   0  0  0  0  0  0  0  0  0  0  0  0
   41.9414   34.8854   39.2651 C   0  0  0  0  0  0  0  0  0  0  0  0
   42.2023   33.8905   40.1996 C   0  0  0  0  0  0  0  0  0  0  0  0
   41.3240   33.7469   41.2430 N   0  0  0  0  0  0  0  0  0  0  0  0
   40.2455   34.5311   41.3720 C   0  0  0  0  0  0  0  0  0  0  0  0
   39.9853   35.4990   40.4690 N   0  0  0  0  0  0  0  0  0  0  0  0
   45.6423   32.7395   38.6996 H   0  0  0  0  0  0  0  0  0  0  0  0
   47.8166   33.4439   37.9780 H   0  0  0  0  0  0  0  0  0  0  0  0
   49.1961   34.7876   39.4777 H   0  0  0  0  0  0  0  0  0  0  0  0
   48.4398   35.4416   41.6589 H   0  0  0  0  0  0  0  0  0  0  0  0
   46.0143   36.8859   43.0980 H   0  0  0  0  0  0  0  0  0  0  0  0
   44.5816   36.2651   42.3164 H   0  0  0  0  0  0  0  0  0  0  0  0
   45.3911   36.4362   45.2174 H   0  0  0  0  0  0  0  0  0  0  0  0
   43.8016   36.4929   44.4335 H   0  0  0  0  0  0  0  0  0  0  0  0
   43.9048   34.6366   45.7652 H   0  0  0  0  0  0  0  0  0  0  0  0
   45.1583   32.7377   44.1875 H   0  0  0  0  0  0  0  0  0  0  0  0
   45.7931   33.3695   45.7838 H   0  0  0  0  0  0  0  0  0  0  0  0
   47.0553   35.0567   44.6869 H   0  0  0  0  0  0  0  0  0  0  0  0
   47.4394   33.5233   43.8356 H   0  0  0  0  0  0  0  0  0  0  0  0
   43.9290   33.9964   41.8851 H   0  0  0  0  0  0  0  0  0  0  0  0
   44.5163   32.3393   41.7191 H   0  0  0  0  0  0  0  0  0  0  0  0
   43.8209   33.2226   39.0691 H   0  0  0  0  0  0  0  0  0  0  0  0
   43.0458   31.9741   40.0457 H   0  0  0  0  0  0  0  0  0  0  0  0
   40.7044   36.4201   38.6507 H   0  0  0  0  0  0  0  0  0  0  0  0
   42.6309   34.9965   38.4481 H   0  0  0  0  0  0  0  0  0  0  0  0
   39.3102   34.3569   42.5087 C   0  0  0  0  0  0  0  0  0  0  0  0
   39.7583   33.1503   43.3169 C   0  0  0  0  0  0  0  0  0  0  0  0
   38.5667   32.8454   44.2336 C   0  0  0  0  0  0  0  0  0  0  0  0
   38.4658   33.9577   45.2507 C   0  0  0  0  0  0  0  0  0  0  0  0
   39.3441   35.1329   44.8977 C   0  0  0  0  0  0  0  0  0  0  0  0
   39.2394   35.5129   43.4428 C   0  0  0  0  0  0  0  0  0  0  0  0
   38.2829   34.1171   42.1556 H   0  0  0  0  0  0  0  0  0  0  0  0
   40.6748   33.3606   43.8903 H   0  0  0  0  0  0  0  0  0  0  0  0
   39.8610   32.3041   42.6120 H   0  0  0  0  0  0  0  0  0  0  0  0
   37.6825   32.8410   43.5761 H   0  0  0  0  0  0  0  0  0  0  0  0
   38.7220   31.8631   44.6808 H   0  0  0  0  0  0  0  0  0  0  0  0
   38.7931   33.5549   46.2294 H   0  0  0  0  0  0  0  0  0  0  0  0
   37.4164   34.2745   45.3573 H   0  0  0  0  0  0  0  0  0  0  0  0
   40.3938   34.9564   45.1560 H   0  0  0  0  0  0  0  0  0  0  0  0
   38.9887   35.9957   45.5115 H   0  0  0  0  0  0  0  0  0  0  0  0
   40.0265   36.2963   43.2740 H   0  0  0  0  0  0  0  0  0  0  0  0
   38.2547   36.0503   43.3248 H   0  0  0  0  0  0  0  0  0  0  0  0
  1 13  1  0
  1  6  1  0
  2  1  2  0
  3  2  1  0
  3  4  2  0
  4  5  1  0
  5  6  2  0
  6  7  1  0
  7  8  1  0
  7 12  1  0
  8  9  1  0
  9 10  1  0
 11 10  1  0
 12 11  1  0
 14 17  1  0
 14 13  1  0
 15 20  2  0
 16 15  1  0
 16 17  2  0
 17 18  1  0
 18 19  2  0
 20 19  1  0
  2 21  1  0
  3 22  1  0
  4 23  1  0
  5 24  1  0
  8 25  1  0
  8 26  1  0
  9 27  1  0
  9 28  1  0
 10 29  1  0
 11 30  1  0
 11 31  1  0
 12 32  1  0
 12 33  1  0
 13 34  1  0
 13 35  1  0
 14 36  1  0
 14 37  1  0
 15 38  1  0
 16 39  1  0
 40 41  1  0
 41 42  1  0
 42 43  1  0
 43 44  1  0
 44 45  1  0
 45 40  1  0
 40 46  1  0
 41 47  1  0
 41 48  1  0
 42 49  1  0
 42 50  1  0
 43 51  1  0
 43 52  1  0
 44 53  1  0
 44 54  1  0
 45 55  1  0
 45 56  1  0
 19 40  1  0
M  ISO  8  21  14  22  14  23  14  24  14  25  13  26  13  27  13  28  13
M  ISO  8  29   5  30  13  31  13  32  13  33  13  34   8  35   8  36   8
M  ISO  3  37   8  38  14  39  14
M  END
>  <DihAtoms>  (1) 
17,18,39,40

>  <DihDeg>  (1) 
-64.18390819233562

$$$$
