
 OpenBabel03252506263D

 42 46  0  0  0  0  0  0  0  0999 V2000
   46.1870   30.1910   48.3250 C   0  0  0  0  0  0  0  0  0  0  0  0
   45.5340   31.0760   48.4530 H   0  0  0  0  0  0  0  0  0  0  0  0
   46.4010   29.8530   49.3820 H   0  0  0  0  0  0  0  0  0  0  0  0
   45.6350   27.7120   47.8280 C   0  0  0  0  0  0  0  0  0  0  0  0
   45.4620   29.0800   47.6990 C   0  0  0  0  0  0  0  0  0  0  0  0
   44.4410   29.5030   46.8470 C   0  0  0  0  0  0  0  0  0  0  0  0
   43.6420   28.6180   46.1630 C   0  0  0  0  0  0  0  0  0  0  0  0
   42.6180   28.7310   45.3100 N   0  0  0  0  0  0  0  0  0  0  0  0
   42.1760   27.5150   44.9270 C   0  0  0  0  0  0  0  0  0  0  0  0
   42.9340   26.5350   45.5480 C   0  0  0  0  0  0  0  0  0  0  0  0
   43.8290   27.2630   46.3040 C   0  0  0  0  0  0  0  0  0  0  0  0
   44.8370   26.8460   47.1450 C   0  0  0  0  0  0  0  0  0  0  0  0
   46.4440   27.4670   48.5040 H   0  0  0  0  0  0  0  0  0  0  0  0
   44.1990   30.5400   46.6570 H   0  0  0  0  0  0  0  0  0  0  0  0
   42.2100   29.6490   44.9790 H   0  0  0  0  0  0  0  0  0  0  0  0
   41.3510   27.3080   44.2350 H   0  0  0  0  0  0  0  0  0  0  0  0
   42.8730   25.4550   45.4840 H   0  0  0  0  0  0  0  0  0  0  0  0
   45.0660   25.4080   47.3170 C   0  0  0  0  0  3  0  0  0  0  0  0
   45.9800   24.7500   46.3560 C   0  0  0  0  0  2  0  0  0  0  0  0
   47.1880   24.0900   46.9540 C   0  0  0  0  0  2  0  0  0  0  0  0
   46.8640   23.0860   48.0100 C   0  0  0  0  0  2  0  0  0  0  0  0
   45.7650   23.5890   48.8870 C   0  0  0  0  0  2  0  0  0  0  0  0
   45.6390   25.1040   48.7100 C   0  0  0  0  0  2  0  0  0  0  0  0
   47.4770   30.5720   47.7160 C   0  0  0  0  0  0  0  0  0  0  0  0
   48.1310   29.7140   47.5670 H   0  0  0  0  0  0  0  0  0  0  0  0
   47.9980   31.2550   48.4360 H   0  0  0  0  0  0  0  0  0  0  0  0
   46.5870   32.8640   45.1300 C   0  0  0  0  0  0  0  0  0  0  0  0
   47.2260   31.8260   44.4050 C   0  0  0  0  0  0  0  0  0  0  0  0
   47.6250   30.8650   45.2730 C   0  0  0  0  0  0  0  0  0  0  0  0
   47.2520   31.2870   46.4850 N   0  0  0  0  0  0  0  0  0  0  0  0
   46.6360   32.4720   46.4000 N   0  0  0  0  0  0  0  0  0  0  0  0
   47.3760   31.7960   43.3330 H   0  0  0  0  0  0  0  0  0  0  0  0
   48.1420   29.9550   44.9890 H   0  0  0  0  0  0  0  0  0  0  0  0
   44.5330   35.8250   44.6320 C   0  0  0  0  0  0  0  0  0  0  0  0
   44.9450   36.3030   43.3900 C   0  0  0  0  0  0  0  0  0  0  0  0
   45.9380   35.5960   42.7230 C   0  0  0  0  0  0  0  0  0  0  0  0
   46.4510   34.4850   43.3150 N   0  0  0  0  0  0  0  0  0  0  0  0
   46.0410   34.0450   44.5050 C   0  0  0  0  0  0  0  0  0  0  0  0
   45.0750   34.7230   45.1640 N   0  0  0  0  0  0  0  0  0  0  0  0
   43.7650   36.3230   45.2070 H   0  0  0  0  0  0  0  0  0  0  0  0
   44.5020   37.1790   42.9860 H   0  0  0  0  0  0  0  0  0  0  0  0
   46.2920   35.9320   41.7490 H   0  0  0  0  0  0  0  0  0  0  0  0
  1  2  1  0  0  0  0
  1  3  1  0  0  0  0
  4 13  1  0  0  0  0
  5  4  1  0  0  0  0
  5  1  1  0  0  0  0
  6  5  2  0  0  0  0
  7 11  2  0  0  0  0
  7  6  1  0  0  0  0
  8  7  1  0  0  0  0
  9  8  1  0  0  0  0
  9 10  2  0  0  0  0
 10 11  1  0  0  0  0
 11 12  1  0  0  0  0
 12 18  1  0  0  0  0
 12  4  2  0  0  0  0
 14  6  1  0  0  0  0
 15  8  1  0  0  0  0
 16  9  1  0  0  0  0
 17 10  1  0  0  0  0
 18 23  1  0  0  0  0
 19 20  1  0  0  0  0
 19 18  1  0  0  0  0
 20 21  1  0  0  0  0
 21 22  1  0  0  0  0
 23 22  1  0  0  0  0
 24  1  1  0  0  0  0
 24 26  1  0  0  0  0
 25 24  1  0  0  0  0
 27 31  2  0  0  0  0
 28 27  1  0  0  0  0
 28 29  2  0  0  0  0
 29 30  1  0  0  0  0
 30 24  1  0  0  0  0
 31 30  1  0  0  0  0
 32 28  1  0  0  0  0
 33 29  1  0  0  0  0
 34 39  1  0  0  0  0
 34 40  1  0  0  0  0
 35 34  2  0  0  0  0
 36 37  2  0  0  0  0
 36 35  1  0  0  0  0
 37 38  1  0  0  0  0
 38 27  1  0  0  0  0
 38 39  2  0  0  0  0
 41 35  1  0  0  0  0
 42 36  1  0  0  0  0
M  END
>  <minimizedAffinity>
-5.44138718

>  <minimizedRMSD>
0.590532899

$$$$
