
 OpenBabel03242517463D

 34 37  0  0  0  0  0  0  0  0999 V2000
   41.5630   34.1120   38.8740 C   0  0  0  0  0  0  0  0  0  0  0  0
   40.4510   34.1070   38.0480 C   0  0  0  0  0  0  0  0  0  0  0  0
   39.1980   34.4070   38.5610 C   0  0  0  0  0  0  0  0  0  0  0  0
   39.0300   34.7130   39.8900 C   0  0  0  0  0  0  0  0  0  0  0  0
   40.1350   34.7160   40.7000 C   0  0  0  0  0  0  0  0  0  0  0  0
   41.4030   34.4210   40.2200 C   0  0  0  0  0  0  0  0  0  0  0  0
   40.5870   33.8630   36.9940 H   0  0  0  0  0  0  0  0  0  0  0  0
   38.3440   34.3970   37.9000 H   0  0  0  0  0  0  0  0  0  0  0  0
   38.0350   34.9430   40.2540 H   0  0  0  0  0  0  0  0  0  0  0  0
   39.9690   34.9640   41.7480 H   0  0  0  0  0  0  0  0  0  0  0  0
   42.5680   34.4320   41.1130 C   0  0  0  0  0  0  0  0  0  0  0  0
   43.2320   35.5590   41.4940 C   0  0  0  0  0  0  0  0  0  0  0  0
   44.3400   35.5290   42.3480 C   0  0  0  0  0  0  0  0  0  0  0  0
   44.7680   34.3520   42.8120 N   0  0  0  0  0  0  0  0  0  0  0  0
   44.1020   33.2370   42.4270 C   0  0  0  0  0  0  0  0  0  0  0  0
   43.0380   33.2620   41.6080 N   0  0  0  0  0  0  0  0  0  0  0  0
   42.8640   36.5040   41.1040 H   0  0  0  0  0  0  0  0  0  0  0  0
   44.7790   36.4930   42.5740 H   0  0  0  0  0  0  0  0  0  0  0  0
   44.3810   32.2370   42.7550 H   0  0  0  0  0  0  0  0  0  0  0  0
   43.1930   33.7450   38.3210 S   0  0  0  0  0  0  0  0  0  0  0  0
   44.3130   31.2620   38.8140 C   0  0  0  0  0  0  0  0  0  0  0  0
   43.3800   31.9980   38.0560 C   0  0  0  0  0  0  0  0  0  0  0  0
   42.6290   31.3260   37.1160 C   0  0  0  0  0  0  0  0  0  0  0  0
   42.8310   29.9850   36.9720 N   0  0  0  0  0  0  0  0  0  0  0  0
   43.7320   29.3130   37.7140 C   0  0  0  0  0  0  0  0  0  0  0  0
   44.4700   29.9240   38.6240 N   0  0  0  0  0  0  0  0  0  0  0  0
   44.9320   31.7580   39.5740 H   0  0  0  0  0  0  0  0  0  0  0  0
   41.9210   31.8710   36.5370 H   0  0  0  0  0  0  0  0  0  0  0  0
   43.9160   27.8470   37.5190 C   0  0  0  0  0  0  0  0  0  0  0  0
   43.0460   27.4000   36.3760 C   0  0  0  0  0  0  0  0  0  0  0  0
   43.3760   26.0150   35.8930 C   0  0  0  0  0  0  0  0  0  0  0  0
   44.8340   26.0570   35.4530 C   0  0  0  0  0  0  0  0  0  0  0  0
   45.6420   26.1980   36.7330 C   0  0  0  0  0  0  0  0  0  0  0  0
   45.3690   27.5430   37.3170 C   0  0  0  0  0  0  0  0  0  0  0  0
  1  6  1  0  0  0  0
  2  3  1  0  0  0  0
  2  1  2  0  0  0  0
  3  4  2  0  0  0  0
  4  9  1  0  0  0  0
  4  5  1  0  0  0  0
  5 10  1  0  0  0  0
  6  5  2  0  0  0  0
  6 11  1  0  0  0  0
  7  2  1  0  0  0  0
  8  3  1  0  0  0  0
 11 12  2  0  0  0  0
 11 16  1  0  0  0  0
 12 13  1  0  0  0  0
 13 18  1  0  0  0  0
 13 14  2  0  0  0  0
 15 19  1  0  0  0  0
 15 14  1  0  0  0  0
 16 15  2  0  0  0  0
 17 12  1  0  0  0  0
 20  1  1  0  0  0  0
 21 27  1  0  0  0  0
 22 20  1  0  0  0  0
 22 21  2  0  0  0  0
 23 22  1  0  0  0  0
 24 23  2  0  0  0  0
 24 25  1  0  0  0  0
 25 26  2  0  0  0  0
 26 21  1  0  0  0  0
 28 23  1  0  0  0  0
 29 25  1  0  0  0  0
 30 29  1  0  0  0  0
 31 30  1  0  0  0  0
 32 31  1  0  0  0  0
 32 33  1  0  0  0  0
 33 34  1  0  0  0  0
 34 29  1  0  0  0  0
M  END
>  <minimizedAffinity>
-4.11129284

>  <minimizedRMSD>
6.13086605

$$$$
