
 OpenBabel03252502593D

 19 20  0  0  0  0  0  0  0  0999 V2000
   43.5600   35.4440   41.3210 S   0  0  0  0  0  0  0  0  0  0  0  0
   44.2500   35.8190   43.9940 C   0  0  0  0  0  0  0  0  0  0  0  0
   44.2820   34.9390   42.9030 C   0  0  0  0  0  0  0  0  0  0  0  0
   44.8610   33.6690   43.0070 C   0  0  0  0  0  0  0  0  0  0  0  0
   45.3930   33.3400   44.2290 N   0  0  0  0  0  0  0  0  0  0  0  0
   45.3440   34.2070   45.2500 C   0  0  0  0  0  0  0  0  0  0  0  0
   44.7940   35.4220   45.1670 N   0  0  0  0  0  0  0  0  0  0  0  0
   43.7910   36.7640   43.8310 H   0  0  0  0  0  0  0  0  0  0  0  0
   44.8520   33.0420   42.1270 H   0  0  0  0  0  0  0  0  0  0  0  0
   45.7700   33.9240   46.2040 H   0  0  0  0  0  0  0  0  0  0  0  0
   42.9080   33.9950   40.4630 C   0  0  0  0  0  0  0  0  0  0  0  0
   43.6860   33.5670   39.8000 H   0  0  0  0  0  0  0  0  0  0  0  0
   42.6600   33.2120   41.2090 H   0  0  0  0  0  0  0  0  0  0  0  0
   41.7240   34.3320   39.5890 C   0  0  0  0  0  0  0  0  0  0  0  0
   42.0470   35.3830   38.5670 C   0  0  0  0  0  0  0  0  0  0  0  0
   40.8680   35.5540   37.6560 C   0  0  0  0  0  0  0  0  0  0  0  0
   39.6990   34.6800   37.9810 C   0  0  0  0  0  0  0  0  0  0  0  0
   39.3180   34.6590   39.4320 C   0  0  0  0  0  0  0  0  0  0  0  0
   40.5190   34.7750   40.3640 C   0  0  0  0  0  0  0  0  0  0  0  0
  1  3  1  0  0  0  0
  2  7  1  0  0  0  0
  3  4  1  0  0  0  0
  3  2  2  0  0  0  0
  4  5  2  0  0  0  0
  5  6  1  0  0  0  0
  6 10  1  0  0  0  0
  7  6  2  0  0  0  0
  8  2  1  0  0  0  0
  9  4  1  0  0  0  0
 11 13  1  0  0  0  0
 11  1  1  0  0  0  0
 12 11  1  0  0  0  0
 14 19  1  0  0  0  0
 14 11  1  0  0  0  0
 15 14  1  0  0  0  0
 16 17  1  0  0  0  0
 16 15  1  0  0  0  0
 17 18  1  0  0  0  0
 18 19  1  0  0  0  0
M  END
>  <minimizedAffinity>
-4.62098026

>  <minimizedRMSD>
1.69722056

$$$$
