
 OpenBabel03242513143D

 27 29  0  0  0  0  0  0  0  0999 V2000
   44.6610   30.8540   47.8740 Cl  0  0  0  0  0  0  0  0  0  0  0  0
   45.8590   30.1340   46.7810 C   0  0  0  0  0  0  0  0  0  0  0  0
   46.8410   30.9070   46.2760 C   0  0  0  0  0  0  0  0  0  0  0  0
   47.7510   30.2880   45.4640 C   0  0  0  0  0  0  0  0  0  0  0  0
   47.6640   28.9530   45.1820 C   0  0  0  0  0  0  0  0  0  0  0  0
   46.6330   28.1670   45.7160 C   0  0  0  0  0  0  0  0  0  0  0  0
   45.7040   28.7940   46.5450 C   0  0  0  0  0  0  0  0  0  0  0  0
   48.6050   30.7150   44.9830 H   0  0  0  0  0  0  0  0  0  0  0  0
   48.3670   28.3990   44.5340 H   0  0  0  0  0  0  0  0  0  0  0  0
   46.6130   27.1000   45.4630 H   0  0  0  0  0  0  0  0  0  0  0  0
   44.6160   28.0270   47.1430 C   0  0  0  0  0  0  0  0  0  0  0  0
   44.7810   27.1020   48.2220 C   0  0  0  0  0  0  0  0  0  0  0  0
   44.8320   25.6700   47.6690 C   0  0  0  0  0  0  0  0  0  0  0  0
   43.4250   25.2370   47.3000 C   0  0  0  0  0  0  0  0  0  0  0  0
   42.7940   26.4110   46.5730 C   0  0  0  0  0  0  0  0  0  0  0  0
   43.8580   27.3480   46.0250 C   0  0  0  0  0  0  0  0  0  0  0  0
   46.8910   32.3200   46.5760 C   0  0  0  0  0  0  0  0  0  0  0  0
   47.4680   32.6460   47.6460 O   0  0  0  0  0  0  0  0  0  0  0  0
   44.7560   35.0050   45.4000 C   0  0  0  0  0  0  0  0  0  0  0  0
   45.1660   35.2530   44.0980 C   0  0  0  0  0  0  0  0  0  0  0  0
   46.2080   34.4530   43.6410 C   0  0  0  0  0  0  0  0  0  0  0  0
   46.7470   33.5110   44.4610 N   0  0  0  0  0  0  0  0  0  0  0  0
   46.3140   33.3120   45.7100 C   0  0  0  0  0  0  0  0  0  0  0  0
   45.3150   34.0740   46.1570 N   0  0  0  0  0  0  0  0  0  0  0  0
   43.9470   35.5880   45.8280 H   0  0  0  0  0  0  0  0  0  0  0  0
   44.6820   36.0170   43.5290 H   0  0  0  0  0  0  0  0  0  0  0  0
   46.5630   34.6110   42.6280 H   0  0  0  0  0  0  0  0  0  0  0  0
  2  1  1  0  0  0  0
  3 17  1  0  0  0  0
  3  2  2  0  0  0  0
  4  3  1  0  0  0  0
  5  4  2  0  0  0  0
  5  6  1  0  0  0  0
  6  7  2  0  0  0  0
  7  2  1  0  0  0  0
  7 11  1  0  0  0  0
  8  4  1  0  0  0  0
  9  5  1  0  0  0  0
 10  6  1  0  0  0  0
 11 12  1  0  0  0  0
 13 12  1  0  0  0  0
 14 13  1  0  0  0  0
 15 14  1  0  0  0  0
 16 15  1  0  0  0  0
 16 11  1  0  0  0  0
 17 18  2  0  0  0  0
 19 25  1  0  0  0  0
 19 24  1  0  0  0  0
 20 19  2  0  0  0  0
 21 20  1  0  0  0  0
 21 22  2  0  0  0  0
 22 23  1  0  0  0  0
 23 24  2  0  0  0  0
 23 17  1  0  0  0  0
 26 20  1  0  0  0  0
 27 21  1  0  0  0  0
M  END
>  <minimizedAffinity>
-5.05472231

>  <minimizedRMSD>
1.74217403

$$$$
