
 OpenBabel03242513353D

 18 19  0  0  0  0  0  0  0  0999 V2000
   39.1380   31.3970   41.3290 C   0  0  0  0  0  0  0  0  0  0  0  0
   38.0060   31.9250   40.7130 C   0  0  0  0  0  0  0  0  0  0  0  0
   36.8460   31.1580   40.7640 C   0  0  0  0  0  0  0  0  0  0  0  0
   36.8600   29.9620   41.3940 N   0  0  0  0  0  0  0  0  0  0  0  0
   37.9850   29.4880   41.9800 C   0  0  0  0  0  0  0  0  0  0  0  0
   39.1150   30.1940   41.9500 N   0  0  0  0  0  0  0  0  0  0  0  0
   40.1020   31.9250   41.3430 H   0  0  0  0  0  0  0  0  0  0  0  0
   35.9690   31.5810   40.2800 H   0  0  0  0  0  0  0  0  0  0  0  0
   37.9430   28.1690   42.6570 C   0  0  0  0  0  3  0  0  0  0  0  0
   39.2960   27.8000   43.1650 C   0  0  0  0  0  2  0  0  0  0  0  0
   39.4240   26.3730   43.5740 C   0  0  0  0  0  2  0  0  0  0  0  0
   38.7600   25.3810   42.6700 C   0  0  0  0  0  2  0  0  0  0  0  0
   37.3570   25.8200   42.2960 C   0  0  0  0  0  2  0  0  0  0  0  0
   37.5130   27.1530   41.6020 C   0  0  0  0  0  2  0  0  0  0  0  0
   38.1430   33.2440   40.0650 C   0  0  0  0  0  0  0  0  0  0  0  0
   39.1170   33.1100   39.0950 F   0  0  0  0  0  0  0  0  0  0  0  0
   38.5400   34.1610   41.0060 F   0  0  0  0  0  0  0  0  0  0  0  0
   36.8920   33.5910   39.5250 F   0  0  0  0  0  0  0  0  0  0  0  0
  1  7  1  0  0  0  0
  1  6  1  0  0  0  0
  2  3  1  0  0  0  0
  2  1  2  0  0  0  0
  3  4  2  0  0  0  0
  4  5  1  0  0  0  0
  5  9  1  0  0  0  0
  6  5  2  0  0  0  0
  8  3  1  0  0  0  0
  9 10  1  0  0  0  0
 10 11  1  0  0  0  0
 12 11  1  0  0  0  0
 13 12  1  0  0  0  0
 14 13  1  0  0  0  0
 14  9  1  0  0  0  0
 15  2  1  0  0  0  0
 15 17  1  0  0  0  0
 16 15  1  0  0  0  0
 18 15  1  0  0  0  0
M  END
>  <minimizedAffinity>
-4.97290182

$$$$

 OpenBabel03242513353D

 18 19  0  0  0  0  0  0  0  0999 V2000
   38.7360   30.6720   40.0040 C   0  0  0  0  0  0  0  0  0  0  0  0
   37.6310   31.5200   40.0110 C   0  0  0  0  0  0  0  0  0  0  0  0
   36.5580   31.1470   40.8150 C   0  0  0  0  0  0  0  0  0  0  0  0
   36.6250   30.0090   41.5400 N   0  0  0  0  0  0  0  0  0  0  0  0
   37.7220   29.2140   41.5030 C   0  0  0  0  0  0  0  0  0  0  0  0
   38.7690   29.5380   40.7440 N   0  0  0  0  0  0  0  0  0  0  0  0
   39.6330   30.8780   39.4030 H   0  0  0  0  0  0  0  0  0  0  0  0
   35.7010   31.8170   40.8120 H   0  0  0  0  0  0  0  0  0  0  0  0
   37.7420   27.9770   42.3190 C   0  0  0  0  0  3  0  0  0  0  0  0
   39.1090   27.7330   42.8640 C   0  0  0  0  0  2  0  0  0  0  0  0
   39.3060   26.3670   43.4260 C   0  0  0  0  0  2  0  0  0  0  0  0
   38.6970   25.2510   42.6360 C   0  0  0  0  0  2  0  0  0  0  0  0
   37.2750   25.5760   42.2160 C   0  0  0  0  0  2  0  0  0  0  0  0
   37.3690   26.8320   41.3810 C   0  0  0  0  0  2  0  0  0  0  0  0
   37.7020   32.7280   39.1680 C   0  0  0  0  0  0  0  0  0  0  0  0
   37.2130   32.3740   37.9250 F   0  0  0  0  0  0  0  0  0  0  0  0
   39.0140   33.1180   39.0620 F   0  0  0  0  0  0  0  0  0  0  0  0
   36.9310   33.7300   39.7830 F   0  0  0  0  0  0  0  0  0  0  0  0
  1  2  2  0  0  0  0
  1  6  1  0  0  0  0
  2  3  1  0  0  0  0
  3  4  2  0  0  0  0
  5  4  1  0  0  0  0
  5  9  1  0  0  0  0
  6  5  2  0  0  0  0
  7  1  1  0  0  0  0
  8  3  1  0  0  0  0
  9 10  1  0  0  0  0
 10 11  1  0  0  0  0
 12 11  1  0  0  0  0
 13 12  1  0  0  0  0
 14 13  1  0  0  0  0
 14  9  1  0  0  0  0
 15 18  1  0  0  0  0
 15  2  1  0  0  0  0
 16 15  1  0  0  0  0
 17 15  1  0  0  0  0
M  END
>  <minimizedAffinity>
-4.79696178

$$$$

 OpenBabel03242513353D

 18 19  0  0  0  0  0  0  0  0999 V2000
   36.6630   31.7600   40.2620 C   0  0  0  0  0  0  0  0  0  0  0  0
   37.9820   32.1380   40.5020 C   0  0  0  0  0  0  0  0  0  0  0  0
   38.8240   31.1730   41.0460 C   0  0  0  0  0  0  0  0  0  0  0  0
   38.3460   29.9370   41.3120 N   0  0  0  0  0  0  0  0  0  0  0  0
   37.0540   29.6130   41.0610 C   0  0  0  0  0  0  0  0  0  0  0  0
   36.2180   30.5120   40.5420 N   0  0  0  0  0  0  0  0  0  0  0  0
   35.9210   32.4490   39.8360 H   0  0  0  0  0  0  0  0  0  0  0  0
   39.8510   31.4800   41.2280 H   0  0  0  0  0  0  0  0  0  0  0  0
   36.5830   28.2430   41.3730 C   0  0  0  0  0  3  0  0  0  0  0  0
   36.8300   27.9200   42.8090 C   0  0  0  0  0  2  0  0  0  0  0  0
   36.6840   26.4750   43.1420 C   0  0  0  0  0  2  0  0  0  0  0  0
   37.2540   25.5210   42.1380 C   0  0  0  0  0  2  0  0  0  0  0  0
   36.8580   25.8990   40.7220 C   0  0  0  0  0  2  0  0  0  0  0  0
   37.3990   27.2930   40.5010 C   0  0  0  0  0  2  0  0  0  0  0  0
   38.3600   33.5220   40.1600 C   0  0  0  0  0  0  0  0  0  0  0  0
   39.3910   33.4380   39.2450 F   0  0  0  0  0  0  0  0  0  0  0  0
   38.7930   34.1580   41.2980 F   0  0  0  0  0  0  0  0  0  0  0  0
   37.2240   34.1610   39.6320 F   0  0  0  0  0  0  0  0  0  0  0  0
  1  2  2  0  0  0  0
  1  6  1  0  0  0  0
  2  3  1  0  0  0  0
  3  8  1  0  0  0  0
  3  4  2  0  0  0  0
  5  4  1  0  0  0  0
  5  9  1  0  0  0  0
  6  5  2  0  0  0  0
  7  1  1  0  0  0  0
  9 10  1  0  0  0  0
 10 11  1  0  0  0  0
 12 11  1  0  0  0  0
 13 12  1  0  0  0  0
 14 13  1  0  0  0  0
 14  9  1  0  0  0  0
 15  2  1  0  0  0  0
 15 17  1  0  0  0  0
 16 15  1  0  0  0  0
 18 15  1  0  0  0  0
M  END
>  <minimizedAffinity>
-4.78465652

$$$$

 OpenBabel03242513353D

 18 19  0  0  0  0  0  0  0  0999 V2000
   38.6760   28.0740   41.5610 C   0  0  0  0  0  0  0  0  0  0  0  0
   37.3660   27.6830   41.8300 C   0  0  0  0  0  0  0  0  0  0  0  0
   36.3550   28.5410   41.4100 C   0  0  0  0  0  0  0  0  0  0  0  0
   36.6700   29.6900   40.7720 N   0  0  0  0  0  0  0  0  0  0  0  0
   37.9590   30.0300   40.5310 C   0  0  0  0  0  0  0  0  0  0  0  0
   38.9560   29.2340   40.9200 N   0  0  0  0  0  0  0  0  0  0  0  0
   39.5440   27.4670   41.8520 H   0  0  0  0  0  0  0  0  0  0  0  0
   35.3370   28.2250   41.6260 H   0  0  0  0  0  0  0  0  0  0  0  0
   38.2480   31.3030   39.8270 C   0  0  0  0  0  3  0  0  0  0  0  0
   39.6140   31.7930   40.1740 C   0  0  0  0  0  2  0  0  0  0  0  0
   39.8740   33.2040   39.7740 C   0  0  0  0  0  2  0  0  0  0  0  0
   38.7450   34.1590   40.0090 C   0  0  0  0  0  2  0  0  0  0  0  0
   37.4230   33.5880   39.5320 C   0  0  0  0  0  2  0  0  0  0  0  0
   37.2160   32.3150   40.3180 C   0  0  0  0  0  2  0  0  0  0  0  0
   37.1770   26.4010   42.5350 C   0  0  0  0  0  0  0  0  0  0  0  0
   36.1890   26.6080   43.4770 F   0  0  0  0  0  0  0  0  0  0  0  0
   38.3530   26.0570   43.1550 F   0  0  0  0  0  0  0  0  0  0  0  0
   36.8150   25.4340   41.5810 F   0  0  0  0  0  0  0  0  0  0  0  0
  1  2  1  0  0  0  0
  1  7  1  0  0  0  0
  2 15  1  0  0  0  0
  3  8  1  0  0  0  0
  3  2  2  0  0  0  0
  4  3  1  0  0  0  0
  5  4  2  0  0  0  0
  5  6  1  0  0  0  0
  6  1  2  0  0  0  0
  9 10  1  0  0  0  0
  9 14  1  0  0  0  0
  9  5  1  0  0  0  0
 11 12  1  0  0  0  0
 11 10  1  0  0  0  0
 13 12  1  0  0  0  0
 13 14  1  0  0  0  0
 15 17  1  0  0  0  0
 15 16  1  0  0  0  0
 18 15  1  0  0  0  0
M  END
>  <minimizedAffinity>
-4.63964367

$$$$

 OpenBabel03242513353D

 18 19  0  0  0  0  0  0  0  0999 V2000
   38.9400   28.5370   42.7450 C   0  0  0  0  0  0  0  0  0  0  0  0
   37.6420   28.2550   42.3260 C   0  0  0  0  0  0  0  0  0  0  0  0
   36.9820   29.2500   41.6120 C   0  0  0  0  0  0  0  0  0  0  0  0
   37.6060   30.4210   41.3560 N   0  0  0  0  0  0  0  0  0  0  0  0
   38.8720   30.6520   41.7820 C   0  0  0  0  0  0  0  0  0  0  0  0
   39.5360   29.7230   42.4710 N   0  0  0  0  0  0  0  0  0  0  0  0
   39.5450   27.8190   43.3150 H   0  0  0  0  0  0  0  0  0  0  0  0
   35.9690   29.0180   41.2900 H   0  0  0  0  0  0  0  0  0  0  0  0
   39.5090   31.9540   41.4740 C   0  0  0  0  0  3  0  0  0  0  0  0
   38.5410   32.8590   40.7870 C   0  0  0  0  0  2  0  0  0  0  0  0
   39.1670   34.0570   40.1610 C   0  0  0  0  0  2  0  0  0  0  0  0
   40.4650   33.8110   39.4540 C   0  0  0  0  0  2  0  0  0  0  0  0
   41.4010   32.9570   40.2890 C   0  0  0  0  0  2  0  0  0  0  0  0
   40.6700   31.6570   40.5280 C   0  0  0  0  0  2  0  0  0  0  0  0
   37.0920   26.9330   42.6800 C   0  0  0  0  0  0  0  0  0  0  0  0
   38.1360   26.1950   43.2010 F   0  0  0  0  0  0  0  0  0  0  0  0
   36.6140   26.3320   41.5410 F   0  0  0  0  0  0  0  0  0  0  0  0
   36.0570   27.1320   43.6110 F   0  0  0  0  0  0  0  0  0  0  0  0
  1  7  1  0  0  0  0
  2 15  1  0  0  0  0
  2  1  2  0  0  0  0
  3  2  1  0  0  0  0
  4  3  2  0  0  0  0
  4  5  1  0  0  0  0
  5  6  2  0  0  0  0
  6  1  1  0  0  0  0
  8  3  1  0  0  0  0
  9  5  1  0  0  0  0
 10  9  1  0  0  0  0
 11 10  1  0  0  0  0
 12 11  1  0  0  0  0
 12 13  1  0  0  0  0
 13 14  1  0  0  0  0
 14  9  1  0  0  0  0
 15 16  1  0  0  0  0
 15 18  1  0  0  0  0
 17 15  1  0  0  0  0
M  END
>  <minimizedAffinity>
-4.60393

$$$$

 OpenBabel03242513353D

 18 19  0  0  0  0  0  0  0  0999 V2000
   37.1460   27.1550   40.4730 C   0  0  0  0  0  0  0  0  0  0  0  0
   37.2420   26.6360   41.7620 C   0  0  0  0  0  0  0  0  0  0  0  0
   37.3620   27.5520   42.8020 C   0  0  0  0  0  0  0  0  0  0  0  0
   37.3800   28.8760   42.5320 N   0  0  0  0  0  0  0  0  0  0  0  0
   37.2830   29.3370   41.2610 C   0  0  0  0  0  0  0  0  0  0  0  0
   37.1670   28.4890   40.2390 N   0  0  0  0  0  0  0  0  0  0  0  0
   37.0480   26.5150   39.5860 H   0  0  0  0  0  0  0  0  0  0  0  0
   37.4360   27.1340   43.8030 H   0  0  0  0  0  0  0  0  0  0  0  0
   37.3080   30.8000   41.0220 C   0  0  0  0  0  3  0  0  0  0  0  0
   36.8140   31.1130   39.6500 C   0  0  0  0  0  2  0  0  0  0  0  0
   37.0940   32.5070   39.2060 C   0  0  0  0  0  2  0  0  0  0  0  0
   38.4490   33.0370   39.5620 C   0  0  0  0  0  2  0  0  0  0  0  0
   38.8020   32.7390   41.0070 C   0  0  0  0  0  2  0  0  0  0  0  0
   38.7670   31.2340   41.1380 C   0  0  0  0  0  2  0  0  0  0  0  0
   37.2080   25.1680   41.9020 C   0  0  0  0  0  0  0  0  0  0  0  0
   38.4580   24.7820   42.3450 F   0  0  0  0  0  0  0  0  0  0  0  0
   36.9540   24.6110   40.6730 F   0  0  0  0  0  0  0  0  0  0  0  0
   36.1900   24.8450   42.8160 F   0  0  0  0  0  0  0  0  0  0  0  0
  1  2  1  0  0  0  0
  2 15  1  0  0  0  0
  2  3  2  0  0  0  0
  3  8  1  0  0  0  0
  4  3  1  0  0  0  0
  5  4  2  0  0  0  0
  6  1  2  0  0  0  0
  6  5  1  0  0  0  0
  7  1  1  0  0  0  0
  9 14  1  0  0  0  0
  9  5  1  0  0  0  0
 10  9  1  0  0  0  0
 11 12  1  0  0  0  0
 11 10  1  0  0  0  0
 12 13  1  0  0  0  0
 13 14  1  0  0  0  0
 15 16  1  0  0  0  0
 15 18  1  0  0  0  0
 17 15  1  0  0  0  0
M  END
>  <minimizedAffinity>
-4.58215046

$$$$

 OpenBabel03242513353D

 18 19  0  0  0  0  0  0  0  0999 V2000
   38.2770   29.7850   39.4010 C   0  0  0  0  0  0  0  0  0  0  0  0
   37.5430   30.8990   39.8020 C   0  0  0  0  0  0  0  0  0  0  0  0
   36.8510   30.7950   41.0050 C   0  0  0  0  0  0  0  0  0  0  0  0
   36.9140   29.6510   41.7200 N   0  0  0  0  0  0  0  0  0  0  0  0
   37.6420   28.5910   41.2910 C   0  0  0  0  0  0  0  0  0  0  0  0
   38.3170   28.6530   40.1430 N   0  0  0  0  0  0  0  0  0  0  0  0
   38.8560   29.7670   38.4670 H   0  0  0  0  0  0  0  0  0  0  0  0
   36.2820   31.6720   41.3080 H   0  0  0  0  0  0  0  0  0  0  0  0
   37.6760   27.3600   42.1150 C   0  0  0  0  0  3  0  0  0  0  0  0
   39.0780   27.0330   42.5070 C   0  0  0  0  0  2  0  0  0  0  0  0
   39.2510   25.6610   43.0610 C   0  0  0  0  0  2  0  0  0  0  0  0
   38.4870   24.5810   42.3590 C   0  0  0  0  0  2  0  0  0  0  0  0
   37.0510   24.9940   42.0970 C   0  0  0  0  0  2  0  0  0  0  0  0
   37.1280   26.2360   41.2400 C   0  0  0  0  0  2  0  0  0  0  0  0
   37.5680   32.0790   38.9170 C   0  0  0  0  0  0  0  0  0  0  0  0
   38.8690   32.5440   38.9130 F   0  0  0  0  0  0  0  0  0  0  0  0
   36.7280   33.0360   39.4300 F   0  0  0  0  0  0  0  0  0  0  0  0
   37.1400   31.6700   37.6420 F   0  0  0  0  0  0  0  0  0  0  0  0
  1  2  2  0  0  0  0
  1  6  1  0  0  0  0
  2  3  1  0  0  0  0
  3  8  1  0  0  0  0
  3  4  2  0  0  0  0
  5  4  1  0  0  0  0
  5  9  1  0  0  0  0
  6  5  2  0  0  0  0
  7  1  1  0  0  0  0
  9 10  1  0  0  0  0
 10 11  1  0  0  0  0
 12 11  1  0  0  0  0
 13 12  1  0  0  0  0
 14 13  1  0  0  0  0
 14  9  1  0  0  0  0
 15 17  1  0  0  0  0
 15  2  1  0  0  0  0
 16 15  1  0  0  0  0
 18 15  1  0  0  0  0
M  END
>  <minimizedAffinity>
-4.57236958

$$$$

 OpenBabel03242513353D

 18 19  0  0  0  0  0  0  0  0999 V2000
   37.3710   26.4310   39.6750 C   0  0  0  0  0  0  0  0  0  0  0  0
   37.2360   26.1070   41.0230 C   0  0  0  0  0  0  0  0  0  0  0  0
   37.4040   27.1420   41.9370 C   0  0  0  0  0  0  0  0  0  0  0  0
   37.6820   28.3890   41.4970 N   0  0  0  0  0  0  0  0  0  0  0  0
   37.8040   28.6580   40.1740 C   0  0  0  0  0  0  0  0  0  0  0  0
   37.6510   27.6920   39.2690 N   0  0  0  0  0  0  0  0  0  0  0  0
   37.2580   25.6850   38.8760 H   0  0  0  0  0  0  0  0  0  0  0  0
   37.2960   26.8780   42.9870 H   0  0  0  0  0  0  0  0  0  0  0  0
   38.1110   30.0440   39.7470 C   0  0  0  0  0  3  0  0  0  0  0  0
   37.9530   30.9900   40.8900 C   0  0  0  0  0  2  0  0  0  0  0  0
   37.9300   32.4260   40.4930 C   0  0  0  0  0  2  0  0  0  0  0  0
   37.1470   32.7410   39.2560 C   0  0  0  0  0  2  0  0  0  0  0  0
   37.4610   31.7670   38.1350 C   0  0  0  0  0  2  0  0  0  0  0  0
   37.0970   30.3990   38.6620 C   0  0  0  0  0  2  0  0  0  0  0  0
   36.9300   24.7020   41.3520 C   0  0  0  0  0  0  0  0  0  0  0  0
   38.1210   24.0080   41.2740 F   0  0  0  0  0  0  0  0  0  0  0  0
   36.0400   24.2140   40.4280 F   0  0  0  0  0  0  0  0  0  0  0  0
   36.3750   24.6730   42.6440 F   0  0  0  0  0  0  0  0  0  0  0  0
  1  2  1  0  0  0  0
  2 15  1  0  0  0  0
  2  3  2  0  0  0  0
  3  8  1  0  0  0  0
  4  3  1  0  0  0  0
  5  4  2  0  0  0  0
  6  1  2  0  0  0  0
  6  5  1  0  0  0  0
  7  1  1  0  0  0  0
  9  5  1  0  0  0  0
  9 10  1  0  0  0  0
 11 10  1  0  0  0  0
 12 11  1  0  0  0  0
 13 14  1  0  0  0  0
 13 12  1  0  0  0  0
 14  9  1  0  0  0  0
 15 18  1  0  0  0  0
 16 15  1  0  0  0  0
 17 15  1  0  0  0  0
M  END
>  <minimizedAffinity>
-4.4221797

$$$$

 OpenBabel03242513353D

 18 19  0  0  0  0  0  0  0  0999 V2000
   36.2170   28.1540   37.5650 C   0  0  0  0  0  0  0  0  0  0  0  0
   36.4680   29.4520   37.1260 C   0  0  0  0  0  0  0  0  0  0  0  0
   36.7200   30.4090   38.1040 C   0  0  0  0  0  0  0  0  0  0  0  0
   36.7140   30.0540   39.4080 N   0  0  0  0  0  0  0  0  0  0  0  0
   36.4660   28.7780   39.7900 C   0  0  0  0  0  0  0  0  0  0  0  0
   36.2180   27.8340   38.8810 N   0  0  0  0  0  0  0  0  0  0  0  0
   36.0060   27.3280   36.8720 H   0  0  0  0  0  0  0  0  0  0  0  0
   36.9150   31.4180   37.7480 H   0  0  0  0  0  0  0  0  0  0  0  0
   36.4710   28.4450   41.2340 C   0  0  0  0  0  3  0  0  0  0  0  0
   37.3540   29.3860   41.9840 C   0  0  0  0  0  2  0  0  0  0  0  0
   37.6720   28.9470   43.3720 C   0  0  0  0  0  2  0  0  0  0  0  0
   37.9640   27.4870   43.5350 C   0  0  0  0  0  2  0  0  0  0  0  0
   36.9460   26.6300   42.8060 C   0  0  0  0  0  2  0  0  0  0  0  0
   37.0350   27.0310   41.3520 C   0  0  0  0  0  2  0  0  0  0  0  0
   36.4410   29.6880   35.6700 C   0  0  0  0  0  0  0  0  0  0  0  0
   36.8760   30.9840   35.4700 F   0  0  0  0  0  0  0  0  0  0  0  0
   35.1500   29.5510   35.2220 F   0  0  0  0  0  0  0  0  0  0  0  0
   37.2830   28.7390   35.0640 F   0  0  0  0  0  0  0  0  0  0  0  0
  1  6  1  0  0  0  0
  2  1  2  0  0  0  0
  2  3  1  0  0  0  0
  3  4  2  0  0  0  0
  4  5  1  0  0  0  0
  5  9  1  0  0  0  0
  6  5  2  0  0  0  0
  7  1  1  0  0  0  0
  8  3  1  0  0  0  0
  9 14  1  0  0  0  0
  9 10  1  0  0  0  0
 10 11  1  0  0  0  0
 11 12  1  0  0  0  0
 13 12  1  0  0  0  0
 14 13  1  0  0  0  0
 15  2  1  0  0  0  0
 16 15  1  0  0  0  0
 17 15  1  0  0  0  0
 18 15  1  0  0  0  0
M  END
>  <minimizedAffinity>
-4.38563681

$$$$
