
 OpenBabel03242513343D

 18 19  0  0  0  0  0  0  0  0999 V2000
   45.2910   34.7050   44.7980 C   0  0  0  0  0  0  0  0  0  0  0  0
   46.1580   34.5600   43.7170 C   0  0  0  0  0  0  0  0  0  0  0  0
   47.1110   33.5510   43.8060 C   0  0  0  0  0  0  0  0  0  0  0  0
   47.1600   32.7690   44.9070 N   0  0  0  0  0  0  0  0  0  0  0  0
   46.2960   32.9450   45.9360 C   0  0  0  0  0  0  0  0  0  0  0  0
   45.3700   33.9030   45.8870 N   0  0  0  0  0  0  0  0  0  0  0  0
   44.5050   35.4720   44.8240 H   0  0  0  0  0  0  0  0  0  0  0  0
   47.7810   33.4470   42.9560 H   0  0  0  0  0  0  0  0  0  0  0  0
   46.3960   32.0590   47.1200 C   0  0  0  0  0  0  0  0  0  0  0  0
   46.1940   30.6340   46.7240 C   0  0  0  0  0  0  0  0  0  0  0  0
   45.9620   29.7110   47.8700 C   0  0  0  0  0  0  0  0  0  0  0  0
   45.0660   30.2350   48.9500 C   0  0  0  0  0  0  0  0  0  0  0  0
   45.4280   31.6580   49.3320 C   0  0  0  0  0  0  0  0  0  0  0  0
   45.2760   32.4760   48.0700 C   0  0  0  0  0  0  0  0  0  0  0  0
   45.9830   35.4880   42.5840 C   0  0  0  0  0  0  0  0  0  0  0  0
   45.3910   36.6280   43.0910 F   0  0  0  0  0  0  0  0  0  0  0  0
   45.1570   34.9040   41.6550 F   0  0  0  0  0  0  0  0  0  0  0  0
   47.2520   35.7400   42.0340 F   0  0  0  0  0  0  0  0  0  0  0  0
  1  7  1  0  0  0  0
  1  6  1  0  0  0  0
  2  3  1  0  0  0  0
  2  1  2  0  0  0  0
  3  4  2  0  0  0  0
  4  5  1  0  0  0  0
  5  9  1  0  0  0  0
  6  5  2  0  0  0  0
  8  3  1  0  0  0  0
  9 14  1  0  0  0  0
 10  9  1  0  0  0  0
 10 11  1  0  0  0  0
 11 12  1  0  0  0  0
 12 13  1  0  0  0  0
 14 13  1  0  0  0  0
 15 16  1  0  0  0  0
 15  2  1  0  0  0  0
 17 15  1  0  0  0  0
 18 15  1  0  0  0  0
M  END
>  <minimizedAffinity>
-5.51956892

>  <minimizedRMSD>
0.650878608

$$$$
