
 OpenBabel03242523543D

 42 45  0  0  1  0  0  0  0  0999 V2000
   42.9150   34.2380   39.1520 C   0  0  1  0  0  0  0  0  0  0  0  0
   43.1050   35.1350   40.3690 C   0  0  1  0  0  0  0  0  0  0  0  0
   41.8460   35.6070   40.7740 O   0  0  0  0  0  0  0  0  0  0  0  0
   40.9940   35.8570   39.6940 C   0  0  0  0  0  0  0  0  0  0  0  0
   40.5620   34.5780   39.0080 C   0  0  2  0  0  0  0  0  0  0  0  0
   41.6370   33.4980   39.3770 C   0  0  1  0  0  0  0  0  0  0  0  0
   43.7910   33.5580   39.0340 H   0  0  0  0  0  0  0  0  0  0  0  0
   43.8080   35.9620   40.1960 H   0  0  0  0  0  0  0  0  0  0  0  0
   41.3750   36.6270   39.0020 H   0  0  0  0  0  0  0  0  0  0  0  0
   40.0800   36.2890   40.1470 H   0  0  0  0  0  0  0  0  0  0  0  0
   39.5620   34.2210   39.3270 H   0  0  0  0  0  0  0  0  0  0  0  0
   41.3680   33.4510   40.4830 H   0  0  0  0  0  0  0  0  0  0  0  0
   42.8450   34.9990   37.9770 O   0  0  0  0  0  0  0  0  0  0  0  0
   43.7710   35.2490   37.7490 H   0  0  0  0  0  0  0  0  0  0  0  0
   40.6600   34.7310   37.6320 O   0  0  0  0  0  0  0  0  0  0  0  0
   40.7690   33.8980   37.1310 H   0  0  0  0  0  0  0  0  0  0  0  0
   43.4950   34.2730   41.4050 O   0  0  0  0  0  0  0  0  0  0  0  0
   44.6670   34.3210   42.0470 C   0  0  0  0  0  0  0  0  0  0  0  0
   45.8680   34.5030   41.3460 C   0  0  0  0  0  0  0  0  0  0  0  0
   47.0550   34.5480   42.0530 C   0  0  0  0  0  0  0  0  0  0  0  0
   47.0220   34.4110   43.4310 N   0  0  0  0  0  0  0  0  0  0  0  0
   45.8470   34.2370   44.0740 C   0  0  0  0  0  0  0  0  0  0  0  0
   44.6780   34.1930   43.3840 N   0  0  0  0  0  0  0  0  0  0  0  0
   45.9020   34.6100   40.2690 H   0  0  0  0  0  0  0  0  0  0  0  0
   45.8570   34.1360   45.1330 H   0  0  0  0  0  0  0  0  0  0  0  0
   48.3750   34.7220   41.3770 C   0  0  0  0  0  0  0  0  0  0  0  0
   49.0750   36.0670   41.5660 C   0  0  0  0  0  0  0  0  0  0  0  0
   49.5960   34.7220   42.1160 C   0  0  0  0  0  0  0  0  0  0  0  0
   48.3480   34.3450   40.3160 H   0  0  0  0  0  0  0  0  0  0  0  0
   48.5640   36.7390   42.2540 H   0  0  0  0  0  0  0  0  0  0  0  0
   49.6330   36.4430   40.6940 H   0  0  0  0  0  0  0  0  0  0  0  0
   50.5370   34.3220   41.6990 H   0  0  0  0  0  0  0  0  0  0  0  0
   49.5620   34.6710   43.2370 H   0  0  0  0  0  0  0  0  0  0  0  0
   41.4130   32.4190   38.6030 O   0  0  0  0  0  0  0  0  0  0  0  0
   40.3720   31.5590   38.6130 C   0  0  0  0  0  0  0  0  0  0  0  0
   39.6960   31.2940   37.5200 O   0  0  0  0  0  0  0  0  0  0  0  0
   39.5500   30.6460   39.4790 C   0  0  0  0  0  3  0  0  0  0  0  0
   38.3120   30.3020   38.6570 C   0  0  0  0  0  2  0  0  0  0  0  0
   37.4540   29.2950   39.3460 C   0  0  0  0  0  2  0  0  0  0  0  0
   37.4520   29.4430   40.8290 C   0  0  0  0  0  2  0  0  0  0  0  0
   37.6660   30.9140   41.1370 C   0  0  0  0  0  2  0  0  0  0  0  0
   39.0990   31.2130   40.7690 C   0  0  0  0  0  2  0  0  0  0  0  0
  1  7  1  6  0  0  0
  1  6  1  0  0  0  0
  1  2  1  0  0  0  0
  2  8  1  6  0  0  0
  2  3  1  0  0  0  0
  2 17  1  0  0  0  0
  4 10  1  0  0  0  0
  4  3  1  0  0  0  0
  5 11  1  1  0  0  0
  5  6  1  0  0  0  0
  5  4  1  0  0  0  0
  6 12  1  1  0  0  0
  9  4  1  0  0  0  0
 13  1  1  0  0  0  0
 14 13  1  0  0  0  0
 15  5  1  0  0  0  0
 16 15  1  0  0  0  0
 17 18  1  0  0  0  0
 18 23  1  0  0  0  0
 19 18  2  0  0  0  0
 19 20  1  0  0  0  0
 20 21  2  0  0  0  0
 21 22  1  0  0  0  0
 22 25  1  0  0  0  0
 23 22  2  0  0  0  0
 24 19  1  0  0  0  0
 26 27  1  0  0  0  0
 26 20  1  0  0  0  0
 26 28  1  0  0  0  0
 27 28  1  0  0  0  0
 27 30  1  0  0  0  0
 28 33  1  0  0  0  0
 29 26  1  0  0  0  0
 31 27  1  0  0  0  0
 32 28  1  0  0  0  0
 34 35  1  0  0  0  0
 34  6  1  0  0  0  0
 35 37  1  0  0  0  0
 36 35  2  0  0  0  0
 37 42  1  0  0  0  0
 38 39  1  0  0  0  0
 38 37  1  0  0  0  0
 39 40  1  0  0  0  0
 40 41  1  0  0  0  0
 42 41  1  0  0  0  0
M  END
>  <minimizedAffinity>
-6.53286457

>  <minimizedRMSD>
2.07942629

$$$$
