
 OpenBabel03242523533D

 42 45  0  0  1  0  0  0  0  0999 V2000
   42.6640   34.3900   38.9670 C   0  0  1  0  0  0  0  0  0  0  0  0
   42.9930   35.1920   40.2210 C   0  0  1  0  0  0  0  0  0  0  0  0
   41.7900   35.6530   40.7800 O   0  0  0  0  0  0  0  0  0  0  0  0
   40.8430   35.9950   39.8110 C   0  0  0  0  0  0  0  0  0  0  0  0
   40.3170   34.7770   39.0810 C   0  0  2  0  0  0  0  0  0  0  0  0
   41.3970   33.6560   39.2630 C   0  0  1  0  0  0  0  0  0  0  0  0
   43.5080   33.7060   38.7140 H   0  0  0  0  0  0  0  0  0  0  0  0
   43.6940   36.0190   40.0390 H   0  0  0  0  0  0  0  0  0  0  0  0
   41.1730   36.8080   39.1410 H   0  0  0  0  0  0  0  0  0  0  0  0
   39.9880   36.4080   40.3810 H   0  0  0  0  0  0  0  0  0  0  0  0
   39.3440   34.4140   39.4700 H   0  0  0  0  0  0  0  0  0  0  0  0
   41.2360   33.5320   40.3840 H   0  0  0  0  0  0  0  0  0  0  0  0
   42.4980   35.2360   37.8620 O   0  0  0  0  0  0  0  0  0  0  0  0
   43.4030   35.4880   37.5630 H   0  0  0  0  0  0  0  0  0  0  0  0
   40.2840   35.0290   37.7160 O   0  0  0  0  0  0  0  0  0  0  0  0
   40.3240   34.2340   37.1480 H   0  0  0  0  0  0  0  0  0  0  0  0
   43.4610   34.2500   41.1480 O   0  0  0  0  0  0  0  0  0  0  0  0
   44.5990   34.3540   41.8440 C   0  0  0  0  0  0  0  0  0  0  0  0
   45.8340   34.4810   41.1930 C   0  0  0  0  0  0  0  0  0  0  0  0
   46.9830   34.5870   41.9550 C   0  0  0  0  0  0  0  0  0  0  0  0
   46.8790   34.5640   43.3360 N   0  0  0  0  0  0  0  0  0  0  0  0
   45.6720   34.4410   43.9300 C   0  0  0  0  0  0  0  0  0  0  0  0
   44.5400   34.3370   43.1860 N   0  0  0  0  0  0  0  0  0  0  0  0
   45.9240   34.4980   40.1150 H   0  0  0  0  0  0  0  0  0  0  0  0
   45.6270   34.4280   44.9930 H   0  0  0  0  0  0  0  0  0  0  0  0
   48.3370   34.7080   41.3360 C   0  0  0  0  0  0  0  0  0  0  0  0
   49.0670   36.0360   41.5260 C   0  0  0  0  0  0  0  0  0  0  0  0
   49.5230   34.6910   42.1290 C   0  0  0  0  0  0  0  0  0  0  0  0
   48.3460   34.3070   40.2840 H   0  0  0  0  0  0  0  0  0  0  0  0
   48.5450   36.7380   42.1760 H   0  0  0  0  0  0  0  0  0  0  0  0
   49.6740   36.3760   40.6730 H   0  0  0  0  0  0  0  0  0  0  0  0
   50.4690   34.2540   41.7650 H   0  0  0  0  0  0  0  0  0  0  0  0
   49.4370   34.6670   43.2490 H   0  0  0  0  0  0  0  0  0  0  0  0
   41.0740   32.6410   38.4400 O   0  0  0  0  0  0  0  0  0  0  0  0
   40.1080   31.7070   38.5710 C   0  0  0  0  0  0  0  0  0  0  0  0
   39.3480   31.3660   37.5560 O   0  0  0  0  0  0  0  0  0  0  0  0
   39.4480   30.7580   39.5310 C   0  0  0  0  0  3  0  0  0  0  0  0
   38.3510   31.5620   40.2210 C   0  0  0  0  0  2  0  0  0  0  0  0
   37.5240   30.7090   41.1200 C   0  0  0  0  0  2  0  0  0  0  0  0
   38.3060   29.6280   41.7870 C   0  0  0  0  0  2  0  0  0  0  0  0
   39.7250   30.1390   41.9620 C   0  0  0  0  0  2  0  0  0  0  0  0
   40.3230   30.1870   40.5780 C   0  0  0  0  0  2  0  0  0  0  0  0
  1  7  1  6  0  0  0
  1  6  1  0  0  0  0
  1  2  1  0  0  0  0
  2  8  1  6  0  0  0
  2  3  1  0  0  0  0
  2 17  1  0  0  0  0
  4 10  1  0  0  0  0
  4  3  1  0  0  0  0
  5  6  1  0  0  0  0
  5 11  1  1  0  0  0
  5  4  1  0  0  0  0
  6 12  1  1  0  0  0
  9  4  1  0  0  0  0
 13  1  1  0  0  0  0
 14 13  1  0  0  0  0
 15  5  1  0  0  0  0
 16 15  1  0  0  0  0
 17 18  1  0  0  0  0
 18 23  1  0  0  0  0
 19 18  2  0  0  0  0
 19 20  1  0  0  0  0
 20 21  2  0  0  0  0
 21 22  1  0  0  0  0
 22 25  1  0  0  0  0
 23 22  2  0  0  0  0
 24 19  1  0  0  0  0
 26 27  1  0  0  0  0
 26 20  1  0  0  0  0
 26 28  1  0  0  0  0
 27 28  1  0  0  0  0
 27 30  1  0  0  0  0
 28 33  1  0  0  0  0
 29 26  1  0  0  0  0
 31 27  1  0  0  0  0
 32 28  1  0  0  0  0
 34 35  1  0  0  0  0
 34  6  1  0  0  0  0
 35 37  1  0  0  0  0
 36 35  2  0  0  0  0
 37 38  1  0  0  0  0
 37 42  1  0  0  0  0
 38 39  1  0  0  0  0
 39 40  1  0  0  0  0
 40 41  1  0  0  0  0
 42 41  1  0  0  0  0
M  END
>  <minimizedAffinity>
-6.36244392

>  <minimizedRMSD>
1.65365684

$$$$
