
 OpenBabel03242523533D

 42 45  0  0  1  0  0  0  0  0999 V2000
   42.7140   34.4420   38.9030 C   0  0  1  0  0  0  0  0  0  0  0  0
   43.0070   35.1870   40.2000 C   0  0  1  0  0  0  0  0  0  0  0  0
   41.7850   35.5480   40.7890 O   0  0  0  0  0  0  0  0  0  0  0  0
   40.8140   35.8930   39.8440 C   0  0  0  0  0  0  0  0  0  0  0  0
   40.3500   34.6930   39.0470 C   0  0  2  0  0  0  0  0  0  0  0  0
   41.4910   33.6230   39.1610 C   0  0  1  0  0  0  0  0  0  0  0  0
   43.5920   33.8200   38.6080 H   0  0  0  0  0  0  0  0  0  0  0  0
   43.6610   36.0590   40.0640 H   0  0  0  0  0  0  0  0  0  0  0  0
   41.0950   36.7610   39.2220 H   0  0  0  0  0  0  0  0  0  0  0  0
   39.9420   36.2260   40.4410 H   0  0  0  0  0  0  0  0  0  0  0  0
   39.4010   34.2550   39.4180 H   0  0  0  0  0  0  0  0  0  0  0  0
   41.3440   33.4270   40.2730 H   0  0  0  0  0  0  0  0  0  0  0  0
   42.4950   35.3400   37.8490 O   0  0  0  0  0  0  0  0  0  0  0  0
   43.3830   35.6570   37.5620 H   0  0  0  0  0  0  0  0  0  0  0  0
   40.2950   35.0210   37.7000 O   0  0  0  0  0  0  0  0  0  0  0  0
   40.3740   34.2630   37.0860 H   0  0  0  0  0  0  0  0  0  0  0  0
   43.5320   34.2200   41.0700 O   0  0  0  0  0  0  0  0  0  0  0  0
   44.6540   34.3560   41.7850 C   0  0  0  0  0  0  0  0  0  0  0  0
   45.9000   34.4830   41.1570 C   0  0  0  0  0  0  0  0  0  0  0  0
   47.0320   34.6220   41.9400 C   0  0  0  0  0  0  0  0  0  0  0  0
   46.9000   34.6320   43.3180 N   0  0  0  0  0  0  0  0  0  0  0  0
   45.6820   34.5080   43.8900 C   0  0  0  0  0  0  0  0  0  0  0  0
   44.5680   34.3710   43.1260 N   0  0  0  0  0  0  0  0  0  0  0  0
   46.0130   34.4750   40.0810 H   0  0  0  0  0  0  0  0  0  0  0  0
   45.6160   34.5200   44.9520 H   0  0  0  0  0  0  0  0  0  0  0  0
   48.3970   34.7460   41.3450 C   0  0  0  0  0  0  0  0  0  0  0  0
   49.1090   36.0850   41.5240 C   0  0  0  0  0  0  0  0  0  0  0  0
   49.5660   34.7560   42.1620 C   0  0  0  0  0  0  0  0  0  0  0  0
   48.4310   34.3250   40.3010 H   0  0  0  0  0  0  0  0  0  0  0  0
   48.5670   36.7940   42.1490 H   0  0  0  0  0  0  0  0  0  0  0  0
   49.7300   36.4150   40.6770 H   0  0  0  0  0  0  0  0  0  0  0  0
   50.5240   34.3230   41.8250 H   0  0  0  0  0  0  0  0  0  0  0  0
   49.4580   34.7530   43.2800 H   0  0  0  0  0  0  0  0  0  0  0  0
   41.2180   32.6410   38.2820 O   0  0  0  0  0  0  0  0  0  0  0  0
   40.3220   31.6360   38.3720 C   0  0  0  0  0  0  0  0  0  0  0  0
   39.7910   31.0970   37.2990 O   0  0  0  0  0  0  0  0  0  0  0  0
   39.5740   30.7480   39.3270 C   0  0  0  0  0  3  0  0  0  0  0  0
   38.2900   30.3540   38.6050 C   0  0  0  0  0  2  0  0  0  0  0  0
   37.4970   29.3630   39.3890 C   0  0  0  0  0  2  0  0  0  0  0  0
   37.5920   29.5710   40.8620 C   0  0  0  0  0  2  0  0  0  0  0  0
   37.8020   31.0560   41.0970 C   0  0  0  0  0  2  0  0  0  0  0  0
   39.2030   31.3600   40.6200 C   0  0  0  0  0  2  0  0  0  0  0  0
  1  7  1  6  0  0  0
  1  6  1  0  0  0  0
  1  2  1  0  0  0  0
  2  8  1  6  0  0  0
  2  3  1  0  0  0  0
  2 17  1  0  0  0  0
  4 10  1  0  0  0  0
  4  3  1  0  0  0  0
  5  6  1  0  0  0  0
  5 11  1  1  0  0  0
  5  4  1  0  0  0  0
  6 12  1  1  0  0  0
  9  4  1  0  0  0  0
 13  1  1  0  0  0  0
 14 13  1  0  0  0  0
 15  5  1  0  0  0  0
 16 15  1  0  0  0  0
 17 18  1  0  0  0  0
 18 23  1  0  0  0  0
 19 18  2  0  0  0  0
 19 20  1  0  0  0  0
 20 21  2  0  0  0  0
 21 22  1  0  0  0  0
 22 25  1  0  0  0  0
 23 22  2  0  0  0  0
 24 19  1  0  0  0  0
 26 27  1  0  0  0  0
 26 20  1  0  0  0  0
 26 28  1  0  0  0  0
 27 30  1  0  0  0  0
 27 28  1  0  0  0  0
 28 33  1  0  0  0  0
 29 26  1  0  0  0  0
 31 27  1  0  0  0  0
 32 28  1  0  0  0  0
 34 35  1  0  0  0  0
 34  6  1  0  0  0  0
 35 37  1  0  0  0  0
 36 35  2  0  0  0  0
 37 42  1  0  0  0  0
 38 37  1  0  0  0  0
 38 39  1  0  0  0  0
 39 40  1  0  0  0  0
 40 41  1  0  0  0  0
 42 41  1  0  0  0  0
M  END
>  <minimizedAffinity>
-6.51686764

>  <minimizedRMSD>
1.54831457

$$$$
