
 OpenBabel03242523533D

 42 45  0  0  1  0  0  0  0  0999 V2000
   42.8120   34.5450   38.7300 C   0  0  1  0  0  0  0  0  0  0  0  0
   42.9540   35.1910   40.1030 C   0  0  1  0  0  0  0  0  0  0  0  0
   41.6690   35.4100   40.6250 O   0  0  0  0  0  0  0  0  0  0  0  0
   40.7430   35.7680   39.6400 C   0  0  0  0  0  0  0  0  0  0  0  0
   40.4310   34.6120   38.7120 C   0  0  2  0  0  0  0  0  0  0  0  0
   41.6410   33.6220   38.8240 C   0  0  1  0  0  0  0  0  0  0  0  0
   43.7540   34.0170   38.4530 H   0  0  0  0  0  0  0  0  0  0  0  0
   43.5460   36.1170   40.0910 H   0  0  0  0  0  0  0  0  0  0  0  0
   40.9980   36.7050   39.1150 H   0  0  0  0  0  0  0  0  0  0  0  0
   39.8080   35.9820   40.1930 H   0  0  0  0  0  0  0  0  0  0  0  0
   39.4960   34.0770   38.9720 H   0  0  0  0  0  0  0  0  0  0  0  0
   41.4330   33.3170   39.9010 H   0  0  0  0  0  0  0  0  0  0  0  0
   42.5980   35.5150   37.7410 O   0  0  0  0  0  0  0  0  0  0  0  0
   43.4770   35.9200   37.5500 H   0  0  0  0  0  0  0  0  0  0  0  0
   40.4450   35.0540   37.3970 O   0  0  0  0  0  0  0  0  0  0  0  0
   40.6270   34.3620   36.7300 H   0  0  0  0  0  0  0  0  0  0  0  0
   43.4900   34.1910   40.9270 O   0  0  0  0  0  0  0  0  0  0  0  0
   44.5910   34.3180   41.6750 C   0  0  0  0  0  0  0  0  0  0  0  0
   45.8580   34.4290   41.0850 C   0  0  0  0  0  0  0  0  0  0  0  0
   46.9670   34.5600   41.9000 C   0  0  0  0  0  0  0  0  0  0  0  0
   46.7930   34.5780   43.2740 N   0  0  0  0  0  0  0  0  0  0  0  0
   45.5570   34.4690   43.8100 C   0  0  0  0  0  0  0  0  0  0  0  0
   44.4650   34.3400   43.0130 N   0  0  0  0  0  0  0  0  0  0  0  0
   46.0020   34.4150   40.0120 H   0  0  0  0  0  0  0  0  0  0  0  0
   45.4590   34.4870   44.8690 H   0  0  0  0  0  0  0  0  0  0  0  0
   48.3500   34.6660   41.3460 C   0  0  0  0  0  0  0  0  0  0  0  0
   49.0590   36.0090   41.5130 C   0  0  0  0  0  0  0  0  0  0  0  0
   49.4930   34.6970   42.2000 C   0  0  0  0  0  0  0  0  0  0  0  0
   48.4170   34.2180   40.3160 H   0  0  0  0  0  0  0  0  0  0  0  0
   48.4990   36.7350   42.1020 H   0  0  0  0  0  0  0  0  0  0  0  0
   49.7070   36.3160   40.6780 H   0  0  0  0  0  0  0  0  0  0  0  0
   50.4600   34.2540   41.9060 H   0  0  0  0  0  0  0  0  0  0  0  0
   49.3490   34.7230   43.3130 H   0  0  0  0  0  0  0  0  0  0  0  0
   41.5080   32.7050   37.8470 O   0  0  0  0  0  0  0  0  0  0  0  0
   40.8370   31.5340   37.8580 C   0  0  0  0  0  0  0  0  0  0  0  0
   39.5570   31.4780   37.5700 O   0  0  0  0  0  0  0  0  0  0  0  0
   40.9650   30.0550   38.0920 C   0  0  0  0  0  3  0  0  0  0  0  0
   41.8610   29.9060   39.3180 C   0  0  0  0  0  2  0  0  0  0  0  0
   41.9780   28.4830   39.7460 C   0  0  0  0  0  2  0  0  0  0  0  0
   41.9670   27.5230   38.6060 C   0  0  0  0  0  2  0  0  0  0  0  0
   42.5750   28.2350   37.4110 C   0  0  0  0  0  2  0  0  0  0  0  0
   41.5680   29.2770   36.9870 C   0  0  0  0  0  2  0  0  0  0  0  0
  1  7  1  6  0  0  0
  1  6  1  0  0  0  0
  1  2  1  0  0  0  0
  2  8  1  6  0  0  0
  2  3  1  0  0  0  0
  2 17  1  0  0  0  0
  4 10  1  0  0  0  0
  4  3  1  0  0  0  0
  5  6  1  0  0  0  0
  5 11  1  1  0  0  0
  5  4  1  0  0  0  0
  6 12  1  1  0  0  0
  9  4  1  0  0  0  0
 13  1  1  0  0  0  0
 14 13  1  0  0  0  0
 15  5  1  0  0  0  0
 16 15  1  0  0  0  0
 17 18  1  0  0  0  0
 18 23  1  0  0  0  0
 19 18  2  0  0  0  0
 19 20  1  0  0  0  0
 20 21  2  0  0  0  0
 21 22  1  0  0  0  0
 22 25  1  0  0  0  0
 23 22  2  0  0  0  0
 24 19  1  0  0  0  0
 26 27  1  0  0  0  0
 26 20  1  0  0  0  0
 26 28  1  0  0  0  0
 27 30  1  0  0  0  0
 27 28  1  0  0  0  0
 28 33  1  0  0  0  0
 29 26  1  0  0  0  0
 31 27  1  0  0  0  0
 32 28  1  0  0  0  0
 34 35  1  0  0  0  0
 34  6  1  0  0  0  0
 35 37  1  0  0  0  0
 36 35  2  0  0  0  0
 37 38  1  0  0  0  0
 38 39  1  0  0  0  0
 40 39  1  0  0  0  0
 41 40  1  0  0  0  0
 42 41  1  0  0  0  0
 42 37  1  0  0  0  0
M  END
>  <minimizedAffinity>
-5.64684439

>  <minimizedRMSD>
0.179398432

$$$$
