
 OpenBabel03242523533D

 42 45  0  0  1  0  0  0  0  0999 V2000
   42.8090   34.3000   39.0160 C   0  0  1  0  0  0  0  0  0  0  0  0
   43.0340   35.1730   40.2450 C   0  0  1  0  0  0  0  0  0  0  0  0
   41.7880   35.6520   40.6820 O   0  0  0  0  0  0  0  0  0  0  0  0
   40.9180   35.9300   39.6240 C   0  0  0  0  0  0  0  0  0  0  0  0
   40.4580   34.6680   38.9250 C   0  0  2  0  0  0  0  0  0  0  0  0
   41.5270   33.5700   39.2530 C   0  0  1  0  0  0  0  0  0  0  0  0
   43.6740   33.6120   38.8680 H   0  0  0  0  0  0  0  0  0  0  0  0
   43.7420   35.9950   40.0720 H   0  0  0  0  0  0  0  0  0  0  0  0
   41.2940   36.7090   38.9380 H   0  0  0  0  0  0  0  0  0  0  0  0
   40.0190   36.3650   40.1020 H   0  0  0  0  0  0  0  0  0  0  0  0
   39.4600   34.3180   39.2570 H   0  0  0  0  0  0  0  0  0  0  0  0
   41.2800   33.5070   40.3630 H   0  0  0  0  0  0  0  0  0  0  0  0
   42.7250   35.0820   37.8560 O   0  0  0  0  0  0  0  0  0  0  0  0
   43.6490   35.3260   37.6150 H   0  0  0  0  0  0  0  0  0  0  0  0
   40.5310   34.8450   37.5500 O   0  0  0  0  0  0  0  0  0  0  0  0
   40.6200   34.0200   37.0320 H   0  0  0  0  0  0  0  0  0  0  0  0
   43.4330   34.2880   41.2570 O   0  0  0  0  0  0  0  0  0  0  0  0
   44.5890   34.3560   41.9270 C   0  0  0  0  0  0  0  0  0  0  0  0
   45.8090   34.4980   41.2500 C   0  0  0  0  0  0  0  0  0  0  0  0
   46.9780   34.5660   41.9860 C   0  0  0  0  0  0  0  0  0  0  0  0
   46.9080   34.4900   43.3680 N   0  0  0  0  0  0  0  0  0  0  0  0
   45.7150   34.3530   43.9870 C   0  0  0  0  0  0  0  0  0  0  0  0
   44.5640   34.2870   43.2690 N   0  0  0  0  0  0  0  0  0  0  0  0
   45.8720   34.5570   40.1720 H   0  0  0  0  0  0  0  0  0  0  0  0
   45.6970   34.2990   45.0490 H   0  0  0  0  0  0  0  0  0  0  0  0
   48.3160   34.7000   41.3370 C   0  0  0  0  0  0  0  0  0  0  0  0
   49.0500   36.0250   41.5370 C   0  0  0  0  0  0  0  0  0  0  0  0
   49.5200   34.6690   42.1030 C   0  0  0  0  0  0  0  0  0  0  0  0
   48.3010   34.3190   40.2780 H   0  0  0  0  0  0  0  0  0  0  0  0
   48.5430   36.7140   42.2110 H   0  0  0  0  0  0  0  0  0  0  0  0
   49.6360   36.3820   40.6760 H   0  0  0  0  0  0  0  0  0  0  0  0
   50.4580   34.2400   41.7080 H   0  0  0  0  0  0  0  0  0  0  0  0
   49.4610   34.6230   43.2230 H   0  0  0  0  0  0  0  0  0  0  0  0
   41.2750   32.5080   38.4650 O   0  0  0  0  0  0  0  0  0  0  0  0
   40.3080   31.5720   38.5720 C   0  0  0  0  0  0  0  0  0  0  0  0
   39.6470   31.1510   37.5190 O   0  0  0  0  0  0  0  0  0  0  0  0
   39.5710   30.6820   39.5330 C   0  0  0  0  0  3  0  0  0  0  0  0
   38.4990   31.5600   40.1710 C   0  0  0  0  0  2  0  0  0  0  0  0
   37.6010   30.7720   41.0640 C   0  0  0  0  0  2  0  0  0  0  0  0
   38.3050   29.6700   41.7790 C   0  0  0  0  0  2  0  0  0  0  0  0
   39.7430   30.1100   41.9860 C   0  0  0  0  0  2  0  0  0  0  0  0
   40.3840   30.0920   40.6180 C   0  0  0  0  0  2  0  0  0  0  0  0
  1  7  1  6  0  0  0
  1  6  1  0  0  0  0
  1  2  1  0  0  0  0
  2  8  1  6  0  0  0
  2  3  1  0  0  0  0
  2 17  1  0  0  0  0
  4 10  1  0  0  0  0
  4  3  1  0  0  0  0
  5  6  1  0  0  0  0
  5 11  1  1  0  0  0
  5  4  1  0  0  0  0
  6 12  1  1  0  0  0
  9  4  1  0  0  0  0
 13  1  1  0  0  0  0
 14 13  1  0  0  0  0
 15  5  1  0  0  0  0
 16 15  1  0  0  0  0
 17 18  1  0  0  0  0
 18 23  1  0  0  0  0
 19 18  2  0  0  0  0
 19 20  1  0  0  0  0
 20 21  2  0  0  0  0
 21 22  1  0  0  0  0
 22 25  1  0  0  0  0
 23 22  2  0  0  0  0
 24 19  1  0  0  0  0
 26 27  1  0  0  0  0
 26 20  1  0  0  0  0
 26 28  1  0  0  0  0
 27 28  1  0  0  0  0
 27 30  1  0  0  0  0
 28 33  1  0  0  0  0
 29 26  1  0  0  0  0
 31 27  1  0  0  0  0
 32 28  1  0  0  0  0
 34 35  1  0  0  0  0
 34  6  1  0  0  0  0
 35 37  1  0  0  0  0
 36 35  2  0  0  0  0
 37 38  1  0  0  0  0
 37 42  1  0  0  0  0
 38 39  1  0  0  0  0
 39 40  1  0  0  0  0
 40 41  1  0  0  0  0
 42 41  1  0  0  0  0
M  END
>  <minimizedAffinity>
-6.38477612

>  <minimizedRMSD>
1.7253325

$$$$
