
 OpenBabel03242523533D

 42 45  0  0  1  0  0  0  0  0999 V2000
   42.7010   34.4060   38.8880 C   0  0  1  0  0  0  0  0  0  0  0  0
   43.0420   35.1770   40.1570 C   0  0  1  0  0  0  0  0  0  0  0  0
   41.8430   35.5930   40.7580 O   0  0  0  0  0  0  0  0  0  0  0  0
   40.8660   35.9430   39.8220 C   0  0  0  0  0  0  0  0  0  0  0  0
   40.3490   34.7350   39.0680 C   0  0  2  0  0  0  0  0  0  0  0  0
   41.4580   33.6340   39.1910 C   0  0  1  0  0  0  0  0  0  0  0  0
   43.5540   33.7490   38.5950 H   0  0  0  0  0  0  0  0  0  0  0  0
   43.7200   36.0240   39.9840 H   0  0  0  0  0  0  0  0  0  0  0  0
   41.1610   36.7830   39.1690 H   0  0  0  0  0  0  0  0  0  0  0  0
   40.0150   36.3190   40.4240 H   0  0  0  0  0  0  0  0  0  0  0  0
   39.3950   34.3390   39.4680 H   0  0  0  0  0  0  0  0  0  0  0  0
   41.3270   33.4730   40.3110 H   0  0  0  0  0  0  0  0  0  0  0  0
   42.4890   35.2810   37.8130 O   0  0  0  0  0  0  0  0  0  0  0  0
   43.3820   35.5620   37.5010 H   0  0  0  0  0  0  0  0  0  0  0  0
   40.2780   35.0270   37.7130 O   0  0  0  0  0  0  0  0  0  0  0  0
   40.3220   34.2510   37.1200 H   0  0  0  0  0  0  0  0  0  0  0  0
   43.5530   34.2190   41.0450 O   0  0  0  0  0  0  0  0  0  0  0  0
   44.6690   34.3580   41.7680 C   0  0  0  0  0  0  0  0  0  0  0  0
   45.9200   34.4860   41.1490 C   0  0  0  0  0  0  0  0  0  0  0  0
   47.0460   34.6290   41.9390 C   0  0  0  0  0  0  0  0  0  0  0  0
   46.9040   34.6390   43.3170 N   0  0  0  0  0  0  0  0  0  0  0  0
   45.6820   34.5130   43.8800 C   0  0  0  0  0  0  0  0  0  0  0  0
   44.5730   34.3730   43.1090 N   0  0  0  0  0  0  0  0  0  0  0  0
   46.0400   34.4790   40.0730 H   0  0  0  0  0  0  0  0  0  0  0  0
   45.6080   34.5250   44.9410 H   0  0  0  0  0  0  0  0  0  0  0  0
   48.4140   34.7540   41.3540 C   0  0  0  0  0  0  0  0  0  0  0  0
   49.1210   36.0970   41.5340 C   0  0  0  0  0  0  0  0  0  0  0  0
   49.5780   34.7720   42.1800 C   0  0  0  0  0  0  0  0  0  0  0  0
   48.4580   34.3300   40.3120 H   0  0  0  0  0  0  0  0  0  0  0  0
   48.5720   36.8060   42.1530 H   0  0  0  0  0  0  0  0  0  0  0  0
   49.7470   36.4260   40.6900 H   0  0  0  0  0  0  0  0  0  0  0  0
   50.5400   34.3400   41.8520 H   0  0  0  0  0  0  0  0  0  0  0  0
   49.4620   34.7720   43.2970 H   0  0  0  0  0  0  0  0  0  0  0  0
   41.1380   32.6370   38.3450 O   0  0  0  0  0  0  0  0  0  0  0  0
   40.0650   31.8170   38.3550 C   0  0  0  0  0  0  0  0  0  0  0  0
   39.0820   31.9700   37.4980 O   0  0  0  0  0  0  0  0  0  0  0  0
   39.4420   30.6300   39.0330 C   0  0  0  0  0  3  0  0  0  0  0  0
   38.3580   30.1330   38.0810 C   0  0  0  0  0  2  0  0  0  0  0  0
   37.7300   28.8720   38.5700 C   0  0  0  0  0  2  0  0  0  0  0  0
   37.6250   28.8050   40.0550 C   0  0  0  0  0  2  0  0  0  0  0  0
   37.4740   30.2290   40.5610 C   0  0  0  0  0  2  0  0  0  0  0  0
   38.8130   30.8920   40.3450 C   0  0  0  0  0  2  0  0  0  0  0  0
  1  7  1  6  0  0  0
  1  6  1  0  0  0  0
  1  2  1  0  0  0  0
  2  8  1  6  0  0  0
  2  3  1  0  0  0  0
  2 17  1  0  0  0  0
  4 10  1  0  0  0  0
  4  3  1  0  0  0  0
  5  6  1  0  0  0  0
  5 11  1  1  0  0  0
  5  4  1  0  0  0  0
  6 12  1  1  0  0  0
  9  4  1  0  0  0  0
 13  1  1  0  0  0  0
 14 13  1  0  0  0  0
 15  5  1  0  0  0  0
 16 15  1  0  0  0  0
 17 18  1  0  0  0  0
 18 23  1  0  0  0  0
 19 18  2  0  0  0  0
 19 20  1  0  0  0  0
 20 21  2  0  0  0  0
 21 22  1  0  0  0  0
 22 25  1  0  0  0  0
 23 22  2  0  0  0  0
 24 19  1  0  0  0  0
 26 27  1  0  0  0  0
 26 20  1  0  0  0  0
 26 28  1  0  0  0  0
 27 30  1  0  0  0  0
 27 28  1  0  0  0  0
 28 33  1  0  0  0  0
 29 26  1  0  0  0  0
 31 27  1  0  0  0  0
 32 28  1  0  0  0  0
 34 35  1  0  0  0  0
 34  6  1  0  0  0  0
 35 37  1  0  0  0  0
 36 35  2  0  0  0  0
 37 42  1  0  0  0  0
 38 39  1  0  0  0  0
 38 37  1  0  0  0  0
 39 40  1  0  0  0  0
 40 41  1  0  0  0  0
 42 41  1  0  0  0  0
M  END
>  <minimizedAffinity>
-6.33067226

>  <minimizedRMSD>
1.35748911

$$$$
