
     RDKit          3D

 34 35  0  0  0  0  0  0  0  0999 V2000
   46.1292   35.2655   42.6980 C   0  0  0  0  0  0  0  0  0  0  0  0
   46.6879   34.1778   43.3487 C   0  0  0  0  0  0  0  0  0  0  0  0
   46.2087   33.8447   44.6166 C   0  0  0  0  0  0  0  0  0  0  0  0
   45.2152   34.6087   45.1473 N   0  0  0  0  0  0  0  0  0  0  0  0
   44.6986   35.6514   44.4924 C   0  0  0  0  0  0  0  0  0  0  0  0
   45.1504   35.9760   43.2817 N   0  0  0  0  0  0  0  0  0  0  0  0
   47.7013   33.4772   42.6934 O   0  0  0  0  0  0  0  0  0  0  0  0
   49.5549   35.3615   42.7839 O   0  0  0  0  0  0  0  0  0  0  0  0
   48.9754   34.3038   41.9022 P   0  0  1  0  0  0  0  0  0  0  0  0
   50.2165   33.2439   41.5066 O   0  0  0  0  0  0  0  0  0  0  0  0
   48.4085   35.0333   40.5114 O   0  0  0  0  0  0  0  0  0  0  0  0
   48.0604   34.3992   39.3650 C   0  0  0  0  0  0  0  0  0  0  0  0
   46.9598   33.7461   39.5028 O   0  0  0  0  0  0  0  0  0  0  0  0
   46.4214   35.6112   41.7194 H   0  0  0  0  0  0  0  0  0  0  0  0
   46.6606   32.9892   45.1079 H   0  0  0  0  0  0  0  0  0  0  0  0
   43.9169   36.1483   45.0602 H   0  0  0  0  0  0  0  0  0  0  0  0
   49.9606   32.6475   40.7437 H   0  0  0  0  0  0  0  0  0  0  0  0
   48.0761   33.9063   37.9609 C   0  0  0  0  0  0  0  0  0  0  0  0
   49.0813   34.7383   37.1667 C   0  0  0  0  0  0  0  0  0  0  0  0
   49.0310   34.1574   35.7639 C   0  0  0  0  0  0  0  0  0  0  0  0
   49.7213   32.8108   35.8404 C   0  0  0  0  0  0  0  0  0  0  0  0
   48.7413   31.9075   36.5930 C   0  0  0  0  0  0  0  0  0  0  0  0
   48.4313   32.4537   37.9414 C   0  0  0  0  0  0  0  0  0  0  0  0
   47.0975   34.0667   37.4472 H   0  0  0  0  0  0  0  0  0  0  0  0
   48.7668   35.7994   37.1783 H   0  0  0  0  0  0  0  0  0  0  0  0
   50.0815   34.5573   37.6093 H   0  0  0  0  0  0  0  0  0  0  0  0
   49.5107   34.8273   35.0240 H   0  0  0  0  0  0  0  0  0  0  0  0
   47.9477   34.0090   35.5419 H   0  0  0  0  0  0  0  0  0  0  0  0
   49.8989   32.3738   34.8447 H   0  0  0  0  0  0  0  0  0  0  0  0
   50.6432   32.8612   36.4553 H   0  0  0  0  0  0  0  0  0  0  0  0
   49.2768   30.9434   36.7205 H   0  0  0  0  0  0  0  0  0  0  0  0
   47.8435   31.7144   36.0031 H   0  0  0  0  0  0  0  0  0  0  0  0
   47.5404   31.8906   38.3252 H   0  0  0  0  0  0  0  0  0  0  0  0
   49.2972   32.2588   38.6075 H   0  0  0  0  0  0  0  0  0  0  0  0
  1  6  2  0
  1  2  1  0
  2  3  2  0
  3  4  1  0
  5  4  2  0
  6  5  1  0
  7  2  1  0
  9  7  1  1
  9  8  2  0
 10  9  1  0
 11  9  1  0
 12 13  2  0
 12 11  1  0
  1 14  1  0
  3 15  1  0
  5 16  1  0
 10 17  1  0
 18 19  1  0
 19 20  1  0
 20 21  1  0
 21 22  1  0
 22 23  1  0
 23 18  1  0
 18 24  1  0
 19 25  1  0
 19 26  1  0
 20 27  1  0
 20 28  1  0
 21 29  1  0
 21 30  1  0
 22 31  1  0
 22 32  1  0
 23 33  1  0
 23 34  1  0
 12 18  1  0
M  ISO  4  14  14  15  14  16  14  17   3
M  END
>  <DihAtoms>  (1) 
12,11,17,18

>  <DihDeg>  (1) 
-0.33707259004951773

$$$$
