
     RDKit          3D

 34 35  0  0  0  0  0  0  0  0999 V2000
   46.1292   35.2655   42.6980 C   0  0  0  0  0  0  0  0  0  0  0  0
   46.6879   34.1778   43.3487 C   0  0  0  0  0  0  0  0  0  0  0  0
   46.2087   33.8447   44.6166 C   0  0  0  0  0  0  0  0  0  0  0  0
   45.2152   34.6087   45.1473 N   0  0  0  0  0  0  0  0  0  0  0  0
   44.6986   35.6514   44.4924 C   0  0  0  0  0  0  0  0  0  0  0  0
   45.1504   35.9760   43.2817 N   0  0  0  0  0  0  0  0  0  0  0  0
   47.7013   33.4772   42.6934 O   0  0  0  0  0  0  0  0  0  0  0  0
   49.5549   35.3615   42.7839 O   0  0  0  0  0  0  0  0  0  0  0  0
   48.9754   34.3038   41.9022 P   0  0  1  0  0  0  0  0  0  0  0  0
   50.2165   33.2439   41.5066 O   0  0  0  0  0  0  0  0  0  0  0  0
   48.4085   35.0333   40.5114 O   0  0  0  0  0  0  0  0  0  0  0  0
   48.0604   34.3992   39.3650 C   0  0  0  0  0  0  0  0  0  0  0  0
   46.9598   33.7461   39.5028 O   0  0  0  0  0  0  0  0  0  0  0  0
   46.4214   35.6112   41.7194 H   0  0  0  0  0  0  0  0  0  0  0  0
   46.6606   32.9892   45.1079 H   0  0  0  0  0  0  0  0  0  0  0  0
   43.9169   36.1483   45.0602 H   0  0  0  0  0  0  0  0  0  0  0  0
   49.9606   32.6475   40.7437 H   0  0  0  0  0  0  0  0  0  0  0  0
   48.0761   33.9063   37.9609 C   0  0  0  0  0  0  0  0  0  0  0  0
   48.1151   32.3794   37.9840 C   0  0  0  0  0  0  0  0  0  0  0  0
   48.1190   31.9774   36.5190 C   0  0  0  0  0  0  0  0  0  0  0  0
   46.7214   32.2530   36.0027 C   0  0  0  0  0  0  0  0  0  0  0  0
   46.6279   33.7780   35.9128 C   0  0  0  0  0  0  0  0  0  0  0  0
   46.8695   34.4121   37.2365 C   0  0  0  0  0  0  0  0  0  0  0  0
   49.0030   34.2114   37.4178 H   0  0  0  0  0  0  0  0  0  0  0  0
   49.0361   32.0456   38.4991 H   0  0  0  0  0  0  0  0  0  0  0  0
   47.1773   32.0331   38.4629 H   0  0  0  0  0  0  0  0  0  0  0  0
   48.4087   30.9171   36.3844 H   0  0  0  0  0  0  0  0  0  0  0  0
   48.8424   32.6670   36.0230 H   0  0  0  0  0  0  0  0  0  0  0  0
   46.5571   31.8368   34.9958 H   0  0  0  0  0  0  0  0  0  0  0  0
   45.9485   31.9297   36.7298 H   0  0  0  0  0  0  0  0  0  0  0  0
   45.5798   33.9859   35.6111 H   0  0  0  0  0  0  0  0  0  0  0  0
   47.2830   34.1725   35.1339 H   0  0  0  0  0  0  0  0  0  0  0  0
   47.0305   35.5064   37.0502 H   0  0  0  0  0  0  0  0  0  0  0  0
   45.9612   34.2809   37.8603 H   0  0  0  0  0  0  0  0  0  0  0  0
  1  6  2  0
  1  2  1  0
  2  3  2  0
  3  4  1  0
  5  4  2  0
  6  5  1  0
  7  2  1  0
  9  7  1  1
  9  8  2  0
 10  9  1  0
 11  9  1  0
 12 13  2  0
 12 11  1  0
  1 14  1  0
  3 15  1  0
  5 16  1  0
 10 17  1  0
 18 19  1  0
 19 20  1  0
 20 21  1  0
 21 22  1  0
 22 23  1  0
 23 18  1  0
 18 24  1  0
 19 25  1  0
 19 26  1  0
 20 27  1  0
 20 28  1  0
 21 29  1  0
 21 30  1  0
 22 31  1  0
 22 32  1  0
 23 33  1  0
 23 34  1  0
 12 18  1  0
M  ISO  4  14  14  15  14  16  14  17   3
M  END
>  <DihAtoms>  (1) 
12,11,17,18

>  <DihDeg>  (1) 
-0.33707259004951773

$$$$
