
 OpenBabel03242514323D

 23 24  0  0  0  0  0  0  0  0999 V2000
   49.5500   35.3210   42.6600 O   0  0  0  0  0  0  0  0  0  0  0  0
   48.9600   34.2710   41.7760 P   0  0  1  0  0  0  0  0  0  0  0  0
   50.1910   33.2000   41.3790 O   0  0  0  0  0  0  0  0  0  0  0  0
   49.9300   32.6080   40.6150 H   0  0  0  0  0  0  0  0  0  0  0  0
   47.6780   33.4560   42.5650 O   0  0  0  0  0  0  0  0  0  0  0  0
   46.1270   35.2630   42.6100 C   0  0  0  0  0  0  0  0  0  0  0  0
   46.6860   34.1650   43.2450 C   0  0  0  0  0  0  0  0  0  0  0  0
   46.2280   33.8310   44.5200 C   0  0  0  0  0  0  0  0  0  0  0  0
   45.2540   34.6030   45.0740 N   0  0  0  0  0  0  0  0  0  0  0  0
   44.7370   35.6540   44.4340 C   0  0  0  0  0  0  0  0  0  0  0  0
   45.1680   35.9810   43.2170 N   0  0  0  0  0  0  0  0  0  0  0  0
   46.4030   35.6090   41.6280 H   0  0  0  0  0  0  0  0  0  0  0  0
   46.6800   32.9670   44.9980 H   0  0  0  0  0  0  0  0  0  0  0  0
   43.9720   36.1570   45.0200 H   0  0  0  0  0  0  0  0  0  0  0  0
   48.4000   35.0080   40.3860 O   0  0  0  0  0  0  0  0  0  0  0  0
   48.0260   34.3780   39.2460 C   0  0  0  0  0  0  0  0  0  0  0  0
   46.9530   33.6900   39.4190 O   0  0  0  0  0  0  0  0  0  0  0  0
   48.0000   33.9040   37.8360 C   0  0  0  0  0  3  0  0  0  0  0  0
   49.1140   32.8750   37.6510 C   0  0  0  0  0  2  0  0  0  0  0  0
   49.0000   32.4490   36.1970 C   0  0  0  0  0  2  0  0  0  0  0  0
   47.7530   31.5910   36.1060 C   0  0  0  0  0  2  0  0  0  0  0  0
   46.5880   32.5730   36.2420 C   0  0  0  0  0  2  0  0  0  0  0  0
   46.6580   33.3200   37.5260 C   0  0  0  0  0  2  0  0  0  0  0  0
  2  5  1  0  0  0  0
  2  1  2  1  0  0  0
  3  2  1  0  0  0  0
  4  3  1  0  0  0  0
  5  7  1  0  0  0  0
  6 11  2  0  0  0  0
  6  7  1  0  0  0  0
  7  8  2  0  0  0  0
  8 13  1  0  0  0  0
  8  9  1  0  0  0  0
 10 14  1  0  0  0  0
 10  9  2  0  0  0  0
 11 10  1  0  0  0  0
 12  6  1  0  0  0  0
 15  2  1  0  0  0  0
 16 17  2  0  0  0  0
 16 15  1  0  0  0  0
 18 16  1  0  0  0  0
 19 18  1  0  0  0  0
 20 19  1  0  0  0  0
 21 20  1  0  0  0  0
 21 22  1  0  0  0  0
 22 23  1  0  0  0  0
 23 18  1  0  0  0  0
M  END
>  <minimizedAffinity>
-4.58803844

>  <minimizedRMSD>
0.22343722

$$$$
