REMARK  Name = 
REMARK  2 active torsions:
REMARK  status: ('A' for Active; 'I' for Inactive)
REMARK    1  A    between atoms: C_2  and  C_14
REMARK    2  A    between atoms: C_3  and  C_23
REMARK                            x       y       z     vdW  Elec       q    Type
REMARK                         _______ _______ _______ _____ _____    ______ ____
ROOT
ATOM      1  C   UNL     1      47.223  31.367  45.086  0.00  0.00    +0.000 A 
ATOM      2  C   UNL     1      46.888  32.702  45.095  0.00  0.00    +0.000 A 
ATOM      3  C   UNL     1      46.290  33.307  46.180  0.00  0.00    +0.000 A 
ATOM      4  C   UNL     1      45.999  32.574  47.327  0.00  0.00    +0.000 A 
ATOM      5  N   UNL     1      45.440  32.814  48.538  0.00  0.00    +0.000 N 
ATOM      6  C   UNL     1      45.430  31.659  49.258  0.00  0.00    +0.000 A 
ATOM      7  N   UNL     1      45.992  30.707  48.469  0.00  0.00    +0.000 NA
ATOM      8  C   UNL     1      46.346  31.238  47.290  0.00  0.00    +0.000 A 
ATOM      9  C   UNL     1      46.945  30.594  46.224  0.00  0.00    +0.000 A 
ATOM     10  H   UNL     1      47.694  30.907  44.221  0.00  0.00    +0.000 HD
ATOM     11  H   UNL     1      45.106  33.784  48.764  0.00  0.00    +0.000 HD
ATOM     12  H   UNL     1      45.015  31.698  50.241  0.00  0.00    +0.000 HD
ATOM     13  H   UNL     1      47.187  29.539  46.273  0.00  0.00    +0.000 HD
ENDROOT
BRANCH   2  18
ATOM     14  C   UNL     1      46.515  35.203  42.424  0.00  0.00    +0.000 A 
ATOM     15  C   UNL     1      47.706  35.062  41.710  0.00  0.00    +0.000 A 
ATOM     16  C   UNL     1      48.640  34.105  42.148  0.00  0.00    +0.000 A 
ATOM     17  N   UNL     1      48.316  33.366  43.258  0.00  0.00    +0.000 NA
ATOM     18  C   UNL     1      47.166  33.519  43.927  0.00  0.00    +0.000 A 
ATOM     19  N   UNL     1      46.269  34.436  43.509  0.00  0.00    +0.000 NA
ATOM     20  H   UNL     1      45.771  35.939  42.106  0.00  0.00    +0.000 HD
ATOM     21  H   UNL     1      47.923  35.666  40.839  0.00  0.00    +0.000 HD
ATOM     22  H   UNL     1      49.581  33.955  41.630  0.00  0.00    +0.000 HD
ENDBRANCH   2  18
BRANCH   3  23
ATOM     23  C   UNL     1      45.941  34.724  46.174  0.00  0.00    +0.000 A 
ATOM     24  C   UNL     1      46.419  35.669  45.287  0.00  0.00    +0.000 A 
ATOM     25  C   UNL     1      45.965  36.960  45.450  0.00  0.00    +0.000 A 
ATOM     26  H   UNL     1      46.339  37.695  44.758  0.00  0.00    +0.000 HD
ATOM     27  N   UNL     1      45.097  37.301  46.420  0.00  0.00    +0.000 NA
ATOM     28  C   UNL     1      44.643  36.368  47.273  0.00  0.00    +0.000 A 
ATOM     29  N   UNL     1      45.063  35.076  47.153  0.00  0.00    +0.000 NA
ENDBRANCH   3  23
TORSDOF 2
