
 OpenBabel03252504333D

 38 40  0  0  0  0  0  0  0  0999 V2000
   44.0520   35.3620   41.3270 C   0  0  0  0  0  3  0  0  0  0  0  0
   44.0390   35.6030   42.6350 C   0  0  0  0  0  3  0  0  0  0  0  0
   45.2660   35.5230   43.5310 C   0  0  0  0  0  0  0  0  0  0  0  0
   45.4880   36.5060   43.9940 H   0  0  0  0  0  0  0  0  0  0  0  0
   46.1030   35.2540   42.8680 H   0  0  0  0  0  0  0  0  0  0  0  0
   44.9840   34.5810   44.5030 O   0  0  0  0  0  0  0  0  0  0  0  0
   45.6120   32.4190   43.0860 O   0  0  0  0  0  0  0  0  0  0  0  0
   45.9710   33.2250   44.3130 P   0  0  1  0  0  0  0  0  0  0  0  0
   47.5980   33.7060   44.1370 O   0  0  0  0  0  0  0  0  0  0  0  0
   47.6870   34.4400   43.4780 H   0  0  0  0  0  0  0  0  0  0  0  0
   45.8910   32.2530   45.6890 O   0  0  0  0  0  0  0  0  0  0  0  0
   46.2040   32.9470   46.8430 C   0  0  0  0  0  0  0  0  0  0  0  0
   47.0870   32.3060   47.8640 C   0  0  0  0  0  0  0  0  0  0  0  0
   45.5890   32.4000   48.1100 C   0  0  0  0  0  0  0  0  0  0  0  0
   46.3070   34.0450   46.7450 H   0  0  0  0  0  0  0  0  0  0  0  0
   47.5150   31.3020   47.6460 H   0  0  0  0  0  0  0  0  0  0  0  0
   47.6700   32.9840   48.5170 H   0  0  0  0  0  0  0  0  0  0  0  0
   45.0450   31.4380   48.0780 H   0  0  0  0  0  0  0  0  0  0  0  0
   45.2090   33.1280   48.8560 H   0  0  0  0  0  0  0  0  0  0  0  0
   42.8430   35.4760   40.6660 O   0  0  0  0  0  0  0  0  0  0  0  0
   41.6100   35.6180   41.2050 C   0  0  0  0  0  0  0  0  0  0  0  0
   41.5200   35.7080   42.3130 H   0  0  0  0  0  0  0  0  0  0  0  0
   41.1430   36.5770   40.8320 H   0  0  0  0  0  0  0  0  0  0  0  0
   41.0740   33.2510   41.2730 C   0  0  0  0  0  0  0  0  0  0  0  0
   40.6540   34.5200   40.8580 C   0  0  0  0  0  0  0  0  0  0  0  0
   39.4670   34.6470   40.2310 C   0  0  0  0  0  0  0  0  0  0  0  0
   38.7680   33.5230   40.0510 N   0  0  0  0  0  0  0  0  0  0  0  0
   39.1430   32.3070   40.4360 C   0  0  0  0  0  0  0  0  0  0  0  0
   40.3660   32.1340   41.0880 N   0  0  0  0  0  0  0  0  0  0  0  0
   42.0140   33.0810   41.7800 H   0  0  0  0  0  0  0  0  0  0  0  0
   39.1790   35.6310   39.9270 H   0  0  0  0  0  0  0  0  0  0  0  0
   38.3340   31.1110   40.2130 C   0  0  0  0  0  0  0  0  0  0  0  0
   37.5110   30.7100   41.2460 C   0  0  0  0  0  3  0  0  0  0  0  0
   36.7490   29.5600   41.0040 C   0  0  0  0  0  0  0  0  0  0  0  0
   36.1070   29.2550   41.8210 H   0  0  0  0  0  0  0  0  0  0  0  0
   36.8080   28.8850   39.8430 N   0  0  0  0  0  0  0  0  0  0  0  0
   37.6250   29.3140   38.8650 C   0  0  0  0  0  3  0  0  0  0  0  0
   38.3880   30.4290   39.0540 N   0  0  0  0  0  0  0  0  0  0  0  0
  1  2  2  0  0  0  0
  2  3  1  0  0  0  0
  3  4  1  0  0  0  0
  3  6  1  0  0  0  0
  5  3  1  0  0  0  0
  8  7  2  6  0  0  0
  8  6  1  0  0  0  0
  8 11  1  0  0  0  0
  9  8  1  0  0  0  0
 10  9  1  0  0  0  0
 11 12  1  0  0  0  0
 12 13  1  0  0  0  0
 12 14  1  0  0  0  0
 13 14  1  0  0  0  0
 13 17  1  0  0  0  0
 14 19  1  0  0  0  0
 15 12  1  0  0  0  0
 16 13  1  0  0  0  0
 18 14  1  0  0  0  0
 20 21  1  0  0  0  0
 20  1  1  0  0  0  0
 21 22  1  0  0  0  0
 23 21  1  0  0  0  0
 24 30  1  0  0  0  0
 25 21  1  0  0  0  0
 25 24  2  0  0  0  0
 26 25  1  0  0  0  0
 27 26  2  0  0  0  0
 27 28  1  0  0  0  0
 28 29  2  0  0  0  0
 29 24  1  0  0  0  0
 31 26  1  0  0  0  0
 32 28  1  0  0  0  0
 32 33  1  0  0  0  0
 34 33  2  0  0  0  0
 34 35  1  0  0  0  0
 36 34  1  0  0  0  0
 37 38  1  0  0  0  0
 37 36  2  0  0  0  0
 38 32  2  0  0  0  0
M  END
>  <minimizedAffinity>
-4.9821229

>  <minimizedRMSD>
0.860797286

$$$$
