
 OpenBabel03252507583D

 25 27  0  0  1  0  0  0  0  0999 V2000
   46.5270   32.4250   46.1420 C   0  0  1  0  0  0  0  0  0  0  0  0
   46.9580   32.6650   47.5480 C   0  0  0  0  0  0  0  0  0  0  0  0
   45.6040   32.1140   47.2800 C   0  0  2  0  0  0  0  0  0  0  0  0
   47.0890   31.6830   45.5710 H   0  0  0  0  0  0  0  0  0  0  0  0
   46.9850   33.7300   47.8810 H   0  0  0  0  0  0  0  0  0  0  0  0
   47.7770   32.0540   47.9220 H   0  0  0  0  0  0  0  0  0  0  0  0
   44.7270   32.7410   47.4660 H   0  0  0  0  0  0  0  0  0  0  0  0
   46.2050   34.7690   43.3410 C   0  0  0  0  0  0  0  0  0  0  0  0
   45.2110   35.6740   43.7750 C   0  0  0  0  0  0  0  0  0  0  0  0
   44.6490   35.4590   45.0460 C   0  0  0  0  0  0  0  0  0  0  0  0
   45.0940   34.4030   45.7770 N   0  0  0  0  0  0  0  0  0  0  0  0
   46.0590   33.5680   45.2940 C   0  0  0  0  0  0  0  0  0  0  0  0
   46.6210   33.7300   44.0980 N   0  0  0  0  0  0  0  0  0  0  0  0
   44.8710   36.4950   43.1960 H   0  0  0  0  0  0  0  0  0  0  0  0
   43.8870   36.1140   45.4330 H   0  0  0  0  0  0  0  0  0  0  0  0
   46.7350   35.0540   42.0420 C   0  0  0  0  0  0  0  0  0  0  0  0
   47.9240   35.4150   41.7940 O   0  0  0  0  0  0  0  0  0  0  0  0
   45.9630   34.9150   41.2820 H   0  0  0  0  0  0  0  0  0  0  0  0
   45.3650   30.6410   47.4520 C   0  0  0  0  0  0  0  0  0  0  0  0
   45.3110   29.7930   46.3540 C   0  0  0  0  0  3  0  0  0  0  0  0
   45.0880   28.4570   46.6130 C   0  0  0  0  0  0  0  0  0  0  0  0
   45.0460   27.7990   45.7490 H   0  0  0  0  0  0  0  0  0  0  0  0
   44.9230   27.9350   47.8400 N   0  0  0  0  0  0  0  0  0  0  0  0
   44.9820   28.7880   48.8820 C   0  0  0  0  0  3  0  0  0  0  0  0
   45.1980   30.1000   48.6750 N   0  0  0  0  0  0  0  0  0  0  0  0
  1  4  1  6  0  0  0
  1  3  1  0  0  0  0
  1  2  1  0  0  0  0
  2  5  1  0  0  0  0
  2  6  1  0  0  0  0
  3 19  1  0  0  0  0
  3  7  1  1  0  0  0
  3  2  1  0  0  0  0
  8  9  2  0  0  0  0
  8 13  1  0  0  0  0
  9 10  1  0  0  0  0
 10 15  1  0  0  0  0
 10 11  2  0  0  0  0
 12 11  1  0  0  0  0
 12  1  1  0  0  0  0
 13 12  2  0  0  0  0
 14  9  1  0  0  0  0
 16  8  1  0  0  0  0
 17 16  2  0  0  0  0
 18 16  1  0  0  0  0
 19 25  1  0  0  0  0
 20 21  1  0  0  0  0
 20 19  2  0  0  0  0
 21 23  2  0  0  0  0
 22 21  1  0  0  0  0
 23 24  1  0  0  0  0
 25 24  2  0  0  0  0
M  END
>  <minimizedAffinity>
-4.39930344

>  <minimizedRMSD>
0.923711598

$$$$
