
     RDKit          3D

 38 40  0  0  0  0  0  0  0  0999 V2000
   46.8090   35.0850   41.8963 C   0  0  2  0  0  0  0  0  0  0  0  0
   45.1853   36.0532   43.5050 C   0  0  0  0  0  0  0  0  0  0  0  0
   46.0862   35.0690   43.1335 C   0  0  0  0  0  0  0  0  0  0  0  0
   46.2588   34.0424   44.0680 C   0  0  0  0  0  0  0  0  0  0  0  0
   45.5636   34.0582   45.2487 N   0  0  0  0  0  0  0  0  0  0  0  0
   44.7021   35.0521   45.5423 C   0  0  0  0  0  0  0  0  0  0  0  0
   44.5064   36.0617   44.6672 N   0  0  0  0  0  0  0  0  0  0  0  0
   46.4041   34.0745   40.9394 N   0  0  0  0  0  0  0  0  0  0  0  0
   45.0431   34.1034   40.5826 C   0  0  0  0  0  0  0  0  0  0  0  0
   44.7772   32.7397   39.9031 C   0  0  0  0  0  0  0  0  0  0  0  0
   45.4362   32.8558   38.6375 N   0  0  0  0  0  0  0  0  0  0  0  0
   46.8171   33.1542   38.6933 C   0  0  0  0  0  0  0  0  0  0  0  0
   47.3234   33.9266   39.8627 C   0  0  0  0  0  0  0  0  0  0  0  0
   48.3066   34.9313   42.1734 C   0  0  0  0  0  0  0  0  0  0  0  0
   46.6531   36.0674   41.3872 H   0  0  0  0  0  0  0  0  0  0  0  0
   45.0289   36.8666   42.7963 H   0  0  0  0  0  0  0  0  0  0  0  0
   46.9339   33.2322   43.8755 H   0  0  0  0  0  0  0  0  0  0  0  0
   44.2404   34.9129   46.5070 H   0  0  0  0  0  0  0  0  0  0  0  0
   44.4308   34.0676   41.5166 H   0  0  0  0  0  0  0  0  0  0  0  0
   44.7353   34.9145   39.9125 H   0  0  0  0  0  0  0  0  0  0  0  0
   43.6875   32.7392   39.7213 H   0  0  0  0  0  0  0  0  0  0  0  0
   45.1662   31.9304   40.5154 H   0  0  0  0  0  0  0  0  0  0  0  0
   44.8841   33.2893   37.8904 H   0  0  0  0  0  0  0  0  0  0  0  0
   47.0737   33.6766   37.7214 H   0  0  0  0  0  0  0  0  0  0  0  0
   47.3635   32.1863   38.6128 H   0  0  0  0  0  0  0  0  0  0  0  0
   47.6305   34.9306   39.5137 H   0  0  0  0  0  0  0  0  0  0  0  0
   48.2584   33.4080   40.1864 H   0  0  0  0  0  0  0  0  0  0  0  0
   48.4781   33.9553   42.7195 H   0  0  0  0  0  0  0  0  0  0  0  0
   48.8624   34.9129   41.1957 H   0  0  0  0  0  0  0  0  0  0  0  0
   48.8972   35.9966   42.9942 C   0  0  0  0  0  0  0  0  0  0  0  0
   49.7023   36.1842   44.0780 C   0  0  0  0  0  0  0  0  0  0  0  0
   50.0555   37.3900   44.6242 C   0  0  0  0  0  0  0  0  0  0  0  0
   50.6988   37.2923   45.4733 H   0  0  0  0  0  0  0  0  0  0  0  0
   49.5668   38.4911   44.0442 N   0  0  0  0  0  0  0  0  0  0  0  0
   48.7784   38.3764   42.9885 C   0  0  0  0  0  0  0  0  0  0  0  0
   48.4560   37.1919   42.4841 N   0  0  0  0  0  0  0  0  0  0  0  0
   50.0141   35.2340   44.4647 H   0  0  0  0  0  0  0  0  0  0  0  0
   48.4482   39.3543   42.6123 H   0  0  0  0  0  0  0  0  0  0  0  0
  1 14  1  0
  1  3  1  0
  2  7  2  0
  3  2  1  0
  3  4  2  0
  4  5  1  0
  5  6  2  0
  7  6  1  0
  8  1  1  0
  9  8  1  0
 10  9  1  0
 11 12  1  0
 11 10  1  0
 12 13  1  0
 13  8  1  0
  1 15  1  6
  2 16  1  0
  4 17  1  0
  6 18  1  0
  9 19  1  0
  9 20  1  0
 10 21  1  0
 10 22  1  0
 11 23  1  0
 12 24  1  0
 12 25  1  0
 13 26  1  0
 13 27  1  0
 14 28  1  0
 14 29  1  0
 30 31  2  0
 31 32  1  0
 32 33  1  0
 32 34  2  0
 34 35  1  0
 35 36  2  0
 36 30  1  0
 31 37  1  0
 35 38  1  0
 14 30  1  0
M  ISO  8  15   8  16  14  17  14  18  14  19  13  20  13  21  13  22  13
M  ISO  8  23   5  24  13  25  13  26  13  27  13  28   8  29   8  33  14
M  END
>  <DihAtoms>  (1) 
0,13,29,30

>  <DihDeg>  (1) 
-3.011117820306463

$$$$
