
 OpenBabel03242521203D

 24 26  0  0  0  0  0  0  0  0999 V2000
   37.5100   28.2500   41.6110 C   0  0  0  0  0  0  0  0  0  0  0  0
   36.2010   28.1140   41.2510 C   0  0  0  0  0  0  0  0  0  0  0  0
   35.4650   29.1260   40.6800 C   0  0  0  0  0  0  0  0  0  0  0  0
   36.1060   30.3060   40.4790 N   0  0  0  0  0  0  0  0  0  0  0  0
   37.3870   30.4440   40.8280 C   0  0  0  0  0  0  0  0  0  0  0  0
   38.1170   29.4490   41.3910 N   0  0  0  0  0  0  0  0  0  0  0  0
   35.7550   27.1690   41.4330 H   0  0  0  0  0  0  0  0  0  0  0  0
   34.4250   29.0180   40.3960 H   0  0  0  0  0  0  0  0  0  0  0  0
   39.9490   26.4830   43.6800 C   0  0  0  0  0  0  0  0  0  0  0  0
   39.7040   25.1430   43.3530 C   0  0  0  0  0  0  0  0  0  0  0  0
   38.7020   24.8340   42.4210 C   0  0  0  0  0  0  0  0  0  0  0  0
   38.0050   25.8880   41.8730 N   0  0  0  0  0  0  0  0  0  0  0  0
   38.2690   27.1660   42.2120 C   0  0  0  0  0  0  0  0  0  0  0  0
   39.2320   27.4740   43.1080 N   0  0  0  0  0  0  0  0  0  0  0  0
   40.7110   26.7750   44.3930 H   0  0  0  0  0  0  0  0  0  0  0  0
   40.3020   24.3710   43.8330 H   0  0  0  0  0  0  0  0  0  0  0  0
   38.5000   23.8220   42.1590 H   0  0  0  0  0  0  0  0  0  0  0  0
   38.0920   31.7080   40.6190 C   0  0  0  0  0  0  0  0  0  0  0  0
   37.4340   32.8220   40.1340 C   0  0  0  0  0  3  0  0  0  0  0  0
   38.0750   34.0290   39.9280 C   0  0  0  0  0  0  0  0  0  0  0  0
   37.5580   34.9090   39.5460 H   0  0  0  0  0  0  0  0  0  0  0  0
   39.3860   34.1580   40.1980 N   0  0  0  0  0  0  0  0  0  0  0  0
   40.0370   33.0570   40.6760 C   0  0  0  0  0  3  0  0  0  0  0  0
   39.4020   31.8880   40.8740 N   0  0  0  0  0  0  0  0  0  0  0  0
  1 13  1  0  0  0  0
  2  7  1  0  0  0  0
  2  1  2  0  0  0  0
  3  2  1  0  0  0  0
  4  3  2  0  0  0  0
  4  5  1  0  0  0  0
  5  6  2  0  0  0  0
  6  1  1  0  0  0  0
  8  3  1  0  0  0  0
  9 15  1  0  0  0  0
 10  9  1  0  0  0  0
 10 16  1  0  0  0  0
 11 10  2  0  0  0  0
 12 13  2  0  0  0  0
 12 11  1  0  0  0  0
 13 14  1  0  0  0  0
 14  9  2  0  0  0  0
 17 11  1  0  0  0  0
 18  5  1  0  0  0  0
 18 24  1  0  0  0  0
 19 18  2  0  0  0  0
 20 19  1  0  0  0  0
 20 22  2  0  0  0  0
 21 20  1  0  0  0  0
 22 23  1  0  0  0  0
 23 24  2  0  0  0  0
M  END
>  <minimizedAffinity>
-4.97999334

$$$$

 OpenBabel03242521203D

 24 26  0  0  0  0  0  0  0  0999 V2000
   37.4750   30.5280   40.8380 C   0  0  0  0  0  0  0  0  0  0  0  0
   36.1700   30.3370   40.4860 C   0  0  0  0  0  0  0  0  0  0  0  0
   35.4980   29.1540   40.6880 C   0  0  0  0  0  0  0  0  0  0  0  0
   36.1990   28.1470   41.2680 N   0  0  0  0  0  0  0  0  0  0  0  0
   37.4750   28.3280   41.6160 C   0  0  0  0  0  0  0  0  0  0  0  0
   38.1420   29.4920   41.4190 N   0  0  0  0  0  0  0  0  0  0  0  0
   35.6750   31.1610   40.0360 H   0  0  0  0  0  0  0  0  0  0  0  0
   34.4620   29.0030   40.4080 H   0  0  0  0  0  0  0  0  0  0  0  0
   38.0740   34.0190   39.9440 C   0  0  0  0  0  0  0  0  0  0  0  0
   39.4460   34.1610   40.1930 C   0  0  0  0  0  0  0  0  0  0  0  0
   40.1760   33.0610   40.6680 C   0  0  0  0  0  0  0  0  0  0  0  0
   39.4860   31.8860   40.8660 N   0  0  0  0  0  0  0  0  0  0  0  0
   38.1660   31.7870   40.6160 C   0  0  0  0  0  0  0  0  0  0  0  0
   37.4540   32.8400   40.1570 N   0  0  0  0  0  0  0  0  0  0  0  0
   37.4650   34.8370   39.5770 H   0  0  0  0  0  0  0  0  0  0  0  0
   39.9120   35.1260   40.0090 H   0  0  0  0  0  0  0  0  0  0  0  0
   41.2190   33.1480   40.8630 H   0  0  0  0  0  0  0  0  0  0  0  0
   38.2450   27.2540   42.2420 C   0  0  0  0  0  0  0  0  0  0  0  0
   37.9740   25.9270   41.9670 C   0  0  0  0  0  3  0  0  0  0  0  0
   38.6860   24.8920   42.5440 C   0  0  0  0  0  0  0  0  0  0  0  0
   38.4750   23.8450   42.3290 H   0  0  0  0  0  0  0  0  0  0  0  0
   39.6830   25.1510   43.4080 N   0  0  0  0  0  0  0  0  0  0  0  0
   39.9510   26.4620   43.6790 C   0  0  0  0  0  3  0  0  0  0  0  0
   39.2520   27.4610   43.1110 N   0  0  0  0  0  0  0  0  0  0  0  0
  1  6  1  0  0  0  0
  2  3  1  0  0  0  0
  2  1  2  0  0  0  0
  3  4  2  0  0  0  0
  4  5  1  0  0  0  0
  5 18  1  0  0  0  0
  6  5  2  0  0  0  0
  7  2  1  0  0  0  0
  8  3  1  0  0  0  0
  9 14  2  0  0  0  0
  9 10  1  0  0  0  0
 10 11  2  0  0  0  0
 11 17  1  0  0  0  0
 11 12  1  0  0  0  0
 13  1  1  0  0  0  0
 13 12  2  0  0  0  0
 14 13  1  0  0  0  0
 15  9  1  0  0  0  0
 16 10  1  0  0  0  0
 18 24  1  0  0  0  0
 19 18  2  0  0  0  0
 19 20  1  0  0  0  0
 20 22  2  0  0  0  0
 21 20  1  0  0  0  0
 22 23  1  0  0  0  0
 24 23  2  0  0  0  0
M  END
>  <minimizedAffinity>
-4.91924

$$$$

 OpenBabel03242521203D

 24 26  0  0  0  0  0  0  0  0999 V2000
   38.0430   31.1970   41.0310 C   0  0  0  0  0  0  0  0  0  0  0  0
   37.1650   32.0250   40.3940 C   0  0  0  0  0  0  0  0  0  0  0  0
   37.5430   33.1890   39.7650 C   0  0  0  0  0  0  0  0  0  0  0  0
   38.8650   33.4970   39.8000 N   0  0  0  0  0  0  0  0  0  0  0  0
   39.7290   32.6890   40.4200 C   0  0  0  0  0  0  0  0  0  0  0  0
   39.3610   31.5420   41.0410 N   0  0  0  0  0  0  0  0  0  0  0  0
   36.1450   31.7310   40.4010 H   0  0  0  0  0  0  0  0  0  0  0  0
   36.8460   33.8470   39.2610 H   0  0  0  0  0  0  0  0  0  0  0  0
   36.2510   28.0830   41.6960 C   0  0  0  0  0  0  0  0  0  0  0  0
   36.8140   27.6660   42.9090 C   0  0  0  0  0  0  0  0  0  0  0  0
   37.8130   28.4490   43.5090 C   0  0  0  0  0  0  0  0  0  0  0  0
   38.1860   29.6020   42.8550 N   0  0  0  0  0  0  0  0  0  0  0  0
   37.6200   29.9710   41.6880 C   0  0  0  0  0  0  0  0  0  0  0  0
   36.6580   29.2260   41.1040 N   0  0  0  0  0  0  0  0  0  0  0  0
   35.4770   27.5160   41.1930 H   0  0  0  0  0  0  0  0  0  0  0  0
   36.4610   26.7410   43.3580 H   0  0  0  0  0  0  0  0  0  0  0  0
   38.2540   28.1500   44.4300 H   0  0  0  0  0  0  0  0  0  0  0  0
   41.1560   33.0070   40.4660 C   0  0  0  0  0  0  0  0  0  0  0  0
   41.7560   33.7490   39.4680 C   0  0  0  0  0  3  0  0  0  0  0  0
   43.1010   34.0640   39.4870 C   0  0  0  0  0  0  0  0  0  0  0  0
   43.5770   34.6500   38.7010 H   0  0  0  0  0  0  0  0  0  0  0  0
   43.8830   33.6490   40.4990 N   0  0  0  0  0  0  0  0  0  0  0  0
   43.2900   32.9150   41.4860 C   0  0  0  0  0  3  0  0  0  0  0  0
   41.9790   32.6150   41.4570 N   0  0  0  0  0  0  0  0  0  0  0  0
  1  6  1  0  0  0  0
  1 13  1  0  0  0  0
  2  7  1  0  0  0  0
  2  1  2  0  0  0  0
  3  4  2  0  0  0  0
  3  2  1  0  0  0  0
  4  5  1  0  0  0  0
  5 18  1  0  0  0  0
  5  6  2  0  0  0  0
  8  3  1  0  0  0  0
  9 10  1  0  0  0  0
 10 16  1  0  0  0  0
 10 11  2  0  0  0  0
 11 17  1  0  0  0  0
 12 11  1  0  0  0  0
 13 12  2  0  0  0  0
 14 13  1  0  0  0  0
 14  9  2  0  0  0  0
 15  9  1  0  0  0  0
 18 24  1  0  0  0  0
 19 20  1  0  0  0  0
 19 18  2  0  0  0  0
 20 22  2  0  0  0  0
 21 20  1  0  0  0  0
 22 23  1  0  0  0  0
 24 23  2  0  0  0  0
M  END
>  <minimizedAffinity>
-4.74185419

$$$$

 OpenBabel03242521203D

 24 26  0  0  0  0  0  0  0  0999 V2000
   37.2100   27.1180   41.4980 C   0  0  0  0  0  0  0  0  0  0  0  0
   37.3190   27.0060   42.8540 C   0  0  0  0  0  0  0  0  0  0  0  0
   37.6060   28.0680   43.6800 C   0  0  0  0  0  0  0  0  0  0  0  0
   37.7840   29.2740   43.0810 N   0  0  0  0  0  0  0  0  0  0  0  0
   37.6780   29.3890   41.7550 C   0  0  0  0  0  0  0  0  0  0  0  0
   37.3950   28.3450   40.9370 N   0  0  0  0  0  0  0  0  0  0  0  0
   37.1700   26.0390   43.2640 H   0  0  0  0  0  0  0  0  0  0  0  0
   37.6940   27.9790   44.7560 H   0  0  0  0  0  0  0  0  0  0  0  0
   36.7550   23.6680   40.3840 C   0  0  0  0  0  0  0  0  0  0  0  0
   36.3370   23.8350   39.0570 C   0  0  0  0  0  0  0  0  0  0  0  0
   36.2080   25.1300   38.5340 C   0  0  0  0  0  0  0  0  0  0  0  0
   36.5060   26.1810   39.3730 N   0  0  0  0  0  0  0  0  0  0  0  0
   36.9050   25.9810   40.6450 C   0  0  0  0  0  0  0  0  0  0  0  0
   37.0330   24.7390   41.1580 N   0  0  0  0  0  0  0  0  0  0  0  0
   36.8700   22.6900   40.8360 H   0  0  0  0  0  0  0  0  0  0  0  0
   36.1220   22.9490   38.4630 H   0  0  0  0  0  0  0  0  0  0  0  0
   35.8920   25.2780   37.5280 H   0  0  0  0  0  0  0  0  0  0  0  0
   37.8670   30.6800   41.0950 C   0  0  0  0  0  0  0  0  0  0  0  0
   36.9450   31.1600   40.1840 C   0  0  0  0  0  3  0  0  0  0  0  0
   37.0980   32.3760   39.5470 C   0  0  0  0  0  0  0  0  0  0  0  0
   36.3720   32.7570   38.8280 H   0  0  0  0  0  0  0  0  0  0  0  0
   38.1710   33.1460   39.7980 N   0  0  0  0  0  0  0  0  0  0  0  0
   39.0830   32.6720   40.6980 C   0  0  0  0  0  3  0  0  0  0  0  0
   38.9230   31.4870   41.3130 N   0  0  0  0  0  0  0  0  0  0  0  0
  1  2  1  0  0  0  0
  2  7  1  0  0  0  0
  2  3  2  0  0  0  0
  3  8  1  0  0  0  0
  4  3  1  0  0  0  0
  5  4  2  0  0  0  0
  6  1  2  0  0  0  0
  6  5  1  0  0  0  0
  9 15  1  0  0  0  0
  9 14  1  0  0  0  0
 10  9  2  0  0  0  0
 11 10  1  0  0  0  0
 11 12  2  0  0  0  0
 12 13  1  0  0  0  0
 13 14  2  0  0  0  0
 13  1  1  0  0  0  0
 16 10  1  0  0  0  0
 17 11  1  0  0  0  0
 18 24  1  0  0  0  0
 18  5  1  0  0  0  0
 19 18  2  0  0  0  0
 20 22  2  0  0  0  0
 20 19  1  0  0  0  0
 21 20  1  0  0  0  0
 22 23  1  0  0  0  0
 23 24  2  0  0  0  0
M  END
>  <minimizedAffinity>
-4.67878532

$$$$

 OpenBabel03242521203D

 24 26  0  0  0  0  0  0  0  0999 V2000
   37.8470   30.4450   40.6300 C   0  0  0  0  0  0  0  0  0  0  0  0
   37.0110   31.5230   40.5980 C   0  0  0  0  0  0  0  0  0  0  0  0
   37.2360   32.6320   39.8160 C   0  0  0  0  0  0  0  0  0  0  0  0
   38.3570   32.6190   39.0500 N   0  0  0  0  0  0  0  0  0  0  0  0
   39.1780   31.5670   39.0760 C   0  0  0  0  0  0  0  0  0  0  0  0
   38.9610   30.4710   39.8450 N   0  0  0  0  0  0  0  0  0  0  0  0
   36.1510   31.4740   41.2190 H   0  0  0  0  0  0  0  0  0  0  0  0
   36.5720   33.4880   39.7920 H   0  0  0  0  0  0  0  0  0  0  0  0
   37.4410   28.3550   43.5990 C   0  0  0  0  0  0  0  0  0  0  0  0
   37.1070   27.1110   43.0460 C   0  0  0  0  0  0  0  0  0  0  0  0
   37.0200   26.9790   41.6520 C   0  0  0  0  0  0  0  0  0  0  0  0
   37.2720   28.1020   40.8960 N   0  0  0  0  0  0  0  0  0  0  0  0
   37.5890   29.2830   41.4640 C   0  0  0  0  0  0  0  0  0  0  0  0
   37.6770   29.4200   42.8040 N   0  0  0  0  0  0  0  0  0  0  0  0
   37.5210   28.5100   44.6680 H   0  0  0  0  0  0  0  0  0  0  0  0
   36.9240   26.2740   43.7170 H   0  0  0  0  0  0  0  0  0  0  0  0
   36.7680   26.0430   41.2120 H   0  0  0  0  0  0  0  0  0  0  0  0
   40.3890   31.5380   38.2580 C   0  0  0  0  0  0  0  0  0  0  0  0
   40.8940   30.3480   37.7690 C   0  0  0  0  0  3  0  0  0  0  0  0
   42.0350   30.2920   36.9930 C   0  0  0  0  0  0  0  0  0  0  0  0
   42.4360   29.3540   36.6060 H   0  0  0  0  0  0  0  0  0  0  0  0
   42.7040   31.4160   36.6830 N   0  0  0  0  0  0  0  0  0  0  0  0
   42.2060   32.5930   37.1660 C   0  0  0  0  0  3  0  0  0  0  0  0
   41.0930   32.6350   37.9200 N   0  0  0  0  0  0  0  0  0  0  0  0
  1 13  1  0  0  0  0
  2  1  1  0  0  0  0
  2  7  1  0  0  0  0
  3  2  2  0  0  0  0
  4  5  2  0  0  0  0
  4  3  1  0  0  0  0
  5  6  1  0  0  0  0
  6  1  2  0  0  0  0
  8  3  1  0  0  0  0
  9 15  1  0  0  0  0
 10  9  1  0  0  0  0
 10 16  1  0  0  0  0
 11 10  2  0  0  0  0
 12 13  2  0  0  0  0
 12 11  1  0  0  0  0
 13 14  1  0  0  0  0
 14  9  2  0  0  0  0
 17 11  1  0  0  0  0
 18  5  1  0  0  0  0
 19 18  2  0  0  0  0
 20 19  1  0  0  0  0
 21 20  1  0  0  0  0
 22 20  2  0  0  0  0
 22 23  1  0  0  0  0
 23 24  2  0  0  0  0
 24 18  1  0  0  0  0
M  END
>  <minimizedAffinity>
-4.61947298

$$$$

 OpenBabel03242521203D

 24 26  0  0  0  0  0  0  0  0999 V2000
   36.6110   27.8870   39.4470 C   0  0  0  0  0  0  0  0  0  0  0  0
   35.9520   27.9130   38.2520 C   0  0  0  0  0  0  0  0  0  0  0  0
   35.8080   29.0500   37.4920 C   0  0  0  0  0  0  0  0  0  0  0  0
   36.3610   30.1870   37.9880 N   0  0  0  0  0  0  0  0  0  0  0  0
   37.0070   30.1680   39.1560 C   0  0  0  0  0  0  0  0  0  0  0  0
   37.1520   29.0490   39.9080 N   0  0  0  0  0  0  0  0  0  0  0  0
   35.5420   26.9930   37.9170 H   0  0  0  0  0  0  0  0  0  0  0  0
   35.2850   29.0700   36.5440 H   0  0  0  0  0  0  0  0  0  0  0  0
   37.3540   25.6590   42.2450 C   0  0  0  0  0  0  0  0  0  0  0  0
   37.0220   24.4020   41.7240 C   0  0  0  0  0  0  0  0  0  0  0  0
   36.5400   24.3080   40.4100 C   0  0  0  0  0  0  0  0  0  0  0  0
   36.4210   25.4800   39.6970 N   0  0  0  0  0  0  0  0  0  0  0  0
   36.7510   26.6730   40.2330 C   0  0  0  0  0  0  0  0  0  0  0  0
   37.2160   26.7740   41.4970 N   0  0  0  0  0  0  0  0  0  0  0  0
   37.7300   25.7860   43.2540 H   0  0  0  0  0  0  0  0  0  0  0  0
   37.1460   23.5250   42.3560 H   0  0  0  0  0  0  0  0  0  0  0  0
   36.2810   23.3620   39.9950 H   0  0  0  0  0  0  0  0  0  0  0  0
   37.6080   31.3830   39.7030 C   0  0  0  0  0  0  0  0  0  0  0  0
   37.1870   32.6350   39.2980 C   0  0  0  0  0  3  0  0  0  0  0  0
   37.7360   33.7990   39.7990 C   0  0  0  0  0  0  0  0  0  0  0  0
   37.4060   34.7880   39.4810 H   0  0  0  0  0  0  0  0  0  0  0  0
   38.7190   33.7480   40.7160 N   0  0  0  0  0  0  0  0  0  0  0  0
   39.1360   32.5110   41.1170 C   0  0  0  0  0  3  0  0  0  0  0  0
   38.5920   31.3850   40.6220 N   0  0  0  0  0  0  0  0  0  0  0  0
  1  6  1  0  0  0  0
  1 13  1  0  0  0  0
  2  1  2  0  0  0  0
  3  4  2  0  0  0  0
  3  2  1  0  0  0  0
  4  5  1  0  0  0  0
  5 18  1  0  0  0  0
  5  6  2  0  0  0  0
  7  2  1  0  0  0  0
  8  3  1  0  0  0  0
  9 15  1  0  0  0  0
 10  9  1  0  0  0  0
 10 16  1  0  0  0  0
 11 10  2  0  0  0  0
 12 13  2  0  0  0  0
 12 11  1  0  0  0  0
 13 14  1  0  0  0  0
 14  9  2  0  0  0  0
 17 11  1  0  0  0  0
 18 24  1  0  0  0  0
 19 18  2  0  0  0  0
 19 20  1  0  0  0  0
 20 22  2  0  0  0  0
 21 20  1  0  0  0  0
 22 23  1  0  0  0  0
 24 23  2  0  0  0  0
M  END
>  <minimizedAffinity>
-4.58355665

$$$$

 OpenBabel03242521203D

 24 26  0  0  0  0  0  0  0  0999 V2000
   37.4390   29.1360   41.3370 C   0  0  0  0  0  0  0  0  0  0  0  0
   37.5980   29.2540   42.6870 C   0  0  0  0  0  0  0  0  0  0  0  0
   37.6540   28.1750   43.5380 C   0  0  0  0  0  0  0  0  0  0  0  0
   37.5420   26.9460   42.9720 N   0  0  0  0  0  0  0  0  0  0  0  0
   37.3880   26.8250   41.6510 C   0  0  0  0  0  0  0  0  0  0  0  0
   37.3320   27.8860   40.8080 N   0  0  0  0  0  0  0  0  0  0  0  0
   37.6800   30.2400   43.0710 H   0  0  0  0  0  0  0  0  0  0  0  0
   37.7790   28.2680   44.6100 H   0  0  0  0  0  0  0  0  0  0  0  0
   37.6290   32.5930   40.1680 C   0  0  0  0  0  0  0  0  0  0  0  0
   37.2840   32.4710   38.8150 C   0  0  0  0  0  0  0  0  0  0  0  0
   36.9830   31.2040   38.2930 C   0  0  0  0  0  0  0  0  0  0  0  0
   37.0470   30.1350   39.1590 N   0  0  0  0  0  0  0  0  0  0  0  0
   37.3830   30.2910   40.4550 C   0  0  0  0  0  0  0  0  0  0  0  0
   37.6730   31.5060   40.9680 N   0  0  0  0  0  0  0  0  0  0  0  0
   37.8690   33.5480   40.6200 H   0  0  0  0  0  0  0  0  0  0  0  0
   37.2570   33.3680   38.2010 H   0  0  0  0  0  0  0  0  0  0  0  0
   36.7190   31.0900   37.2690 H   0  0  0  0  0  0  0  0  0  0  0  0
   37.2650   25.5090   41.0250 C   0  0  0  0  0  0  0  0  0  0  0  0
   36.5730   25.3410   39.8420 C   0  0  0  0  0  3  0  0  0  0  0  0
   36.4430   24.1100   39.2290 C   0  0  0  0  0  0  0  0  0  0  0  0
   35.8970   23.9750   38.2950 H   0  0  0  0  0  0  0  0  0  0  0  0
   36.9970   23.0150   39.7770 N   0  0  0  0  0  0  0  0  0  0  0  0
   37.6820   23.1800   40.9470 C   0  0  0  0  0  3  0  0  0  0  0  0
   37.8030   24.3840   41.5340 N   0  0  0  0  0  0  0  0  0  0  0  0
  1  2  1  0  0  0  0
  2  7  1  0  0  0  0
  2  3  2  0  0  0  0
  3  8  1  0  0  0  0
  4  3  1  0  0  0  0
  5  4  2  0  0  0  0
  6  1  2  0  0  0  0
  6  5  1  0  0  0  0
  9 15  1  0  0  0  0
  9 14  1  0  0  0  0
 10  9  2  0  0  0  0
 11 10  1  0  0  0  0
 11 12  2  0  0  0  0
 12 13  1  0  0  0  0
 13 14  2  0  0  0  0
 13  1  1  0  0  0  0
 16 10  1  0  0  0  0
 17 11  1  0  0  0  0
 18 24  1  0  0  0  0
 18  5  1  0  0  0  0
 19 18  2  0  0  0  0
 20 22  2  0  0  0  0
 20 19  1  0  0  0  0
 21 20  1  0  0  0  0
 22 23  1  0  0  0  0
 23 24  2  0  0  0  0
M  END
>  <minimizedAffinity>
-4.55781126

$$$$

 OpenBabel03242521203D

 24 26  0  0  0  0  0  0  0  0999 V2000
   38.3860   30.1800   41.4660 C   0  0  0  0  0  0  0  0  0  0  0  0
   38.7980   29.8260   42.7180 C   0  0  0  0  0  0  0  0  0  0  0  0
   38.6630   28.5550   43.2260 C   0  0  0  0  0  0  0  0  0  0  0  0
   38.0850   27.6330   42.4140 N   0  0  0  0  0  0  0  0  0  0  0  0
   37.6810   27.9740   41.1890 C   0  0  0  0  0  0  0  0  0  0  0  0
   37.8120   29.2250   40.6830 N   0  0  0  0  0  0  0  0  0  0  0  0
   39.2420   30.5900   43.3050 H   0  0  0  0  0  0  0  0  0  0  0  0
   38.9900   28.2740   44.2200 H   0  0  0  0  0  0  0  0  0  0  0  0
   39.9180   33.3710   40.5610 C   0  0  0  0  0  0  0  0  0  0  0  0
   38.8460   34.0650   39.9820 C   0  0  0  0  0  0  0  0  0  0  0  0
   37.5910   33.4440   39.8980 C   0  0  0  0  0  0  0  0  0  0  0  0
   37.4850   32.1660   40.3990 N   0  0  0  0  0  0  0  0  0  0  0  0
   38.5390   31.5300   40.9490 C   0  0  0  0  0  0  0  0  0  0  0  0
   39.7520   32.1190   41.0350 N   0  0  0  0  0  0  0  0  0  0  0  0
   40.9070   33.8050   40.6500 H   0  0  0  0  0  0  0  0  0  0  0  0
   39.0170   35.0730   39.6110 H   0  0  0  0  0  0  0  0  0  0  0  0
   36.7640   33.9540   39.4620 H   0  0  0  0  0  0  0  0  0  0  0  0
   37.0570   26.9920   40.3020 C   0  0  0  0  0  0  0  0  0  0  0  0
   36.9900   25.6570   40.6480 C   0  0  0  0  0  3  0  0  0  0  0  0
   36.4050   24.7090   39.8300 C   0  0  0  0  0  0  0  0  0  0  0  0
   36.3510   23.6550   40.1000 H   0  0  0  0  0  0  0  0  0  0  0  0
   35.8740   25.0650   38.6470 N   0  0  0  0  0  0  0  0  0  0  0  0
   35.9400   26.3860   38.3050 C   0  0  0  0  0  3  0  0  0  0  0  0
   36.5110   27.3000   39.1100 N   0  0  0  0  0  0  0  0  0  0  0  0
  1  2  1  0  0  0  0
  2  3  2  0  0  0  0
  2  7  1  0  0  0  0
  3  8  1  0  0  0  0
  4  3  1  0  0  0  0
  5  4  2  0  0  0  0
  6  5  1  0  0  0  0
  6  1  2  0  0  0  0
  9 15  1  0  0  0  0
  9 14  1  0  0  0  0
 10  9  2  0  0  0  0
 11 10  1  0  0  0  0
 11 12  2  0  0  0  0
 12 13  1  0  0  0  0
 13 14  2  0  0  0  0
 13  1  1  0  0  0  0
 16 10  1  0  0  0  0
 17 11  1  0  0  0  0
 18 19  1  0  0  0  0
 18  5  1  0  0  0  0
 20 21  1  0  0  0  0
 20 19  2  0  0  0  0
 22 20  1  0  0  0  0
 23 22  2  0  0  0  0
 23 24  1  0  0  0  0
 24 18  2  0  0  0  0
M  END
>  <minimizedAffinity>
-4.44504309

$$$$

 OpenBabel03242521203D

 24 26  0  0  0  0  0  0  0  0999 V2000
   38.3420   25.6860   41.8330 C   0  0  0  0  0  0  0  0  0  0  0  0
   39.1490   25.5760   42.9290 C   0  0  0  0  0  0  0  0  0  0  0  0
   39.6020   26.6590   43.6460 C   0  0  0  0  0  0  0  0  0  0  0  0
   39.2060   27.8830   43.2130 N   0  0  0  0  0  0  0  0  0  0  0  0
   38.4160   27.9970   42.1430 C   0  0  0  0  0  0  0  0  0  0  0  0
   37.9680   26.9320   41.4330 N   0  0  0  0  0  0  0  0  0  0  0  0
   39.4240   24.5930   43.2180 H   0  0  0  0  0  0  0  0  0  0  0  0
   40.2430   26.5710   44.5150 H   0  0  0  0  0  0  0  0  0  0  0  0
   38.3180   22.4120   40.2110 C   0  0  0  0  0  0  0  0  0  0  0  0
   37.0160   22.3410   39.6980 C   0  0  0  0  0  0  0  0  0  0  0  0
   36.1360   23.4150   39.9050 C   0  0  0  0  0  0  0  0  0  0  0  0
   36.6150   24.4940   40.6130 N   0  0  0  0  0  0  0  0  0  0  0  0
   37.8750   24.5260   41.0910 C   0  0  0  0  0  0  0  0  0  0  0  0
   38.7300   23.4990   40.8970 N   0  0  0  0  0  0  0  0  0  0  0  0
   39.0360   21.6110   40.0790 H   0  0  0  0  0  0  0  0  0  0  0  0
   36.7180   21.4500   39.1500 H   0  0  0  0  0  0  0  0  0  0  0  0
   35.1430   23.3800   39.5240 H   0  0  0  0  0  0  0  0  0  0  0  0
   37.9810   29.3080   41.6640 C   0  0  0  0  0  0  0  0  0  0  0  0
   38.8960   30.2990   41.3630 C   0  0  0  0  0  3  0  0  0  0  0  0
   38.5130   31.5460   40.9080 C   0  0  0  0  0  0  0  0  0  0  0  0
   39.2320   32.3300   40.6710 H   0  0  0  0  0  0  0  0  0  0  0  0
   37.2120   31.8400   40.7410 N   0  0  0  0  0  0  0  0  0  0  0  0
   36.3070   30.8600   41.0380 C   0  0  0  0  0  3  0  0  0  0  0  0
   36.6920   29.6500   41.4800 N   0  0  0  0  0  0  0  0  0  0  0  0
  1  2  1  0  0  0  0
  2  7  1  0  0  0  0
  2  3  2  0  0  0  0
  3  8  1  0  0  0  0
  4  3  1  0  0  0  0
  5  4  2  0  0  0  0
  6  1  2  0  0  0  0
  6  5  1  0  0  0  0
  9 14  1  0  0  0  0
 10 11  1  0  0  0  0
 10  9  2  0  0  0  0
 11 12  2  0  0  0  0
 12 13  1  0  0  0  0
 13  1  1  0  0  0  0
 14 13  2  0  0  0  0
 15  9  1  0  0  0  0
 16 10  1  0  0  0  0
 17 11  1  0  0  0  0
 18  5  1  0  0  0  0
 19 18  2  0  0  0  0
 20 19  1  0  0  0  0
 21 20  1  0  0  0  0
 22 20  2  0  0  0  0
 22 23  1  0  0  0  0
 23 24  2  0  0  0  0
 24 18  1  0  0  0  0
M  END
>  <minimizedAffinity>
-4.43415785

$$$$
