
 OpenBabel03242515223D

 37 39  0  0  0  0  0  0  0  0999 V2000
   36.8220   29.7550   38.0750 C   0  0  0  0  0  0  0  0  0  0  0  0
   36.3080   30.2890   37.2810 H   0  0  0  0  0  0  0  0  0  0  0  0
   37.1280   28.7300   37.7540 H   0  0  0  0  0  0  0  0  0  0  0  0
   40.3080   30.6990   38.9900 C   0  0  0  0  0  0  0  0  0  0  0  0
   40.1080   32.0140   39.5050 C   0  0  0  0  0  0  0  0  0  0  0  0
   38.8290   32.4740   39.5060 C   0  0  0  0  0  0  0  0  0  0  0  0
   37.8600   31.6640   39.0260 N   0  0  0  0  0  0  0  0  0  0  0  0
   38.0440   30.4410   38.5460 C   0  0  0  0  0  0  0  0  0  0  0  0
   39.2850   29.9700   38.5350 N   0  0  0  0  0  0  0  0  0  0  0  0
   41.1940   30.1290   38.8810 H   0  0  0  0  0  0  0  0  0  0  0  0
   41.3330   32.6880   39.9400 C   0  0  0  0  0  0  0  0  0  0  0  0
   42.1920   33.2410   39.0200 C   0  0  0  0  0  3  0  0  0  0  0  0
   43.3730   33.8840   39.3060 C   0  0  0  0  0  0  0  0  0  0  0  0
   44.0590   34.3210   38.6050 H   0  0  0  0  0  0  0  0  0  0  0  0
   43.7420   33.9930   40.6060 N   0  0  0  0  0  0  0  0  0  0  0  0
   42.9100   33.4540   41.5380 C   0  0  0  0  0  3  0  0  0  0  0  0
   41.7920   32.8540   41.1660 N   0  0  0  0  0  0  0  0  0  0  0  0
   38.6090   33.8190   40.0330 C   0  0  0  0  0  0  0  0  0  0  0  0
   38.7240   33.8020   41.4380 F   0  0  0  0  0  0  0  0  0  0  0  0
   37.2490   34.1000   39.8420 F   0  0  0  0  0  0  0  0  0  0  0  0
   39.4440   34.7520   39.5320 F   0  0  0  0  0  0  0  0  0  0  0  0
   35.8110   29.5660   39.1870 C   0  0  0  0  0  0  0  0  0  0  0  0
   34.8890   29.1470   38.7230 H   0  0  0  0  0  0  0  0  0  0  0  0
   35.4910   30.5290   39.6420 H   0  0  0  0  0  0  0  0  0  0  0  0
   36.2680   28.6050   40.1900 C   0  0  0  0  0  0  0  0  0  0  0  0
   36.6200   27.2900   40.0360 C   0  0  0  0  0  0  0  0  0  0  0  0
   36.9760   26.8220   41.2730 C   0  0  0  0  0  0  0  0  0  0  0  0
   36.8470   27.8160   42.1460 N   0  0  0  0  0  0  0  0  0  0  0  0
   36.4200   28.8810   41.4790 N   0  0  0  0  0  0  0  0  0  0  0  0
   36.6040   26.7500   39.0860 H   0  0  0  0  0  0  0  0  0  0  0  0
   37.1120   27.7960   43.5930 C   0  0  0  0  0  0  0  0  0  0  0  0
   38.2940   27.0930   43.8540 F   0  0  0  0  0  0  0  0  0  0  0  0
   36.0290   27.2620   44.2490 F   0  0  0  0  0  0  0  0  0  0  0  0
   37.3020   29.1000   44.0110 F   0  0  0  0  0  0  0  0  0  0  0  0
   37.4170   25.4660   41.5670 C   0  0  0  0  0  0  0  0  0  0  0  0
   36.7000   24.6110   42.1630 O   0  0  0  0  0  0  0  0  0  0  0  0
   38.3230   24.9150   41.3880 H   0  0  0  0  0  0  0  0  0  0  0  0
  1  8  1  0  0  0  0
  1 22  1  0  0  0  0
  2  1  1  0  0  0  0
  3  1  1  0  0  0  0
  4  5  1  0  0  0  0
  5  6  2  0  0  0  0
  5 11  1  0  0  0  0
  6 18  1  0  0  0  0
  7  6  1  0  0  0  0
  8  7  2  0  0  0  0
  9  8  1  0  0  0  0
  9  4  2  0  0  0  0
 10  4  1  0  0  0  0
 11 17  1  0  0  0  0
 12 13  1  0  0  0  0
 12 11  2  0  0  0  0
 13 15  2  0  0  0  0
 14 13  1  0  0  0  0
 15 16  1  0  0  0  0
 17 16  2  0  0  0  0
 18 19  1  0  0  0  0
 20 18  1  0  0  0  0
 21 18  1  0  0  0  0
 22 24  1  0  0  0  0
 22 25  1  0  0  0  0
 23 22  1  0  0  0  0
 25 29  2  0  0  0  0
 26 25  1  0  0  0  0
 26 27  2  0  0  0  0
 27 35  1  0  0  0  0
 27 28  1  0  0  0  0
 28 31  1  0  0  0  0
 29 28  1  0  0  0  0
 30 26  1  0  0  0  0
 31 32  1  0  0  0  0
 31 34  1  0  0  0  0
 31 33  1  0  0  0  0
 35 36  2  0  0  0  0
 37 35  1  0  0  0  0
M  END
>  <minimizedAffinity>
-6.23480129

$$$$

 OpenBabel03242515223D

 37 39  0  0  0  0  0  0  0  0999 V2000
   36.7790   31.5400   40.5580 C   0  0  0  0  0  0  0  0  0  0  0  0
   35.7530   31.8150   40.7830 H   0  0  0  0  0  0  0  0  0  0  0  0
   37.4990   32.0050   41.2750 H   0  0  0  0  0  0  0  0  0  0  0  0
   37.4460   27.9680   39.7340 C   0  0  0  0  0  0  0  0  0  0  0  0
   37.4300   27.3820   41.0350 C   0  0  0  0  0  0  0  0  0  0  0  0
   37.1950   28.2250   42.0740 C   0  0  0  0  0  0  0  0  0  0  0  0
   37.0010   29.5330   41.8030 N   0  0  0  0  0  0  0  0  0  0  0  0
   37.0160   30.0810   40.5950 C   0  0  0  0  0  0  0  0  0  0  0  0
   37.2420   29.2780   39.5630 N   0  0  0  0  0  0  0  0  0  0  0  0
   37.6070   27.5320   38.7830 H   0  0  0  0  0  0  0  0  0  0  0  0
   37.6940   25.9420   41.0530 C   0  0  0  0  0  0  0  0  0  0  0  0
   36.6910   25.0420   40.7810 C   0  0  0  0  0  3  0  0  0  0  0  0
   36.8160   23.6730   40.7820 C   0  0  0  0  0  0  0  0  0  0  0  0
   36.0470   22.9530   40.5750 H   0  0  0  0  0  0  0  0  0  0  0  0
   38.0280   23.1420   41.0750 N   0  0  0  0  0  0  0  0  0  0  0  0
   39.0400   24.0100   41.3480 C   0  0  0  0  0  3  0  0  0  0  0  0
   38.8240   25.3140   41.3220 N   0  0  0  0  0  0  0  0  0  0  0  0
   37.1740   27.6360   43.4120 C   0  0  0  0  0  0  0  0  0  0  0  0
   36.9990   28.6520   44.3740 F   0  0  0  0  0  0  0  0  0  0  0  0
   38.4780   27.1930   43.6690 F   0  0  0  0  0  0  0  0  0  0  0  0
   36.2240   26.6940   43.5860 F   0  0  0  0  0  0  0  0  0  0  0  0
   37.0920   32.1340   39.2000 C   0  0  0  0  0  0  0  0  0  0  0  0
   36.5400   33.0990   39.1310 H   0  0  0  0  0  0  0  0  0  0  0  0
   36.6980   31.5170   38.3630 H   0  0  0  0  0  0  0  0  0  0  0  0
   38.5150   32.4350   39.0450 C   0  0  0  0  0  0  0  0  0  0  0  0
   39.4290   31.8900   38.1820 C   0  0  0  0  0  0  0  0  0  0  0  0
   40.6280   32.5050   38.4270 C   0  0  0  0  0  0  0  0  0  0  0  0
   40.4490   33.3910   39.4000 N   0  0  0  0  0  0  0  0  0  0  0  0
   39.1730   33.3370   39.7620 N   0  0  0  0  0  0  0  0  0  0  0  0
   39.2040   31.1110   37.4500 H   0  0  0  0  0  0  0  0  0  0  0  0
   41.4430   34.2910   40.0060 C   0  0  0  0  0  0  0  0  0  0  0  0
   42.5060   33.5460   40.5320 F   0  0  0  0  0  0  0  0  0  0  0  0
   40.8320   35.0740   40.9560 F   0  0  0  0  0  0  0  0  0  0  0  0
   41.9550   35.0990   39.0080 F   0  0  0  0  0  0  0  0  0  0  0  0
   41.8770   32.2260   37.7310 C   0  0  0  0  0  0  0  0  0  0  0  0
   41.9490   31.5390   36.6720 O   0  0  0  0  0  0  0  0  0  0  0  0
   42.9060   32.4860   37.9020 H   0  0  0  0  0  0  0  0  0  0  0  0
  1  8  1  0  0  0  0
  1  2  1  0  0  0  0
  1  3  1  0  0  0  0
  4  5  1  0  0  0  0
  5 11  1  0  0  0  0
  5  6  2  0  0  0  0
  6 18  1  0  0  0  0
  7  6  1  0  0  0  0
  8  7  2  0  0  0  0
  9  4  2  0  0  0  0
  9  8  1  0  0  0  0
 10  4  1  0  0  0  0
 11 17  1  0  0  0  0
 12 13  1  0  0  0  0
 12 11  2  0  0  0  0
 13 15  2  0  0  0  0
 14 13  1  0  0  0  0
 15 16  1  0  0  0  0
 17 16  2  0  0  0  0
 18 21  1  0  0  0  0
 18 20  1  0  0  0  0
 18 19  1  0  0  0  0
 22  1  1  0  0  0  0
 23 22  1  0  0  0  0
 24 22  1  0  0  0  0
 25 22  1  0  0  0  0
 25 29  2  0  0  0  0
 26 27  2  0  0  0  0
 26 25  1  0  0  0  0
 27 28  1  0  0  0  0
 28 29  1  0  0  0  0
 28 31  1  0  0  0  0
 30 26  1  0  0  0  0
 31 32  1  0  0  0  0
 31 33  1  0  0  0  0
 34 31  1  0  0  0  0
 35 37  1  0  0  0  0
 35 27  1  0  0  0  0
 36 35  2  0  0  0  0
M  END
>  <minimizedAffinity>
-6.11345768

$$$$

 OpenBabel03242515223D

 37 39  0  0  0  0  0  0  0  0999 V2000
   36.7120   31.6530   40.5690 C   0  0  0  0  0  0  0  0  0  0  0  0
   35.6750   31.9400   40.7140 H   0  0  0  0  0  0  0  0  0  0  0  0
   37.3750   32.0850   41.3580 H   0  0  0  0  0  0  0  0  0  0  0  0
   37.2720   28.0780   39.6860 C   0  0  0  0  0  0  0  0  0  0  0  0
   37.3030   27.4800   40.9810 C   0  0  0  0  0  0  0  0  0  0  0  0
   37.1320   28.3170   42.0370 C   0  0  0  0  0  0  0  0  0  0  0  0
   36.9510   29.6320   41.7860 N   0  0  0  0  0  0  0  0  0  0  0  0
   36.9230   30.1900   40.5830 C   0  0  0  0  0  0  0  0  0  0  0  0
   37.0870   29.3930   39.5350 N   0  0  0  0  0  0  0  0  0  0  0  0
   37.3820   27.6470   38.7250 H   0  0  0  0  0  0  0  0  0  0  0  0
   37.5410   26.0340   40.9750 C   0  0  0  0  0  0  0  0  0  0  0  0
   36.6250   25.1760   40.4140 C   0  0  0  0  0  3  0  0  0  0  0  0
   36.7310   23.8070   40.3610 C   0  0  0  0  0  0  0  0  0  0  0  0
   36.0290   23.1190   39.9300 H   0  0  0  0  0  0  0  0  0  0  0  0
   37.8310   23.2310   40.9070 N   0  0  0  0  0  0  0  0  0  0  0  0
   38.7540   24.0570   41.4700 C   0  0  0  0  0  3  0  0  0  0  0  0
   38.5640   25.3650   41.4720 N   0  0  0  0  0  0  0  0  0  0  0  0
   37.1590   27.7170   43.3690 C   0  0  0  0  0  0  0  0  0  0  0  0
   36.9140   28.7090   44.3410 F   0  0  0  0  0  0  0  0  0  0  0  0
   38.4940   27.3690   43.6180 F   0  0  0  0  0  0  0  0  0  0  0  0
   36.2820   26.7060   43.5380 F   0  0  0  0  0  0  0  0  0  0  0  0
   37.1500   32.2790   39.2610 C   0  0  0  0  0  0  0  0  0  0  0  0
   36.6170   33.2530   39.1700 H   0  0  0  0  0  0  0  0  0  0  0  0
   36.8250   31.6900   38.3760 H   0  0  0  0  0  0  0  0  0  0  0  0
   38.5840   32.5660   39.2390 C   0  0  0  0  0  0  0  0  0  0  0  0
   39.3330   33.3170   40.1060 C   0  0  0  0  0  0  0  0  0  0  0  0
   40.6260   33.2800   39.6550 C   0  0  0  0  0  0  0  0  0  0  0  0
   40.6610   32.5340   38.5570 N   0  0  0  0  0  0  0  0  0  0  0  0
   39.4260   32.1120   38.3190 N   0  0  0  0  0  0  0  0  0  0  0  0
   38.9360   33.8340   40.9830 H   0  0  0  0  0  0  0  0  0  0  0  0
   41.8240   32.2050   37.7180 C   0  0  0  0  0  0  0  0  0  0  0  0
   41.4170   31.4480   36.6120 F   0  0  0  0  0  0  0  0  0  0  0  0
   42.7680   31.5560   38.4780 F   0  0  0  0  0  0  0  0  0  0  0  0
   42.3570   33.3880   37.2400 F   0  0  0  0  0  0  0  0  0  0  0  0
   41.7570   33.9500   40.2820 C   0  0  0  0  0  0  0  0  0  0  0  0
   41.6790   35.0840   40.8360 O   0  0  0  0  0  0  0  0  0  0  0  0
   42.7940   33.7020   40.4200 H   0  0  0  0  0  0  0  0  0  0  0  0
  1  8  1  0  0  0  0
  1  2  1  0  0  0  0
  1  3  1  0  0  0  0
  4  5  1  0  0  0  0
  5  6  2  0  0  0  0
  6 18  1  0  0  0  0
  7  6  1  0  0  0  0
  8  7  2  0  0  0  0
  9  4  2  0  0  0  0
  9  8  1  0  0  0  0
 10  4  1  0  0  0  0
 11  5  1  0  0  0  0
 11 17  1  0  0  0  0
 12 11  2  0  0  0  0
 13 12  1  0  0  0  0
 13 15  2  0  0  0  0
 14 13  1  0  0  0  0
 15 16  1  0  0  0  0
 16 17  2  0  0  0  0
 18 21  1  0  0  0  0
 18 20  1  0  0  0  0
 18 19  1  0  0  0  0
 22  1  1  0  0  0  0
 23 22  1  0  0  0  0
 24 22  1  0  0  0  0
 25 22  1  0  0  0  0
 25 26  1  0  0  0  0
 26 30  1  0  0  0  0
 27 26  2  0  0  0  0
 27 35  1  0  0  0  0
 28 27  1  0  0  0  0
 29 28  1  0  0  0  0
 29 25  2  0  0  0  0
 31 33  1  0  0  0  0
 31 28  1  0  0  0  0
 32 31  1  0  0  0  0
 34 31  1  0  0  0  0
 35 37  1  0  0  0  0
 35 36  2  0  0  0  0
M  END
>  <minimizedAffinity>
-5.99983311

$$$$

 OpenBabel03242515223D

 37 39  0  0  0  0  0  0  0  0999 V2000
   36.0380   29.6880   38.0880 C   0  0  0  0  0  0  0  0  0  0  0  0
   35.3940   30.1640   37.3540 H   0  0  0  0  0  0  0  0  0  0  0  0
   36.5310   28.7740   37.6760 H   0  0  0  0  0  0  0  0  0  0  0  0
   38.0560   32.3120   39.7980 C   0  0  0  0  0  0  0  0  0  0  0  0
   39.3600   32.0190   39.3020 C   0  0  0  0  0  0  0  0  0  0  0  0
   39.4570   30.9740   38.4380 C   0  0  0  0  0  0  0  0  0  0  0  0
   38.3290   30.3020   38.1210 N   0  0  0  0  0  0  0  0  0  0  0  0
   37.1140   30.5730   38.5830 C   0  0  0  0  0  0  0  0  0  0  0  0
   36.9940   31.5890   39.4270 N   0  0  0  0  0  0  0  0  0  0  0  0
   37.7260   33.0600   40.4720 H   0  0  0  0  0  0  0  0  0  0  0  0
   40.4170   32.8870   39.8240 C   0  0  0  0  0  0  0  0  0  0  0  0
   40.6100   34.1460   39.3060 C   0  0  0  0  0  3  0  0  0  0  0  0
   41.5730   35.0420   39.7030 C   0  0  0  0  0  0  0  0  0  0  0  0
   41.7420   36.0280   39.3120 H   0  0  0  0  0  0  0  0  0  0  0  0
   42.4200   34.6710   40.6950 N   0  0  0  0  0  0  0  0  0  0  0  0
   42.2520   33.4300   41.2270 C   0  0  0  0  0  3  0  0  0  0  0  0
   41.2940   32.6360   40.7780 N   0  0  0  0  0  0  0  0  0  0  0  0
   40.7870   30.6640   37.9200 C   0  0  0  0  0  0  0  0  0  0  0  0
   41.2390   31.7240   37.1070 F   0  0  0  0  0  0  0  0  0  0  0  0
   40.6190   29.6220   36.9980 F   0  0  0  0  0  0  0  0  0  0  0  0
   41.7080   30.4160   38.8750 F   0  0  0  0  0  0  0  0  0  0  0  0
   35.1330   29.2130   39.2060 C   0  0  0  0  0  0  0  0  0  0  0  0
   34.3350   28.5930   38.7390 H   0  0  0  0  0  0  0  0  0  0  0  0
   34.5940   30.0480   39.7040 H   0  0  0  0  0  0  0  0  0  0  0  0
   35.8400   28.3630   40.1630 C   0  0  0  0  0  0  0  0  0  0  0  0
   36.3860   27.1200   39.9830 C   0  0  0  0  0  0  0  0  0  0  0  0
   36.9360   26.7440   41.1800 C   0  0  0  0  0  0  0  0  0  0  0  0
   36.7330   27.7230   42.0540 N   0  0  0  0  0  0  0  0  0  0  0  0
   36.0720   28.6890   41.4280 N   0  0  0  0  0  0  0  0  0  0  0  0
   36.3660   26.5630   39.0420 H   0  0  0  0  0  0  0  0  0  0  0  0
   37.1400   27.7800   43.4670 C   0  0  0  0  0  0  0  0  0  0  0  0
   38.3760   27.1440   43.6350 F   0  0  0  0  0  0  0  0  0  0  0  0
   36.1550   27.2270   44.2500 F   0  0  0  0  0  0  0  0  0  0  0  0
   37.3050   29.1090   43.8120 F   0  0  0  0  0  0  0  0  0  0  0  0
   37.6220   25.4850   41.4360 C   0  0  0  0  0  0  0  0  0  0  0  0
   37.0640   24.4800   41.9640 O   0  0  0  0  0  0  0  0  0  0  0  0
   38.6220   25.1280   41.2720 H   0  0  0  0  0  0  0  0  0  0  0  0
  1  8  1  0  0  0  0
  1 22  1  0  0  0  0
  2  1  1  0  0  0  0
  3  1  1  0  0  0  0
  4 10  1  0  0  0  0
  5  4  2  0  0  0  0
  5 11  1  0  0  0  0
  6  5  1  0  0  0  0
  7  6  2  0  0  0  0
  7  8  1  0  0  0  0
  8  9  2  0  0  0  0
  9  4  1  0  0  0  0
 11 17  1  0  0  0  0
 12 13  1  0  0  0  0
 12 11  2  0  0  0  0
 13 15  2  0  0  0  0
 14 13  1  0  0  0  0
 15 16  1  0  0  0  0
 17 16  2  0  0  0  0
 18  6  1  0  0  0  0
 18 21  1  0  0  0  0
 19 18  1  0  0  0  0
 20 18  1  0  0  0  0
 22 24  1  0  0  0  0
 22 25  1  0  0  0  0
 23 22  1  0  0  0  0
 25 29  2  0  0  0  0
 26 25  1  0  0  0  0
 26 27  2  0  0  0  0
 27 35  1  0  0  0  0
 27 28  1  0  0  0  0
 28 31  1  0  0  0  0
 29 28  1  0  0  0  0
 30 26  1  0  0  0  0
 31 32  1  0  0  0  0
 31 34  1  0  0  0  0
 31 33  1  0  0  0  0
 35 36  2  0  0  0  0
 37 35  1  0  0  0  0
M  END
>  <minimizedAffinity>
-5.93665075

$$$$

 OpenBabel03242515223D

 37 39  0  0  0  0  0  0  0  0999 V2000
   34.7000   28.1910   36.4460 C   0  0  0  0  0  0  0  0  0  0  0  0
   35.2150   27.3090   36.0760 H   0  0  0  0  0  0  0  0  0  0  0  0
   33.8870   27.9230   37.1650 H   0  0  0  0  0  0  0  0  0  0  0  0
   37.2200   30.7870   37.3350 C   0  0  0  0  0  0  0  0  0  0  0  0
   37.1060   30.8010   38.7570 C   0  0  0  0  0  0  0  0  0  0  0  0
   36.2020   29.9440   39.2990 C   0  0  0  0  0  0  0  0  0  0  0  0
   35.4900   29.1560   38.4640 N   0  0  0  0  0  0  0  0  0  0  0  0
   35.5930   29.1420   37.1410 C   0  0  0  0  0  0  0  0  0  0  0  0
   36.4700   29.9700   36.5880 N   0  0  0  0  0  0  0  0  0  0  0  0
   37.8380   31.3520   36.6870 H   0  0  0  0  0  0  0  0  0  0  0  0
   37.9780   31.7700   39.4250 C   0  0  0  0  0  0  0  0  0  0  0  0
   37.6020   33.0870   39.5420 C   0  0  0  0  0  3  0  0  0  0  0  0
   38.3380   34.0850   40.1330 C   0  0  0  0  0  0  0  0  0  0  0  0
   38.0650   35.1180   40.2350 H   0  0  0  0  0  0  0  0  0  0  0  0
   39.5480   33.7630   40.6540 N   0  0  0  0  0  0  0  0  0  0  0  0
   39.9460   32.4660   40.5520 C   0  0  0  0  0  3  0  0  0  0  0  0
   39.1670   31.5740   39.9640 N   0  0  0  0  0  0  0  0  0  0  0  0
   36.0760   29.9470   40.7540 C   0  0  0  0  0  0  0  0  0  0  0  0
   37.2420   29.4030   41.3320 F   0  0  0  0  0  0  0  0  0  0  0  0
   35.1040   28.9880   41.0690 F   0  0  0  0  0  0  0  0  0  0  0  0
   35.8450   31.1650   41.2860 F   0  0  0  0  0  0  0  0  0  0  0  0
   34.0170   28.8210   35.2500 C   0  0  0  0  0  0  0  0  0  0  0  0
   33.7640   27.9950   34.5460 H   0  0  0  0  0  0  0  0  0  0  0  0
   34.6930   29.4910   34.6760 H   0  0  0  0  0  0  0  0  0  0  0  0
   32.7630   29.4790   35.6150 C   0  0  0  0  0  0  0  0  0  0  0  0
   31.8730   30.1520   34.8220 C   0  0  0  0  0  0  0  0  0  0  0  0
   30.8580   30.5850   35.6340 C   0  0  0  0  0  0  0  0  0  0  0  0
   31.1220   30.1880   36.8740 N   0  0  0  0  0  0  0  0  0  0  0  0
   32.2710   29.5250   36.8470 N   0  0  0  0  0  0  0  0  0  0  0  0
   31.9860   30.2970   33.7450 H   0  0  0  0  0  0  0  0  0  0  0  0
   30.3260   30.4150   38.0910 C   0  0  0  0  0  0  0  0  0  0  0  0
   29.1040   29.7380   37.9970 F   0  0  0  0  0  0  0  0  0  0  0  0
   30.1630   31.7650   38.2860 F   0  0  0  0  0  0  0  0  0  0  0  0
   31.0180   29.8790   39.1610 F   0  0  0  0  0  0  0  0  0  0  0  0
   29.6960   31.3480   35.2000 C   0  0  0  0  0  0  0  0  0  0  0  0
   29.6070   32.6060   35.3040 O   0  0  0  0  0  0  0  0  0  0  0  0
   28.7550   31.0920   34.7490 H   0  0  0  0  0  0  0  0  0  0  0  0
  1  8  1  0  0  0  0
  1  3  1  0  0  0  0
  2  1  1  0  0  0  0
  4  5  1  0  0  0  0
  5  6  2  0  0  0  0
  5 11  1  0  0  0  0
  6 18  1  0  0  0  0
  7  6  1  0  0  0  0
  8  7  2  0  0  0  0
  9  8  1  0  0  0  0
  9  4  2  0  0  0  0
 10  4  1  0  0  0  0
 11 12  2  0  0  0  0
 11 17  1  0  0  0  0
 12 13  1  0  0  0  0
 13 14  1  0  0  0  0
 13 15  2  0  0  0  0
 16 15  1  0  0  0  0
 17 16  2  0  0  0  0
 18 20  1  0  0  0  0
 18 21  1  0  0  0  0
 18 19  1  0  0  0  0
 22 25  1  0  0  0  0
 22  1  1  0  0  0  0
 23 22  1  0  0  0  0
 24 22  1  0  0  0  0
 25 29  2  0  0  0  0
 26 25  1  0  0  0  0
 26 27  2  0  0  0  0
 27 28  1  0  0  0  0
 28 31  1  0  0  0  0
 29 28  1  0  0  0  0
 30 26  1  0  0  0  0
 31 33  1  0  0  0  0
 31 34  1  0  0  0  0
 32 31  1  0  0  0  0
 35 36  2  0  0  0  0
 35 27  1  0  0  0  0
 37 35  1  0  0  0  0
M  END
>  <minimizedAffinity>
-5.91517735

$$$$

 OpenBabel03242515223D

 37 39  0  0  0  0  0  0  0  0999 V2000
   35.4770   28.4010   37.8510 C   0  0  0  0  0  0  0  0  0  0  0  0
   35.4460   27.3330   38.0480 H   0  0  0  0  0  0  0  0  0  0  0  0
   36.4390   28.7060   37.3720 H   0  0  0  0  0  0  0  0  0  0  0  0
   33.3650   29.4190   34.9550 C   0  0  0  0  0  0  0  0  0  0  0  0
   32.1460   29.7580   35.6140 C   0  0  0  0  0  0  0  0  0  0  0  0
   32.1320   29.6220   36.9660 C   0  0  0  0  0  0  0  0  0  0  0  0
   33.2540   29.1810   37.5740 N   0  0  0  0  0  0  0  0  0  0  0  0
   34.3890   28.8630   36.9640 C   0  0  0  0  0  0  0  0  0  0  0  0
   34.4280   28.9890   35.6430 N   0  0  0  0  0  0  0  0  0  0  0  0
   33.6220   29.4360   33.9280 H   0  0  0  0  0  0  0  0  0  0  0  0
   31.0720   30.1870   34.7160 C   0  0  0  0  0  0  0  0  0  0  0  0
   30.9640   31.5030   34.3320 C   0  0  0  0  0  3  0  0  0  0  0  0
   29.9950   32.0240   33.5090 C   0  0  0  0  0  0  0  0  0  0  0  0
   29.8910   33.0470   33.1970 H   0  0  0  0  0  0  0  0  0  0  0  0
   29.0500   31.1820   33.0210 N   0  0  0  0  0  0  0  0  0  0  0  0
   29.1330   29.8730   33.3850 C   0  0  0  0  0  3  0  0  0  0  0  0
   30.1050   29.4640   34.1830 N   0  0  0  0  0  0  0  0  0  0  0  0
   30.8900   29.9690   37.6530 C   0  0  0  0  0  0  0  0  0  0  0  0
   30.6160   31.3400   37.4750 F   0  0  0  0  0  0  0  0  0  0  0  0
   31.1630   29.8880   39.0250 F   0  0  0  0  0  0  0  0  0  0  0  0
   29.8200   29.2480   37.2580 F   0  0  0  0  0  0  0  0  0  0  0  0
   35.4410   29.0860   39.2010 C   0  0  0  0  0  0  0  0  0  0  0  0
   34.3680   29.2440   39.4590 H   0  0  0  0  0  0  0  0  0  0  0  0
   35.8820   30.1060   39.1740 H   0  0  0  0  0  0  0  0  0  0  0  0
   36.0240   28.2570   40.2560 C   0  0  0  0  0  0  0  0  0  0  0  0
   36.4700   26.9640   40.1970 C   0  0  0  0  0  0  0  0  0  0  0  0
   36.9250   26.6390   41.4470 C   0  0  0  0  0  0  0  0  0  0  0  0
   36.7630   27.6950   42.2360 N   0  0  0  0  0  0  0  0  0  0  0  0
   36.2190   28.6610   41.5050 N   0  0  0  0  0  0  0  0  0  0  0  0
   36.4500   26.3400   39.3000 H   0  0  0  0  0  0  0  0  0  0  0  0
   37.1010   27.8280   43.6620 C   0  0  0  0  0  0  0  0  0  0  0  0
   38.3300   27.2080   43.9210 F   0  0  0  0  0  0  0  0  0  0  0  0
   36.0820   27.3100   44.4240 F   0  0  0  0  0  0  0  0  0  0  0  0
   37.2460   29.1730   43.9440 F   0  0  0  0  0  0  0  0  0  0  0  0
   37.4880   25.3520   41.8320 C   0  0  0  0  0  0  0  0  0  0  0  0
   36.9060   24.2460   41.6340 O   0  0  0  0  0  0  0  0  0  0  0  0
   38.4000   25.0430   42.3110 H   0  0  0  0  0  0  0  0  0  0  0  0
  1  2  1  0  0  0  0
  1 22  1  0  0  0  0
  3  1  1  0  0  0  0
  4  5  2  0  0  0  0
  4  9  1  0  0  0  0
  5  6  1  0  0  0  0
  6  7  2  0  0  0  0
  6 18  1  0  0  0  0
  8  7  1  0  0  0  0
  8  1  1  0  0  0  0
  9  8  2  0  0  0  0
 10  4  1  0  0  0  0
 11  5  1  0  0  0  0
 12 11  1  0  0  0  0
 13 12  2  0  0  0  0
 14 13  1  0  0  0  0
 15 16  2  0  0  0  0
 15 13  1  0  0  0  0
 16 17  1  0  0  0  0
 17 11  2  0  0  0  0
 18 20  1  0  0  0  0
 19 18  1  0  0  0  0
 21 18  1  0  0  0  0
 22 23  1  0  0  0  0
 22 25  1  0  0  0  0
 24 22  1  0  0  0  0
 25 29  2  0  0  0  0
 26 25  1  0  0  0  0
 26 27  2  0  0  0  0
 27 35  1  0  0  0  0
 27 28  1  0  0  0  0
 28 31  1  0  0  0  0
 29 28  1  0  0  0  0
 30 26  1  0  0  0  0
 31 32  1  0  0  0  0
 31 34  1  0  0  0  0
 31 33  1  0  0  0  0
 35 37  1  0  0  0  0
 36 35  2  0  0  0  0
M  END
>  <minimizedAffinity>
-5.89965296

$$$$

 OpenBabel03242515223D

 37 39  0  0  0  0  0  0  0  0999 V2000
   37.4110   28.1690   43.1630 C   0  0  0  0  0  0  0  0  0  0  0  0
   37.0550   28.3300   44.1760 H   0  0  0  0  0  0  0  0  0  0  0  0
   36.5880   27.8400   42.4820 H   0  0  0  0  0  0  0  0  0  0  0  0
   39.5280   31.1220   42.3370 C   0  0  0  0  0  0  0  0  0  0  0  0
   38.8830   31.5970   41.1580 C   0  0  0  0  0  0  0  0  0  0  0  0
   37.7960   30.8970   40.7380 C   0  0  0  0  0  0  0  0  0  0  0  0
   37.4170   29.8190   41.4580 N   0  0  0  0  0  0  0  0  0  0  0  0
   38.0160   29.3730   42.5550 C   0  0  0  0  0  0  0  0  0  0  0  0
   39.0790   30.0420   42.9850 N   0  0  0  0  0  0  0  0  0  0  0  0
   40.3780   31.4850   42.8530 H   0  0  0  0  0  0  0  0  0  0  0  0
   39.5130   32.7740   40.5550 C   0  0  0  0  0  0  0  0  0  0  0  0
   40.5870   32.6370   39.7080 C   0  0  0  0  0  3  0  0  0  0  0  0
   41.2660   33.6630   39.0960 C   0  0  0  0  0  0  0  0  0  0  0  0
   42.1070   33.5790   38.4340 H   0  0  0  0  0  0  0  0  0  0  0  0
   40.8560   34.9330   39.3360 N   0  0  0  0  0  0  0  0  0  0  0  0
   39.7940   35.0980   40.1710 C   0  0  0  0  0  3  0  0  0  0  0  0
   39.2030   34.0470   40.7140 N   0  0  0  0  0  0  0  0  0  0  0  0
   37.1240   31.3750   39.5320 C   0  0  0  0  0  0  0  0  0  0  0  0
   36.0190   30.5470   39.2460 F   0  0  0  0  0  0  0  0  0  0  0  0
   37.9920   31.1060   38.4650 F   0  0  0  0  0  0  0  0  0  0  0  0
   36.7110   32.6570   39.6020 F   0  0  0  0  0  0  0  0  0  0  0  0
   38.3890   27.0140   43.2320 C   0  0  0  0  0  0  0  0  0  0  0  0
   38.2340   26.5140   44.2150 H   0  0  0  0  0  0  0  0  0  0  0  0
   39.4480   27.3520   43.2460 H   0  0  0  0  0  0  0  0  0  0  0  0
   38.1390   26.0170   42.1930 C   0  0  0  0  0  0  0  0  0  0  0  0
   38.7100   24.7850   42.0160 C   0  0  0  0  0  0  0  0  0  0  0  0
   38.1400   24.2340   40.8980 C   0  0  0  0  0  0  0  0  0  0  0  0
   37.2550   25.0990   40.4150 N   0  0  0  0  0  0  0  0  0  0  0  0
   37.2650   26.1660   41.2050 N   0  0  0  0  0  0  0  0  0  0  0  0
   39.4760   24.3560   42.6660 H   0  0  0  0  0  0  0  0  0  0  0  0
   36.3960   24.9550   39.2300 C   0  0  0  0  0  0  0  0  0  0  0  0
   35.4060   23.9940   39.4690 F   0  0  0  0  0  0  0  0  0  0  0  0
   37.1710   24.6480   38.1370 F   0  0  0  0  0  0  0  0  0  0  0  0
   35.7590   26.1630   39.0130 F   0  0  0  0  0  0  0  0  0  0  0  0
   38.4600   22.9250   40.3450 C   0  0  0  0  0  0  0  0  0  0  0  0
   37.6840   21.9280   40.4140 O   0  0  0  0  0  0  0  0  0  0  0  0
   39.3030   22.5190   39.8160 H   0  0  0  0  0  0  0  0  0  0  0  0
  1 22  1  0  0  0  0
  1  2  1  0  0  0  0
  3  1  1  0  0  0  0
  4 10  1  0  0  0  0
  4  9  1  0  0  0  0
  5  4  2  0  0  0  0
  6  5  1  0  0  0  0
  6  7  2  0  0  0  0
  7  8  1  0  0  0  0
  8  9  2  0  0  0  0
  8  1  1  0  0  0  0
 11 17  1  0  0  0  0
 11  5  1  0  0  0  0
 12 11  2  0  0  0  0
 13 15  2  0  0  0  0
 13 12  1  0  0  0  0
 14 13  1  0  0  0  0
 15 16  1  0  0  0  0
 16 17  2  0  0  0  0
 18 21  1  0  0  0  0
 18  6  1  0  0  0  0
 19 18  1  0  0  0  0
 20 18  1  0  0  0  0
 22 24  1  0  0  0  0
 22 23  1  0  0  0  0
 25 22  1  0  0  0  0
 26 25  1  0  0  0  0
 26 30  1  0  0  0  0
 27 26  2  0  0  0  0
 28 27  1  0  0  0  0
 28 29  1  0  0  0  0
 29 25  2  0  0  0  0
 31 32  1  0  0  0  0
 31 28  1  0  0  0  0
 33 31  1  0  0  0  0
 34 31  1  0  0  0  0
 35 36  2  0  0  0  0
 35 27  1  0  0  0  0
 37 35  1  0  0  0  0
M  END
>  <minimizedAffinity>
-5.82695818

$$$$

 OpenBabel03242515223D

 37 39  0  0  0  0  0  0  0  0999 V2000
   37.9440   29.2980   43.0170 C   0  0  0  0  0  0  0  0  0  0  0  0
   37.1380   29.9210   42.6410 H   0  0  0  0  0  0  0  0  0  0  0  0
   37.8360   29.0970   44.1110 H   0  0  0  0  0  0  0  0  0  0  0  0
   37.4980   26.3440   40.7920 C   0  0  0  0  0  0  0  0  0  0  0  0
   38.4730   25.4510   41.3260 C   0  0  0  0  0  0  0  0  0  0  0  0
   39.1950   25.9070   42.3840 C   0  0  0  0  0  0  0  0  0  0  0  0
   38.9390   27.1520   42.8400 N   0  0  0  0  0  0  0  0  0  0  0  0
   38.0330   27.9850   42.3440 C   0  0  0  0  0  0  0  0  0  0  0  0
   37.3150   27.5620   41.3110 N   0  0  0  0  0  0  0  0  0  0  0  0
   36.8250   26.2260   39.9830 H   0  0  0  0  0  0  0  0  0  0  0  0
   38.5660   24.1660   40.6290 C   0  0  0  0  0  0  0  0  0  0  0  0
   39.3500   24.0330   39.5080 C   0  0  0  0  0  3  0  0  0  0  0  0
   39.5040   22.8880   38.7640 C   0  0  0  0  0  0  0  0  0  0  0  0
   40.1090   22.7620   37.8860 H   0  0  0  0  0  0  0  0  0  0  0  0
   38.8320   21.7770   39.1560 N   0  0  0  0  0  0  0  0  0  0  0  0
   38.0480   21.8800   40.2630 C   0  0  0  0  0  3  0  0  0  0  0  0
   37.9620   23.0280   40.9150 N   0  0  0  0  0  0  0  0  0  0  0  0
   40.1960   25.0020   42.9430 C   0  0  0  0  0  0  0  0  0  0  0  0
   39.5640   23.8380   43.4290 F   0  0  0  0  0  0  0  0  0  0  0  0
   40.6650   25.6080   44.1160 F   0  0  0  0  0  0  0  0  0  0  0  0
   41.1670   24.6480   42.0750 F   0  0  0  0  0  0  0  0  0  0  0  0
   39.2160   30.1060   42.8590 C   0  0  0  0  0  0  0  0  0  0  0  0
   40.0390   29.3830   42.6530 H   0  0  0  0  0  0  0  0  0  0  0  0
   39.5150   30.6200   43.7990 H   0  0  0  0  0  0  0  0  0  0  0  0
   39.1490   31.0230   41.7230 C   0  0  0  0  0  0  0  0  0  0  0  0
   40.0660   31.9480   41.2970 C   0  0  0  0  0  0  0  0  0  0  0  0
   39.5380   32.5570   40.1900 C   0  0  0  0  0  0  0  0  0  0  0  0
   38.3460   32.0220   39.9510 N   0  0  0  0  0  0  0  0  0  0  0  0
   38.1260   31.1010   40.8810 N   0  0  0  0  0  0  0  0  0  0  0  0
   41.0280   32.1360   41.7790 H   0  0  0  0  0  0  0  0  0  0  0  0
   37.4010   32.3500   38.8720 C   0  0  0  0  0  0  0  0  0  0  0  0
   38.0130   32.1660   37.6260 F   0  0  0  0  0  0  0  0  0  0  0  0
   36.9380   33.6330   39.0440 F   0  0  0  0  0  0  0  0  0  0  0  0
   36.3400   31.4670   38.9480 F   0  0  0  0  0  0  0  0  0  0  0  0
   40.1830   33.6100   39.4180 C   0  0  0  0  0  0  0  0  0  0  0  0
   40.2480   34.8160   39.7960 O   0  0  0  0  0  0  0  0  0  0  0  0
   40.6940   33.6430   38.4730 H   0  0  0  0  0  0  0  0  0  0  0  0
  1  3  1  0  0  0  0
  2  1  1  0  0  0  0
  4  9  2  0  0  0  0
  4  5  1  0  0  0  0
  5  6  2  0  0  0  0
  6  7  1  0  0  0  0
  6 18  1  0  0  0  0
  8  7  2  0  0  0  0
  8  1  1  0  0  0  0
  9  8  1  0  0  0  0
 10  4  1  0  0  0  0
 11 17  1  0  0  0  0
 11  5  1  0  0  0  0
 12 11  2  0  0  0  0
 13 15  2  0  0  0  0
 13 12  1  0  0  0  0
 14 13  1  0  0  0  0
 15 16  1  0  0  0  0
 16 17  2  0  0  0  0
 18 19  1  0  0  0  0
 18 20  1  0  0  0  0
 21 18  1  0  0  0  0
 22  1  1  0  0  0  0
 22 24  1  0  0  0  0
 23 22  1  0  0  0  0
 25 22  1  0  0  0  0
 26 25  1  0  0  0  0
 26 30  1  0  0  0  0
 27 26  2  0  0  0  0
 28 27  1  0  0  0  0
 28 29  1  0  0  0  0
 29 25  2  0  0  0  0
 31 34  1  0  0  0  0
 31 33  1  0  0  0  0
 31 28  1  0  0  0  0
 32 31  1  0  0  0  0
 35 36  2  0  0  0  0
 35 27  1  0  0  0  0
 37 35  1  0  0  0  0
M  END
>  <minimizedAffinity>
-5.78464985

$$$$

 OpenBabel03242515223D

 37 39  0  0  0  0  0  0  0  0999 V2000
   34.9480   28.0900   36.4540 C   0  0  0  0  0  0  0  0  0  0  0  0
   35.5030   27.2210   36.1120 H   0  0  0  0  0  0  0  0  0  0  0  0
   34.1380   27.8080   37.1710 H   0  0  0  0  0  0  0  0  0  0  0  0
   37.3080   30.8470   37.2990 C   0  0  0  0  0  0  0  0  0  0  0  0
   37.2380   30.8370   38.7240 C   0  0  0  0  0  0  0  0  0  0  0  0
   36.4130   29.9120   39.2820 C   0  0  0  0  0  0  0  0  0  0  0  0
   35.7320   29.0860   38.4590 N   0  0  0  0  0  0  0  0  0  0  0  0
   35.7940   29.0940   37.1340 C   0  0  0  0  0  0  0  0  0  0  0  0
   36.5930   29.9880   36.5650 N   0  0  0  0  0  0  0  0  0  0  0  0
   37.8630   31.4610   36.6400 H   0  0  0  0  0  0  0  0  0  0  0  0
   38.0610   31.8570   39.3780 C   0  0  0  0  0  0  0  0  0  0  0  0
   37.5910   33.1390   39.5380 C   0  0  0  0  0  3  0  0  0  0  0  0
   38.2740   34.1800   40.1210 C   0  0  0  0  0  0  0  0  0  0  0  0
   37.9280   35.1870   40.2550 H   0  0  0  0  0  0  0  0  0  0  0  0
   39.5250   33.9410   40.5870 N   0  0  0  0  0  0  0  0  0  0  0  0
   40.0150   32.6800   40.4420 C   0  0  0  0  0  3  0  0  0  0  0  0
   39.2820   31.7420   39.8660 N   0  0  0  0  0  0  0  0  0  0  0  0
   36.3340   29.8900   40.7410 C   0  0  0  0  0  0  0  0  0  0  0  0
   35.3490   28.9670   41.1490 F   0  0  0  0  0  0  0  0  0  0  0  0
   35.7790   31.1180   41.1250 F   0  0  0  0  0  0  0  0  0  0  0  0
   37.4990   29.5920   41.3530 F   0  0  0  0  0  0  0  0  0  0  0  0
   34.2540   28.6620   35.2360 C   0  0  0  0  0  0  0  0  0  0  0  0
   33.9820   27.8020   34.5810 H   0  0  0  0  0  0  0  0  0  0  0  0
   34.9290   29.2920   34.6160 H   0  0  0  0  0  0  0  0  0  0  0  0
   33.0130   29.3530   35.5820 C   0  0  0  0  0  0  0  0  0  0  0  0
   32.1770   29.1560   36.6490 C   0  0  0  0  0  0  0  0  0  0  0  0
   31.1500   30.0530   36.5250 C   0  0  0  0  0  0  0  0  0  0  0  0
   31.3540   30.7690   35.4250 N   0  0  0  0  0  0  0  0  0  0  0  0
   32.4780   30.3360   34.8680 N   0  0  0  0  0  0  0  0  0  0  0  0
   32.3350   28.4100   37.4320 H   0  0  0  0  0  0  0  0  0  0  0  0
   30.5220   31.8510   34.8760 C   0  0  0  0  0  0  0  0  0  0  0  0
   31.0520   32.2910   33.6580 F   0  0  0  0  0  0  0  0  0  0  0  0
   30.4200   32.8640   35.8000 F   0  0  0  0  0  0  0  0  0  0  0  0
   29.2640   31.3370   34.6220 F   0  0  0  0  0  0  0  0  0  0  0  0
   30.0310   30.1870   37.4480 C   0  0  0  0  0  0  0  0  0  0  0  0
   29.9660   31.0790   38.3430 O   0  0  0  0  0  0  0  0  0  0  0  0
   29.1100   29.6530   37.5960 H   0  0  0  0  0  0  0  0  0  0  0  0
  1  8  1  0  0  0  0
  1  3  1  0  0  0  0
  2  1  1  0  0  0  0
  4  5  1  0  0  0  0
  5  6  2  0  0  0  0
  5 11  1  0  0  0  0
  6 18  1  0  0  0  0
  7  6  1  0  0  0  0
  8  7  2  0  0  0  0
  9  8  1  0  0  0  0
  9  4  2  0  0  0  0
 10  4  1  0  0  0  0
 11 12  2  0  0  0  0
 11 17  1  0  0  0  0
 12 13  1  0  0  0  0
 13 14  1  0  0  0  0
 13 15  2  0  0  0  0
 16 15  1  0  0  0  0
 17 16  2  0  0  0  0
 18 20  1  0  0  0  0
 18 19  1  0  0  0  0
 18 21  1  0  0  0  0
 22 25  1  0  0  0  0
 22  1  1  0  0  0  0
 23 22  1  0  0  0  0
 24 22  1  0  0  0  0
 25 26  1  0  0  0  0
 26 30  1  0  0  0  0
 27 26  2  0  0  0  0
 27 35  1  0  0  0  0
 28 27  1  0  0  0  0
 29 28  1  0  0  0  0
 29 25  2  0  0  0  0
 31 28  1  0  0  0  0
 31 33  1  0  0  0  0
 32 31  1  0  0  0  0
 34 31  1  0  0  0  0
 35 37  1  0  0  0  0
 35 36  2  0  0  0  0
M  END
>  <minimizedAffinity>
-5.620543

$$$$
