
 OpenBabel03252508213D

 32 34  0  0  0  0  0  0  0  0999 V2000
   46.2130   34.0560   40.9940 C   0  0  0  0  0  0  0  0  0  0  0  0
   47.0220   33.9960   39.8590 C   0  0  0  0  0  0  0  0  0  0  0  0
   48.2650   34.5830   39.7200 C   0  0  0  0  0  0  0  0  0  0  0  0
   48.7130   35.2850   40.8320 C   0  0  0  0  0  0  0  0  0  0  0  0
   47.9320   35.3550   41.9610 C   0  0  0  0  0  0  0  0  0  0  0  0
   46.6980   34.7650   42.0830 C   0  0  0  0  0  0  0  0  0  0  0  0
   46.6150   33.4350   39.0260 H   0  0  0  0  0  0  0  0  0  0  0  0
   48.7750   34.4500   38.7780 H   0  0  0  0  0  0  0  0  0  0  0  0
   49.6930   35.7330   40.6870 H   0  0  0  0  0  0  0  0  0  0  0  0
   48.4500   35.9380   42.7060 H   0  0  0  0  0  0  0  0  0  0  0  0
   45.9700   34.9030   43.3480 C   0  0  0  0  0  0  0  0  0  0  0  0
   46.1290   33.9720   44.3470 C   0  0  0  0  0  0  0  0  0  0  0  0
   45.4910   34.0200   45.5670 C   0  0  0  0  0  0  0  0  0  0  0  0
   45.5860   33.3200   46.3660 H   0  0  0  0  0  0  0  0  0  0  0  0
   44.6410   35.0580   45.8090 N   0  0  0  0  0  0  0  0  0  0  0  0
   44.5000   35.9700   44.8040 C   0  0  0  0  0  0  0  0  0  0  0  0
   45.1350   35.8850   43.6400 N   0  0  0  0  0  0  0  0  0  0  0  0
   44.8920   33.4380   41.1010 C   0  0  0  0  0  0  0  0  0  0  0  0
   44.3670   33.9300   41.9550 H   0  0  0  0  0  0  0  0  0  0  0  0
   44.9620   32.3540   41.2890 H   0  0  0  0  0  0  0  0  0  0  0  0
   44.0260   33.7390   39.8720 C   0  0  0  0  0  0  0  0  0  0  0  0
   43.9650   32.9100   39.1730 H   0  0  0  0  0  0  0  0  0  0  0  0
   44.4870   34.6190   39.3870 H   0  0  0  0  0  0  0  0  0  0  0  0
   41.2030   35.5200   41.6640 C   0  0  0  0  0  0  0  0  0  0  0  0
   42.5310   35.2170   41.2630 C   0  0  0  0  0  0  0  0  0  0  0  0
   42.6890   34.1640   40.3780 C   0  0  0  0  0  0  0  0  0  0  0  0
   41.5500   33.5000   39.9580 N   0  0  0  0  0  0  0  0  0  0  0  0
   40.3290   33.8210   40.3620 C   0  0  0  0  0  0  0  0  0  0  0  0
   40.1500   34.8350   41.2180 N   0  0  0  0  0  0  0  0  0  0  0  0
   41.1350   36.3480   42.3530 H   0  0  0  0  0  0  0  0  0  0  0  0
   43.3930   35.7640   41.6160 H   0  0  0  0  0  0  0  0  0  0  0  0
   39.5520   33.2000   39.9380 H   0  0  0  0  0  0  0  0  0  0  0  0
  1 18  1  0  0  0  0
  1  6  1  0  0  0  0
  2  1  2  0  0  0  0
  3  2  1  0  0  0  0
  3  4  2  0  0  0  0
  4  5  1  0  0  0  0
  5  6  2  0  0  0  0
  5 10  1  0  0  0  0
  6 11  1  0  0  0  0
  7  2  1  0  0  0  0
  8  3  1  0  0  0  0
  9  4  1  0  0  0  0
 11 17  2  0  0  0  0
 11 12  1  0  0  0  0
 12 13  2  0  0  0  0
 13 15  1  0  0  0  0
 13 14  1  0  0  0  0
 16 15  2  0  0  0  0
 17 16  1  0  0  0  0
 18 20  1  0  0  0  0
 18 19  1  0  0  0  0
 21 26  1  0  0  0  0
 21 18  1  0  0  0  0
 22 21  1  0  0  0  0
 23 21  1  0  0  0  0
 24 30  1  0  0  0  0
 25 31  1  0  0  0  0
 25 24  1  0  0  0  0
 26 25  2  0  0  0  0
 27 28  2  0  0  0  0
 27 26  1  0  0  0  0
 28 29  1  0  0  0  0
 29 24  2  0  0  0  0
 32 28  1  0  0  0  0
M  END
>  <minimizedAffinity>
-6.06559372

>  <minimizedRMSD>
1.09946728

$$$$
