
 OpenBabel03252509163D

 23 25  0  0  0  0  0  0  0  0999 V2000
   45.9570   33.1230   46.2350 C   0  0  0  0  0  0  0  0  0  0  0  0
   45.4670   32.9590   47.5620 C   0  0  0  0  0  0  0  0  0  0  0  0
   46.1380   32.1130   48.3870 C   0  0  0  0  0  0  0  0  0  0  0  0
   47.2850   31.4360   47.9020 C   0  0  0  0  0  0  0  0  0  0  0  0
   47.4200   32.0320   46.1800 S   0  0  0  0  0  0  0  0  0  0  0  0
   44.5890   33.4950   47.8900 H   0  0  0  0  0  0  0  0  0  0  0  0
   45.8770   31.9030   49.3960 H   0  0  0  0  0  0  0  0  0  0  0  0
   44.2710   35.8860   44.4240 C   0  0  0  0  0  0  0  0  0  0  0  0
   44.2700   35.3420   43.1140 C   0  0  0  0  0  0  0  0  0  0  0  0
   44.8370   34.0780   42.9120 C   0  0  0  0  0  0  0  0  0  0  0  0
   45.3630   33.4360   44.0050 N   0  0  0  0  0  0  0  0  0  0  0  0
   45.3400   33.9970   45.2360 C   0  0  0  0  0  0  0  0  0  0  0  0
   44.7950   35.2210   45.4490 N   0  0  0  0  0  0  0  0  0  0  0  0
   43.8320   36.8460   44.5360 H   0  0  0  0  0  0  0  0  0  0  0  0
   43.8580   35.8400   42.2480 H   0  0  0  0  0  0  0  0  0  0  0  0
   44.8780   33.5910   41.9470 H   0  0  0  0  0  0  0  0  0  0  0  0
   48.1660   30.5350   48.4700 C   0  0  0  0  0  0  0  0  0  0  0  0
   48.4070   29.3260   47.8530 C   0  0  0  0  0  3  0  0  0  0  0  0
   49.3080   28.4530   48.4740 C   0  0  0  0  0  0  0  0  0  0  0  0
   49.5050   27.5040   48.0000 H   0  0  0  0  0  0  0  0  0  0  0  0
   49.9010   28.8210   49.6410 N   0  0  0  0  0  0  0  0  0  0  0  0
   49.6420   30.0080   50.2160 C   0  0  0  0  0  3  0  0  0  0  0  0
   48.7660   30.8710   49.6240 N   0  0  0  0  0  0  0  0  0  0  0  0
  1  2  2  0  0  0  0
  2  6  1  0  0  0  0
  2  3  1  0  0  0  0
  3  7  1  0  0  0  0
  4  3  2  0  0  0  0
  4 17  1  0  0  0  0
  5  1  1  0  0  0  0
  5  4  1  0  0  0  0
  8 14  1  0  0  0  0
  8 13  1  0  0  0  0
  9  8  2  0  0  0  0
 10  9  1  0  0  0  0
 10 11  2  0  0  0  0
 11 12  1  0  0  0  0
 12 13  2  0  0  0  0
 12  1  1  0  0  0  0
 15  9  1  0  0  0  0
 16 10  1  0  0  0  0
 17 23  1  0  0  0  0
 18 17  2  0  0  0  0
 18 19  1  0  0  0  0
 19 21  2  0  0  0  0
 20 19  1  0  0  0  0
 21 22  1  0  0  0  0
 23 22  2  0  0  0  0
M  END
>  <minimizedAffinity>
-4.49368477

>  <minimizedRMSD>
1.15076542

$$$$
