
 OpenBabel03252502383D

 36 38  0  0  1  0  0  0  0  0999 V2000
   46.1180   32.5160   40.0750 C   0  0  1  0  0  0  0  0  0  0  0  0
   45.7140   31.4760   40.0210 H   0  0  0  0  0  0  0  0  0  0  0  0
   44.9930   33.3900   39.8100 N   0  0  0  0  0  0  0  0  0  0  0  0
   44.0000   32.8480   38.9740 C   0  0  0  0  0  0  0  0  0  0  0  0
   43.1480   34.0570   38.5240 C   0  0  0  0  0  0  0  0  0  0  0  0
   42.4120   34.4110   39.6980 N   0  0  0  0  0  0  0  0  0  0  0  0
   43.1890   34.7130   40.8400 C   0  0  0  0  0  0  0  0  0  0  0  0
   44.5240   34.0630   40.9730 C   0  0  0  0  0  0  0  0  0  0  0  0
   44.4850   32.4880   38.0340 H   0  0  0  0  0  0  0  0  0  0  0  0
   43.3510   32.0880   39.4240 H   0  0  0  0  0  0  0  0  0  0  0  0
   42.4390   33.6290   37.7930 H   0  0  0  0  0  0  0  0  0  0  0  0
   43.7890   34.8580   38.1640 H   0  0  0  0  0  0  0  0  0  0  0  0
   41.5340   33.9000   39.8410 H   0  0  0  0  0  0  0  0  0  0  0  0
   42.5400   34.4920   41.7420 H   0  0  0  0  0  0  0  0  0  0  0  0
   43.3030   35.8220   40.8740 H   0  0  0  0  0  0  0  0  0  0  0  0
   44.4800   33.3410   41.8110 H   0  0  0  0  0  0  0  0  0  0  0  0
   45.2240   34.8720   41.2930 H   0  0  0  0  0  0  0  0  0  0  0  0
   48.3020   31.7920   39.1440 C   0  0  0  0  0  0  0  0  0  0  0  0
   47.2140   32.6490   39.1630 C   0  0  0  0  0  0  0  0  0  0  0  0
   47.2620   33.6850   38.2230 C   0  0  0  0  0  0  0  0  0  0  0  0
   48.3290   33.7970   37.3710 N   0  0  0  0  0  0  0  0  0  0  0  0
   49.3540   32.9220   37.4110 C   0  0  0  0  0  0  0  0  0  0  0  0
   49.3470   31.9080   38.3040 N   0  0  0  0  0  0  0  0  0  0  0  0
   48.2930   30.9740   39.8660 H   0  0  0  0  0  0  0  0  0  0  0  0
   46.4690   34.4030   38.1560 H   0  0  0  0  0  0  0  0  0  0  0  0
   50.1090   33.1520   36.6760 H   0  0  0  0  0  0  0  0  0  0  0  0
   46.6050   32.7580   41.5060 C   0  0  0  0  0  0  0  0  0  0  0  0
   45.7230   33.0660   42.1450 H   0  0  0  0  0  0  0  0  0  0  0  0
   47.0440   31.8060   41.9120 H   0  0  0  0  0  0  0  0  0  0  0  0
   47.6270   33.8050   41.6430 C   0  0  0  0  0  0  0  0  0  0  0  0
   47.8830   35.0970   41.2900 C   0  0  0  0  0  0  0  0  0  0  0  0
   49.0190   35.8050   41.5840 C   0  0  0  0  0  0  0  0  0  0  0  0
   48.9970   36.8040   41.2050 H   0  0  0  0  0  0  0  0  0  0  0  0
   49.9700   35.1750   42.2810 N   0  0  0  0  0  0  0  0  0  0  0  0
   49.7820   33.9200   42.6530 C   0  0  0  0  0  0  0  0  0  0  0  0
   48.6700   33.2620   42.3510 N   0  0  0  0  0  0  0  0  0  0  0  0
  1  2  1  6  0  0  0
  1 27  1  0  0  0  0
  3  1  1  0  0  0  0
  3  8  1  0  0  0  0
  4 10  1  0  0  0  0
  4  3  1  0  0  0  0
  5  4  1  0  0  0  0
  5  6  1  0  0  0  0
  6 13  1  0  0  0  0
  6  7  1  0  0  0  0
  7 15  1  0  0  0  0
  7  8  1  0  0  0  0
  7 14  1  0  0  0  0
  8 17  1  0  0  0  0
  8 16  1  0  0  0  0
  9  4  1  0  0  0  0
 11  5  1  0  0  0  0
 12  5  1  0  0  0  0
 18 19  1  0  0  0  0
 18 24  1  0  0  0  0
 19  1  1  0  0  0  0
 20 19  2  0  0  0  0
 21 22  2  0  0  0  0
 21 20  1  0  0  0  0
 22 23  1  0  0  0  0
 23 18  2  0  0  0  0
 25 20  1  0  0  0  0
 26 22  1  0  0  0  0
 27 30  1  0  0  0  0
 27 29  1  0  0  0  0
 27 28  1  0  0  0  0
 30 36  1  0  0  0  0
 31 32  1  0  0  0  0
 31 30  2  0  0  0  0
 32 34  2  0  0  0  0
 33 32  1  0  0  0  0
 34 35  1  0  0  0  0
 36 35  2  0  0  0  0
M  END
>  <minimizedAffinity>
-3.90284371

>  <minimizedRMSD>
4.91489792

$$$$
