
 OpenBabel03242517143D

 21 22  0  0  0  0  0  0  0  0999 V2000
   43.9920   35.3380   41.7710 C   0  0  0  0  0  0  0  0  0  0  0  0
   43.0100   34.7840   41.0970 C   0  0  0  0  0  0  0  0  0  0  0  0
   44.3020   35.7800   44.2150 C   0  0  0  0  0  0  0  0  0  0  0  0
   44.4490   34.9660   43.0960 C   0  0  0  0  0  0  0  0  0  0  0  0
   45.0670   33.7380   43.2730 C   0  0  0  0  0  0  0  0  0  0  0  0
   45.5020   33.3760   44.5180 N   0  0  0  0  0  0  0  0  0  0  0  0
   45.3380   34.2010   45.5830 C   0  0  0  0  0  0  0  0  0  0  0  0
   44.7390   35.3970   45.4190 N   0  0  0  0  0  0  0  0  0  0  0  0
   43.8130   36.7290   44.0240 H   0  0  0  0  0  0  0  0  0  0  0  0
   45.2310   33.0270   42.4590 H   0  0  0  0  0  0  0  0  0  0  0  0
   45.6700   33.9460   46.5810 H   0  0  0  0  0  0  0  0  0  0  0  0
   42.6140   35.2430   39.7330 C   0  0  0  0  0  0  0  0  0  0  0  0
   43.3460   34.8020   39.0270 H   0  0  0  0  0  0  0  0  0  0  0  0
   42.6570   36.3490   39.7030 H   0  0  0  0  0  0  0  0  0  0  0  0
   41.2230   34.8620   39.4100 C   0  0  0  0  0  0  0  0  0  0  0  0
   40.7720   34.7550   38.0980 C   0  0  0  0  0  0  0  0  0  0  0  0
   39.4970   34.4060   37.7420 C   0  0  0  0  0  0  0  0  0  0  0  0
   39.2230   34.3440   36.7140 H   0  0  0  0  0  0  0  0  0  0  0  0
   38.6190   34.1480   38.7190 N   0  0  0  0  0  0  0  0  0  0  0  0
   39.0350   34.2460   40.0070 C   0  0  0  0  0  0  0  0  0  0  0  0
   40.3010   34.5920   40.3600 N   0  0  0  0  0  0  0  0  0  0  0  0
  1  4  1  0  0  0  0
  2  1  2  0  0  0  0
  3  8  1  0  0  0  0
  4  5  1  0  0  0  0
  4  3  2  0  0  0  0
  5  6  2  0  0  0  0
  6  7  1  0  0  0  0
  7 11  1  0  0  0  0
  8  7  2  0  0  0  0
  9  3  1  0  0  0  0
 10  5  1  0  0  0  0
 12  2  1  0  0  0  0
 13 12  1  0  0  0  0
 14 12  1  0  0  0  0
 15 12  1  0  0  0  0
 15 21  1  0  0  0  0
 16 15  2  0  0  0  0
 17 16  1  0  0  0  0
 17 19  2  0  0  0  0
 18 17  1  0  0  0  0
 19 20  1  0  0  0  0
 20 21  2  0  0  0  0
M  END
>  <minimizedAffinity>
-4.63731003

>  <minimizedRMSD>
1.25066745

$$$$
