REMARK  Name = 
REMARK  4 active torsions:
REMARK  status: ('A' for Active; 'I' for Inactive)
REMARK    1  A    between atoms: C_1  and  C_11
REMARK    2  A    between atoms: C_5  and  C_14
REMARK    3  A    between atoms: C_15  and  C_16
REMARK    4  A    between atoms: C_16  and  C_28
REMARK                            x       y       z     vdW  Elec       q    Type
REMARK                         _______ _______ _______ _____ _____    ______ ____
ROOT
ATOM      1  C   UNL     1      46.164  32.549  47.003  0.00  0.00    +0.000 A 
ATOM      2  C   UNL     1      45.237  32.555  47.983  0.00  0.00    +0.000 A 
ATOM      3  C   UNL     1      45.424  31.745  49.091  0.00  0.00    +0.000 A 
ATOM      4  C   UNL     1      46.560  30.940  49.179  0.00  0.00    +0.000 A 
ATOM      5  C   UNL     1      47.492  30.967  48.139  0.00  0.00    +0.000 A 
ATOM      6  N   UNL     1      47.255  31.749  47.128  0.00  0.00    +0.000 NA
ATOM      7  H   UNL     1      44.400  33.212  47.815  0.00  0.00    +0.000 HD
ATOM      8  H   UNL     1      44.658  31.782  49.848  0.00  0.00    +0.000 HD
ATOM      9  H   UNL     1      46.686  30.311  50.060  0.00  0.00    +0.000 HD
ENDROOT
BRANCH   1  14
ATOM     10  C   UNL     1      44.972  35.003  44.567  0.00  0.00    +0.000 A 
ATOM     11  C   UNL     1      45.924  34.848  43.536  0.00  0.00    +0.000 A 
ATOM     12  C   UNL     1      46.968  33.910  43.669  0.00  0.00    +0.000 A 
ATOM     13  N   UNL     1      46.971  33.213  44.817  0.00  0.00    +0.000 NA
ATOM     14  C   UNL     1      46.067  33.364  45.789  0.00  0.00    +0.000 A 
ATOM     15  N   UNL     1      45.072  34.260  45.658  0.00  0.00    +0.000 NA
ATOM     16  N   UNL     1      43.941  35.952  44.399  0.00  0.00    +0.000 N 
ATOM     17  H   UNL     1      45.845  35.451  42.648  0.00  0.00    +0.000 HD
ATOM     18  H   UNL     1      47.704  33.770  42.906  0.00  0.00    +0.000 HD
ATOM     19  H   UNL     1      43.549  36.081  43.438  0.00  0.00    +0.000 HD
ATOM     20  H   UNL     1      43.603  36.489  45.227  0.00  0.00    +0.000 HD
ENDBRANCH   1  14
BRANCH   5  21
ATOM     21  C   UNL     1      48.680  30.139  48.208  0.00  0.00    +0.000 C 
ATOM     22  C   UNL     1      49.784  30.496  48.863  0.00  0.00    +0.000 C 
BRANCH  22  23
ATOM     23  C   UNL     1      49.892  31.781  49.581  0.00  0.00    +0.000 C 
ATOM     24  H   UNL     1      48.947  32.349  49.389  0.00  0.00    +0.000 HD
ATOM     25  H   UNL     1      50.673  32.375  49.042  0.00  0.00    +0.000 HD
BRANCH  23  26
ATOM     26  C   UNL     1      50.152  31.668  51.018  0.00  0.00    +0.000 A 
ATOM     27  C   UNL     1      49.511  30.797  51.877  0.00  0.00    +0.000 A 
ATOM     28  C   UNL     1      49.911  30.855  53.197  0.00  0.00    +0.000 A 
ATOM     29  H   UNL     1      49.426  30.184  53.897  0.00  0.00    +0.000 HD
ATOM     30  N   UNL     1      50.856  31.684  53.664  0.00  0.00    +0.000 NA
ATOM     31  C   UNL     1      51.459  32.516  52.806  0.00  0.00    +0.000 A 
ATOM     32  N   UNL     1      51.101  32.492  51.519  0.00  0.00    +0.000 NA
ENDBRANCH  23  26
ENDBRANCH  22  23
ENDBRANCH   5  21
TORSDOF 4
