
 OpenBabel03252500423D

 26 28  0  0  1  0  0  0  0  0999 V2000
   36.8650   28.2040   42.2140 C   0  0  1  0  0  0  0  0  0  0  0  0
   36.3610   27.4160   43.4070 C   0  0  0  0  0  0  0  0  0  0  0  0
   37.1290   26.7380   42.3010 C   0  0  2  0  0  0  0  0  0  0  0  0
   37.7580   28.7940   42.4820 H   0  0  0  0  0  0  0  0  0  0  0  0
   36.7970   27.5320   44.3970 H   0  0  0  0  0  0  0  0  0  0  0  0
   35.2830   27.1220   43.4250 H   0  0  0  0  0  0  0  0  0  0  0  0
   36.6070   26.1200   41.5450 H   0  0  0  0  0  0  0  0  0  0  0  0
   38.4500   26.2220   42.7080 C   0  0  0  0  0  0  0  0  0  0  0  0
   39.4020   27.0140   43.3200 C   0  0  0  0  0  3  0  0  0  0  0  0
   40.6250   26.4740   43.6800 C   0  0  0  0  0  0  0  0  0  0  0  0
   41.3150   27.1580   44.1540 H   0  0  0  0  0  0  0  0  0  0  0  0
   40.8670   25.1980   43.4310 N   0  0  0  0  0  0  0  0  0  0  0  0
   39.9550   24.4120   42.8360 C   0  0  0  0  0  3  0  0  0  0  0  0
   38.7390   24.9090   42.4670 N   0  0  0  0  0  0  0  0  0  0  0  0
   35.8210   28.6760   41.2590 C   0  0  0  0  0  0  0  0  0  0  0  0
   35.4570   27.8630   40.5930 H   0  0  0  0  0  0  0  0  0  0  0  0
   34.8870   29.0200   41.7940 H   0  0  0  0  0  0  0  0  0  0  0  0
   36.2620   29.8480   40.4710 C   0  0  0  0  0  0  0  0  0  0  0  0
   36.3890   29.5920   39.1220 C   0  0  0  0  0  0  0  0  0  0  0  0
   36.8160   30.6010   38.2320 C   0  0  0  0  0  0  0  0  0  0  0  0
   37.0810   31.8100   38.8090 N   0  0  0  0  0  0  0  0  0  0  0  0
   36.9460   32.0340   40.1420 C   0  0  0  0  0  0  0  0  0  0  0  0
   36.5420   31.0710   40.9710 N   0  0  0  0  0  0  0  0  0  0  0  0
   36.2380   28.7600   38.4500 H   0  0  0  0  0  0  0  0  0  0  0  0
   36.9830   30.6310   37.1800 H   0  0  0  0  0  0  0  0  0  0  0  0
   37.1750   33.0230   40.5370 H   0  0  0  0  0  0  0  0  0  0  0  0
  1  3  1  0  0  0  0
  1  4  1  1  0  0  0
  1  2  1  0  0  0  0
  2  6  1  0  0  0  0
  2  5  1  0  0  0  0
  3  7  1  6  0  0  0
  3  8  1  0  0  0  0
  3  2  1  0  0  0  0
  8  9  1  0  0  0  0
  9 10  2  0  0  0  0
 10 11  1  0  0  0  0
 12 10  1  0  0  0  0
 13 12  2  0  0  0  0
 14  8  2  0  0  0  0
 14 13  1  0  0  0  0
 15 17  1  0  0  0  0
 15  1  1  0  0  0  0
 16 15  1  0  0  0  0
 18 23  1  0  0  0  0
 18 15  1  0  0  0  0
 19 18  2  0  0  0  0
 20 21  2  0  0  0  0
 20 19  1  0  0  0  0
 21 22  1  0  0  0  0
 22 26  1  0  0  0  0
 22 23  2  0  0  0  0
 24 19  1  0  0  0  0
 25 20  1  0  0  0  0
M  END
>  <minimizedAffinity>
-4.81243944

$$$$

 OpenBabel03252500423D

 26 28  0  0  1  0  0  0  0  0999 V2000
   37.7420   28.9500   42.2230 C   0  0  1  0  0  0  0  0  0  0  0  0
   37.4430   28.6480   43.6790 C   0  0  0  0  0  0  0  0  0  0  0  0
   37.1780   27.6220   42.6070 C   0  0  2  0  0  0  0  0  0  0  0  0
   38.8250   28.8880   42.0250 H   0  0  0  0  0  0  0  0  0  0  0  0
   38.2370   28.4980   44.4090 H   0  0  0  0  0  0  0  0  0  0  0  0
   36.5030   29.0620   44.1200 H   0  0  0  0  0  0  0  0  0  0  0  0
   36.1480   27.4280   42.2510 H   0  0  0  0  0  0  0  0  0  0  0  0
   38.0350   26.4230   42.6890 C   0  0  0  0  0  0  0  0  0  0  0  0
   37.7150   25.2360   42.0600 C   0  0  0  0  0  3  0  0  0  0  0  0
   38.5580   24.1430   42.1720 C   0  0  0  0  0  0  0  0  0  0  0  0
   38.2380   23.2520   41.6500 H   0  0  0  0  0  0  0  0  0  0  0  0
   39.6670   24.2520   42.8850 N   0  0  0  0  0  0  0  0  0  0  0  0
   39.9940   25.3980   43.5050 C   0  0  0  0  0  3  0  0  0  0  0  0
   39.1880   26.4950   43.4170 N   0  0  0  0  0  0  0  0  0  0  0  0
   36.8360   29.9350   41.5650 C   0  0  0  0  0  0  0  0  0  0  0  0
   36.1810   29.4640   40.8010 H   0  0  0  0  0  0  0  0  0  0  0  0
   36.1060   30.3900   42.2980 H   0  0  0  0  0  0  0  0  0  0  0  0
   37.5710   31.0870   40.9960 C   0  0  0  0  0  0  0  0  0  0  0  0
   36.8490   31.7920   40.0570 C   0  0  0  0  0  0  0  0  0  0  0  0
   37.4110   32.9110   39.4050 C   0  0  0  0  0  0  0  0  0  0  0  0
   38.6880   33.2200   39.7790 N   0  0  0  0  0  0  0  0  0  0  0  0
   39.3750   32.5070   40.7090 C   0  0  0  0  0  0  0  0  0  0  0  0
   38.8310   31.4520   41.3160 N   0  0  0  0  0  0  0  0  0  0  0  0
   35.8640   31.7560   39.6140 H   0  0  0  0  0  0  0  0  0  0  0  0
   37.0520   33.5890   38.6650 H   0  0  0  0  0  0  0  0  0  0  0  0
   40.3910   32.8080   40.9610 H   0  0  0  0  0  0  0  0  0  0  0  0
  1  4  1  6  0  0  0
  1  3  1  0  0  0  0
  1  2  1  0  0  0  0
  2  6  1  0  0  0  0
  2  5  1  0  0  0  0
  3  7  1  6  0  0  0
  3  8  1  0  0  0  0
  3  2  1  0  0  0  0
  8 14  1  0  0  0  0
  9 10  1  0  0  0  0
  9  8  2  0  0  0  0
 10 12  2  0  0  0  0
 11 10  1  0  0  0  0
 12 13  1  0  0  0  0
 14 13  2  0  0  0  0
 15  1  1  0  0  0  0
 15 17  1  0  0  0  0
 16 15  1  0  0  0  0
 18 23  1  0  0  0  0
 18 15  1  0  0  0  0
 19 18  2  0  0  0  0
 20 21  2  0  0  0  0
 20 19  1  0  0  0  0
 21 22  1  0  0  0  0
 22 26  1  0  0  0  0
 22 23  2  0  0  0  0
 24 19  1  0  0  0  0
 25 20  1  0  0  0  0
M  END
>  <minimizedAffinity>
-4.71037149

$$$$

 OpenBabel03252500423D

 26 28  0  0  1  0  0  0  0  0999 V2000
   36.9180   28.5350   41.2710 C   0  0  1  0  0  0  0  0  0  0  0  0
   35.7280   29.2560   40.6680 C   0  0  0  0  0  0  0  0  0  0  0  0
   36.6810   29.9740   41.5900 C   0  0  2  0  0  0  0  0  0  0  0  0
   37.7210   28.4120   40.5240 H   0  0  0  0  0  0  0  0  0  0  0  0
   35.6840   29.5060   39.6100 H   0  0  0  0  0  0  0  0  0  0  0  0
   34.7240   29.0920   41.1310 H   0  0  0  0  0  0  0  0  0  0  0  0
   36.4030   30.1820   42.6410 H   0  0  0  0  0  0  0  0  0  0  0  0
   37.4670   31.0400   40.9400 C   0  0  0  0  0  0  0  0  0  0  0  0
   36.9310   31.8840   39.9870 C   0  0  0  0  0  3  0  0  0  0  0  0
   37.7170   32.8680   39.4120 C   0  0  0  0  0  0  0  0  0  0  0  0
   37.2250   33.4860   38.6750 H   0  0  0  0  0  0  0  0  0  0  0  0
   38.9800   32.9880   39.7870 N   0  0  0  0  0  0  0  0  0  0  0  0
   39.5190   32.1770   40.7120 C   0  0  0  0  0  3  0  0  0  0  0  0
   38.7750   31.1960   41.3000 N   0  0  0  0  0  0  0  0  0  0  0  0
   36.6010   27.5210   42.3170 C   0  0  0  0  0  0  0  0  0  0  0  0
   36.1860   27.9800   43.2410 H   0  0  0  0  0  0  0  0  0  0  0  0
   35.7860   26.8120   41.9820 H   0  0  0  0  0  0  0  0  0  0  0  0
   37.7560   26.6510   42.6310 C   0  0  0  0  0  0  0  0  0  0  0  0
   38.7640   27.2950   43.3160 C   0  0  0  0  0  0  0  0  0  0  0  0
   39.9440   26.6110   43.6780 C   0  0  0  0  0  0  0  0  0  0  0  0
   39.9920   25.2990   43.3030 N   0  0  0  0  0  0  0  0  0  0  0  0
   38.9830   24.6890   42.6290 C   0  0  0  0  0  0  0  0  0  0  0  0
   37.8740   25.3480   42.2930 N   0  0  0  0  0  0  0  0  0  0  0  0
   38.9520   28.2810   43.7170 H   0  0  0  0  0  0  0  0  0  0  0  0
   40.8310   26.8970   44.1940 H   0  0  0  0  0  0  0  0  0  0  0  0
   39.0870   23.6390   42.3600 H   0  0  0  0  0  0  0  0  0  0  0  0
  1  4  1  6  0  0  0
  1  3  1  0  0  0  0
  1 15  1  0  0  0  0
  2  6  1  0  0  0  0
  2  1  1  0  0  0  0
  2  3  1  0  0  0  0
  3  7  1  1  0  0  0
  5  2  1  0  0  0  0
  8 14  1  0  0  0  0
  8  3  1  0  0  0  0
  9  8  2  0  0  0  0
 10 12  2  0  0  0  0
 10  9  1  0  0  0  0
 11 10  1  0  0  0  0
 12 13  1  0  0  0  0
 13 14  2  0  0  0  0
 15 18  1  0  0  0  0
 15 16  1  0  0  0  0
 17 15  1  0  0  0  0
 18 19  1  0  0  0  0
 19 20  2  0  0  0  0
 19 24  1  0  0  0  0
 20 25  1  0  0  0  0
 21 20  1  0  0  0  0
 22 21  2  0  0  0  0
 23 22  1  0  0  0  0
 23 18  2  0  0  0  0
 26 22  1  0  0  0  0
M  END
>  <minimizedAffinity>
-4.58221102

$$$$

 OpenBabel03252500423D

 26 28  0  0  1  0  0  0  0  0999 V2000
   37.0720   27.0620   42.2110 C   0  0  1  0  0  0  0  0  0  0  0  0
   36.9830   27.8390   43.5100 C   0  0  0  0  0  0  0  0  0  0  0  0
   38.0110   28.1930   42.4650 C   0  0  2  0  0  0  0  0  0  0  0  0
   36.2600   27.3550   41.5230 H   0  0  0  0  0  0  0  0  0  0  0  0
   36.1530   28.5090   43.7220 H   0  0  0  0  0  0  0  0  0  0  0  0
   37.4380   27.3870   44.4250 H   0  0  0  0  0  0  0  0  0  0  0  0
   39.0720   27.9040   42.5930 H   0  0  0  0  0  0  0  0  0  0  0  0
   37.8080   29.5120   41.8360 C   0  0  0  0  0  0  0  0  0  0  0  0
   38.8440   30.3980   41.6130 C   0  0  0  0  0  3  0  0  0  0  0  0
   38.5930   31.6220   41.0170 C   0  0  0  0  0  0  0  0  0  0  0  0
   39.4560   32.2580   40.8770 H   0  0  0  0  0  0  0  0  0  0  0  0
   37.3550   31.9300   40.6670 N   0  0  0  0  0  0  0  0  0  0  0  0
   36.3340   31.0820   40.8760 C   0  0  0  0  0  3  0  0  0  0  0  0
   36.5440   29.8670   41.4610 N   0  0  0  0  0  0  0  0  0  0  0  0
   37.5980   25.6710   42.3200 C   0  0  0  0  0  0  0  0  0  0  0  0
   38.6940   25.6460   42.5100 H   0  0  0  0  0  0  0  0  0  0  0  0
   37.1620   25.1250   43.2080 H   0  0  0  0  0  0  0  0  0  0  0  0
   37.2450   24.8380   41.1500 C   0  0  0  0  0  0  0  0  0  0  0  0
   37.7720   23.5650   41.1980 C   0  0  0  0  0  0  0  0  0  0  0  0
   37.5420   22.6470   40.1510 C   0  0  0  0  0  0  0  0  0  0  0  0
   36.7760   23.1190   39.1230 N   0  0  0  0  0  0  0  0  0  0  0  0
   36.2680   24.3790   39.1030 C   0  0  0  0  0  0  0  0  0  0  0  0
   36.4940   25.2340   40.0990 N   0  0  0  0  0  0  0  0  0  0  0  0
   38.3750   22.9760   41.8740 H   0  0  0  0  0  0  0  0  0  0  0  0
   37.8420   21.6390   39.9760 H   0  0  0  0  0  0  0  0  0  0  0  0
   35.6650   24.6910   38.2520 H   0  0  0  0  0  0  0  0  0  0  0  0
  1  4  1  6  0  0  0
  1 15  1  0  0  0  0
  1  3  1  0  0  0  0
  1  2  1  0  0  0  0
  2  5  1  0  0  0  0
  2  6  1  0  0  0  0
  3  7  1  1  0  0  0
  3  2  1  0  0  0  0
  8  3  1  0  0  0  0
  9  8  1  0  0  0  0
 10  9  2  0  0  0  0
 11 10  1  0  0  0  0
 12 13  2  0  0  0  0
 12 10  1  0  0  0  0
 13 14  1  0  0  0  0
 14  8  2  0  0  0  0
 15 16  1  0  0  0  0
 15 17  1  0  0  0  0
 18 19  1  0  0  0  0
 18 15  1  0  0  0  0
 19 24  1  0  0  0  0
 20 19  2  0  0  0  0
 21 20  1  0  0  0  0
 22 21  2  0  0  0  0
 22 23  1  0  0  0  0
 23 18  2  0  0  0  0
 25 20  1  0  0  0  0
 26 22  1  0  0  0  0
M  END
>  <minimizedAffinity>
-4.36894274

$$$$

 OpenBabel03252500423D

 26 28  0  0  1  0  0  0  0  0999 V2000
   37.1800   26.8550   42.0920 C   0  0  1  0  0  0  0  0  0  0  0  0
   36.5170   27.5840   43.2440 C   0  0  0  0  0  0  0  0  0  0  0  0
   37.8240   28.0700   42.6720 C   0  0  2  0  0  0  0  0  0  0  0  0
   36.6700   27.0820   41.1400 H   0  0  0  0  0  0  0  0  0  0  0  0
   35.6030   28.1590   43.1100 H   0  0  0  0  0  0  0  0  0  0  0  0
   36.6290   27.1570   44.2700 H   0  0  0  0  0  0  0  0  0  0  0  0
   38.7780   27.8870   43.2040 H   0  0  0  0  0  0  0  0  0  0  0  0
   37.7410   29.3770   41.9930 C   0  0  0  0  0  0  0  0  0  0  0  0
   38.8340   30.2100   41.8460 C   0  0  0  0  0  3  0  0  0  0  0  0
   38.6960   31.4260   41.1990 C   0  0  0  0  0  0  0  0  0  0  0  0
   39.5970   32.0190   41.1240 H   0  0  0  0  0  0  0  0  0  0  0  0
   37.5120   31.7760   40.7250 N   0  0  0  0  0  0  0  0  0  0  0  0
   36.4380   30.9810   40.8590 C   0  0  0  0  0  3  0  0  0  0  0  0
   36.5350   29.7750   41.4910 N   0  0  0  0  0  0  0  0  0  0  0  0
   37.7670   25.5240   42.4170 C   0  0  0  0  0  0  0  0  0  0  0  0
   37.5850   25.2270   43.4730 H   0  0  0  0  0  0  0  0  0  0  0  0
   37.2840   24.6940   41.8200 H   0  0  0  0  0  0  0  0  0  0  0  0
   39.2060   25.4420   42.0840 C   0  0  0  0  0  0  0  0  0  0  0  0
   40.0130   25.1980   43.1750 C   0  0  0  0  0  0  0  0  0  0  0  0
   41.4140   25.1070   43.0320 C   0  0  0  0  0  0  0  0  0  0  0  0
   41.8790   25.2760   41.7590 N   0  0  0  0  0  0  0  0  0  0  0  0
   41.0610   25.5140   40.7020 C   0  0  0  0  0  0  0  0  0  0  0  0
   39.7390   25.5980   40.8530 N   0  0  0  0  0  0  0  0  0  0  0  0
   39.8920   25.0260   44.2350 H   0  0  0  0  0  0  0  0  0  0  0  0
   42.2140   24.9310   43.7140 H   0  0  0  0  0  0  0  0  0  0  0  0
   41.4980   25.6390   39.7120 H   0  0  0  0  0  0  0  0  0  0  0  0
  1  4  1  6  0  0  0
  1 15  1  0  0  0  0
  1  3  1  0  0  0  0
  1  2  1  0  0  0  0
  2  6  1  0  0  0  0
  3  7  1  1  0  0  0
  3  2  1  0  0  0  0
  5  2  1  0  0  0  0
  8  3  1  0  0  0  0
  9  8  1  0  0  0  0
 10  9  2  0  0  0  0
 11 10  1  0  0  0  0
 12 13  2  0  0  0  0
 12 10  1  0  0  0  0
 13 14  1  0  0  0  0
 14  8  2  0  0  0  0
 15 16  1  0  0  0  0
 17 15  1  0  0  0  0
 18 15  1  0  0  0  0
 18 19  1  0  0  0  0
 19 24  1  0  0  0  0
 20 19  2  0  0  0  0
 20 25  1  0  0  0  0
 21 20  1  0  0  0  0
 22 23  1  0  0  0  0
 22 21  2  0  0  0  0
 23 18  2  0  0  0  0
 26 22  1  0  0  0  0
M  END
>  <minimizedAffinity>
-4.31986952

$$$$

 OpenBabel03252500423D

 26 28  0  0  1  0  0  0  0  0999 V2000
   36.2990   29.8940   40.1180 C   0  0  1  0  0  0  0  0  0  0  0  0
   34.9430   29.2220   40.0150 C   0  0  0  0  0  0  0  0  0  0  0  0
   36.2000   28.4910   39.6170 C   0  0  2  0  0  0  0  0  0  0  0  0
   36.6410   29.9270   41.1660 H   0  0  0  0  0  0  0  0  0  0  0  0
   34.3820   28.9230   40.8990 H   0  0  0  0  0  0  0  0  0  0  0  0
   34.2970   29.4740   39.1390 H   0  0  0  0  0  0  0  0  0  0  0  0
   36.4620   28.3540   38.5500 H   0  0  0  0  0  0  0  0  0  0  0  0
   36.5370   27.3450   40.4830 C   0  0  0  0  0  0  0  0  0  0  0  0
   36.7760   27.4800   41.8370 C   0  0  0  0  0  3  0  0  0  0  0  0
   37.0870   26.3670   42.5990 C   0  0  0  0  0  0  0  0  0  0  0  0
   37.2600   26.5560   43.6500 H   0  0  0  0  0  0  0  0  0  0  0  0
   37.1510   25.1810   42.0180 N   0  0  0  0  0  0  0  0  0  0  0  0
   36.9220   25.0300   40.7030 C   0  0  0  0  0  3  0  0  0  0  0  0
   36.6130   26.1040   39.9190 N   0  0  0  0  0  0  0  0  0  0  0  0
   36.5630   30.9780   39.1290 C   0  0  0  0  0  0  0  0  0  0  0  0
   36.9170   30.5830   38.1520 H   0  0  0  0  0  0  0  0  0  0  0  0
   35.6210   31.5420   38.8630 H   0  0  0  0  0  0  0  0  0  0  0  0
   37.4880   32.0080   39.6510 C   0  0  0  0  0  0  0  0  0  0  0  0
   38.5780   31.4860   40.3160 C   0  0  0  0  0  0  0  0  0  0  0  0
   39.5490   32.3350   40.8890 C   0  0  0  0  0  0  0  0  0  0  0  0
   39.3190   33.6720   40.7280 N   0  0  0  0  0  0  0  0  0  0  0  0
   38.2370   34.1580   40.0660 C   0  0  0  0  0  0  0  0  0  0  0  0
   37.3280   33.3430   39.5310 N   0  0  0  0  0  0  0  0  0  0  0  0
   38.9720   30.5100   40.5590 H   0  0  0  0  0  0  0  0  0  0  0  0
   40.4470   32.1620   41.4350 H   0  0  0  0  0  0  0  0  0  0  0  0
   38.1140   35.2360   39.9740 H   0  0  0  0  0  0  0  0  0  0  0  0
  1  4  1  1  0  0  0
  2  1  1  0  0  0  0
  2  5  1  0  0  0  0
  3  7  1  6  0  0  0
  3  2  1  0  0  0  0
  3  1  1  0  0  0  0
  3  8  1  0  0  0  0
  6  2  1  0  0  0  0
  8  9  1  0  0  0  0
  9 10  2  0  0  0  0
 10 11  1  0  0  0  0
 12 10  1  0  0  0  0
 13 12  2  0  0  0  0
 14  8  2  0  0  0  0
 14 13  1  0  0  0  0
 15 18  1  0  0  0  0
 15  1  1  0  0  0  0
 16 15  1  0  0  0  0
 17 15  1  0  0  0  0
 18 19  1  0  0  0  0
 19 24  1  0  0  0  0
 19 20  2  0  0  0  0
 20 25  1  0  0  0  0
 21 20  1  0  0  0  0
 22 21  2  0  0  0  0
 23 18  2  0  0  0  0
 23 22  1  0  0  0  0
 26 22  1  0  0  0  0
M  END
>  <minimizedAffinity>
-4.28204823

$$$$

 OpenBabel03252500423D

 26 28  0  0  1  0  0  0  0  0999 V2000
   39.6540   28.9980   42.2090 C   0  0  1  0  0  0  0  0  0  0  0  0
   40.7680   28.2630   42.9300 C   0  0  0  0  0  0  0  0  0  0  0  0
   39.3230   27.9970   43.2650 C   0  0  2  0  0  0  0  0  0  0  0  0
   39.5030   28.5850   41.1970 H   0  0  0  0  0  0  0  0  0  0  0  0
   41.3730   27.5070   42.4320 H   0  0  0  0  0  0  0  0  0  0  0  0
   41.3080   28.8000   43.7480 H   0  0  0  0  0  0  0  0  0  0  0  0
   38.8680   28.4150   44.1840 H   0  0  0  0  0  0  0  0  0  0  0  0
   38.8580   26.6410   42.9140 C   0  0  0  0  0  0  0  0  0  0  0  0
   39.6600   25.5230   43.0430 C   0  0  0  0  0  3  0  0  0  0  0  0
   39.1690   24.2750   42.6980 C   0  0  0  0  0  0  0  0  0  0  0  0
   39.8570   23.4520   42.8280 H   0  0  0  0  0  0  0  0  0  0  0  0
   37.9300   24.1690   42.2470 N   0  0  0  0  0  0  0  0  0  0  0  0
   37.1360   25.2450   42.1140 C   0  0  0  0  0  3  0  0  0  0  0  0
   37.5860   26.4900   42.4440 N   0  0  0  0  0  0  0  0  0  0  0  0
   39.5100   30.4440   42.5410 C   0  0  0  0  0  0  0  0  0  0  0  0
   39.1360   30.6070   43.5750 H   0  0  0  0  0  0  0  0  0  0  0  0
   40.5050   30.9800   42.5300 H   0  0  0  0  0  0  0  0  0  0  0  0
   38.6770   31.1710   41.5570 C   0  0  0  0  0  0  0  0  0  0  0  0
   37.5120   30.5130   41.2250 C   0  0  0  0  0  0  0  0  0  0  0  0
   36.6130   31.0630   40.2870 C   0  0  0  0  0  0  0  0  0  0  0  0
   36.9890   32.2650   39.7580 N   0  0  0  0  0  0  0  0  0  0  0  0
   38.1430   32.8920   40.1050 C   0  0  0  0  0  0  0  0  0  0  0  0
   38.9830   32.3590   40.9920 N   0  0  0  0  0  0  0  0  0  0  0  0
   37.0070   29.5980   41.4980 H   0  0  0  0  0  0  0  0  0  0  0  0
   35.6790   30.7420   39.8870 H   0  0  0  0  0  0  0  0  0  0  0  0
   38.3840   33.8490   39.6440 H   0  0  0  0  0  0  0  0  0  0  0  0
  1  4  1  6  0  0  0
  1 15  1  0  0  0  0
  1  2  1  0  0  0  0
  1  3  1  0  0  0  0
  2  3  1  0  0  0  0
  2  6  1  0  0  0  0
  3  7  1  1  0  0  0
  5  2  1  0  0  0  0
  8  9  1  0  0  0  0
  8  3  1  0  0  0  0
 10 11  1  0  0  0  0
 10  9  2  0  0  0  0
 12 10  1  0  0  0  0
 13 12  2  0  0  0  0
 13 14  1  0  0  0  0
 14  8  2  0  0  0  0
 15 16  1  0  0  0  0
 17 15  1  0  0  0  0
 18 15  1  0  0  0  0
 19 24  1  0  0  0  0
 19 18  1  0  0  0  0
 20 19  2  0  0  0  0
 21 22  2  0  0  0  0
 21 20  1  0  0  0  0
 22 23  1  0  0  0  0
 23 18  2  0  0  0  0
 25 20  1  0  0  0  0
 26 22  1  0  0  0  0
M  END
>  <minimizedAffinity>
-4.2789588

$$$$

 OpenBabel03252500423D

 26 28  0  0  1  0  0  0  0  0999 V2000
   37.4190   31.3430   39.9830 C   0  0  1  0  0  0  0  0  0  0  0  0
   36.9530   32.5890   39.2560 C   0  0  0  0  0  0  0  0  0  0  0  0
   38.1250   32.6400   40.2020 C   0  0  2  0  0  0  0  0  0  0  0  0
   37.9850   30.6820   39.3050 H   0  0  0  0  0  0  0  0  0  0  0  0
   37.0960   32.7160   38.1850 H   0  0  0  0  0  0  0  0  0  0  0  0
   36.0560   33.1250   39.6540 H   0  0  0  0  0  0  0  0  0  0  0  0
   38.0170   33.0690   41.2160 H   0  0  0  0  0  0  0  0  0  0  0  0
   39.4190   32.9250   39.5510 C   0  0  0  0  0  0  0  0  0  0  0  0
   39.8410   32.2640   38.4140 C   0  0  0  0  0  3  0  0  0  0  0  0
   41.0650   32.5740   37.8460 C   0  0  0  0  0  0  0  0  0  0  0  0
   41.3230   32.0130   36.9590 H   0  0  0  0  0  0  0  0  0  0  0  0
   41.8180   33.5080   38.4030 N   0  0  0  0  0  0  0  0  0  0  0  0
   41.4250   34.1610   39.5090 C   0  0  0  0  0  3  0  0  0  0  0  0
   40.2250   33.8810   40.0970 N   0  0  0  0  0  0  0  0  0  0  0  0
   36.5170   30.8430   41.0600 C   0  0  0  0  0  0  0  0  0  0  0  0
   36.3730   31.5880   41.8730 H   0  0  0  0  0  0  0  0  0  0  0  0
   35.4690   30.6600   40.6780 H   0  0  0  0  0  0  0  0  0  0  0  0
   36.9550   29.5400   41.6070 C   0  0  0  0  0  0  0  0  0  0  0  0
   37.9930   29.6410   42.5100 C   0  0  0  0  0  0  0  0  0  0  0  0
   38.5400   28.4890   43.1130 C   0  0  0  0  0  0  0  0  0  0  0  0
   37.9670   27.3080   42.7350 N   0  0  0  0  0  0  0  0  0  0  0  0
   36.9440   27.2380   41.8440 C   0  0  0  0  0  0  0  0  0  0  0  0
   36.4380   28.3360   41.2820 N   0  0  0  0  0  0  0  0  0  0  0  0
   38.5860   30.4240   42.9600 H   0  0  0  0  0  0  0  0  0  0  0  0
   39.3230   28.3280   43.8180 H   0  0  0  0  0  0  0  0  0  0  0  0
   36.5330   26.2640   41.5860 H   0  0  0  0  0  0  0  0  0  0  0  0
  1  4  1  6  0  0  0
  1  3  1  0  0  0  0
  1 15  1  0  0  0  0
  2  6  1  0  0  0  0
  2  1  1  0  0  0  0
  2  3  1  0  0  0  0
  3  7  1  1  0  0  0
  5  2  1  0  0  0  0
  8 14  1  0  0  0  0
  8  3  1  0  0  0  0
  9  8  2  0  0  0  0
 10 12  2  0  0  0  0
 10  9  1  0  0  0  0
 11 10  1  0  0  0  0
 12 13  1  0  0  0  0
 13 14  2  0  0  0  0
 15 18  1  0  0  0  0
 15 16  1  0  0  0  0
 17 15  1  0  0  0  0
 18 19  1  0  0  0  0
 19 24  1  0  0  0  0
 19 20  2  0  0  0  0
 20 25  1  0  0  0  0
 21 20  1  0  0  0  0
 22 21  2  0  0  0  0
 23 18  2  0  0  0  0
 23 22  1  0  0  0  0
 26 22  1  0  0  0  0
M  END
>  <minimizedAffinity>
-4.26419163

$$$$

 OpenBabel03252500423D

 26 28  0  0  1  0  0  0  0  0999 V2000
   38.5620   27.4800   42.6080 C   0  0  1  0  0  0  0  0  0  0  0  0
   37.0470   27.5360   42.6370 C   0  0  0  0  0  0  0  0  0  0  0  0
   37.8710   28.7440   43.0020 C   0  0  2  0  0  0  0  0  0  0  0  0
   38.9360   27.5290   41.5710 H   0  0  0  0  0  0  0  0  0  0  0  0
   36.4540   27.5210   41.7250 H   0  0  0  0  0  0  0  0  0  0  0  0
   36.5220   27.0910   43.5180 H   0  0  0  0  0  0  0  0  0  0  0  0
   38.0030   29.0410   44.0610 H   0  0  0  0  0  0  0  0  0  0  0  0
   37.7450   29.8720   42.0600 C   0  0  0  0  0  0  0  0  0  0  0  0
   36.5760   30.1430   41.3760 C   0  0  0  0  0  3  0  0  0  0  0  0
   36.5170   31.2170   40.5040 C   0  0  0  0  0  0  0  0  0  0  0  0
   35.5670   31.3620   40.0080 H   0  0  0  0  0  0  0  0  0  0  0  0
   37.5880   31.9750   40.3370 N   0  0  0  0  0  0  0  0  0  0  0  0
   38.7330   31.7270   40.9930 C   0  0  0  0  0  3  0  0  0  0  0  0
   38.8290   30.6770   41.8600 N   0  0  0  0  0  0  0  0  0  0  0  0
   39.2030   26.6650   43.6790 C   0  0  0  0  0  0  0  0  0  0  0  0
   38.9780   27.0500   44.6980 H   0  0  0  0  0  0  0  0  0  0  0  0
   38.8030   25.6090   43.7000 H   0  0  0  0  0  0  0  0  0  0  0  0
   40.6610   26.5150   43.4810 C   0  0  0  0  0  0  0  0  0  0  0  0
   41.3470   27.7120   43.4860 C   0  0  0  0  0  0  0  0  0  0  0  0
   42.7440   27.7450   43.2930 C   0  0  0  0  0  0  0  0  0  0  0  0
   43.3340   26.5270   43.1090 N   0  0  0  0  0  0  0  0  0  0  0  0
   42.6340   25.3630   43.1110 C   0  0  0  0  0  0  0  0  0  0  0  0
   41.3140   25.3470   43.2940 N   0  0  0  0  0  0  0  0  0  0  0  0
   41.1200   28.7600   43.6130 H   0  0  0  0  0  0  0  0  0  0  0  0
   43.4630   28.5310   43.2570 H   0  0  0  0  0  0  0  0  0  0  0  0
   43.1670   24.4260   42.9590 H   0  0  0  0  0  0  0  0  0  0  0  0
  1  4  1  6  0  0  0
  1  2  1  0  0  0  0
  1  3  1  0  0  0  0
  1 15  1  0  0  0  0
  2  3  1  0  0  0  0
  2  6  1  0  0  0  0
  3  7  1  1  0  0  0
  5  2  1  0  0  0  0
  8  3  1  0  0  0  0
  9  8  2  0  0  0  0
 10  9  1  0  0  0  0
 11 10  1  0  0  0  0
 12 10  2  0  0  0  0
 12 13  1  0  0  0  0
 13 14  2  0  0  0  0
 14  8  1  0  0  0  0
 15 17  1  0  0  0  0
 15 16  1  0  0  0  0
 18 19  1  0  0  0  0
 18 15  1  0  0  0  0
 19 24  1  0  0  0  0
 20 19  2  0  0  0  0
 21 22  2  0  0  0  0
 21 20  1  0  0  0  0
 22 23  1  0  0  0  0
 23 18  2  0  0  0  0
 25 20  1  0  0  0  0
 26 22  1  0  0  0  0
M  END
>  <minimizedAffinity>
-4.26327801

$$$$
