
 OpenBabel03252509213D

 23 25  0  0  0  0  0  0  0  0999 V2000
   44.7570   35.4390   45.5190 C   0  0  0  0  0  0  0  0  0  0  0  0
   45.2970   35.9760   44.3190 C   0  0  0  0  0  0  0  0  0  0  0  0
   45.8210   35.0410   43.4520 C   0  0  0  0  0  0  0  0  0  0  0  0
   45.7900   33.7020   43.7940 N   0  0  0  0  0  0  0  0  0  0  0  0
   45.2700   33.2470   44.9380 C   0  0  0  0  0  0  0  0  0  0  0  0
   44.7540   34.1400   45.7950 N   0  0  0  0  0  0  0  0  0  0  0  0
   44.3060   35.9910   46.3220 H   0  0  0  0  0  0  0  0  0  0  0  0
   45.3680   32.1710   44.9630 H   0  0  0  0  0  0  0  0  0  0  0  0
   46.3180   35.4780   42.0970 C   0  0  0  0  0  0  0  0  0  0  0  0
   47.8230   35.2120   41.9610 C   0  0  0  0  0  0  0  0  0  0  0  0
   46.7250   34.4490   41.1570 C   0  0  0  0  0  0  0  0  0  0  0  0
   46.1800   36.5640   41.8920 H   0  0  0  0  0  0  0  0  0  0  0  0
   48.3310   34.5590   42.6780 H   0  0  0  0  0  0  0  0  0  0  0  0
   48.4350   35.8500   41.3310 H   0  0  0  0  0  0  0  0  0  0  0  0
   46.5690   33.3920   41.3690 H   0  0  0  0  0  0  0  0  0  0  0  0
   46.6330   34.7200   40.0700 H   0  0  0  0  0  0  0  0  0  0  0  0
   45.2630   37.4120   44.1170 C   0  0  0  0  0  0  0  0  0  0  0  0
   45.2120   38.2270   45.2220 C   0  0  0  0  0  3  0  0  0  0  0  0
   45.1670   39.6020   45.1850 C   0  0  0  0  0  0  0  0  0  0  0  0
   45.1260   40.2860   46.0100 H   0  0  0  0  0  0  0  0  0  0  0  0
   45.1720   40.2300   43.9740 N   0  0  0  0  0  0  0  0  0  0  0  0
   45.2220   39.4240   42.9000 C   0  0  0  0  0  3  0  0  0  0  0  0
   45.2640   38.1110   42.9920 N   0  0  0  0  0  0  0  0  0  0  0  0
  1  6  1  0  0  0  0
  1  7  1  0  0  0  0
  2  1  2  0  0  0  0
  3  4  2  0  0  0  0
  3  2  1  0  0  0  0
  4  5  1  0  0  0  0
  5  8  1  0  0  0  0
  5  6  2  0  0  0  0
  9  3  1  0  0  0  0
 10  9  1  0  0  0  0
 10 13  1  0  0  0  0
 11 15  1  0  0  0  0
 11 10  1  0  0  0  0
 11  9  1  0  0  0  0
 12  9  1  0  0  0  0
 14 10  1  0  0  0  0
 16 11  1  0  0  0  0
 17  2  1  0  0  0  0
 17 18  1  0  0  0  0
 19 18  2  0  0  0  0
 19 20  1  0  0  0  0
 21 19  1  0  0  0  0
 22 23  1  0  0  0  0
 22 21  2  0  0  0  0
 23 17  2  0  0  0  0
M  END
>  <minimizedAffinity>
-0.0697396547

>  <minimizedRMSD>
2.15359735

$$$$
