
 OpenBabel03252508573D

 22 23  0  0  0  0  0  0  0  0999 V2000
   37.5040   28.3030   43.6560 C   0  0  0  0  0  0  0  0  0  0  0  0
   37.0310   28.7040   44.5690 H   0  0  0  0  0  0  0  0  0  0  0  0
   38.5140   27.8640   43.9110 H   0  0  0  0  0  0  0  0  0  0  0  0
   39.3090   31.0100   41.7700 C   0  0  0  0  0  0  0  0  0  0  0  0
   39.0530   29.9690   42.6920 C   0  0  0  0  0  0  0  0  0  0  0  0
   37.7840   29.3900   42.6970 C   0  0  0  0  0  0  0  0  0  0  0  0
   36.8810   29.8690   41.8100 N   0  0  0  0  0  0  0  0  0  0  0  0
   37.1550   30.8660   40.9390 C   0  0  0  0  0  0  0  0  0  0  0  0
   38.3640   31.4300   40.9240 N   0  0  0  0  0  0  0  0  0  0  0  0
   40.2760   31.4980   41.7200 H   0  0  0  0  0  0  0  0  0  0  0  0
   39.8590   29.6750   43.3510 H   0  0  0  0  0  0  0  0  0  0  0  0
   36.2730   31.0630   40.3440 H   0  0  0  0  0  0  0  0  0  0  0  0
   36.6920   27.2360   42.9730 C   0  0  0  0  0  0  0  0  0  0  0  0
   36.1810   27.6980   42.1180 H   0  0  0  0  0  0  0  0  0  0  0  0
   35.9280   26.8400   43.6760 H   0  0  0  0  0  0  0  0  0  0  0  0
   37.5350   26.1020   42.5360 C   0  0  0  0  0  0  0  0  0  0  0  0
   36.9610   25.0160   41.9140 C   0  0  0  0  0  3  0  0  0  0  0  0
   37.5990   23.8840   41.4460 C   0  0  0  0  0  0  0  0  0  0  0  0
   37.0390   23.0970   40.9740 H   0  0  0  0  0  0  0  0  0  0  0  0
   38.9480   23.8810   41.6440 N   0  0  0  0  0  0  0  0  0  0  0  0
   39.5490   24.9200   42.2470 C   0  0  0  0  0  3  0  0  0  0  0  0
   38.8760   26.0200   42.6930 N   0  0  0  0  0  0  0  0  0  0  0  0
  1  3  1  0  0  0  0
  1  2  1  0  0  0  0
  4  5  1  0  0  0  0
  5  6  2  0  0  0  0
  5 11  1  0  0  0  0
  6  1  1  0  0  0  0
  7  6  1  0  0  0  0
  8  7  2  0  0  0  0
  9  8  1  0  0  0  0
  9  4  2  0  0  0  0
 10  4  1  0  0  0  0
 12  8  1  0  0  0  0
 13  1  1  0  0  0  0
 13 15  1  0  0  0  0
 14 13  1  0  0  0  0
 16 22  1  0  0  0  0
 16 13  1  0  0  0  0
 17 16  2  0  0  0  0
 18 20  2  0  0  0  0
 18 17  1  0  0  0  0
 19 18  1  0  0  0  0
 20 21  1  0  0  0  0
 21 22  2  0  0  0  0
M  END
>  <minimizedAffinity>
-4.26572037

$$$$

 OpenBabel03252508573D

 22 23  0  0  0  0  0  0  0  0999 V2000
   36.6940   27.2180   43.0610 C   0  0  0  0  0  0  0  0  0  0  0  0
   35.8970   26.8810   43.7470 H   0  0  0  0  0  0  0  0  0  0  0  0
   36.2320   27.6440   42.1220 H   0  0  0  0  0  0  0  0  0  0  0  0
   37.6670   23.9260   41.5290 C   0  0  0  0  0  0  0  0  0  0  0  0
   36.8760   25.0170   41.9560 C   0  0  0  0  0  0  0  0  0  0  0  0
   37.5100   26.0740   42.6100 C   0  0  0  0  0  0  0  0  0  0  0  0
   38.8470   25.9780   42.7910 N   0  0  0  0  0  0  0  0  0  0  0  0
   39.5780   24.9220   42.3710 C   0  0  0  0  0  0  0  0  0  0  0  0
   38.9860   23.9030   41.7440 N   0  0  0  0  0  0  0  0  0  0  0  0
   37.2320   23.0760   41.0150 H   0  0  0  0  0  0  0  0  0  0  0  0
   35.8150   24.9750   41.7520 H   0  0  0  0  0  0  0  0  0  0  0  0
   40.6150   25.0860   42.6340 H   0  0  0  0  0  0  0  0  0  0  0  0
   37.5960   28.2680   43.6530 C   0  0  0  0  0  0  0  0  0  0  0  0
   38.5370   27.7790   43.9380 H   0  0  0  0  0  0  0  0  0  0  0  0
   37.1240   28.6970   44.5630 H   0  0  0  0  0  0  0  0  0  0  0  0
   37.8410   29.3760   42.7050 C   0  0  0  0  0  0  0  0  0  0  0  0
   39.0600   30.0160   42.6930 C   0  0  0  0  0  3  0  0  0  0  0  0
   39.4510   31.0610   41.8790 C   0  0  0  0  0  0  0  0  0  0  0  0
   40.4370   31.4800   41.9640 H   0  0  0  0  0  0  0  0  0  0  0  0
   38.4910   31.4750   41.0030 N   0  0  0  0  0  0  0  0  0  0  0  0
   37.2880   30.8790   40.9800 C   0  0  0  0  0  3  0  0  0  0  0  0
   36.9470   29.8480   41.8060 N   0  0  0  0  0  0  0  0  0  0  0  0
  1 13  1  0  0  0  0
  1  2  1  0  0  0  0
  3  1  1  0  0  0  0
  4  9  2  0  0  0  0
  4  5  1  0  0  0  0
  5  6  2  0  0  0  0
  6  7  1  0  0  0  0
  6  1  1  0  0  0  0
  8 12  1  0  0  0  0
  8  7  2  0  0  0  0
  9  8  1  0  0  0  0
 10  4  1  0  0  0  0
 11  5  1  0  0  0  0
 13 14  1  0  0  0  0
 13 15  1  0  0  0  0
 16 13  1  0  0  0  0
 17 16  1  0  0  0  0
 18 19  1  0  0  0  0
 18 17  2  0  0  0  0
 20 18  1  0  0  0  0
 21 20  2  0  0  0  0
 21 22  1  0  0  0  0
 22 16  2  0  0  0  0
M  END
>  <minimizedAffinity>
-4.23953056

$$$$

 OpenBabel03252508573D

 22 23  0  0  0  0  0  0  0  0999 V2000
   38.9300   29.0840   42.8980 C   0  0  0  0  0  0  0  0  0  0  0  0
   39.5240   29.5750   43.6880 H   0  0  0  0  0  0  0  0  0  0  0  0
   39.6140   28.4880   42.2230 H   0  0  0  0  0  0  0  0  0  0  0  0
   36.3550   30.9210   40.8650 C   0  0  0  0  0  0  0  0  0  0  0  0
   36.9480   29.9510   41.7060 C   0  0  0  0  0  0  0  0  0  0  0  0
   38.3000   30.0910   42.0220 C   0  0  0  0  0  0  0  0  0  0  0  0
   38.9520   31.1530   41.4970 N   0  0  0  0  0  0  0  0  0  0  0  0
   38.3580   32.0650   40.6950 C   0  0  0  0  0  0  0  0  0  0  0  0
   37.0660   31.9450   40.3840 N   0  0  0  0  0  0  0  0  0  0  0  0
   35.3090   30.8650   40.5860 H   0  0  0  0  0  0  0  0  0  0  0  0
   36.3190   29.1460   42.0630 H   0  0  0  0  0  0  0  0  0  0  0  0
   39.0890   32.8100   40.4100 H   0  0  0  0  0  0  0  0  0  0  0  0
   37.8720   28.1540   43.4270 C   0  0  0  0  0  0  0  0  0  0  0  0
   36.9010   28.5030   43.0530 H   0  0  0  0  0  0  0  0  0  0  0  0
   37.8630   28.1910   44.5380 H   0  0  0  0  0  0  0  0  0  0  0  0
   38.1230   26.7530   43.0230 C   0  0  0  0  0  0  0  0  0  0  0  0
   37.1350   26.0310   42.3910 C   0  0  0  0  0  3  0  0  0  0  0  0
   37.2040   24.7240   41.9500 C   0  0  0  0  0  0  0  0  0  0  0  0
   36.3600   24.2650   41.4670 H   0  0  0  0  0  0  0  0  0  0  0  0
   38.4020   24.1170   42.1890 N   0  0  0  0  0  0  0  0  0  0  0  0
   39.3930   24.7840   42.8020 C   0  0  0  0  0  3  0  0  0  0  0  0
   39.2780   26.0780   43.2200 N   0  0  0  0  0  0  0  0  0  0  0  0
  1 13  1  0  0  0  0
  1  2  1  0  0  0  0
  3  1  1  0  0  0  0
  4  5  1  0  0  0  0
  5  6  2  0  0  0  0
  5 11  1  0  0  0  0
  6  1  1  0  0  0  0
  7  6  1  0  0  0  0
  8  7  2  0  0  0  0
  9  8  1  0  0  0  0
  9  4  2  0  0  0  0
 10  4  1  0  0  0  0
 12  8  1  0  0  0  0
 13 15  1  0  0  0  0
 14 13  1  0  0  0  0
 16 22  1  0  0  0  0
 16 13  1  0  0  0  0
 17 16  2  0  0  0  0
 18 20  2  0  0  0  0
 18 17  1  0  0  0  0
 19 18  1  0  0  0  0
 20 21  1  0  0  0  0
 21 22  2  0  0  0  0
M  END
>  <minimizedAffinity>
-4.17928362

$$$$

 OpenBabel03252508573D

 22 23  0  0  0  0  0  0  0  0999 V2000
   37.0840   27.5820   42.8710 C   0  0  0  0  0  0  0  0  0  0  0  0
   36.1990   27.3060   43.4710 H   0  0  0  0  0  0  0  0  0  0  0  0
   36.7920   27.6760   41.7830 H   0  0  0  0  0  0  0  0  0  0  0  0
   40.2290   25.6790   43.6620 C   0  0  0  0  0  0  0  0  0  0  0  0
   39.2690   26.7160   43.6310 C   0  0  0  0  0  0  0  0  0  0  0  0
   38.0930   26.5060   42.9100 C   0  0  0  0  0  0  0  0  0  0  0  0
   37.9540   25.3130   42.2860 N   0  0  0  0  0  0  0  0  0  0  0  0
   38.8900   24.3390   42.3330 C   0  0  0  0  0  0  0  0  0  0  0  0
   40.0200   24.5260   43.0180 N   0  0  0  0  0  0  0  0  0  0  0  0
   41.1610   25.7840   44.2050 H   0  0  0  0  0  0  0  0  0  0  0  0
   39.4970   27.6250   44.1720 H   0  0  0  0  0  0  0  0  0  0  0  0
   38.5420   23.4910   41.7570 H   0  0  0  0  0  0  0  0  0  0  0  0
   37.7220   28.8770   43.2950 C   0  0  0  0  0  0  0  0  0  0  0  0
   38.7570   28.6600   43.5900 H   0  0  0  0  0  0  0  0  0  0  0  0
   37.1780   29.2930   44.1700 H   0  0  0  0  0  0  0  0  0  0  0  0
   37.6810   29.8870   42.2150 C   0  0  0  0  0  0  0  0  0  0  0  0
   38.8360   30.5310   41.8300 C   0  0  0  0  0  3  0  0  0  0  0  0
   38.9720   31.4920   40.8460 C   0  0  0  0  0  0  0  0  0  0  0  0
   39.9330   31.9250   40.6350 H   0  0  0  0  0  0  0  0  0  0  0  0
   37.8080   31.8080   40.2110 N   0  0  0  0  0  0  0  0  0  0  0  0
   36.6590   31.2040   40.5540 C   0  0  0  0  0  3  0  0  0  0  0  0
   36.5730   30.2580   41.5340 N   0  0  0  0  0  0  0  0  0  0  0  0
  1  6  1  0  0  0  0
  1 13  1  0  0  0  0
  1  2  1  0  0  0  0
  3  1  1  0  0  0  0
  4 10  1  0  0  0  0
  5  4  1  0  0  0  0
  5 11  1  0  0  0  0
  6  5  2  0  0  0  0
  7  8  2  0  0  0  0
  7  6  1  0  0  0  0
  8  9  1  0  0  0  0
  9  4  2  0  0  0  0
 12  8  1  0  0  0  0
 13 14  1  0  0  0  0
 13 15  1  0  0  0  0
 16 13  1  0  0  0  0
 17 16  1  0  0  0  0
 18 17  2  0  0  0  0
 19 18  1  0  0  0  0
 20 21  2  0  0  0  0
 20 18  1  0  0  0  0
 21 22  1  0  0  0  0
 22 16  2  0  0  0  0
M  END
>  <minimizedAffinity>
-4.15090466

$$$$

 OpenBabel03252508573D

 22 23  0  0  0  0  0  0  0  0999 V2000
   37.7140   28.5640   43.3990 C   0  0  0  0  0  0  0  0  0  0  0  0
   37.4620   28.9540   44.4000 H   0  0  0  0  0  0  0  0  0  0  0  0
   38.7670   28.1510   43.4040 H   0  0  0  0  0  0  0  0  0  0  0  0
   38.9350   31.3710   41.2140 C   0  0  0  0  0  0  0  0  0  0  0  0
   38.9310   30.3260   42.1660 C   0  0  0  0  0  0  0  0  0  0  0  0
   37.7310   29.6570   42.4060 C   0  0  0  0  0  0  0  0  0  0  0  0
   36.6460   30.0590   41.7050 N   0  0  0  0  0  0  0  0  0  0  0  0
   36.6790   31.0630   40.8000 C   0  0  0  0  0  0  0  0  0  0  0  0
   37.8200   31.7120   40.5600 N   0  0  0  0  0  0  0  0  0  0  0  0
   39.8370   31.9260   40.9850 H   0  0  0  0  0  0  0  0  0  0  0  0
   39.8650   30.0970   42.6620 H   0  0  0  0  0  0  0  0  0  0  0  0
   35.6900   31.1890   40.3800 H   0  0  0  0  0  0  0  0  0  0  0  0
   36.7900   27.4760   42.9230 C   0  0  0  0  0  0  0  0  0  0  0  0
   36.2440   27.8570   42.0500 H   0  0  0  0  0  0  0  0  0  0  0  0
   36.0600   27.2280   43.7240 H   0  0  0  0  0  0  0  0  0  0  0  0
   37.5290   26.2390   42.5870 C   0  0  0  0  0  0  0  0  0  0  0  0
   38.8710   26.1380   42.8780 C   0  0  0  0  0  3  0  0  0  0  0  0
   39.7030   25.0620   42.6330 C   0  0  0  0  0  0  0  0  0  0  0  0
   40.7420   25.1020   42.9080 H   0  0  0  0  0  0  0  0  0  0  0  0
   39.0860   24.0040   42.0350 N   0  0  0  0  0  0  0  0  0  0  0  0
   37.7780   24.0600   41.7340 C   0  0  0  0  0  3  0  0  0  0  0  0
   36.9950   25.1460   41.9950 N   0  0  0  0  0  0  0  0  0  0  0  0
  1  3  1  0  0  0  0
  1  2  1  0  0  0  0
  4  5  1  0  0  0  0
  5  6  2  0  0  0  0
  5 11  1  0  0  0  0
  6  1  1  0  0  0  0
  7  6  1  0  0  0  0
  8  7  2  0  0  0  0
  9  8  1  0  0  0  0
  9  4  2  0  0  0  0
 10  4  1  0  0  0  0
 12  8  1  0  0  0  0
 13  1  1  0  0  0  0
 13 15  1  0  0  0  0
 14 13  1  0  0  0  0
 16 17  1  0  0  0  0
 16 13  1  0  0  0  0
 18 17  2  0  0  0  0
 18 19  1  0  0  0  0
 20 18  1  0  0  0  0
 21 22  1  0  0  0  0
 21 20  2  0  0  0  0
 22 16  2  0  0  0  0
M  END
>  <minimizedAffinity>
-4.07341194

$$$$

 OpenBabel03252508573D

 22 23  0  0  0  0  0  0  0  0999 V2000
   38.0670   27.0010   43.0680 C   0  0  0  0  0  0  0  0  0  0  0  0
   38.8540   27.7420   42.8420 H   0  0  0  0  0  0  0  0  0  0  0  0
   38.2040   26.6090   44.1190 H   0  0  0  0  0  0  0  0  0  0  0  0
   37.2580   23.8170   41.2400 C   0  0  0  0  0  0  0  0  0  0  0  0
   37.1200   24.9450   42.0810 C   0  0  0  0  0  0  0  0  0  0  0  0
   38.2000   25.8210   42.1920 C   0  0  0  0  0  0  0  0  0  0  0  0
   39.3120   25.5260   41.4810 N   0  0  0  0  0  0  0  0  0  0  0  0
   39.4170   24.4390   40.6850 C   0  0  0  0  0  0  0  0  0  0  0  0
   38.3920   23.5920   40.5680 N   0  0  0  0  0  0  0  0  0  0  0  0
   36.4540   23.1020   41.1130 H   0  0  0  0  0  0  0  0  0  0  0  0
   36.1770   25.0710   42.5970 H   0  0  0  0  0  0  0  0  0  0  0  0
   40.3990   24.4300   40.2310 H   0  0  0  0  0  0  0  0  0  0  0  0
   36.6700   27.5490   42.9540 C   0  0  0  0  0  0  0  0  0  0  0  0
   36.3490   27.8610   43.9570 H   0  0  0  0  0  0  0  0  0  0  0  0
   35.9850   26.7540   42.5890 H   0  0  0  0  0  0  0  0  0  0  0  0
   36.6010   28.6780   42.0010 C   0  0  0  0  0  0  0  0  0  0  0  0
   35.6730   28.6660   40.9840 C   0  0  0  0  0  3  0  0  0  0  0  0
   35.4760   29.6320   40.0170 C   0  0  0  0  0  0  0  0  0  0  0  0
   34.7130   29.5090   39.2700 H   0  0  0  0  0  0  0  0  0  0  0  0
   36.3160   30.7010   40.1160 N   0  0  0  0  0  0  0  0  0  0  0  0
   37.2360   30.7540   41.0930 C   0  0  0  0  0  3  0  0  0  0  0  0
   37.3940   29.7740   42.0290 N   0  0  0  0  0  0  0  0  0  0  0  0
  1  3  1  0  0  0  0
  2  1  1  0  0  0  0
  4  5  1  0  0  0  0
  5  6  2  0  0  0  0
  5 11  1  0  0  0  0
  6  1  1  0  0  0  0
  7  6  1  0  0  0  0
  8  7  2  0  0  0  0
  9  8  1  0  0  0  0
  9  4  2  0  0  0  0
 10  4  1  0  0  0  0
 12  8  1  0  0  0  0
 13  1  1  0  0  0  0
 13 14  1  0  0  0  0
 15 13  1  0  0  0  0
 16 22  1  0  0  0  0
 16 13  1  0  0  0  0
 17 16  2  0  0  0  0
 18 20  2  0  0  0  0
 18 17  1  0  0  0  0
 19 18  1  0  0  0  0
 20 21  1  0  0  0  0
 21 22  2  0  0  0  0
M  END
>  <minimizedAffinity>
-3.97463632

$$$$

 OpenBabel03252508573D

 22 23  0  0  0  0  0  0  0  0999 V2000
   36.3120   27.7740   40.0590 C   0  0  0  0  0  0  0  0  0  0  0  0
   35.7470   26.8460   39.8610 H   0  0  0  0  0  0  0  0  0  0  0  0
   37.0830   27.9320   39.2470 H   0  0  0  0  0  0  0  0  0  0  0  0
   39.1650   27.1940   42.4390 C   0  0  0  0  0  0  0  0  0  0  0  0
   38.4350   27.3070   41.2340 C   0  0  0  0  0  0  0  0  0  0  0  0
   37.0850   27.6540   41.3100 C   0  0  0  0  0  0  0  0  0  0  0  0
   36.5680   27.8590   42.5440 N   0  0  0  0  0  0  0  0  0  0  0  0
   37.2910   27.7440   43.6800 C   0  0  0  0  0  0  0  0  0  0  0  0
   38.5820   27.4120   43.6220 N   0  0  0  0  0  0  0  0  0  0  0  0
   40.2160   26.9280   42.4420 H   0  0  0  0  0  0  0  0  0  0  0  0
   38.9630   27.1180   40.3090 H   0  0  0  0  0  0  0  0  0  0  0  0
   36.6510   27.9570   44.5260 H   0  0  0  0  0  0  0  0  0  0  0  0
   35.4480   29.0050   40.1260 C   0  0  0  0  0  0  0  0  0  0  0  0
   35.0190   29.0590   41.1340 H   0  0  0  0  0  0  0  0  0  0  0  0
   34.6220   28.9220   39.3870 H   0  0  0  0  0  0  0  0  0  0  0  0
   36.2150   30.2290   39.8100 C   0  0  0  0  0  0  0  0  0  0  0  0
   36.6160   30.4770   38.5160 C   0  0  0  0  0  3  0  0  0  0  0  0
   37.3330   31.5640   38.0540 C   0  0  0  0  0  0  0  0  0  0  0  0
   37.5880   31.6460   37.0130 H   0  0  0  0  0  0  0  0  0  0  0  0
   37.6590   32.4690   39.0190 N   0  0  0  0  0  0  0  0  0  0  0  0
   37.2880   32.2680   40.2940 C   0  0  0  0  0  3  0  0  0  0  0  0
   36.5790   31.1760   40.7050 N   0  0  0  0  0  0  0  0  0  0  0  0
  1 13  1  0  0  0  0
  1  6  1  0  0  0  0
  2  1  1  0  0  0  0
  3  1  1  0  0  0  0
  4 10  1  0  0  0  0
  4  9  1  0  0  0  0
  5  6  1  0  0  0  0
  5  4  2  0  0  0  0
  6  7  2  0  0  0  0
  7  8  1  0  0  0  0
  8 12  1  0  0  0  0
  9  8  2  0  0  0  0
 11  5  1  0  0  0  0
 13 14  1  0  0  0  0
 15 13  1  0  0  0  0
 16 13  1  0  0  0  0
 16 22  1  0  0  0  0
 17 16  2  0  0  0  0
 18 17  1  0  0  0  0
 18 20  2  0  0  0  0
 19 18  1  0  0  0  0
 20 21  1  0  0  0  0
 21 22  2  0  0  0  0
M  END
>  <minimizedAffinity>
-3.89748955

$$$$

 OpenBabel03252508573D

 22 23  0  0  0  0  0  0  0  0999 V2000
   35.5260   28.9160   40.7730 C   0  0  0  0  0  0  0  0  0  0  0  0
   35.1450   28.2270   39.9990 H   0  0  0  0  0  0  0  0  0  0  0  0
   34.6610   29.3440   41.3620 H   0  0  0  0  0  0  0  0  0  0  0  0
   37.0770   31.1720   38.1950 C   0  0  0  0  0  0  0  0  0  0  0  0
   36.4430   30.0520   38.7790 C   0  0  0  0  0  0  0  0  0  0  0  0
   36.1860   30.0810   40.1500 C   0  0  0  0  0  0  0  0  0  0  0  0
   36.5640   31.1890   40.8280 N   0  0  0  0  0  0  0  0  0  0  0  0
   37.1690   32.2460   40.2420 C   0  0  0  0  0  0  0  0  0  0  0  0
   37.4210   32.2330   38.9320 N   0  0  0  0  0  0  0  0  0  0  0  0
   37.3020   31.2070   37.1350 H   0  0  0  0  0  0  0  0  0  0  0  0
   36.1900   29.2250   38.1300 H   0  0  0  0  0  0  0  0  0  0  0  0
   37.3670   32.9980   40.9940 H   0  0  0  0  0  0  0  0  0  0  0  0
   36.4760   28.2680   41.7440 C   0  0  0  0  0  0  0  0  0  0  0  0
   35.9980   28.2690   42.7320 H   0  0  0  0  0  0  0  0  0  0  0  0
   37.4150   28.8590   41.7990 H   0  0  0  0  0  0  0  0  0  0  0  0
   36.8300   26.8940   41.3280 C   0  0  0  0  0  0  0  0  0  0  0  0
   37.1150   25.9390   42.2790 C   0  0  0  0  0  3  0  0  0  0  0  0
   37.4600   24.6180   42.0630 C   0  0  0  0  0  0  0  0  0  0  0  0
   37.6610   23.9640   42.8930 H   0  0  0  0  0  0  0  0  0  0  0  0
   37.5130   24.2630   40.7480 N   0  0  0  0  0  0  0  0  0  0  0  0
   37.2420   25.1630   39.7890 C   0  0  0  0  0  3  0  0  0  0  0  0
   36.9050   26.4580   40.0500 N   0  0  0  0  0  0  0  0  0  0  0  0
  1  3  1  0  0  0  0
  1 13  1  0  0  0  0
  2  1  1  0  0  0  0
  4  5  2  0  0  0  0
  4  9  1  0  0  0  0
  5  6  1  0  0  0  0
  6  1  1  0  0  0  0
  6  7  2  0  0  0  0
  8  7  1  0  0  0  0
  8 12  1  0  0  0  0
  9  8  2  0  0  0  0
 10  4  1  0  0  0  0
 11  5  1  0  0  0  0
 13 15  1  0  0  0  0
 13 14  1  0  0  0  0
 16 13  1  0  0  0  0
 16 17  1  0  0  0  0
 18 17  2  0  0  0  0
 18 19  1  0  0  0  0
 20 18  1  0  0  0  0
 21 22  1  0  0  0  0
 21 20  2  0  0  0  0
 22 16  2  0  0  0  0
M  END
>  <minimizedAffinity>
-3.86972928

$$$$

 OpenBabel03252508573D

 22 23  0  0  0  0  0  0  0  0999 V2000
   36.4190   30.0030   40.2620 C   0  0  0  0  0  0  0  0  0  0  0  0
   35.3800   29.7850   39.9590 H   0  0  0  0  0  0  0  0  0  0  0  0
   37.1220   29.7690   39.4090 H   0  0  0  0  0  0  0  0  0  0  0  0
   37.0230   26.8960   42.2940 C   0  0  0  0  0  0  0  0  0  0  0  0
   36.6210   27.7390   41.2320 C   0  0  0  0  0  0  0  0  0  0  0  0
   36.8350   29.1120   41.3640 C   0  0  0  0  0  0  0  0  0  0  0  0
   37.4160   29.5420   42.5070 N   0  0  0  0  0  0  0  0  0  0  0  0
   37.7900   28.7110   43.5060 C   0  0  0  0  0  0  0  0  0  0  0  0
   37.5920   27.3970   43.3950 N   0  0  0  0  0  0  0  0  0  0  0  0
   36.8830   25.8220   42.2490 H   0  0  0  0  0  0  0  0  0  0  0  0
   36.1670   27.2740   40.3680 H   0  0  0  0  0  0  0  0  0  0  0  0
   38.2270   29.2970   44.3040 H   0  0  0  0  0  0  0  0  0  0  0  0
   36.6420   31.4340   40.6700 C   0  0  0  0  0  0  0  0  0  0  0  0
   36.6930   31.4660   41.7670 H   0  0  0  0  0  0  0  0  0  0  0  0
   35.7870   32.0570   40.3320 H   0  0  0  0  0  0  0  0  0  0  0  0
   37.8730   31.9890   40.0670 C   0  0  0  0  0  0  0  0  0  0  0  0
   38.4690   33.1020   40.6170 C   0  0  0  0  0  3  0  0  0  0  0  0
   39.6120   33.7430   40.1820 C   0  0  0  0  0  0  0  0  0  0  0  0
   39.9830   34.6100   40.6990 H   0  0  0  0  0  0  0  0  0  0  0  0
   40.1840   33.1780   39.0800 N   0  0  0  0  0  0  0  0  0  0  0  0
   39.6360   32.0910   38.5120 C   0  0  0  0  0  3  0  0  0  0  0  0
   38.5030   31.4910   38.9780 N   0  0  0  0  0  0  0  0  0  0  0  0
  1 13  1  0  0  0  0
  1  6  1  0  0  0  0
  2  1  1  0  0  0  0
  3  1  1  0  0  0  0
  4  9  1  0  0  0  0
  5  6  1  0  0  0  0
  5  4  2  0  0  0  0
  6  7  2  0  0  0  0
  7  8  1  0  0  0  0
  8 12  1  0  0  0  0
  9  8  2  0  0  0  0
 10  4  1  0  0  0  0
 11  5  1  0  0  0  0
 13 14  1  0  0  0  0
 15 13  1  0  0  0  0
 16 17  1  0  0  0  0
 16 13  1  0  0  0  0
 18 17  2  0  0  0  0
 18 19  1  0  0  0  0
 20 18  1  0  0  0  0
 21 22  1  0  0  0  0
 21 20  2  0  0  0  0
 22 16  2  0  0  0  0
M  END
>  <minimizedAffinity>
-3.8182869

$$$$
