
 OpenBabel03252502083D

 46 50  0  0  0  0  0  0  0  0999 V2000
   47.4390   32.0780   47.8610 C   0  0  0  0  0  0  0  0  0  0  0  0
   46.9120   30.7820   47.8750 C   0  0  0  0  0  0  0  0  0  0  0  0
   45.9430   30.5020   46.9560 C   0  0  0  0  0  0  0  0  0  0  0  0
   45.5430   31.4350   46.0990 N   0  0  0  0  0  0  0  0  0  0  0  0
   46.0250   32.6610   46.0630 C   0  0  0  0  0  0  0  0  0  0  0  0
   46.9850   32.9690   46.9630 N   0  0  0  0  0  0  0  0  0  0  0  0
   45.3700   29.2530   46.9330 N   0  0  0  0  0  0  0  0  0  0  0  0
   44.1800   28.8920   46.1080 C   0  0  0  0  0  0  0  0  0  0  0  0
   44.0860   27.3930   46.1570 C   0  0  0  0  0  0  0  0  0  0  0  0
   44.7380   27.0460   47.4400 C   0  0  0  0  0  0  0  0  0  0  0  0
   45.7710   28.0900   47.6700 C   0  0  0  0  0  0  0  0  0  0  0  0
   48.2150   32.3510   48.5790 H   0  0  0  0  0  0  0  0  0  0  0  0
   43.3440   29.3860   46.6340 H   0  0  0  0  0  0  0  0  0  0  0  0
   44.2520   29.3220   45.0990 H   0  0  0  0  0  0  0  0  0  0  0  0
   42.9880   27.1510   46.2420 H   0  0  0  0  0  0  0  0  0  0  0  0
   44.5110   26.9030   45.2700 H   0  0  0  0  0  0  0  0  0  0  0  0
   44.0330   26.8790   48.2800 H   0  0  0  0  0  0  0  0  0  0  0  0
   45.2680   26.0620   47.3040 H   0  0  0  0  0  0  0  0  0  0  0  0
   46.7920   27.7240   47.3820 H   0  0  0  0  0  0  0  0  0  0  0  0
   45.7150   28.2940   48.7600 H   0  0  0  0  0  0  0  0  0  0  0  0
   45.7440   33.8210   45.1810 C   0  0  0  0  0  0  0  0  0  0  0  0
   44.8340   34.7660   45.4600 N   0  0  0  0  0  0  0  0  0  0  0  0
   44.5650   35.8190   44.6980 C   0  0  0  0  0  0  0  0  0  0  0  0
   45.2380   35.9960   43.5390 N   0  0  0  0  0  0  0  0  0  0  0  0
   46.1770   35.1230   43.1440 C   0  0  0  0  0  0  0  0  0  0  0  0
   46.8580   35.3050   41.9560 C   0  0  0  0  0  0  0  0  0  0  0  0
   47.8040   34.4170   41.5510 C   0  0  0  0  0  0  0  0  0  0  0  0
   48.0670   33.3250   42.3580 C   0  0  0  0  0  0  0  0  0  0  0  0
   47.3620   33.1850   43.5370 C   0  0  0  0  0  0  0  0  0  0  0  0
   46.4020   34.0490   43.9870 C   0  0  0  0  0  0  0  0  0  0  0  0
   43.8200   36.5550   44.9650 H   0  0  0  0  0  0  0  0  0  0  0  0
   46.5860   36.1870   41.3910 H   0  0  0  0  0  0  0  0  0  0  0  0
   48.2660   34.6530   40.6230 H   0  0  0  0  0  0  0  0  0  0  0  0
   49.0790   32.3690   41.9280 C   0  0  0  0  0  0  0  0  0  0  0  0
   50.3970   32.6620   41.7860 C   0  0  0  0  0  0  0  0  0  0  0  0
   51.3320   31.7140   41.3720 C   0  0  0  0  0  0  0  0  0  0  0  0
   52.3740   32.0010   41.2760 H   0  0  0  0  0  0  0  0  0  0  0  0
   50.9530   30.4540   41.0930 N   0  0  0  0  0  0  0  0  0  0  0  0
   49.6380   30.1670   41.2340 C   0  0  0  0  0  0  0  0  0  0  0  0
   48.7540   31.0970   41.6370 N   0  0  0  0  0  0  0  0  0  0  0  0
   47.7570   32.0170   44.2510 N   0  0  0  0  0  0  0  0  0  0  0  0
   48.4530   31.8230   45.0010 H   0  0  0  0  0  0  0  0  0  0  0  0
   47.1480   31.2820   43.8310 H   0  0  0  0  0  0  0  0  0  0  0  0
   47.4310   29.8950   48.7840 N   0  0  0  0  0  0  0  0  0  0  0  0
   48.1520   29.1450   48.7170 H   0  0  0  0  0  0  0  0  0  0  0  0
   46.8980   30.1520   49.6680 H   0  0  0  0  0  0  0  0  0  0  0  0
  1  2  1  0  0  0  0
  1 12  1  0  0  0  0
  2 44  1  0  0  0  0
  3  2  2  0  0  0  0
  4  3  1  0  0  0  0
  5  4  2  0  0  0  0
  5  6  1  0  0  0  0
  6  1  2  0  0  0  0
  7  3  1  0  0  0  0
  7 11  1  0  0  0  0
  8  9  1  0  0  0  0
  8 13  1  0  0  0  0
  8  7  1  0  0  0  0
  9 15  1  0  0  0  0
  9 10  1  0  0  0  0
 10 11  1  0  0  0  0
 10 17  1  0  0  0  0
 11 20  1  0  0  0  0
 14  8  1  0  0  0  0
 16  9  1  0  0  0  0
 18 10  1  0  0  0  0
 19 11  1  0  0  0  0
 21 22  1  0  0  0  0
 21  5  1  0  0  0  0
 23 31  1  0  0  0  0
 23 22  2  0  0  0  0
 24 23  1  0  0  0  0
 25 24  2  0  0  0  0
 25 30  1  0  0  0  0
 26 25  1  0  0  0  0
 27 26  2  0  0  0  0
 27 28  1  0  0  0  0
 28 29  2  0  0  0  0
 29 30  1  0  0  0  0
 29 41  1  0  0  0  0
 30 21  2  0  0  0  0
 32 26  1  0  0  0  0
 33 27  1  0  0  0  0
 34 28  1  0  0  0  0
 35 34  1  0  0  0  0
 36 35  2  0  0  0  0
 37 36  1  0  0  0  0
 38 39  2  0  0  0  0
 38 36  1  0  0  0  0
 39 40  1  0  0  0  0
 40 34  2  0  0  0  0
 41 42  1  0  0  0  0
 43 41  1  0  0  0  0
 44 46  1  0  0  0  0
 45 44  1  0  0  0  0
M  END
>  <minimizedAffinity>
-7.00755262

>  <minimizedRMSD>
0.184546426

$$$$
