
 OpenBabel03242518583D

 23 25  0  0  1  0  0  0  0  0999 V2000
   45.0450   34.1730   42.8440 C   0  0  1  0  0  0  0  0  0  0  0  0
   45.6390   35.6050   42.8440 C   0  0  0  0  0  0  0  0  0  0  0  0
   46.0000   34.5690   41.8320 C   0  0  1  0  0  0  0  0  0  0  0  0
   43.9560   34.1570   42.6130 H   0  0  0  0  0  0  0  0  0  0  0  0
   46.3170   35.8770   43.6540 H   0  0  0  0  0  0  0  0  0  0  0  0
   44.9410   36.4130   42.5460 H   0  0  0  0  0  0  0  0  0  0  0  0
   45.6640   34.7150   40.7790 H   0  0  0  0  0  0  0  0  0  0  0  0
   45.4170   33.4020   44.0470 C   0  0  0  0  0  0  0  0  0  0  0  0
   45.5820   32.0080   43.8990 C   0  0  0  0  0  0  0  0  0  0  0  0
   45.9490   31.2450   45.0260 C   0  0  0  0  0  0  0  0  0  0  0  0
   46.1250   31.9180   46.2130 N   0  0  0  0  0  0  0  0  0  0  0  0
   45.9530   33.2640   46.2940 C   0  0  0  0  0  0  0  0  0  0  0  0
   45.6060   33.9890   45.2310 N   0  0  0  0  0  0  0  0  0  0  0  0
   45.4470   31.4600   42.9690 H   0  0  0  0  0  0  0  0  0  0  0  0
   46.0880   30.1780   44.9740 H   0  0  0  0  0  0  0  0  0  0  0  0
   46.1140   33.7230   47.2810 H   0  0  0  0  0  0  0  0  0  0  0  0
   47.4380   34.1960   41.8850 C   0  0  0  0  0  0  0  0  0  0  0  0
   48.3580   35.0880   42.4460 C   0  0  0  0  0  0  0  0  0  0  0  0
   49.7210   34.8450   42.5480 C   0  0  0  0  0  0  0  0  0  0  0  0
   50.3830   35.5630   42.9870 H   0  0  0  0  0  0  0  0  0  0  0  0
   50.1570   33.6710   42.0670 N   0  0  0  0  0  0  0  0  0  0  0  0
   49.2670   32.8000   41.5210 C   0  0  0  0  0  0  0  0  0  0  0  0
   47.9520   33.0600   41.4350 N   0  0  0  0  0  0  0  0  0  0  0  0
  1  4  1  6  0  0  0
  1  8  1  0  0  0  0
  2  1  1  0  0  0  0
  2  5  1  0  0  0  0
  3  7  1  6  0  0  0
  3 17  1  0  0  0  0
  3  2  1  0  0  0  0
  3  1  1  0  0  0  0
  6  2  1  0  0  0  0
  8 13  1  0  0  0  0
  9  8  2  0  0  0  0
  9 10  1  0  0  0  0
 10 11  2  0  0  0  0
 11 12  1  0  0  0  0
 12 16  1  0  0  0  0
 13 12  2  0  0  0  0
 14  9  1  0  0  0  0
 15 10  1  0  0  0  0
 17 18  1  0  0  0  0
 18 19  2  0  0  0  0
 19 20  1  0  0  0  0
 21 19  1  0  0  0  0
 22 21  2  0  0  0  0
 23 22  1  0  0  0  0
 23 17  2  0  0  0  0
M  END
>  <minimizedAffinity>
-4.0915885

>  <minimizedRMSD>
2.13847494

$$$$
