
 OpenBabel03252509043D

 46 48  0  0  1  0  0  0  0  0999 V2000
   47.3180   34.0380   42.8950 N   0  0  0  0  0  0  0  0  0  0  0  0
   46.8810   35.2840   42.3820 C   0  0  0  0  0  0  0  0  0  0  0  0
   45.3930   35.5380   42.4890 C   0  0  0  0  0  0  0  0  0  0  0  0
   44.7330   34.9010   43.6880 C   0  0  0  0  0  0  0  0  0  0  0  0
   45.7480   34.2470   44.5950 C   0  0  0  0  0  0  0  0  0  0  0  0
   46.4820   33.2300   43.6380 C   0  0  2  0  0  0  0  0  0  0  0  0
   47.3770   36.0800   43.0070 H   0  0  0  0  0  0  0  0  0  0  0  0
   47.1640   35.5250   41.3530 H   0  0  0  0  0  0  0  0  0  0  0  0
   44.8950   35.2290   41.5320 H   0  0  0  0  0  0  0  0  0  0  0  0
   45.2080   36.6390   42.5750 H   0  0  0  0  0  0  0  0  0  0  0  0
   44.0240   35.5650   44.2080 H   0  0  0  0  0  0  0  0  0  0  0  0
   44.1120   34.0500   43.2880 H   0  0  0  0  0  0  0  0  0  0  0  0
   46.4880   34.9450   44.9980 H   0  0  0  0  0  0  0  0  0  0  0  0
   45.1850   33.6770   45.3580 H   0  0  0  0  0  0  0  0  0  0  0  0
   45.6750   32.6730   43.1210 H   0  0  0  0  0  0  0  0  0  0  0  0
   48.3560   33.4090   42.1050 C   0  0  0  0  0  0  0  0  0  0  0  0
   48.9050   34.2360   41.6060 H   0  0  0  0  0  0  0  0  0  0  0  0
   49.1130   32.8990   42.7530 H   0  0  0  0  0  0  0  0  0  0  0  0
   47.7180   32.5210   41.1050 C   0  0  0  0  0  0  0  0  0  0  0  0
   47.9390   31.4730   41.3150 H   0  0  0  0  0  0  0  0  0  0  0  0
   46.5900   32.5900   41.1590 H   0  0  0  0  0  0  0  0  0  0  0  0
   49.4110   32.3950   37.7420 C   0  0  0  0  0  0  0  0  0  0  0  0
   48.9590   32.0560   39.0330 C   0  0  0  0  0  0  0  0  0  0  0  0
   48.1770   32.9080   39.7470 C   0  0  0  0  0  0  0  0  0  0  0  0
   47.8620   34.0690   39.1680 N   0  0  0  0  0  0  0  0  0  0  0  0
   48.2780   34.4160   37.9410 C   0  0  0  0  0  0  0  0  0  0  0  0
   49.0530   33.5930   37.2120 N   0  0  0  0  0  0  0  0  0  0  0  0
   50.0230   31.7570   37.1530 H   0  0  0  0  0  0  0  0  0  0  0  0
   49.3050   31.0860   39.3410 H   0  0  0  0  0  0  0  0  0  0  0  0
   47.9450   35.3910   37.5950 H   0  0  0  0  0  0  0  0  0  0  0  0
   47.1660   32.4530   44.5440 O   0  0  0  0  0  0  0  0  0  0  0  0
   45.3100   30.6670   43.8360 O   0  0  0  0  0  0  0  0  0  0  0  0
   46.4080   31.0020   44.8730 P   0  0  2  0  0  0  0  0  0  0  0  0
   45.5110   31.2410   46.3280 O   0  0  0  0  0  0  0  0  0  0  0  0
   46.1240   31.7040   46.9620 H   0  0  0  0  0  0  0  0  0  0  0  0
   47.4170   29.7200   45.1180 O   0  0  0  0  0  0  0  0  0  0  0  0
   47.6870   29.0700   43.9430 C   0  0  0  0  0  0  0  0  0  0  0  0
   46.7320   29.1600   43.3320 H   0  0  0  0  0  0  0  0  0  0  0  0
   47.6920   27.9660   44.1920 H   0  0  0  0  0  0  0  0  0  0  0  0
   48.8600   29.4770   43.1860 C   0  0  0  0  0  0  0  0  0  0  0  0
   48.8540   28.8730   41.9230 C   0  0  0  0  0  3  0  0  0  0  0  0
   49.8970   29.2050   41.0510 C   0  0  0  0  0  0  0  0  0  0  0  0
   49.9790   28.7830   40.0380 H   0  0  0  0  0  0  0  0  0  0  0  0
   50.8830   30.0630   41.3740 N   0  0  0  0  0  0  0  0  0  0  0  0
   50.8420   30.6160   42.6000 C   0  0  0  0  0  3  0  0  0  0  0  0
   49.8690   30.3410   43.4870 N   0  0  0  0  0  0  0  0  0  0  0  0
  1  6  1  0  0  0  0
  2  3  1  0  0  0  0
  2  1  1  0  0  0  0
  2  7  1  0  0  0  0
  3 10  1  0  0  0  0
  3  4  1  0  0  0  0
  4 11  1  0  0  0  0
  4  5  1  0  0  0  0
  5 13  1  0  0  0  0
  5 14  1  0  0  0  0
  6 15  1  6  0  0  0
  6 31  1  0  0  0  0
  6  5  1  0  0  0  0
  8  2  1  0  0  0  0
  9  3  1  0  0  0  0
 12  4  1  0  0  0  0
 16 18  1  0  0  0  0
 16  1  1  0  0  0  0
 17 16  1  0  0  0  0
 19 21  1  0  0  0  0
 19 20  1  0  0  0  0
 19 16  1  0  0  0  0
 22 23  1  0  0  0  0
 23 29  1  0  0  0  0
 23 24  2  0  0  0  0
 24 19  1  0  0  0  0
 25 24  1  0  0  0  0
 26 25  2  0  0  0  0
 27 22  2  0  0  0  0
 27 26  1  0  0  0  0
 28 22  1  0  0  0  0
 30 26  1  0  0  0  0
 31 33  1  0  0  0  0
 33 32  2  6  0  0  0
 33 36  1  0  0  0  0
 33 34  1  0  0  0  0
 34 35  1  0  0  0  0
 37 39  1  0  0  0  0
 37 36  1  0  0  0  0
 38 37  1  0  0  0  0
 40 46  1  0  0  0  0
 40 37  1  0  0  0  0
 41 40  2  0  0  0  0
 42 44  2  0  0  0  0
 42 41  1  0  0  0  0
 43 42  1  0  0  0  0
 44 45  1  0  0  0  0
 45 46  2  0  0  0  0
M  END
>  <minimizedAffinity>
-3.68068337

>  <minimizedRMSD>
1.27233934

$$$$
