
     RDKit          3D

 21 22  0  0  0  0  0  0  0  0999 V2000
   44.5589   36.0104   44.4975 C   0  0  0  0  0  0  0  0  0  0  0  0
   45.3100   35.9157   43.2970 C   0  0  0  0  0  0  0  0  0  0  0  0
   46.1948   34.8561   43.1725 C   0  0  0  0  0  0  0  0  0  0  0  0
   46.3061   33.9588   44.1964 N   0  0  0  0  0  0  0  0  0  0  0  0
   45.5705   34.0889   45.3214 C   0  0  0  0  0  0  0  0  0  0  0  0
   44.7055   35.1051   45.4699 N   0  0  0  0  0  0  0  0  0  0  0  0
   46.9562   34.7800   41.9282 C   0  0  0  0  0  0  0  0  0  0  0  0
   43.8820   36.8537   44.5483 H   0  0  0  0  0  0  0  0  0  0  0  0
   45.1816   36.6477   42.5281 H   0  0  0  0  0  0  0  0  0  0  0  0
   45.7322   33.3171   46.0853 H   0  0  0  0  0  0  0  0  0  0  0  0
   47.9329   34.3007   42.1484 H   0  0  0  0  0  0  0  0  0  0  0  0
   47.2377   35.8134   41.5736 H   0  0  0  0  0  0  0  0  0  0  0  0
   46.3242   34.0068   40.8431 C   0  0  0  0  0  0  0  0  0  0  0  0
   45.7553   32.7816   41.1368 C   0  0  0  0  0  0  0  0  0  0  0  0
   45.1357   31.9808   40.1753 C   0  0  0  0  0  0  0  0  0  0  0  0
   44.6863   31.0341   40.3567 H   0  0  0  0  0  0  0  0  0  0  0  0
   45.0982   32.4343   38.9120 N   0  0  0  0  0  0  0  0  0  0  0  0
   45.6486   33.6216   38.6233 C   0  0  0  0  0  0  0  0  0  0  0  0
   46.2595   34.4225   39.5439 N   0  0  0  0  0  0  0  0  0  0  0  0
   45.7432   32.3407   42.1392 H   0  0  0  0  0  0  0  0  0  0  0  0
   45.6844   34.0987   37.6438 H   0  0  0  0  0  0  0  0  0  0  0  0
  1  6  2  0
  2  1  1  0
  3  2  2  0
  3  4  1  0
  4  5  2  0
  5  6  1  0
  7  3  1  0
  1  8  1  0
  2  9  1  0
  5 10  1  0
  7 11  1  0
  7 12  1  0
 13 14  2  0
 14 15  1  0
 15 16  1  0
 15 17  2  0
 17 18  1  0
 18 19  2  0
 19 13  1  0
 14 20  1  0
 18 21  1  0
  7 13  1  0
M  ISO  6   8  14   9  14  10  14  11   8  12   8  16  14
M  END
>  <DihAtoms>  (1) 
2,6,12,13

>  <DihDeg>  (1) 
89.99076889034191

$$$$
