
 OpenBabel03252507263D

 25 27  0  0  0  0  0  0  0  0999 V2000
   45.7420   33.9300   45.5230 C   0  0  0  0  0  0  0  0  0  0  0  0
   44.7630   34.9000   45.7540 C   0  0  0  0  0  0  0  0  0  0  0  0
   44.4800   35.8170   44.7150 C   0  0  0  0  0  0  0  0  0  0  0  0
   45.1820   35.7010   43.5400 N   0  0  0  0  0  0  0  0  0  0  0  0
   46.1210   34.7360   43.3780 C   0  0  0  0  0  0  0  0  0  0  0  0
   46.3970   33.8700   44.3440 N   0  0  0  0  0  0  0  0  0  0  0  0
   44.2150   34.9830   46.6850 H   0  0  0  0  0  0  0  0  0  0  0  0
   43.7350   36.5930   44.8220 H   0  0  0  0  0  0  0  0  0  0  0  0
   46.8320   34.6690   42.1020 C   0  0  0  0  0  0  0  0  0  0  0  0
   48.0030   35.3580   41.9120 C   0  0  0  0  0  0  0  0  0  0  0  0
   48.7600   35.3750   40.7640 C   0  0  0  0  0  0  0  0  0  0  0  0
   48.2220   34.5970   39.7470 C   0  0  0  0  0  0  0  0  0  0  0  0
   47.0380   33.8850   39.9000 C   0  0  0  0  0  0  0  0  0  0  0  0
   46.3550   33.9340   41.0900 N   0  0  0  0  0  0  0  0  0  0  0  0
   48.3590   35.9500   42.7690 H   0  0  0  0  0  0  0  0  0  0  0  0
   49.6770   35.9360   40.6660 H   0  0  0  0  0  0  0  0  0  0  0  0
   48.7400   34.5390   38.7910 H   0  0  0  0  0  0  0  0  0  0  0  0
   46.6190   33.2790   39.1080 H   0  0  0  0  0  0  0  0  0  0  0  0
   46.0210   33.0000   46.5940 C   0  0  0  0  0  0  0  0  0  0  0  0
   45.1910   32.8880   47.6890 C   0  0  0  0  0  0  0  0  0  0  0  0
   45.5370   31.9750   48.6590 C   0  0  0  0  0  0  0  0  0  0  0  0
   44.9020   31.8600   49.5420 H   0  0  0  0  0  0  0  0  0  0  0  0
   46.6410   31.1780   48.6060 N   0  0  0  0  0  0  0  0  0  0  0  0
   47.4130   31.3370   47.5040 C   0  0  0  0  0  0  0  0  0  0  0  0
   47.0900   32.2160   46.5590 N   0  0  0  0  0  0  0  0  0  0  0  0
  1  2  1  0  0  0  0
  1 19  1  0  0  0  0
  2  7  1  0  0  0  0
  3  8  1  0  0  0  0
  3  2  2  0  0  0  0
  4  3  1  0  0  0  0
  5  4  2  0  0  0  0
  5  6  1  0  0  0  0
  6  1  2  0  0  0  0
  9  5  1  0  0  0  0
 10  9  1  0  0  0  0
 10 15  1  0  0  0  0
 11 10  2  0  0  0  0
 12 13  2  0  0  0  0
 12 11  1  0  0  0  0
 13 14  1  0  0  0  0
 14  9  2  0  0  0  0
 16 11  1  0  0  0  0
 17 12  1  0  0  0  0
 18 13  1  0  0  0  0
 19 20  1  0  0  0  0
 20 21  2  0  0  0  0
 21 22  1  0  0  0  0
 23 21  1  0  0  0  0
 24 23  2  0  0  0  0
 25 19  2  0  0  0  0
 25 24  1  0  0  0  0
M  END
>  <minimizedAffinity>
-6.12686634

>  <minimizedRMSD>
0.223242

$$$$
