
 OpenBabel03252506373D

 42 45  0  0  1  0  0  0  0  0999 V2000
   44.5130   35.5100   45.1380 C   0  0  0  0  0  0  0  0  0  0  0  0
   45.1650   35.5020   43.8920 C   0  0  0  0  0  0  0  0  0  0  0  0
   46.0840   34.5450   43.6330 C   0  0  0  0  0  0  0  0  0  0  0  0
   46.3220   33.6350   44.6110 N   0  0  0  0  0  0  0  0  0  0  0  0
   45.7040   33.6490   45.7820 C   0  0  0  0  0  0  0  0  0  0  0  0
   44.7960   34.5800   46.0610 N   0  0  0  0  0  0  0  0  0  0  0  0
   46.0340   32.6370   46.7490 N   0  0  0  0  0  0  0  0  0  0  0  0
   45.2940   32.3910   47.9350 C   0  0  0  0  0  0  0  0  0  0  0  0
   46.3680   32.0420   48.9490 C   0  0  0  0  0  0  0  0  0  0  0  0
   47.6520   31.9470   48.1820 C   0  0  0  0  0  0  0  0  0  0  0  0
   47.1590   31.7320   46.7510 C   0  0  1  0  0  0  0  0  0  0  0  0
   43.7810   36.2920   45.3120 H   0  0  0  0  0  0  0  0  0  0  0  0
   46.6030   34.5100   42.6860 H   0  0  0  0  0  0  0  0  0  0  0  0
   44.4650   31.7680   48.0220 H   0  0  0  0  0  0  0  0  0  0  0  0
   44.9400   33.4110   48.2930 H   0  0  0  0  0  0  0  0  0  0  0  0
   46.3980   32.6840   49.8290 H   0  0  0  0  0  0  0  0  0  0  0  0
   46.1240   31.0140   49.3480 H   0  0  0  0  0  0  0  0  0  0  0  0
   48.2350   31.0960   48.5390 H   0  0  0  0  0  0  0  0  0  0  0  0
   48.1500   32.9360   48.2790 H   0  0  0  0  0  0  0  0  0  0  0  0
   47.9460   32.0810   46.0630 H   0  0  0  0  0  0  0  0  0  0  0  0
   44.8130   36.5300   42.9470 N   0  0  0  0  0  0  0  0  0  0  0  0
   45.1620   36.4120   41.9660 H   0  0  0  0  0  0  0  0  0  0  0  0
   44.2450   37.3380   43.2380 H   0  0  0  0  0  0  0  0  0  0  0  0
   46.6570   30.0390   46.5620 S   0  0  0  0  0  0  0  0  0  0  0  0
   45.6000   30.5610   43.4380 O   0  0  0  0  0  0  0  0  0  0  0  0
   44.9840   30.0010   44.3610 C   0  0  0  0  0  0  0  0  0  0  0  0
   45.1030   29.7490   45.8230 C   0  0  1  0  0  0  0  0  0  0  0  0
   44.5830   28.3370   45.9230 C   0  0  0  0  0  0  0  0  0  0  0  0
   43.2570   28.5460   45.1900 C   0  0  0  0  0  0  0  0  0  0  0  0
   43.7380   29.3420   44.0590 N   0  0  0  0  0  0  0  0  0  0  0  0
   44.2190   30.3270   46.1970 H   0  0  0  0  0  0  0  0  0  0  0  0
   45.1790   27.6440   45.2920 H   0  0  0  0  0  0  0  0  0  0  0  0
   44.4510   27.9910   46.9520 H   0  0  0  0  0  0  0  0  0  0  0  0
   42.5210   29.0730   45.7920 H   0  0  0  0  0  0  0  0  0  0  0  0
   42.9110   27.5730   44.7910 H   0  0  0  0  0  0  0  0  0  0  0  0
   42.9710   29.3850   42.8420 C   0  0  0  0  0  0  0  0  0  0  0  0
   43.1440   28.6450   41.7130 C   0  0  0  0  0  3  0  0  0  0  0  0
   42.2620   28.8810   40.6740 C   0  0  0  0  0  0  0  0  0  0  0  0
   42.4190   28.2750   39.7710 H   0  0  0  0  0  0  0  0  0  0  0  0
   41.2730   29.7900   40.7460 N   0  0  0  0  0  0  0  0  0  0  0  0
   41.1180   30.5120   41.8730 C   0  0  0  0  0  3  0  0  0  0  0  0
   41.9600   30.2990   42.8900 N   0  0  0  0  0  0  0  0  0  0  0  0
  1 12  1  0  0  0  0
  1  6  1  0  0  0  0
  2  1  2  0  0  0  0
  3  2  1  0  0  0  0
  3  4  2  0  0  0  0
  4  5  1  0  0  0  0
  5  6  2  0  0  0  0
  5  7  1  0  0  0  0
  7 11  1  0  0  0  0
  7  8  1  0  0  0  0
  8 14  1  0  0  0  0
  8 15  1  0  0  0  0
  8  9  1  0  0  0  0
  9 17  1  0  0  0  0
  9 16  1  0  0  0  0
 10 19  1  0  0  0  0
 10 18  1  0  0  0  0
 10  9  1  0  0  0  0
 11 20  1  6  0  0  0
 11 10  1  0  0  0  0
 13  3  1  0  0  0  0
 21 23  1  0  0  0  0
 21  2  1  0  0  0  0
 22 21  1  0  0  0  0
 24 11  1  0  0  0  0
 25 26  2  0  0  0  0
 26 27  1  0  0  0  0
 27 28  1  0  0  0  0
 27 31  1  1  0  0  0
 27 24  1  0  0  0  0
 28 33  1  0  0  0  0
 29 34  1  0  0  0  0
 29 28  1  0  0  0  0
 30 26  1  0  0  0  0
 30 29  1  0  0  0  0
 32 28  1  0  0  0  0
 35 29  1  0  0  0  0
 36 42  1  0  0  0  0
 36 30  1  0  0  0  0
 37 36  2  0  0  0  0
 38 40  2  0  0  0  0
 38 37  1  0  0  0  0
 39 38  1  0  0  0  0
 40 41  1  0  0  0  0
 41 42  2  0  0  0  0
M  END
>  <minimizedAffinity>
-5.34112883

>  <minimizedRMSD>
0.320075929

$$$$
