
 OpenBabel03242510323D

 37 39  0  0  1  0  0  0  0  0999 V2000
   47.3950   33.7200   43.8850 C   0  0  1  0  0  0  0  0  0  0  0  0
   47.9020   32.7880   42.7230 C   0  0  0  0  0  0  0  0  0  0  0  0
   48.6160   33.6180   41.7360 C   0  0  0  0  0  0  0  0  0  0  0  0
   47.5420   34.4680   41.0610 C   0  0  0  0  0  0  0  0  0  0  0  0
   46.8540   35.2500   42.0420 C   0  0  0  0  0  0  0  0  0  0  0  0
   46.3870   34.5610   43.4060 C   0  0  1  0  0  0  0  0  0  0  0  0
   48.2820   34.1890   44.3260 H   0  0  0  0  0  0  0  0  0  0  0  0
   47.0710   32.2440   42.2810 H   0  0  0  0  0  0  0  0  0  0  0  0
   48.6380   32.1250   43.2360 H   0  0  0  0  0  0  0  0  0  0  0  0
   49.4100   34.2370   42.1750 H   0  0  0  0  0  0  0  0  0  0  0  0
   48.9960   32.9520   40.9340 H   0  0  0  0  0  0  0  0  0  0  0  0
   46.9310   33.7850   40.4140 H   0  0  0  0  0  0  0  0  0  0  0  0
   48.1100   35.1490   40.4020 H   0  0  0  0  0  0  0  0  0  0  0  0
   46.2280   36.0750   41.7660 H   0  0  0  0  0  0  0  0  0  0  0  0
   47.7310   35.8460   42.5360 H   0  0  0  0  0  0  0  0  0  0  0  0
   46.0400   35.4900   43.8610 H   0  0  0  0  0  0  0  0  0  0  0  0
   46.0890   30.6980   45.9290 C   0  0  0  0  0  0  0  0  0  0  0  0
   46.6740   31.3690   44.8800 C   0  0  0  0  0  0  0  0  0  0  0  0
   46.8260   32.7780   44.9190 C   0  0  0  0  0  0  0  0  0  0  0  0
   46.3730   33.3790   46.0180 N   0  0  0  0  0  0  0  0  0  0  0  0
   45.8090   32.7290   47.0290 C   0  0  0  0  0  0  0  0  0  0  0  0
   45.6590   31.3680   46.9950 N   0  0  0  0  0  0  0  0  0  0  0  0
   46.0440   29.6320   45.7560 H   0  0  0  0  0  0  0  0  0  0  0  0
   47.0790   30.9780   43.9310 H   0  0  0  0  0  0  0  0  0  0  0  0
   45.4340   33.2120   47.9320 H   0  0  0  0  0  0  0  0  0  0  0  0
   45.2100   33.8470   43.0750 O   0  0  0  0  0  0  0  0  0  0  0  0
   44.2750   34.8170   42.6890 C   0  0  0  0  0  0  0  0  0  0  0  0
   44.6690   35.6440   42.1360 H   0  0  0  0  0  0  0  0  0  0  0  0
   43.6530   35.1250   43.5720 H   0  0  0  0  0  0  0  0  0  0  0  0
   43.4600   34.0470   41.7990 O   0  0  0  0  0  0  0  0  0  0  0  0
   42.5280   34.6420   40.9710 C   0  0  0  0  0  0  0  0  0  0  0  0
   41.5270   35.3400   41.6150 C   0  0  0  0  0  0  0  0  0  0  0  0
   40.5340   35.9800   40.8660 C   0  0  0  0  0  0  0  0  0  0  0  0
   39.7020   36.5540   41.2470 H   0  0  0  0  0  0  0  0  0  0  0  0
   40.5540   35.9160   39.5100 N   0  0  0  0  0  0  0  0  0  0  0  0
   41.5420   35.2280   38.9160 C   0  0  0  0  0  0  0  0  0  0  0  0
   42.5290   34.5900   39.6090 N   0  0  0  0  0  0  0  0  0  0  0  0
  1  7  1  1  0  0  0
  1 19  1  0  0  0  0
  2  9  1  0  0  0  0
  2  1  1  0  0  0  0
  3 10  1  0  0  0  0
  3  2  1  0  0  0  0
  4  3  1  0  0  0  0
  4  5  1  0  0  0  0
  5 15  1  0  0  0  0
  5  6  1  0  0  0  0
  6 16  1  1  0  0  0
  6  1  1  0  0  0  0
  8  2  1  0  0  0  0
 11  3  1  0  0  0  0
 12  4  1  0  0  0  0
 13  4  1  0  0  0  0
 14  5  1  0  0  0  0
 17 22  1  0  0  0  0
 18 19  1  0  0  0  0
 18 17  2  0  0  0  0
 19 20  2  0  0  0  0
 20 21  1  0  0  0  0
 21 25  1  0  0  0  0
 22 21  2  0  0  0  0
 23 17  1  0  0  0  0
 24 18  1  0  0  0  0
 26  6  1  0  0  0  0
 27 26  1  0  0  0  0
 27 29  1  0  0  0  0
 28 27  1  0  0  0  0
 30 27  1  0  0  0  0
 31 32  1  0  0  0  0
 31 30  1  0  0  0  0
 33 34  1  0  0  0  0
 33 32  2  0  0  0  0
 35 33  1  0  0  0  0
 36 35  2  0  0  0  0
 36 37  1  0  0  0  0
 37 31  2  0  0  0  0
M  END
>  <minimizedAffinity>
-4.99975824

>  <minimizedRMSD>
5.7066555

$$$$
