
 OpenBabel03252506223D

 33 35  0  0  0  0  0  0  0  0999 V2000
   39.1760   33.1520   40.1740 C   0  0  0  0  0  0  0  0  0  0  0  0
   38.4770   34.3680   40.1940 C   0  0  0  0  0  0  0  0  0  0  0  0
   39.2390   35.5430   40.1390 C   0  0  0  0  0  0  0  0  0  0  0  0
   40.5920   35.4580   40.0700 N   0  0  0  0  0  0  0  0  0  0  0  0
   41.2220   34.2590   40.0530 C   0  0  0  0  0  0  0  0  0  0  0  0
   40.5090   33.1090   40.1060 N   0  0  0  0  0  0  0  0  0  0  0  0
   37.3970   34.4450   40.2480 H   0  0  0  0  0  0  0  0  0  0  0  0
   38.7530   36.5060   40.1520 H   0  0  0  0  0  0  0  0  0  0  0  0
   42.3570   33.9020   37.2710 Cl  0  0  0  0  0  0  0  0  0  0  0  0
   43.2770   34.0950   38.7340 C   0  0  0  0  0  0  0  0  0  0  0  0
   42.6850   34.2560   39.9800 C   0  0  0  0  0  0  0  0  0  0  0  0
   43.3890   34.4110   41.1340 C   0  0  0  0  0  0  0  0  0  0  0  0
   44.7580   34.4020   41.0300 C   0  0  0  0  0  0  0  0  0  0  0  0
   45.4570   34.2500   39.8640 C   0  0  0  0  0  0  0  0  0  0  0  0
   44.6580   34.0970   38.7210 C   0  0  0  0  0  0  0  0  0  0  0  0
   42.9600   34.5380   42.1090 H   0  0  0  0  0  0  0  0  0  0  0  0
   45.4210   34.5190   41.9040 H   0  0  0  0  0  0  0  0  0  0  0  0
   46.5150   34.2400   39.7560 H   0  0  0  0  0  0  0  0  0  0  0  0
   45.1110   33.9700   37.7390 H   0  0  0  0  0  0  0  0  0  0  0  0
   38.4020   31.9070   40.2300 C   0  0  0  0  0  3  0  0  0  0  0  0
   37.1200   31.9720   40.5560 C   0  0  0  0  0  3  0  0  0  0  0  0
   36.3620   30.6840   40.6050 C   0  0  0  0  0  0  0  0  0  0  0  0
   35.3570   30.7590   40.1940 H   0  0  0  0  0  0  0  0  0  0  0  0
   36.9870   29.9660   40.0160 H   0  0  0  0  0  0  0  0  0  0  0  0
   36.4130   30.2330   41.9940 N   0  0  0  0  0  0  0  0  0  0  0  0
   35.8580   30.6930   42.7670 H   0  0  0  0  0  0  0  0  0  0  0  0
   37.2150   29.1400   42.4170 C   0  0  0  0  0  0  0  0  0  0  0  0
   38.5130   29.2030   42.8730 C   0  0  0  0  0  3  0  0  0  0  0  0
   39.1070   27.9900   43.2400 C   0  0  0  0  0  0  0  0  0  0  0  0
   40.1270   28.0480   43.5980 H   0  0  0  0  0  0  0  0  0  0  0  0
   38.3930   26.8490   43.1300 N   0  0  0  0  0  0  0  0  0  0  0  0
   37.1360   26.7900   42.6880 C   0  0  0  0  0  3  0  0  0  0  0  0
   36.5670   27.9490   42.3360 N   0  0  0  0  0  0  0  0  0  0  0  0
  1  2  1  0  0  0  0
  1 20  1  0  0  0  0
  2  7  1  0  0  0  0
  3  8  1  0  0  0  0
  3  2  2  0  0  0  0
  4  3  1  0  0  0  0
  5  4  2  0  0  0  0
  5  6  1  0  0  0  0
  6  1  2  0  0  0  0
  9 10  1  0  0  0  0
 10 11  1  0  0  0  0
 11  5  1  0  0  0  0
 11 12  2  0  0  0  0
 12 16  1  0  0  0  0
 13 12  1  0  0  0  0
 13 17  1  0  0  0  0
 14 13  2  0  0  0  0
 15 10  2  0  0  0  0
 15 14  1  0  0  0  0
 18 14  1  0  0  0  0
 19 15  1  0  0  0  0
 20 21  2  0  0  0  0
 21 22  1  0  0  0  0
 22 25  1  0  0  0  0
 23 22  1  0  0  0  0
 24 22  1  0  0  0  0
 25 27  1  0  0  0  0
 25 26  1  0  0  0  0
 27 28  1  0  0  0  0
 28 29  2  0  0  0  0
 29 30  1  0  0  0  0
 31 29  1  0  0  0  0
 32 31  2  0  0  0  0
 33 27  2  0  0  0  0
 33 32  1  0  0  0  0
M  END
>  <minimizedAffinity>
-6.01395369

$$$$

 OpenBabel03252506223D

 33 35  0  0  0  0  0  0  0  0999 V2000
   37.7450   29.0800   41.6280 C   0  0  0  0  0  0  0  0  0  0  0  0
   37.6000   29.2790   43.0090 C   0  0  0  0  0  0  0  0  0  0  0  0
   37.4720   28.1350   43.8080 C   0  0  0  0  0  0  0  0  0  0  0  0
   37.4950   26.9090   43.2260 N   0  0  0  0  0  0  0  0  0  0  0  0
   37.6370   26.7670   41.8860 C   0  0  0  0  0  0  0  0  0  0  0  0
   37.7620   27.8570   41.0920 N   0  0  0  0  0  0  0  0  0  0  0  0
   37.5820   30.2540   43.4820 H   0  0  0  0  0  0  0  0  0  0  0  0
   37.3580   28.2290   44.8770 H   0  0  0  0  0  0  0  0  0  0  0  0
   40.2570   25.2860   42.2080 Cl  0  0  0  0  0  0  0  0  0  0  0  0
   38.8200   24.6690   41.4490 C   0  0  0  0  0  0  0  0  0  0  0  0
   37.6490   25.4090   41.3390 C   0  0  0  0  0  0  0  0  0  0  0  0
   36.5140   24.9410   40.7510 C   0  0  0  0  0  0  0  0  0  0  0  0
   36.5600   23.6640   40.2460 C   0  0  0  0  0  0  0  0  0  0  0  0
   37.6500   22.8390   40.2920 C   0  0  0  0  0  0  0  0  0  0  0  0
   38.7770   23.3960   40.9150 C   0  0  0  0  0  0  0  0  0  0  0  0
   35.5970   25.4880   40.6520 H   0  0  0  0  0  0  0  0  0  0  0  0
   35.6960   23.1910   39.7500 H   0  0  0  0  0  0  0  0  0  0  0  0
   37.7120   21.8490   39.9110 H   0  0  0  0  0  0  0  0  0  0  0  0
   39.7000   22.8260   41.0080 H   0  0  0  0  0  0  0  0  0  0  0  0
   37.8810   30.2610   40.7680 C   0  0  0  0  0  3  0  0  0  0  0  0
   36.7820   30.8890   40.3750 C   0  0  0  0  0  3  0  0  0  0  0  0
   36.9570   32.0870   39.4990 C   0  0  0  0  0  0  0  0  0  0  0  0
   37.5830   31.8980   38.6290 H   0  0  0  0  0  0  0  0  0  0  0  0
   35.9170   32.3680   39.1940 H   0  0  0  0  0  0  0  0  0  0  0  0
   37.4370   33.1600   40.3660 N   0  0  0  0  0  0  0  0  0  0  0  0
   36.9190   33.4730   41.2320 H   0  0  0  0  0  0  0  0  0  0  0  0
   38.6430   33.8690   40.1150 C   0  0  0  0  0  0  0  0  0  0  0  0
   38.9260   35.1620   40.4910 C   0  0  0  0  0  3  0  0  0  0  0  0
   40.1860   35.6550   40.1360 C   0  0  0  0  0  0  0  0  0  0  0  0
   40.4030   36.6740   40.4360 H   0  0  0  0  0  0  0  0  0  0  0  0
   41.0390   34.8550   39.4590 N   0  0  0  0  0  0  0  0  0  0  0  0
   40.7620   33.6020   39.0960 C   0  0  0  0  0  3  0  0  0  0  0  0
   39.5560   33.1290   39.4350 N   0  0  0  0  0  0  0  0  0  0  0  0
  1  2  1  0  0  0  0
  2  7  1  0  0  0  0
  2  3  2  0  0  0  0
  3  8  1  0  0  0  0
  4  3  1  0  0  0  0
  5  4  2  0  0  0  0
  6  1  2  0  0  0  0
  6  5  1  0  0  0  0
 10  9  1  0  0  0  0
 11 10  1  0  0  0  0
 11  5  1  0  0  0  0
 12 11  2  0  0  0  0
 13 14  2  0  0  0  0
 13 12  1  0  0  0  0
 14 15  1  0  0  0  0
 15 19  1  0  0  0  0
 15 10  2  0  0  0  0
 16 12  1  0  0  0  0
 17 13  1  0  0  0  0
 18 14  1  0  0  0  0
 20  1  1  0  0  0  0
 21 20  2  0  0  0  0
 22 25  1  0  0  0  0
 22 21  1  0  0  0  0
 23 22  1  0  0  0  0
 24 22  1  0  0  0  0
 25 26  1  0  0  0  0
 27 25  1  0  0  0  0
 27 28  1  0  0  0  0
 29 30  1  0  0  0  0
 29 28  2  0  0  0  0
 31 29  1  0  0  0  0
 32 33  1  0  0  0  0
 32 31  2  0  0  0  0
 33 27  2  0  0  0  0
M  END
>  <minimizedAffinity>
-5.97343826

$$$$

 OpenBabel03252506223D

 33 35  0  0  0  0  0  0  0  0999 V2000
   37.0030   30.7340   40.7050 C   0  0  0  0  0  0  0  0  0  0  0  0
   35.7660   30.2100   40.3030 C   0  0  0  0  0  0  0  0  0  0  0  0
   35.5370   28.8510   40.5550 C   0  0  0  0  0  0  0  0  0  0  0  0
   36.5010   28.1140   41.1630 N   0  0  0  0  0  0  0  0  0  0  0  0
   37.6820   28.6660   41.5330 C   0  0  0  0  0  0  0  0  0  0  0  0
   37.9270   29.9770   41.3010 N   0  0  0  0  0  0  0  0  0  0  0  0
   34.9900   30.7910   39.8180 H   0  0  0  0  0  0  0  0  0  0  0  0
   34.6030   28.3940   40.2670 H   0  0  0  0  0  0  0  0  0  0  0  0
   37.1050   28.0290   44.4340 Cl  0  0  0  0  0  0  0  0  0  0  0  0
   38.4700   27.4660   43.5160 C   0  0  0  0  0  0  0  0  0  0  0  0
   38.6690   27.8000   42.1820 C   0  0  0  0  0  0  0  0  0  0  0  0
   39.7300   27.3660   41.4470 C   0  0  0  0  0  0  0  0  0  0  0  0
   40.6370   26.5580   42.0870 C   0  0  0  0  0  0  0  0  0  0  0  0
   40.5520   26.1610   43.3930 C   0  0  0  0  0  0  0  0  0  0  0  0
   39.4310   26.6490   44.0790 C   0  0  0  0  0  0  0  0  0  0  0  0
   39.9090   27.6070   40.4170 H   0  0  0  0  0  0  0  0  0  0  0  0
   41.5300   26.1540   41.5830 H   0  0  0  0  0  0  0  0  0  0  0  0
   41.2390   25.5370   43.9110 H   0  0  0  0  0  0  0  0  0  0  0  0
   39.2640   26.3950   45.1250 H   0  0  0  0  0  0  0  0  0  0  0  0
   37.2680   32.1550   40.4530 C   0  0  0  0  0  3  0  0  0  0  0  0
   38.4990   32.6120   40.6300 C   0  0  0  0  0  3  0  0  0  0  0  0
   38.7340   34.0650   40.3660 C   0  0  0  0  0  0  0  0  0  0  0  0
   38.6830   34.3250   39.3100 H   0  0  0  0  0  0  0  0  0  0  0  0
   37.9350   34.5890   40.9500 H   0  0  0  0  0  0  0  0  0  0  0  0
   40.0020   34.3960   41.0100 N   0  0  0  0  0  0  0  0  0  0  0  0
   40.0660   34.7470   42.0040 H   0  0  0  0  0  0  0  0  0  0  0  0
   41.2540   34.2720   40.3490 C   0  0  0  0  0  0  0  0  0  0  0  0
   42.4490   33.8980   40.9220 C   0  0  0  0  0  3  0  0  0  0  0  0
   43.5590   33.8400   40.0720 C   0  0  0  0  0  0  0  0  0  0  0  0
   44.4960   33.5450   40.5290 H   0  0  0  0  0  0  0  0  0  0  0  0
   43.4030   34.1460   38.7650 N   0  0  0  0  0  0  0  0  0  0  0  0
   42.2440   34.5070   38.2120 C   0  0  0  0  0  3  0  0  0  0  0  0
   41.1820   34.5630   39.0250 N   0  0  0  0  0  0  0  0  0  0  0  0
  1  6  1  0  0  0  0
  2  3  1  0  0  0  0
  2  1  2  0  0  0  0
  3  4  2  0  0  0  0
  4  5  1  0  0  0  0
  5 11  1  0  0  0  0
  6  5  2  0  0  0  0
  7  2  1  0  0  0  0
  8  3  1  0  0  0  0
 10 15  1  0  0  0  0
 10  9  1  0  0  0  0
 11 10  2  0  0  0  0
 12 13  2  0  0  0  0
 12 11  1  0  0  0  0
 13 14  1  0  0  0  0
 14 18  1  0  0  0  0
 14 15  2  0  0  0  0
 15 19  1  0  0  0  0
 16 12  1  0  0  0  0
 17 13  1  0  0  0  0
 20 21  2  0  0  0  0
 20  1  1  0  0  0  0
 22 21  1  0  0  0  0
 22 24  1  0  0  0  0
 22 25  1  0  0  0  0
 23 22  1  0  0  0  0
 25 26  1  0  0  0  0
 27 28  1  0  0  0  0
 27 25  1  0  0  0  0
 29 30  1  0  0  0  0
 29 28  2  0  0  0  0
 31 29  1  0  0  0  0
 32 31  2  0  0  0  0
 32 33  1  0  0  0  0
 33 27  2  0  0  0  0
M  END
>  <minimizedAffinity>
-5.90598917

$$$$

 OpenBabel03252506223D

 33 35  0  0  0  0  0  0  0  0999 V2000
   37.4820   31.9440   39.7180 C   0  0  0  0  0  0  0  0  0  0  0  0
   36.9330   31.4110   38.5420 C   0  0  0  0  0  0  0  0  0  0  0  0
   36.7510   30.0230   38.4950 C   0  0  0  0  0  0  0  0  0  0  0  0
   37.1060   29.2670   39.5660 N   0  0  0  0  0  0  0  0  0  0  0  0
   37.6330   29.8290   40.6810 C   0  0  0  0  0  0  0  0  0  0  0  0
   37.8180   31.1680   40.7510 N   0  0  0  0  0  0  0  0  0  0  0  0
   36.6460   32.0070   37.6830 H   0  0  0  0  0  0  0  0  0  0  0  0
   36.3330   29.5580   37.6160 H   0  0  0  0  0  0  0  0  0  0  0  0
   40.5410   28.9950   40.7590 Cl  0  0  0  0  0  0  0  0  0  0  0  0
   39.3090   28.5170   41.8890 C   0  0  0  0  0  0  0  0  0  0  0  0
   37.9900   28.9420   41.7900 C   0  0  0  0  0  0  0  0  0  0  0  0
   37.0140   28.5800   42.6680 C   0  0  0  0  0  0  0  0  0  0  0  0
   37.3830   27.7470   43.6950 C   0  0  0  0  0  0  0  0  0  0  0  0
   38.6450   27.2610   43.8980 C   0  0  0  0  0  0  0  0  0  0  0  0
   39.5920   27.6820   42.9520 C   0  0  0  0  0  0  0  0  0  0  0  0
   35.9890   28.8930   42.6170 H   0  0  0  0  0  0  0  0  0  0  0  0
   36.6700   27.3950   44.4580 H   0  0  0  0  0  0  0  0  0  0  0  0
   38.9570   26.6170   44.6840 H   0  0  0  0  0  0  0  0  0  0  0  0
   40.6280   27.3550   43.0190 H   0  0  0  0  0  0  0  0  0  0  0  0
   37.6820   33.3960   39.7920 C   0  0  0  0  0  3  0  0  0  0  0  0
   38.7730   33.8550   40.3870 C   0  0  0  0  0  3  0  0  0  0  0  0
   38.9450   35.3390   40.4470 C   0  0  0  0  0  0  0  0  0  0  0  0
   38.0650   35.8890   40.1190 H   0  0  0  0  0  0  0  0  0  0  0  0
   39.1780   35.5530   41.5200 H   0  0  0  0  0  0  0  0  0  0  0  0
   40.1590   35.6400   39.6920 N   0  0  0  0  0  0  0  0  0  0  0  0
   40.1570   36.2190   38.8080 H   0  0  0  0  0  0  0  0  0  0  0  0
   41.4430   35.1770   40.0880 C   0  0  0  0  0  0  0  0  0  0  0  0
   42.2650   34.3340   39.3750 C   0  0  0  0  0  3  0  0  0  0  0  0
   43.4940   34.0140   39.9630 C   0  0  0  0  0  0  0  0  0  0  0  0
   44.1370   33.3510   39.3970 H   0  0  0  0  0  0  0  0  0  0  0  0
   43.8020   34.5370   41.1700 N   0  0  0  0  0  0  0  0  0  0  0  0
   43.0030   35.3540   41.8590 C   0  0  0  0  0  3  0  0  0  0  0  0
   41.8270   35.6610   41.2970 N   0  0  0  0  0  0  0  0  0  0  0  0
  1 20  1  0  0  0  0
  1  6  1  0  0  0  0
  2  1  2  0  0  0  0
  3  2  1  0  0  0  0
  3  4  2  0  0  0  0
  4  5  1  0  0  0  0
  5  6  2  0  0  0  0
  5 11  1  0  0  0  0
  7  2  1  0  0  0  0
  8  3  1  0  0  0  0
  9 10  1  0  0  0  0
 10 15  1  0  0  0  0
 11 10  2  0  0  0  0
 11 12  1  0  0  0  0
 12 13  2  0  0  0  0
 13 14  1  0  0  0  0
 13 17  1  0  0  0  0
 14 18  1  0  0  0  0
 15 19  1  0  0  0  0
 15 14  2  0  0  0  0
 16 12  1  0  0  0  0
 20 21  2  0  0  0  0
 21 22  1  0  0  0  0
 22 24  1  0  0  0  0
 23 22  1  0  0  0  0
 25 27  1  0  0  0  0
 25 22  1  0  0  0  0
 26 25  1  0  0  0  0
 27 33  1  0  0  0  0
 28 29  1  0  0  0  0
 28 27  2  0  0  0  0
 29 31  2  0  0  0  0
 30 29  1  0  0  0  0
 31 32  1  0  0  0  0
 33 32  2  0  0  0  0
M  END
>  <minimizedAffinity>
-5.83362865

$$$$

 OpenBabel03252506223D

 33 35  0  0  0  0  0  0  0  0999 V2000
   36.9360   28.6560   39.3770 C   0  0  0  0  0  0  0  0  0  0  0  0
   36.1030   27.6970   38.7810 C   0  0  0  0  0  0  0  0  0  0  0  0
   36.2290   26.3750   39.2290 C   0  0  0  0  0  0  0  0  0  0  0  0
   37.1320   26.0840   40.2010 N   0  0  0  0  0  0  0  0  0  0  0  0
   37.9150   27.0460   40.7470 C   0  0  0  0  0  0  0  0  0  0  0  0
   37.8120   28.3300   40.3310 N   0  0  0  0  0  0  0  0  0  0  0  0
   35.3800   27.9210   38.0060 H   0  0  0  0  0  0  0  0  0  0  0  0
   35.6150   25.5970   38.8060 H   0  0  0  0  0  0  0  0  0  0  0  0
   37.1550   27.8850   43.5530 Cl  0  0  0  0  0  0  0  0  0  0  0  0
   38.5810   26.9990   43.1010 C   0  0  0  0  0  0  0  0  0  0  0  0
   38.8640   26.6460   41.7880 C   0  0  0  0  0  0  0  0  0  0  0  0
   39.9740   25.9500   41.4170 C   0  0  0  0  0  0  0  0  0  0  0  0
   40.8430   25.5930   42.4170 C   0  0  0  0  0  0  0  0  0  0  0  0
   40.6770   25.8820   43.7440 C   0  0  0  0  0  0  0  0  0  0  0  0
   39.5100   26.6000   44.0430 C   0  0  0  0  0  0  0  0  0  0  0  0
   40.2180   25.6640   40.4120 H   0  0  0  0  0  0  0  0  0  0  0  0
   41.7710   25.0300   42.2240 H   0  0  0  0  0  0  0  0  0  0  0  0
   41.3340   25.6180   44.5370 H   0  0  0  0  0  0  0  0  0  0  0  0
   39.2770   26.8820   45.0680 H   0  0  0  0  0  0  0  0  0  0  0  0
   36.8240   30.0470   38.9260 C   0  0  0  0  0  3  0  0  0  0  0  0
   37.0800   31.0170   39.7910 C   0  0  0  0  0  3  0  0  0  0  0  0
   36.9540   32.4230   39.2990 C   0  0  0  0  0  0  0  0  0  0  0  0
   37.4490   32.5910   38.3440 H   0  0  0  0  0  0  0  0  0  0  0  0
   35.8510   32.5960   39.2180 H   0  0  0  0  0  0  0  0  0  0  0  0
   37.4300   33.2790   40.3830 N   0  0  0  0  0  0  0  0  0  0  0  0
   36.8600   33.4740   41.2510 H   0  0  0  0  0  0  0  0  0  0  0  0
   38.6990   33.9170   40.3580 C   0  0  0  0  0  0  0  0  0  0  0  0
   38.9390   35.2530   40.1320 C   0  0  0  0  0  3  0  0  0  0  0  0
   40.2780   35.6610   40.1560 C   0  0  0  0  0  0  0  0  0  0  0  0
   40.4600   36.7140   39.9790 H   0  0  0  0  0  0  0  0  0  0  0  0
   41.2400   34.7430   40.3950 N   0  0  0  0  0  0  0  0  0  0  0  0
   41.0050   33.4480   40.6140 C   0  0  0  0  0  3  0  0  0  0  0  0
   39.7250   33.0580   40.5900 N   0  0  0  0  0  0  0  0  0  0  0  0
  1  6  1  0  0  0  0
  2  3  1  0  0  0  0
  2  1  2  0  0  0  0
  3  4  2  0  0  0  0
  4  5  1  0  0  0  0
  5 11  1  0  0  0  0
  6  5  2  0  0  0  0
  7  2  1  0  0  0  0
  8  3  1  0  0  0  0
 10  9  1  0  0  0  0
 10 15  1  0  0  0  0
 11 10  2  0  0  0  0
 12 11  1  0  0  0  0
 12 13  2  0  0  0  0
 13 14  1  0  0  0  0
 14 15  2  0  0  0  0
 14 18  1  0  0  0  0
 15 19  1  0  0  0  0
 16 12  1  0  0  0  0
 17 13  1  0  0  0  0
 20  1  1  0  0  0  0
 20 21  2  0  0  0  0
 22 21  1  0  0  0  0
 22 25  1  0  0  0  0
 23 22  1  0  0  0  0
 24 22  1  0  0  0  0
 25 26  1  0  0  0  0
 27 25  1  0  0  0  0
 27 33  1  0  0  0  0
 28 29  1  0  0  0  0
 28 27  2  0  0  0  0
 29 31  2  0  0  0  0
 30 29  1  0  0  0  0
 31 32  1  0  0  0  0
 33 32  2  0  0  0  0
M  END
>  <minimizedAffinity>
-5.83240891

$$$$

 OpenBabel03252506223D

 33 35  0  0  0  0  0  0  0  0999 V2000
   38.2780   30.5030   39.9400 C   0  0  0  0  0  0  0  0  0  0  0  0
   37.2420   31.3480   40.3680 C   0  0  0  0  0  0  0  0  0  0  0  0
   36.1320   30.7410   40.9700 C   0  0  0  0  0  0  0  0  0  0  0  0
   36.1050   29.3900   41.1110 N   0  0  0  0  0  0  0  0  0  0  0  0
   37.1300   28.6170   40.6810 C   0  0  0  0  0  0  0  0  0  0  0  0
   38.2140   29.1790   40.0960 N   0  0  0  0  0  0  0  0  0  0  0  0
   37.2560   32.4260   40.2600 H   0  0  0  0  0  0  0  0  0  0  0  0
   35.3060   31.3410   41.3170 H   0  0  0  0  0  0  0  0  0  0  0  0
   37.8420   27.6350   43.4530 Cl  0  0  0  0  0  0  0  0  0  0  0  0
   37.3330   26.6450   42.1170 C   0  0  0  0  0  0  0  0  0  0  0  0
   37.0210   27.1690   40.8690 C   0  0  0  0  0  0  0  0  0  0  0  0
   36.6180   26.4090   39.8130 C   0  0  0  0  0  0  0  0  0  0  0  0
   36.5270   25.0550   40.0240 C   0  0  0  0  0  0  0  0  0  0  0  0
   36.8080   24.4220   41.2030 C   0  0  0  0  0  0  0  0  0  0  0  0
   37.2150   25.2750   42.2400 C   0  0  0  0  0  0  0  0  0  0  0  0
   36.3690   26.7850   38.8400 H   0  0  0  0  0  0  0  0  0  0  0  0
   36.2120   24.3520   39.2350 H   0  0  0  0  0  0  0  0  0  0  0  0
   36.7460   23.3780   41.3920 H   0  0  0  0  0  0  0  0  0  0  0  0
   37.4630   24.8760   43.2230 H   0  0  0  0  0  0  0  0  0  0  0  0
   39.4530   31.1140   39.3070 C   0  0  0  0  0  3  0  0  0  0  0  0
   39.3300   31.6020   38.0820 C   0  0  0  0  0  3  0  0  0  0  0  0
   40.5470   32.2150   37.4660 C   0  0  0  0  0  0  0  0  0  0  0  0
   40.3180   33.0120   36.7610 H   0  0  0  0  0  0  0  0  0  0  0  0
   41.1380   32.6020   38.3350 H   0  0  0  0  0  0  0  0  0  0  0  0
   41.3180   31.1110   36.9000 N   0  0  0  0  0  0  0  0  0  0  0  0
   40.8820   30.1870   36.6300 H   0  0  0  0  0  0  0  0  0  0  0  0
   42.7170   31.1920   36.6670 C   0  0  0  0  0  0  0  0  0  0  0  0
   43.6000   32.0570   37.2740 C   0  0  0  0  0  3  0  0  0  0  0  0
   44.9410   31.9540   36.8880 C   0  0  0  0  0  0  0  0  0  0  0  0
   45.6300   32.6370   37.3700 H   0  0  0  0  0  0  0  0  0  0  0  0
   45.2900   31.0340   35.9630 N   0  0  0  0  0  0  0  0  0  0  0  0
   44.4330   30.1970   35.3760 C   0  0  0  0  0  3  0  0  0  0  0  0
   43.1500   30.2940   35.7450 N   0  0  0  0  0  0  0  0  0  0  0  0
  1  6  2  0  0  0  0
  1  2  1  0  0  0  0
  2  3  2  0  0  0  0
  3  4  1  0  0  0  0
  3  8  1  0  0  0  0
  5 11  1  0  0  0  0
  5  4  2  0  0  0  0
  6  5  1  0  0  0  0
  7  2  1  0  0  0  0
 10 15  1  0  0  0  0
 10  9  1  0  0  0  0
 11 10  2  0  0  0  0
 12 13  2  0  0  0  0
 12 11  1  0  0  0  0
 13 14  1  0  0  0  0
 14 18  1  0  0  0  0
 14 15  2  0  0  0  0
 15 19  1  0  0  0  0
 16 12  1  0  0  0  0
 17 13  1  0  0  0  0
 20  1  1  0  0  0  0
 21 20  2  0  0  0  0
 22 21  1  0  0  0  0
 22 24  1  0  0  0  0
 23 22  1  0  0  0  0
 25 22  1  0  0  0  0
 26 25  1  0  0  0  0
 27 25  1  0  0  0  0
 27 28  1  0  0  0  0
 29 28  2  0  0  0  0
 29 30  1  0  0  0  0
 31 29  1  0  0  0  0
 32 33  1  0  0  0  0
 32 31  2  0  0  0  0
 33 27  2  0  0  0  0
M  END
>  <minimizedAffinity>
-5.62287855

$$$$

 OpenBabel03252506223D

 33 35  0  0  0  0  0  0  0  0999 V2000
   37.7400   30.1020   40.2170 C   0  0  0  0  0  0  0  0  0  0  0  0
   36.8960   29.9730   39.1040 C   0  0  0  0  0  0  0  0  0  0  0  0
   36.8950   31.0250   38.1790 C   0  0  0  0  0  0  0  0  0  0  0  0
   37.6920   32.1030   38.3930 N   0  0  0  0  0  0  0  0  0  0  0  0
   38.4910   32.1820   39.4850 C   0  0  0  0  0  0  0  0  0  0  0  0
   38.5110   31.1790   40.3930 N   0  0  0  0  0  0  0  0  0  0  0  0
   36.2570   29.1160   38.9250 H   0  0  0  0  0  0  0  0  0  0  0  0
   36.2650   30.9790   37.3050 H   0  0  0  0  0  0  0  0  0  0  0  0
   41.2610   31.9830   38.2840 Cl  0  0  0  0  0  0  0  0  0  0  0  0
   40.6040   33.3610   39.1160 C   0  0  0  0  0  0  0  0  0  0  0  0
   39.3180   33.3800   39.6410 C   0  0  0  0  0  0  0  0  0  0  0  0
   38.7870   34.4510   40.2930 C   0  0  0  0  0  0  0  0  0  0  0  0
   39.5900   35.5570   40.4240 C   0  0  0  0  0  0  0  0  0  0  0  0
   40.8700   35.6590   39.9520 C   0  0  0  0  0  0  0  0  0  0  0  0
   41.3420   34.5150   39.2920 C   0  0  0  0  0  0  0  0  0  0  0  0
   37.7990   34.4950   40.7080 H   0  0  0  0  0  0  0  0  0  0  0  0
   39.2560   36.4750   40.9340 H   0  0  0  0  0  0  0  0  0  0  0  0
   41.5120   36.5020   40.0390 H   0  0  0  0  0  0  0  0  0  0  0  0
   42.3480   34.4880   38.8760 H   0  0  0  0  0  0  0  0  0  0  0  0
   37.7610   29.0140   41.2010 C   0  0  0  0  0  3  0  0  0  0  0  0
   36.6110   28.5950   41.7080 C   0  0  0  0  0  3  0  0  0  0  0  0
   36.6690   27.4860   42.7090 C   0  0  0  0  0  0  0  0  0  0  0  0
   35.7870   27.4320   43.3440 H   0  0  0  0  0  0  0  0  0  0  0  0
   36.7820   26.5580   42.0940 H   0  0  0  0  0  0  0  0  0  0  0  0
   37.9260   27.6570   43.4340 N   0  0  0  0  0  0  0  0  0  0  0  0
   38.1070   28.4710   44.0840 H   0  0  0  0  0  0  0  0  0  0  0  0
   39.0060   26.7410   43.3240 C   0  0  0  0  0  0  0  0  0  0  0  0
   40.2930   26.9350   43.7750 C   0  0  0  0  0  3  0  0  0  0  0  0
   41.1950   25.8870   43.5590 C   0  0  0  0  0  0  0  0  0  0  0  0
   42.2050   26.0450   43.9170 H   0  0  0  0  0  0  0  0  0  0  0  0
   40.7670   24.7680   42.9350 N   0  0  0  0  0  0  0  0  0  0  0  0
   39.5190   24.5840   42.4990 C   0  0  0  0  0  3  0  0  0  0  0  0
   38.6560   25.5850   42.7050 N   0  0  0  0  0  0  0  0  0  0  0  0
  1  6  1  0  0  0  0
  1 20  1  0  0  0  0
  2  1  2  0  0  0  0
  3  4  2  0  0  0  0
  3  2  1  0  0  0  0
  4  5  1  0  0  0  0
  5 11  1  0  0  0  0
  5  6  2  0  0  0  0
  7  2  1  0  0  0  0
  8  3  1  0  0  0  0
  9 10  1  0  0  0  0
 10 15  2  0  0  0  0
 10 11  1  0  0  0  0
 11 12  2  0  0  0  0
 12 13  1  0  0  0  0
 12 16  1  0  0  0  0
 13 17  1  0  0  0  0
 14 18  1  0  0  0  0
 14 13  2  0  0  0  0
 15 14  1  0  0  0  0
 19 15  1  0  0  0  0
 20 21  2  0  0  0  0
 21 22  1  0  0  0  0
 22 23  1  0  0  0  0
 22 25  1  0  0  0  0
 24 22  1  0  0  0  0
 25 26  1  0  0  0  0
 27 25  1  0  0  0  0
 27 28  1  0  0  0  0
 29 28  2  0  0  0  0
 29 30  1  0  0  0  0
 31 29  1  0  0  0  0
 32 33  1  0  0  0  0
 32 31  2  0  0  0  0
 33 27  2  0  0  0  0
M  END
>  <minimizedAffinity>
-5.57434797

$$$$

 OpenBabel03252506223D

 33 35  0  0  0  0  0  0  0  0999 V2000
   38.1160   31.2480   41.1580 C   0  0  0  0  0  0  0  0  0  0  0  0
   36.7720   31.2040   40.7590 C   0  0  0  0  0  0  0  0  0  0  0  0
   36.1200   29.9660   40.8470 C   0  0  0  0  0  0  0  0  0  0  0  0
   36.8020   28.8850   41.3050 N   0  0  0  0  0  0  0  0  0  0  0  0
   38.1010   28.9770   41.6780 C   0  0  0  0  0  0  0  0  0  0  0  0
   38.7530   30.1610   41.6030 N   0  0  0  0  0  0  0  0  0  0  0  0
   36.2200   32.0620   40.3940 H   0  0  0  0  0  0  0  0  0  0  0  0
   35.0860   29.8740   40.5540 H   0  0  0  0  0  0  0  0  0  0  0  0
   39.0000   27.0720   39.5060 Cl  0  0  0  0  0  0  0  0  0  0  0  0
   39.2010   26.8400   41.2170 C   0  0  0  0  0  0  0  0  0  0  0  0
   38.7630   27.7630   42.1590 C   0  0  0  0  0  0  0  0  0  0  0  0
   38.9150   27.5980   43.5010 C   0  0  0  0  0  0  0  0  0  0  0  0
   39.5390   26.4480   43.9170 C   0  0  0  0  0  0  0  0  0  0  0  0
   40.0120   25.4670   43.0900 C   0  0  0  0  0  0  0  0  0  0  0  0
   39.8170   25.7120   41.7230 C   0  0  0  0  0  0  0  0  0  0  0  0
   38.5880   28.2920   44.2510 H   0  0  0  0  0  0  0  0  0  0  0  0
   39.7110   26.2180   44.9820 H   0  0  0  0  0  0  0  0  0  0  0  0
   40.4980   24.5680   43.3860 H   0  0  0  0  0  0  0  0  0  0  0  0
   40.1560   24.9970   40.9750 H   0  0  0  0  0  0  0  0  0  0  0  0
   38.8210   32.5310   41.0760 C   0  0  0  0  0  3  0  0  0  0  0  0
   38.3560   33.4590   40.2530 C   0  0  0  0  0  3  0  0  0  0  0  0
   39.1000   34.7550   40.1930 C   0  0  0  0  0  0  0  0  0  0  0  0
   39.1050   35.2040   39.2010 H   0  0  0  0  0  0  0  0  0  0  0  0
   38.5770   35.4140   40.9310 H   0  0  0  0  0  0  0  0  0  0  0  0
   40.4270   34.4890   40.7420 N   0  0  0  0  0  0  0  0  0  0  0  0
   40.6060   34.3670   41.7770 H   0  0  0  0  0  0  0  0  0  0  0  0
   41.5850   34.3700   39.9280 C   0  0  0  0  0  0  0  0  0  0  0  0
   41.6580   34.5910   38.5710 C   0  0  0  0  0  3  0  0  0  0  0  0
   42.9130   34.4160   37.9760 C   0  0  0  0  0  0  0  0  0  0  0  0
   42.9630   34.5920   36.9080 H   0  0  0  0  0  0  0  0  0  0  0  0
   43.9610   34.0500   38.7450 N   0  0  0  0  0  0  0  0  0  0  0  0
   43.8870   33.8370   40.0610 C   0  0  0  0  0  3  0  0  0  0  0  0
   42.6870   34.0040   40.6310 N   0  0  0  0  0  0  0  0  0  0  0  0
  1  6  1  0  0  0  0
  2  3  1  0  0  0  0
  2  1  2  0  0  0  0
  3  4  2  0  0  0  0
  4  5  1  0  0  0  0
  5 11  1  0  0  0  0
  6  5  2  0  0  0  0
  7  2  1  0  0  0  0
  8  3  1  0  0  0  0
  9 10  1  0  0  0  0
 10 15  2  0  0  0  0
 10 11  1  0  0  0  0
 11 12  2  0  0  0  0
 12 13  1  0  0  0  0
 12 16  1  0  0  0  0
 13 17  1  0  0  0  0
 14 18  1  0  0  0  0
 14 13  2  0  0  0  0
 15 14  1  0  0  0  0
 19 15  1  0  0  0  0
 20  1  1  0  0  0  0
 21 20  2  0  0  0  0
 22 21  1  0  0  0  0
 22 25  1  0  0  0  0
 22 24  1  0  0  0  0
 23 22  1  0  0  0  0
 25 26  1  0  0  0  0
 27 33  1  0  0  0  0
 27 25  1  0  0  0  0
 28 27  2  0  0  0  0
 29 28  1  0  0  0  0
 29 31  2  0  0  0  0
 30 29  1  0  0  0  0
 31 32  1  0  0  0  0
 32 33  2  0  0  0  0
M  END
>  <minimizedAffinity>
-5.51406431

$$$$

 OpenBabel03252506223D

 33 35  0  0  0  0  0  0  0  0999 V2000
   38.3410   29.3770   42.4940 C   0  0  0  0  0  0  0  0  0  0  0  0
   38.1040   28.5160   43.5760 C   0  0  0  0  0  0  0  0  0  0  0  0
   37.0880   27.5630   43.4210 C   0  0  0  0  0  0  0  0  0  0  0  0
   36.3910   27.5140   42.2570 N   0  0  0  0  0  0  0  0  0  0  0  0
   36.6570   28.3680   41.2400 C   0  0  0  0  0  0  0  0  0  0  0  0
   37.6340   29.2980   41.3640 N   0  0  0  0  0  0  0  0  0  0  0  0
   38.6560   28.5480   44.5080 H   0  0  0  0  0  0  0  0  0  0  0  0
   36.8630   26.8750   44.2210 H   0  0  0  0  0  0  0  0  0  0  0  0
   37.4510   26.0900   39.4130 Cl  0  0  0  0  0  0  0  0  0  0  0  0
   36.1660   27.2270   39.1320 C   0  0  0  0  0  0  0  0  0  0  0  0
   35.8570   28.2490   40.0190 C   0  0  0  0  0  0  0  0  0  0  0  0
   34.8530   29.1460   39.8160 C   0  0  0  0  0  0  0  0  0  0  0  0
   34.1240   29.0070   38.6610 C   0  0  0  0  0  0  0  0  0  0  0  0
   34.3300   28.0440   37.7120 C   0  0  0  0  0  0  0  0  0  0  0  0
   35.3820   27.1610   37.9960 C   0  0  0  0  0  0  0  0  0  0  0  0
   34.5910   29.9440   40.4830 H   0  0  0  0  0  0  0  0  0  0  0  0
   33.2900   29.6800   38.4010 H   0  0  0  0  0  0  0  0  0  0  0  0
   33.7810   27.9140   36.8110 H   0  0  0  0  0  0  0  0  0  0  0  0
   35.6340   26.3550   37.3080 H   0  0  0  0  0  0  0  0  0  0  0  0
   39.4000   30.3840   42.6290 C   0  0  0  0  0  3  0  0  0  0  0  0
   40.4410   30.3240   41.8130 C   0  0  0  0  0  3  0  0  0  0  0  0
   41.5010   31.3640   41.9790 C   0  0  0  0  0  0  0  0  0  0  0  0
   41.3910   31.9510   42.8900 H   0  0  0  0  0  0  0  0  0  0  0  0
   42.4620   30.7900   41.9830 H   0  0  0  0  0  0  0  0  0  0  0  0
   41.4950   32.1530   40.7490 N   0  0  0  0  0  0  0  0  0  0  0  0
   42.1120   31.9280   39.9210 H   0  0  0  0  0  0  0  0  0  0  0  0
   40.6580   33.2860   40.5680 C   0  0  0  0  0  0  0  0  0  0  0  0
   39.2920   33.2760   40.3970 C   0  0  0  0  0  3  0  0  0  0  0  0
   38.6720   34.5210   40.2390 C   0  0  0  0  0  0  0  0  0  0  0  0
   37.5970   34.5050   40.1060 H   0  0  0  0  0  0  0  0  0  0  0  0
   39.4290   35.6390   40.2610 N   0  0  0  0  0  0  0  0  0  0  0  0
   40.7530   35.6460   40.4270 C   0  0  0  0  0  3  0  0  0  0  0  0
   41.3460   34.4560   40.5780 N   0  0  0  0  0  0  0  0  0  0  0  0
  1 20  1  0  0  0  0
  1  2  1  0  0  0  0
  2  7  1  0  0  0  0
  3  2  2  0  0  0  0
  3  8  1  0  0  0  0
  4  3  1  0  0  0  0
  5  6  1  0  0  0  0
  5  4  2  0  0  0  0
  6  1  2  0  0  0  0
 10  9  1  0  0  0  0
 10 11  1  0  0  0  0
 11  5  1  0  0  0  0
 12 11  2  0  0  0  0
 12 16  1  0  0  0  0
 13 12  1  0  0  0  0
 14 15  1  0  0  0  0
 14 13  2  0  0  0  0
 15 10  2  0  0  0  0
 17 13  1  0  0  0  0
 18 14  1  0  0  0  0
 19 15  1  0  0  0  0
 21 22  1  0  0  0  0
 21 20  2  0  0  0  0
 22 24  1  0  0  0  0
 22 23  1  0  0  0  0
 25 22  1  0  0  0  0
 26 25  1  0  0  0  0
 27 33  1  0  0  0  0
 27 25  1  0  0  0  0
 28 27  2  0  0  0  0
 29 31  2  0  0  0  0
 29 28  1  0  0  0  0
 30 29  1  0  0  0  0
 31 32  1  0  0  0  0
 32 33  2  0  0  0  0
M  END
>  <minimizedAffinity>
-5.5008502

$$$$
