
 OpenBabel03252508363D

 29 31  0  0  0  0  0  0  0  0999 V2000
   46.4340   33.9600   40.8670 C   0  0  0  0  0  0  0  0  0  0  0  0
   47.1410   33.8080   39.6820 C   0  0  0  0  0  0  0  0  0  0  0  0
   48.3140   34.4890   39.5650 C   0  0  0  0  0  0  0  0  0  0  0  0
   48.8130   35.3120   40.5670 C   0  0  0  0  0  0  0  0  0  0  0  0
   48.0850   35.4370   41.7240 C   0  0  0  0  0  0  0  0  0  0  0  0
   46.9030   34.7670   41.8750 C   0  0  0  0  0  0  0  0  0  0  0  0
   48.8770   34.3770   38.6390 H   0  0  0  0  0  0  0  0  0  0  0  0
   49.7550   35.8260   40.4070 H   0  0  0  0  0  0  0  0  0  0  0  0
   48.5210   36.0860   42.4630 H   0  0  0  0  0  0  0  0  0  0  0  0
   45.5490   32.5800   36.4860 C   0  0  0  0  0  0  0  0  0  0  0  0
   46.1050   33.4430   37.4410 C   0  0  0  0  0  0  0  0  0  0  0  0
   46.5640   32.9370   38.6760 C   0  0  0  0  0  0  0  0  0  0  0  0
   46.4230   31.6030   38.8420 N   0  0  0  0  0  0  0  0  0  0  0  0
   45.8940   30.7930   37.9270 C   0  0  0  0  0  0  0  0  0  0  0  0
   45.4550   31.2920   36.7420 N   0  0  0  0  0  0  0  0  0  0  0  0
   45.1030   33.1300   35.2740 N   0  0  0  0  0  0  0  0  0  0  0  0
   46.1870   34.5130   37.2400 H   0  0  0  0  0  0  0  0  0  0  0  0
   45.8440   29.7450   38.1940 H   0  0  0  0  0  0  0  0  0  0  0  0
   45.4150   34.0290   34.8460 H   0  0  0  0  0  0  0  0  0  0  0  0
   44.3890   32.6080   34.7230 H   0  0  0  0  0  0  0  0  0  0  0  0
   46.1280   34.8990   43.1030 C   0  0  0  0  0  0  0  0  0  0  0  0
   45.2380   35.9080   43.3360 C   0  0  0  0  0  0  0  0  0  0  0  0
   44.5030   36.0380   44.4960 C   0  0  0  0  0  0  0  0  0  0  0  0
   43.8010   36.8600   44.6440 H   0  0  0  0  0  0  0  0  0  0  0  0
   44.6410   35.1390   45.4770 N   0  0  0  0  0  0  0  0  0  0  0  0
   45.5160   34.1300   45.2720 C   0  0  0  0  0  0  0  0  0  0  0  0
   46.2180   34.0300   44.1320 N   0  0  0  0  0  0  0  0  0  0  0  0
   44.1580   32.7220   41.2430 N   0  0  0  0  0  0  0  0  0  0  0  0
   45.1930   33.2730   41.0700 C   0  0  0  0  0  0  0  0  0  0  0  0
  1 29  1  0  0  0  0
  1  6  1  0  0  0  0
  2  1  2  0  0  0  0
  3  2  1  0  0  0  0
  3  4  2  0  0  0  0
  4  5  1  0  0  0  0
  5  6  2  0  0  0  0
  5  9  1  0  0  0  0
  6 21  1  0  0  0  0
  7  3  1  0  0  0  0
  8  4  1  0  0  0  0
 10 15  2  0  0  0  0
 10 11  1  0  0  0  0
 11 12  2  0  0  0  0
 12 13  1  0  0  0  0
 12  2  1  0  0  0  0
 14 18  1  0  0  0  0
 14 13  2  0  0  0  0
 15 14  1  0  0  0  0
 16 10  1  0  0  0  0
 17 11  1  0  0  0  0
 19 16  1  0  0  0  0
 20 16  1  0  0  0  0
 21 22  2  0  0  0  0
 21 27  1  0  0  0  0
 22 23  1  0  0  0  0
 23 24  1  0  0  0  0
 23 25  2  0  0  0  0
 26 25  1  0  0  0  0
 27 26  2  0  0  0  0
 29 28  3  0  0  0  0
M  END
>  <minimizedAffinity>
-6.03198147

>  <minimizedRMSD>
6.40576506

$$$$
