
 OpenBabel03252507583D

 25 27  0  0  1  0  0  0  0  0999 V2000
   46.7950   32.3460   46.1520 C   0  0  1  0  0  0  0  0  0  0  0  0
   47.0930   32.5150   47.6020 C   0  0  0  0  0  0  0  0  0  0  0  0
   45.8730   31.7750   47.1860 C   0  0  2  0  0  0  0  0  0  0  0  0
   47.5100   31.7670   45.5630 H   0  0  0  0  0  0  0  0  0  0  0  0
   46.9150   33.5330   48.0260 H   0  0  0  0  0  0  0  0  0  0  0  0
   47.9810   32.0160   47.9830 H   0  0  0  0  0  0  0  0  0  0  0  0
   44.8910   32.2260   47.3580 H   0  0  0  0  0  0  0  0  0  0  0  0
   46.0860   34.7060   43.4370 C   0  0  0  0  0  0  0  0  0  0  0  0
   45.0870   35.5460   43.9770 C   0  0  0  0  0  0  0  0  0  0  0  0
   44.6580   35.2820   45.2900 C   0  0  0  0  0  0  0  0  0  0  0  0
   45.2260   34.2430   45.9570 N   0  0  0  0  0  0  0  0  0  0  0  0
   46.1880   33.4720   45.3720 C   0  0  0  0  0  0  0  0  0  0  0  0
   46.6270   33.6820   44.1320 N   0  0  0  0  0  0  0  0  0  0  0  0
   44.6500   36.3540   43.4470 H   0  0  0  0  0  0  0  0  0  0  0  0
   43.9000   35.8870   45.7570 H   0  0  0  0  0  0  0  0  0  0  0  0
   46.4770   35.0380   42.1000 C   0  0  0  0  0  0  0  0  0  0  0  0
   47.6700   35.1910   41.6980 O   0  0  0  0  0  0  0  0  0  0  0  0
   45.5950   35.1430   41.4650 H   0  0  0  0  0  0  0  0  0  0  0  0
   45.8830   30.2730   47.2120 C   0  0  0  0  0  0  0  0  0  0  0  0
   47.0560   29.5710   47.4560 C   0  0  0  0  0  3  0  0  0  0  0  0
   46.9650   28.1950   47.4600 C   0  0  0  0  0  0  0  0  0  0  0  0
   47.8860   27.6520   47.6530 H   0  0  0  0  0  0  0  0  0  0  0  0
   45.8300   27.5060   47.2470 N   0  0  0  0  0  0  0  0  0  0  0  0
   44.7130   28.2200   47.0130 C   0  0  0  0  0  3  0  0  0  0  0  0
   44.7560   29.5650   46.9990 N   0  0  0  0  0  0  0  0  0  0  0  0
  1  4  1  6  0  0  0
  1  3  1  0  0  0  0
  1  2  1  0  0  0  0
  2  6  1  0  0  0  0
  2  5  1  0  0  0  0
  3 19  1  0  0  0  0
  3  7  1  1  0  0  0
  3  2  1  0  0  0  0
  8  9  2  0  0  0  0
  8 13  1  0  0  0  0
  9 10  1  0  0  0  0
 10 15  1  0  0  0  0
 10 11  2  0  0  0  0
 12 11  1  0  0  0  0
 12  1  1  0  0  0  0
 13 12  2  0  0  0  0
 14  9  1  0  0  0  0
 16  8  1  0  0  0  0
 17 16  2  0  0  0  0
 18 16  1  0  0  0  0
 19 20  1  0  0  0  0
 20 21  2  0  0  0  0
 21 22  1  0  0  0  0
 23 21  1  0  0  0  0
 24 23  2  0  0  0  0
 25 24  1  0  0  0  0
 25 19  2  0  0  0  0
M  END
>  <minimizedAffinity>
-4.56297922

>  <minimizedRMSD>
1.63014042

$$$$
