
 OpenBabel03242517123D

 45 48  0  0  1  0  0  0  0  0999 V2000
   36.9930   26.5490   41.4040 C   0  0  2  0  0  0  0  0  0  0  0  0
   37.4640   27.9130   41.0290 C   0  0  2  0  0  0  0  0  0  0  0  0
   38.1320   28.6230   42.1470 C   0  0  0  0  0  0  0  0  0  0  0  0
   37.3410   28.6600   43.4260 C   0  0  0  0  0  0  0  0  0  0  0  0
   36.5280   27.4250   43.6800 C   0  0  0  0  0  0  0  0  0  0  0  0
   37.0330   26.2420   42.8730 C   0  0  0  0  0  0  0  0  0  0  0  0
   35.9180   26.4500   41.0640 H   0  0  0  0  0  0  0  0  0  0  0  0
   38.2060   27.8100   40.2120 H   0  0  0  0  0  0  0  0  0  0  0  0
   38.2980   29.6840   41.8320 H   0  0  0  0  0  0  0  0  0  0  0  0
   39.1390   28.1840   42.3310 H   0  0  0  0  0  0  0  0  0  0  0  0
   36.7340   29.6000   43.5140 H   0  0  0  0  0  0  0  0  0  0  0  0
   38.0870   28.7470   44.2600 H   0  0  0  0  0  0  0  0  0  0  0  0
   36.4850   27.1440   44.7440 H   0  0  0  0  0  0  0  0  0  0  0  0
   35.5010   27.6210   43.3210 H   0  0  0  0  0  0  0  0  0  0  0  0
   36.2430   25.4450   43.0390 H   0  0  0  0  0  0  0  0  0  0  0  0
   37.9470   25.8250   43.2690 H   0  0  0  0  0  0  0  0  0  0  0  0
   36.5530   30.1900   40.4220 C   0  0  1  0  0  0  0  0  0  0  0  0
   36.3160   28.7280   40.4770 C   0  0  1  0  0  0  0  0  0  0  0  0
   36.0450   28.2710   39.1920 O   0  0  0  0  0  0  0  0  0  0  0  0
   36.5030   29.2120   38.2930 C   0  0  0  0  0  0  0  0  0  0  0  0
   36.1200   30.5050   38.9870 C   0  0  2  0  0  0  0  0  0  0  0  0
   37.6250   30.4810   40.5130 H   0  0  0  0  0  0  0  0  0  0  0  0
   35.3870   28.5360   41.0650 H   0  0  0  0  0  0  0  0  0  0  0  0
   35.8890   29.1400   37.3760 H   0  0  0  0  0  0  0  0  0  0  0  0
   37.5910   29.1780   38.1200 H   0  0  0  0  0  0  0  0  0  0  0  0
   35.0450   30.6990   38.9290 H   0  0  0  0  0  0  0  0  0  0  0  0
   35.7670   30.9230   41.2840 O   0  0  0  0  0  0  0  0  0  0  0  0
   36.3350   31.2780   42.0200 H   0  0  0  0  0  0  0  0  0  0  0  0
   36.8320   31.5930   38.5030 O   0  0  0  0  0  0  0  0  0  0  0  0
   37.9220   32.0250   39.2470 C   0  0  0  0  0  0  0  0  0  0  0  0
   39.1810   31.4990   39.0440 C   0  0  0  0  0  3  0  0  0  0  0  0
   40.3270   31.8670   39.7380 C   0  0  0  0  0  0  0  0  0  0  0  0
   41.2610   31.3920   39.5000 H   0  0  0  0  0  0  0  0  0  0  0  0
   40.1840   32.8200   40.6840 N   0  0  0  0  0  0  0  0  0  0  0  0
   38.9660   33.3500   40.9000 C   0  0  0  0  0  3  0  0  0  0  0  0
   37.8670   32.9810   40.2200 N   0  0  0  0  0  0  0  0  0  0  0  0
   37.7170   25.4860   40.6790 C   0  0  0  0  0  0  0  0  0  0  0  0
   37.5800   24.2080   41.2230 C   0  0  0  0  0  0  0  0  0  0  0  0
   38.2180   23.1130   40.6210 C   0  0  0  0  0  0  0  0  0  0  0  0
   38.9630   23.4050   39.4850 N   0  0  0  0  0  0  0  0  0  0  0  0
   39.0710   24.6580   38.9900 C   0  0  0  0  0  0  0  0  0  0  0  0
   38.4480   25.7000   39.5860 N   0  0  0  0  0  0  0  0  0  0  0  0
   37.0540   23.8340   42.0880 H   0  0  0  0  0  0  0  0  0  0  0  0
   38.1990   22.0940   40.9260 H   0  0  0  0  0  0  0  0  0  0  0  0
   39.6730   24.7930   38.1020 H   0  0  0  0  0  0  0  0  0  0  0  0
  1  7  1  6  0  0  0
  1  6  1  0  0  0  0
  2  8  1  6  0  0  0
  2  1  1  0  0  0  0
  2  3  1  0  0  0  0
  3 10  1  0  0  0  0
  3  4  1  0  0  0  0
  4 11  1  0  0  0  0
  4  5  1  0  0  0  0
  4 12  1  0  0  0  0
  5 13  1  0  0  0  0
  6 15  1  0  0  0  0
  6 16  1  0  0  0  0
  6  5  1  0  0  0  0
  9  3  1  0  0  0  0
 14  5  1  0  0  0  0
 17 18  1  0  0  0  0
 17 22  1  1  0  0  0
 17 27  1  0  0  0  0
 18  2  1  0  0  0  0
 18 23  1  1  0  0  0
 19 18  1  0  0  0  0
 20 21  1  0  0  0  0
 20 19  1  0  0  0  0
 21 26  1  6  0  0  0
 21 17  1  0  0  0  0
 24 20  1  0  0  0  0
 25 20  1  0  0  0  0
 27 28  1  0  0  0  0
 29 21  1  0  0  0  0
 29 30  1  0  0  0  0
 30 36  1  0  0  0  0
 31 30  2  0  0  0  0
 31 32  1  0  0  0  0
 32 34  2  0  0  0  0
 33 32  1  0  0  0  0
 34 35  1  0  0  0  0
 36 35  2  0  0  0  0
 37 38  1  0  0  0  0
 37  1  1  0  0  0  0
 38 43  1  0  0  0  0
 39 44  1  0  0  0  0
 39 38  2  0  0  0  0
 40 39  1  0  0  0  0
 41 40  2  0  0  0  0
 41 42  1  0  0  0  0
 42 37  2  0  0  0  0
 45 41  1  0  0  0  0
M  END
>  <minimizedAffinity>
-6.18204308

$$$$

 OpenBabel03242517123D

 45 48  0  0  1  0  0  0  0  0999 V2000
   39.3500   28.3130   42.2790 C   0  0  2  0  0  0  0  0  0  0  0  0
   38.1830   29.1950   42.5640 C   0  0  2  0  0  0  0  0  0  0  0  0
   37.3410   28.6990   43.6800 C   0  0  0  0  0  0  0  0  0  0  0  0
   36.9100   27.2630   43.5470 C   0  0  0  0  0  0  0  0  0  0  0  0
   37.9330   26.3740   42.9050 C   0  0  0  0  0  0  0  0  0  0  0  0
   39.3240   26.9780   42.9650 C   0  0  0  0  0  0  0  0  0  0  0  0
   39.3730   28.1220   41.1630 H   0  0  0  0  0  0  0  0  0  0  0  0
   38.5680   30.1920   42.8590 H   0  0  0  0  0  0  0  0  0  0  0  0
   36.4110   29.3190   43.7130 H   0  0  0  0  0  0  0  0  0  0  0  0
   37.8630   28.8550   44.6510 H   0  0  0  0  0  0  0  0  0  0  0  0
   35.8990   27.1740   43.0670 H   0  0  0  0  0  0  0  0  0  0  0  0
   36.7440   26.8840   44.5900 H   0  0  0  0  0  0  0  0  0  0  0  0
   37.9600   25.3610   43.3370 H   0  0  0  0  0  0  0  0  0  0  0  0
   37.6810   26.2970   41.8310 H   0  0  0  0  0  0  0  0  0  0  0  0
   39.9460   26.2880   42.3150 H   0  0  0  0  0  0  0  0  0  0  0  0
   39.7650   26.9170   43.9490 H   0  0  0  0  0  0  0  0  0  0  0  0
   36.8930   30.7840   41.0830 C   0  0  1  0  0  0  0  0  0  0  0  0
   37.3610   29.3960   41.3110 C   0  0  1  0  0  0  0  0  0  0  0  0
   38.1330   29.0010   40.2230 O   0  0  0  0  0  0  0  0  0  0  0  0
   38.5420   30.1330   39.5490 C   0  0  0  0  0  0  0  0  0  0  0  0
   37.2940   30.9940   39.6200 C   0  0  2  0  0  0  0  0  0  0  0  0
   37.4320   31.5510   41.6850 H   0  0  0  0  0  0  0  0  0  0  0  0
   36.4780   28.7140   41.3140 H   0  0  0  0  0  0  0  0  0  0  0  0
   38.6940   29.8660   38.4880 H   0  0  0  0  0  0  0  0  0  0  0  0
   39.3930   30.6540   40.0170 H   0  0  0  0  0  0  0  0  0  0  0  0
   36.5140   30.6410   38.9380 H   0  0  0  0  0  0  0  0  0  0  0  0
   35.5280   30.9440   41.1870 O   0  0  0  0  0  0  0  0  0  0  0  0
   35.3230   31.4530   42.0160 H   0  0  0  0  0  0  0  0  0  0  0  0
   37.5650   32.3340   39.3880 O   0  0  0  0  0  0  0  0  0  0  0  0
   38.8970   32.7270   39.3990 C   0  0  0  0  0  0  0  0  0  0  0  0
   39.4310   33.4180   40.4680 C   0  0  0  0  0  3  0  0  0  0  0  0
   40.7470   33.8510   40.5670 C   0  0  0  0  0  0  0  0  0  0  0  0
   41.0600   34.3830   41.4470 H   0  0  0  0  0  0  0  0  0  0  0  0
   41.5610   33.5660   39.5280 N   0  0  0  0  0  0  0  0  0  0  0  0
   41.0640   32.8940   38.4740 C   0  0  0  0  0  3  0  0  0  0  0  0
   39.7860   32.4810   38.3940 N   0  0  0  0  0  0  0  0  0  0  0  0
   40.6380   28.9710   42.5740 C   0  0  0  0  0  0  0  0  0  0  0  0
   40.5960   30.3660   42.5800 C   0  0  0  0  0  0  0  0  0  0  0  0
   41.7570   31.1060   42.8520 C   0  0  0  0  0  0  0  0  0  0  0  0
   42.8990   30.3550   43.1040 N   0  0  0  0  0  0  0  0  0  0  0  0
   42.8970   29.0040   43.0890 C   0  0  0  0  0  0  0  0  0  0  0  0
   41.7680   28.3100   42.8240 N   0  0  0  0  0  0  0  0  0  0  0  0
   39.8020   31.0740   42.3960 H   0  0  0  0  0  0  0  0  0  0  0  0
   41.8670   32.1630   42.8890 H   0  0  0  0  0  0  0  0  0  0  0  0
   43.8330   28.5020   43.2950 H   0  0  0  0  0  0  0  0  0  0  0  0
  1  7  1  6  0  0  0
  1  2  1  0  0  0  0
  1 37  1  0  0  0  0
  1  6  1  0  0  0  0
  2  8  1  1  0  0  0
  2  3  1  0  0  0  0
  3  9  1  0  0  0  0
  3 10  1  0  0  0  0
  4  3  1  0  0  0  0
  4 12  1  0  0  0  0
  5  6  1  0  0  0  0
  5 13  1  0  0  0  0
  5  4  1  0  0  0  0
  6 16  1  0  0  0  0
 11  4  1  0  0  0  0
 14  5  1  0  0  0  0
 15  6  1  0  0  0  0
 17 27  1  0  0  0  0
 17 18  1  0  0  0  0
 17 22  1  1  0  0  0
 18 23  1  1  0  0  0
 18  2  1  0  0  0  0
 19 18  1  0  0  0  0
 20 21  1  0  0  0  0
 20 25  1  0  0  0  0
 20 19  1  0  0  0  0
 21 26  1  6  0  0  0
 21 17  1  0  0  0  0
 24 20  1  0  0  0  0
 27 28  1  0  0  0  0
 29 30  1  0  0  0  0
 29 21  1  0  0  0  0
 30 31  1  0  0  0  0
 31 32  2  0  0  0  0
 32 33  1  0  0  0  0
 34 32  1  0  0  0  0
 35 34  2  0  0  0  0
 36 35  1  0  0  0  0
 36 30  2  0  0  0  0
 37 38  2  0  0  0  0
 37 42  1  0  0  0  0
 38 39  1  0  0  0  0
 39 44  1  0  0  0  0
 39 40  2  0  0  0  0
 41 40  1  0  0  0  0
 41 45  1  0  0  0  0
 42 41  2  0  0  0  0
 43 38  1  0  0  0  0
M  END
>  <minimizedAffinity>
-6.07432652

$$$$

 OpenBabel03242517123D

 45 48  0  0  1  0  0  0  0  0999 V2000
   39.7800   32.0010   39.8090 C   0  0  2  0  0  0  0  0  0  0  0  0
   38.4480   31.3550   39.6270 C   0  0  2  0  0  0  0  0  0  0  0  0
   37.4670   32.2360   38.9490 C   0  0  0  0  0  0  0  0  0  0  0  0
   37.3210   33.6010   39.5650 C   0  0  0  0  0  0  0  0  0  0  0  0
   38.5980   34.1610   40.1190 C   0  0  0  0  0  0  0  0  0  0  0  0
   39.8180   33.4750   39.5310 C   0  0  0  0  0  0  0  0  0  0  0  0
   40.0910   31.8490   40.8870 H   0  0  0  0  0  0  0  0  0  0  0  0
   38.5850   30.4590   38.9880 H   0  0  0  0  0  0  0  0  0  0  0  0
   36.4640   31.7430   39.0050 H   0  0  0  0  0  0  0  0  0  0  0  0
   37.7170   32.3270   37.8670 H   0  0  0  0  0  0  0  0  0  0  0  0
   36.4780   33.6380   40.3050 H   0  0  0  0  0  0  0  0  0  0  0  0
   36.9850   34.2870   38.7430 H   0  0  0  0  0  0  0  0  0  0  0  0
   38.6930   35.2500   39.9780 H   0  0  0  0  0  0  0  0  0  0  0  0
   38.6170   33.9390   41.2020 H   0  0  0  0  0  0  0  0  0  0  0  0
   40.6790   33.8800   40.1480 H   0  0  0  0  0  0  0  0  0  0  0  0
   40.0230   33.7840   38.5160 H   0  0  0  0  0  0  0  0  0  0  0  0
   36.6490   30.1050   40.8830 C   0  0  1  0  0  0  0  0  0  0  0  0
   37.9170   30.8700   40.9560 C   0  0  1  0  0  0  0  0  0  0  0  0
   38.8900   30.0650   41.5390 O   0  0  0  0  0  0  0  0  0  0  0  0
   38.4780   28.7520   41.4490 C   0  0  0  0  0  0  0  0  0  0  0  0
   36.9940   28.8810   41.7370 C   0  0  2  0  0  0  0  0  0  0  0  0
   36.3990   29.7330   39.8620 H   0  0  0  0  0  0  0  0  0  0  0  0
   37.7800   31.7280   41.6550 H   0  0  0  0  0  0  0  0  0  0  0  0
   38.9260   28.1920   42.2900 H   0  0  0  0  0  0  0  0  0  0  0  0
   38.6370   28.2970   40.4580 H   0  0  0  0  0  0  0  0  0  0  0  0
   36.7970   29.0660   42.7970 H   0  0  0  0  0  0  0  0  0  0  0  0
   35.5700   30.7430   41.4550 O   0  0  0  0  0  0  0  0  0  0  0  0
   34.9490   31.0390   40.7360 H   0  0  0  0  0  0  0  0  0  0  0  0
   36.2760   27.7780   41.2990 O   0  0  0  0  0  0  0  0  0  0  0  0
   36.9650   26.5800   41.1640 C   0  0  0  0  0  0  0  0  0  0  0  0
   37.0880   25.7000   42.2200 C   0  0  0  0  0  3  0  0  0  0  0  0
   37.7570   24.4840   42.1780 C   0  0  0  0  0  0  0  0  0  0  0  0
   37.7930   23.8730   43.0620 H   0  0  0  0  0  0  0  0  0  0  0  0
   38.3280   24.1440   41.0030 N   0  0  0  0  0  0  0  0  0  0  0  0
   38.2210   24.9840   39.9570 C   0  0  0  0  0  3  0  0  0  0  0  0
   37.5700   26.1600   40.0150 N   0  0  0  0  0  0  0  0  0  0  0  0
   40.8370   31.3430   39.0170 C   0  0  0  0  0  0  0  0  0  0  0  0
   41.0810   31.9220   37.7710 C   0  0  0  0  0  0  0  0  0  0  0  0
   42.0670   31.3880   36.9250 C   0  0  0  0  0  0  0  0  0  0  0  0
   42.7460   30.2820   37.4220 N   0  0  0  0  0  0  0  0  0  0  0  0
   42.4780   29.7510   38.6360 C   0  0  0  0  0  0  0  0  0  0  0  0
   41.5240   30.2800   39.4350 N   0  0  0  0  0  0  0  0  0  0  0  0
   40.6380   32.7590   37.2540 H   0  0  0  0  0  0  0  0  0  0  0  0
   42.3550   31.7250   35.9590 H   0  0  0  0  0  0  0  0  0  0  0  0
   43.0550   28.8890   38.9410 H   0  0  0  0  0  0  0  0  0  0  0  0
  1  7  1  1  0  0  0
  2  8  1  6  0  0  0
  2  1  1  0  0  0  0
  2 18  1  0  0  0  0
  3  9  1  0  0  0  0
  3  4  1  0  0  0  0
  3  2  1  0  0  0  0
  4  5  1  0  0  0  0
  4 11  1  0  0  0  0
  5 14  1  0  0  0  0
  6  1  1  0  0  0  0
  6  5  1  0  0  0  0
  6 15  1  0  0  0  0
 10  3  1  0  0  0  0
 12  4  1  0  0  0  0
 13  5  1  0  0  0  0
 16  6  1  0  0  0  0
 17 22  1  6  0  0  0
 17 18  1  0  0  0  0
 17 27  1  0  0  0  0
 17 21  1  0  0  0  0
 18 19  1  0  0  0  0
 18 23  1  1  0  0  0
 20 19  1  0  0  0  0
 20 21  1  0  0  0  0
 20 24  1  0  0  0  0
 21 26  1  1  0  0  0
 25 20  1  0  0  0  0
 28 27  1  0  0  0  0
 29 21  1  0  0  0  0
 30 29  1  0  0  0  0
 30 31  1  0  0  0  0
 32 31  2  0  0  0  0
 32 33  1  0  0  0  0
 34 32  1  0  0  0  0
 35 36  1  0  0  0  0
 35 34  2  0  0  0  0
 36 30  2  0  0  0  0
 37 42  1  0  0  0  0
 37  1  1  0  0  0  0
 38 37  2  0  0  0  0
 39 40  2  0  0  0  0
 39 38  1  0  0  0  0
 40 41  1  0  0  0  0
 41 45  1  0  0  0  0
 41 42  2  0  0  0  0
 43 38  1  0  0  0  0
 44 39  1  0  0  0  0
M  END
>  <minimizedAffinity>
-5.95499372

$$$$

 OpenBabel03242517123D

 45 48  0  0  1  0  0  0  0  0999 V2000
   37.5830   28.6780   40.1320 C   0  0  2  0  0  0  0  0  0  0  0  0
   36.7990   29.9140   40.4150 C   0  0  2  0  0  0  0  0  0  0  0  0
   35.3330   29.6920   40.3750 C   0  0  0  0  0  0  0  0  0  0  0  0
   34.8370   29.0150   39.1250 C   0  0  0  0  0  0  0  0  0  0  0  0
   35.7830   27.9930   38.5670 C   0  0  0  0  0  0  0  0  0  0  0  0
   36.7830   27.5220   39.6060 C   0  0  0  0  0  0  0  0  0  0  0  0
   38.3630   28.9360   39.3530 H   0  0  0  0  0  0  0  0  0  0  0  0
   37.0530   30.2580   41.4380 H   0  0  0  0  0  0  0  0  0  0  0  0
   34.8310   30.6900   40.4280 H   0  0  0  0  0  0  0  0  0  0  0  0
   35.0080   29.1220   41.2750 H   0  0  0  0  0  0  0  0  0  0  0  0
   34.5010   29.7570   38.3540 H   0  0  0  0  0  0  0  0  0  0  0  0
   33.8930   28.4780   39.4080 H   0  0  0  0  0  0  0  0  0  0  0  0
   35.2710   27.1180   38.1350 H   0  0  0  0  0  0  0  0  0  0  0  0
   36.3770   28.4860   37.7750 H   0  0  0  0  0  0  0  0  0  0  0  0
   37.5140   26.8910   39.0110 H   0  0  0  0  0  0  0  0  0  0  0  0
   36.3490   26.8480   40.3300 H   0  0  0  0  0  0  0  0  0  0  0  0
   37.7130   32.2510   40.1200 C   0  0  1  0  0  0  0  0  0  0  0  0
   37.2070   31.0190   39.4680 C   0  0  1  0  0  0  0  0  0  0  0  0
   38.1970   30.5210   38.6270 O   0  0  0  0  0  0  0  0  0  0  0  0
   39.4040   31.0680   39.0080 C   0  0  0  0  0  0  0  0  0  0  0  0
   39.0010   32.4960   39.3290 C   0  0  2  0  0  0  0  0  0  0  0  0
   38.0040   32.1140   41.1870 H   0  0  0  0  0  0  0  0  0  0  0  0
   36.3560   31.2900   38.7990 H   0  0  0  0  0  0  0  0  0  0  0  0
   40.0610   31.1070   38.1200 H   0  0  0  0  0  0  0  0  0  0  0  0
   39.8570   30.5910   39.8930 H   0  0  0  0  0  0  0  0  0  0  0  0
   38.8080   33.0800   38.4240 H   0  0  0  0  0  0  0  0  0  0  0  0
   36.8940   33.3480   39.9680 O   0  0  0  0  0  0  0  0  0  0  0  0
   36.4670   33.5590   40.8410 H   0  0  0  0  0  0  0  0  0  0  0  0
   39.9350   33.1390   40.1280 O   0  0  0  0  0  0  0  0  0  0  0  0
   41.1530   33.4680   39.5470 C   0  0  0  0  0  0  0  0  0  0  0  0
   42.3270   33.4220   40.2710 C   0  0  0  0  0  3  0  0  0  0  0  0
   43.5880   33.7330   39.7780 C   0  0  0  0  0  0  0  0  0  0  0  0
   44.4390   33.6640   40.4300 H   0  0  0  0  0  0  0  0  0  0  0  0
   43.6580   34.1080   38.4820 N   0  0  0  0  0  0  0  0  0  0  0  0
   42.5270   34.1600   37.7550 C   0  0  0  0  0  3  0  0  0  0  0  0
   41.3140   33.8560   38.2490 N   0  0  0  0  0  0  0  0  0  0  0  0
   38.3570   28.2230   41.3040 C   0  0  0  0  0  0  0  0  0  0  0  0
   37.8950   27.0450   41.8900 C   0  0  0  0  0  0  0  0  0  0  0  0
   38.5510   26.5090   43.0100 C   0  0  0  0  0  0  0  0  0  0  0  0
   39.6520   27.2280   43.4580 N   0  0  0  0  0  0  0  0  0  0  0  0
   40.0680   28.3670   42.8610 C   0  0  0  0  0  0  0  0  0  0  0  0
   39.4220   28.8660   41.7840 N   0  0  0  0  0  0  0  0  0  0  0  0
   37.0650   26.3930   41.6660 H   0  0  0  0  0  0  0  0  0  0  0  0
   38.3090   25.6260   43.5520 H   0  0  0  0  0  0  0  0  0  0  0  0
   40.9340   28.8610   43.2790 H   0  0  0  0  0  0  0  0  0  0  0  0
  1  7  1  6  0  0  0
  1  2  1  0  0  0  0
  1 37  1  0  0  0  0
  2  8  1  1  0  0  0
  3  2  1  0  0  0  0
  3  9  1  0  0  0  0
  3 10  1  0  0  0  0
  4 12  1  0  0  0  0
  4  3  1  0  0  0  0
  5  4  1  0  0  0  0
  5  6  1  0  0  0  0
  6  1  1  0  0  0  0
  6 16  1  0  0  0  0
 11  4  1  0  0  0  0
 13  5  1  0  0  0  0
 14  5  1  0  0  0  0
 15  6  1  0  0  0  0
 17 22  1  1  0  0  0
 18 23  1  6  0  0  0
 18 17  1  0  0  0  0
 18  2  1  0  0  0  0
 19 20  1  0  0  0  0
 19 18  1  0  0  0  0
 20 21  1  0  0  0  0
 20 25  1  0  0  0  0
 21 26  1  6  0  0  0
 21 17  1  0  0  0  0
 21 29  1  0  0  0  0
 24 20  1  0  0  0  0
 27 17  1  0  0  0  0
 27 28  1  0  0  0  0
 30 29  1  0  0  0  0
 30 31  1  0  0  0  0
 32 31  2  0  0  0  0
 32 33  1  0  0  0  0
 34 32  1  0  0  0  0
 35 36  1  0  0  0  0
 35 34  2  0  0  0  0
 36 30  2  0  0  0  0
 37 42  2  0  0  0  0
 37 38  1  0  0  0  0
 38 39  2  0  0  0  0
 39 40  1  0  0  0  0
 39 44  1  0  0  0  0
 41 45  1  0  0  0  0
 41 40  2  0  0  0  0
 42 41  1  0  0  0  0
 43 38  1  0  0  0  0
M  END
>  <minimizedAffinity>
-5.80484629

$$$$

 OpenBabel03242517123D

 45 48  0  0  1  0  0  0  0  0999 V2000
   38.0980   31.2060   38.9800 C   0  0  2  0  0  0  0  0  0  0  0  0
   38.3930   30.0020   39.8070 C   0  0  2  0  0  0  0  0  0  0  0  0
   38.0800   28.7310   39.1110 C   0  0  0  0  0  0  0  0  0  0  0  0
   36.6920   28.6590   38.5340 C   0  0  0  0  0  0  0  0  0  0  0  0
   36.1800   29.9670   38.0080 C   0  0  0  0  0  0  0  0  0  0  0  0
   37.3080   30.9440   37.7310 C   0  0  0  0  0  0  0  0  0  0  0  0
   37.4990   31.9240   39.6180 H   0  0  0  0  0  0  0  0  0  0  0  0
   39.4790   29.9960   40.0340 H   0  0  0  0  0  0  0  0  0  0  0  0
   38.1690   27.8990   39.8540 H   0  0  0  0  0  0  0  0  0  0  0  0
   38.8360   28.5320   38.3180 H   0  0  0  0  0  0  0  0  0  0  0  0
   35.9710   28.1680   39.2400 H   0  0  0  0  0  0  0  0  0  0  0  0
   36.7440   27.9470   37.6680 H   0  0  0  0  0  0  0  0  0  0  0  0
   35.5650   29.8590   37.1000 H   0  0  0  0  0  0  0  0  0  0  0  0
   35.5650   30.4290   38.8020 H   0  0  0  0  0  0  0  0  0  0  0  0
   36.7720   31.9170   37.4990 H   0  0  0  0  0  0  0  0  0  0  0  0
   37.8610   30.7030   36.8350 H   0  0  0  0  0  0  0  0  0  0  0  0
   37.1260   28.8050   41.6370 C   0  0  1  0  0  0  0  0  0  0  0  0
   37.6700   30.0890   41.1320 C   0  0  1  0  0  0  0  0  0  0  0  0
   38.5590   30.5970   42.0740 O   0  0  0  0  0  0  0  0  0  0  0  0
   38.9430   29.5680   42.9070 C   0  0  0  0  0  0  0  0  0  0  0  0
   37.6360   28.8160   43.0810 C   0  0  2  0  0  0  0  0  0  0  0  0
   37.5570   27.9030   41.1430 H   0  0  0  0  0  0  0  0  0  0  0  0
   36.8400   30.8320   41.0720 H   0  0  0  0  0  0  0  0  0  0  0  0
   39.2040   29.9990   43.8900 H   0  0  0  0  0  0  0  0  0  0  0  0
   39.7120   28.9040   42.4790 H   0  0  0  0  0  0  0  0  0  0  0  0
   36.9450   29.3450   43.7430 H   0  0  0  0  0  0  0  0  0  0  0  0
   35.7510   28.7450   41.6620 O   0  0  0  0  0  0  0  0  0  0  0  0
   35.4390   28.1210   40.9530 H   0  0  0  0  0  0  0  0  0  0  0  0
   37.8320   27.5170   43.5260 O   0  0  0  0  0  0  0  0  0  0  0  0
   38.1320   26.5530   42.5730 C   0  0  0  0  0  0  0  0  0  0  0  0
   37.2070   25.5970   42.2050 C   0  0  0  0  0  3  0  0  0  0  0  0
   37.4170   24.5970   41.2650 C   0  0  0  0  0  0  0  0  0  0  0  0
   36.6250   23.9010   41.0530 H   0  0  0  0  0  0  0  0  0  0  0  0
   38.6270   24.5680   40.6680 N   0  0  0  0  0  0  0  0  0  0  0  0
   39.5460   25.4900   41.0090 C   0  0  0  0  0  3  0  0  0  0  0  0
   39.3270   26.4520   41.9230 N   0  0  0  0  0  0  0  0  0  0  0  0
   39.3190   31.9530   38.6190 C   0  0  0  0  0  0  0  0  0  0  0  0
   39.6310   33.0130   39.4710 C   0  0  0  0  0  0  0  0  0  0  0  0
   40.7720   33.7970   39.2340 C   0  0  0  0  0  0  0  0  0  0  0  0
   41.5260   33.4350   38.1240 N   0  0  0  0  0  0  0  0  0  0  0  0
   41.1880   32.4000   37.3230 C   0  0  0  0  0  0  0  0  0  0  0  0
   40.0850   31.6580   37.5680 N   0  0  0  0  0  0  0  0  0  0  0  0
   39.1470   33.4140   40.3480 H   0  0  0  0  0  0  0  0  0  0  0  0
   41.1260   34.6270   39.7970 H   0  0  0  0  0  0  0  0  0  0  0  0
   41.8330   32.1910   36.4810 H   0  0  0  0  0  0  0  0  0  0  0  0
  1  7  1  1  0  0  0
  1  2  1  0  0  0  0
  2  8  1  1  0  0  0
  2 18  1  0  0  0  0
  3  2  1  0  0  0  0
  3  9  1  0  0  0  0
  4  3  1  0  0  0  0
  4 11  1  0  0  0  0
  5  4  1  0  0  0  0
  5 14  1  0  0  0  0
  6  5  1  0  0  0  0
  6  1  1  0  0  0  0
 10  3  1  0  0  0  0
 12  4  1  0  0  0  0
 13  5  1  0  0  0  0
 15  6  1  0  0  0  0
 16  6  1  0  0  0  0
 17 22  1  6  0  0  0
 17 27  1  0  0  0  0
 17 21  1  0  0  0  0
 18 23  1  6  0  0  0
 18 17  1  0  0  0  0
 18 19  1  0  0  0  0
 19 20  1  0  0  0  0
 20 21  1  0  0  0  0
 20 24  1  0  0  0  0
 21 29  1  0  0  0  0
 21 26  1  1  0  0  0
 25 20  1  0  0  0  0
 28 27  1  0  0  0  0
 30 29  1  0  0  0  0
 31 30  1  0  0  0  0
 32 31  2  0  0  0  0
 33 32  1  0  0  0  0
 34 35  2  0  0  0  0
 34 32  1  0  0  0  0
 35 36  1  0  0  0  0
 36 30  2  0  0  0  0
 37  1  1  0  0  0  0
 37 38  1  0  0  0  0
 38 43  1  0  0  0  0
 39 38  2  0  0  0  0
 39 44  1  0  0  0  0
 40 39  1  0  0  0  0
 41 42  1  0  0  0  0
 41 40  2  0  0  0  0
 42 37  2  0  0  0  0
 45 41  1  0  0  0  0
M  END
>  <minimizedAffinity>
-5.80425215

$$$$

 OpenBabel03242517123D

 45 48  0  0  1  0  0  0  0  0999 V2000
   36.4610   27.2970   38.7370 C   0  0  2  0  0  0  0  0  0  0  0  0
   35.6150   28.3080   39.4340 C   0  0  2  0  0  0  0  0  0  0  0  0
   34.3560   28.6080   38.7090 C   0  0  0  0  0  0  0  0  0  0  0  0
   34.5400   28.9690   37.2590 C   0  0  0  0  0  0  0  0  0  0  0  0
   35.6570   28.2310   36.5820 C   0  0  0  0  0  0  0  0  0  0  0  0
   36.0380   26.9690   37.3350 C   0  0  0  0  0  0  0  0  0  0  0  0
   37.5150   27.7060   38.6890 H   0  0  0  0  0  0  0  0  0  0  0  0
   35.3350   27.8990   40.4260 H   0  0  0  0  0  0  0  0  0  0  0  0
   33.8720   29.4850   39.2060 H   0  0  0  0  0  0  0  0  0  0  0  0
   33.6460   27.7550   38.8050 H   0  0  0  0  0  0  0  0  0  0  0  0
   34.6050   30.0790   37.1110 H   0  0  0  0  0  0  0  0  0  0  0  0
   33.5870   28.6850   36.7380 H   0  0  0  0  0  0  0  0  0  0  0  0
   35.4350   27.9740   35.5340 H   0  0  0  0  0  0  0  0  0  0  0  0
   36.5510   28.8820   36.6080 H   0  0  0  0  0  0  0  0  0  0  0  0
   36.9770   26.6140   36.8080 H   0  0  0  0  0  0  0  0  0  0  0  0
   35.3200   26.1720   37.2060 H   0  0  0  0  0  0  0  0  0  0  0  0
   36.4280   30.0260   41.0980 C   0  0  1  0  0  0  0  0  0  0  0  0
   36.4090   29.5680   39.6880 C   0  0  1  0  0  0  0  0  0  0  0  0
   37.7180   29.3420   39.2760 O   0  0  0  0  0  0  0  0  0  0  0  0
   38.5080   29.2020   40.3980 C   0  0  0  0  0  0  0  0  0  0  0  0
   37.9260   30.2640   41.3110 C   0  0  2  0  0  0  0  0  0  0  0  0
   36.1110   29.2490   41.8330 H   0  0  0  0  0  0  0  0  0  0  0  0
   36.0330   30.3990   39.0460 H   0  0  0  0  0  0  0  0  0  0  0  0
   39.5340   29.5210   40.1390 H   0  0  0  0  0  0  0  0  0  0  0  0
   38.4420   28.2100   40.8740 H   0  0  0  0  0  0  0  0  0  0  0  0
   38.2150   31.2730   41.0030 H   0  0  0  0  0  0  0  0  0  0  0  0
   35.7630   31.2120   41.3170 O   0  0  0  0  0  0  0  0  0  0  0  0
   34.9260   31.0280   41.8220 H   0  0  0  0  0  0  0  0  0  0  0  0
   38.2570   30.0540   42.6410 O   0  0  0  0  0  0  0  0  0  0  0  0
   39.1080   28.9940   42.9270 C   0  0  0  0  0  0  0  0  0  0  0  0
   38.6170   27.7730   43.3430 C   0  0  0  0  0  3  0  0  0  0  0  0
   39.3880   26.6610   43.6520 C   0  0  0  0  0  0  0  0  0  0  0  0
   38.9020   25.7550   43.9670 H   0  0  0  0  0  0  0  0  0  0  0  0
   40.7260   26.7960   43.5300 N   0  0  0  0  0  0  0  0  0  0  0  0
   41.2300   27.9760   43.1260 C   0  0  0  0  0  3  0  0  0  0  0  0
   40.4680   29.0450   42.8310 N   0  0  0  0  0  0  0  0  0  0  0  0
   36.5790   26.0400   39.5010 C   0  0  0  0  0  0  0  0  0  0  0  0
   36.4230   24.8780   38.7450 C   0  0  0  0  0  0  0  0  0  0  0  0
   36.5190   23.6190   39.3590 C   0  0  0  0  0  0  0  0  0  0  0  0
   36.7710   23.6370   40.7250 N   0  0  0  0  0  0  0  0  0  0  0  0
   36.9160   24.7860   41.4210 C   0  0  0  0  0  0  0  0  0  0  0  0
   36.8200   25.9890   40.8120 N   0  0  0  0  0  0  0  0  0  0  0  0
   36.2180   24.7070   37.7000 H   0  0  0  0  0  0  0  0  0  0  0  0
   36.4220   22.6600   38.9080 H   0  0  0  0  0  0  0  0  0  0  0  0
   37.1090   24.7060   42.4820 H   0  0  0  0  0  0  0  0  0  0  0  0
  1  7  1  6  0  0  0
  1  2  1  0  0  0  0
  1 37  1  0  0  0  0
  2 18  1  0  0  0  0
  2  8  1  1  0  0  0
  3 10  1  0  0  0  0
  3  9  1  0  0  0  0
  3  2  1  0  0  0  0
  4  3  1  0  0  0  0
  5 14  1  0  0  0  0
  5  4  1  0  0  0  0
  5  6  1  0  0  0  0
  6  1  1  0  0  0  0
 11  4  1  0  0  0  0
 12  4  1  0  0  0  0
 13  5  1  0  0  0  0
 15  6  1  0  0  0  0
 16  6  1  0  0  0  0
 17 21  1  0  0  0  0
 17 27  1  0  0  0  0
 17 22  1  1  0  0  0
 18 23  1  6  0  0  0
 18 17  1  0  0  0  0
 19 18  1  0  0  0  0
 19 20  1  0  0  0  0
 20 25  1  0  0  0  0
 20 21  1  0  0  0  0
 21 26  1  6  0  0  0
 21 29  1  0  0  0  0
 24 20  1  0  0  0  0
 27 28  1  0  0  0  0
 29 30  1  0  0  0  0
 30 31  1  0  0  0  0
 31 32  2  0  0  0  0
 32 33  1  0  0  0  0
 34 32  1  0  0  0  0
 35 34  2  0  0  0  0
 36 30  2  0  0  0  0
 36 35  1  0  0  0  0
 37 42  1  0  0  0  0
 38 39  1  0  0  0  0
 38 37  2  0  0  0  0
 39 40  2  0  0  0  0
 40 41  1  0  0  0  0
 41 45  1  0  0  0  0
 42 41  2  0  0  0  0
 43 38  1  0  0  0  0
 44 39  1  0  0  0  0
M  END
>  <minimizedAffinity>
-5.79287052

$$$$

 OpenBabel03242517123D

 45 48  0  0  1  0  0  0  0  0999 V2000
   36.8500   27.9390   39.5960 C   0  0  2  0  0  0  0  0  0  0  0  0
   36.2360   29.1800   40.1500 C   0  0  2  0  0  0  0  0  0  0  0  0
   34.7580   29.1960   40.0310 C   0  0  0  0  0  0  0  0  0  0  0  0
   34.2380   28.9110   38.6480 C   0  0  0  0  0  0  0  0  0  0  0  0
   35.0570   27.9160   37.8800 C   0  0  0  0  0  0  0  0  0  0  0  0
   35.9240   27.0710   38.7960 C   0  0  0  0  0  0  0  0  0  0  0  0
   37.7000   28.2500   38.9150 H   0  0  0  0  0  0  0  0  0  0  0  0
   36.4820   29.2340   41.2300 H   0  0  0  0  0  0  0  0  0  0  0  0
   34.4010   30.2190   40.3110 H   0  0  0  0  0  0  0  0  0  0  0  0
   34.3070   28.4890   40.7650 H   0  0  0  0  0  0  0  0  0  0  0  0
   34.0530   29.8540   38.0690 H   0  0  0  0  0  0  0  0  0  0  0  0
   33.2140   28.4710   38.7780 H   0  0  0  0  0  0  0  0  0  0  0  0
   34.4500   27.2520   37.2440 H   0  0  0  0  0  0  0  0  0  0  0  0
   35.7570   28.4830   37.2390 H   0  0  0  0  0  0  0  0  0  0  0  0
   36.5880   26.4920   38.0820 H   0  0  0  0  0  0  0  0  0  0  0  0
   35.3600   26.3210   39.3320 H   0  0  0  0  0  0  0  0  0  0  0  0
   37.3500   31.4280   40.4420 C   0  0  1  0  0  0  0  0  0  0  0  0
   36.8480   30.4000   39.5000 C   0  0  1  0  0  0  0  0  0  0  0  0
   37.9020   29.9760   38.6980 O   0  0  0  0  0  0  0  0  0  0  0  0
   39.0840   30.3190   39.3200 C   0  0  0  0  0  0  0  0  0  0  0  0
   38.7480   31.6910   39.8730 C   0  0  2  0  0  0  0  0  0  0  0  0
   37.4850   31.0610   41.4870 H   0  0  0  0  0  0  0  0  0  0  0  0
   36.1160   30.8760   38.8050 H   0  0  0  0  0  0  0  0  0  0  0  0
   39.8550   30.4620   38.5410 H   0  0  0  0  0  0  0  0  0  0  0  0
   39.3780   29.6390   40.1370 H   0  0  0  0  0  0  0  0  0  0  0  0
   38.7210   32.4540   39.0890 H   0  0  0  0  0  0  0  0  0  0  0  0
   36.6420   32.6090   40.4210 O   0  0  0  0  0  0  0  0  0  0  0  0
   36.1190   32.6900   41.2620 H   0  0  0  0  0  0  0  0  0  0  0  0
   39.6110   32.0750   40.8890 O   0  0  0  0  0  0  0  0  0  0  0  0
   40.7740   32.7380   40.5220 C   0  0  0  0  0  0  0  0  0  0  0  0
   40.8450   33.4670   39.3520 C   0  0  0  0  0  3  0  0  0  0  0  0
   41.9620   34.1600   38.9040 C   0  0  0  0  0  0  0  0  0  0  0  0
   41.9100   34.6970   37.9750 H   0  0  0  0  0  0  0  0  0  0  0  0
   43.0620   34.1110   39.6860 N   0  0  0  0  0  0  0  0  0  0  0  0
   43.0180   33.4070   40.8320 C   0  0  0  0  0  3  0  0  0  0  0  0
   41.9280   32.7410   41.2510 N   0  0  0  0  0  0  0  0  0  0  0  0
   37.4880   27.1130   40.6400 C   0  0  0  0  0  0  0  0  0  0  0  0
   37.5080   27.6880   41.9120 C   0  0  0  0  0  0  0  0  0  0  0  0
   38.0840   26.9980   42.9900 C   0  0  0  0  0  0  0  0  0  0  0  0
   38.6080   25.7470   42.6870 N   0  0  0  0  0  0  0  0  0  0  0  0
   38.5690   25.2260   41.4410 C   0  0  0  0  0  0  0  0  0  0  0  0
   38.0090   25.9070   40.4160 N   0  0  0  0  0  0  0  0  0  0  0  0
   37.1580   28.6350   42.2910 H   0  0  0  0  0  0  0  0  0  0  0  0
   38.1680   27.3140   44.0020 H   0  0  0  0  0  0  0  0  0  0  0  0
   39.0020   24.2450   41.2970 H   0  0  0  0  0  0  0  0  0  0  0  0
  1  7  1  6  0  0  0
  1  2  1  0  0  0  0
  1 37  1  0  0  0  0
  2  8  1  1  0  0  0
  3  2  1  0  0  0  0
  3  9  1  0  0  0  0
  3 10  1  0  0  0  0
  4 12  1  0  0  0  0
  4  3  1  0  0  0  0
  5  4  1  0  0  0  0
  5  6  1  0  0  0  0
  6 16  1  0  0  0  0
  6  1  1  0  0  0  0
 11  4  1  0  0  0  0
 13  5  1  0  0  0  0
 14  5  1  0  0  0  0
 15  6  1  0  0  0  0
 17 22  1  1  0  0  0
 18 23  1  6  0  0  0
 18  2  1  0  0  0  0
 18 17  1  0  0  0  0
 19 20  1  0  0  0  0
 19 18  1  0  0  0  0
 20 21  1  0  0  0  0
 20 25  1  0  0  0  0
 21 26  1  6  0  0  0
 21 17  1  0  0  0  0
 21 29  1  0  0  0  0
 24 20  1  0  0  0  0
 27 17  1  0  0  0  0
 27 28  1  0  0  0  0
 30 29  1  0  0  0  0
 30 36  1  0  0  0  0
 31 30  2  0  0  0  0
 32 31  1  0  0  0  0
 32 34  2  0  0  0  0
 33 32  1  0  0  0  0
 34 35  1  0  0  0  0
 35 36  2  0  0  0  0
 37 38  1  0  0  0  0
 38 43  1  0  0  0  0
 38 39  2  0  0  0  0
 39 44  1  0  0  0  0
 40 39  1  0  0  0  0
 41 40  2  0  0  0  0
 42 37  2  0  0  0  0
 42 41  1  0  0  0  0
 45 41  1  0  0  0  0
M  END
>  <minimizedAffinity>
-5.7351079

$$$$

 OpenBabel03242517123D

 45 48  0  0  1  0  0  0  0  0999 V2000
   37.0130   29.4280   39.0210 C   0  0  2  0  0  0  0  0  0  0  0  0
   36.7460   29.6860   40.4650 C   0  0  2  0  0  0  0  0  0  0  0  0
   36.2040   31.0420   40.7200 C   0  0  0  0  0  0  0  0  0  0  0  0
   37.0080   32.1610   40.1140 C   0  0  0  0  0  0  0  0  0  0  0  0
   37.6310   31.8210   38.7920 C   0  0  0  0  0  0  0  0  0  0  0  0
   36.9460   30.6370   38.1340 C   0  0  0  0  0  0  0  0  0  0  0  0
   38.0570   28.9990   38.9350 H   0  0  0  0  0  0  0  0  0  0  0  0
   35.9870   28.9560   40.8110 H   0  0  0  0  0  0  0  0  0  0  0  0
   36.1940   31.2080   41.8260 H   0  0  0  0  0  0  0  0  0  0  0  0
   35.1450   31.1020   40.3790 H   0  0  0  0  0  0  0  0  0  0  0  0
   37.7490   32.5850   40.8420 H   0  0  0  0  0  0  0  0  0  0  0  0
   36.2920   33.0080   39.9390 H   0  0  0  0  0  0  0  0  0  0  0  0
   37.6440   32.6680   38.0880 H   0  0  0  0  0  0  0  0  0  0  0  0
   38.6710   31.5010   38.9860 H   0  0  0  0  0  0  0  0  0  0  0  0
   37.6100   30.4010   37.2450 H   0  0  0  0  0  0  0  0  0  0  0  0
   35.9850   30.8910   37.7120 H   0  0  0  0  0  0  0  0  0  0  0  0
   37.7920   28.6430   42.5140 C   0  0  1  0  0  0  0  0  0  0  0  0
   37.9950   29.4370   41.2790 C   0  0  1  0  0  0  0  0  0  0  0  0
   38.9120   28.7760   40.4690 O   0  0  0  0  0  0  0  0  0  0  0  0
   38.9760   27.4580   40.8730 C   0  0  0  0  0  0  0  0  0  0  0  0
   38.9090   27.6020   42.3820 C   0  0  2  0  0  0  0  0  0  0  0  0
   36.8270   28.0860   42.5430 H   0  0  0  0  0  0  0  0  0  0  0  0
   38.4800   30.4050   41.5500 H   0  0  0  0  0  0  0  0  0  0  0  0
   39.9810   27.0710   40.6270 H   0  0  0  0  0  0  0  0  0  0  0  0
   38.1420   26.8350   40.5110 H   0  0  0  0  0  0  0  0  0  0  0  0
   39.8490   27.9730   42.8010 H   0  0  0  0  0  0  0  0  0  0  0  0
   37.9910   29.3490   43.6800 O   0  0  0  0  0  0  0  0  0  0  0  0
   37.1140   29.4950   44.1260 H   0  0  0  0  0  0  0  0  0  0  0  0
   38.5350   26.4220   43.0070 O   0  0  0  0  0  0  0  0  0  0  0  0
   38.2060   25.3450   42.1940 C   0  0  0  0  0  0  0  0  0  0  0  0
   36.9030   25.1140   41.8030 C   0  0  0  0  0  3  0  0  0  0  0  0
   36.4800   24.0670   40.9960 C   0  0  0  0  0  0  0  0  0  0  0  0
   35.4370   23.9790   40.7510 H   0  0  0  0  0  0  0  0  0  0  0  0
   37.4310   23.2120   40.5620 N   0  0  0  0  0  0  0  0  0  0  0  0
   38.7100   23.4160   40.9290 C   0  0  0  0  0  3  0  0  0  0  0  0
   39.1020   24.4350   41.7130 N   0  0  0  0  0  0  0  0  0  0  0  0
   36.1310   28.3840   38.4640 C   0  0  0  0  0  0  0  0  0  0  0  0
   34.9420   28.8570   37.9070 C   0  0  0  0  0  0  0  0  0  0  0  0
   34.0220   27.9600   37.3410 C   0  0  0  0  0  0  0  0  0  0  0  0
   34.3880   26.6200   37.3850 N   0  0  0  0  0  0  0  0  0  0  0  0
   35.5500   26.2030   37.9340 C   0  0  0  0  0  0  0  0  0  0  0  0
   36.4230   27.0830   38.4740 N   0  0  0  0  0  0  0  0  0  0  0  0
   34.5220   29.8460   37.8110 H   0  0  0  0  0  0  0  0  0  0  0  0
   33.0860   28.1800   36.8870 H   0  0  0  0  0  0  0  0  0  0  0  0
   35.7530   25.1410   37.9250 H   0  0  0  0  0  0  0  0  0  0  0  0
  1  7  1  6  0  0  0
  1  2  1  0  0  0  0
  2  3  1  0  0  0  0
  2  8  1  1  0  0  0
  2 18  1  0  0  0  0
  3  9  1  0  0  0  0
  4  3  1  0  0  0  0
  4 11  1  0  0  0  0
  5 14  1  0  0  0  0
  5  4  1  0  0  0  0
  6  5  1  0  0  0  0
  6  1  1  0  0  0  0
 10  3  1  0  0  0  0
 12  4  1  0  0  0  0
 13  5  1  0  0  0  0
 15  6  1  0  0  0  0
 16  6  1  0  0  0  0
 17 22  1  6  0  0  0
 17 27  1  0  0  0  0
 18 23  1  1  0  0  0
 18 17  1  0  0  0  0
 19 20  1  0  0  0  0
 19 18  1  0  0  0  0
 20 21  1  0  0  0  0
 21 17  1  0  0  0  0
 21 26  1  1  0  0  0
 21 29  1  0  0  0  0
 24 20  1  0  0  0  0
 25 20  1  0  0  0  0
 27 28  1  0  0  0  0
 30 29  1  0  0  0  0
 31 30  1  0  0  0  0
 32 31  2  0  0  0  0
 33 32  1  0  0  0  0
 34 35  2  0  0  0  0
 34 32  1  0  0  0  0
 35 36  1  0  0  0  0
 36 30  2  0  0  0  0
 37 42  1  0  0  0  0
 37  1  1  0  0  0  0
 38 37  2  0  0  0  0
 39 40  2  0  0  0  0
 39 38  1  0  0  0  0
 40 41  1  0  0  0  0
 41 42  2  0  0  0  0
 43 38  1  0  0  0  0
 44 39  1  0  0  0  0
 45 41  1  0  0  0  0
M  END
>  <minimizedAffinity>
-5.72008133

$$$$

 OpenBabel03242517123D

 45 48  0  0  1  0  0  0  0  0999 V2000
   39.8440   32.4850   40.5900 C   0  0  2  0  0  0  0  0  0  0  0  0
   38.8470   31.4200   40.2860 C   0  0  2  0  0  0  0  0  0  0  0  0
   37.9450   31.7760   39.1640 C   0  0  0  0  0  0  0  0  0  0  0  0
   37.2740   33.1160   39.3010 C   0  0  0  0  0  0  0  0  0  0  0  0
   38.1250   34.1600   39.9610 C   0  0  0  0  0  0  0  0  0  0  0  0
   39.5990   33.8010   39.9130 C   0  0  0  0  0  0  0  0  0  0  0  0
   39.8230   32.6670   41.7070 H   0  0  0  0  0  0  0  0  0  0  0  0
   39.3990   30.5050   39.9890 H   0  0  0  0  0  0  0  0  0  0  0  0
   37.1330   31.0060   39.1160 H   0  0  0  0  0  0  0  0  0  0  0  0
   38.4950   31.7180   38.1970 H   0  0  0  0  0  0  0  0  0  0  0  0
   36.2590   33.0280   39.7700 H   0  0  0  0  0  0  0  0  0  0  0  0
   37.0570   33.4710   38.2590 H   0  0  0  0  0  0  0  0  0  0  0  0
   37.9840   35.1670   39.5360 H   0  0  0  0  0  0  0  0  0  0  0  0
   37.8530   34.1840   41.0320 H   0  0  0  0  0  0  0  0  0  0  0  0
   40.0880   34.5810   40.5740 H   0  0  0  0  0  0  0  0  0  0  0  0
   40.0330   33.9450   38.9340 H   0  0  0  0  0  0  0  0  0  0  0  0
   36.8530   30.2410   41.2950 C   0  0  1  0  0  0  0  0  0  0  0  0
   38.0590   31.0720   41.5280 C   0  0  1  0  0  0  0  0  0  0  0  0
   38.9050   30.3930   42.3980 O   0  0  0  0  0  0  0  0  0  0  0  0
   38.5530   29.0600   42.3940 C   0  0  0  0  0  0  0  0  0  0  0  0
   37.0390   29.1480   42.3510 C   0  0  2  0  0  0  0  0  0  0  0  0
   36.8320   29.7380   40.3000 H   0  0  0  0  0  0  0  0  0  0  0  0
   37.7570   32.0000   42.0670 H   0  0  0  0  0  0  0  0  0  0  0  0
   38.8270   28.6280   43.3740 H   0  0  0  0  0  0  0  0  0  0  0  0
   38.9280   28.4970   41.5240 H   0  0  0  0  0  0  0  0  0  0  0  0
   36.6180   29.4500   43.3140 H   0  0  0  0  0  0  0  0  0  0  0  0
   35.6630   30.8890   41.5440 O   0  0  0  0  0  0  0  0  0  0  0  0
   35.2010   31.0650   40.6820 H   0  0  0  0  0  0  0  0  0  0  0  0
   36.4550   27.9660   41.9200 O   0  0  0  0  0  0  0  0  0  0  0  0
   36.6100   27.6280   40.5820 C   0  0  0  0  0  0  0  0  0  0  0  0
   37.3590   26.5330   40.2010 C   0  0  0  0  0  3  0  0  0  0  0  0
   37.5700   26.1200   38.8920 C   0  0  0  0  0  0  0  0  0  0  0  0
   38.1730   25.2500   38.7060 H   0  0  0  0  0  0  0  0  0  0  0  0
   36.9870   26.8560   37.9210 N   0  0  0  0  0  0  0  0  0  0  0  0
   36.2500   27.9280   38.2670 C   0  0  0  0  0  3  0  0  0  0  0  0
   36.0570   28.3150   39.5400 N   0  0  0  0  0  0  0  0  0  0  0  0
   41.2280   32.0570   40.3050 C   0  0  0  0  0  0  0  0  0  0  0  0
   42.1680   33.0890   40.2860 C   0  0  0  0  0  0  0  0  0  0  0  0
   43.5190   32.8080   40.0300 C   0  0  0  0  0  0  0  0  0  0  0  0
   43.8200   31.4690   39.8080 N   0  0  0  0  0  0  0  0  0  0  0  0
   42.8780   30.5000   39.8340 C   0  0  0  0  0  0  0  0  0  0  0  0
   41.5820   30.7920   40.0830 N   0  0  0  0  0  0  0  0  0  0  0  0
   42.0860   34.1550   40.4280 H   0  0  0  0  0  0  0  0  0  0  0  0
   44.3340   33.4890   39.9860 H   0  0  0  0  0  0  0  0  0  0  0  0
   43.2030   29.4850   39.6490 H   0  0  0  0  0  0  0  0  0  0  0  0
  1  7  1  1  0  0  0
  2  8  1  6  0  0  0
  2  1  1  0  0  0  0
  2 18  1  0  0  0  0
  3  4  1  0  0  0  0
  3  2  1  0  0  0  0
  4 11  1  0  0  0  0
  4  5  1  0  0  0  0
  5 14  1  0  0  0  0
  6  5  1  0  0  0  0
  6 15  1  0  0  0  0
  6  1  1  0  0  0  0
  9  3  1  0  0  0  0
 10  3  1  0  0  0  0
 12  4  1  0  0  0  0
 13  5  1  0  0  0  0
 16  6  1  0  0  0  0
 17 22  1  6  0  0  0
 17 18  1  0  0  0  0
 17 27  1  0  0  0  0
 17 21  1  0  0  0  0
 18 23  1  1  0  0  0
 18 19  1  0  0  0  0
 20 19  1  0  0  0  0
 20 24  1  0  0  0  0
 21 20  1  0  0  0  0
 21 26  1  1  0  0  0
 25 20  1  0  0  0  0
 28 27  1  0  0  0  0
 29 21  1  0  0  0  0
 30 29  1  0  0  0  0
 31 30  1  0  0  0  0
 32 31  2  0  0  0  0
 33 32  1  0  0  0  0
 34 35  2  0  0  0  0
 34 32  1  0  0  0  0
 35 36  1  0  0  0  0
 36 30  2  0  0  0  0
 37  1  1  0  0  0  0
 38 37  1  0  0  0  0
 38 43  1  0  0  0  0
 39 38  2  0  0  0  0
 40 41  2  0  0  0  0
 40 39  1  0  0  0  0
 41 42  1  0  0  0  0
 42 37  2  0  0  0  0
 44 39  1  0  0  0  0
 45 41  1  0  0  0  0
M  END
>  <minimizedAffinity>
-5.51981306

$$$$
