
 OpenBabel03242520183D

 29 31  0  0  0  0  0  0  0  0999 V2000
   37.8490   24.9470   42.1760 C   0  0  0  0  0  0  0  0  0  0  0  0
   37.4320   26.2630   42.4420 C   0  0  0  0  0  0  0  0  0  0  0  0
   38.2730   27.0790   43.2280 C   0  0  0  0  0  0  0  0  0  0  0  0
   39.4390   26.5320   43.6800 N   0  0  0  0  0  0  0  0  0  0  0  0
   39.7850   25.2400   43.3830 C   0  0  0  0  0  0  0  0  0  0  0  0
   39.0040   24.4580   42.6450 N   0  0  0  0  0  0  0  0  0  0  0  0
   36.4930   26.6090   42.0460 H   0  0  0  0  0  0  0  0  0  0  0  0
   40.7400   24.9450   43.8120 H   0  0  0  0  0  0  0  0  0  0  0  0
   36.9640   24.1000   41.3420 C   0  0  0  0  0  0  0  0  0  0  0  0
   37.1460   24.3580   39.8160 C   0  0  0  0  0  0  0  0  0  0  0  0
   37.4320   23.0510   40.4880 C   0  0  0  0  0  0  0  0  0  0  0  0
   35.8980   24.1450   41.6580 H   0  0  0  0  0  0  0  0  0  0  0  0
   37.9930   24.9840   39.5030 H   0  0  0  0  0  0  0  0  0  0  0  0
   36.2130   24.4000   39.2180 H   0  0  0  0  0  0  0  0  0  0  0  0
   36.7180   22.2070   40.2740 H   0  0  0  0  0  0  0  0  0  0  0  0
   38.4750   22.6950   40.4220 H   0  0  0  0  0  0  0  0  0  0  0  0
   37.8920   28.4600   43.5430 C   0  0  0  0  0  0  0  0  0  0  0  0
   37.8150   28.5790   44.6310 H   0  0  0  0  0  0  0  0  0  0  0  0
   36.8690   28.6050   43.1440 H   0  0  0  0  0  0  0  0  0  0  0  0
   38.8660   29.4630   42.9330 C   0  0  0  0  0  0  0  0  0  0  0  0
   39.4230   30.0050   43.7110 H   0  0  0  0  0  0  0  0  0  0  0  0
   39.6450   28.8240   42.4210 H   0  0  0  0  0  0  0  0  0  0  0  0
   38.2860   30.2980   41.8870 C   0  0  0  0  0  0  0  0  0  0  0  0
   38.8290   31.2440   41.0680 C   0  0  0  0  0  3  0  0  0  0  0  0
   38.0760   31.9280   40.1460 C   0  0  0  0  0  0  0  0  0  0  0  0
   38.5570   32.6660   39.5250 H   0  0  0  0  0  0  0  0  0  0  0  0
   36.7590   31.6760   40.0260 N   0  0  0  0  0  0  0  0  0  0  0  0
   36.2200   30.7440   40.8290 C   0  0  0  0  0  3  0  0  0  0  0  0
   36.9460   30.0690   41.7350 N   0  0  0  0  0  0  0  0  0  0  0  0
  1  2  2  0  0  0  0
  1  6  1  0  0  0  0
  2  3  1  0  0  0  0
  3 17  1  0  0  0  0
  3  4  2  0  0  0  0
  5  4  1  0  0  0  0
  5  8  1  0  0  0  0
  6  5  2  0  0  0  0
  7  2  1  0  0  0  0
  9 12  1  0  0  0  0
  9  1  1  0  0  0  0
 10 11  1  0  0  0  0
 10  9  1  0  0  0  0
 11  9  1  0  0  0  0
 13 10  1  0  0  0  0
 14 10  1  0  0  0  0
 15 11  1  0  0  0  0
 16 11  1  0  0  0  0
 17 18  1  0  0  0  0
 19 17  1  0  0  0  0
 20 17  1  0  0  0  0
 20 21  1  0  0  0  0
 22 20  1  0  0  0  0
 23 20  1  0  0  0  0
 24 23  2  0  0  0  0
 25 24  1  0  0  0  0
 26 25  1  0  0  0  0
 27 25  2  0  0  0  0
 27 28  1  0  0  0  0
 28 29  2  0  0  0  0
 29 23  1  0  0  0  0
M  END
>  <minimizedAffinity>
-4.75235605

$$$$

 OpenBabel03242520183D

 29 31  0  0  0  0  0  0  0  0999 V2000
   37.6390   30.8340   40.6170 C   0  0  0  0  0  0  0  0  0  0  0  0
   37.2250   29.8190   41.4970 C   0  0  0  0  0  0  0  0  0  0  0  0
   38.0330   29.5450   42.6210 C   0  0  0  0  0  0  0  0  0  0  0  0
   39.1680   30.2870   42.7770 N   0  0  0  0  0  0  0  0  0  0  0  0
   39.5140   31.2620   41.8790 C   0  0  0  0  0  0  0  0  0  0  0  0
   38.7640   31.5340   40.8160 N   0  0  0  0  0  0  0  0  0  0  0  0
   36.3150   29.2830   41.2920 H   0  0  0  0  0  0  0  0  0  0  0  0
   40.4430   31.7670   42.1350 H   0  0  0  0  0  0  0  0  0  0  0  0
   36.7800   31.1220   39.4440 C   0  0  0  0  0  0  0  0  0  0  0  0
   37.4240   30.6660   38.0990 C   0  0  0  0  0  0  0  0  0  0  0  0
   36.1450   30.1150   38.6500 C   0  0  0  0  0  0  0  0  0  0  0  0
   36.4300   32.1770   39.4130 H   0  0  0  0  0  0  0  0  0  0  0  0
   38.3290   30.0460   38.1530 H   0  0  0  0  0  0  0  0  0  0  0  0
   37.3190   31.3720   37.2510 H   0  0  0  0  0  0  0  0  0  0  0  0
   35.1990   30.4040   38.1150 H   0  0  0  0  0  0  0  0  0  0  0  0
   36.1440   29.0320   38.8680 H   0  0  0  0  0  0  0  0  0  0  0  0
   37.6560   28.4950   43.5740 C   0  0  0  0  0  0  0  0  0  0  0  0
   37.1870   28.9520   44.4540 H   0  0  0  0  0  0  0  0  0  0  0  0
   38.6000   28.0390   43.9320 H   0  0  0  0  0  0  0  0  0  0  0  0
   36.7520   27.4510   42.9280 C   0  0  0  0  0  0  0  0  0  0  0  0
   35.8190   27.3230   43.4960 H   0  0  0  0  0  0  0  0  0  0  0  0
   36.4280   27.9220   41.9530 H   0  0  0  0  0  0  0  0  0  0  0  0
   37.4340   26.2130   42.5650 C   0  0  0  0  0  0  0  0  0  0  0  0
   37.0050   25.0900   41.9220 C   0  0  0  0  0  3  0  0  0  0  0  0
   37.8340   24.0190   41.6950 C   0  0  0  0  0  0  0  0  0  0  0  0
   37.4420   23.1570   41.1810 H   0  0  0  0  0  0  0  0  0  0  0  0
   39.1150   24.0550   42.1100 N   0  0  0  0  0  0  0  0  0  0  0  0
   39.5420   25.1590   42.7430 C   0  0  0  0  0  3  0  0  0  0  0  0
   38.7410   26.2120   42.9710 N   0  0  0  0  0  0  0  0  0  0  0  0
  1  6  2  0  0  0  0
  1  2  1  0  0  0  0
  2  3  2  0  0  0  0
  3  4  1  0  0  0  0
  3 17  1  0  0  0  0
  5  8  1  0  0  0  0
  5  4  2  0  0  0  0
  6  5  1  0  0  0  0
  7  2  1  0  0  0  0
  9  1  1  0  0  0  0
 10 13  1  0  0  0  0
 10 11  1  0  0  0  0
 10  9  1  0  0  0  0
 11 16  1  0  0  0  0
 11  9  1  0  0  0  0
 12  9  1  0  0  0  0
 14 10  1  0  0  0  0
 15 11  1  0  0  0  0
 17 19  1  0  0  0  0
 17 18  1  0  0  0  0
 20 21  1  0  0  0  0
 20 17  1  0  0  0  0
 22 20  1  0  0  0  0
 23 20  1  0  0  0  0
 23 29  1  0  0  0  0
 24 23  2  0  0  0  0
 25 24  1  0  0  0  0
 25 27  2  0  0  0  0
 26 25  1  0  0  0  0
 27 28  1  0  0  0  0
 28 29  2  0  0  0  0
M  END
>  <minimizedAffinity>
-4.72493649

$$$$

 OpenBabel03242520183D

 29 31  0  0  0  0  0  0  0  0999 V2000
   36.7720   30.8800   40.2620 C   0  0  0  0  0  0  0  0  0  0  0  0
   36.9230   30.0960   41.4180 C   0  0  0  0  0  0  0  0  0  0  0  0
   36.4510   28.7660   41.3840 C   0  0  0  0  0  0  0  0  0  0  0  0
   35.8750   28.3320   40.2250 N   0  0  0  0  0  0  0  0  0  0  0  0
   35.7580   29.1510   39.1340 C   0  0  0  0  0  0  0  0  0  0  0  0
   36.1980   30.4060   39.1490 N   0  0  0  0  0  0  0  0  0  0  0  0
   37.3880   30.5240   42.2890 H   0  0  0  0  0  0  0  0  0  0  0  0
   35.2780   28.6670   38.2860 H   0  0  0  0  0  0  0  0  0  0  0  0
   37.2800   32.2730   40.3030 C   0  0  0  0  0  0  0  0  0  0  0  0
   38.6010   32.4560   39.4970 C   0  0  0  0  0  0  0  0  0  0  0  0
   37.3130   33.1460   39.1710 C   0  0  0  0  0  0  0  0  0  0  0  0
   37.3520   32.6760   41.3370 H   0  0  0  0  0  0  0  0  0  0  0  0
   38.9260   31.6230   38.8580 H   0  0  0  0  0  0  0  0  0  0  0  0
   39.3770   33.0840   39.9780 H   0  0  0  0  0  0  0  0  0  0  0  0
   37.2680   34.2520   39.3740 H   0  0  0  0  0  0  0  0  0  0  0  0
   36.8870   32.9240   38.1760 H   0  0  0  0  0  0  0  0  0  0  0  0
   36.5770   27.8980   42.5600 C   0  0  0  0  0  0  0  0  0  0  0  0
   36.4050   26.8560   42.2650 H   0  0  0  0  0  0  0  0  0  0  0  0
   35.7450   28.1660   43.2410 H   0  0  0  0  0  0  0  0  0  0  0  0
   37.9270   28.0770   43.2450 C   0  0  0  0  0  0  0  0  0  0  0  0
   38.4160   29.0110   42.9290 H   0  0  0  0  0  0  0  0  0  0  0  0
   37.6720   28.2440   44.3330 H   0  0  0  0  0  0  0  0  0  0  0  0
   38.7760   26.8900   43.2120 C   0  0  0  0  0  0  0  0  0  0  0  0
   40.0350   26.6550   43.6800 C   0  0  0  0  0  3  0  0  0  0  0  0
   40.6550   25.4410   43.5240 C   0  0  0  0  0  0  0  0  0  0  0  0
   41.6510   25.3110   43.9130 H   0  0  0  0  0  0  0  0  0  0  0  0
   40.0210   24.4330   42.8940 N   0  0  0  0  0  0  0  0  0  0  0  0
   38.7810   24.6590   42.4330 C   0  0  0  0  0  3  0  0  0  0  0  0
   38.1640   25.8430   42.5790 N   0  0  0  0  0  0  0  0  0  0  0  0
  1  9  1  0  0  0  0
  1  2  1  0  0  0  0
  2  7  1  0  0  0  0
  3  2  2  0  0  0  0
  3 17  1  0  0  0  0
  4  3  1  0  0  0  0
  5  6  1  0  0  0  0
  5  4  2  0  0  0  0
  6  1  2  0  0  0  0
  8  5  1  0  0  0  0
  9 12  1  0  0  0  0
 10 14  1  0  0  0  0
 10  9  1  0  0  0  0
 11 15  1  0  0  0  0
 11 10  1  0  0  0  0
 11  9  1  0  0  0  0
 13 10  1  0  0  0  0
 16 11  1  0  0  0  0
 17 19  1  0  0  0  0
 17 20  1  0  0  0  0
 18 17  1  0  0  0  0
 20 22  1  0  0  0  0
 21 20  1  0  0  0  0
 23 20  1  0  0  0  0
 23 24  1  0  0  0  0
 25 24  2  0  0  0  0
 25 26  1  0  0  0  0
 27 25  1  0  0  0  0
 28 29  1  0  0  0  0
 28 27  2  0  0  0  0
 29 23  2  0  0  0  0
M  END
>  <minimizedAffinity>
-4.69748878

$$$$

 OpenBabel03242520183D

 29 31  0  0  0  0  0  0  0  0999 V2000
   37.2880   31.0340   40.0830 C   0  0  0  0  0  0  0  0  0  0  0  0
   37.7070   30.4460   41.2890 C   0  0  0  0  0  0  0  0  0  0  0  0
   36.9490   29.3720   41.8010 C   0  0  0  0  0  0  0  0  0  0  0  0
   35.8550   28.9760   41.0880 N   0  0  0  0  0  0  0  0  0  0  0  0
   35.5020   29.5950   39.9170 C   0  0  0  0  0  0  0  0  0  0  0  0
   36.2040   30.6080   39.4210 N   0  0  0  0  0  0  0  0  0  0  0  0
   38.5830   30.8270   41.7850 H   0  0  0  0  0  0  0  0  0  0  0  0
   34.6090   29.1710   39.4640 H   0  0  0  0  0  0  0  0  0  0  0  0
   38.0960   32.1560   39.5470 C   0  0  0  0  0  0  0  0  0  0  0  0
   37.3240   33.5110   39.5550 C   0  0  0  0  0  0  0  0  0  0  0  0
   38.5730   33.2490   40.3380 C   0  0  0  0  0  0  0  0  0  0  0  0
   38.5480   31.9290   38.5560 H   0  0  0  0  0  0  0  0  0  0  0  0
   36.3660   33.5470   40.0910 H   0  0  0  0  0  0  0  0  0  0  0  0
   37.4450   34.1400   38.6500 H   0  0  0  0  0  0  0  0  0  0  0  0
   39.5080   33.7670   39.9850 H   0  0  0  0  0  0  0  0  0  0  0  0
   38.4790   33.3350   41.4350 H   0  0  0  0  0  0  0  0  0  0  0  0
   37.3330   28.7180   43.0570 C   0  0  0  0  0  0  0  0  0  0  0  0
   37.1520   29.4010   43.8950 H   0  0  0  0  0  0  0  0  0  0  0  0
   38.4300   28.5700   43.0140 H   0  0  0  0  0  0  0  0  0  0  0  0
   36.6070   27.3900   43.2420 C   0  0  0  0  0  0  0  0  0  0  0  0
   36.1970   27.2960   44.2590 H   0  0  0  0  0  0  0  0  0  0  0  0
   35.6970   27.4700   42.5760 H   0  0  0  0  0  0  0  0  0  0  0  0
   37.3510   26.2300   42.7620 C   0  0  0  0  0  0  0  0  0  0  0  0
   36.9490   25.0700   42.1690 C   0  0  0  0  0  3  0  0  0  0  0  0
   37.8410   24.0920   41.8050 C   0  0  0  0  0  0  0  0  0  0  0  0
   37.4680   23.1940   41.3390 H   0  0  0  0  0  0  0  0  0  0  0  0
   39.1580   24.2590   42.0280 N   0  0  0  0  0  0  0  0  0  0  0  0
   39.5590   25.4000   42.6110 C   0  0  0  0  0  3  0  0  0  0  0  0
   38.6960   26.3650   42.9720 N   0  0  0  0  0  0  0  0  0  0  0  0
  1  2  1  0  0  0  0
  2  7  1  0  0  0  0
  2  3  2  0  0  0  0
  3 17  1  0  0  0  0
  4  3  1  0  0  0  0
  5  4  2  0  0  0  0
  6  5  1  0  0  0  0
  6  1  2  0  0  0  0
  8  5  1  0  0  0  0
  9 10  1  0  0  0  0
  9  1  1  0  0  0  0
  9 11  1  0  0  0  0
 10 13  1  0  0  0  0
 10 11  1  0  0  0  0
 11 16  1  0  0  0  0
 12  9  1  0  0  0  0
 14 10  1  0  0  0  0
 15 11  1  0  0  0  0
 17 20  1  0  0  0  0
 17 18  1  0  0  0  0
 19 17  1  0  0  0  0
 20 21  1  0  0  0  0
 22 20  1  0  0  0  0
 23 29  1  0  0  0  0
 23 20  1  0  0  0  0
 24 23  2  0  0  0  0
 25 27  2  0  0  0  0
 25 24  1  0  0  0  0
 26 25  1  0  0  0  0
 27 28  1  0  0  0  0
 28 29  2  0  0  0  0
M  END
>  <minimizedAffinity>
-4.68266535

$$$$

 OpenBabel03242520183D

 29 31  0  0  0  0  0  0  0  0999 V2000
   37.4630   26.5830   42.3640 C   0  0  0  0  0  0  0  0  0  0  0  0
   36.7220   27.6750   41.8780 C   0  0  0  0  0  0  0  0  0  0  0  0
   37.2490   28.9700   42.0700 C   0  0  0  0  0  0  0  0  0  0  0  0
   38.4450   29.0750   42.7170 N   0  0  0  0  0  0  0  0  0  0  0  0
   39.1150   27.9680   43.1670 C   0  0  0  0  0  0  0  0  0  0  0  0
   38.6340   26.7400   42.9950 N   0  0  0  0  0  0  0  0  0  0  0  0
   35.7850   27.4970   41.3810 H   0  0  0  0  0  0  0  0  0  0  0  0
   40.0520   28.2080   43.6630 H   0  0  0  0  0  0  0  0  0  0  0  0
   36.9080   25.2250   42.1510 C   0  0  0  0  0  0  0  0  0  0  0  0
   37.0370   24.7470   40.6730 C   0  0  0  0  0  0  0  0  0  0  0  0
   37.7010   24.0760   41.8350 C   0  0  0  0  0  0  0  0  0  0  0  0
   35.8740   25.1130   42.5460 H   0  0  0  0  0  0  0  0  0  0  0  0
   37.6540   25.3530   39.9940 H   0  0  0  0  0  0  0  0  0  0  0  0
   36.1530   24.2250   40.2550 H   0  0  0  0  0  0  0  0  0  0  0  0
   37.2930   23.0720   42.1390 H   0  0  0  0  0  0  0  0  0  0  0  0
   38.8050   24.0470   41.8070 H   0  0  0  0  0  0  0  0  0  0  0  0
   36.5220   30.1500   41.5880 C   0  0  0  0  0  0  0  0  0  0  0  0
   37.2300   30.9670   41.4050 H   0  0  0  0  0  0  0  0  0  0  0  0
   35.8750   30.4860   42.4230 H   0  0  0  0  0  0  0  0  0  0  0  0
   35.6940   29.8300   40.3480 C   0  0  0  0  0  0  0  0  0  0  0  0
   35.3200   28.7950   40.3730 H   0  0  0  0  0  0  0  0  0  0  0  0
   34.7670   30.4680   40.4540 H   0  0  0  0  0  0  0  0  0  0  0  0
   36.3170   30.2360   39.0930 C   0  0  0  0  0  0  0  0  0  0  0  0
   36.4160   29.6180   37.8810 C   0  0  0  0  0  3  0  0  0  0  0  0
   37.0720   30.1930   36.8220 C   0  0  0  0  0  0  0  0  0  0  0  0
   37.1190   29.6600   35.8860 H   0  0  0  0  0  0  0  0  0  0  0  0
   37.6430   31.4050   36.9560 N   0  0  0  0  0  0  0  0  0  0  0  0
   37.5480   32.0180   38.1470 C   0  0  0  0  0  3  0  0  0  0  0  0
   36.9090   31.4650   39.1910 N   0  0  0  0  0  0  0  0  0  0  0  0
  1  6  1  0  0  0  0
  2  3  1  0  0  0  0
  2  1  2  0  0  0  0
  3  4  2  0  0  0  0
  4  5  1  0  0  0  0
  5  8  1  0  0  0  0
  6  5  2  0  0  0  0
  7  2  1  0  0  0  0
  9  1  1  0  0  0  0
  9 12  1  0  0  0  0
 10 11  1  0  0  0  0
 10  9  1  0  0  0  0
 11 15  1  0  0  0  0
 11  9  1  0  0  0  0
 13 10  1  0  0  0  0
 14 10  1  0  0  0  0
 16 11  1  0  0  0  0
 17  3  1  0  0  0  0
 17 19  1  0  0  0  0
 18 17  1  0  0  0  0
 20 21  1  0  0  0  0
 20 22  1  0  0  0  0
 20 17  1  0  0  0  0
 23 29  1  0  0  0  0
 23 20  1  0  0  0  0
 24 23  2  0  0  0  0
 25 27  2  0  0  0  0
 25 24  1  0  0  0  0
 26 25  1  0  0  0  0
 27 28  1  0  0  0  0
 28 29  2  0  0  0  0
M  END
>  <minimizedAffinity>
-4.65777588

$$$$

 OpenBabel03242520183D

 29 31  0  0  0  0  0  0  0  0999 V2000
   37.6110   27.0170   41.7230 C   0  0  0  0  0  0  0  0  0  0  0  0
   36.8010   27.7960   40.8790 C   0  0  0  0  0  0  0  0  0  0  0  0
   36.6140   29.1550   41.2100 C   0  0  0  0  0  0  0  0  0  0  0  0
   37.2330   29.6220   42.3330 N   0  0  0  0  0  0  0  0  0  0  0  0
   38.0090   28.8060   43.1130 C   0  0  0  0  0  0  0  0  0  0  0  0
   38.1960   27.5240   42.8160 N   0  0  0  0  0  0  0  0  0  0  0  0
   36.3500   27.3420   40.0140 H   0  0  0  0  0  0  0  0  0  0  0  0
   38.4350   29.3180   43.9730 H   0  0  0  0  0  0  0  0  0  0  0  0
   37.8110   25.5930   41.3640 C   0  0  0  0  0  0  0  0  0  0  0  0
   36.8520   24.6360   42.1360 C   0  0  0  0  0  0  0  0  0  0  0  0
   36.8530   24.8050   40.6490 C   0  0  0  0  0  0  0  0  0  0  0  0
   38.8740   25.2750   41.4310 H   0  0  0  0  0  0  0  0  0  0  0  0
   36.0370   25.0920   42.7160 H   0  0  0  0  0  0  0  0  0  0  0  0
   37.3080   23.7000   42.5160 H   0  0  0  0  0  0  0  0  0  0  0  0
   37.2480   23.9430   40.0430 H   0  0  0  0  0  0  0  0  0  0  0  0
   35.9140   25.1830   40.2070 H   0  0  0  0  0  0  0  0  0  0  0  0
   35.7770   30.0200   40.3700 C   0  0  0  0  0  0  0  0  0  0  0  0
   35.4110   30.8650   40.9650 H   0  0  0  0  0  0  0  0  0  0  0  0
   34.8820   29.4260   40.0980 H   0  0  0  0  0  0  0  0  0  0  0  0
   36.5260   30.4850   39.1250 C   0  0  0  0  0  0  0  0  0  0  0  0
   36.9470   29.6330   38.5700 H   0  0  0  0  0  0  0  0  0  0  0  0
   35.7200   30.8950   38.4470 H   0  0  0  0  0  0  0  0  0  0  0  0
   37.4490   31.5900   39.3620 C   0  0  0  0  0  0  0  0  0  0  0  0
   37.2610   32.8430   39.8680 C   0  0  0  0  0  3  0  0  0  0  0  0
   38.2930   33.7400   39.9920 C   0  0  0  0  0  0  0  0  0  0  0  0
   38.0880   34.7170   40.3980 H   0  0  0  0  0  0  0  0  0  0  0  0
   39.5380   33.3970   39.6100 N   0  0  0  0  0  0  0  0  0  0  0  0
   39.7270   32.1650   39.1120 C   0  0  0  0  0  3  0  0  0  0  0  0
   38.7260   31.2780   38.9860 N   0  0  0  0  0  0  0  0  0  0  0  0
  1  6  1  0  0  0  0
  2  3  1  0  0  0  0
  2  1  2  0  0  0  0
  3  4  2  0  0  0  0
  4  5  1  0  0  0  0
  5  8  1  0  0  0  0
  6  5  2  0  0  0  0
  7  2  1  0  0  0  0
  9 12  1  0  0  0  0
  9  1  1  0  0  0  0
  9 10  1  0  0  0  0
 10 14  1  0  0  0  0
 10 13  1  0  0  0  0
 11  9  1  0  0  0  0
 11 10  1  0  0  0  0
 15 11  1  0  0  0  0
 16 11  1  0  0  0  0
 17 18  1  0  0  0  0
 17  3  1  0  0  0  0
 19 17  1  0  0  0  0
 20 23  1  0  0  0  0
 20 17  1  0  0  0  0
 21 20  1  0  0  0  0
 22 20  1  0  0  0  0
 23 24  1  0  0  0  0
 24 25  2  0  0  0  0
 25 26  1  0  0  0  0
 27 25  1  0  0  0  0
 28 27  2  0  0  0  0
 29 28  1  0  0  0  0
 29 23  2  0  0  0  0
M  END
>  <minimizedAffinity>
-4.65036106

$$$$

 OpenBabel03242520183D

 29 31  0  0  0  0  0  0  0  0999 V2000
   36.5930   28.9180   41.4350 C   0  0  0  0  0  0  0  0  0  0  0  0
   36.8470   27.5360   41.4420 C   0  0  0  0  0  0  0  0  0  0  0  0
   37.8550   27.0510   42.3020 C   0  0  0  0  0  0  0  0  0  0  0  0
   38.5190   27.9620   43.0720 N   0  0  0  0  0  0  0  0  0  0  0  0
   38.2210   29.2980   43.0140 C   0  0  0  0  0  0  0  0  0  0  0  0
   37.2750   29.7720   42.2100 N   0  0  0  0  0  0  0  0  0  0  0  0
   36.2740   26.8910   40.7980 H   0  0  0  0  0  0  0  0  0  0  0  0
   38.8330   29.9000   43.6830 H   0  0  0  0  0  0  0  0  0  0  0  0
   35.5260   29.4180   40.5350 C   0  0  0  0  0  0  0  0  0  0  0  0
   36.0820   29.9500   39.1790 C   0  0  0  0  0  0  0  0  0  0  0  0
   35.1520   28.7840   39.3080 C   0  0  0  0  0  0  0  0  0  0  0  0
   34.8470   30.1450   41.0320 H   0  0  0  0  0  0  0  0  0  0  0  0
   37.1390   29.7550   38.9510 H   0  0  0  0  0  0  0  0  0  0  0  0
   35.6290   30.8910   38.8080 H   0  0  0  0  0  0  0  0  0  0  0  0
   34.0950   28.9400   38.9520 H   0  0  0  0  0  0  0  0  0  0  0  0
   35.5390   27.8170   38.9410 H   0  0  0  0  0  0  0  0  0  0  0  0
   38.1690   25.6190   42.3530 C   0  0  0  0  0  0  0  0  0  0  0  0
   38.6540   25.3840   43.3080 H   0  0  0  0  0  0  0  0  0  0  0  0
   38.9290   25.4340   41.5680 H   0  0  0  0  0  0  0  0  0  0  0  0
   36.9260   24.7650   42.1250 C   0  0  0  0  0  0  0  0  0  0  0  0
   36.5410   24.3580   43.0720 H   0  0  0  0  0  0  0  0  0  0  0  0
   36.1350   25.5010   41.7910 H   0  0  0  0  0  0  0  0  0  0  0  0
   37.0560   23.7980   41.0400 C   0  0  0  0  0  0  0  0  0  0  0  0
   38.0780   22.9750   40.6690 C   0  0  0  0  0  3  0  0  0  0  0  0
   37.9830   22.1400   39.5840 C   0  0  0  0  0  0  0  0  0  0  0  0
   38.8210   21.5100   39.3360 H   0  0  0  0  0  0  0  0  0  0  0  0
   36.8560   22.1120   38.8470 N   0  0  0  0  0  0  0  0  0  0  0  0
   35.8460   22.9210   39.2090 C   0  0  0  0  0  3  0  0  0  0  0  0
   35.9280   23.7420   40.2680 N   0  0  0  0  0  0  0  0  0  0  0  0
  1  2  2  0  0  0  0
  1  6  1  0  0  0  0
  2  3  1  0  0  0  0
  3 17  1  0  0  0  0
  3  4  2  0  0  0  0
  5  4  1  0  0  0  0
  5  8  1  0  0  0  0
  6  5  2  0  0  0  0
  7  2  1  0  0  0  0
  9 12  1  0  0  0  0
  9  1  1  0  0  0  0
 10 11  1  0  0  0  0
 10  9  1  0  0  0  0
 11  9  1  0  0  0  0
 13 10  1  0  0  0  0
 14 10  1  0  0  0  0
 15 11  1  0  0  0  0
 16 11  1  0  0  0  0
 17 18  1  0  0  0  0
 19 17  1  0  0  0  0
 20 17  1  0  0  0  0
 20 21  1  0  0  0  0
 22 20  1  0  0  0  0
 23 20  1  0  0  0  0
 24 23  1  0  0  0  0
 25 24  2  0  0  0  0
 26 25  1  0  0  0  0
 27 28  2  0  0  0  0
 27 25  1  0  0  0  0
 28 29  1  0  0  0  0
 29 23  2  0  0  0  0
M  END
>  <minimizedAffinity>
-4.39306355

$$$$

 OpenBabel03242520183D

 29 31  0  0  0  0  0  0  0  0999 V2000
   39.2020   30.9400   41.7440 C   0  0  0  0  0  0  0  0  0  0  0  0
   38.9940   29.9240   42.6920 C   0  0  0  0  0  0  0  0  0  0  0  0
   37.7370   29.2830   42.7110 C   0  0  0  0  0  0  0  0  0  0  0  0
   36.8040   29.6960   41.8050 N   0  0  0  0  0  0  0  0  0  0  0  0
   37.0730   30.6950   40.9070 C   0  0  0  0  0  0  0  0  0  0  0  0
   38.2510   31.3100   40.8750 N   0  0  0  0  0  0  0  0  0  0  0  0
   39.7880   29.6660   43.3710 H   0  0  0  0  0  0  0  0  0  0  0  0
   36.2350   30.9150   40.2500 H   0  0  0  0  0  0  0  0  0  0  0  0
   40.5280   31.6030   41.7230 C   0  0  0  0  0  0  0  0  0  0  0  0
   41.4430   31.0840   40.5730 C   0  0  0  0  0  0  0  0  0  0  0  0
   40.9610   32.4960   40.6930 C   0  0  0  0  0  0  0  0  0  0  0  0
   41.0360   31.5850   42.7130 H   0  0  0  0  0  0  0  0  0  0  0  0
   40.9860   30.4350   39.8130 H   0  0  0  0  0  0  0  0  0  0  0  0
   42.5050   30.9110   40.8420 H   0  0  0  0  0  0  0  0  0  0  0  0
   41.7290   33.2690   40.9730 H   0  0  0  0  0  0  0  0  0  0  0  0
   40.3380   32.8630   39.8580 H   0  0  0  0  0  0  0  0  0  0  0  0
   37.4580   28.2160   43.6800 C   0  0  0  0  0  0  0  0  0  0  0  0
   36.9020   28.6300   44.5290 H   0  0  0  0  0  0  0  0  0  0  0  0
   38.4370   27.8900   44.0820 H   0  0  0  0  0  0  0  0  0  0  0  0
   36.7160   27.0520   43.0310 C   0  0  0  0  0  0  0  0  0  0  0  0
   35.8740   26.7170   43.6550 H   0  0  0  0  0  0  0  0  0  0  0  0
   36.2290   27.5020   42.1160 H   0  0  0  0  0  0  0  0  0  0  0  0
   37.5870   25.9890   42.5390 C   0  0  0  0  0  0  0  0  0  0  0  0
   38.9410   25.8320   42.5700 C   0  0  0  0  0  3  0  0  0  0  0  0
   39.5590   24.7340   42.0230 C   0  0  0  0  0  0  0  0  0  0  0  0
   40.6330   24.6610   42.0760 H   0  0  0  0  0  0  0  0  0  0  0  0
   38.8280   23.7700   41.4330 N   0  0  0  0  0  0  0  0  0  0  0  0
   37.4940   23.9200   41.4010 C   0  0  0  0  0  3  0  0  0  0  0  0
   36.8780   24.9890   41.9320 N   0  0  0  0  0  0  0  0  0  0  0  0
  1  2  1  0  0  0  0
  2  3  2  0  0  0  0
  2  7  1  0  0  0  0
  3 17  1  0  0  0  0
  4  3  1  0  0  0  0
  5  4  2  0  0  0  0
  6  5  1  0  0  0  0
  6  1  2  0  0  0  0
  8  5  1  0  0  0  0
  9  1  1  0  0  0  0
  9 12  1  0  0  0  0
 10 11  1  0  0  0  0
 10 14  1  0  0  0  0
 10  9  1  0  0  0  0
 11 15  1  0  0  0  0
 11  9  1  0  0  0  0
 13 10  1  0  0  0  0
 16 11  1  0  0  0  0
 17 19  1  0  0  0  0
 17 18  1  0  0  0  0
 20 21  1  0  0  0  0
 20 17  1  0  0  0  0
 22 20  1  0  0  0  0
 23 24  1  0  0  0  0
 23 20  1  0  0  0  0
 25 26  1  0  0  0  0
 25 24  2  0  0  0  0
 27 25  1  0  0  0  0
 28 27  2  0  0  0  0
 28 29  1  0  0  0  0
 29 23  2  0  0  0  0
M  END
>  <minimizedAffinity>
-4.36566591

$$$$

 OpenBabel03242520183D

 29 31  0  0  0  0  0  0  0  0999 V2000
   37.2310   31.9160   39.3790 C   0  0  0  0  0  0  0  0  0  0  0  0
   36.6550   30.7910   39.9930 C   0  0  0  0  0  0  0  0  0  0  0  0
   36.4000   29.6570   39.1930 C   0  0  0  0  0  0  0  0  0  0  0  0
   36.7290   29.7310   37.8700 N   0  0  0  0  0  0  0  0  0  0  0  0
   37.2880   30.8610   37.3350 C   0  0  0  0  0  0  0  0  0  0  0  0
   37.5360   31.9380   38.0740 N   0  0  0  0  0  0  0  0  0  0  0  0
   36.4250   30.8230   41.0440 H   0  0  0  0  0  0  0  0  0  0  0  0
   37.4950   30.7720   36.2710 H   0  0  0  0  0  0  0  0  0  0  0  0
   37.5050   33.1000   40.2280 C   0  0  0  0  0  0  0  0  0  0  0  0
   38.9470   33.0950   40.8210 C   0  0  0  0  0  0  0  0  0  0  0  0
   38.4260   34.1380   39.8810 C   0  0  0  0  0  0  0  0  0  0  0  0
   36.7260   33.2650   41.0040 H   0  0  0  0  0  0  0  0  0  0  0  0
   39.6530   32.3460   40.4350 H   0  0  0  0  0  0  0  0  0  0  0  0
   39.0330   33.4020   41.8830 H   0  0  0  0  0  0  0  0  0  0  0  0
   38.2360   35.1590   40.3150 H   0  0  0  0  0  0  0  0  0  0  0  0
   38.9600   34.2260   38.9180 H   0  0  0  0  0  0  0  0  0  0  0  0
   35.7970   28.4520   39.7750 C   0  0  0  0  0  0  0  0  0  0  0  0
   36.2660   27.5620   39.3400 H   0  0  0  0  0  0  0  0  0  0  0  0
   34.7400   28.4360   39.4430 H   0  0  0  0  0  0  0  0  0  0  0  0
   35.8950   28.4570   41.2970 C   0  0  0  0  0  0  0  0  0  0  0  0
   35.8880   29.4830   41.6940 H   0  0  0  0  0  0  0  0  0  0  0  0
   34.9160   28.0120   41.6450 H   0  0  0  0  0  0  0  0  0  0  0  0
   36.9400   27.5900   41.8310 C   0  0  0  0  0  0  0  0  0  0  0  0
   37.2110   26.2670   41.6440 C   0  0  0  0  0  3  0  0  0  0  0  0
   38.2610   25.6430   42.2710 C   0  0  0  0  0  0  0  0  0  0  0  0
   38.4300   24.5950   42.0860 H   0  0  0  0  0  0  0  0  0  0  0  0
   39.0630   26.3370   43.1000 N   0  0  0  0  0  0  0  0  0  0  0  0
   38.8000   27.6400   43.2870 C   0  0  0  0  0  3  0  0  0  0  0  0
   37.7760   28.2620   42.6800 N   0  0  0  0  0  0  0  0  0  0  0  0
  1  2  1  0  0  0  0
  1  9  1  0  0  0  0
  2  7  1  0  0  0  0
  3 17  1  0  0  0  0
  3  2  2  0  0  0  0
  4  3  1  0  0  0  0
  5  4  2  0  0  0  0
  5  6  1  0  0  0  0
  6  1  2  0  0  0  0
  8  5  1  0  0  0  0
  9 10  1  0  0  0  0
  9 12  1  0  0  0  0
 10 14  1  0  0  0  0
 11  9  1  0  0  0  0
 11 15  1  0  0  0  0
 11 10  1  0  0  0  0
 13 10  1  0  0  0  0
 16 11  1  0  0  0  0
 17 20  1  0  0  0  0
 18 17  1  0  0  0  0
 19 17  1  0  0  0  0
 20 22  1  0  0  0  0
 20 21  1  0  0  0  0
 20 23  1  0  0  0  0
 23 29  1  0  0  0  0
 24 23  2  0  0  0  0
 24 25  1  0  0  0  0
 25 27  2  0  0  0  0
 26 25  1  0  0  0  0
 27 28  1  0  0  0  0
 29 28  2  0  0  0  0
M  END
>  <minimizedAffinity>
-4.36482477

$$$$
