
 OpenBabel03242518033D

 35 37  0  0  0  0  0  0  0  0999 V2000
   36.5980   27.9730   42.7920 C   0  0  0  0  0  0  0  0  0  0  0  0
   35.9560   27.5490   42.0080 H   0  0  0  0  0  0  0  0  0  0  0  0
   35.8840   28.3230   43.5840 H   0  0  0  0  0  0  0  0  0  0  0  0
   38.5630   29.5020   42.8730 C   0  0  0  0  0  0  0  0  0  0  0  0
   37.3280   29.1360   42.3100 C   0  0  0  0  0  0  0  0  0  0  0  0
   36.8430   29.9430   41.2740 C   0  0  0  0  0  0  0  0  0  0  0  0
   37.5680   31.0070   40.8770 N   0  0  0  0  0  0  0  0  0  0  0  0
   38.7430   31.3350   41.4310 C   0  0  0  0  0  0  0  0  0  0  0  0
   39.2300   30.5820   42.4230 N   0  0  0  0  0  0  0  0  0  0  0  0
   39.0120   28.9350   43.6780 H   0  0  0  0  0  0  0  0  0  0  0  0
   35.8940   29.6880   40.8180 H   0  0  0  0  0  0  0  0  0  0  0  0
   39.4710   32.5030   40.9470 C   0  0  0  0  0  0  0  0  0  0  0  0
   38.8090   33.6840   40.6800 C   0  0  0  0  0  3  0  0  0  0  0  0
   39.5960   34.7240   40.2270 C   0  0  0  0  0  0  0  0  0  0  0  0
   39.1090   35.6560   40.0110 H   0  0  0  0  0  0  0  0  0  0  0  0
   40.9290   34.6640   40.0320 N   0  0  0  0  0  0  0  0  0  0  0  0
   41.5290   33.4710   40.3130 C   0  0  0  0  0  3  0  0  0  0  0  0
   40.7970   32.4390   40.7550 N   0  0  0  0  0  0  0  0  0  0  0  0
   37.6090   27.0000   43.3600 C   0  0  0  0  0  0  0  0  0  0  0  0
   38.6230   27.4800   43.4930 H   0  0  0  0  0  0  0  0  0  0  0  0
   37.2840   26.7780   44.4000 H   0  0  0  0  0  0  0  0  0  0  0  0
   39.0980   25.2820   42.4150 C   0  0  0  0  0  0  0  0  0  0  0  0
   37.8250   25.7920   42.5530 C   0  0  0  0  0  0  0  0  0  0  0  0
   36.7230   25.2220   41.9740 C   0  0  0  0  0  0  0  0  0  0  0  0
   36.8960   24.0810   41.2140 C   0  0  0  0  0  0  0  0  0  0  0  0
   38.1210   23.5130   41.0280 C   0  0  0  0  0  0  0  0  0  0  0  0
   39.1940   24.1440   41.6440 C   0  0  0  0  0  0  0  0  0  0  0  0
   35.7000   25.5360   42.0120 H   0  0  0  0  0  0  0  0  0  0  0  0
   36.0780   23.5550   40.7130 H   0  0  0  0  0  0  0  0  0  0  0  0
   38.2870   22.6280   40.4450 H   0  0  0  0  0  0  0  0  0  0  0  0
   40.1800   23.7130   41.5120 H   0  0  0  0  0  0  0  0  0  0  0  0
   40.5290   25.9890   43.1360 S   0  0  0  0  0  0  0  0  0  0  0  0
   41.0520   27.1570   42.3260 O   0  0  0  0  0  0  0  0  0  0  0  0
   41.6430   24.9740   43.0890 O   0  0  0  0  0  0  0  0  0  0  0  0
   40.3810   26.3230   44.4340 H   0  0  0  0  0  0  0  0  0  0  0  0
  1 19  1  0  0  0  0
  1  3  1  0  0  0  0
  2  1  1  0  0  0  0
  4 10  1  0  0  0  0
  5  1  1  0  0  0  0
  5  4  2  0  0  0  0
  6  5  1  0  0  0  0
  7  6  2  0  0  0  0
  7  8  1  0  0  0  0
  8  9  2  0  0  0  0
  9  4  1  0  0  0  0
 11  6  1  0  0  0  0
 12  8  1  0  0  0  0
 13 12  2  0  0  0  0
 14 13  1  0  0  0  0
 15 14  1  0  0  0  0
 16 14  2  0  0  0  0
 16 17  1  0  0  0  0
 17 18  2  0  0  0  0
 18 12  1  0  0  0  0
 19 20  1  0  0  0  0
 19 21  1  0  0  0  0
 22 23  1  0  0  0  0
 22 32  1  0  0  0  0
 23 19  1  0  0  0  0
 24 28  1  0  0  0  0
 24 23  2  0  0  0  0
 25 24  1  0  0  0  0
 26 25  2  0  0  0  0
 26 27  1  0  0  0  0
 27 22  2  0  0  0  0
 29 25  1  0  0  0  0
 30 26  1  0  0  0  0
 31 27  1  0  0  0  0
 32 35  1  0  0  0  0
 33 32  2  0  0  0  0
 34 32  2  0  0  0  0
M  END
>  <minimizedAffinity>
-5.59409761

$$$$

 OpenBabel03242518033D

 35 37  0  0  0  0  0  0  0  0999 V2000
   33.4610   28.8200   36.4650 C   0  0  0  0  0  0  0  0  0  0  0  0
   33.5810   27.8780   35.9130 H   0  0  0  0  0  0  0  0  0  0  0  0
   33.8500   29.6080   35.7660 H   0  0  0  0  0  0  0  0  0  0  0  0
   35.6610   28.5630   37.6030 C   0  0  0  0  0  0  0  0  0  0  0  0
   34.2860   28.8450   37.6630 C   0  0  0  0  0  0  0  0  0  0  0  0
   33.7570   29.1450   38.9240 C   0  0  0  0  0  0  0  0  0  0  0  0
   34.5760   29.1490   39.9940 N   0  0  0  0  0  0  0  0  0  0  0  0
   35.8850   28.8760   39.9100 C   0  0  0  0  0  0  0  0  0  0  0  0
   36.4160   28.5860   38.7180 N   0  0  0  0  0  0  0  0  0  0  0  0
   36.1520   28.3220   36.6690 H   0  0  0  0  0  0  0  0  0  0  0  0
   32.7000   29.3670   39.0050 H   0  0  0  0  0  0  0  0  0  0  0  0
   36.7090   28.9000   41.1150 C   0  0  0  0  0  0  0  0  0  0  0  0
   36.4930   27.9930   42.1320 C   0  0  0  0  0  3  0  0  0  0  0  0
   37.3310   28.1070   43.2240 C   0  0  0  0  0  0  0  0  0  0  0  0
   37.1880   27.4150   44.0320 H   0  0  0  0  0  0  0  0  0  0  0  0
   38.3150   29.0190   43.3590 N   0  0  0  0  0  0  0  0  0  0  0  0
   38.4800   29.8900   42.3200 C   0  0  0  0  0  3  0  0  0  0  0  0
   37.6870   29.8090   41.2440 N   0  0  0  0  0  0  0  0  0  0  0  0
   32.0360   29.1170   36.8820 C   0  0  0  0  0  0  0  0  0  0  0  0
   31.3540   28.2350   36.6980 H   0  0  0  0  0  0  0  0  0  0  0  0
   32.0440   29.2170   37.9890 H   0  0  0  0  0  0  0  0  0  0  0  0
   30.4040   30.9600   36.8240 C   0  0  0  0  0  0  0  0  0  0  0  0
   31.4200   30.2650   36.2030 C   0  0  0  0  0  0  0  0  0  0  0  0
   31.9050   30.5930   34.9660 C   0  0  0  0  0  0  0  0  0  0  0  0
   31.3490   31.6730   34.3070 C   0  0  0  0  0  0  0  0  0  0  0  0
   30.3410   32.4130   34.8510 C   0  0  0  0  0  0  0  0  0  0  0  0
   29.8980   32.0230   36.1090 C   0  0  0  0  0  0  0  0  0  0  0  0
   32.6800   30.1220   34.3960 H   0  0  0  0  0  0  0  0  0  0  0  0
   31.6680   32.0110   33.3170 H   0  0  0  0  0  0  0  0  0  0  0  0
   29.8900   33.2550   34.3650 H   0  0  0  0  0  0  0  0  0  0  0  0
   29.0980   32.5950   36.5640 H   0  0  0  0  0  0  0  0  0  0  0  0
   29.7560   30.5630   38.4020 S   0  0  0  0  0  0  0  0  0  0  0  0
   28.9130   29.3060   38.3670 O   0  0  0  0  0  0  0  0  0  0  0  0
   28.7930   31.6480   38.8130 O   0  0  0  0  0  0  0  0  0  0  0  0
   30.6860   30.5000   39.3770 H   0  0  0  0  0  0  0  0  0  0  0  0
  1 19  1  0  0  0  0
  1  5  1  0  0  0  0
  2  1  1  0  0  0  0
  3  1  1  0  0  0  0
  4  5  2  0  0  0  0
  4  9  1  0  0  0  0
  5  6  1  0  0  0  0
  6 11  1  0  0  0  0
  6  7  2  0  0  0  0
  8  7  1  0  0  0  0
  8 12  1  0  0  0  0
  9  8  2  0  0  0  0
 10  4  1  0  0  0  0
 12 18  2  0  0  0  0
 12 13  1  0  0  0  0
 13 14  2  0  0  0  0
 14 16  1  0  0  0  0
 14 15  1  0  0  0  0
 17 16  2  0  0  0  0
 18 17  1  0  0  0  0
 19 21  1  0  0  0  0
 20 19  1  0  0  0  0
 22 32  1  0  0  0  0
 23 22  1  0  0  0  0
 23 19  1  0  0  0  0
 24 23  2  0  0  0  0
 25 26  2  0  0  0  0
 25 24  1  0  0  0  0
 26 27  1  0  0  0  0
 27 31  1  0  0  0  0
 27 22  2  0  0  0  0
 28 24  1  0  0  0  0
 29 25  1  0  0  0  0
 30 26  1  0  0  0  0
 32 34  2  0  0  0  0
 32 35  1  0  0  0  0
 33 32  2  0  0  0  0
M  END
>  <minimizedAffinity>
-5.57805109

$$$$

 OpenBabel03242518033D

 35 37  0  0  0  0  0  0  0  0999 V2000
   38.1330   27.2770   43.3510 C   0  0  0  0  0  0  0  0  0  0  0  0
   38.0220   27.3470   44.4410 H   0  0  0  0  0  0  0  0  0  0  0  0
   38.9910   26.5690   43.1990 H   0  0  0  0  0  0  0  0  0  0  0  0
   39.8570   28.9100   42.6010 C   0  0  0  0  0  0  0  0  0  0  0  0
   38.5070   28.5570   42.7700 C   0  0  0  0  0  0  0  0  0  0  0  0
   37.5530   29.4940   42.3560 C   0  0  0  0  0  0  0  0  0  0  0  0
   37.9680   30.6620   41.8280 N   0  0  0  0  0  0  0  0  0  0  0  0
   39.2620   30.9750   41.6780 C   0  0  0  0  0  0  0  0  0  0  0  0
   40.1950   30.0980   42.0650 N   0  0  0  0  0  0  0  0  0  0  0  0
   40.6600   28.2460   42.8930 H   0  0  0  0  0  0  0  0  0  0  0  0
   36.5030   29.2530   42.4720 H   0  0  0  0  0  0  0  0  0  0  0  0
   39.6340   32.2610   41.0970 C   0  0  0  0  0  0  0  0  0  0  0  0
   40.9380   32.5140   40.7260 C   0  0  0  0  0  3  0  0  0  0  0  0
   41.1770   33.7630   40.1880 C   0  0  0  0  0  0  0  0  0  0  0  0
   42.1840   33.9900   39.8900 H   0  0  0  0  0  0  0  0  0  0  0  0
   40.2480   34.7240   40.0060 N   0  0  0  0  0  0  0  0  0  0  0  0
   38.9750   34.4150   40.3910 C   0  0  0  0  0  3  0  0  0  0  0  0
   38.7060   33.2130   40.9170 N   0  0  0  0  0  0  0  0  0  0  0  0
   36.8920   26.7920   42.6320 C   0  0  0  0  0  0  0  0  0  0  0  0
   36.1110   26.4110   43.3550 H   0  0  0  0  0  0  0  0  0  0  0  0
   36.4160   27.6890   42.1800 H   0  0  0  0  0  0  0  0  0  0  0  0
   36.9310   25.9480   40.3190 C   0  0  0  0  0  0  0  0  0  0  0  0
   37.1210   25.7110   41.6640 C   0  0  0  0  0  0  0  0  0  0  0  0
   37.5280   24.5030   42.1610 C   0  0  0  0  0  0  0  0  0  0  0  0
   37.7580   23.4700   41.2730 C   0  0  0  0  0  0  0  0  0  0  0  0
   37.5940   23.6210   39.9280 C   0  0  0  0  0  0  0  0  0  0  0  0
   37.1790   24.8740   39.4930 C   0  0  0  0  0  0  0  0  0  0  0  0
   37.7000   24.2130   43.1770 H   0  0  0  0  0  0  0  0  0  0  0  0
   38.0840   22.4710   41.5740 H   0  0  0  0  0  0  0  0  0  0  0  0
   37.7640   22.8390   39.2140 H   0  0  0  0  0  0  0  0  0  0  0  0
   37.0400   25.0210   38.4280 H   0  0  0  0  0  0  0  0  0  0  0  0
   36.4050   27.4790   39.6500 S   0  0  0  0  0  0  0  0  0  0  0  0
   35.5180   27.2920   38.4380 O   0  0  0  0  0  0  0  0  0  0  0  0
   37.6120   28.2120   39.1210 O   0  0  0  0  0  0  0  0  0  0  0  0
   35.8330   28.3030   40.5510 H   0  0  0  0  0  0  0  0  0  0  0  0
  1  2  1  0  0  0  0
  3  1  1  0  0  0  0
  4  5  1  0  0  0  0
  4 10  1  0  0  0  0
  5  1  1  0  0  0  0
  6 11  1  0  0  0  0
  6  5  2  0  0  0  0
  7  6  1  0  0  0  0
  8  7  2  0  0  0  0
  8  9  1  0  0  0  0
  9  4  2  0  0  0  0
 12  8  1  0  0  0  0
 13 12  2  0  0  0  0
 14 13  1  0  0  0  0
 15 14  1  0  0  0  0
 16 14  2  0  0  0  0
 16 17  1  0  0  0  0
 17 18  2  0  0  0  0
 18 12  1  0  0  0  0
 19  1  1  0  0  0  0
 19 20  1  0  0  0  0
 21 19  1  0  0  0  0
 22 23  1  0  0  0  0
 23 24  2  0  0  0  0
 23 19  1  0  0  0  0
 24 28  1  0  0  0  0
 25 29  1  0  0  0  0
 25 24  1  0  0  0  0
 26 25  2  0  0  0  0
 27 26  1  0  0  0  0
 27 22  2  0  0  0  0
 30 26  1  0  0  0  0
 31 27  1  0  0  0  0
 32 22  1  0  0  0  0
 32 35  1  0  0  0  0
 33 32  2  0  0  0  0
 34 32  2  0  0  0  0
M  END
>  <minimizedAffinity>
-5.37720156

$$$$

 OpenBabel03242518033D

 35 37  0  0  0  0  0  0  0  0999 V2000
   35.7010   29.2870   40.2730 C   0  0  0  0  0  0  0  0  0  0  0  0
   34.8690   29.3900   39.5630 H   0  0  0  0  0  0  0  0  0  0  0  0
   35.2730   29.6110   41.2590 H   0  0  0  0  0  0  0  0  0  0  0  0
   37.0720   31.3100   40.7490 C   0  0  0  0  0  0  0  0  0  0  0  0
   36.7940   30.1900   39.9480 C   0  0  0  0  0  0  0  0  0  0  0  0
   37.6140   29.9930   38.8300 C   0  0  0  0  0  0  0  0  0  0  0  0
   38.6090   30.8680   38.5850 N   0  0  0  0  0  0  0  0  0  0  0  0
   38.8530   31.9300   39.3640 C   0  0  0  0  0  0  0  0  0  0  0  0
   38.0840   32.1430   40.4380 N   0  0  0  0  0  0  0  0  0  0  0  0
   36.4880   31.5390   41.6310 H   0  0  0  0  0  0  0  0  0  0  0  0
   37.4270   29.1380   38.1920 H   0  0  0  0  0  0  0  0  0  0  0  0
   39.9490   32.8350   39.0330 C   0  0  0  0  0  0  0  0  0  0  0  0
   40.2140   33.9360   39.8210 C   0  0  0  0  0  3  0  0  0  0  0  0
   41.2730   34.7230   39.4150 C   0  0  0  0  0  0  0  0  0  0  0  0
   41.5040   35.5880   40.0080 H   0  0  0  0  0  0  0  0  0  0  0  0
   42.0430   34.4950   38.3320 N   0  0  0  0  0  0  0  0  0  0  0  0
   41.7330   33.3900   37.5910 C   0  0  0  0  0  3  0  0  0  0  0  0
   40.7120   32.6030   37.9550 N   0  0  0  0  0  0  0  0  0  0  0  0
   36.2710   27.8870   40.3600 C   0  0  0  0  0  0  0  0  0  0  0  0
   35.4570   27.1040   40.3750 H   0  0  0  0  0  0  0  0  0  0  0  0
   36.7980   27.7000   39.3990 H   0  0  0  0  0  0  0  0  0  0  0  0
   38.3590   27.0710   41.3790 C   0  0  0  0  0  0  0  0  0  0  0  0
   37.1110   27.6350   41.5380 C   0  0  0  0  0  0  0  0  0  0  0  0
   36.5990   27.9870   42.7570 C   0  0  0  0  0  0  0  0  0  0  0  0
   37.3700   27.7680   43.8820 C   0  0  0  0  0  0  0  0  0  0  0  0
   38.6150   27.2150   43.8120 C   0  0  0  0  0  0  0  0  0  0  0  0
   39.0710   26.8810   42.5430 C   0  0  0  0  0  0  0  0  0  0  0  0
   35.6500   28.4230   42.9920 H   0  0  0  0  0  0  0  0  0  0  0  0
   37.0480   28.0150   44.8980 H   0  0  0  0  0  0  0  0  0  0  0  0
   39.2360   27.0320   44.6660 H   0  0  0  0  0  0  0  0  0  0  0  0
   40.0570   26.4400   42.4580 H   0  0  0  0  0  0  0  0  0  0  0  0
   39.0410   26.6020   39.8350 S   0  0  0  0  0  0  0  0  0  0  0  0
   39.7590   25.2710   39.9140 O   0  0  0  0  0  0  0  0  0  0  0  0
   40.1210   27.5880   39.4670 O   0  0  0  0  0  0  0  0  0  0  0  0
   38.1560   26.6200   38.8170 H   0  0  0  0  0  0  0  0  0  0  0  0
  1 19  1  0  0  0  0
  1  3  1  0  0  0  0
  2  1  1  0  0  0  0
  4 10  1  0  0  0  0
  5  1  1  0  0  0  0
  5  4  2  0  0  0  0
  6  5  1  0  0  0  0
  7  6  2  0  0  0  0
  7  8  1  0  0  0  0
  8  9  2  0  0  0  0
  9  4  1  0  0  0  0
 11  6  1  0  0  0  0
 12  8  1  0  0  0  0
 12 13  1  0  0  0  0
 14 13  2  0  0  0  0
 14 15  1  0  0  0  0
 16 14  1  0  0  0  0
 17 18  1  0  0  0  0
 17 16  2  0  0  0  0
 18 12  2  0  0  0  0
 19 20  1  0  0  0  0
 19 23  1  0  0  0  0
 21 19  1  0  0  0  0
 22 23  2  0  0  0  0
 22 27  1  0  0  0  0
 23 24  1  0  0  0  0
 24 28  1  0  0  0  0
 24 25  2  0  0  0  0
 25 29  1  0  0  0  0
 26 25  1  0  0  0  0
 26 30  1  0  0  0  0
 27 26  2  0  0  0  0
 31 27  1  0  0  0  0
 32 33  2  0  0  0  0
 32 22  1  0  0  0  0
 34 32  2  0  0  0  0
 35 32  1  0  0  0  0
M  END
>  <minimizedAffinity>
-5.32379913

$$$$

 OpenBabel03242518033D

 35 37  0  0  0  0  0  0  0  0999 V2000
   36.6020   28.3400   38.9870 C   0  0  0  0  0  0  0  0  0  0  0  0
   37.0770   27.3730   38.7700 H   0  0  0  0  0  0  0  0  0  0  0  0
   35.8300   28.4620   38.1810 H   0  0  0  0  0  0  0  0  0  0  0  0
   38.9190   29.1960   38.6730 C   0  0  0  0  0  0  0  0  0  0  0  0
   37.5480   29.4380   38.8620 C   0  0  0  0  0  0  0  0  0  0  0  0
   37.1460   30.7770   38.9260 C   0  0  0  0  0  0  0  0  0  0  0  0
   38.0750   31.7460   38.8050 N   0  0  0  0  0  0  0  0  0  0  0  0
   39.3770   31.4890   38.6260 C   0  0  0  0  0  0  0  0  0  0  0  0
   39.7890   30.2180   38.5610 N   0  0  0  0  0  0  0  0  0  0  0  0
   39.3170   28.1910   38.6110 H   0  0  0  0  0  0  0  0  0  0  0  0
   36.0960   30.9980   39.0710 H   0  0  0  0  0  0  0  0  0  0  0  0
   40.3240   32.5930   38.5030 C   0  0  0  0  0  0  0  0  0  0  0  0
   41.2790   32.5930   37.5080 C   0  0  0  0  0  3  0  0  0  0  0  0
   42.1210   33.6870   37.4860 C   0  0  0  0  0  0  0  0  0  0  0  0
   42.8760   33.7160   36.7220 H   0  0  0  0  0  0  0  0  0  0  0  0
   42.0750   34.7230   38.3470 N   0  0  0  0  0  0  0  0  0  0  0  0
   41.1090   34.6680   39.3100 C   0  0  0  0  0  3  0  0  0  0  0  0
   40.2730   33.6230   39.3620 N   0  0  0  0  0  0  0  0  0  0  0  0
   35.9740   28.4280   40.3610 C   0  0  0  0  0  0  0  0  0  0  0  0
   35.5920   29.4690   40.5800 H   0  0  0  0  0  0  0  0  0  0  0  0
   35.0510   27.8100   40.3280 H   0  0  0  0  0  0  0  0  0  0  0  0
   37.2890   26.7670   41.6180 C   0  0  0  0  0  0  0  0  0  0  0  0
   36.8670   28.0720   41.4720 C   0  0  0  0  0  0  0  0  0  0  0  0
   37.2450   29.0800   42.3170 C   0  0  0  0  0  0  0  0  0  0  0  0
   38.0900   28.7760   43.3670 C   0  0  0  0  0  0  0  0  0  0  0  0
   38.5530   27.5110   43.5810 C   0  0  0  0  0  0  0  0  0  0  0  0
   38.1280   26.5380   42.6860 C   0  0  0  0  0  0  0  0  0  0  0  0
   36.9750   30.1160   42.2980 H   0  0  0  0  0  0  0  0  0  0  0  0
   38.4460   29.5120   44.0930 H   0  0  0  0  0  0  0  0  0  0  0  0
   39.2080   27.2440   44.3870 H   0  0  0  0  0  0  0  0  0  0  0  0
   38.4810   25.5240   42.8340 H   0  0  0  0  0  0  0  0  0  0  0  0
   36.8180   25.4540   40.5600 S   0  0  0  0  0  0  0  0  0  0  0  0
   36.5460   24.1780   41.3280 O   0  0  0  0  0  0  0  0  0  0  0  0
   37.9860   25.1120   39.6700 O   0  0  0  0  0  0  0  0  0  0  0  0
   35.7940   25.7540   39.7350 H   0  0  0  0  0  0  0  0  0  0  0  0
  1 19  1  0  0  0  0
  2  1  1  0  0  0  0
  3  1  1  0  0  0  0
  4  5  1  0  0  0  0
  5  6  2  0  0  0  0
  5  1  1  0  0  0  0
  6 11  1  0  0  0  0
  7  6  1  0  0  0  0
  8  7  2  0  0  0  0
  9  8  1  0  0  0  0
  9  4  2  0  0  0  0
 10  4  1  0  0  0  0
 12  8  1  0  0  0  0
 12 18  1  0  0  0  0
 13 12  2  0  0  0  0
 14 13  1  0  0  0  0
 14 16  2  0  0  0  0
 15 14  1  0  0  0  0
 16 17  1  0  0  0  0
 17 18  2  0  0  0  0
 19 20  1  0  0  0  0
 19 23  1  0  0  0  0
 21 19  1  0  0  0  0
 22 27  1  0  0  0  0
 23 22  2  0  0  0  0
 23 24  1  0  0  0  0
 24 25  2  0  0  0  0
 25 26  1  0  0  0  0
 25 29  1  0  0  0  0
 26 30  1  0  0  0  0
 27 31  1  0  0  0  0
 27 26  2  0  0  0  0
 28 24  1  0  0  0  0
 32 33  2  0  0  0  0
 32 22  1  0  0  0  0
 34 32  2  0  0  0  0
 35 32  1  0  0  0  0
M  END
>  <minimizedAffinity>
-5.16045237

$$$$

 OpenBabel03242518033D

 35 37  0  0  0  0  0  0  0  0999 V2000
   36.5950   27.2900   43.0190 C   0  0  0  0  0  0  0  0  0  0  0  0
   36.8760   26.2440   43.1990 H   0  0  0  0  0  0  0  0  0  0  0  0
   35.5720   27.3900   43.4690 H   0  0  0  0  0  0  0  0  0  0  0  0
   35.8680   28.7530   41.1390 C   0  0  0  0  0  0  0  0  0  0  0  0
   36.4810   27.5740   41.5960 C   0  0  0  0  0  0  0  0  0  0  0  0
   36.9690   26.6960   40.6210 C   0  0  0  0  0  0  0  0  0  0  0  0
   36.8300   27.0190   39.3200 N   0  0  0  0  0  0  0  0  0  0  0  0
   36.2400   28.1490   38.9100 C   0  0  0  0  0  0  0  0  0  0  0  0
   35.7640   29.0060   39.8200 N   0  0  0  0  0  0  0  0  0  0  0  0
   35.4630   29.4860   41.8240 H   0  0  0  0  0  0  0  0  0  0  0  0
   37.4480   25.7790   40.9400 H   0  0  0  0  0  0  0  0  0  0  0  0
   36.1260   28.4300   37.4820 C   0  0  0  0  0  0  0  0  0  0  0  0
   34.9420   28.9000   36.9500 C   0  0  0  0  0  3  0  0  0  0  0  0
   34.9470   29.1310   35.5890 C   0  0  0  0  0  0  0  0  0  0  0  0
   34.0400   29.4970   35.1450 H   0  0  0  0  0  0  0  0  0  0  0  0
   35.9980   28.9320   34.7680 N   0  0  0  0  0  0  0  0  0  0  0  0
   37.1420   28.4670   35.3510 C   0  0  0  0  0  3  0  0  0  0  0  0
   37.1750   28.2310   36.6700 N   0  0  0  0  0  0  0  0  0  0  0  0
   37.5540   28.3000   43.6130 C   0  0  0  0  0  0  0  0  0  0  0  0
   37.4100   29.3280   43.1660 H   0  0  0  0  0  0  0  0  0  0  0  0
   37.2550   28.4320   44.6760 H   0  0  0  0  0  0  0  0  0  0  0  0
   39.8080   28.8530   42.7900 C   0  0  0  0  0  0  0  0  0  0  0  0
   38.9760   27.9720   43.4500 C   0  0  0  0  0  0  0  0  0  0  0  0
   39.4090   26.7870   43.9790 C   0  0  0  0  0  0  0  0  0  0  0  0
   40.7440   26.4560   43.8460 C   0  0  0  0  0  0  0  0  0  0  0  0
   41.6320   27.2710   43.2080 C   0  0  0  0  0  0  0  0  0  0  0  0
   41.1240   28.4570   42.6950 C   0  0  0  0  0  0  0  0  0  0  0  0
   38.8530   26.0360   44.5010 H   0  0  0  0  0  0  0  0  0  0  0  0
   41.1830   25.5330   44.2340 H   0  0  0  0  0  0  0  0  0  0  0  0
   42.6730   27.0410   43.0890 H   0  0  0  0  0  0  0  0  0  0  0  0
   41.8090   29.1230   42.1830 H   0  0  0  0  0  0  0  0  0  0  0  0
   39.2850   30.3730   42.0960 S   0  0  0  0  0  0  0  0  0  0  0  0
   38.9810   30.2450   40.6180 O   0  0  0  0  0  0  0  0  0  0  0  0
   40.4320   31.3490   42.1580 O   0  0  0  0  0  0  0  0  0  0  0  0
   38.2620   30.9540   42.7550 H   0  0  0  0  0  0  0  0  0  0  0  0
  1  2  1  0  0  0  0
  1  3  1  0  0  0  0
  1 19  1  0  0  0  0
  4  5  1  0  0  0  0
  4 10  1  0  0  0  0
  5  1  1  0  0  0  0
  6 11  1  0  0  0  0
  6  5  2  0  0  0  0
  7  6  1  0  0  0  0
  8  7  2  0  0  0  0
  8  9  1  0  0  0  0
  9  4  2  0  0  0  0
 12  8  1  0  0  0  0
 13 12  1  0  0  0  0
 14 13  2  0  0  0  0
 15 14  1  0  0  0  0
 16 17  2  0  0  0  0
 16 14  1  0  0  0  0
 17 18  1  0  0  0  0
 18 12  2  0  0  0  0
 19 21  1  0  0  0  0
 20 19  1  0  0  0  0
 22 23  1  0  0  0  0
 23 19  1  0  0  0  0
 23 24  2  0  0  0  0
 24 28  1  0  0  0  0
 25 24  1  0  0  0  0
 25 29  1  0  0  0  0
 26 25  2  0  0  0  0
 27 22  2  0  0  0  0
 27 26  1  0  0  0  0
 30 26  1  0  0  0  0
 31 27  1  0  0  0  0
 32 34  2  0  0  0  0
 32 35  1  0  0  0  0
 32 22  1  0  0  0  0
 33 32  2  0  0  0  0
M  END
>  <minimizedAffinity>
-5.10988808

$$$$

 OpenBabel03242518033D

 35 37  0  0  0  0  0  0  0  0999 V2000
   36.9050   26.5260   42.8890 C   0  0  0  0  0  0  0  0  0  0  0  0
   35.8540   26.2350   42.7580 H   0  0  0  0  0  0  0  0  0  0  0  0
   37.0520   26.5620   44.0020 H   0  0  0  0  0  0  0  0  0  0  0  0
   36.2630   28.4700   41.4730 C   0  0  0  0  0  0  0  0  0  0  0  0
   37.1580   27.8600   42.3660 C   0  0  0  0  0  0  0  0  0  0  0  0
   38.2960   28.5940   42.7210 C   0  0  0  0  0  0  0  0  0  0  0  0
   38.4710   29.8240   42.1990 N   0  0  0  0  0  0  0  0  0  0  0  0
   37.6020   30.3840   41.3480 C   0  0  0  0  0  0  0  0  0  0  0  0
   36.5070   29.7040   40.9910 N   0  0  0  0  0  0  0  0  0  0  0  0
   35.3580   27.9740   41.1450 H   0  0  0  0  0  0  0  0  0  0  0  0
   39.0060   28.1520   43.4090 H   0  0  0  0  0  0  0  0  0  0  0  0
   37.8600   31.7220   40.8240 C   0  0  0  0  0  0  0  0  0  0  0  0
   36.9810   32.3130   39.9400 C   0  0  0  0  0  3  0  0  0  0  0  0
   37.3240   33.5780   39.5090 C   0  0  0  0  0  0  0  0  0  0  0  0
   36.6590   34.0650   38.8200 H   0  0  0  0  0  0  0  0  0  0  0  0
   38.4300   34.2550   39.8810 N   0  0  0  0  0  0  0  0  0  0  0  0
   39.2620   33.6200   40.7570 C   0  0  0  0  0  3  0  0  0  0  0  0
   38.9610   32.3910   41.1980 N   0  0  0  0  0  0  0  0  0  0  0  0
   37.8940   25.5820   42.2400 C   0  0  0  0  0  0  0  0  0  0  0  0
   38.8780   26.0940   42.0180 H   0  0  0  0  0  0  0  0  0  0  0  0
   38.1600   24.8240   43.0080 H   0  0  0  0  0  0  0  0  0  0  0  0
   38.0830   25.3180   39.7980 C   0  0  0  0  0  0  0  0  0  0  0  0
   37.4420   24.9880   40.9740 C   0  0  0  0  0  0  0  0  0  0  0  0
   36.3900   24.1150   41.0350 C   0  0  0  0  0  0  0  0  0  0  0  0
   35.9480   23.5370   39.8610 C   0  0  0  0  0  0  0  0  0  0  0  0
   36.5260   23.8080   38.6560 C   0  0  0  0  0  0  0  0  0  0  0  0
   37.5880   24.7030   38.6690 C   0  0  0  0  0  0  0  0  0  0  0  0
   35.8230   23.7970   41.8850 H   0  0  0  0  0  0  0  0  0  0  0  0
   35.1160   22.8290   39.8080 H   0  0  0  0  0  0  0  0  0  0  0  0
   36.2050   23.3750   37.7290 H   0  0  0  0  0  0  0  0  0  0  0  0
   38.0660   24.9370   37.7250 H   0  0  0  0  0  0  0  0  0  0  0  0
   39.4260   26.4350   39.6850 S   0  0  0  0  0  0  0  0  0  0  0  0
   38.9810   27.8120   39.2390 O   0  0  0  0  0  0  0  0  0  0  0  0
   40.3490   25.9680   38.5890 O   0  0  0  0  0  0  0  0  0  0  0  0
   40.1780   26.5040   40.8030 H   0  0  0  0  0  0  0  0  0  0  0  0
  1  3  1  0  0  0  0
  2  1  1  0  0  0  0
  4  5  1  0  0  0  0
  5  6  2  0  0  0  0
  5  1  1  0  0  0  0
  6 11  1  0  0  0  0
  7  6  1  0  0  0  0
  8  7  2  0  0  0  0
  9  8  1  0  0  0  0
  9  4  2  0  0  0  0
 10  4  1  0  0  0  0
 12 18  1  0  0  0  0
 12  8  1  0  0  0  0
 13 12  2  0  0  0  0
 14 16  2  0  0  0  0
 14 13  1  0  0  0  0
 15 14  1  0  0  0  0
 16 17  1  0  0  0  0
 17 18  2  0  0  0  0
 19  1  1  0  0  0  0
 19 21  1  0  0  0  0
 20 19  1  0  0  0  0
 22 23  1  0  0  0  0
 23 24  2  0  0  0  0
 23 19  1  0  0  0  0
 24 28  1  0  0  0  0
 25 24  1  0  0  0  0
 26 27  1  0  0  0  0
 26 25  2  0  0  0  0
 27 22  2  0  0  0  0
 29 25  1  0  0  0  0
 30 26  1  0  0  0  0
 31 27  1  0  0  0  0
 32 22  1  0  0  0  0
 32 35  1  0  0  0  0
 33 32  2  0  0  0  0
 34 32  2  0  0  0  0
M  END
>  <minimizedAffinity>
-5.0913763

$$$$

 OpenBabel03242518033D

 35 37  0  0  0  0  0  0  0  0999 V2000
   35.7040   30.0360   39.3770 C   0  0  0  0  0  0  0  0  0  0  0  0
   35.6700   29.5160   38.4100 H   0  0  0  0  0  0  0  0  0  0  0  0
   34.8720   30.7880   39.3240 H   0  0  0  0  0  0  0  0  0  0  0  0
   37.0800   31.7650   40.5260 C   0  0  0  0  0  0  0  0  0  0  0  0
   36.9500   30.7680   39.5440 C   0  0  0  0  0  0  0  0  0  0  0  0
   38.0710   30.5220   38.7430 C   0  0  0  0  0  0  0  0  0  0  0  0
   39.1940   31.2370   38.9490 N   0  0  0  0  0  0  0  0  0  0  0  0
   39.2920   32.1830   39.8920 C   0  0  0  0  0  0  0  0  0  0  0  0
   38.2370   32.4400   40.6710 N   0  0  0  0  0  0  0  0  0  0  0  0
   36.2640   32.0200   41.1890 H   0  0  0  0  0  0  0  0  0  0  0  0
   38.0050   29.7590   37.9760 H   0  0  0  0  0  0  0  0  0  0  0  0
   40.5440   32.9170   40.0550 C   0  0  0  0  0  0  0  0  0  0  0  0
   40.8940   33.9150   39.1690 C   0  0  0  0  0  3  0  0  0  0  0  0
   42.0980   34.5420   39.4190 C   0  0  0  0  0  0  0  0  0  0  0  0
   42.3990   35.3240   38.7460 H   0  0  0  0  0  0  0  0  0  0  0  0
   42.9310   34.2530   40.4390 N   0  0  0  0  0  0  0  0  0  0  0  0
   42.5310   33.2560   41.2820 C   0  0  0  0  0  3  0  0  0  0  0  0
   41.3680   32.6250   41.0720 N   0  0  0  0  0  0  0  0  0  0  0  0
   35.5420   29.1260   40.5760 C   0  0  0  0  0  0  0  0  0  0  0  0
   35.8630   29.6340   41.5330 H   0  0  0  0  0  0  0  0  0  0  0  0
   34.4490   28.9750   40.7130 H   0  0  0  0  0  0  0  0  0  0  0  0
   37.1400   27.5150   41.5330 C   0  0  0  0  0  0  0  0  0  0  0  0
   36.2940   27.8670   40.5020 C   0  0  0  0  0  0  0  0  0  0  0  0
   36.1050   27.0900   39.3910 C   0  0  0  0  0  0  0  0  0  0  0  0
   36.7940   25.8970   39.2980 C   0  0  0  0  0  0  0  0  0  0  0  0
   37.6490   25.4760   40.2730 C   0  0  0  0  0  0  0  0  0  0  0  0
   37.7940   26.3140   41.3710 C   0  0  0  0  0  0  0  0  0  0  0  0
   35.4820   27.2690   38.5390 H   0  0  0  0  0  0  0  0  0  0  0  0
   36.7090   25.2100   38.4510 H   0  0  0  0  0  0  0  0  0  0  0  0
   38.1980   24.5560   40.2290 H   0  0  0  0  0  0  0  0  0  0  0  0
   38.4680   26.0030   42.1610 H   0  0  0  0  0  0  0  0  0  0  0  0
   37.4100   28.4880   42.9640 S   0  0  0  0  0  0  0  0  0  0  0  0
   38.4900   29.5270   42.7460 O   0  0  0  0  0  0  0  0  0  0  0  0
   37.9600   27.6010   44.0510 O   0  0  0  0  0  0  0  0  0  0  0  0
   36.2900   29.0470   43.4670 H   0  0  0  0  0  0  0  0  0  0  0  0
  1  5  1  0  0  0  0
  1 19  1  0  0  0  0
  2  1  1  0  0  0  0
  3  1  1  0  0  0  0
  4  9  1  0  0  0  0
  4 10  1  0  0  0  0
  5  4  2  0  0  0  0
  6  7  2  0  0  0  0
  6  5  1  0  0  0  0
  7  8  1  0  0  0  0
  8 12  1  0  0  0  0
  8  9  2  0  0  0  0
 11  6  1  0  0  0  0
 12 18  1  0  0  0  0
 13 14  1  0  0  0  0
 13 12  2  0  0  0  0
 14 16  2  0  0  0  0
 15 14  1  0  0  0  0
 16 17  1  0  0  0  0
 18 17  2  0  0  0  0
 19 21  1  0  0  0  0
 19 20  1  0  0  0  0
 22 32  1  0  0  0  0
 23 19  1  0  0  0  0
 23 22  2  0  0  0  0
 24 23  1  0  0  0  0
 25 24  2  0  0  0  0
 25 26  1  0  0  0  0
 26 27  2  0  0  0  0
 27 22  1  0  0  0  0
 27 31  1  0  0  0  0
 28 24  1  0  0  0  0
 29 25  1  0  0  0  0
 30 26  1  0  0  0  0
 32 35  1  0  0  0  0
 32 34  2  0  0  0  0
 33 32  2  0  0  0  0
M  END
>  <minimizedAffinity>
-5.06350374

$$$$

 OpenBabel03242518033D

 35 37  0  0  0  0  0  0  0  0999 V2000
   36.4410   31.1750   40.7930 C   0  0  0  0  0  0  0  0  0  0  0  0
   36.9630   31.5810   41.6700 H   0  0  0  0  0  0  0  0  0  0  0  0
   35.3580   31.4070   40.9770 H   0  0  0  0  0  0  0  0  0  0  0  0
   37.1000   28.9900   41.7890 C   0  0  0  0  0  0  0  0  0  0  0  0
   36.5760   29.7290   40.7150 C   0  0  0  0  0  0  0  0  0  0  0  0
   36.1970   29.0070   39.5770 C   0  0  0  0  0  0  0  0  0  0  0  0
   36.3500   27.6680   39.5690 N   0  0  0  0  0  0  0  0  0  0  0  0
   36.8530   26.9870   40.6070 C   0  0  0  0  0  0  0  0  0  0  0  0
   37.2240   27.6520   41.7070 N   0  0  0  0  0  0  0  0  0  0  0  0
   37.4180   29.4680   42.7070 H   0  0  0  0  0  0  0  0  0  0  0  0
   35.7890   29.5460   38.7310 H   0  0  0  0  0  0  0  0  0  0  0  0
   36.9890   25.5360   40.5240 C   0  0  0  0  0  0  0  0  0  0  0  0
   37.7460   24.8470   41.4490 C   0  0  0  0  0  3  0  0  0  0  0  0
   37.8060   23.4780   41.2740 C   0  0  0  0  0  0  0  0  0  0  0  0
   38.3880   22.9140   41.9790 H   0  0  0  0  0  0  0  0  0  0  0  0
   37.1930   22.7910   40.2900 N   0  0  0  0  0  0  0  0  0  0  0  0
   36.4580   23.5270   39.4050 C   0  0  0  0  0  3  0  0  0  0  0  0
   36.3770   24.8570   39.5430 N   0  0  0  0  0  0  0  0  0  0  0  0
   36.9050   31.7520   39.4720 C   0  0  0  0  0  0  0  0  0  0  0  0
   37.1560   30.9410   38.7260 H   0  0  0  0  0  0  0  0  0  0  0  0
   36.0260   32.2610   39.0220 H   0  0  0  0  0  0  0  0  0  0  0  0
   39.3040   32.1590   39.0890 C   0  0  0  0  0  0  0  0  0  0  0  0
   38.0900   32.6160   39.5590 C   0  0  0  0  0  0  0  0  0  0  0  0
   37.9200   33.8580   40.1070 C   0  0  0  0  0  0  0  0  0  0  0  0
   39.0160   34.6940   40.1940 C   0  0  0  0  0  0  0  0  0  0  0  0
   40.2510   34.3190   39.7530 C   0  0  0  0  0  0  0  0  0  0  0  0
   40.3510   33.0450   39.2090 C   0  0  0  0  0  0  0  0  0  0  0  0
   37.0320   34.3070   40.5030 H   0  0  0  0  0  0  0  0  0  0  0  0
   38.9790   35.7030   40.6160 H   0  0  0  0  0  0  0  0  0  0  0  0
   41.1190   34.9450   39.8070 H   0  0  0  0  0  0  0  0  0  0  0  0
   41.3220   32.7220   38.8500 H   0  0  0  0  0  0  0  0  0  0  0  0
   39.5580   30.5740   38.3890 S   0  0  0  0  0  0  0  0  0  0  0  0
   39.8500   29.5290   39.4450 O   0  0  0  0  0  0  0  0  0  0  0  0
   40.8090   30.6150   37.5480 O   0  0  0  0  0  0  0  0  0  0  0  0
   38.5670   30.1720   37.5660 H   0  0  0  0  0  0  0  0  0  0  0  0
  1  3  1  0  0  0  0
  1  2  1  0  0  0  0
  4 10  1  0  0  0  0
  5  1  1  0  0  0  0
  5  4  2  0  0  0  0
  6  5  1  0  0  0  0
  7  6  2  0  0  0  0
  7  8  1  0  0  0  0
  8  9  2  0  0  0  0
  9  4  1  0  0  0  0
 11  6  1  0  0  0  0
 12  8  1  0  0  0  0
 12 13  1  0  0  0  0
 14 13  2  0  0  0  0
 14 15  1  0  0  0  0
 16 14  1  0  0  0  0
 17 18  1  0  0  0  0
 17 16  2  0  0  0  0
 18 12  2  0  0  0  0
 19 23  1  0  0  0  0
 19  1  1  0  0  0  0
 20 19  1  0  0  0  0
 21 19  1  0  0  0  0
 22 27  2  0  0  0  0
 22 23  1  0  0  0  0
 23 24  2  0  0  0  0
 24 25  1  0  0  0  0
 24 28  1  0  0  0  0
 25 29  1  0  0  0  0
 26 30  1  0  0  0  0
 26 25  2  0  0  0  0
 27 26  1  0  0  0  0
 31 27  1  0  0  0  0
 32 22  1  0  0  0  0
 32 33  2  0  0  0  0
 34 32  2  0  0  0  0
 35 32  1  0  0  0  0
M  END
>  <minimizedAffinity>
-4.98047781

$$$$
