
 OpenBabel03242513543D

 17 18  0  0  0  0  0  0  0  0999 V2000
   44.3680   35.8980   44.2050 C   0  0  0  0  0  0  0  0  0  0  0  0
   44.4040   35.2770   42.9480 C   0  0  0  0  0  0  0  0  0  0  0  0
   44.9280   33.9830   42.8880 C   0  0  0  0  0  0  0  0  0  0  0  0
   45.3710   33.4040   44.0360 N   0  0  0  0  0  0  0  0  0  0  0  0
   45.3210   34.0320   45.2300 C   0  0  0  0  0  0  0  0  0  0  0  0
   44.8130   35.2920   45.3050 N   0  0  0  0  0  0  0  0  0  0  0  0
   43.9520   36.9060   44.2070 H   0  0  0  0  0  0  0  0  0  0  0  0
   45.0090   33.4040   41.9900 H   0  0  0  0  0  0  0  0  0  0  0  0
   45.6970   33.4960   46.1040 H   0  0  0  0  0  0  0  0  0  0  0  0
   43.9570   35.8550   41.7730 O   0  0  0  0  0  0  0  0  0  0  0  0
   42.7450   35.3950   41.2720 C   0  0  0  0  0  0  0  0  0  0  0  0
   42.8310   34.9300   39.9590 C   0  0  0  0  0  0  0  0  0  0  0  0
   41.6760   34.4480   39.3650 C   0  0  0  0  0  0  0  0  0  0  0  0
   41.5950   34.0550   38.3540 H   0  0  0  0  0  0  0  0  0  0  0  0
   40.5310   34.4520   40.0810 N   0  0  0  0  0  0  0  0  0  0  0  0
   40.4530   34.8970   41.3330 C   0  0  0  0  0  0  0  0  0  0  0  0
   41.5710   35.3730   41.9310 N   0  0  0  0  0  0  0  0  0  0  0  0
  1  7  1  0  0  0  0
  1  6  1  0  0  0  0
  2  1  2  0  0  0  0
  3  2  1  0  0  0  0
  3  4  2  0  0  0  0
  4  5  1  0  0  0  0
  5  6  2  0  0  0  0
  5  9  1  0  0  0  0
  8  3  1  0  0  0  0
 10  2  1  0  0  0  0
 11 10  1  0  0  0  0
 11 17  1  0  0  0  0
 12 11  2  0  0  0  0
 13 12  1  0  0  0  0
 13 15  2  0  0  0  0
 14 13  1  0  0  0  0
 15 16  1  0  0  0  0
 16 17  2  0  0  0  0
M  END
>  <minimizedAffinity>
-3.9761858

>  <minimizedRMSD>
1.90673614

$$$$
