
 OpenBabel03252507223D

 45 48  0  0  1  0  0  0  0  0999 V2000
   45.9860   27.5180   42.0610 C   0  0  0  0  0  0  0  0  0  0  0  0
   45.8520   26.5540   42.8680 O   0  0  0  0  0  0  0  0  0  0  0  0
   45.7890   28.8750   42.4170 N   0  0  0  0  0  0  0  0  0  0  0  0
   46.5860   30.0690   42.0890 C   0  0  0  0  0  0  0  0  0  0  0  0
   45.6760   31.1360   41.4920 C   0  0  0  0  0  0  0  0  0  0  0  0
   44.6780   31.5890   42.5030 C   0  0  0  0  0  0  0  0  0  0  0  0
   44.6520   30.6180   43.6680 C   0  0  0  0  0  0  0  0  0  0  0  0
   44.6570   29.1980   43.2340 C   0  0  2  0  0  0  0  0  0  0  0  0
   47.3170   29.7810   41.2990 H   0  0  0  0  0  0  0  0  0  0  0  0
   47.0460   30.4930   42.9970 H   0  0  0  0  0  0  0  0  0  0  0  0
   45.1700   30.6990   40.6100 H   0  0  0  0  0  0  0  0  0  0  0  0
   46.3480   31.9410   41.1380 H   0  0  0  0  0  0  0  0  0  0  0  0
   43.6670   31.7900   42.1080 H   0  0  0  0  0  0  0  0  0  0  0  0
   45.0420   32.5530   42.9230 H   0  0  0  0  0  0  0  0  0  0  0  0
   43.6670   30.8090   44.1820 H   0  0  0  0  0  0  0  0  0  0  0  0
   45.4350   30.8280   44.4030 H   0  0  0  0  0  0  0  0  0  0  0  0
   43.7580   29.0750   42.5530 H   0  0  0  0  0  0  0  0  0  0  0  0
   45.3690   27.3050   39.7060 C   0  0  0  0  0  0  0  0  0  0  0  0
   46.3630   27.1990   40.7050 C   0  0  0  0  0  0  0  0  0  0  0  0
   47.6510   26.8020   40.3730 C   0  0  0  0  0  0  0  0  0  0  0  0
   47.9020   26.5280   39.0710 N   0  0  0  0  0  0  0  0  0  0  0  0
   46.9590   26.6260   38.0950 C   0  0  0  0  0  0  0  0  0  0  0  0
   45.7080   27.0120   38.4340 N   0  0  0  0  0  0  0  0  0  0  0  0
   44.3800   27.6160   40.0080 H   0  0  0  0  0  0  0  0  0  0  0  0
   47.2240   26.3920   37.0720 H   0  0  0  0  0  0  0  0  0  0  0  0
   48.6350   26.7000   41.4200 C   0  0  0  0  0  0  0  0  0  0  0  0
   49.3240   27.7880   41.8350 C   0  0  0  0  0  0  0  0  0  0  0  0
   50.2590   27.6540   42.8420 C   0  0  0  0  0  0  0  0  0  0  0  0
   50.5290   26.4380   43.4610 C   0  0  0  0  0  0  0  0  0  0  0  0
   49.7970   25.3570   43.0010 C   0  0  0  0  0  0  0  0  0  0  0  0
   48.8980   25.5160   42.0230 N   0  0  0  0  0  0  0  0  0  0  0  0
   49.2200   28.7880   41.4440 H   0  0  0  0  0  0  0  0  0  0  0  0
   50.8330   28.4960   43.2050 H   0  0  0  0  0  0  0  0  0  0  0  0
   51.2600   26.3280   44.2500 H   0  0  0  0  0  0  0  0  0  0  0  0
   49.9600   24.3810   43.4410 H   0  0  0  0  0  0  0  0  0  0  0  0
   44.4170   28.2800   44.3820 C   0  0  0  0  0  0  0  0  0  0  0  0
   43.4050   28.1470   44.7450 H   0  0  0  0  0  0  0  0  0  0  0  0
   44.7380   27.2600   44.0880 H   0  0  0  0  0  0  0  0  0  0  0  0
   45.3350   28.6250   45.5500 C   0  0  0  0  0  0  0  0  0  0  0  0
   46.3090   27.7430   45.9850 C   0  0  0  0  0  3  0  0  0  0  0  0
   47.1220   28.0860   47.0590 C   0  0  0  0  0  0  0  0  0  0  0  0
   47.8920   27.3920   47.4080 H   0  0  0  0  0  0  0  0  0  0  0  0
   46.9540   29.2750   47.6660 N   0  0  0  0  0  0  0  0  0  0  0  0
   45.9980   30.1040   47.2130 C   0  0  0  0  0  3  0  0  0  0  0  0
   45.1910   29.8090   46.1770 N   0  0  0  0  0  0  0  0  0  0  0  0
  1  3  1  0  0  0  0
  1  2  2  0  0  0  0
  3  8  1  0  0  0  0
  4  3  1  0  0  0  0
  4 10  1  0  0  0  0
  5  4  1  0  0  0  0
  5  6  1  0  0  0  0
  6 14  1  0  0  0  0
  6  7  1  0  0  0  0
  7 15  1  0  0  0  0
  7 16  1  0  0  0  0
  8 17  1  6  0  0  0
  8  7  1  0  0  0  0
  8 36  1  0  0  0  0
  9  4  1  0  0  0  0
 11  5  1  0  0  0  0
 12  5  1  0  0  0  0
 13  6  1  0  0  0  0
 18 24  1  0  0  0  0
 18 19  1  0  0  0  0
 19  1  1  0  0  0  0
 20 19  2  0  0  0  0
 20 26  1  0  0  0  0
 21 20  1  0  0  0  0
 22 23  1  0  0  0  0
 22 21  2  0  0  0  0
 23 18  2  0  0  0  0
 25 22  1  0  0  0  0
 26 27  2  0  0  0  0
 26 31  1  0  0  0  0
 27 28  1  0  0  0  0
 28 33  1  0  0  0  0
 28 29  2  0  0  0  0
 29 34  1  0  0  0  0
 30 35  1  0  0  0  0
 30 29  1  0  0  0  0
 31 30  2  0  0  0  0
 32 27  1  0  0  0  0
 36 37  1  0  0  0  0
 36 39  1  0  0  0  0
 38 36  1  0  0  0  0
 39 40  2  0  0  0  0
 39 45  1  0  0  0  0
 40 41  1  0  0  0  0
 41 42  1  0  0  0  0
 41 43  2  0  0  0  0
 44 43  1  0  0  0  0
 45 44  2  0  0  0  0
M  END
>  <minimizedAffinity>
-1.20965803

>  <minimizedRMSD>
8.14678574

$$$$
