
     RDKit          3D

 24 25  0  0  0  0  0  0  0  0999 V2000
   47.2813   34.2257   43.2919 C   0  0  0  0  0  0  0  0  0  0  0  0
   46.6373   35.2131   42.5633 C   0  0  0  0  0  0  0  0  0  0  0  0
   45.3712   35.6407   43.0437 C   0  0  0  0  0  0  0  0  0  0  0  0
   44.8761   35.0580   44.1800 N   0  0  0  0  0  0  0  0  0  0  0  0
   45.5539   34.1065   44.8369 C   0  0  0  0  0  0  0  0  0  0  0  0
   46.7437   33.7049   44.3849 N   0  0  0  0  0  0  0  0  0  0  0  0
   48.5781   33.6573   42.9434 C   0  0  0  0  0  0  0  0  0  0  0  0
   49.4924   34.7909   42.5179 C   0  0  0  0  0  0  0  0  0  0  0  0
   47.1009   35.6038   41.6956 H   0  0  0  0  0  0  0  0  0  0  0  0
   44.8505   36.4149   42.4846 H   0  0  0  0  0  0  0  0  0  0  0  0
   45.0712   33.7102   45.7277 H   0  0  0  0  0  0  0  0  0  0  0  0
   48.3960   32.9716   42.0645 H   0  0  0  0  0  0  0  0  0  0  0  0
   49.0886   33.1516   43.7574 H   0  0  0  0  0  0  0  0  0  0  0  0
   49.1228   35.2866   41.5972 H   0  0  0  0  0  0  0  0  0  0  0  0
   49.5729   35.5689   43.2992 H   0  0  0  0  0  0  0  0  0  0  0  0
   50.8082   34.1946   42.1672 C   0  0  0  0  0  0  0  0  0  0  0  0
   51.5665   33.4789   43.0737 C   0  0  0  0  0  0  0  0  0  0  0  0
   52.7815   32.9367   42.7246 C   0  0  0  0  0  0  0  0  0  0  0  0
   53.3625   32.3733   43.4643 H   0  0  0  0  0  0  0  0  0  0  0  0
   53.2783   33.0830   41.4854 N   0  0  0  0  0  0  0  0  0  0  0  0
   52.5464   33.7754   40.6051 C   0  0  0  0  0  0  0  0  0  0  0  0
   51.3412   34.3214   40.9269 N   0  0  0  0  0  0  0  0  0  0  0  0
   51.1574   33.3693   44.0623 H   0  0  0  0  0  0  0  0  0  0  0  0
   52.9032   33.9235   39.5868 H   0  0  0  0  0  0  0  0  0  0  0  0
  1  6  2  0
  2  3  2  0
  2  1  1  0
  3  4  1  0
  4  5  2  0
  6  5  1  0
  7  1  1  0
  8  7  1  0
  2  9  1  0
  3 10  1  0
  5 11  1  0
  7 12  1  0
  7 13  1  0
  8 14  1  0
  8 15  1  0
 16 17  2  0
 17 18  1  0
 18 19  1  0
 18 20  2  0
 20 21  1  0
 21 22  2  0
 22 16  1  0
 17 23  1  0
 21 24  1  0
  8 16  1  0
M  ISO  8   9  14  10  14  11  14  12   8  13   8  14   8  15   8  19  14
M  END
>  <DihAtoms>  (1) 
6,7,15,16

>  <DihDeg>  (1) 
89.99942040807008

$$$$
