
 OpenBabel03242514213D

 47 49  0  0  0  0  0  0  0  0999 V2000
   38.0240   27.5280   42.0210 C   0  0  0  0  0  0  0  0  0  0  0  0
   37.7110   28.8680   42.0190 C   0  0  0  0  0  0  0  0  0  0  0  0
   38.6810   29.7360   42.4190 C   0  0  0  0  0  0  0  0  0  0  0  0
   39.8880   29.2660   42.7940 N   0  0  0  0  0  0  0  0  0  0  0  0
   40.1960   27.9740   42.7970 C   0  0  0  0  0  0  0  0  0  0  0  0
   39.2560   27.1330   42.4110 N   0  0  0  0  0  0  0  0  0  0  0  0
   38.6610   30.8120   42.4970 H   0  0  0  0  0  0  0  0  0  0  0  0
   41.1730   27.5890   43.0990 H   0  0  0  0  0  0  0  0  0  0  0  0
   37.0040   26.6000   41.5200 C   0  0  0  0  0  0  0  0  0  0  0  0
   36.9300   25.3620   42.3680 C   0  0  0  0  0  0  0  0  0  0  0  0
   37.3040   24.1540   41.6390 C   0  0  0  0  0  0  0  0  0  0  0  0
   36.4830   23.9750   40.3800 C   0  0  0  0  0  0  0  0  0  0  0  0
   36.3260   25.2170   39.5910 C   0  0  0  0  0  0  0  0  0  0  0  0
   37.2420   26.3120   40.0820 C   0  0  0  0  0  0  0  0  0  0  0  0
   36.0080   27.0550   41.6770 H   0  0  0  0  0  0  0  0  0  0  0  0
   35.9400   25.2180   42.8360 H   0  0  0  0  0  0  0  0  0  0  0  0
   37.6340   25.4930   43.2160 H   0  0  0  0  0  0  0  0  0  0  0  0
   38.3860   24.0390   41.4140 H   0  0  0  0  0  0  0  0  0  0  0  0
   37.0540   23.2590   42.2740 H   0  0  0  0  0  0  0  0  0  0  0  0
   35.4760   23.5430   40.5900 H   0  0  0  0  0  0  0  0  0  0  0  0
   37.0620   23.2410   39.7480 H   0  0  0  0  0  0  0  0  0  0  0  0
   35.2890   25.6120   39.6500 H   0  0  0  0  0  0  0  0  0  0  0  0
   36.5620   25.0800   38.4980 H   0  0  0  0  0  0  0  0  0  0  0  0
   37.0980   27.2180   39.4590 H   0  0  0  0  0  0  0  0  0  0  0  0
   38.3110   26.0190   39.9780 H   0  0  0  0  0  0  0  0  0  0  0  0
   36.6040   29.5170   41.6910 O   0  0  0  0  0  0  0  0  0  0  0  0
   36.0330   29.9300   40.5210 C   0  0  0  0  0  0  0  0  0  0  0  0
   35.9950   29.1450   39.7220 H   0  0  0  0  0  0  0  0  0  0  0  0
   34.9920   30.3000   40.5980 H   0  0  0  0  0  0  0  0  0  0  0  0
   36.7520   31.1060   39.8540 C   0  0  0  0  0  0  0  0  0  0  0  0
   36.2460   31.2420   38.8780 H   0  0  0  0  0  0  0  0  0  0  0  0
   37.7750   30.7400   39.6300 H   0  0  0  0  0  0  0  0  0  0  0  0
   36.7270   32.2890   40.6700 N   0  0  0  0  0  0  0  0  0  0  0  0
   36.7700   31.9620   41.6660 H   0  0  0  0  0  0  0  0  0  0  0  0
   38.1590   33.2150   40.3010 S   0  0  0  0  0  0  0  0  0  0  0  0
   38.5740   34.0580   41.4640 O   0  0  0  0  0  0  0  0  0  0  0  0
   39.1800   33.7460   42.2070 H   0  0  0  0  0  0  0  0  0  0  0  0
   37.8300   34.0780   39.1220 O   0  0  0  0  0  0  0  0  0  0  0  0
   38.5330   34.6480   38.7240 H   0  0  0  0  0  0  0  0  0  0  0  0
   39.4170   32.2090   39.8460 O   0  0  0  0  0  0  0  0  0  0  0  0
   40.4180   32.5580   38.9660 C   0  0  0  0  0  0  0  0  0  0  0  0
   40.7750   31.5750   38.0490 C   0  0  0  0  0  3  0  0  0  0  0  0
   41.7760   31.8130   37.1080 C   0  0  0  0  0  0  0  0  0  0  0  0
   42.0360   31.0350   36.4070 H   0  0  0  0  0  0  0  0  0  0  0  0
   42.4240   33.0130   37.0670 N   0  0  0  0  0  0  0  0  0  0  0  0
   42.0470   33.9240   37.9660 C   0  0  0  0  0  3  0  0  0  0  0  0
   41.0750   33.7430   38.9080 N   0  0  0  0  0  0  0  0  0  0  0  0
  1  6  1  0  0  0  0
  2  1  2  0  0  0  0
  2  3  1  0  0  0  0
  3  7  1  0  0  0  0
  3  4  2  0  0  0  0
  4  5  1  0  0  0  0
  5  8  1  0  0  0  0
  6  5  2  0  0  0  0
  9 15  1  0  0  0  0
  9  1  1  0  0  0  0
  9 10  1  0  0  0  0
 10 16  1  0  0  0  0
 10 17  1  0  0  0  0
 11 19  1  0  0  0  0
 11 10  1  0  0  0  0
 12 20  1  0  0  0  0
 12 11  1  0  0  0  0
 13 22  1  0  0  0  0
 13 14  1  0  0  0  0
 13 12  1  0  0  0  0
 14  9  1  0  0  0  0
 18 11  1  0  0  0  0
 21 12  1  0  0  0  0
 23 13  1  0  0  0  0
 24 14  1  0  0  0  0
 25 14  1  0  0  0  0
 26  2  1  0  0  0  0
 27 29  1  0  0  0  0
 27 26  1  0  0  0  0
 28 27  1  0  0  0  0
 30 27  1  0  0  0  0
 30 33  1  0  0  0  0
 31 30  1  0  0  0  0
 32 30  1  0  0  0  0
 33 34  1  0  0  0  0
 35 33  1  0  0  0  0
 35 36  1  0  0  0  0
 36 37  1  0  0  0  0
 38 35  1  0  0  0  0
 39 38  1  0  0  0  0
 40 35  1  0  0  0  0
 41 40  1  0  0  0  0
 42 41  2  0  0  0  0
 43 42  1  0  0  0  0
 44 43  1  0  0  0  0
 45 43  2  0  0  0  0
 45 46  1  0  0  0  0
 46 47  2  0  0  0  0
 47 41  1  0  0  0  0
M  END
>  <minimizedAffinity>
-6.0166769

$$$$

 OpenBabel03242514213D

 47 49  0  0  0  0  0  0  0  0999 V2000
   38.7370   25.6840   42.1760 C   0  0  0  0  0  0  0  0  0  0  0  0
   38.9700   26.7120   43.0600 C   0  0  0  0  0  0  0  0  0  0  0  0
   40.1830   26.7390   43.6800 C   0  0  0  0  0  0  0  0  0  0  0  0
   41.0930   25.7810   43.4130 N   0  0  0  0  0  0  0  0  0  0  0  0
   40.8740   24.7880   42.5600 C   0  0  0  0  0  0  0  0  0  0  0  0
   39.7000   24.7600   41.9600 N   0  0  0  0  0  0  0  0  0  0  0  0
   40.5790   27.4380   44.4000 H   0  0  0  0  0  0  0  0  0  0  0  0
   41.6100   24.0100   42.3390 H   0  0  0  0  0  0  0  0  0  0  0  0
   37.4600   25.6970   41.4530 C   0  0  0  0  0  0  0  0  0  0  0  0
   36.7490   24.3800   41.5810 C   0  0  0  0  0  0  0  0  0  0  0  0
   36.6000   23.6920   40.3010 C   0  0  0  0  0  0  0  0  0  0  0  0
   35.9140   24.5590   39.2680 C   0  0  0  0  0  0  0  0  0  0  0  0
   36.4170   25.9500   39.2310 C   0  0  0  0  0  0  0  0  0  0  0  0
   37.6790   26.1120   40.0430 C   0  0  0  0  0  0  0  0  0  0  0  0
   36.7700   26.3900   41.9720 H   0  0  0  0  0  0  0  0  0  0  0  0
   35.7620   24.4670   42.0680 H   0  0  0  0  0  0  0  0  0  0  0  0
   37.3490   23.7370   42.2570 H   0  0  0  0  0  0  0  0  0  0  0  0
   37.5270   23.2480   39.8780 H   0  0  0  0  0  0  0  0  0  0  0  0
   35.9090   22.8140   40.4430 H   0  0  0  0  0  0  0  0  0  0  0  0
   34.8060   24.5730   39.3960 H   0  0  0  0  0  0  0  0  0  0  0  0
   36.1520   24.0840   38.2730 H   0  0  0  0  0  0  0  0  0  0  0  0
   35.6730   26.6660   39.6420 H   0  0  0  0  0  0  0  0  0  0  0  0
   36.6690   26.3020   38.1900 H   0  0  0  0  0  0  0  0  0  0  0  0
   38.0240   27.1630   39.9800 H   0  0  0  0  0  0  0  0  0  0  0  0
   38.5010   25.4800   39.6390 H   0  0  0  0  0  0  0  0  0  0  0  0
   38.2190   27.7300   43.4490 O   0  0  0  0  0  0  0  0  0  0  0  0
   38.1550   29.0610   43.1460 C   0  0  0  0  0  0  0  0  0  0  0  0
   37.6180   29.6850   43.9050 H   0  0  0  0  0  0  0  0  0  0  0  0
   39.1290   29.5690   43.0050 H   0  0  0  0  0  0  0  0  0  0  0  0
   37.4310   29.3680   41.8320 C   0  0  0  0  0  0  0  0  0  0  0  0
   36.3920   29.6200   42.1230 H   0  0  0  0  0  0  0  0  0  0  0  0
   37.3800   28.4030   41.2870 H   0  0  0  0  0  0  0  0  0  0  0  0
   38.0760   30.4160   41.0900 N   0  0  0  0  0  0  0  0  0  0  0  0
   38.5710   29.9510   40.2900 H   0  0  0  0  0  0  0  0  0  0  0  0
   36.8290   31.4670   40.4670 S   0  0  0  0  0  0  0  0  0  0  0  0
   37.1890   32.9060   40.6550 O   0  0  0  0  0  0  0  0  0  0  0  0
   37.7300   33.4490   40.0000 H   0  0  0  0  0  0  0  0  0  0  0  0
   35.5710   31.1420   41.2120 O   0  0  0  0  0  0  0  0  0  0  0  0
   34.7290   31.5990   40.9680 H   0  0  0  0  0  0  0  0  0  0  0  0
   36.5440   31.1570   38.8470 O   0  0  0  0  0  0  0  0  0  0  0  0
   37.0950   30.1080   38.1440 C   0  0  0  0  0  0  0  0  0  0  0  0
   36.2590   29.5160   37.2020 C   0  0  0  0  0  3  0  0  0  0  0  0
   36.7070   28.4450   36.4300 C   0  0  0  0  0  0  0  0  0  0  0  0
   36.0410   28.0020   35.7060 H   0  0  0  0  0  0  0  0  0  0  0  0
   37.9730   27.9570   36.5810 N   0  0  0  0  0  0  0  0  0  0  0  0
   38.7370   28.5570   37.4960 C   0  0  0  0  0  3  0  0  0  0  0  0
   38.3480   29.6070   38.2780 N   0  0  0  0  0  0  0  0  0  0  0  0
  1  2  1  0  0  0  0
  2 26  1  0  0  0  0
  2  3  2  0  0  0  0
  3  7  1  0  0  0  0
  4  3  1  0  0  0  0
  5  4  2  0  0  0  0
  6  1  2  0  0  0  0
  6  5  1  0  0  0  0
  8  5  1  0  0  0  0
  9 10  1  0  0  0  0
  9 15  1  0  0  0  0
  9  1  1  0  0  0  0
 10 16  1  0  0  0  0
 10 17  1  0  0  0  0
 11 19  1  0  0  0  0
 11 10  1  0  0  0  0
 12 20  1  0  0  0  0
 12 11  1  0  0  0  0
 13 12  1  0  0  0  0
 13 22  1  0  0  0  0
 13 14  1  0  0  0  0
 14  9  1  0  0  0  0
 18 11  1  0  0  0  0
 21 12  1  0  0  0  0
 23 13  1  0  0  0  0
 24 14  1  0  0  0  0
 25 14  1  0  0  0  0
 27 26  1  0  0  0  0
 27 28  1  0  0  0  0
 29 27  1  0  0  0  0
 30 31  1  0  0  0  0
 30 27  1  0  0  0  0
 32 30  1  0  0  0  0
 33 30  1  0  0  0  0
 34 33  1  0  0  0  0
 35 36  1  0  0  0  0
 35 33  1  0  0  0  0
 35 38  1  0  0  0  0
 37 36  1  0  0  0  0
 39 38  1  0  0  0  0
 40 35  1  0  0  0  0
 41 47  1  0  0  0  0
 41 40  1  0  0  0  0
 42 41  2  0  0  0  0
 43 45  2  0  0  0  0
 43 42  1  0  0  0  0
 44 43  1  0  0  0  0
 45 46  1  0  0  0  0
 46 47  2  0  0  0  0
M  END
>  <minimizedAffinity>
-5.68762589

$$$$

 OpenBabel03242514213D

 47 49  0  0  0  0  0  0  0  0999 V2000
   40.5510   28.8350   42.4710 C   0  0  0  0  0  0  0  0  0  0  0  0
   41.1420   29.9560   41.9350 C   0  0  0  0  0  0  0  0  0  0  0  0
   42.4380   30.2010   42.2740 C   0  0  0  0  0  0  0  0  0  0  0  0
   43.0850   29.3570   43.1030 N   0  0  0  0  0  0  0  0  0  0  0  0
   42.5200   28.2730   43.6220 C   0  0  0  0  0  0  0  0  0  0  0  0
   41.2650   28.0360   43.2950 N   0  0  0  0  0  0  0  0  0  0  0  0
   43.0930   31.0070   41.9790 H   0  0  0  0  0  0  0  0  0  0  0  0
   43.0400   27.5860   44.2940 H   0  0  0  0  0  0  0  0  0  0  0  0
   39.1800   28.5310   42.0470 C   0  0  0  0  0  0  0  0  0  0  0  0
   38.1730   29.1550   42.9710 C   0  0  0  0  0  0  0  0  0  0  0  0
   37.3670   28.1650   43.6800 C   0  0  0  0  0  0  0  0  0  0  0  0
   36.6810   27.2070   42.7290 C   0  0  0  0  0  0  0  0  0  0  0  0
   37.5610   26.7110   41.6480 C   0  0  0  0  0  0  0  0  0  0  0  0
   39.0080   27.0630   41.8970 C   0  0  0  0  0  0  0  0  0  0  0  0
   38.9830   29.0570   41.0920 H   0  0  0  0  0  0  0  0  0  0  0  0
   37.5080   29.8750   42.4620 H   0  0  0  0  0  0  0  0  0  0  0  0
   38.7300   29.7550   43.7200 H   0  0  0  0  0  0  0  0  0  0  0  0
   37.8860   27.6040   44.4850 H   0  0  0  0  0  0  0  0  0  0  0  0
   36.5260   28.6970   44.2070 H   0  0  0  0  0  0  0  0  0  0  0  0
   35.7590   27.6450   42.2800 H   0  0  0  0  0  0  0  0  0  0  0  0
   36.3840   26.3210   43.3610 H   0  0  0  0  0  0  0  0  0  0  0  0
   37.2860   27.1470   40.6630 H   0  0  0  0  0  0  0  0  0  0  0  0
   37.5290   25.5910   41.5300 H   0  0  0  0  0  0  0  0  0  0  0  0
   39.6300   26.6650   41.0700 H   0  0  0  0  0  0  0  0  0  0  0  0
   39.3820   26.5920   42.8330 H   0  0  0  0  0  0  0  0  0  0  0  0
   40.6850   30.8900   41.1150 O   0  0  0  0  0  0  0  0  0  0  0  0
   41.0210   31.3370   39.8690 C   0  0  0  0  0  0  0  0  0  0  0  0
   42.1230   31.4450   39.6970 H   0  0  0  0  0  0  0  0  0  0  0  0
   40.6660   30.7170   39.0240 H   0  0  0  0  0  0  0  0  0  0  0  0
   40.4540   32.7180   39.5250 C   0  0  0  0  0  0  0  0  0  0  0  0
   41.1930   33.1730   38.8360 H   0  0  0  0  0  0  0  0  0  0  0  0
   40.5010   33.3010   40.4680 H   0  0  0  0  0  0  0  0  0  0  0  0
   39.1350   32.6370   38.9620 N   0  0  0  0  0  0  0  0  0  0  0  0
   38.9880   31.6320   38.6970 H   0  0  0  0  0  0  0  0  0  0  0  0
   37.9990   33.0800   40.2100 S   0  0  0  0  0  0  0  0  0  0  0  0
   37.0710   34.1550   39.7420 O   0  0  0  0  0  0  0  0  0  0  0  0
   36.2040   33.9890   39.2560 H   0  0  0  0  0  0  0  0  0  0  0  0
   38.8010   33.5550   41.3820 O   0  0  0  0  0  0  0  0  0  0  0  0
   38.3370   33.8070   42.2190 H   0  0  0  0  0  0  0  0  0  0  0  0
   37.1200   31.7470   40.7150 O   0  0  0  0  0  0  0  0  0  0  0  0
   36.5290   30.8340   39.8680 C   0  0  0  0  0  0  0  0  0  0  0  0
   35.6430   29.9490   40.4710 C   0  0  0  0  0  3  0  0  0  0  0  0
   34.9850   28.9790   39.7150 C   0  0  0  0  0  0  0  0  0  0  0  0
   34.3020   28.3030   40.2050 H   0  0  0  0  0  0  0  0  0  0  0  0
   35.1970   28.8810   38.3700 N   0  0  0  0  0  0  0  0  0  0  0  0
   36.0550   29.7530   37.8380 C   0  0  0  0  0  3  0  0  0  0  0  0
   36.7250   30.7190   38.5310 N   0  0  0  0  0  0  0  0  0  0  0  0
  1  6  1  0  0  0  0
  2  3  1  0  0  0  0
  2  1  2  0  0  0  0
  3  4  2  0  0  0  0
  4  5  1  0  0  0  0
  5  8  1  0  0  0  0
  6  5  2  0  0  0  0
  7  3  1  0  0  0  0
  9  1  1  0  0  0  0
  9 10  1  0  0  0  0
 10 11  1  0  0  0  0
 10 17  1  0  0  0  0
 11 19  1  0  0  0  0
 11 18  1  0  0  0  0
 12 21  1  0  0  0  0
 12 11  1  0  0  0  0
 13 14  1  0  0  0  0
 13 12  1  0  0  0  0
 14  9  1  0  0  0  0
 14 25  1  0  0  0  0
 15  9  1  0  0  0  0
 16 10  1  0  0  0  0
 20 12  1  0  0  0  0
 22 13  1  0  0  0  0
 23 13  1  0  0  0  0
 24 14  1  0  0  0  0
 26  2  1  0  0  0  0
 27 26  1  0  0  0  0
 28 27  1  0  0  0  0
 29 27  1  0  0  0  0
 30 27  1  0  0  0  0
 30 32  1  0  0  0  0
 31 30  1  0  0  0  0
 33 30  1  0  0  0  0
 33 35  1  0  0  0  0
 34 33  1  0  0  0  0
 35 40  1  0  0  0  0
 35 38  1  0  0  0  0
 36 35  1  0  0  0  0
 37 36  1  0  0  0  0
 38 39  1  0  0  0  0
 41 42  1  0  0  0  0
 41 40  1  0  0  0  0
 43 44  1  0  0  0  0
 43 42  2  0  0  0  0
 45 43  1  0  0  0  0
 46 45  2  0  0  0  0
 46 47  1  0  0  0  0
 47 41  2  0  0  0  0
M  END
>  <minimizedAffinity>
-5.48574686

$$$$

 OpenBabel03242514213D

 47 49  0  0  0  0  0  0  0  0999 V2000
   36.4740   25.7570   38.0200 C   0  0  0  0  0  0  0  0  0  0  0  0
   35.7090   26.7700   37.4890 C   0  0  0  0  0  0  0  0  0  0  0  0
   35.5480   26.7880   36.1370 C   0  0  0  0  0  0  0  0  0  0  0  0
   36.1300   25.8350   35.3810 N   0  0  0  0  0  0  0  0  0  0  0  0
   36.8680   24.8550   35.8870 C   0  0  0  0  0  0  0  0  0  0  0  0
   37.0250   24.8380   37.1960 N   0  0  0  0  0  0  0  0  0  0  0  0
   35.0000   27.4760   35.5120 H   0  0  0  0  0  0  0  0  0  0  0  0
   37.3400   24.0800   35.2780 H   0  0  0  0  0  0  0  0  0  0  0  0
   36.5850   25.6950   39.4810 C   0  0  0  0  0  0  0  0  0  0  0  0
   37.8660   26.3190   39.9580 C   0  0  0  0  0  0  0  0  0  0  0  0
   38.7560   25.3580   40.6050 C   0  0  0  0  0  0  0  0  0  0  0  0
   38.0720   24.6330   41.7450 C   0  0  0  0  0  0  0  0  0  0  0  0
   36.7040   24.1730   41.4210 C   0  0  0  0  0  0  0  0  0  0  0  0
   36.4060   24.2950   39.9460 C   0  0  0  0  0  0  0  0  0  0  0  0
   35.8190   26.3630   39.9200 H   0  0  0  0  0  0  0  0  0  0  0  0
   37.7050   27.1810   40.6280 H   0  0  0  0  0  0  0  0  0  0  0  0
   38.3870   26.7360   39.0710 H   0  0  0  0  0  0  0  0  0  0  0  0
   39.2590   24.6320   39.9320 H   0  0  0  0  0  0  0  0  0  0  0  0
   39.6010   25.9220   41.0910 H   0  0  0  0  0  0  0  0  0  0  0  0
   38.0430   25.2440   42.6780 H   0  0  0  0  0  0  0  0  0  0  0  0
   38.7030   23.7180   41.9370 H   0  0  0  0  0  0  0  0  0  0  0  0
   35.9340   24.7670   41.9570 H   0  0  0  0  0  0  0  0  0  0  0  0
   36.5260   23.0920   41.6860 H   0  0  0  0  0  0  0  0  0  0  0  0
   35.3780   23.9320   39.7480 H   0  0  0  0  0  0  0  0  0  0  0  0
   37.0920   23.6590   39.3420 H   0  0  0  0  0  0  0  0  0  0  0  0
   35.0650   27.7800   38.0540 O   0  0  0  0  0  0  0  0  0  0  0  0
   35.2460   29.1330   38.1170 C   0  0  0  0  0  0  0  0  0  0  0  0
   35.3040   29.6390   37.1190 H   0  0  0  0  0  0  0  0  0  0  0  0
   34.4720   29.6960   38.6720 H   0  0  0  0  0  0  0  0  0  0  0  0
   36.5350   29.5580   38.8260 C   0  0  0  0  0  0  0  0  0  0  0  0
   37.3500   29.0310   38.2910 H   0  0  0  0  0  0  0  0  0  0  0  0
   36.4800   29.1070   39.8380 H   0  0  0  0  0  0  0  0  0  0  0  0
   36.7010   30.9850   38.8380 N   0  0  0  0  0  0  0  0  0  0  0  0
   35.8230   31.3890   38.4310 H   0  0  0  0  0  0  0  0  0  0  0  0
   36.8510   31.4860   40.5040 S   0  0  0  0  0  0  0  0  0  0  0  0
   35.6700   31.0510   41.3100 O   0  0  0  0  0  0  0  0  0  0  0  0
   35.5900   30.1570   41.7680 H   0  0  0  0  0  0  0  0  0  0  0  0
   36.9620   32.9790   40.5030 O   0  0  0  0  0  0  0  0  0  0  0  0
   37.1070   33.4570   41.3570 H   0  0  0  0  0  0  0  0  0  0  0  0
   38.2580   30.8820   41.1810 O   0  0  0  0  0  0  0  0  0  0  0  0
   38.3180   29.7810   42.0070 C   0  0  0  0  0  0  0  0  0  0  0  0
   39.5850   29.2360   42.1840 C   0  0  0  0  0  3  0  0  0  0  0  0
   39.7690   28.1190   42.9980 C   0  0  0  0  0  0  0  0  0  0  0  0
   40.7620   27.7130   43.1200 H   0  0  0  0  0  0  0  0  0  0  0  0
   38.7120   27.5390   43.6370 N   0  0  0  0  0  0  0  0  0  0  0  0
   37.5170   28.0980   43.4370 C   0  0  0  0  0  3  0  0  0  0  0  0
   37.2810   29.1890   42.6510 N   0  0  0  0  0  0  0  0  0  0  0  0
  1  9  1  0  0  0  0
  2  1  1  0  0  0  0
  2 26  1  0  0  0  0
  3  2  2  0  0  0  0
  4  5  2  0  0  0  0
  4  3  1  0  0  0  0
  5  6  1  0  0  0  0
  6  1  2  0  0  0  0
  7  3  1  0  0  0  0
  8  5  1  0  0  0  0
  9 15  1  0  0  0  0
  9 14  1  0  0  0  0
  9 10  1  0  0  0  0
 10 11  1  0  0  0  0
 10 16  1  0  0  0  0
 11 19  1  0  0  0  0
 11 12  1  0  0  0  0
 12 21  1  0  0  0  0
 12 20  1  0  0  0  0
 13 23  1  0  0  0  0
 13 12  1  0  0  0  0
 13 22  1  0  0  0  0
 14 13  1  0  0  0  0
 17 10  1  0  0  0  0
 18 11  1  0  0  0  0
 24 14  1  0  0  0  0
 25 14  1  0  0  0  0
 26 27  1  0  0  0  0
 27 29  1  0  0  0  0
 27 30  1  0  0  0  0
 28 27  1  0  0  0  0
 30 33  1  0  0  0  0
 30 32  1  0  0  0  0
 31 30  1  0  0  0  0
 33 35  1  0  0  0  0
 34 33  1  0  0  0  0
 35 40  1  0  0  0  0
 35 36  1  0  0  0  0
 36 37  1  0  0  0  0
 38 35  1  0  0  0  0
 38 39  1  0  0  0  0
 40 41  1  0  0  0  0
 41 42  2  0  0  0  0
 41 47  1  0  0  0  0
 42 43  1  0  0  0  0
 43 44  1  0  0  0  0
 43 45  2  0  0  0  0
 46 45  1  0  0  0  0
 47 46  2  0  0  0  0
M  END
>  <minimizedAffinity>
-5.38880968

$$$$

 OpenBabel03242514213D

 47 49  0  0  0  0  0  0  0  0999 V2000
   37.4390   27.3820   41.8030 C   0  0  0  0  0  0  0  0  0  0  0  0
   36.6940   28.5120   41.5580 C   0  0  0  0  0  0  0  0  0  0  0  0
   37.1760   29.6930   42.0370 C   0  0  0  0  0  0  0  0  0  0  0  0
   38.3390   29.7160   42.7170 N   0  0  0  0  0  0  0  0  0  0  0  0
   39.0640   28.6290   42.9550 C   0  0  0  0  0  0  0  0  0  0  0  0
   38.5970   27.4850   42.4930 N   0  0  0  0  0  0  0  0  0  0  0  0
   36.7660   30.6890   41.9660 H   0  0  0  0  0  0  0  0  0  0  0  0
   40.0080   28.6430   43.5050 H   0  0  0  0  0  0  0  0  0  0  0  0
   36.9590   26.1230   41.2240 C   0  0  0  0  0  0  0  0  0  0  0  0
   36.9820   25.0130   42.2370 C   0  0  0  0  0  0  0  0  0  0  0  0
   37.9120   23.9440   41.8810 C   0  0  0  0  0  0  0  0  0  0  0  0
   37.6330   23.3870   40.5020 C   0  0  0  0  0  0  0  0  0  0  0  0
   37.3810   24.4280   39.4810 C   0  0  0  0  0  0  0  0  0  0  0  0
   37.7230   25.8070   39.9890 C   0  0  0  0  0  0  0  0  0  0  0  0
   35.8770   26.2250   41.0100 H   0  0  0  0  0  0  0  0  0  0  0  0
   35.9840   24.5840   42.4310 H   0  0  0  0  0  0  0  0  0  0  0  0
   37.3030   25.4490   43.2060 H   0  0  0  0  0  0  0  0  0  0  0  0
   38.9910   24.1830   41.9900 H   0  0  0  0  0  0  0  0  0  0  0  0
   37.7450   23.0770   42.5800 H   0  0  0  0  0  0  0  0  0  0  0  0
   36.7880   22.6600   40.5020 H   0  0  0  0  0  0  0  0  0  0  0  0
   38.5750   22.8400   40.2060 H   0  0  0  0  0  0  0  0  0  0  0  0
   36.3130   24.4500   39.1740 H   0  0  0  0  0  0  0  0  0  0  0  0
   37.9870   24.2820   38.5410 H   0  0  0  0  0  0  0  0  0  0  0  0
   37.5270   26.5510   39.1910 H   0  0  0  0  0  0  0  0  0  0  0  0
   38.8040   25.8860   40.2430 H   0  0  0  0  0  0  0  0  0  0  0  0
   35.5480   28.6950   40.9210 O   0  0  0  0  0  0  0  0  0  0  0  0
   35.1740   29.2810   39.7450 C   0  0  0  0  0  0  0  0  0  0  0  0
   34.0810   29.2010   39.5140 H   0  0  0  0  0  0  0  0  0  0  0  0
   35.4010   30.3600   39.6520 H   0  0  0  0  0  0  0  0  0  0  0  0
   35.8600   28.6930   38.5080 C   0  0  0  0  0  0  0  0  0  0  0  0
   35.3710   27.7130   38.3410 H   0  0  0  0  0  0  0  0  0  0  0  0
   36.9020   28.4760   38.8210 H   0  0  0  0  0  0  0  0  0  0  0  0
   35.7690   29.5680   37.3710 N   0  0  0  0  0  0  0  0  0  0  0  0
   35.2480   30.4190   37.6930 H   0  0  0  0  0  0  0  0  0  0  0  0
   37.3940   30.0180   36.9200 S   0  0  0  0  0  0  0  0  0  0  0  0
   37.3960   31.2230   36.0330 O   0  0  0  0  0  0  0  0  0  0  0  0
   37.4110   32.1740   36.3650 H   0  0  0  0  0  0  0  0  0  0  0  0
   37.9910   28.8440   36.2070 O   0  0  0  0  0  0  0  0  0  0  0  0
   38.9340   28.8820   35.9130 H   0  0  0  0  0  0  0  0  0  0  0  0
   38.3290   30.3070   38.2780 O   0  0  0  0  0  0  0  0  0  0  0  0
   38.3250   31.4840   38.9940 C   0  0  0  0  0  0  0  0  0  0  0  0
   39.4170   31.6740   39.8340 C   0  0  0  0  0  3  0  0  0  0  0  0
   39.5220   32.8280   40.6090 C   0  0  0  0  0  0  0  0  0  0  0  0
   40.3780   32.9540   41.2550 H   0  0  0  0  0  0  0  0  0  0  0  0
   38.5580   33.7930   40.5590 N   0  0  0  0  0  0  0  0  0  0  0  0
   37.5310   33.5660   39.7370 C   0  0  0  0  0  3  0  0  0  0  0  0
   37.3790   32.4550   38.9590 N   0  0  0  0  0  0  0  0  0  0  0  0
  1  6  1  0  0  0  0
  2  1  2  0  0  0  0
  2  3  1  0  0  0  0
  3  4  2  0  0  0  0
  4  5  1  0  0  0  0
  5  8  1  0  0  0  0
  6  5  2  0  0  0  0
  7  3  1  0  0  0  0
  9  1  1  0  0  0  0
  9 10  1  0  0  0  0
 10 16  1  0  0  0  0
 10 17  1  0  0  0  0
 11 18  1  0  0  0  0
 11 10  1  0  0  0  0
 11 19  1  0  0  0  0
 12 11  1  0  0  0  0
 13 14  1  0  0  0  0
 13 12  1  0  0  0  0
 14 25  1  0  0  0  0
 14  9  1  0  0  0  0
 15  9  1  0  0  0  0
 20 12  1  0  0  0  0
 21 12  1  0  0  0  0
 22 13  1  0  0  0  0
 23 13  1  0  0  0  0
 24 14  1  0  0  0  0
 26  2  1  0  0  0  0
 27 26  1  0  0  0  0
 28 27  1  0  0  0  0
 29 27  1  0  0  0  0
 30 32  1  0  0  0  0
 30 27  1  0  0  0  0
 31 30  1  0  0  0  0
 33 34  1  0  0  0  0
 33 30  1  0  0  0  0
 35 33  1  0  0  0  0
 35 40  1  0  0  0  0
 36 37  1  0  0  0  0
 36 35  1  0  0  0  0
 38 35  1  0  0  0  0
 39 38  1  0  0  0  0
 40 41  1  0  0  0  0
 41 42  1  0  0  0  0
 42 43  2  0  0  0  0
 43 44  1  0  0  0  0
 45 43  1  0  0  0  0
 46 45  2  0  0  0  0
 47 41  2  0  0  0  0
 47 46  1  0  0  0  0
M  END
>  <minimizedAffinity>
-5.37504101

$$$$

 OpenBabel03242514213D

 47 49  0  0  0  0  0  0  0  0999 V2000
   37.7980   31.5500   39.2580 C   0  0  0  0  0  0  0  0  0  0  0  0
   38.8830   31.5390   40.1030 C   0  0  0  0  0  0  0  0  0  0  0  0
   39.2350   32.7200   40.6830 C   0  0  0  0  0  0  0  0  0  0  0  0
   38.5250   33.8350   40.4170 N   0  0  0  0  0  0  0  0  0  0  0  0
   37.4760   33.8510   39.6030 C   0  0  0  0  0  0  0  0  0  0  0  0
   37.1360   32.7080   39.0410 N   0  0  0  0  0  0  0  0  0  0  0  0
   40.0380   32.9450   41.3680 H   0  0  0  0  0  0  0  0  0  0  0  0
   36.8970   34.7520   39.3850 H   0  0  0  0  0  0  0  0  0  0  0  0
   37.3740   30.2640   38.6930 C   0  0  0  0  0  0  0  0  0  0  0  0
   37.8950   30.0850   37.2950 C   0  0  0  0  0  0  0  0  0  0  0  0
   36.8290   30.0150   36.3000 C   0  0  0  0  0  0  0  0  0  0  0  0
   35.8220   28.9320   36.6250 C   0  0  0  0  0  0  0  0  0  0  0  0
   35.4180   28.9040   38.0480 C   0  0  0  0  0  0  0  0  0  0  0  0
   35.8980   30.1280   38.7910 C   0  0  0  0  0  0  0  0  0  0  0  0
   37.8880   29.4530   39.2430 H   0  0  0  0  0  0  0  0  0  0  0  0
   38.5560   29.2070   37.1890 H   0  0  0  0  0  0  0  0  0  0  0  0
   38.5370   30.9600   37.0610 H   0  0  0  0  0  0  0  0  0  0  0  0
   36.3100   30.9710   36.0760 H   0  0  0  0  0  0  0  0  0  0  0  0
   37.2770   29.7020   35.3150 H   0  0  0  0  0  0  0  0  0  0  0  0
   36.1770   27.9190   36.3240 H   0  0  0  0  0  0  0  0  0  0  0  0
   34.9060   29.1850   36.0150 H   0  0  0  0  0  0  0  0  0  0  0  0
   35.8360   28.0200   38.5750 H   0  0  0  0  0  0  0  0  0  0  0  0
   34.3000   28.8720   38.1900 H   0  0  0  0  0  0  0  0  0  0  0  0
   35.5670   30.0690   39.8470 H   0  0  0  0  0  0  0  0  0  0  0  0
   35.4540   31.0560   38.3670 H   0  0  0  0  0  0  0  0  0  0  0  0
   39.6950   30.5650   40.4880 O   0  0  0  0  0  0  0  0  0  0  0  0
   40.4060   30.2850   41.6200 C   0  0  0  0  0  0  0  0  0  0  0  0
   41.4500   29.9230   41.4340 H   0  0  0  0  0  0  0  0  0  0  0  0
   40.5240   31.1230   42.3330 H   0  0  0  0  0  0  0  0  0  0  0  0
   39.7840   29.1930   42.4950 C   0  0  0  0  0  0  0  0  0  0  0  0
   40.6180   28.8030   43.1120 H   0  0  0  0  0  0  0  0  0  0  0  0
   39.5010   28.3780   41.7970 H   0  0  0  0  0  0  0  0  0  0  0  0
   38.6870   29.6880   43.2810 N   0  0  0  0  0  0  0  0  0  0  0  0
   38.7020   30.7330   43.1850 H   0  0  0  0  0  0  0  0  0  0  0  0
   37.2140   29.0620   42.5860 S   0  0  0  0  0  0  0  0  0  0  0  0
   36.3060   30.1670   42.1520 O   0  0  0  0  0  0  0  0  0  0  0  0
   36.3380   30.6100   41.2470 H   0  0  0  0  0  0  0  0  0  0  0  0
   36.5540   28.2260   43.6390 O   0  0  0  0  0  0  0  0  0  0  0  0
   35.7220   27.7380   43.4220 H   0  0  0  0  0  0  0  0  0  0  0  0
   37.5490   28.0560   41.2890 O   0  0  0  0  0  0  0  0  0  0  0  0
   37.2560   26.7100   41.2480 C   0  0  0  0  0  0  0  0  0  0  0  0
   36.7940   26.2380   40.0250 C   0  0  0  0  0  3  0  0  0  0  0  0
   36.4650   24.8930   39.8620 C   0  0  0  0  0  0  0  0  0  0  0  0
   36.1080   24.5490   38.9040 H   0  0  0  0  0  0  0  0  0  0  0  0
   36.5900   24.0140   40.8990 N   0  0  0  0  0  0  0  0  0  0  0  0
   37.0380   24.5140   42.0520 C   0  0  0  0  0  3  0  0  0  0  0  0
   37.3730   25.8200   42.2650 N   0  0  0  0  0  0  0  0  0  0  0  0
  1  2  1  0  0  0  0
  2 26  1  0  0  0  0
  2  3  2  0  0  0  0
  3  7  1  0  0  0  0
  4  3  1  0  0  0  0
  5  4  2  0  0  0  0
  6  1  2  0  0  0  0
  6  5  1  0  0  0  0
  8  5  1  0  0  0  0
  9 14  1  0  0  0  0
  9 15  1  0  0  0  0
  9  1  1  0  0  0  0
 10  9  1  0  0  0  0
 11 12  1  0  0  0  0
 11 10  1  0  0  0  0
 12 13  1  0  0  0  0
 13 23  1  0  0  0  0
 13 22  1  0  0  0  0
 13 14  1  0  0  0  0
 14 24  1  0  0  0  0
 16 10  1  0  0  0  0
 17 10  1  0  0  0  0
 18 11  1  0  0  0  0
 19 11  1  0  0  0  0
 20 12  1  0  0  0  0
 21 12  1  0  0  0  0
 25 14  1  0  0  0  0
 26 27  1  0  0  0  0
 27 29  1  0  0  0  0
 27 30  1  0  0  0  0
 28 27  1  0  0  0  0
 30 31  1  0  0  0  0
 30 33  1  0  0  0  0
 32 30  1  0  0  0  0
 34 33  1  0  0  0  0
 35 33  1  0  0  0  0
 35 38  1  0  0  0  0
 36 35  1  0  0  0  0
 37 36  1  0  0  0  0
 39 38  1  0  0  0  0
 40 35  1  0  0  0  0
 41 40  1  0  0  0  0
 41 47  1  0  0  0  0
 42 41  2  0  0  0  0
 43 42  1  0  0  0  0
 43 45  2  0  0  0  0
 44 43  1  0  0  0  0
 45 46  1  0  0  0  0
 46 47  2  0  0  0  0
M  END
>  <minimizedAffinity>
-5.33870411

$$$$

 OpenBabel03242514213D

 47 49  0  0  0  0  0  0  0  0999 V2000
   36.8330   29.0150   41.3860 C   0  0  0  0  0  0  0  0  0  0  0  0
   37.8340   29.6660   42.0700 C   0  0  0  0  0  0  0  0  0  0  0  0
   38.3680   29.0300   43.1500 C   0  0  0  0  0  0  0  0  0  0  0  0
   37.9110   27.8120   43.5040 N   0  0  0  0  0  0  0  0  0  0  0  0
   36.9470   27.1780   42.8470 C   0  0  0  0  0  0  0  0  0  0  0  0
   36.4280   27.7940   41.8030 N   0  0  0  0  0  0  0  0  0  0  0  0
   39.1490   29.3450   43.8250 H   0  0  0  0  0  0  0  0  0  0  0  0
   36.5740   26.1910   43.1300 H   0  0  0  0  0  0  0  0  0  0  0  0
   36.3100   29.6670   40.1810 C   0  0  0  0  0  0  0  0  0  0  0  0
   34.8780   29.2860   39.9330 C   0  0  0  0  0  0  0  0  0  0  0  0
   34.6990   28.5400   38.6910 C   0  0  0  0  0  0  0  0  0  0  0  0
   35.2560   29.2860   37.4970 C   0  0  0  0  0  0  0  0  0  0  0  0
   36.5870   29.8840   37.7380 C   0  0  0  0  0  0  0  0  0  0  0  0
   37.2010   29.3870   39.0250 C   0  0  0  0  0  0  0  0  0  0  0  0
   36.2360   30.7540   40.3740 H   0  0  0  0  0  0  0  0  0  0  0  0
   34.1930   30.1510   39.9450 H   0  0  0  0  0  0  0  0  0  0  0  0
   34.5500   28.6450   40.7780 H   0  0  0  0  0  0  0  0  0  0  0  0
   35.0670   27.4920   38.6960 H   0  0  0  0  0  0  0  0  0  0  0  0
   33.5960   28.4480   38.4830 H   0  0  0  0  0  0  0  0  0  0  0  0
   34.5590   30.0760   37.1300 H   0  0  0  0  0  0  0  0  0  0  0  0
   35.3720   28.5090   36.6870 H   0  0  0  0  0  0  0  0  0  0  0  0
   36.5320   30.9910   37.8120 H   0  0  0  0  0  0  0  0  0  0  0  0
   37.3320   29.6480   36.9260 H   0  0  0  0  0  0  0  0  0  0  0  0
   38.1970   29.8520   39.1600 H   0  0  0  0  0  0  0  0  0  0  0  0
   37.3620   28.2860   38.9950 H   0  0  0  0  0  0  0  0  0  0  0  0
   38.4120   30.8420   41.8830 O   0  0  0  0  0  0  0  0  0  0  0  0
   39.6820   31.2670   41.6130 C   0  0  0  0  0  0  0  0  0  0  0  0
   40.3280   31.4020   42.5190 H   0  0  0  0  0  0  0  0  0  0  0  0
   40.2750   30.6160   40.9430 H   0  0  0  0  0  0  0  0  0  0  0  0
   39.7510   32.6220   40.9020 C   0  0  0  0  0  0  0  0  0  0  0  0
   39.8440   33.3720   41.7120 H   0  0  0  0  0  0  0  0  0  0  0  0
   38.7490   32.7710   40.4490 H   0  0  0  0  0  0  0  0  0  0  0  0
   40.8280   32.6820   39.9530 N   0  0  0  0  0  0  0  0  0  0  0  0
   41.5150   31.9420   40.2380 H   0  0  0  0  0  0  0  0  0  0  0  0
   40.1730   32.2920   38.3840 S   0  0  0  0  0  0  0  0  0  0  0  0
   40.8430   33.0810   37.3050 O   0  0  0  0  0  0  0  0  0  0  0  0
   41.6850   32.7970   36.8300 H   0  0  0  0  0  0  0  0  0  0  0  0
   38.7100   32.6080   38.4310 O   0  0  0  0  0  0  0  0  0  0  0  0
   38.1430   32.4080   37.6450 H   0  0  0  0  0  0  0  0  0  0  0  0
   40.3190   30.6540   38.0680 O   0  0  0  0  0  0  0  0  0  0  0  0
   41.3140   30.0930   37.2980 C   0  0  0  0  0  0  0  0  0  0  0  0
   41.3550   28.7030   37.2980 C   0  0  0  0  0  3  0  0  0  0  0  0
   42.3180   28.0220   36.5550 C   0  0  0  0  0  0  0  0  0  0  0  0
   42.3310   26.9430   36.5710 H   0  0  0  0  0  0  0  0  0  0  0  0
   43.2390   28.7050   35.8130 N   0  0  0  0  0  0  0  0  0  0  0  0
   43.1580   30.0360   35.8450 C   0  0  0  0  0  3  0  0  0  0  0  0
   42.2370   30.7510   36.5550 N   0  0  0  0  0  0  0  0  0  0  0  0
  1  6  2  0  0  0  0
  1  2  1  0  0  0  0
  2  3  2  0  0  0  0
  3  4  1  0  0  0  0
  3  7  1  0  0  0  0
  5  8  1  0  0  0  0
  5  4  2  0  0  0  0
  6  5  1  0  0  0  0
  9 15  1  0  0  0  0
  9  1  1  0  0  0  0
 10 16  1  0  0  0  0
 10  9  1  0  0  0  0
 10 17  1  0  0  0  0
 11 18  1  0  0  0  0
 11 10  1  0  0  0  0
 12 13  1  0  0  0  0
 12 11  1  0  0  0  0
 13 22  1  0  0  0  0
 13 14  1  0  0  0  0
 14 24  1  0  0  0  0
 14  9  1  0  0  0  0
 19 11  1  0  0  0  0
 20 12  1  0  0  0  0
 21 12  1  0  0  0  0
 23 13  1  0  0  0  0
 25 14  1  0  0  0  0
 26  2  1  0  0  0  0
 27 26  1  0  0  0  0
 27 28  1  0  0  0  0
 29 27  1  0  0  0  0
 30 27  1  0  0  0  0
 30 31  1  0  0  0  0
 32 30  1  0  0  0  0
 33 34  1  0  0  0  0
 33 30  1  0  0  0  0
 35 38  1  0  0  0  0
 35 33  1  0  0  0  0
 36 35  1  0  0  0  0
 37 36  1  0  0  0  0
 39 38  1  0  0  0  0
 40 35  1  0  0  0  0
 41 40  1  0  0  0  0
 42 41  1  0  0  0  0
 43 44  1  0  0  0  0
 43 42  2  0  0  0  0
 45 46  2  0  0  0  0
 45 43  1  0  0  0  0
 46 47  1  0  0  0  0
 47 41  2  0  0  0  0
M  END
>  <minimizedAffinity>
-5.31340313

$$$$

 OpenBabel03242514213D

 47 49  0  0  0  0  0  0  0  0999 V2000
   31.7150   28.8320   36.1050 C   0  0  0  0  0  0  0  0  0  0  0  0
   32.9500   28.2840   36.3620 C   0  0  0  0  0  0  0  0  0  0  0  0
   33.0690   26.9320   36.2490 C   0  0  0  0  0  0  0  0  0  0  0  0
   31.9980   26.1920   35.8970 N   0  0  0  0  0  0  0  0  0  0  0  0
   30.8030   26.7150   35.6480 C   0  0  0  0  0  0  0  0  0  0  0  0
   30.6880   28.0250   35.7580 N   0  0  0  0  0  0  0  0  0  0  0  0
   33.9270   26.2950   36.4010 H   0  0  0  0  0  0  0  0  0  0  0  0
   29.9330   26.1200   35.3610 H   0  0  0  0  0  0  0  0  0  0  0  0
   31.6060   30.2940   36.1540 C   0  0  0  0  0  0  0  0  0  0  0  0
   30.6080   30.7320   37.1880 C   0  0  0  0  0  0  0  0  0  0  0  0
   29.4590   31.4220   36.6080 C   0  0  0  0  0  0  0  0  0  0  0  0
   29.8770   32.5990   35.7530 C   0  0  0  0  0  0  0  0  0  0  0  0
   31.0130   32.3050   34.8520 C   0  0  0  0  0  0  0  0  0  0  0  0
   31.3180   30.8270   34.7970 C   0  0  0  0  0  0  0  0  0  0  0  0
   32.5540   30.7040   36.5520 H   0  0  0  0  0  0  0  0  0  0  0  0
   31.0530   31.3600   37.9800 H   0  0  0  0  0  0  0  0  0  0  0  0
   30.2440   29.8230   37.7110 H   0  0  0  0  0  0  0  0  0  0  0  0
   28.7370   30.7830   36.0570 H   0  0  0  0  0  0  0  0  0  0  0  0
   28.8520   31.8740   37.4420 H   0  0  0  0  0  0  0  0  0  0  0  0
   30.1170   33.5010   36.3640 H   0  0  0  0  0  0  0  0  0  0  0  0
   28.9820   32.8330   35.1090 H   0  0  0  0  0  0  0  0  0  0  0  0
   31.9420   32.8160   35.1830 H   0  0  0  0  0  0  0  0  0  0  0  0
   30.8270   32.6240   33.7870 H   0  0  0  0  0  0  0  0  0  0  0  0
   32.1660   30.6530   34.1060 H   0  0  0  0  0  0  0  0  0  0  0  0
   30.4540   30.2530   34.3960 H   0  0  0  0  0  0  0  0  0  0  0  0
   34.1050   28.8300   36.7120 O   0  0  0  0  0  0  0  0  0  0  0  0
   35.2360   28.3900   37.3380 C   0  0  0  0  0  0  0  0  0  0  0  0
   35.3730   27.2780   37.3190 H   0  0  0  0  0  0  0  0  0  0  0  0
   36.1900   28.7960   36.9490 H   0  0  0  0  0  0  0  0  0  0  0  0
   35.3080   28.7480   38.8250 C   0  0  0  0  0  0  0  0  0  0  0  0
   35.7330   27.8520   39.3210 H   0  0  0  0  0  0  0  0  0  0  0  0
   34.2540   28.8240   39.1640 H   0  0  0  0  0  0  0  0  0  0  0  0
   36.0780   29.9380   39.0600 N   0  0  0  0  0  0  0  0  0  0  0  0
   35.4690   30.7450   38.7770 H   0  0  0  0  0  0  0  0  0  0  0  0
   36.4030   30.0290   40.7720 S   0  0  0  0  0  0  0  0  0  0  0  0
   35.5680   31.0820   41.4280 O   0  0  0  0  0  0  0  0  0  0  0  0
   34.6390   30.9290   41.7900 H   0  0  0  0  0  0  0  0  0  0  0  0
   37.8580   30.3470   40.9240 O   0  0  0  0  0  0  0  0  0  0  0  0
   38.2540   30.3910   41.8290 H   0  0  0  0  0  0  0  0  0  0  0  0
   36.1360   28.5480   41.5070 O   0  0  0  0  0  0  0  0  0  0  0  0
   37.1180   27.7770   42.0900 C   0  0  0  0  0  0  0  0  0  0  0  0
   37.1910   26.4640   41.6380 C   0  0  0  0  0  3  0  0  0  0  0  0
   38.1460   25.5890   42.1560 C   0  0  0  0  0  0  0  0  0  0  0  0
   38.1840   24.5740   41.7900 H   0  0  0  0  0  0  0  0  0  0  0  0
   39.0250   26.0020   43.1140 N   0  0  0  0  0  0  0  0  0  0  0  0
   38.9160   27.2700   43.5140 C   0  0  0  0  0  3  0  0  0  0  0  0
   38.0010   28.1670   43.0420 N   0  0  0  0  0  0  0  0  0  0  0  0
  1  9  1  0  0  0  0
  1  2  1  0  0  0  0
  2 26  1  0  0  0  0
  3  2  2  0  0  0  0
  3  7  1  0  0  0  0
  4  3  1  0  0  0  0
  5  6  1  0  0  0  0
  5  4  2  0  0  0  0
  6  1  2  0  0  0  0
  8  5  1  0  0  0  0
  9 15  1  0  0  0  0
  9 10  1  0  0  0  0
 10 17  1  0  0  0  0
 10 16  1  0  0  0  0
 11 10  1  0  0  0  0
 11 19  1  0  0  0  0
 12 20  1  0  0  0  0
 12 11  1  0  0  0  0
 13 22  1  0  0  0  0
 13 12  1  0  0  0  0
 14 13  1  0  0  0  0
 14  9  1  0  0  0  0
 18 11  1  0  0  0  0
 21 12  1  0  0  0  0
 23 13  1  0  0  0  0
 24 14  1  0  0  0  0
 25 14  1  0  0  0  0
 26 27  1  0  0  0  0
 27 30  1  0  0  0  0
 28 27  1  0  0  0  0
 29 27  1  0  0  0  0
 30 33  1  0  0  0  0
 30 32  1  0  0  0  0
 30 31  1  0  0  0  0
 33 35  1  0  0  0  0
 34 33  1  0  0  0  0
 35 38  1  0  0  0  0
 35 36  1  0  0  0  0
 35 40  1  0  0  0  0
 36 37  1  0  0  0  0
 38 39  1  0  0  0  0
 40 41  1  0  0  0  0
 41 47  1  0  0  0  0
 42 41  2  0  0  0  0
 42 43  1  0  0  0  0
 43 45  2  0  0  0  0
 44 43  1  0  0  0  0
 45 46  1  0  0  0  0
 47 46  2  0  0  0  0
M  END
>  <minimizedAffinity>
-5.31185007

$$$$

 OpenBabel03242514213D

 47 49  0  0  0  0  0  0  0  0999 V2000
   39.3270   25.8490   42.4180 C   0  0  0  0  0  0  0  0  0  0  0  0
   38.3320   26.6880   42.8640 C   0  0  0  0  0  0  0  0  0  0  0  0
   37.0480   26.2440   42.7600 C   0  0  0  0  0  0  0  0  0  0  0  0
   36.8010   25.0270   42.2370 N   0  0  0  0  0  0  0  0  0  0  0  0
   37.7570   24.2120   41.8070 C   0  0  0  0  0  0  0  0  0  0  0  0
   39.0000   24.6420   41.9060 N   0  0  0  0  0  0  0  0  0  0  0  0
   36.1230   26.7240   43.0400 H   0  0  0  0  0  0  0  0  0  0  0  0
   37.5610   23.2240   41.3830 H   0  0  0  0  0  0  0  0  0  0  0  0
   40.7120   26.2960   42.5990 C   0  0  0  0  0  0  0  0  0  0  0  0
   41.2420   26.9490   41.3530 C   0  0  0  0  0  0  0  0  0  0  0  0
   42.3540   26.2130   40.7590 C   0  0  0  0  0  0  0  0  0  0  0  0
   43.4770   25.9880   41.7490 C   0  0  0  0  0  0  0  0  0  0  0  0
   43.0140   25.5470   43.0830 C   0  0  0  0  0  0  0  0  0  0  0  0
   41.5530   25.1660   43.0720 C   0  0  0  0  0  0  0  0  0  0  0  0
   40.7200   27.1320   43.3250 H   0  0  0  0  0  0  0  0  0  0  0  0
   41.5380   28.0010   41.5090 H   0  0  0  0  0  0  0  0  0  0  0  0
   40.4130   26.9880   40.6160 H   0  0  0  0  0  0  0  0  0  0  0  0
   42.0900   25.2610   40.2520 H   0  0  0  0  0  0  0  0  0  0  0  0
   42.8100   26.8460   39.9470 H   0  0  0  0  0  0  0  0  0  0  0  0
   44.1260   26.8880   41.8640 H   0  0  0  0  0  0  0  0  0  0  0  0
   44.0980   25.1540   41.3110 H   0  0  0  0  0  0  0  0  0  0  0  0
   43.1340   26.3490   43.8430 H   0  0  0  0  0  0  0  0  0  0  0  0
   43.5690   24.6450   43.4690 H   0  0  0  0  0  0  0  0  0  0  0  0
   41.2530   24.8350   44.0860 H   0  0  0  0  0  0  0  0  0  0  0  0
   41.3660   24.3090   42.3870 H   0  0  0  0  0  0  0  0  0  0  0  0
   38.3700   27.8980   43.4010 O   0  0  0  0  0  0  0  0  0  0  0  0
   37.9220   29.1360   43.0350 C   0  0  0  0  0  0  0  0  0  0  0  0
   36.9250   29.4130   43.4630 H   0  0  0  0  0  0  0  0  0  0  0  0
   38.5840   29.9840   43.2970 H   0  0  0  0  0  0  0  0  0  0  0  0
   37.7410   29.3140   41.5250 C   0  0  0  0  0  0  0  0  0  0  0  0
   36.6560   29.1840   41.3430 H   0  0  0  0  0  0  0  0  0  0  0  0
   38.2450   28.4420   41.0600 H   0  0  0  0  0  0  0  0  0  0  0  0
   38.2390   30.5820   41.0650 N   0  0  0  0  0  0  0  0  0  0  0  0
   38.9200   30.3700   40.2950 H   0  0  0  0  0  0  0  0  0  0  0  0
   36.8880   31.4760   40.4150 S   0  0  0  0  0  0  0  0  0  0  0  0
   37.0530   32.9450   40.6370 O   0  0  0  0  0  0  0  0  0  0  0  0
   37.5410   33.5650   40.0100 H   0  0  0  0  0  0  0  0  0  0  0  0
   35.6590   30.9770   41.1100 O   0  0  0  0  0  0  0  0  0  0  0  0
   34.7740   31.3270   40.8430 H   0  0  0  0  0  0  0  0  0  0  0  0
   36.6990   31.1630   38.7810 O   0  0  0  0  0  0  0  0  0  0  0  0
   36.1770   29.9970   38.2640 C   0  0  0  0  0  0  0  0  0  0  0  0
   36.6650   29.6280   37.0150 C   0  0  0  0  0  3  0  0  0  0  0  0
   36.2090   28.4670   36.3910 C   0  0  0  0  0  0  0  0  0  0  0  0
   36.6020   28.2010   35.4220 H   0  0  0  0  0  0  0  0  0  0  0  0
   35.2780   27.6700   36.9930 N   0  0  0  0  0  0  0  0  0  0  0  0
   34.8420   28.0660   38.1900 C   0  0  0  0  0  3  0  0  0  0  0  0
   35.2530   29.1920   38.8440 N   0  0  0  0  0  0  0  0  0  0  0  0
  1  9  1  0  0  0  0
  1  2  1  0  0  0  0
  2 26  1  0  0  0  0
  3  2  2  0  0  0  0
  3  7  1  0  0  0  0
  4  3  1  0  0  0  0
  5  6  1  0  0  0  0
  5  4  2  0  0  0  0
  6  1  2  0  0  0  0
  8  5  1  0  0  0  0
  9 14  1  0  0  0  0
  9 15  1  0  0  0  0
 10 16  1  0  0  0  0
 10  9  1  0  0  0  0
 11 10  1  0  0  0  0
 11 12  1  0  0  0  0
 12 20  1  0  0  0  0
 12 13  1  0  0  0  0
 13 23  1  0  0  0  0
 13 22  1  0  0  0  0
 14 13  1  0  0  0  0
 14 24  1  0  0  0  0
 17 10  1  0  0  0  0
 18 11  1  0  0  0  0
 19 11  1  0  0  0  0
 21 12  1  0  0  0  0
 25 14  1  0  0  0  0
 27 29  1  0  0  0  0
 27 26  1  0  0  0  0
 27 28  1  0  0  0  0
 30 27  1  0  0  0  0
 31 30  1  0  0  0  0
 32 30  1  0  0  0  0
 33 30  1  0  0  0  0
 34 33  1  0  0  0  0
 35 36  1  0  0  0  0
 35 33  1  0  0  0  0
 35 38  1  0  0  0  0
 37 36  1  0  0  0  0
 39 38  1  0  0  0  0
 40 35  1  0  0  0  0
 41 40  1  0  0  0  0
 41 47  1  0  0  0  0
 42 41  2  0  0  0  0
 43 45  2  0  0  0  0
 43 42  1  0  0  0  0
 44 43  1  0  0  0  0
 45 46  1  0  0  0  0
 46 47  2  0  0  0  0
M  END
>  <minimizedAffinity>
-5.28325319

$$$$
