
 OpenBabel03252507583D

 25 27  0  0  1  0  0  0  0  0999 V2000
   46.5870   32.3840   46.1150 C   0  0  1  0  0  0  0  0  0  0  0  0
   46.7940   32.5510   47.5800 C   0  0  0  0  0  0  0  0  0  0  0  0
   45.5670   31.8730   47.0870 C   0  0  2  0  0  0  0  0  0  0  0  0
   47.3080   31.7630   45.5800 H   0  0  0  0  0  0  0  0  0  0  0  0
   46.6430   33.5810   47.9860 H   0  0  0  0  0  0  0  0  0  0  0  0
   47.6270   32.0090   48.0240 H   0  0  0  0  0  0  0  0  0  0  0  0
   44.6020   32.3770   47.1880 H   0  0  0  0  0  0  0  0  0  0  0  0
   46.1980   34.7580   43.3470 C   0  0  0  0  0  0  0  0  0  0  0  0
   45.2050   35.6510   43.8100 C   0  0  0  0  0  0  0  0  0  0  0  0
   44.6690   35.4180   45.0890 C   0  0  0  0  0  0  0  0  0  0  0  0
   45.1340   34.3570   45.7990 N   0  0  0  0  0  0  0  0  0  0  0  0
   46.0960   33.5340   45.2890 C   0  0  0  0  0  0  0  0  0  0  0  0
   46.6340   33.7130   44.0840 N   0  0  0  0  0  0  0  0  0  0  0  0
   44.8490   36.4760   43.2480 H   0  0  0  0  0  0  0  0  0  0  0  0
   43.9100   36.0630   45.4980 H   0  0  0  0  0  0  0  0  0  0  0  0
   46.7010   35.0610   42.0420 C   0  0  0  0  0  0  0  0  0  0  0  0
   47.8990   35.3710   41.7680 O   0  0  0  0  0  0  0  0  0  0  0  0
   45.9000   34.9880   41.3030 H   0  0  0  0  0  0  0  0  0  0  0  0
   45.4950   30.3730   47.1220 C   0  0  0  0  0  0  0  0  0  0  0  0
   45.1420   29.7020   48.2840 C   0  0  0  0  0  3  0  0  0  0  0  0
   45.1040   28.3250   48.2170 C   0  0  0  0  0  0  0  0  0  0  0  0
   44.8280   27.8050   49.1300 H   0  0  0  0  0  0  0  0  0  0  0  0
   45.3820   27.6070   47.1150 N   0  0  0  0  0  0  0  0  0  0  0  0
   45.7200   28.2920   46.0050 C   0  0  0  0  0  3  0  0  0  0  0  0
   45.7700   29.6370   46.0270 N   0  0  0  0  0  0  0  0  0  0  0  0
  1  4  1  6  0  0  0
  1  3  1  0  0  0  0
  1  2  1  0  0  0  0
  2  5  1  0  0  0  0
  2  6  1  0  0  0  0
  3 19  1  0  0  0  0
  3  7  1  1  0  0  0
  3  2  1  0  0  0  0
  8  9  2  0  0  0  0
  8 13  1  0  0  0  0
  9 10  1  0  0  0  0
 10 15  1  0  0  0  0
 10 11  2  0  0  0  0
 12 11  1  0  0  0  0
 12  1  1  0  0  0  0
 13 12  2  0  0  0  0
 14  9  1  0  0  0  0
 16  8  1  0  0  0  0
 17 16  2  0  0  0  0
 18 16  1  0  0  0  0
 19 20  1  0  0  0  0
 21 20  2  0  0  0  0
 21 22  1  0  0  0  0
 23 21  1  0  0  0  0
 24 25  1  0  0  0  0
 24 23  2  0  0  0  0
 25 19  2  0  0  0  0
M  END
>  <minimizedAffinity>
-4.44526625

>  <minimizedRMSD>
1.30229199

$$$$
