
 OpenBabel03242521283D

 33 35  0  0  1  0  0  0  0  0999 V2000
   48.0590   33.4930   42.5130 C   0  0  1  0  0  0  0  0  0  0  0  0
   46.5900   33.7410   42.2610 C   0  0  2  0  0  0  0  0  0  0  0  0
   46.3880   34.6710   41.2610 O   0  0  0  0  0  0  0  0  0  0  0  0
   46.7590   34.0550   40.0760 C   0  0  0  0  0  0  0  0  0  0  0  0
   48.2640   33.9600   40.0460 C   0  0  2  0  0  0  0  0  0  0  0  0
   48.8760   33.3840   41.2720 C   0  0  2  0  0  0  0  0  0  0  0  0
   48.1040   32.4990   43.0500 H   0  0  0  0  0  0  0  0  0  0  0  0
   46.1720   32.7640   41.9380 H   0  0  0  0  0  0  0  0  0  0  0  0
   46.3690   33.0090   40.0170 H   0  0  0  0  0  0  0  0  0  0  0  0
   46.4600   34.6470   39.1780 H   0  0  0  0  0  0  0  0  0  0  0  0
   48.5550   33.3650   39.1540 H   0  0  0  0  0  0  0  0  0  0  0  0
   49.8270   33.9570   41.4600 H   0  0  0  0  0  0  0  0  0  0  0  0
   44.5450   35.7940   44.7060 C   0  0  0  0  0  0  0  0  0  0  0  0
   45.1500   35.3860   43.5070 C   0  0  0  0  0  0  0  0  0  0  0  0
   45.9280   34.1920   43.4940 C   0  0  0  0  0  0  0  0  0  0  0  0
   46.0390   33.5120   44.6560 N   0  0  0  0  0  0  0  0  0  0  0  0
   45.4450   33.9280   45.7990 C   0  0  0  0  0  0  0  0  0  0  0  0
   44.7010   35.0640   45.8250 N   0  0  0  0  0  0  0  0  0  0  0  0
   43.9850   36.7110   44.5810 H   0  0  0  0  0  0  0  0  0  0  0  0
   45.0870   35.8990   42.5580 H   0  0  0  0  0  0  0  0  0  0  0  0
   45.5470   33.3680   46.7210 H   0  0  0  0  0  0  0  0  0  0  0  0
   48.5970   34.4080   43.4290 O   0  0  0  0  0  0  0  0  0  0  0  0
   49.3770   34.0700   43.8950 H   0  0  0  0  0  0  0  0  0  0  0  0
   48.7150   35.2650   39.8160 O   0  0  0  0  0  0  0  0  0  0  0  0
   49.3260   35.3150   39.0400 H   0  0  0  0  0  0  0  0  0  0  0  0
   49.3270   32.0590   41.0680 O   0  0  0  0  0  0  0  0  0  0  0  0
   50.5030   31.7680   40.3820 C   0  0  0  0  0  0  0  0  0  0  0  0
   51.7460   31.6620   40.9720 C   0  0  0  0  0  0  0  0  0  0  0  0
   52.8400   31.3670   40.1790 C   0  0  0  0  0  0  0  0  0  0  0  0
   53.8100   31.2840   40.6390 H   0  0  0  0  0  0  0  0  0  0  0  0
   52.7280   31.1810   38.8390 N   0  0  0  0  0  0  0  0  0  0  0  0
   51.5010   31.2930   38.2970 C   0  0  0  0  0  0  0  0  0  0  0  0
   50.4220   31.5770   39.0330 N   0  0  0  0  0  0  0  0  0  0  0  0
  1  7  1  1  0  0  0
  1 22  1  0  0  0  0
  2  8  1  6  0  0  0
  2  1  1  0  0  0  0
  2 15  1  0  0  0  0
  3  2  1  0  0  0  0
  4  3  1  0  0  0  0
  5 11  1  6  0  0  0
  5  4  1  0  0  0  0
  5  6  1  0  0  0  0
  6 12  1  1  0  0  0
  6  1  1  0  0  0  0
  9  4  1  0  0  0  0
 10  4  1  0  0  0  0
 13 18  1  0  0  0  0
 14 13  2  0  0  0  0
 15 14  1  0  0  0  0
 15 16  2  0  0  0  0
 16 17  1  0  0  0  0
 17 18  2  0  0  0  0
 17 21  1  0  0  0  0
 19 13  1  0  0  0  0
 20 14  1  0  0  0  0
 22 23  1  0  0  0  0
 24  5  1  0  0  0  0
 25 24  1  0  0  0  0
 26  6  1  0  0  0  0
 27 28  1  0  0  0  0
 27 26  1  0  0  0  0
 29 30  1  0  0  0  0
 29 28  2  0  0  0  0
 31 29  1  0  0  0  0
 32 31  2  0  0  0  0
 32 33  1  0  0  0  0
 33 27  2  0  0  0  0
M  END
>  <minimizedAffinity>
-5.71259117

>  <minimizedRMSD>
1.01322246

$$$$
