
     RDKit          3D

 32 34  0  0  0  0  0  0  0  0999 V2000
   44.4877   35.7355   44.9960 C   0  0  0  0  0  0  0  0  0  0  0  0
   45.1146   35.7110   43.7551 C   0  0  0  0  0  0  0  0  0  0  0  0
   46.0211   34.7051   43.4972 C   0  0  0  0  0  0  0  0  0  0  0  0
   46.2384   33.8026   44.4822 N   0  0  0  0  0  0  0  0  0  0  0  0
   45.6232   33.8436   45.6734 C   0  0  0  0  0  0  0  0  0  0  0  0
   44.7391   34.8062   45.9542 N   0  0  0  0  0  0  0  0  0  0  0  0
   45.9515   32.8279   46.6153 N   0  0  0  0  0  0  0  0  0  0  0  0
   45.1650   32.5571   47.8236 C   0  0  0  0  0  0  0  0  0  0  0  0
   46.2439   32.2257   48.8207 C   0  0  0  0  0  0  0  0  0  0  0  0
   47.5268   32.0592   48.0540 C   0  0  0  0  0  0  0  0  0  0  0  0
   47.0367   31.8885   46.6251 C   0  0  2  0  0  0  0  0  0  0  0  0
   44.7618   36.7496   42.8311 N   0  0  0  0  0  0  0  0  0  0  0  0
   43.7499   36.4876   45.3112 H   0  0  0  0  0  0  0  0  0  0  0  0
   46.5016   34.6960   42.5309 H   0  0  0  0  0  0  0  0  0  0  0  0
   44.5405   33.4233   48.0971 H   0  0  0  0  0  0  0  0  0  0  0  0
   44.5299   31.6867   47.5605 H   0  0  0  0  0  0  0  0  0  0  0  0
   45.9803   31.3172   49.4081 H   0  0  0  0  0  0  0  0  0  0  0  0
   46.3429   33.0806   49.5056 H   0  0  0  0  0  0  0  0  0  0  0  0
   48.1356   32.9959   48.0985 H   0  0  0  0  0  0  0  0  0  0  0  0
   48.1348   31.2249   48.4018 H   0  0  0  0  0  0  0  0  0  0  0  0
   46.6318   30.8650   46.5390 H   0  0  0  0  0  0  0  0  0  0  0  0
   44.6751   37.7068   43.1951 H   0  0  0  0  0  0  0  0  0  0  0  0
   44.5969   36.5321   41.8069 H   0  0  0  0  0  0  0  0  0  0  0  0
   48.1107   32.1622   45.6498 C   0  0  0  0  0  0  0  0  0  0  0  0
   48.6027   33.4699   45.5780 C   0  0  0  0  0  0  0  0  0  0  0  0
   49.5956   33.8411   44.7013 C   0  0  0  0  0  0  0  0  0  0  0  0
   49.9386   34.8643   44.6873 H   0  0  0  0  0  0  0  0  0  0  0  0
   50.0888   32.8630   43.8910 N   0  0  0  0  0  0  0  0  0  0  0  0
   49.6342   31.5960   43.9385 C   0  0  0  0  0  0  0  0  0  0  0  0
   48.6482   31.2669   44.8217 N   0  0  0  0  0  0  0  0  0  0  0  0
   48.1971   34.2457   46.2351 H   0  0  0  0  0  0  0  0  0  0  0  0
   50.0657   30.8649   43.2696 H   0  0  0  0  0  0  0  0  0  0  0  0
  1  6  2  0
  2  1  1  0
  3  2  2  0
  3  4  1  0
  4  5  2  0
  5  6  1  0
  5  7  1  0
  7 11  1  0
  7  8  1  0
  8  9  1  0
 10  9  1  0
 11 10  1  0
 12  2  1  0
  1 13  1  0
  3 14  1  0
  8 15  1  0
  8 16  1  0
  9 17  1  0
  9 18  1  0
 10 19  1  0
 10 20  1  0
 11 21  1  1
 12 22  1  0
 12 23  1  0
 24 25  2  0
 25 26  1  0
 26 27  1  0
 26 28  2  0
 28 29  1  0
 29 30  2  0
 30 24  1  0
 25 31  1  0
 29 32  1  0
 11 24  1  0
M  ISO  8  13  14  14  14  15  13  16  13  17  13  18  13  19  13  20  13
M  ISO  2  21  13  27  14
M  END
>  <DihAtoms>  (1) 
6,10,23,24

>  <DihDeg>  (1) 
-132.53444542355257

$$$$
