
 OpenBabel03252509123D

 29 32  0  0  0  0  0  0  0  0999 V2000
   39.3380   30.2130   41.9450 C   0  0  0  0  0  0  0  0  0  0  0  0
   38.2590   29.7040   41.2580 C   0  0  0  0  0  0  0  0  0  0  0  0
   37.4480   30.4900   40.4670 C   0  0  0  0  0  0  0  0  0  0  0  0
   37.6970   31.8530   40.3330 C   0  0  0  0  0  0  0  0  0  0  0  0
   37.1430   32.8990   39.6730 N   0  0  0  0  0  0  0  0  0  0  0  0
   37.8590   34.0240   39.9440 C   0  0  0  0  0  0  0  0  0  0  0  0
   38.8620   33.6510   40.7810 N   0  0  0  0  0  0  0  0  0  0  0  0
   38.7850   32.3360   41.0330 C   0  0  0  0  0  0  0  0  0  0  0  0
   39.6220   31.5840   41.8350 C   0  0  0  0  0  0  0  0  0  0  0  0
   39.9670   29.5780   42.5640 H   0  0  0  0  0  0  0  0  0  0  0  0
   36.2940   32.7350   39.0770 H   0  0  0  0  0  0  0  0  0  0  0  0
   37.5350   34.9330   39.4880 H   0  0  0  0  0  0  0  0  0  0  0  0
   40.4580   32.0390   42.3530 H   0  0  0  0  0  0  0  0  0  0  0  0
   37.0320   26.4910   42.5620 C   0  0  0  0  0  0  0  0  0  0  0  0
   37.3640   25.6030   41.5370 C   0  0  0  0  0  0  0  0  0  0  0  0
   38.0110   26.1100   40.3950 C   0  0  0  0  0  0  0  0  0  0  0  0
   38.2760   27.4560   40.3630 N   0  0  0  0  0  0  0  0  0  0  0  0
   37.9480   28.2890   41.3590 C   0  0  0  0  0  0  0  0  0  0  0  0
   37.3280   27.8050   42.4550 N   0  0  0  0  0  0  0  0  0  0  0  0
   36.5290   26.1250   43.4610 H   0  0  0  0  0  0  0  0  0  0  0  0
   37.1360   24.5470   41.6020 H   0  0  0  0  0  0  0  0  0  0  0  0
   38.2900   25.4640   39.5700 H   0  0  0  0  0  0  0  0  0  0  0  0
   36.3080   29.9350   39.7450 C   0  0  0  0  0  0  0  0  0  0  0  0
   35.1130   29.5320   40.3110 C   0  0  0  0  0  3  0  0  0  0  0  0
   34.1570   29.0330   39.4530 C   0  0  0  0  0  0  0  0  0  0  0  0
   33.2270   28.7190   39.8940 H   0  0  0  0  0  0  0  0  0  0  0  0
   34.3610   28.9350   38.1260 N   0  0  0  0  0  0  0  0  0  0  0  0
   35.5280   29.3320   37.5950 C   0  0  0  0  0  3  0  0  0  0  0  0
   36.5060   29.8330   38.4020 N   0  0  0  0  0  0  0  0  0  0  0  0
  1 10  1  0  0  0  0
  2 18  1  0  0  0  0
  2  1  2  0  0  0  0
  3  2  1  0  0  0  0
  4  3  2  0  0  0  0
  4  8  1  0  0  0  0
  5  6  1  0  0  0  0
  5  4  1  0  0  0  0
  6  7  2  0  0  0  0
  7  8  1  0  0  0  0
  8  9  2  0  0  0  0
  9  1  1  0  0  0  0
  9 13  1  0  0  0  0
 11  5  1  0  0  0  0
 12  6  1  0  0  0  0
 14 20  1  0  0  0  0
 15 21  1  0  0  0  0
 15 14  2  0  0  0  0
 16 15  1  0  0  0  0
 17 16  2  0  0  0  0
 17 18  1  0  0  0  0
 18 19  2  0  0  0  0
 19 14  1  0  0  0  0
 22 16  1  0  0  0  0
 23 24  1  0  0  0  0
 23  3  1  0  0  0  0
 25 26  1  0  0  0  0
 25 24  2  0  0  0  0
 27 25  1  0  0  0  0
 28 27  2  0  0  0  0
 28 29  1  0  0  0  0
 29 23  2  0  0  0  0
M  END
>  <minimizedAffinity>
-5.39056873

$$$$

 OpenBabel03252509123D

 29 32  0  0  0  0  0  0  0  0999 V2000
   37.3780   28.6800   43.0120 C   0  0  0  0  0  0  0  0  0  0  0  0
   37.6140   28.9610   41.6860 C   0  0  0  0  0  0  0  0  0  0  0  0
   37.5840   27.9890   40.7080 C   0  0  0  0  0  0  0  0  0  0  0  0
   37.3080   26.6650   41.0340 C   0  0  0  0  0  0  0  0  0  0  0  0
   37.1960   25.4870   40.3740 N   0  0  0  0  0  0  0  0  0  0  0  0
   36.8990   24.5040   41.2680 C   0  0  0  0  0  0  0  0  0  0  0  0
   36.8300   25.0990   42.4870 N   0  0  0  0  0  0  0  0  0  0  0  0
   37.0750   26.4120   42.3720 C   0  0  0  0  0  0  0  0  0  0  0  0
   37.0960   27.3550   43.3820 C   0  0  0  0  0  0  0  0  0  0  0  0
   37.4060   29.4580   43.7700 H   0  0  0  0  0  0  0  0  0  0  0  0
   37.3400   25.4680   39.3330 H   0  0  0  0  0  0  0  0  0  0  0  0
   36.7810   23.5140   40.8860 H   0  0  0  0  0  0  0  0  0  0  0  0
   36.9020   27.0760   44.4100 H   0  0  0  0  0  0  0  0  0  0  0  0
   37.2170   32.3530   40.3200 C   0  0  0  0  0  0  0  0  0  0  0  0
   38.4800   32.9100   40.5240 C   0  0  0  0  0  0  0  0  0  0  0  0
   39.4710   32.1170   41.1330 C   0  0  0  0  0  0  0  0  0  0  0  0
   39.1280   30.8380   41.4890 N   0  0  0  0  0  0  0  0  0  0  0  0
   37.9080   30.3240   41.2830 C   0  0  0  0  0  0  0  0  0  0  0  0
   36.9570   31.0820   40.7000 N   0  0  0  0  0  0  0  0  0  0  0  0
   36.4280   32.9450   39.8490 H   0  0  0  0  0  0  0  0  0  0  0  0
   38.7100   33.9250   40.2280 H   0  0  0  0  0  0  0  0  0  0  0  0
   40.4690   32.5010   41.3150 H   0  0  0  0  0  0  0  0  0  0  0  0
   37.8360   28.3040   39.3050 C   0  0  0  0  0  0  0  0  0  0  0  0
   39.0730   28.5650   38.7470 C   0  0  0  0  0  3  0  0  0  0  0  0
   39.1000   28.8400   37.3960 C   0  0  0  0  0  0  0  0  0  0  0  0
   40.0630   29.0440   36.9630 H   0  0  0  0  0  0  0  0  0  0  0  0
   37.9840   28.8590   36.6430 N   0  0  0  0  0  0  0  0  0  0  0  0
   36.7920   28.6020   37.2040 C   0  0  0  0  0  3  0  0  0  0  0  0
   36.7130   28.3230   38.5370 N   0  0  0  0  0  0  0  0  0  0  0  0
  1  9  1  0  0  0  0
  1 10  1  0  0  0  0
  2  1  2  0  0  0  0
  3  4  2  0  0  0  0
  3  2  1  0  0  0  0
  4  8  1  0  0  0  0
  5  4  1  0  0  0  0
  5  6  1  0  0  0  0
  6  7  2  0  0  0  0
  8  7  1  0  0  0  0
  8  9  2  0  0  0  0
  9 13  1  0  0  0  0
 11  5  1  0  0  0  0
 12  6  1  0  0  0  0
 14 15  2  0  0  0  0
 14 19  1  0  0  0  0
 15 16  1  0  0  0  0
 16 22  1  0  0  0  0
 16 17  2  0  0  0  0
 18 17  1  0  0  0  0
 18  2  1  0  0  0  0
 19 18  2  0  0  0  0
 20 14  1  0  0  0  0
 21 15  1  0  0  0  0
 23  3  1  0  0  0  0
 24 23  1  0  0  0  0
 25 24  2  0  0  0  0
 26 25  1  0  0  0  0
 27 28  2  0  0  0  0
 27 25  1  0  0  0  0
 28 29  1  0  0  0  0
 29 23  2  0  0  0  0
M  END
>  <minimizedAffinity>
-5.00655746

$$$$

 OpenBabel03252509123D

 29 32  0  0  0  0  0  0  0  0999 V2000
   35.8090   28.9610   40.6500 C   0  0  0  0  0  0  0  0  0  0  0  0
   36.9740   28.3050   40.9770 C   0  0  0  0  0  0  0  0  0  0  0  0
   38.1690   28.9670   41.1600 C   0  0  0  0  0  0  0  0  0  0  0  0
   38.2400   30.3500   41.0180 C   0  0  0  0  0  0  0  0  0  0  0  0
   39.1960   31.3060   41.1160 N   0  0  0  0  0  0  0  0  0  0  0  0
   38.6380   32.5190   40.8570 C   0  0  0  0  0  0  0  0  0  0  0  0
   37.3240   32.2930   40.5980 N   0  0  0  0  0  0  0  0  0  0  0  0
   37.0570   30.9820   40.6900 C   0  0  0  0  0  0  0  0  0  0  0  0
   35.8400   30.3560   40.4970 C   0  0  0  0  0  0  0  0  0  0  0  0
   34.8750   28.4220   40.5090 H   0  0  0  0  0  0  0  0  0  0  0  0
   40.1780   31.0240   41.3610 H   0  0  0  0  0  0  0  0  0  0  0  0
   39.2780   33.3730   40.8980 H   0  0  0  0  0  0  0  0  0  0  0  0
   34.9540   30.9240   40.2400 H   0  0  0  0  0  0  0  0  0  0  0  0
   36.9500   24.9740   42.5370 C   0  0  0  0  0  0  0  0  0  0  0  0
   36.9420   24.1230   41.4310 C   0  0  0  0  0  0  0  0  0  0  0  0
   36.9450   24.6950   40.1460 C   0  0  0  0  0  0  0  0  0  0  0  0
   36.9550   26.0650   40.0630 N   0  0  0  0  0  0  0  0  0  0  0  0
   36.9630   26.8620   41.1390 C   0  0  0  0  0  0  0  0  0  0  0  0
   36.9600   26.3150   42.3730 N   0  0  0  0  0  0  0  0  0  0  0  0
   36.9480   24.5570   43.5480 H   0  0  0  0  0  0  0  0  0  0  0  0
   36.9330   23.0470   41.5410 H   0  0  0  0  0  0  0  0  0  0  0  0
   36.9390   24.0800   39.2530 H   0  0  0  0  0  0  0  0  0  0  0  0
   39.3960   28.2570   41.5080 C   0  0  0  0  0  0  0  0  0  0  0  0
   40.1850   27.5360   40.6330 C   0  0  0  0  0  3  0  0  0  0  0  0
   41.3090   26.9360   41.1600 C   0  0  0  0  0  0  0  0  0  0  0  0
   41.9230   26.3750   40.4780 H   0  0  0  0  0  0  0  0  0  0  0  0
   41.6360   27.0380   42.4620 N   0  0  0  0  0  0  0  0  0  0  0  0
   40.8560   27.7440   43.2960 C   0  0  0  0  0  3  0  0  0  0  0  0
   39.7330   28.3560   42.8220 N   0  0  0  0  0  0  0  0  0  0  0  0
  1  2  1  0  0  0  0
  2 18  1  0  0  0  0
  2  3  2  0  0  0  0
  3 23  1  0  0  0  0
  4  5  1  0  0  0  0
  4  3  1  0  0  0  0
  5 11  1  0  0  0  0
  6 12  1  0  0  0  0
  6  5  1  0  0  0  0
  7  8  1  0  0  0  0
  7  6  2  0  0  0  0
  8  4  2  0  0  0  0
  9  1  2  0  0  0  0
  9  8  1  0  0  0  0
 10  1  1  0  0  0  0
 13  9  1  0  0  0  0
 14 20  1  0  0  0  0
 15 21  1  0  0  0  0
 15 14  2  0  0  0  0
 16 15  1  0  0  0  0
 17 16  2  0  0  0  0
 17 18  1  0  0  0  0
 18 19  2  0  0  0  0
 19 14  1  0  0  0  0
 22 16  1  0  0  0  0
 23 29  1  0  0  0  0
 24 25  1  0  0  0  0
 24 23  2  0  0  0  0
 25 27  2  0  0  0  0
 26 25  1  0  0  0  0
 27 28  1  0  0  0  0
 29 28  2  0  0  0  0
M  END
>  <minimizedAffinity>
-4.93984509

$$$$

 OpenBabel03252509123D

 29 32  0  0  0  0  0  0  0  0999 V2000
   36.9700   25.2890   41.3820 C   0  0  0  0  0  0  0  0  0  0  0  0
   37.3450   26.5750   41.0630 C   0  0  0  0  0  0  0  0  0  0  0  0
   38.5640   27.1020   41.4320 C   0  0  0  0  0  0  0  0  0  0  0  0
   39.4770   26.3380   42.1520 C   0  0  0  0  0  0  0  0  0  0  0  0
   40.7190   26.5070   42.6680 N   0  0  0  0  0  0  0  0  0  0  0  0
   41.1010   25.3570   43.2880 C   0  0  0  0  0  0  0  0  0  0  0  0
   40.0740   24.4800   43.1440 N   0  0  0  0  0  0  0  0  0  0  0  0
   39.0750   25.0520   42.4570 C   0  0  0  0  0  0  0  0  0  0  0  0
   37.8640   24.4860   42.1080 C   0  0  0  0  0  0  0  0  0  0  0  0
   36.0040   24.8900   41.0830 H   0  0  0  0  0  0  0  0  0  0  0  0
   41.2040   27.4300   42.5410 H   0  0  0  0  0  0  0  0  0  0  0  0
   42.0670   25.3450   43.7450 H   0  0  0  0  0  0  0  0  0  0  0  0
   37.6220   23.4670   42.3860 H   0  0  0  0  0  0  0  0  0  0  0  0
   34.9300   29.2250   40.2420 C   0  0  0  0  0  0  0  0  0  0  0  0
   34.7110   29.0210   38.8790 C   0  0  0  0  0  0  0  0  0  0  0  0
   35.3940   27.9710   38.2400 C   0  0  0  0  0  0  0  0  0  0  0  0
   36.2400   27.2080   39.0060 N   0  0  0  0  0  0  0  0  0  0  0  0
   36.4340   27.4220   40.3130 C   0  0  0  0  0  0  0  0  0  0  0  0
   35.7800   28.4290   40.9280 N   0  0  0  0  0  0  0  0  0  0  0  0
   34.4120   30.0340   40.7640 H   0  0  0  0  0  0  0  0  0  0  0  0
   34.0350   29.6470   38.3110 H   0  0  0  0  0  0  0  0  0  0  0  0
   35.2610   27.7690   37.1830 H   0  0  0  0  0  0  0  0  0  0  0  0
   38.9460   28.4680   41.0870 C   0  0  0  0  0  0  0  0  0  0  0  0
   39.2920   28.9140   39.8250 C   0  0  0  0  0  3  0  0  0  0  0  0
   39.6220   30.2480   39.7070 C   0  0  0  0  0  0  0  0  0  0  0  0
   39.8910   30.5940   38.7250 H   0  0  0  0  0  0  0  0  0  0  0  0
   39.6140   31.0870   40.7600 N   0  0  0  0  0  0  0  0  0  0  0  0
   39.2750   30.6350   41.9770 C   0  0  0  0  0  3  0  0  0  0  0  0
   38.9400   29.3230   42.1450 N   0  0  0  0  0  0  0  0  0  0  0  0
  1  9  1  0  0  0  0
  2  1  2  0  0  0  0
  2  3  1  0  0  0  0
  3  4  2  0  0  0  0
  4  8  1  0  0  0  0
  4  5  1  0  0  0  0
  5  6  1  0  0  0  0
  6 12  1  0  0  0  0
  7  6  2  0  0  0  0
  8  7  1  0  0  0  0
  9 13  1  0  0  0  0
  9  8  2  0  0  0  0
 10  1  1  0  0  0  0
 11  5  1  0  0  0  0
 14 20  1  0  0  0  0
 14 19  1  0  0  0  0
 15 14  2  0  0  0  0
 16 15  1  0  0  0  0
 16 17  2  0  0  0  0
 17 18  1  0  0  0  0
 18 19  2  0  0  0  0
 18  2  1  0  0  0  0
 21 15  1  0  0  0  0
 22 16  1  0  0  0  0
 23  3  1  0  0  0  0
 23 29  1  0  0  0  0
 24 23  2  0  0  0  0
 25 24  1  0  0  0  0
 25 27  2  0  0  0  0
 26 25  1  0  0  0  0
 27 28  1  0  0  0  0
 28 29  2  0  0  0  0
M  END
>  <minimizedAffinity>
-4.91518736

$$$$

 OpenBabel03252509123D

 29 32  0  0  0  0  0  0  0  0999 V2000
   35.8120   27.1920   38.4000 C   0  0  0  0  0  0  0  0  0  0  0  0
   36.5860   27.4810   39.5010 C   0  0  0  0  0  0  0  0  0  0  0  0
   37.1450   26.4990   40.2900 C   0  0  0  0  0  0  0  0  0  0  0  0
   36.9430   25.1540   39.9950 C   0  0  0  0  0  0  0  0  0  0  0  0
   37.3150   23.9600   40.5170 N   0  0  0  0  0  0  0  0  0  0  0  0
   36.7870   22.9610   39.7600 C   0  0  0  0  0  0  0  0  0  0  0  0
   36.0840   23.5600   38.7640 N   0  0  0  0  0  0  0  0  0  0  0  0
   36.1630   24.8930   38.8850 C   0  0  0  0  0  0  0  0  0  0  0  0
   35.5850   25.8470   38.0690 C   0  0  0  0  0  0  0  0  0  0  0  0
   35.3790   27.9800   37.7890 H   0  0  0  0  0  0  0  0  0  0  0  0
   37.9200   23.9440   41.3770 H   0  0  0  0  0  0  0  0  0  0  0  0
   36.9990   21.9570   40.0560 H   0  0  0  0  0  0  0  0  0  0  0  0
   34.9850   25.5610   37.2140 H   0  0  0  0  0  0  0  0  0  0  0  0
   36.1880   30.8130   41.0080 C   0  0  0  0  0  0  0  0  0  0  0  0
   37.3110   31.4940   40.5340 C   0  0  0  0  0  0  0  0  0  0  0  0
   38.2070   30.8060   39.6960 C   0  0  0  0  0  0  0  0  0  0  0  0
   37.9160   29.4990   39.3940 N   0  0  0  0  0  0  0  0  0  0  0  0
   36.8320   28.8670   39.8600 C   0  0  0  0  0  0  0  0  0  0  0  0
   35.9710   29.5240   40.6650 N   0  0  0  0  0  0  0  0  0  0  0  0
   35.4750   31.3230   41.6610 H   0  0  0  0  0  0  0  0  0  0  0  0
   37.5040   32.5260   40.7970 H   0  0  0  0  0  0  0  0  0  0  0  0
   39.0950   31.2880   39.3010 H   0  0  0  0  0  0  0  0  0  0  0  0
   37.9630   26.8220   41.4550 C   0  0  0  0  0  0  0  0  0  0  0  0
   37.4860   27.1870   42.6990 C   0  0  0  0  0  3  0  0  0  0  0  0
   38.4270   27.4520   43.6720 C   0  0  0  0  0  0  0  0  0  0  0  0
   38.0540   27.7370   44.6400 H   0  0  0  0  0  0  0  0  0  0  0  0
   39.7490   27.3650   43.4370 N   0  0  0  0  0  0  0  0  0  0  0  0
   40.1930   27.0080   42.2210 C   0  0  0  0  0  3  0  0  0  0  0  0
   39.3020   26.7350   41.2250 N   0  0  0  0  0  0  0  0  0  0  0  0
  1  2  1  0  0  0  0
  2 18  1  0  0  0  0
  2  3  2  0  0  0  0
  3 23  1  0  0  0  0
  4  3  1  0  0  0  0
  4  5  1  0  0  0  0
  5 11  1  0  0  0  0
  6 12  1  0  0  0  0
  6  5  1  0  0  0  0
  7  8  1  0  0  0  0
  7  6  2  0  0  0  0
  8  4  2  0  0  0  0
  9  1  2  0  0  0  0
  9  8  1  0  0  0  0
 10  1  1  0  0  0  0
 13  9  1  0  0  0  0
 14 20  1  0  0  0  0
 15 21  1  0  0  0  0
 15 14  2  0  0  0  0
 16 15  1  0  0  0  0
 17 16  2  0  0  0  0
 17 18  1  0  0  0  0
 18 19  2  0  0  0  0
 19 14  1  0  0  0  0
 22 16  1  0  0  0  0
 23 24  1  0  0  0  0
 24 25  2  0  0  0  0
 25 26  1  0  0  0  0
 27 25  1  0  0  0  0
 28 27  2  0  0  0  0
 29 23  2  0  0  0  0
 29 28  1  0  0  0  0
M  END
>  <minimizedAffinity>
-4.83080769

$$$$

 OpenBabel03252509123D

 29 32  0  0  0  0  0  0  0  0999 V2000
   37.1980   29.0060   37.5010 C   0  0  0  0  0  0  0  0  0  0  0  0
   37.3160   28.4590   38.7590 C   0  0  0  0  0  0  0  0  0  0  0  0
   37.4110   29.2330   39.8960 C   0  0  0  0  0  0  0  0  0  0  0  0
   37.3900   30.6220   39.8090 C   0  0  0  0  0  0  0  0  0  0  0  0
   37.4570   31.6670   40.6700 N   0  0  0  0  0  0  0  0  0  0  0  0
   37.3820   32.8280   39.9640 C   0  0  0  0  0  0  0  0  0  0  0  0
   37.2680   32.4780   38.6560 N   0  0  0  0  0  0  0  0  0  0  0  0
   37.2710   31.1430   38.5360 C   0  0  0  0  0  0  0  0  0  0  0  0
   37.1740   30.4030   37.3730 C   0  0  0  0  0  0  0  0  0  0  0  0
   37.1250   28.3790   36.6160 H   0  0  0  0  0  0  0  0  0  0  0  0
   37.5510   31.4770   41.6990 H   0  0  0  0  0  0  0  0  0  0  0  0
   37.4230   33.7410   40.5160 H   0  0  0  0  0  0  0  0  0  0  0  0
   37.0820   30.8880   36.4080 H   0  0  0  0  0  0  0  0  0  0  0  0
   36.2070   24.9660   39.0740 C   0  0  0  0  0  0  0  0  0  0  0  0
   37.4130   24.2770   39.2060 C   0  0  0  0  0  0  0  0  0  0  0  0
   38.6110   25.0150   39.1870 C   0  0  0  0  0  0  0  0  0  0  0  0
   38.5150   26.3750   39.0380 N   0  0  0  0  0  0  0  0  0  0  0  0
   37.3450   27.0150   38.9130 C   0  0  0  0  0  0  0  0  0  0  0  0
   36.1950   26.3100   38.9310 N   0  0  0  0  0  0  0  0  0  0  0  0
   35.2600   24.4180   39.0850 H   0  0  0  0  0  0  0  0  0  0  0  0
   37.4450   23.2020   39.3210 H   0  0  0  0  0  0  0  0  0  0  0  0
   39.5760   24.5290   39.2850 H   0  0  0  0  0  0  0  0  0  0  0  0
   37.5360   28.6370   41.2220 C   0  0  0  0  0  0  0  0  0  0  0  0
   36.5050   28.0830   41.9570 C   0  0  0  0  0  3  0  0  0  0  0  0
   36.8310   27.5690   43.1950 C   0  0  0  0  0  0  0  0  0  0  0  0
   36.0290   27.1380   43.7660 H   0  0  0  0  0  0  0  0  0  0  0  0
   38.0870   27.6000   43.6780 N   0  0  0  0  0  0  0  0  0  0  0  0
   39.0750   28.1430   42.9490 C   0  0  0  0  0  3  0  0  0  0  0  0
   38.8030   28.6640   41.7180 N   0  0  0  0  0  0  0  0  0  0  0  0
  1  2  1  0  0  0  0
  2 18  1  0  0  0  0
  2  3  2  0  0  0  0
  3 23  1  0  0  0  0
  4  3  1  0  0  0  0
  4  5  1  0  0  0  0
  5 11  1  0  0  0  0
  6 12  1  0  0  0  0
  6  5  1  0  0  0  0
  7  6  2  0  0  0  0
  8  7  1  0  0  0  0
  8  4  2  0  0  0  0
  9  1  2  0  0  0  0
  9  8  1  0  0  0  0
 10  1  1  0  0  0  0
 13  9  1  0  0  0  0
 14 20  1  0  0  0  0
 14 15  1  0  0  0  0
 15 21  1  0  0  0  0
 16 15  2  0  0  0  0
 16 22  1  0  0  0  0
 17 16  1  0  0  0  0
 18 19  1  0  0  0  0
 18 17  2  0  0  0  0
 19 14  2  0  0  0  0
 23 29  2  0  0  0  0
 23 24  1  0  0  0  0
 24 25  2  0  0  0  0
 25 27  1  0  0  0  0
 25 26  1  0  0  0  0
 28 27  2  0  0  0  0
 29 28  1  0  0  0  0
M  END
>  <minimizedAffinity>
-4.82154799

$$$$

 OpenBabel03252509123D

 29 32  0  0  0  0  0  0  0  0999 V2000
   41.2970   29.9690   43.0250 C   0  0  0  0  0  0  0  0  0  0  0  0
   40.1740   29.9790   42.2290 C   0  0  0  0  0  0  0  0  0  0  0  0
   39.9640   30.9360   41.2600 C   0  0  0  0  0  0  0  0  0  0  0  0
   40.8980   31.9460   41.0480 C   0  0  0  0  0  0  0  0  0  0  0  0
   41.0300   33.0130   40.2240 N   0  0  0  0  0  0  0  0  0  0  0  0
   42.2030   33.6460   40.5030 C   0  0  0  0  0  0  0  0  0  0  0  0
   42.7880   32.9490   41.5110 N   0  0  0  0  0  0  0  0  0  0  0  0
   42.0140   31.9110   41.8610 C   0  0  0  0  0  0  0  0  0  0  0  0
   42.2630   30.9710   42.8430 C   0  0  0  0  0  0  0  0  0  0  0  0
   41.4460   29.2060   43.7850 H   0  0  0  0  0  0  0  0  0  0  0  0
   40.2750   33.2140   39.5220 H   0  0  0  0  0  0  0  0  0  0  0  0
   42.4410   34.5120   39.9260 H   0  0  0  0  0  0  0  0  0  0  0  0
   43.1650   31.0120   43.4400 H   0  0  0  0  0  0  0  0  0  0  0  0
   37.2760   28.1300   43.5350 C   0  0  0  0  0  0  0  0  0  0  0  0
   37.2500   26.9950   42.7220 C   0  0  0  0  0  0  0  0  0  0  0  0
   38.2310   26.8660   41.7220 C   0  0  0  0  0  0  0  0  0  0  0  0
   39.1580   27.8720   41.6110 N   0  0  0  0  0  0  0  0  0  0  0  0
   39.1630   28.9510   42.4030 C   0  0  0  0  0  0  0  0  0  0  0  0
   38.2230   29.0780   43.3630 N   0  0  0  0  0  0  0  0  0  0  0  0
   36.5250   28.2560   44.3210 H   0  0  0  0  0  0  0  0  0  0  0  0
   36.5000   26.2250   42.8430 H   0  0  0  0  0  0  0  0  0  0  0  0
   38.2570   26.0050   41.0630 H   0  0  0  0  0  0  0  0  0  0  0  0
   38.7680   30.9330   40.4230 C   0  0  0  0  0  0  0  0  0  0  0  0
   37.5140   31.3710   40.8060 C   0  0  0  0  0  3  0  0  0  0  0  0
   36.5120   31.2850   39.8640 C   0  0  0  0  0  0  0  0  0  0  0  0
   35.5360   31.6250   40.1640 H   0  0  0  0  0  0  0  0  0  0  0  0
   36.7260   30.7990   38.6270 N   0  0  0  0  0  0  0  0  0  0  0  0
   37.9510   30.3790   38.2740 C   0  0  0  0  0  3  0  0  0  0  0  0
   38.9770   30.4440   39.1700 N   0  0  0  0  0  0  0  0  0  0  0  0
  1 10  1  0  0  0  0
  2 18  1  0  0  0  0
  2  1  2  0  0  0  0
  3  2  1  0  0  0  0
  4  3  2  0  0  0  0
  4  8  1  0  0  0  0
  5  6  1  0  0  0  0
  5  4  1  0  0  0  0
  6  7  2  0  0  0  0
  7  8  1  0  0  0  0
  8  9  2  0  0  0  0
  9  1  1  0  0  0  0
  9 13  1  0  0  0  0
 11  5  1  0  0  0  0
 12  6  1  0  0  0  0
 14 20  1  0  0  0  0
 15 21  1  0  0  0  0
 15 14  2  0  0  0  0
 16 15  1  0  0  0  0
 17 16  2  0  0  0  0
 17 18  1  0  0  0  0
 18 19  2  0  0  0  0
 19 14  1  0  0  0  0
 22 16  1  0  0  0  0
 23 24  1  0  0  0  0
 23  3  1  0  0  0  0
 25 26  1  0  0  0  0
 25 24  2  0  0  0  0
 27 25  1  0  0  0  0
 28 27  2  0  0  0  0
 28 29  1  0  0  0  0
 29 23  2  0  0  0  0
M  END
>  <minimizedAffinity>
-4.77443027

$$$$

 OpenBabel03252509123D

 29 32  0  0  0  0  0  0  0  0999 V2000
   41.4880   31.2310   42.0310 C   0  0  0  0  0  0  0  0  0  0  0  0
   40.3820   30.7870   41.3420 C   0  0  0  0  0  0  0  0  0  0  0  0
   39.9660   31.3640   40.1610 C   0  0  0  0  0  0  0  0  0  0  0  0
   40.6650   32.4360   39.6130 C   0  0  0  0  0  0  0  0  0  0  0  0
   40.5610   33.2260   38.5160 N   0  0  0  0  0  0  0  0  0  0  0  0
   41.5770   34.1320   38.5270 C   0  0  0  0  0  0  0  0  0  0  0  0
   42.3040   33.8850   39.6470 N   0  0  0  0  0  0  0  0  0  0  0  0
   41.7700   32.8590   40.3240 C   0  0  0  0  0  0  0  0  0  0  0  0
   42.2190   32.3100   41.5100 C   0  0  0  0  0  0  0  0  0  0  0  0
   41.8020   30.7640   42.9610 H   0  0  0  0  0  0  0  0  0  0  0  0
   39.7750   33.0610   37.8400 H   0  0  0  0  0  0  0  0  0  0  0  0
   41.6220   34.8260   37.7160 H   0  0  0  0  0  0  0  0  0  0  0  0
   43.0980   32.7000   42.0090 H   0  0  0  0  0  0  0  0  0  0  0  0
   39.0820   27.3840   41.8490 C   0  0  0  0  0  0  0  0  0  0  0  0
   38.1430   27.5680   42.8650 C   0  0  0  0  0  0  0  0  0  0  0  0
   37.9570   28.8650   43.3780 C   0  0  0  0  0  0  0  0  0  0  0  0
   38.7160   29.8730   42.8410 N   0  0  0  0  0  0  0  0  0  0  0  0
   39.6110   29.6730   41.8650 C   0  0  0  0  0  0  0  0  0  0  0  0
   39.7920   28.4300   41.3720 N   0  0  0  0  0  0  0  0  0  0  0  0
   39.2470   26.3870   41.4310 H   0  0  0  0  0  0  0  0  0  0  0  0
   37.5640   26.7440   43.2620 H   0  0  0  0  0  0  0  0  0  0  0  0
   37.2410   29.0630   44.1690 H   0  0  0  0  0  0  0  0  0  0  0  0
   38.7900   30.8820   39.4430 C   0  0  0  0  0  0  0  0  0  0  0  0
   37.4760   31.1340   39.7870 C   0  0  0  0  0  3  0  0  0  0  0  0
   36.5060   30.5860   38.9750 C   0  0  0  0  0  0  0  0  0  0  0  0
   35.4830   30.7830   39.2430 H   0  0  0  0  0  0  0  0  0  0  0  0
   36.8070   29.8390   37.8960 N   0  0  0  0  0  0  0  0  0  0  0  0
   38.0900   29.6060   37.5790 C   0  0  0  0  0  3  0  0  0  0  0  0
   39.0870   30.1260   38.3510 N   0  0  0  0  0  0  0  0  0  0  0  0
  1 10  1  0  0  0  0
  2 18  1  0  0  0  0
  2  1  2  0  0  0  0
  3  2  1  0  0  0  0
  4  3  2  0  0  0  0
  4  8  1  0  0  0  0
  5  6  1  0  0  0  0
  5  4  1  0  0  0  0
  6  7  2  0  0  0  0
  7  8  1  0  0  0  0
  8  9  2  0  0  0  0
  9 13  1  0  0  0  0
  9  1  1  0  0  0  0
 11  5  1  0  0  0  0
 12  6  1  0  0  0  0
 14 15  1  0  0  0  0
 15 21  1  0  0  0  0
 15 16  2  0  0  0  0
 16 22  1  0  0  0  0
 17 16  1  0  0  0  0
 18 17  2  0  0  0  0
 19 14  2  0  0  0  0
 19 18  1  0  0  0  0
 20 14  1  0  0  0  0
 23 24  1  0  0  0  0
 23  3  1  0  0  0  0
 25 26  1  0  0  0  0
 25 24  2  0  0  0  0
 27 25  1  0  0  0  0
 28 27  2  0  0  0  0
 28 29  1  0  0  0  0
 29 23  2  0  0  0  0
M  END
>  <minimizedAffinity>
-4.74180794

$$$$

 OpenBabel03252509123D

 29 32  0  0  0  0  0  0  0  0999 V2000
   35.5000   28.9800   39.6190 C   0  0  0  0  0  0  0  0  0  0  0  0
   36.2310   27.8900   40.0340 C   0  0  0  0  0  0  0  0  0  0  0  0
   36.2780   26.7140   39.3160 C   0  0  0  0  0  0  0  0  0  0  0  0
   35.5740   26.5860   38.1220 C   0  0  0  0  0  0  0  0  0  0  0  0
   35.3870   25.6280   37.1820 N   0  0  0  0  0  0  0  0  0  0  0  0
   34.5640   26.1120   36.2130 C   0  0  0  0  0  0  0  0  0  0  0  0
   34.2480   27.3830   36.5730 N   0  0  0  0  0  0  0  0  0  0  0  0
   34.8500   27.6950   37.7300 C   0  0  0  0  0  0  0  0  0  0  0  0
   34.7760   28.8900   38.4200 C   0  0  0  0  0  0  0  0  0  0  0  0
   35.4750   29.8990   40.1990 H   0  0  0  0  0  0  0  0  0  0  0  0
   35.8610   24.6970   37.3000 H   0  0  0  0  0  0  0  0  0  0  0  0
   34.3270   25.4600   35.4010 H   0  0  0  0  0  0  0  0  0  0  0  0
   34.1830   29.7160   38.0450 H   0  0  0  0  0  0  0  0  0  0  0  0
   39.0180   28.3240   42.3950 C   0  0  0  0  0  0  0  0  0  0  0  0
   38.4070   28.0970   43.6290 C   0  0  0  0  0  0  0  0  0  0  0  0
   37.0320   27.7940   43.6490 C   0  0  0  0  0  0  0  0  0  0  0  0
   36.3780   27.7410   42.4450 N   0  0  0  0  0  0  0  0  0  0  0  0
   36.9860   27.9630   41.2720 C   0  0  0  0  0  0  0  0  0  0  0  0
   38.3030   28.2530   41.2500 N   0  0  0  0  0  0  0  0  0  0  0  0
   40.0850   28.5610   42.3490 H   0  0  0  0  0  0  0  0  0  0  0  0
   38.9600   28.1490   44.5570 H   0  0  0  0  0  0  0  0  0  0  0  0
   36.5080   27.6100   44.5810 H   0  0  0  0  0  0  0  0  0  0  0  0
   37.0580   25.5670   39.7690 C   0  0  0  0  0  0  0  0  0  0  0  0
   36.6790   24.6710   40.7510 C   0  0  0  0  0  3  0  0  0  0  0  0
   37.5610   23.6500   41.0340 C   0  0  0  0  0  0  0  0  0  0  0  0
   37.2650   22.9540   41.7980 H   0  0  0  0  0  0  0  0  0  0  0  0
   38.7390   23.5190   40.3950 N   0  0  0  0  0  0  0  0  0  0  0  0
   39.0890   24.3990   39.4440 C   0  0  0  0  0  3  0  0  0  0  0  0
   38.2500   25.4270   39.1270 N   0  0  0  0  0  0  0  0  0  0  0  0
  1  2  1  0  0  0  0
  1 10  1  0  0  0  0
  2 18  1  0  0  0  0
  3 23  1  0  0  0  0
  3  2  2  0  0  0  0
  4  3  1  0  0  0  0
  5 11  1  0  0  0  0
  5  4  1  0  0  0  0
  6  7  2  0  0  0  0
  6  5  1  0  0  0  0
  7  8  1  0  0  0  0
  8  4  2  0  0  0  0
  8  9  1  0  0  0  0
  9  1  2  0  0  0  0
 12  6  1  0  0  0  0
 13  9  1  0  0  0  0
 14 15  1  0  0  0  0
 15 16  2  0  0  0  0
 15 21  1  0  0  0  0
 16 22  1  0  0  0  0
 17 16  1  0  0  0  0
 18 17  2  0  0  0  0
 19 18  1  0  0  0  0
 19 14  2  0  0  0  0
 20 14  1  0  0  0  0
 23 24  1  0  0  0  0
 24 25  2  0  0  0  0
 25 26  1  0  0  0  0
 27 25  1  0  0  0  0
 28 27  2  0  0  0  0
 29 28  1  0  0  0  0
 29 23  2  0  0  0  0
M  END
>  <minimizedAffinity>
-4.71588039

$$$$
