
 OpenBabel03252507583D

 25 27  0  0  1  0  0  0  0  0999 V2000
   46.5980   32.3930   45.9950 C   0  0  1  0  0  0  0  0  0  0  0  0
   46.9580   32.6320   47.4200 C   0  0  0  0  0  0  0  0  0  0  0  0
   45.6250   32.0650   47.0860 C   0  0  2  0  0  0  0  0  0  0  0  0
   47.1960   31.6600   45.4490 H   0  0  0  0  0  0  0  0  0  0  0  0
   46.9560   33.6960   47.7580 H   0  0  0  0  0  0  0  0  0  0  0  0
   47.7650   32.0290   47.8310 H   0  0  0  0  0  0  0  0  0  0  0  0
   44.7330   32.6810   47.2310 H   0  0  0  0  0  0  0  0  0  0  0  0
   46.3740   34.7350   43.1820 C   0  0  0  0  0  0  0  0  0  0  0  0
   45.3580   35.6340   43.5770 C   0  0  0  0  0  0  0  0  0  0  0  0
   44.7480   35.4160   44.8250 C   0  0  0  0  0  0  0  0  0  0  0  0
   45.1700   34.3630   45.5730 N   0  0  0  0  0  0  0  0  0  0  0  0
   46.1580   33.5330   45.1290 C   0  0  0  0  0  0  0  0  0  0  0  0
   46.7640   33.6980   43.9550 N   0  0  0  0  0  0  0  0  0  0  0  0
   45.0360   36.4530   42.9850 H   0  0  0  0  0  0  0  0  0  0  0  0
   43.9680   36.0670   45.1820 H   0  0  0  0  0  0  0  0  0  0  0  0
   46.9520   35.0220   41.9050 C   0  0  0  0  0  0  0  0  0  0  0  0
   48.1340   35.4350   41.7070 O   0  0  0  0  0  0  0  0  0  0  0  0
   46.2250   34.8340   41.1110 H   0  0  0  0  0  0  0  0  0  0  0  0
   45.3970   30.5890   47.2410 C   0  0  0  0  0  0  0  0  0  0  0  0
   45.3470   29.7530   46.1340 C   0  0  0  0  0  3  0  0  0  0  0  0
   45.1330   28.4130   46.3770 C   0  0  0  0  0  0  0  0  0  0  0  0
   45.0960   27.7650   45.5070 H   0  0  0  0  0  0  0  0  0  0  0  0
   44.9740   27.8770   47.6000 N   0  0  0  0  0  0  0  0  0  0  0  0
   45.0280   28.7180   48.6500 C   0  0  0  0  0  3  0  0  0  0  0  0
   45.2350   30.0330   48.4580 N   0  0  0  0  0  0  0  0  0  0  0  0
  1  4  1  6  0  0  0
  1  3  1  0  0  0  0
  1  2  1  0  0  0  0
  2  5  1  0  0  0  0
  2  6  1  0  0  0  0
  3  7  1  1  0  0  0
  3 19  1  0  0  0  0
  3  2  1  0  0  0  0
  8  9  2  0  0  0  0
  8 13  1  0  0  0  0
  9 10  1  0  0  0  0
 10 15  1  0  0  0  0
 10 11  2  0  0  0  0
 12 11  1  0  0  0  0
 12  1  1  0  0  0  0
 13 12  2  0  0  0  0
 14  9  1  0  0  0  0
 16  8  1  0  0  0  0
 17 16  2  0  0  0  0
 18 16  1  0  0  0  0
 19 25  1  0  0  0  0
 20 21  1  0  0  0  0
 20 19  2  0  0  0  0
 21 23  2  0  0  0  0
 22 21  1  0  0  0  0
 23 24  1  0  0  0  0
 25 24  2  0  0  0  0
M  END
>  <minimizedAffinity>
-4.36943054

>  <minimizedRMSD>
1.13866162

$$$$
