
 OpenBabel03252503503D

 19 20  0  0  0  0  0  0  0  0999 V2000
   47.5830   34.9600   42.3180 C   0  0  0  0  0  0  0  0  0  0  0  0
   47.8030   33.9860   43.3110 C   0  0  0  0  0  0  0  0  0  0  0  0
   46.7520   33.6690   44.1730 C   0  0  0  0  0  0  0  0  0  0  0  0
   45.5760   34.3080   44.0160 N   0  0  0  0  0  0  0  0  0  0  0  0
   45.3760   35.2440   43.0550 C   0  0  0  0  0  0  0  0  0  0  0  0
   46.3820   35.5640   42.2120 N   0  0  0  0  0  0  0  0  0  0  0  0
   48.7360   33.4570   43.4600 H   0  0  0  0  0  0  0  0  0  0  0  0
   44.4370   35.7700   42.9130 H   0  0  0  0  0  0  0  0  0  0  0  0
   46.9300   32.6820   45.2010 C   0  0  0  0  0  0  0  0  0  0  0  0
   47.3190   31.4020   44.8640 C   0  0  0  0  0  3  0  0  0  0  0  0
   47.4820   30.4690   45.8910 C   0  0  0  0  0  0  0  0  0  0  0  0
   47.7900   29.4310   45.7060 H   0  0  0  0  0  0  0  0  0  0  0  0
   47.2640   30.8070   47.1950 N   0  0  0  0  0  0  0  0  0  0  0  0
   46.8880   32.0620   47.4690 C   0  0  0  0  0  3  0  0  0  0  0  0
   46.7240   32.9800   46.4920 N   0  0  0  0  0  0  0  0  0  0  0  0
   48.7270   35.2790   41.4090 C   0  0  0  0  0  0  0  0  0  0  0  0
   48.3720   35.1920   40.0920 F   0  0  0  0  0  0  0  0  0  0  0  0
   49.1840   36.5520   41.7490 F   0  0  0  0  0  0  0  0  0  0  0  0
   49.7930   34.4090   41.7030 F   0  0  0  0  0  0  0  0  0  0  0  0
  1  2  1  0  0  0  0
  2  7  1  0  0  0  0
  2  3  2  0  0  0  0
  3  9  1  0  0  0  0
  4  3  1  0  0  0  0
  5  4  2  0  0  0  0
  6  1  2  0  0  0  0
  6  5  1  0  0  0  0
  8  5  1  0  0  0  0
  9 15  1  0  0  0  0
 10  9  2  0  0  0  0
 10 11  1  0  0  0  0
 11 13  2  0  0  0  0
 12 11  1  0  0  0  0
 13 14  1  0  0  0  0
 15 14  2  0  0  0  0
 16 19  1  0  0  0  0
 16 18  1  0  0  0  0
 16  1  1  0  0  0  0
 17 16  1  0  0  0  0
M  END
>  <minimizedAffinity>
-4.97943783

>  <minimizedRMSD>
0.842080116

$$$$
