REMARK  Name = 
REMARK  3 active torsions:
REMARK  status: ('A' for Active; 'I' for Inactive)
REMARK    1  A    between atoms: C_1  and  C_7
REMARK    2  A    between atoms: C_7  and  C_8
REMARK    3  A    between atoms: C_8  and  C_16
REMARK                            x       y       z     vdW  Elec       q    Type
REMARK                         _______ _______ _______ _____ _____    ______ ____
ROOT
ATOM      1  C   UNL     1      48.578  33.657  42.943  0.00  0.00    +0.000 C 
ATOM      2  H   UNL     1      48.396  32.972  42.065  0.00  0.00    +0.000 HD
ATOM      3  H   UNL     1      49.089  33.152  43.757  0.00  0.00    +0.000 HD
ENDROOT
BRANCH   1   4
ATOM      4  C   UNL     1      47.281  34.226  43.292  0.00  0.00    +0.000 A 
ATOM      5  C   UNL     1      46.637  35.213  42.563  0.00  0.00    +0.000 A 
ATOM      6  C   UNL     1      45.371  35.641  43.044  0.00  0.00    +0.000 A 
ATOM      7  N   UNL     1      44.876  35.058  44.180  0.00  0.00    +0.000 NA
ATOM      8  C   UNL     1      45.554  34.106  44.837  0.00  0.00    +0.000 A 
ATOM      9  N   UNL     1      46.744  33.705  44.385  0.00  0.00    +0.000 NA
ATOM     10  H   UNL     1      47.101  35.604  41.696  0.00  0.00    +0.000 HD
ATOM     11  H   UNL     1      44.850  36.415  42.485  0.00  0.00    +0.000 HD
ATOM     12  H   UNL     1      45.071  33.710  45.728  0.00  0.00    +0.000 HD
ENDBRANCH   1   4
BRANCH   1  13
ATOM     13  C   UNL     1      49.492  34.791  42.518  0.00  0.00    +0.000 C 
ATOM     14  H   UNL     1      49.123  35.287  41.597  0.00  0.00    +0.000 HD
ATOM     15  H   UNL     1      49.573  35.569  43.299  0.00  0.00    +0.000 HD
BRANCH  13  16
ATOM     16  C   UNL     1      50.808  34.195  42.167  0.00  0.00    +0.000 A 
ATOM     17  C   UNL     1      51.368  34.313  40.910  0.00  0.00    +0.000 A 
ATOM     18  C   UNL     1      52.587  33.752  40.610  0.00  0.00    +0.000 A 
ATOM     19  H   UNL     1      53.008  33.861  39.603  0.00  0.00    +0.000 HD
ATOM     20  N   UNL     1      53.283  33.066  41.531  0.00  0.00    +0.000 NA
ATOM     21  C   UNL     1      52.744  32.949  42.750  0.00  0.00    +0.000 A 
ATOM     22  N   UNL     1      51.538  33.495  43.071  0.00  0.00    +0.000 NA
ENDBRANCH  13  16
ENDBRANCH   1  13
TORSDOF 3
