
 OpenBabel03242521283D

 33 35  0  0  1  0  0  0  0  0999 V2000
   47.9530   33.3490   42.5660 C   0  0  1  0  0  0  0  0  0  0  0  0
   46.5210   33.7290   42.2710 C   0  0  2  0  0  0  0  0  0  0  0  0
   46.4340   34.6790   41.2740 O   0  0  0  0  0  0  0  0  0  0  0  0
   46.7860   34.0410   40.0950 C   0  0  0  0  0  0  0  0  0  0  0  0
   48.2760   33.8120   40.1110 C   0  0  2  0  0  0  0  0  0  0  0  0
   48.7950   33.1740   41.3500 C   0  0  2  0  0  0  0  0  0  0  0  0
   47.8920   32.3510   43.0950 H   0  0  0  0  0  0  0  0  0  0  0  0
   46.0270   32.7950   41.9260 H   0  0  0  0  0  0  0  0  0  0  0  0
   46.3050   33.0340   40.0140 H   0  0  0  0  0  0  0  0  0  0  0  0
   46.5690   34.6630   39.1940 H   0  0  0  0  0  0  0  0  0  0  0  0
   48.5410   33.1980   39.2230 H   0  0  0  0  0  0  0  0  0  0  0  0
   49.7870   33.6590   41.5720 H   0  0  0  0  0  0  0  0  0  0  0  0
   44.5180   35.8990   44.6470 C   0  0  0  0  0  0  0  0  0  0  0  0
   45.1190   35.4440   43.4640 C   0  0  0  0  0  0  0  0  0  0  0  0
   45.8630   34.2300   43.4870 C   0  0  0  0  0  0  0  0  0  0  0  0
   45.9470   33.5760   44.6660 N   0  0  0  0  0  0  0  0  0  0  0  0
   45.3560   34.0370   45.7940 C   0  0  0  0  0  0  0  0  0  0  0  0
   44.6450   35.1930   45.7860 N   0  0  0  0  0  0  0  0  0  0  0  0
   43.9840   36.8290   44.4960 H   0  0  0  0  0  0  0  0  0  0  0  0
   45.0770   35.9350   42.5020 H   0  0  0  0  0  0  0  0  0  0  0  0
   45.4360   33.4980   46.7300 H   0  0  0  0  0  0  0  0  0  0  0  0
   48.5410   34.2060   43.5060 O   0  0  0  0  0  0  0  0  0  0  0  0
   49.2730   33.7950   43.9930 H   0  0  0  0  0  0  0  0  0  0  0  0
   48.8490   35.0730   39.9070 O   0  0  0  0  0  0  0  0  0  0  0  0
   49.4870   35.0720   39.1500 H   0  0  0  0  0  0  0  0  0  0  0  0
   49.1320   31.8160   41.1470 O   0  0  0  0  0  0  0  0  0  0  0  0
   50.4510   31.3810   41.0440 C   0  0  0  0  0  0  0  0  0  0  0  0
   51.2890   31.6710   39.9870 C   0  0  0  0  0  3  0  0  0  0  0  0
   52.5810   31.1780   40.0040 C   0  0  0  0  0  0  0  0  0  0  0  0
   53.2350   31.4030   39.1800 H   0  0  0  0  0  0  0  0  0  0  0  0
   53.0490   30.4190   41.0280 N   0  0  0  0  0  0  0  0  0  0  0  0
   52.2040   30.1570   42.0420 C   0  0  0  0  0  3  0  0  0  0  0  0
   50.9490   30.6160   42.0600 N   0  0  0  0  0  0  0  0  0  0  0  0
  1  7  1  1  0  0  0
  1 22  1  0  0  0  0
  2  8  1  6  0  0  0
  2  1  1  0  0  0  0
  2 15  1  0  0  0  0
  3  2  1  0  0  0  0
  4  5  1  0  0  0  0
  4  3  1  0  0  0  0
  5 11  1  6  0  0  0
  5  6  1  0  0  0  0
  6 12  1  1  0  0  0
  6  1  1  0  0  0  0
  9  4  1  0  0  0  0
 10  4  1  0  0  0  0
 13 18  1  0  0  0  0
 14 15  1  0  0  0  0
 14 13  2  0  0  0  0
 15 16  2  0  0  0  0
 16 17  1  0  0  0  0
 17 21  1  0  0  0  0
 18 17  2  0  0  0  0
 19 13  1  0  0  0  0
 20 14  1  0  0  0  0
 22 23  1  0  0  0  0
 24  5  1  0  0  0  0
 25 24  1  0  0  0  0
 26  6  1  0  0  0  0
 27 26  1  0  0  0  0
 27 33  1  0  0  0  0
 28 29  1  0  0  0  0
 28 27  2  0  0  0  0
 29 31  2  0  0  0  0
 30 29  1  0  0  0  0
 31 32  1  0  0  0  0
 32 33  2  0  0  0  0
M  END
>  <minimizedAffinity>
-5.31246233

>  <minimizedRMSD>
0.546058297

$$$$
