
 OpenBabel03252507003D

 35 37  0  0  0  0  0  0  0  0999 V2000
   46.6990   32.7780   38.8850 N   0  0  0  0  0  0  0  0  0  0  0  0
   46.8310   31.6970   37.9890 C   0  0  0  0  0  0  0  0  0  0  0  0
   46.8700   32.4260   36.6390 C   0  0  0  0  0  0  0  0  0  0  0  0
   47.9160   33.4670   36.5210 C   0  0  0  0  0  0  0  0  0  0  0  0
   48.5650   33.9240   37.7640 C   0  0  0  0  0  0  0  0  0  0  0  0
   47.9110   33.5680   39.0490 C   0  0  0  0  0  0  0  0  0  0  0  0
   47.7720   31.1650   38.0880 H   0  0  0  0  0  0  0  0  0  0  0  0
   46.0480   30.9590   37.9000 H   0  0  0  0  0  0  0  0  0  0  0  0
   47.0440   31.6140   35.9000 H   0  0  0  0  0  0  0  0  0  0  0  0
   45.8280   32.7760   36.4590 H   0  0  0  0  0  0  0  0  0  0  0  0
   47.4360   34.3650   36.0650 H   0  0  0  0  0  0  0  0  0  0  0  0
   48.7530   33.1920   35.8400 H   0  0  0  0  0  0  0  0  0  0  0  0
   49.4490   34.4930   37.7830 H   0  0  0  0  0  0  0  0  0  0  0  0
   48.4940   34.0850   40.2630 C   0  0  0  0  0  0  0  0  0  0  0  0
   48.5270   35.3910   40.6800 C   0  0  0  0  0  0  0  0  0  0  0  0
   49.1320   35.8000   41.8320 C   0  0  0  0  0  0  0  0  0  0  0  0
   49.0710   36.8600   42.0180 H   0  0  0  0  0  0  0  0  0  0  0  0
   49.7250   34.8810   42.6000 N   0  0  0  0  0  0  0  0  0  0  0  0
   49.6920   33.5810   42.1870 C   0  0  0  0  0  0  0  0  0  0  0  0
   49.0920   33.1960   41.0500 N   0  0  0  0  0  0  0  0  0  0  0  0
   45.5560   33.2820   39.4200 C   0  0  0  0  0  0  0  0  0  0  0  0
   44.5920   33.0460   38.8360 H   0  0  0  0  0  0  0  0  0  0  0  0
   45.4470   34.3670   39.5820 H   0  0  0  0  0  0  0  0  0  0  0  0
   45.2800   32.6350   40.7580 C   0  0  0  0  0  0  0  0  0  0  0  0
   45.7920   31.7210   40.9860 H   0  0  0  0  0  0  0  0  0  0  0  0
   44.1900   32.3260   40.7130 H   0  0  0  0  0  0  0  0  0  0  0  0
   45.2750   33.6890   41.7800 C   0  0  0  0  0  0  0  0  0  0  0  0
   44.5170   34.8250   41.6460 C   0  0  0  0  0  0  0  0  0  0  0  0
   44.5380   35.8060   42.6440 C   0  0  0  0  0  0  0  0  0  0  0  0
   45.3370   35.5610   43.7200 N   0  0  0  0  0  0  0  0  0  0  0  0
   46.0590   34.4440   43.8150 C   0  0  0  0  0  0  0  0  0  0  0  0
   46.0190   33.5340   42.8550 N   0  0  0  0  0  0  0  0  0  0  0  0
   43.9120   34.9480   40.7700 H   0  0  0  0  0  0  0  0  0  0  0  0
   43.9360   36.6880   42.5170 H   0  0  0  0  0  0  0  0  0  0  0  0
   46.6830   34.2820   44.6830 H   0  0  0  0  0  0  0  0  0  0  0  0
  1  6  1  0  0  0  0
  1 21  1  0  0  0  0
  2  7  1  0  0  0  0
  2  1  1  0  0  0  0
  3  2  1  0  0  0  0
  4  3  1  0  0  0  0
  4  5  1  0  0  0  0
  5 13  1  0  0  0  0
  5  6  2  0  0  0  0
  6 14  1  0  0  0  0
  8  2  1  0  0  0  0
  9  3  1  0  0  0  0
 10  3  1  0  0  0  0
 11  4  1  0  0  0  0
 12  4  1  0  0  0  0
 14 15  2  0  0  0  0
 14 20  1  0  0  0  0
 15 16  1  0  0  0  0
 16 17  1  0  0  0  0
 16 18  2  0  0  0  0
 19 18  1  0  0  0  0
 20 19  2  0  0  0  0
 21 23  1  0  0  0  0
 21 24  1  0  0  0  0
 22 21  1  0  0  0  0
 24 25  1  0  0  0  0
 24 27  1  0  0  0  0
 26 24  1  0  0  0  0
 27 32  1  0  0  0  0
 28 27  2  0  0  0  0
 28 29  1  0  0  0  0
 29 30  2  0  0  0  0
 30 31  1  0  0  0  0
 31 35  1  0  0  0  0
 32 31  2  0  0  0  0
 33 28  1  0  0  0  0
 34 29  1  0  0  0  0
M  END
>  <minimizedAffinity>
-4.44506788

>  <minimizedRMSD>
3.73770809

$$$$
