
 OpenBabel03252509213D

 23 25  0  0  0  0  0  0  0  0999 V2000
   45.1330   33.9860   45.0730 C   0  0  0  0  0  0  0  0  0  0  0  0
   45.4550   33.6380   43.7330 C   0  0  0  0  0  0  0  0  0  0  0  0
   46.5860   32.8630   43.5920 C   0  0  0  0  0  0  0  0  0  0  0  0
   47.3020   32.4940   44.7150 N   0  0  0  0  0  0  0  0  0  0  0  0
   46.9580   32.8470   45.9560 C   0  0  0  0  0  0  0  0  0  0  0  0
   45.8600   33.6010   46.1160 N   0  0  0  0  0  0  0  0  0  0  0  0
   44.3010   34.5800   45.3990 H   0  0  0  0  0  0  0  0  0  0  0  0
   47.6760   32.4330   46.6510 H   0  0  0  0  0  0  0  0  0  0  0  0
   46.9630   32.3360   42.2310 C   0  0  0  0  0  0  0  0  0  0  0  0
   48.0210   33.2350   41.5770 C   0  0  0  0  0  0  0  0  0  0  0  0
   48.2920   31.7780   42.0620 C   0  0  0  0  0  0  0  0  0  0  0  0
   46.1140   32.2910   41.5110 H   0  0  0  0  0  0  0  0  0  0  0  0
   48.5620   33.9730   42.1790 H   0  0  0  0  0  0  0  0  0  0  0  0
   48.0630   33.3310   40.4970 H   0  0  0  0  0  0  0  0  0  0  0  0
   48.9590   31.6300   42.9100 H   0  0  0  0  0  0  0  0  0  0  0  0
   48.3940   31.0010   41.2550 H   0  0  0  0  0  0  0  0  0  0  0  0
   44.6030   34.1190   42.6620 C   0  0  0  0  0  0  0  0  0  0  0  0
   43.7580   33.2280   42.0470 C   0  0  0  0  0  3  0  0  0  0  0  0
   42.9030   33.5370   41.0140 C   0  0  0  0  0  0  0  0  0  0  0  0
   42.2240   32.8860   40.4980 H   0  0  0  0  0  0  0  0  0  0  0  0
   42.8710   34.8170   40.5440 N   0  0  0  0  0  0  0  0  0  0  0  0
   43.7020   35.6810   41.1510 C   0  0  0  0  0  3  0  0  0  0  0  0
   44.5020   35.3320   42.1390 N   0  0  0  0  0  0  0  0  0  0  0  0
  1  7  1  0  0  0  0
  1  6  1  0  0  0  0
  2  1  2  0  0  0  0
  3  2  1  0  0  0  0
  3  4  2  0  0  0  0
  4  5  1  0  0  0  0
  5  6  2  0  0  0  0
  5  8  1  0  0  0  0
  9  3  1  0  0  0  0
 10 11  1  0  0  0  0
 10 13  1  0  0  0  0
 10  9  1  0  0  0  0
 11  9  1  0  0  0  0
 11 15  1  0  0  0  0
 12  9  1  0  0  0  0
 14 10  1  0  0  0  0
 16 11  1  0  0  0  0
 17  2  1  0  0  0  0
 18 17  2  0  0  0  0
 19 18  1  0  0  0  0
 20 19  1  0  0  0  0
 21 19  2  0  0  0  0
 21 22  1  0  0  0  0
 22 23  2  0  0  0  0
 23 17  1  0  0  0  0
M  END
>  <minimizedAffinity>
-3.18128109

>  <minimizedRMSD>
2.84492779

$$$$
