
 OpenBabel03252506353D

 31 33  0  0  1  0  0  0  0  0999 V2000
   38.9330   32.0230   39.0500 C   0  0  0  0  0  0  0  0  0  0  0  0
   39.4860   31.3960   37.9300 C   0  0  0  0  0  0  0  0  0  0  0  0
   39.5820   30.0220   37.9000 C   0  0  0  0  0  0  0  0  0  0  0  0
   39.1200   29.3640   38.9920 N   0  0  0  0  0  0  0  0  0  0  0  0
   38.5970   29.9630   40.0520 C   0  0  0  0  0  0  0  0  0  0  0  0
   38.4910   31.2950   40.1080 N   0  0  0  0  0  0  0  0  0  0  0  0
   38.1530   29.1650   41.1320 N   0  0  0  0  0  0  0  0  0  0  0  0
   37.2970   29.6200   42.2260 C   0  0  0  0  0  0  0  0  0  0  0  0
   37.8980   28.9040   43.4210 C   0  0  0  0  0  0  0  0  0  0  0  0
   38.8310   27.8520   42.8670 C   0  0  0  0  0  0  0  0  0  0  0  0
   38.4100   27.7840   41.4240 C   0  0  1  0  0  0  0  0  0  0  0  0
   38.8190   33.0940   39.1580 H   0  0  0  0  0  0  0  0  0  0  0  0
   40.0080   29.5790   37.0330 H   0  0  0  0  0  0  0  0  0  0  0  0
   36.2730   29.2610   41.9990 H   0  0  0  0  0  0  0  0  0  0  0  0
   37.3630   30.7170   42.3330 H   0  0  0  0  0  0  0  0  0  0  0  0
   37.0710   28.3560   43.9260 H   0  0  0  0  0  0  0  0  0  0  0  0
   38.4230   29.5780   44.1100 H   0  0  0  0  0  0  0  0  0  0  0  0
   38.7370   26.8710   43.3800 H   0  0  0  0  0  0  0  0  0  0  0  0
   39.8500   28.2520   42.8860 H   0  0  0  0  0  0  0  0  0  0  0  0
   39.2300   27.3880   40.7700 H   0  0  0  0  0  0  0  0  0  0  0  0
   39.9150   32.2860   36.8890 N   0  0  0  0  0  0  0  0  0  0  0  0
   40.7150   32.1580   36.2600 H   0  0  0  0  0  0  0  0  0  0  0  0
   39.4010   33.1650   36.7060 H   0  0  0  0  0  0  0  0  0  0  0  0
   36.9490   26.7470   41.2840 S   0  0  0  0  0  0  0  0  0  0  0  0
   37.3420   25.1070   40.7030 C   0  0  0  0  0  0  0  0  0  0  0  0
   37.8780   24.0240   41.3680 C   0  0  0  0  0  3  0  0  0  0  0  0
   38.0840   22.8490   40.6770 C   0  0  0  0  0  0  0  0  0  0  0  0
   38.5120   22.0690   41.3060 H   0  0  0  0  0  0  0  0  0  0  0  0
   37.7730   22.7470   39.3800 N   0  0  0  0  0  0  0  0  0  0  0  0
   37.2450   23.8110   38.7260 C   0  0  0  0  0  3  0  0  0  0  0  0
   37.0380   24.9670   39.3870 N   0  0  0  0  0  0  0  0  0  0  0  0
  1 12  1  0  0  0  0
  1  6  1  0  0  0  0
  2  1  2  0  0  0  0
  3  2  1  0  0  0  0
  3  4  2  0  0  0  0
  4  5  1  0  0  0  0
  5  6  2  0  0  0  0
  5  7  1  0  0  0  0
  7 11  1  0  0  0  0
  7  8  1  0  0  0  0
  8 15  1  0  0  0  0
  8  9  1  0  0  0  0
  9 16  1  0  0  0  0
  9 17  1  0  0  0  0
 10 19  1  0  0  0  0
 10 18  1  0  0  0  0
 10  9  1  0  0  0  0
 11 20  1  6  0  0  0
 11 10  1  0  0  0  0
 13  3  1  0  0  0  0
 14  8  1  0  0  0  0
 21  2  1  0  0  0  0
 22 21  1  0  0  0  0
 23 21  1  0  0  0  0
 24 11  1  0  0  0  0
 25 24  1  0  0  0  0
 25 26  1  0  0  0  0
 27 28  1  0  0  0  0
 27 26  2  0  0  0  0
 29 27  1  0  0  0  0
 30 29  2  0  0  0  0
 30 31  1  0  0  0  0
 31 25  2  0  0  0  0
M  END
>  <minimizedAffinity>
-4.89095783

$$$$

 OpenBabel03252506353D

 31 33  0  0  1  0  0  0  0  0999 V2000
   35.4400   26.5540   37.9020 C   0  0  0  0  0  0  0  0  0  0  0  0
   34.6290   27.6410   37.5630 C   0  0  0  0  0  0  0  0  0  0  0  0
   34.6260   28.7610   38.3660 C   0  0  0  0  0  0  0  0  0  0  0  0
   35.4320   28.7210   39.4550 N   0  0  0  0  0  0  0  0  0  0  0  0
   36.1990   27.6880   39.7730 C   0  0  0  0  0  0  0  0  0  0  0  0
   36.2220   26.5880   39.0120 N   0  0  0  0  0  0  0  0  0  0  0  0
   36.9950   27.7670   40.9400 N   0  0  0  0  0  0  0  0  0  0  0  0
   38.0990   26.8690   41.2730 C   0  0  0  0  0  0  0  0  0  0  0  0
   37.9260   26.6950   42.7710 C   0  0  0  0  0  0  0  0  0  0  0  0
   36.9480   27.7570   43.2180 C   0  0  0  0  0  0  0  0  0  0  0  0
   36.9320   28.6890   42.0360 C   0  0  1  0  0  0  0  0  0  0  0  0
   35.5040   25.6380   37.3300 H   0  0  0  0  0  0  0  0  0  0  0  0
   33.9970   29.5690   38.0780 H   0  0  0  0  0  0  0  0  0  0  0  0
   39.0340   27.4100   41.0240 H   0  0  0  0  0  0  0  0  0  0  0  0
   37.9890   25.9120   40.7360 H   0  0  0  0  0  0  0  0  0  0  0  0
   38.9010   26.9440   43.2460 H   0  0  0  0  0  0  0  0  0  0  0  0
   37.5780   25.6910   43.0520 H   0  0  0  0  0  0  0  0  0  0  0  0
   37.2570   28.2680   44.1540 H   0  0  0  0  0  0  0  0  0  0  0  0
   35.9540   27.3030   43.2830 H   0  0  0  0  0  0  0  0  0  0  0  0
   35.9870   29.2900   41.9940 H   0  0  0  0  0  0  0  0  0  0  0  0
   33.8520   27.4680   36.3690 N   0  0  0  0  0  0  0  0  0  0  0  0
   32.9150   27.8400   36.1840 H   0  0  0  0  0  0  0  0  0  0  0  0
   34.2270   26.9200   35.5760 H   0  0  0  0  0  0  0  0  0  0  0  0
   38.3580   29.7790   42.1270 S   0  0  0  0  0  0  0  0  0  0  0  0
   38.1310   31.2640   41.1650 C   0  0  0  0  0  0  0  0  0  0  0  0
   37.1010   31.6440   40.3310 C   0  0  0  0  0  3  0  0  0  0  0  0
   37.1690   32.8660   39.6960 C   0  0  0  0  0  0  0  0  0  0  0  0
   36.3010   33.0520   39.0640 H   0  0  0  0  0  0  0  0  0  0  0  0
   38.2130   33.6820   39.8790 N   0  0  0  0  0  0  0  0  0  0  0  0
   39.2260   33.3090   40.6990 C   0  0  0  0  0  3  0  0  0  0  0  0
   39.1750   32.1170   41.3270 N   0  0  0  0  0  0  0  0  0  0  0  0
  1  6  1  0  0  0  0
  2  1  2  0  0  0  0
  2  3  1  0  0  0  0
  3  4  2  0  0  0  0
  4  5  1  0  0  0  0
  5  7  1  0  0  0  0
  6  5  2  0  0  0  0
  7  8  1  0  0  0  0
  7 11  1  0  0  0  0
  8  9  1  0  0  0  0
  9 17  1  0  0  0  0
  9 10  1  0  0  0  0
  9 16  1  0  0  0  0
 10 19  1  0  0  0  0
 10 18  1  0  0  0  0
 11 20  1  6  0  0  0
 11 24  1  0  0  0  0
 11 10  1  0  0  0  0
 12  1  1  0  0  0  0
 13  3  1  0  0  0  0
 14  8  1  0  0  0  0
 15  8  1  0  0  0  0
 21  2  1  0  0  0  0
 22 21  1  0  0  0  0
 23 21  1  0  0  0  0
 25 31  1  0  0  0  0
 25 24  1  0  0  0  0
 26 25  2  0  0  0  0
 27 29  2  0  0  0  0
 27 26  1  0  0  0  0
 28 27  1  0  0  0  0
 29 30  1  0  0  0  0
 30 31  2  0  0  0  0
M  END
>  <minimizedAffinity>
-4.79766369

$$$$

 OpenBabel03252506353D

 31 33  0  0  1  0  0  0  0  0999 V2000
   38.8940   32.0520   38.9710 C   0  0  0  0  0  0  0  0  0  0  0  0
   39.4920   31.4440   37.8640 C   0  0  0  0  0  0  0  0  0  0  0  0
   39.6780   30.0790   37.8580 C   0  0  0  0  0  0  0  0  0  0  0  0
   39.2550   29.4110   38.9600 N   0  0  0  0  0  0  0  0  0  0  0  0
   38.6900   29.9920   40.0070 C   0  0  0  0  0  0  0  0  0  0  0  0
   38.4960   31.3150   40.0400 N   0  0  0  0  0  0  0  0  0  0  0  0
   38.2930   29.1850   41.0990 N   0  0  0  0  0  0  0  0  0  0  0  0
   37.4040   29.6020   42.1820 C   0  0  0  0  0  0  0  0  0  0  0  0
   38.0450   28.9460   43.3910 C   0  0  0  0  0  0  0  0  0  0  0  0
   39.0490   27.9490   42.8590 C   0  0  0  0  0  0  0  0  0  0  0  0
   38.6400   27.8290   41.4160 C   0  0  1  0  0  0  0  0  0  0  0  0
   38.7100   33.1150   39.0590 H   0  0  0  0  0  0  0  0  0  0  0  0
   40.1360   29.6500   37.0000 H   0  0  0  0  0  0  0  0  0  0  0  0
   36.4080   29.1720   41.9570 H   0  0  0  0  0  0  0  0  0  0  0  0
   37.3980   30.7020   42.2700 H   0  0  0  0  0  0  0  0  0  0  0  0
   37.2540   28.3540   43.9030 H   0  0  0  0  0  0  0  0  0  0  0  0
   38.5220   29.6660   44.0710 H   0  0  0  0  0  0  0  0  0  0  0  0
   39.0170   26.9730   43.3880 H   0  0  0  0  0  0  0  0  0  0  0  0
   40.0390   28.4150   42.8750 H   0  0  0  0  0  0  0  0  0  0  0  0
   39.4860   27.4770   40.7720 H   0  0  0  0  0  0  0  0  0  0  0  0
   39.8670   32.3430   36.8090 N   0  0  0  0  0  0  0  0  0  0  0  0
   40.6760   32.2570   36.1850 H   0  0  0  0  0  0  0  0  0  0  0  0
   39.2970   33.1830   36.6100 H   0  0  0  0  0  0  0  0  0  0  0  0
   37.2510   26.6960   41.2890 S   0  0  0  0  0  0  0  0  0  0  0  0
   36.4450   26.7940   39.7000 C   0  0  0  0  0  0  0  0  0  0  0  0
   35.7800   27.8390   39.0950 C   0  0  0  0  0  3  0  0  0  0  0  0
   35.2400   27.6530   37.8400 C   0  0  0  0  0  0  0  0  0  0  0  0
   34.7390   28.5460   37.4680 H   0  0  0  0  0  0  0  0  0  0  0  0
   35.3540   26.4800   37.2070 N   0  0  0  0  0  0  0  0  0  0  0  0
   36.0090   25.4520   37.8010 C   0  0  0  0  0  3  0  0  0  0  0  0
   36.5420   25.6180   39.0280 N   0  0  0  0  0  0  0  0  0  0  0  0
  1 12  1  0  0  0  0
  1  6  1  0  0  0  0
  2  1  2  0  0  0  0
  3  2  1  0  0  0  0
  3  4  2  0  0  0  0
  4  5  1  0  0  0  0
  5  6  2  0  0  0  0
  5  7  1  0  0  0  0
  7 11  1  0  0  0  0
  7  8  1  0  0  0  0
  8 15  1  0  0  0  0
  8  9  1  0  0  0  0
  9 16  1  0  0  0  0
  9 17  1  0  0  0  0
 10 19  1  0  0  0  0
 10 18  1  0  0  0  0
 10  9  1  0  0  0  0
 11 20  1  6  0  0  0
 11 10  1  0  0  0  0
 13  3  1  0  0  0  0
 14  8  1  0  0  0  0
 21  2  1  0  0  0  0
 22 21  1  0  0  0  0
 23 21  1  0  0  0  0
 24 11  1  0  0  0  0
 25 24  1  0  0  0  0
 26 25  1  0  0  0  0
 27 26  2  0  0  0  0
 28 27  1  0  0  0  0
 29 30  2  0  0  0  0
 29 27  1  0  0  0  0
 30 31  1  0  0  0  0
 31 25  2  0  0  0  0
M  END
>  <minimizedAffinity>
-4.75496054

$$$$

 OpenBabel03252506353D

 31 33  0  0  1  0  0  0  0  0999 V2000
   38.2740   27.9920   36.1160 C   0  0  0  0  0  0  0  0  0  0  0  0
   37.1690   28.7300   35.6810 C   0  0  0  0  0  0  0  0  0  0  0  0
   36.2840   29.2360   36.6070 C   0  0  0  0  0  0  0  0  0  0  0  0
   36.5600   28.9720   37.9080 N   0  0  0  0  0  0  0  0  0  0  0  0
   37.6090   28.2720   38.3160 C   0  0  0  0  0  0  0  0  0  0  0  0
   38.4840   27.7690   37.4390 N   0  0  0  0  0  0  0  0  0  0  0  0
   37.7860   28.0620   39.7030 N   0  0  0  0  0  0  0  0  0  0  0  0
   39.0140   27.5850   40.3370 C   0  0  0  0  0  0  0  0  0  0  0  0
   38.4770   26.6620   41.4160 C   0  0  0  0  0  0  0  0  0  0  0  0
   36.9950   26.9410   41.5230 C   0  0  0  0  0  0  0  0  0  0  0  0
   36.8660   28.2470   40.7880 C   0  0  1  0  0  0  0  0  0  0  0  0
   39.0170   27.5600   35.4590 H   0  0  0  0  0  0  0  0  0  0  0  0
   35.4550   29.7920   36.2400 H   0  0  0  0  0  0  0  0  0  0  0  0
   39.5160   28.4740   40.7650 H   0  0  0  0  0  0  0  0  0  0  0  0
   39.6350   27.0390   39.6060 H   0  0  0  0  0  0  0  0  0  0  0  0
   38.9280   26.9860   42.3800 H   0  0  0  0  0  0  0  0  0  0  0  0
   38.6680   25.6000   41.2110 H   0  0  0  0  0  0  0  0  0  0  0  0
   36.6390   27.0100   42.5720 H   0  0  0  0  0  0  0  0  0  0  0  0
   36.4610   26.1870   40.9360 H   0  0  0  0  0  0  0  0  0  0  0  0
   35.8260   28.4050   40.4010 H   0  0  0  0  0  0  0  0  0  0  0  0
   37.0680   28.8850   34.2570 N   0  0  0  0  0  0  0  0  0  0  0  0
   36.2070   28.9310   33.7020 H   0  0  0  0  0  0  0  0  0  0  0  0
   37.9210   28.9640   33.6770 H   0  0  0  0  0  0  0  0  0  0  0  0
   37.3300   29.5900   41.8880 S   0  0  0  0  0  0  0  0  0  0  0  0
   37.6680   31.1000   41.0000 C   0  0  0  0  0  0  0  0  0  0  0  0
   36.8850   31.8190   40.1220 C   0  0  0  0  0  3  0  0  0  0  0  0
   37.3900   32.9740   39.5640 C   0  0  0  0  0  0  0  0  0  0  0  0
   36.6820   33.4510   38.8880 H   0  0  0  0  0  0  0  0  0  0  0  0
   38.6210   33.4040   39.8640 N   0  0  0  0  0  0  0  0  0  0  0  0
   39.3910   32.6990   40.7280 C   0  0  0  0  0  3  0  0  0  0  0  0
   38.9120   31.5660   41.2810 N   0  0  0  0  0  0  0  0  0  0  0  0
  1  6  1  0  0  0  0
  2  1  2  0  0  0  0
  2  3  1  0  0  0  0
  3  4  2  0  0  0  0
  4  5  1  0  0  0  0
  5  7  1  0  0  0  0
  6  5  2  0  0  0  0
  7  8  1  0  0  0  0
  7 11  1  0  0  0  0
  8 14  1  0  0  0  0
  8  9  1  0  0  0  0
  9 10  1  0  0  0  0
  9 16  1  0  0  0  0
 10 18  1  0  0  0  0
 11 20  1  6  0  0  0
 11 10  1  0  0  0  0
 11 24  1  0  0  0  0
 12  1  1  0  0  0  0
 13  3  1  0  0  0  0
 15  8  1  0  0  0  0
 17  9  1  0  0  0  0
 19 10  1  0  0  0  0
 21  2  1  0  0  0  0
 22 21  1  0  0  0  0
 23 21  1  0  0  0  0
 25 31  1  0  0  0  0
 25 24  1  0  0  0  0
 26 25  2  0  0  0  0
 27 29  2  0  0  0  0
 27 26  1  0  0  0  0
 28 27  1  0  0  0  0
 29 30  1  0  0  0  0
 30 31  2  0  0  0  0
M  END
>  <minimizedAffinity>
-4.73083067

$$$$

 OpenBabel03252506353D

 31 33  0  0  1  0  0  0  0  0999 V2000
   36.7020   31.4810   39.2980 C   0  0  0  0  0  0  0  0  0  0  0  0
   37.4550   32.6020   39.6590 C   0  0  0  0  0  0  0  0  0  0  0  0
   38.3520   32.5100   40.7010 C   0  0  0  0  0  0  0  0  0  0  0  0
   38.4370   31.3030   41.3150 N   0  0  0  0  0  0  0  0  0  0  0  0
   37.7200   30.2440   40.9690 C   0  0  0  0  0  0  0  0  0  0  0  0
   36.8420   30.3050   39.9620 N   0  0  0  0  0  0  0  0  0  0  0  0
   37.8970   29.0400   41.6910 N   0  0  0  0  0  0  0  0  0  0  0  0
   37.4250   27.7230   41.2690 C   0  0  0  0  0  0  0  0  0  0  0  0
   36.9620   27.1150   42.5800 C   0  0  0  0  0  0  0  0  0  0  0  0
   37.5060   27.9980   43.6800 C   0  0  0  0  0  0  0  0  0  0  0  0
   38.5430   28.8080   42.9500 C   0  0  1  0  0  0  0  0  0  0  0  0
   35.9770   31.4650   38.4950 H   0  0  0  0  0  0  0  0  0  0  0  0
   38.9080   33.3810   40.9480 H   0  0  0  0  0  0  0  0  0  0  0  0
   38.3030   27.1900   40.8520 H   0  0  0  0  0  0  0  0  0  0  0  0
   36.5930   27.8260   40.5510 H   0  0  0  0  0  0  0  0  0  0  0  0
   37.4720   26.1310   42.6850 H   0  0  0  0  0  0  0  0  0  0  0  0
   35.8700   27.0190   42.6510 H   0  0  0  0  0  0  0  0  0  0  0  0
   37.9380   27.4240   44.5270 H   0  0  0  0  0  0  0  0  0  0  0  0
   36.7150   28.6900   43.9870 H   0  0  0  0  0  0  0  0  0  0  0  0
   38.7550   29.7780   43.4710 H   0  0  0  0  0  0  0  0  0  0  0  0
   37.2020   33.7790   38.8760 N   0  0  0  0  0  0  0  0  0  0  0  0
   37.2290   34.7510   39.2000 H   0  0  0  0  0  0  0  0  0  0  0  0
   36.9640   33.6990   37.8730 H   0  0  0  0  0  0  0  0  0  0  0  0
   40.0500   27.8410   42.8040 S   0  0  0  0  0  0  0  0  0  0  0  0
   41.5140   28.8500   42.9440 C   0  0  0  0  0  0  0  0  0  0  0  0
   42.8370   28.4950   43.1020 C   0  0  0  0  0  3  0  0  0  0  0  0
   43.7920   29.4860   43.1840 C   0  0  0  0  0  0  0  0  0  0  0  0
   44.7970   29.0830   43.3090 H   0  0  0  0  0  0  0  0  0  0  0  0
   43.4540   30.7780   43.1110 N   0  0  0  0  0  0  0  0  0  0  0  0
   42.1540   31.1280   42.9560 C   0  0  0  0  0  3  0  0  0  0  0  0
   41.2080   30.1710   42.8750 N   0  0  0  0  0  0  0  0  0  0  0  0
  1  2  2  0  0  0  0
  1  6  1  0  0  0  0
  2  3  1  0  0  0  0
  3 13  1  0  0  0  0
  3  4  2  0  0  0  0
  5  4  1  0  0  0  0
  5  7  1  0  0  0  0
  6  5  2  0  0  0  0
  7 11  1  0  0  0  0
  8  7  1  0  0  0  0
  8  9  1  0  0  0  0
  9 17  1  0  0  0  0
  9 16  1  0  0  0  0
  9 10  1  0  0  0  0
 10 19  1  0  0  0  0
 10 18  1  0  0  0  0
 11 20  1  1  0  0  0
 11 10  1  0  0  0  0
 12  1  1  0  0  0  0
 14  8  1  0  0  0  0
 15  8  1  0  0  0  0
 21 22  1  0  0  0  0
 21  2  1  0  0  0  0
 23 21  1  0  0  0  0
 24 25  1  0  0  0  0
 24 11  1  0  0  0  0
 25 26  1  0  0  0  0
 26 27  2  0  0  0  0
 27 28  1  0  0  0  0
 29 27  1  0  0  0  0
 30 29  2  0  0  0  0
 31 25  2  0  0  0  0
 31 30  1  0  0  0  0
M  END
>  <minimizedAffinity>
-4.72095299

$$$$

 OpenBabel03252506353D

 31 33  0  0  1  0  0  0  0  0999 V2000
   37.9360   27.5450   36.5590 C   0  0  0  0  0  0  0  0  0  0  0  0
   37.3700   28.7180   36.0510 C   0  0  0  0  0  0  0  0  0  0  0  0
   36.9430   29.6980   36.9200 C   0  0  0  0  0  0  0  0  0  0  0  0
   37.1080   29.4410   38.2410 N   0  0  0  0  0  0  0  0  0  0  0  0
   37.6440   28.3280   38.7180 C   0  0  0  0  0  0  0  0  0  0  0  0
   38.0680   27.3600   37.8980 N   0  0  0  0  0  0  0  0  0  0  0  0
   37.7590   28.1770   40.1210 N   0  0  0  0  0  0  0  0  0  0  0  0
   38.5780   27.1740   40.8000 C   0  0  0  0  0  0  0  0  0  0  0  0
   37.6930   26.7800   41.9680 C   0  0  0  0  0  0  0  0  0  0  0  0
   36.5950   27.8160   42.0460 C   0  0  0  0  0  0  0  0  0  0  0  0
   37.1410   28.9190   41.1800 C   0  0  1  0  0  0  0  0  0  0  0  0
   38.2970   26.7270   35.9500 H   0  0  0  0  0  0  0  0  0  0  0  0
   36.5180   30.5760   36.4980 H   0  0  0  0  0  0  0  0  0  0  0  0
   39.5000   27.6900   41.1340 H   0  0  0  0  0  0  0  0  0  0  0  0
   38.7720   26.3200   40.1290 H   0  0  0  0  0  0  0  0  0  0  0  0
   38.3000   26.8940   42.8940 H   0  0  0  0  0  0  0  0  0  0  0  0
   37.2780   25.7670   41.8740 H   0  0  0  0  0  0  0  0  0  0  0  0
   36.3890   28.1560   43.0830 H   0  0  0  0  0  0  0  0  0  0  0  0
   35.7100   27.4180   41.5400 H   0  0  0  0  0  0  0  0  0  0  0  0
   36.3240   29.5750   40.7800 H   0  0  0  0  0  0  0  0  0  0  0  0
   37.2880   28.7790   34.6190 N   0  0  0  0  0  0  0  0  0  0  0  0
   36.5540   29.2300   34.0620 H   0  0  0  0  0  0  0  0  0  0  0  0
   38.0190   28.3390   34.0330 H   0  0  0  0  0  0  0  0  0  0  0  0
   38.3080   29.8950   42.1360 S   0  0  0  0  0  0  0  0  0  0  0  0
   38.7840   31.3920   41.2900 C   0  0  0  0  0  0  0  0  0  0  0  0
   40.0170   31.9980   41.1640 C   0  0  0  0  0  3  0  0  0  0  0  0
   40.1170   33.1690   40.4430 C   0  0  0  0  0  0  0  0  0  0  0  0
   41.1370   33.5510   40.4160 H   0  0  0  0  0  0  0  0  0  0  0  0
   39.0430   33.7200   39.8680 N   0  0  0  0  0  0  0  0  0  0  0  0
   37.8310   33.1250   39.9910 C   0  0  0  0  0  3  0  0  0  0  0  0
   37.7150   31.9800   40.6930 N   0  0  0  0  0  0  0  0  0  0  0  0
  1  6  1  0  0  0  0
  2  1  2  0  0  0  0
  2  3  1  0  0  0  0
  3  4  2  0  0  0  0
  4  5  1  0  0  0  0
  5  7  1  0  0  0  0
  6  5  2  0  0  0  0
  7  8  1  0  0  0  0
  7 11  1  0  0  0  0
  8 14  1  0  0  0  0
  8  9  1  0  0  0  0
  9 10  1  0  0  0  0
  9 16  1  0  0  0  0
 10 18  1  0  0  0  0
 11 20  1  6  0  0  0
 11 10  1  0  0  0  0
 11 24  1  0  0  0  0
 12  1  1  0  0  0  0
 13  3  1  0  0  0  0
 15  8  1  0  0  0  0
 17  9  1  0  0  0  0
 19 10  1  0  0  0  0
 21  2  1  0  0  0  0
 22 21  1  0  0  0  0
 23 21  1  0  0  0  0
 25 24  1  0  0  0  0
 26 25  1  0  0  0  0
 27 26  2  0  0  0  0
 28 27  1  0  0  0  0
 29 30  2  0  0  0  0
 29 27  1  0  0  0  0
 30 31  1  0  0  0  0
 31 25  2  0  0  0  0
M  END
>  <minimizedAffinity>
-4.71767616

$$$$

 OpenBabel03252506353D

 31 33  0  0  1  0  0  0  0  0999 V2000
   37.2740   30.1380   36.8200 C   0  0  0  0  0  0  0  0  0  0  0  0
   38.0360   28.9870   36.6040 C   0  0  0  0  0  0  0  0  0  0  0  0
   39.0410   28.6630   37.4890 C   0  0  0  0  0  0  0  0  0  0  0  0
   39.2190   29.5110   38.5320 N   0  0  0  0  0  0  0  0  0  0  0  0
   38.4940   30.6020   38.7320 C   0  0  0  0  0  0  0  0  0  0  0  0
   37.5130   30.9410   37.8890 N   0  0  0  0  0  0  0  0  0  0  0  0
   38.7800   31.4100   39.8570 N   0  0  0  0  0  0  0  0  0  0  0  0
   37.9120   32.4580   40.3900 C   0  0  0  0  0  0  0  0  0  0  0  0
   38.9110   33.5300   40.7850 C   0  0  0  0  0  0  0  0  0  0  0  0
   40.2750   32.8790   40.7510 C   0  0  0  0  0  0  0  0  0  0  0  0
   39.9270   31.4150   40.7190 C   0  0  1  0  0  0  0  0  0  0  0  0
   36.4680   30.4670   36.1770 H   0  0  0  0  0  0  0  0  0  0  0  0
   39.6010   27.7800   37.2930 H   0  0  0  0  0  0  0  0  0  0  0  0
   37.3970   32.0260   41.2710 H   0  0  0  0  0  0  0  0  0  0  0  0
   37.2190   32.8150   39.6080 H   0  0  0  0  0  0  0  0  0  0  0  0
   38.7120   33.7890   41.8490 H   0  0  0  0  0  0  0  0  0  0  0  0
   38.8770   34.4140   40.1350 H   0  0  0  0  0  0  0  0  0  0  0  0
   40.9060   33.1430   41.6260 H   0  0  0  0  0  0  0  0  0  0  0  0
   40.7460   33.1180   39.7930 H   0  0  0  0  0  0  0  0  0  0  0  0
   40.7540   30.8010   40.2800 H   0  0  0  0  0  0  0  0  0  0  0  0
   37.6800   28.2350   35.4340 N   0  0  0  0  0  0  0  0  0  0  0  0
   38.3120   27.7020   34.8280 H   0  0  0  0  0  0  0  0  0  0  0  0
   36.6950   28.1900   35.1210 H   0  0  0  0  0  0  0  0  0  0  0  0
   39.5600   30.8610   42.3890 S   0  0  0  0  0  0  0  0  0  0  0  0
   38.5340   29.4020   42.4020 C   0  0  0  0  0  0  0  0  0  0  0  0
   37.2020   29.2380   42.0830 C   0  0  0  0  0  3  0  0  0  0  0  0
   36.6390   27.9830   42.1770 C   0  0  0  0  0  0  0  0  0  0  0  0
   35.5850   27.9810   41.9010 H   0  0  0  0  0  0  0  0  0  0  0  0
   37.3640   26.9300   42.5710 N   0  0  0  0  0  0  0  0  0  0  0  0
   38.6730   27.0890   42.8840 C   0  0  0  0  0  3  0  0  0  0  0  0
   39.2380   28.3100   42.7980 N   0  0  0  0  0  0  0  0  0  0  0  0
  1  6  1  0  0  0  0
  2  1  2  0  0  0  0
  2  3  1  0  0  0  0
  3  4  2  0  0  0  0
  4  5  1  0  0  0  0
  5  7  1  0  0  0  0
  6  5  2  0  0  0  0
  7  8  1  0  0  0  0
  7 11  1  0  0  0  0
  8  9  1  0  0  0  0
  8 14  1  0  0  0  0
  9 16  1  0  0  0  0
 10  9  1  0  0  0  0
 10 18  1  0  0  0  0
 11 20  1  6  0  0  0
 11 10  1  0  0  0  0
 11 24  1  0  0  0  0
 12  1  1  0  0  0  0
 13  3  1  0  0  0  0
 15  8  1  0  0  0  0
 17  9  1  0  0  0  0
 19 10  1  0  0  0  0
 21  2  1  0  0  0  0
 22 21  1  0  0  0  0
 23 21  1  0  0  0  0
 24 25  1  0  0  0  0
 25 31  1  0  0  0  0
 26 27  1  0  0  0  0
 26 25  2  0  0  0  0
 27 29  2  0  0  0  0
 28 27  1  0  0  0  0
 29 30  1  0  0  0  0
 31 30  2  0  0  0  0
M  END
>  <minimizedAffinity>
-4.67475986

$$$$

 OpenBabel03252506353D

 31 33  0  0  1  0  0  0  0  0999 V2000
   40.6530   25.5280   43.6470 C   0  0  0  0  0  0  0  0  0  0  0  0
   41.8780   25.7340   43.0060 C   0  0  0  0  0  0  0  0  0  0  0  0
   41.9770   26.6980   42.0260 C   0  0  0  0  0  0  0  0  0  0  0  0
   40.8450   27.3930   41.7520 N   0  0  0  0  0  0  0  0  0  0  0  0
   39.6860   27.1930   42.3630 C   0  0  0  0  0  0  0  0  0  0  0  0
   39.5620   26.2640   43.3170 N   0  0  0  0  0  0  0  0  0  0  0  0
   38.5740   27.9820   41.9840 N   0  0  0  0  0  0  0  0  0  0  0  0
   37.3280   28.1050   42.7370 C   0  0  0  0  0  0  0  0  0  0  0  0
   36.2890   28.1330   41.6310 C   0  0  0  0  0  0  0  0  0  0  0  0
   37.0410   28.3530   40.3390 C   0  0  0  0  0  0  0  0  0  0  0  0
   38.3860   28.8150   40.8310 C   0  0  1  0  0  0  0  0  0  0  0  0
   40.4870   24.7940   44.4250 H   0  0  0  0  0  0  0  0  0  0  0  0
   42.9230   26.8280   41.5590 H   0  0  0  0  0  0  0  0  0  0  0  0
   37.3800   29.0690   43.2810 H   0  0  0  0  0  0  0  0  0  0  0  0
   37.1940   27.2340   43.4010 H   0  0  0  0  0  0  0  0  0  0  0  0
   35.6640   29.0400   41.7900 H   0  0  0  0  0  0  0  0  0  0  0  0
   35.6800   27.2190   41.5860 H   0  0  0  0  0  0  0  0  0  0  0  0
   36.5570   29.0990   39.6740 H   0  0  0  0  0  0  0  0  0  0  0  0
   37.1910   27.3810   39.8590 H   0  0  0  0  0  0  0  0  0  0  0  0
   39.1920   28.6300   40.0740 H   0  0  0  0  0  0  0  0  0  0  0  0
   42.9450   24.8830   43.4500 N   0  0  0  0  0  0  0  0  0  0  0  0
   43.7120   24.5090   42.8820 H   0  0  0  0  0  0  0  0  0  0  0  0
   42.9990   24.5840   44.4390 H   0  0  0  0  0  0  0  0  0  0  0  0
   38.2990   30.5650   41.2300 S   0  0  0  0  0  0  0  0  0  0  0  0
   39.2940   31.5560   40.1300 C   0  0  0  0  0  0  0  0  0  0  0  0
   39.8480   32.8070   40.3040 C   0  0  0  0  0  3  0  0  0  0  0  0
   40.5890   33.3590   39.2810 C   0  0  0  0  0  0  0  0  0  0  0  0
   40.9720   34.3470   39.5340 H   0  0  0  0  0  0  0  0  0  0  0  0
   40.7770   32.7010   38.1310 N   0  0  0  0  0  0  0  0  0  0  0  0
   40.2330   31.4710   37.9600 C   0  0  0  0  0  3  0  0  0  0  0  0
   39.5050   30.9170   38.9500 N   0  0  0  0  0  0  0  0  0  0  0  0
  1 12  1  0  0  0  0
  2 21  1  0  0  0  0
  2  1  2  0  0  0  0
  3  2  1  0  0  0  0
  4  3  2  0  0  0  0
  4  5  1  0  0  0  0
  5  6  2  0  0  0  0
  6  1  1  0  0  0  0
  7  5  1  0  0  0  0
  7  8  1  0  0  0  0
  8 14  1  0  0  0  0
  8 15  1  0  0  0  0
  9 16  1  0  0  0  0
  9  8  1  0  0  0  0
 10 11  1  0  0  0  0
 10  9  1  0  0  0  0
 11 20  1  6  0  0  0
 11 24  1  0  0  0  0
 11  7  1  0  0  0  0
 13  3  1  0  0  0  0
 17  9  1  0  0  0  0
 18 10  1  0  0  0  0
 19 10  1  0  0  0  0
 21 23  1  0  0  0  0
 22 21  1  0  0  0  0
 25 26  1  0  0  0  0
 25 24  1  0  0  0  0
 27 28  1  0  0  0  0
 27 26  2  0  0  0  0
 29 27  1  0  0  0  0
 30 29  2  0  0  0  0
 30 31  1  0  0  0  0
 31 25  2  0  0  0  0
M  END
>  <minimizedAffinity>
-4.65102911

$$$$

 OpenBabel03252506353D

 31 33  0  0  1  0  0  0  0  0999 V2000
   36.7820   24.0280   41.0330 C   0  0  0  0  0  0  0  0  0  0  0  0
   36.2300   24.0300   39.7490 C   0  0  0  0  0  0  0  0  0  0  0  0
   36.1590   25.2110   39.0430 C   0  0  0  0  0  0  0  0  0  0  0  0
   36.6430   26.3140   39.6670 N   0  0  0  0  0  0  0  0  0  0  0  0
   37.1640   26.3060   40.8850 C   0  0  0  0  0  0  0  0  0  0  0  0
   37.2460   25.1740   41.5930 N   0  0  0  0  0  0  0  0  0  0  0  0
   37.6320   27.5250   41.4300 N   0  0  0  0  0  0  0  0  0  0  0  0
   38.4900   27.6520   42.6070 C   0  0  0  0  0  0  0  0  0  0  0  0
   37.9130   28.8790   43.2910 C   0  0  0  0  0  0  0  0  0  0  0  0
   36.9930   29.5380   42.2880 C   0  0  0  0  0  0  0  0  0  0  0  0
   37.4030   28.8740   41.0010 C   0  0  1  0  0  0  0  0  0  0  0  0
   36.8770   23.1480   41.6560 H   0  0  0  0  0  0  0  0  0  0  0  0
   35.7340   25.1760   38.0690 H   0  0  0  0  0  0  0  0  0  0  0  0
   39.5170   27.8310   42.2330 H   0  0  0  0  0  0  0  0  0  0  0  0
   38.4040   26.7540   43.2420 H   0  0  0  0  0  0  0  0  0  0  0  0
   38.7530   29.5870   43.4600 H   0  0  0  0  0  0  0  0  0  0  0  0
   37.3810   28.6440   44.2230 H   0  0  0  0  0  0  0  0  0  0  0  0
   37.1100   30.6420   42.2490 H   0  0  0  0  0  0  0  0  0  0  0  0
   35.9680   29.2200   42.5010 H   0  0  0  0  0  0  0  0  0  0  0  0
   36.5850   28.9120   40.2360 H   0  0  0  0  0  0  0  0  0  0  0  0
   35.7750   22.7510   39.2830 N   0  0  0  0  0  0  0  0  0  0  0  0
   34.9730   22.5670   38.6720 H   0  0  0  0  0  0  0  0  0  0  0  0
   36.2710   21.8860   39.5600 H   0  0  0  0  0  0  0  0  0  0  0  0
   38.8810   29.6770   40.3690 S   0  0  0  0  0  0  0  0  0  0  0  0
   38.7090   31.4510   40.3070 C   0  0  0  0  0  0  0  0  0  0  0  0
   39.4810   32.4470   40.8660 C   0  0  0  0  0  3  0  0  0  0  0  0
   39.1270   33.7640   40.6630 C   0  0  0  0  0  0  0  0  0  0  0  0
   39.8100   34.4570   41.1540 H   0  0  0  0  0  0  0  0  0  0  0  0
   38.0520   34.0850   39.9340 N   0  0  0  0  0  0  0  0  0  0  0  0
   37.2930   33.1060   39.3830 C   0  0  0  0  0  3  0  0  0  0  0  0
   37.6260   31.8140   39.5730 N   0  0  0  0  0  0  0  0  0  0  0  0
  1  6  1  0  0  0  0
  1 12  1  0  0  0  0
  2  1  2  0  0  0  0
  3  4  2  0  0  0  0
  3  2  1  0  0  0  0
  4  5  1  0  0  0  0
  5  7  1  0  0  0  0
  5  6  2  0  0  0  0
  7  8  1  0  0  0  0
  8 15  1  0  0  0  0
  8  9  1  0  0  0  0
  9 16  1  0  0  0  0
  9 17  1  0  0  0  0
 10 19  1  0  0  0  0
 10  9  1  0  0  0  0
 11 20  1  6  0  0  0
 11  7  1  0  0  0  0
 11 10  1  0  0  0  0
 13  3  1  0  0  0  0
 14  8  1  0  0  0  0
 18 10  1  0  0  0  0
 21 23  1  0  0  0  0
 21  2  1  0  0  0  0
 22 21  1  0  0  0  0
 24 11  1  0  0  0  0
 25 24  1  0  0  0  0
 25 26  1  0  0  0  0
 27 26  2  0  0  0  0
 27 28  1  0  0  0  0
 29 27  1  0  0  0  0
 30 31  1  0  0  0  0
 30 29  2  0  0  0  0
 31 25  2  0  0  0  0
M  END
>  <minimizedAffinity>
-4.59945679

$$$$
