
 OpenBabel03252504333D

 38 40  0  0  0  0  0  0  0  0999 V2000
   44.0570   35.3400   41.3210 C   0  0  0  0  0  3  0  0  0  0  0  0
   44.0420   35.6100   42.6230 C   0  0  0  0  0  3  0  0  0  0  0  0
   45.2650   35.5350   43.5240 C   0  0  0  0  0  0  0  0  0  0  0  0
   45.4790   36.5180   43.9910 H   0  0  0  0  0  0  0  0  0  0  0  0
   46.1070   35.2730   42.8660 H   0  0  0  0  0  0  0  0  0  0  0  0
   44.9840   34.5890   44.4930 O   0  0  0  0  0  0  0  0  0  0  0  0
   45.6130   32.4310   43.0700 O   0  0  0  0  0  0  0  0  0  0  0  0
   45.9730   33.2350   44.2990 P   0  0  1  0  0  0  0  0  0  0  0  0
   47.5990   33.7180   44.1200 O   0  0  0  0  0  0  0  0  0  0  0  0
   47.6860   34.4540   43.4630 H   0  0  0  0  0  0  0  0  0  0  0  0
   45.8960   32.2600   45.6730 O   0  0  0  0  0  0  0  0  0  0  0  0
   46.2040   32.9530   46.8280 C   0  0  0  0  0  0  0  0  0  0  0  0
   47.0710   32.3060   47.8590 C   0  0  0  0  0  0  0  0  0  0  0  0
   45.5720   32.4130   48.0900 C   0  0  0  0  0  0  0  0  0  0  0  0
   46.3180   34.0490   46.7290 H   0  0  0  0  0  0  0  0  0  0  0  0
   47.4930   31.2980   47.6470 H   0  0  0  0  0  0  0  0  0  0  0  0
   47.6540   32.9810   48.5160 H   0  0  0  0  0  0  0  0  0  0  0  0
   45.0200   31.4560   48.0540 H   0  0  0  0  0  0  0  0  0  0  0  0
   45.1910   33.1470   48.8310 H   0  0  0  0  0  0  0  0  0  0  0  0
   42.8520   35.4540   40.6530 O   0  0  0  0  0  0  0  0  0  0  0  0
   41.6220   35.6460   41.1830 C   0  0  0  0  0  0  0  0  0  0  0  0
   41.5330   35.7870   42.2850 H   0  0  0  0  0  0  0  0  0  0  0  0
   41.1750   36.5960   40.7660 H   0  0  0  0  0  0  0  0  0  0  0  0
   41.0760   33.2820   41.2760 C   0  0  0  0  0  0  0  0  0  0  0  0
   40.6430   34.5530   40.8840 C   0  0  0  0  0  0  0  0  0  0  0  0
   39.4270   34.6870   40.3170 C   0  0  0  0  0  0  0  0  0  0  0  0
   38.7140   33.5680   40.1720 N   0  0  0  0  0  0  0  0  0  0  0  0
   39.1010   32.3500   40.5370 C   0  0  0  0  0  0  0  0  0  0  0  0
   40.3540   32.1690   41.1270 N   0  0  0  0  0  0  0  0  0  0  0  0
   42.0400   33.1060   41.7350 H   0  0  0  0  0  0  0  0  0  0  0  0
   39.1300   35.6730   40.0280 H   0  0  0  0  0  0  0  0  0  0  0  0
   38.2750   31.1580   40.3540 C   0  0  0  0  0  0  0  0  0  0  0  0
   38.4010   30.4850   39.1560 C   0  0  0  0  0  3  0  0  0  0  0  0
   37.5970   29.3480   39.0110 C   0  0  0  0  0  0  0  0  0  0  0  0
   37.7040   28.8280   38.0660 H   0  0  0  0  0  0  0  0  0  0  0  0
   36.7550   28.9300   39.9710 N   0  0  0  0  0  0  0  0  0  0  0  0
   36.6660   29.6180   41.1220 C   0  0  0  0  0  3  0  0  0  0  0  0
   37.4290   30.7340   41.3120 N   0  0  0  0  0  0  0  0  0  0  0  0
  1  2  2  0  0  0  0
  2  3  1  0  0  0  0
  3  4  1  0  0  0  0
  3  6  1  0  0  0  0
  5  3  1  0  0  0  0
  8  7  2  6  0  0  0
  8  6  1  0  0  0  0
  8 11  1  0  0  0  0
  9  8  1  0  0  0  0
 10  9  1  0  0  0  0
 11 12  1  0  0  0  0
 12 13  1  0  0  0  0
 12 14  1  0  0  0  0
 13 14  1  0  0  0  0
 13 17  1  0  0  0  0
 14 19  1  0  0  0  0
 15 12  1  0  0  0  0
 16 13  1  0  0  0  0
 18 14  1  0  0  0  0
 20 21  1  0  0  0  0
 20  1  1  0  0  0  0
 21 22  1  0  0  0  0
 23 21  1  0  0  0  0
 24 30  1  0  0  0  0
 25 21  1  0  0  0  0
 25 24  2  0  0  0  0
 26 25  1  0  0  0  0
 27 26  2  0  0  0  0
 27 28  1  0  0  0  0
 28 29  2  0  0  0  0
 29 24  1  0  0  0  0
 31 26  1  0  0  0  0
 32 28  1  0  0  0  0
 32 38  1  0  0  0  0
 33 32  2  0  0  0  0
 34 33  1  0  0  0  0
 34 36  2  0  0  0  0
 35 34  1  0  0  0  0
 36 37  1  0  0  0  0
 37 38  2  0  0  0  0
M  END
>  <minimizedAffinity>
-5.02867174

>  <minimizedRMSD>
0.809833288

$$$$
