
 OpenBabel03242517143D

 21 22  0  0  0  0  0  0  0  0999 V2000
   37.0040   27.8130   42.1400 C   0  0  0  0  0  3  0  0  0  0  0  0
   36.3820   27.9780   40.9940 C   0  0  0  0  0  3  0  0  0  0  0  0
   37.7410   25.4240   42.0170 C   0  0  0  0  0  0  0  0  0  0  0  0
   37.8950   26.7240   42.4900 C   0  0  0  0  0  0  0  0  0  0  0  0
   38.9610   26.9750   43.3390 C   0  0  0  0  0  0  0  0  0  0  0  0
   39.8090   25.9560   43.6770 N   0  0  0  0  0  0  0  0  0  0  0  0
   39.6220   24.7020   43.1920 C   0  0  0  0  0  0  0  0  0  0  0  0
   38.5880   24.4500   42.3660 N   0  0  0  0  0  0  0  0  0  0  0  0
   36.8940   25.2800   41.3570 H   0  0  0  0  0  0  0  0  0  0  0  0
   39.1690   27.9610   43.7650 H   0  0  0  0  0  0  0  0  0  0  0  0
   40.2730   23.8730   43.4380 H   0  0  0  0  0  0  0  0  0  0  0  0
   35.4810   29.1390   40.7310 C   0  0  0  0  0  0  0  0  0  0  0  0
   35.0290   29.4150   41.7050 H   0  0  0  0  0  0  0  0  0  0  0  0
   34.7000   28.8270   40.0110 H   0  0  0  0  0  0  0  0  0  0  0  0
   36.2090   30.2650   40.1100 C   0  0  0  0  0  0  0  0  0  0  0  0
   36.5100   30.2890   38.7510 C   0  0  0  0  0  3  0  0  0  0  0  0
   37.1800   31.3050   38.1240 C   0  0  0  0  0  0  0  0  0  0  0  0
   37.3760   31.2540   37.0780 H   0  0  0  0  0  0  0  0  0  0  0  0
   37.5730   32.3510   38.8620 N   0  0  0  0  0  0  0  0  0  0  0  0
   37.2910   32.3500   40.1880 C   0  0  0  0  0  3  0  0  0  0  0  0
   36.6260   31.3410   40.8110 N   0  0  0  0  0  0  0  0  0  0  0  0
  1  4  1  0  0  0  0
  2  1  2  0  0  0  0
  3  8  2  0  0  0  0
  3  4  1  0  0  0  0
  4  5  2  0  0  0  0
  5  6  1  0  0  0  0
  5 10  1  0  0  0  0
  7 11  1  0  0  0  0
  7  6  2  0  0  0  0
  8  7  1  0  0  0  0
  9  3  1  0  0  0  0
 12  2  1  0  0  0  0
 12 13  1  0  0  0  0
 14 12  1  0  0  0  0
 15 12  1  0  0  0  0
 15 21  1  0  0  0  0
 16 15  2  0  0  0  0
 17 16  1  0  0  0  0
 17 19  2  0  0  0  0
 18 17  1  0  0  0  0
 19 20  1  0  0  0  0
 20 21  2  0  0  0  0
M  END
>  <minimizedAffinity>
-4.47315979

$$$$

 OpenBabel03242517143D

 21 22  0  0  0  0  0  0  0  0999 V2000
   37.3280   29.4930   41.4250 C   0  0  0  0  0  3  0  0  0  0  0  0
   37.3300   29.0000   42.6440 C   0  0  0  0  0  3  0  0  0  0  0  0
   36.9520   31.6830   40.2750 C   0  0  0  0  0  0  0  0  0  0  0  0
   37.7440   30.8240   41.0310 C   0  0  0  0  0  0  0  0  0  0  0  0
   38.9940   31.2800   41.4190 C   0  0  0  0  0  0  0  0  0  0  0  0
   39.3990   32.5340   41.0530 N   0  0  0  0  0  0  0  0  0  0  0  0
   38.5930   33.3400   40.3150 C   0  0  0  0  0  0  0  0  0  0  0  0
   37.3770   32.9040   39.9330 N   0  0  0  0  0  0  0  0  0  0  0  0
   35.9850   31.2810   39.9970 H   0  0  0  0  0  0  0  0  0  0  0  0
   39.6920   30.6830   42.0140 H   0  0  0  0  0  0  0  0  0  0  0  0
   38.8810   34.3370   40.0080 H   0  0  0  0  0  0  0  0  0  0  0  0
   36.8790   27.6100   42.9470 C   0  0  0  0  0  0  0  0  0  0  0  0
   36.1100   27.3550   42.1920 H   0  0  0  0  0  0  0  0  0  0  0  0
   36.4490   27.5890   43.9680 H   0  0  0  0  0  0  0  0  0  0  0  0
   38.0090   26.6560   42.9430 C   0  0  0  0  0  0  0  0  0  0  0  0
   39.1860   26.9030   43.6420 C   0  0  0  0  0  3  0  0  0  0  0  0
   40.2620   26.0560   43.6730 C   0  0  0  0  0  0  0  0  0  0  0  0
   41.1320   26.3120   44.2320 H   0  0  0  0  0  0  0  0  0  0  0  0
   40.1810   24.9100   42.9870 N   0  0  0  0  0  0  0  0  0  0  0  0
   39.0430   24.6470   42.2970 C   0  0  0  0  0  3  0  0  0  0  0  0
   37.9750   25.4880   42.2660 N   0  0  0  0  0  0  0  0  0  0  0  0
  1  2  2  0  0  0  0
  2 12  1  0  0  0  0
  3  4  1  0  0  0  0
  4  5  2  0  0  0  0
  4  1  1  0  0  0  0
  5 10  1  0  0  0  0
  6  5  1  0  0  0  0
  7  6  2  0  0  0  0
  8  3  2  0  0  0  0
  8  7  1  0  0  0  0
  9  3  1  0  0  0  0
 11  7  1  0  0  0  0
 12 14  1  0  0  0  0
 13 12  1  0  0  0  0
 15 12  1  0  0  0  0
 15 16  1  0  0  0  0
 16 17  2  0  0  0  0
 17 18  1  0  0  0  0
 19 17  1  0  0  0  0
 20 19  2  0  0  0  0
 21 20  1  0  0  0  0
 21 15  2  0  0  0  0
M  END
>  <minimizedAffinity>
-4.31635809

$$$$

 OpenBabel03242517143D

 21 22  0  0  0  0  0  0  0  0999 V2000
   37.0370   29.3970   41.6090 C   0  0  0  0  0  3  0  0  0  0  0  0
   37.3270   28.7050   42.6880 C   0  0  0  0  0  3  0  0  0  0  0  0
   38.9160   31.0470   41.5420 C   0  0  0  0  0  0  0  0  0  0  0  0
   37.6200   30.6630   41.2120 C   0  0  0  0  0  0  0  0  0  0  0  0
   36.8600   31.5480   40.4630 C   0  0  0  0  0  0  0  0  0  0  0  0
   37.4000   32.7460   40.0820 N   0  0  0  0  0  0  0  0  0  0  0  0
   38.6690   33.0810   40.4260 C   0  0  0  0  0  0  0  0  0  0  0  0
   39.4150   32.2260   41.1540 N   0  0  0  0  0  0  0  0  0  0  0  0
   39.4690   30.3220   42.1270 H   0  0  0  0  0  0  0  0  0  0  0  0
   35.8320   31.3410   40.1530 H   0  0  0  0  0  0  0  0  0  0  0  0
   39.1270   34.0190   40.1420 H   0  0  0  0  0  0  0  0  0  0  0  0
   36.6660   27.4050   43.0090 C   0  0  0  0  0  0  0  0  0  0  0  0
   35.6870   27.4120   42.4910 H   0  0  0  0  0  0  0  0  0  0  0  0
   36.5290   27.3370   44.1060 H   0  0  0  0  0  0  0  0  0  0  0  0
   37.5040   26.2540   42.6120 C   0  0  0  0  0  0  0  0  0  0  0  0
   36.9540   25.0820   42.1030 C   0  0  0  0  0  3  0  0  0  0  0  0
   37.6810   23.9870   41.7190 C   0  0  0  0  0  0  0  0  0  0  0  0
   37.1900   23.1220   41.3370 H   0  0  0  0  0  0  0  0  0  0  0  0
   39.0130   24.0430   41.8380 N   0  0  0  0  0  0  0  0  0  0  0  0
   39.5730   25.1750   42.3320 C   0  0  0  0  0  3  0  0  0  0  0  0
   38.8510   26.2620   42.7130 N   0  0  0  0  0  0  0  0  0  0  0  0
  1  2  2  0  0  0  0
  2 12  1  0  0  0  0
  3  9  1  0  0  0  0
  4  3  1  0  0  0  0
  4  1  1  0  0  0  0
  5  4  2  0  0  0  0
  6  7  2  0  0  0  0
  6  5  1  0  0  0  0
  7  8  1  0  0  0  0
  8  3  2  0  0  0  0
 10  5  1  0  0  0  0
 11  7  1  0  0  0  0
 12 14  1  0  0  0  0
 13 12  1  0  0  0  0
 15 21  1  0  0  0  0
 15 12  1  0  0  0  0
 16 15  2  0  0  0  0
 17 19  2  0  0  0  0
 17 16  1  0  0  0  0
 18 17  1  0  0  0  0
 19 20  1  0  0  0  0
 20 21  2  0  0  0  0
M  END
>  <minimizedAffinity>
-4.29240036

$$$$

 OpenBabel03242517143D

 21 22  0  0  0  0  0  0  0  0999 V2000
   37.7380   26.2270   42.0810 C   0  0  0  0  0  3  0  0  0  0  0  0
   36.8580   26.9240   42.7630 C   0  0  0  0  0  3  0  0  0  0  0  0
   38.0320   23.8150   41.4820 C   0  0  0  0  0  0  0  0  0  0  0  0
   37.4680   25.0660   41.2550 C   0  0  0  0  0  0  0  0  0  0  0  0
   36.6030   25.1940   40.1790 C   0  0  0  0  0  0  0  0  0  0  0  0
   36.3400   24.1070   39.3920 N   0  0  0  0  0  0  0  0  0  0  0  0
   36.9130   22.9030   39.6500 C   0  0  0  0  0  0  0  0  0  0  0  0
   37.7540   22.7700   40.6940 N   0  0  0  0  0  0  0  0  0  0  0  0
   38.7000   23.7660   42.3340 H   0  0  0  0  0  0  0  0  0  0  0  0
   36.1090   26.1330   39.9150 H   0  0  0  0  0  0  0  0  0  0  0  0
   36.7260   22.0220   39.0490 H   0  0  0  0  0  0  0  0  0  0  0  0
   37.2400   28.1090   43.5880 C   0  0  0  0  0  0  0  0  0  0  0  0
   38.0160   27.7630   44.2980 H   0  0  0  0  0  0  0  0  0  0  0  0
   36.3440   28.4700   44.1300 H   0  0  0  0  0  0  0  0  0  0  0  0
   37.7090   29.2310   42.7470 C   0  0  0  0  0  0  0  0  0  0  0  0
   38.9880   29.7640   42.8740 C   0  0  0  0  0  3  0  0  0  0  0  0
   39.4740   30.8010   42.1230 C   0  0  0  0  0  0  0  0  0  0  0  0
   40.4660   31.1570   42.2760 H   0  0  0  0  0  0  0  0  0  0  0  0
   38.6690   31.3420   41.2000 N   0  0  0  0  0  0  0  0  0  0  0  0
   37.4170   30.8390   41.0580 C   0  0  0  0  0  3  0  0  0  0  0  0
   36.9350   29.8100   41.8040 N   0  0  0  0  0  0  0  0  0  0  0  0
  1  2  2  0  0  0  0
  2 12  1  0  0  0  0
  3  9  1  0  0  0  0
  4  3  1  0  0  0  0
  4  1  1  0  0  0  0
  5  4  2  0  0  0  0
  6  7  2  0  0  0  0
  6  5  1  0  0  0  0
  7  8  1  0  0  0  0
  8  3  2  0  0  0  0
 10  5  1  0  0  0  0
 11  7  1  0  0  0  0
 12 14  1  0  0  0  0
 12 13  1  0  0  0  0
 15 16  1  0  0  0  0
 15 12  1  0  0  0  0
 17 18  1  0  0  0  0
 17 16  2  0  0  0  0
 19 17  1  0  0  0  0
 20 19  2  0  0  0  0
 20 21  1  0  0  0  0
 21 15  2  0  0  0  0
M  END
>  <minimizedAffinity>
-4.17465639

$$$$

 OpenBabel03242517143D

 21 22  0  0  0  0  0  0  0  0999 V2000
   37.3600   30.9550   39.5940 C   0  0  0  0  0  3  0  0  0  0  0  0
   36.3350   30.7920   40.4000 C   0  0  0  0  0  3  0  0  0  0  0  0
   39.4740   32.0680   38.8500 C   0  0  0  0  0  0  0  0  0  0  0  0
   38.3170   32.0430   39.6230 C   0  0  0  0  0  0  0  0  0  0  0  0
   38.0810   33.1230   40.4590 C   0  0  0  0  0  0  0  0  0  0  0  0
   38.9770   34.1560   40.4950 N   0  0  0  0  0  0  0  0  0  0  0  0
   40.0940   34.1400   39.7240 C   0  0  0  0  0  0  0  0  0  0  0  0
   40.3310   33.0940   38.9080 N   0  0  0  0  0  0  0  0  0  0  0  0
   39.6130   31.2020   38.2130 H   0  0  0  0  0  0  0  0  0  0  0  0
   37.2030   33.2000   41.1060 H   0  0  0  0  0  0  0  0  0  0  0  0
   40.8230   34.9400   39.7270 H   0  0  0  0  0  0  0  0  0  0  0  0
   35.4030   29.6310   40.2870 C   0  0  0  0  0  0  0  0  0  0  0  0
   35.0550   29.6060   39.2360 H   0  0  0  0  0  0  0  0  0  0  0  0
   34.5530   29.7880   40.9790 H   0  0  0  0  0  0  0  0  0  0  0  0
   36.0540   28.3670   40.6930 C   0  0  0  0  0  0  0  0  0  0  0  0
   36.4560   28.1320   42.0040 C   0  0  0  0  0  3  0  0  0  0  0  0
   37.0620   26.9810   42.4350 C   0  0  0  0  0  0  0  0  0  0  0  0
   37.3430   26.8720   43.4570 H   0  0  0  0  0  0  0  0  0  0  0  0
   37.2830   26.0120   41.5380 N   0  0  0  0  0  0  0  0  0  0  0  0
   36.9010   26.2180   40.2540 C   0  0  0  0  0  3  0  0  0  0  0  0
   36.3000   27.3600   39.8260 N   0  0  0  0  0  0  0  0  0  0  0  0
  1  4  1  0  0  0  0
  1  2  2  0  0  0  0
  3  8  2  0  0  0  0
  3  4  1  0  0  0  0
  4  5  2  0  0  0  0
  5  6  1  0  0  0  0
  5 10  1  0  0  0  0
  7 11  1  0  0  0  0
  7  6  2  0  0  0  0
  8  7  1  0  0  0  0
  9  3  1  0  0  0  0
 12  2  1  0  0  0  0
 12 15  1  0  0  0  0
 12 14  1  0  0  0  0
 13 12  1  0  0  0  0
 15 16  1  0  0  0  0
 16 17  2  0  0  0  0
 17 18  1  0  0  0  0
 19 17  1  0  0  0  0
 20 19  2  0  0  0  0
 21 20  1  0  0  0  0
 21 15  2  0  0  0  0
M  END
>  <minimizedAffinity>
-4.06058979

$$$$

 OpenBabel03242517143D

 21 22  0  0  0  0  0  0  0  0999 V2000
   37.0000   26.2660   42.0490 C   0  0  0  0  0  3  0  0  0  0  0  0
   37.7760   26.9050   42.8950 C   0  0  0  0  0  3  0  0  0  0  0  0
   36.3580   24.3110   40.6240 C   0  0  0  0  0  0  0  0  0  0  0  0
   37.2820   24.9970   41.4080 C   0  0  0  0  0  0  0  0  0  0  0  0
   38.5320   24.4230   41.5750 C   0  0  0  0  0  0  0  0  0  0  0  0
   38.8100   23.2250   40.9750 N   0  0  0  0  0  0  0  0  0  0  0  0
   37.8790   22.5900   40.2180 C   0  0  0  0  0  0  0  0  0  0  0  0
   36.6610   23.1420   40.0510 N   0  0  0  0  0  0  0  0  0  0  0  0
   35.3970   24.8010   40.5240 H   0  0  0  0  0  0  0  0  0  0  0  0
   39.3270   24.8800   42.1710 H   0  0  0  0  0  0  0  0  0  0  0  0
   38.0660   21.6430   39.7290 H   0  0  0  0  0  0  0  0  0  0  0  0
   37.3920   28.2140   43.5030 C   0  0  0  0  0  0  0  0  0  0  0  0
   37.8960   28.2640   44.4890 H   0  0  0  0  0  0  0  0  0  0  0  0
   36.2920   28.2420   43.6230 H   0  0  0  0  0  0  0  0  0  0  0  0
   37.7550   29.3490   42.6290 C   0  0  0  0  0  0  0  0  0  0  0  0
   36.8420   29.9240   41.7490 C   0  0  0  0  0  3  0  0  0  0  0  0
   37.1230   30.9750   40.9180 C   0  0  0  0  0  0  0  0  0  0  0  0
   36.3720   31.3640   40.2700 H   0  0  0  0  0  0  0  0  0  0  0  0
   38.3580   31.4910   40.9510 N   0  0  0  0  0  0  0  0  0  0  0  0
   39.2650   30.9470   41.8000 C   0  0  0  0  0  3  0  0  0  0  0  0
   38.9860   29.9030   42.6250 N   0  0  0  0  0  0  0  0  0  0  0  0
  1  2  2  0  0  0  0
  2 12  1  0  0  0  0
  3  4  1  0  0  0  0
  4  5  2  0  0  0  0
  4  1  1  0  0  0  0
  5 10  1  0  0  0  0
  6  5  1  0  0  0  0
  7  6  2  0  0  0  0
  8  7  1  0  0  0  0
  8  3  2  0  0  0  0
  9  3  1  0  0  0  0
 11  7  1  0  0  0  0
 12 14  1  0  0  0  0
 12 13  1  0  0  0  0
 15 12  1  0  0  0  0
 16 15  2  0  0  0  0
 17 19  2  0  0  0  0
 17 16  1  0  0  0  0
 18 17  1  0  0  0  0
 19 20  1  0  0  0  0
 20 21  2  0  0  0  0
 21 15  1  0  0  0  0
M  END
>  <minimizedAffinity>
-4.05405521

$$$$

 OpenBabel03242517143D

 21 22  0  0  0  0  0  0  0  0999 V2000
   36.5350   27.7750   40.3050 C   0  0  0  0  0  3  0  0  0  0  0  0
   36.3320   28.7480   41.1650 C   0  0  0  0  0  3  0  0  0  0  0  0
   36.9420   25.3900   39.6670 C   0  0  0  0  0  0  0  0  0  0  0  0
   36.8760   26.4010   40.6200 C   0  0  0  0  0  0  0  0  0  0  0  0
   37.1540   26.0630   41.9350 C   0  0  0  0  0  0  0  0  0  0  0  0
   37.4780   24.7700   42.2440 N   0  0  0  0  0  0  0  0  0  0  0  0
   37.5310   23.8140   41.2830 C   0  0  0  0  0  0  0  0  0  0  0  0
   37.2620   24.1350   40.0020 N   0  0  0  0  0  0  0  0  0  0  0  0
   36.7170   25.7050   38.6550 H   0  0  0  0  0  0  0  0  0  0  0  0
   37.1290   26.7830   42.7570 H   0  0  0  0  0  0  0  0  0  0  0  0
   37.7840   22.7830   41.4920 H   0  0  0  0  0  0  0  0  0  0  0  0
   35.9830   30.1350   40.7370 C   0  0  0  0  0  0  0  0  0  0  0  0
   35.1570   30.4710   41.3950 H   0  0  0  0  0  0  0  0  0  0  0  0
   35.6570   30.1100   39.6790 H   0  0  0  0  0  0  0  0  0  0  0  0
   37.1530   31.0370   40.8000 C   0  0  0  0  0  0  0  0  0  0  0  0
   37.1590   32.2820   40.1810 C   0  0  0  0  0  3  0  0  0  0  0  0
   38.2130   33.1560   40.2070 C   0  0  0  0  0  0  0  0  0  0  0  0
   38.1460   34.0950   39.7090 H   0  0  0  0  0  0  0  0  0  0  0  0
   39.3150   32.7940   40.8760 N   0  0  0  0  0  0  0  0  0  0  0  0
   39.3330   31.5840   41.4880 C   0  0  0  0  0  3  0  0  0  0  0  0
   38.2870   30.7160   41.4610 N   0  0  0  0  0  0  0  0  0  0  0  0
  1  4  1  0  0  0  0
  1  2  2  0  0  0  0
  3  8  2  0  0  0  0
  3  4  1  0  0  0  0
  4  5  2  0  0  0  0
  5  6  1  0  0  0  0
  5 10  1  0  0  0  0
  7 11  1  0  0  0  0
  7  6  2  0  0  0  0
  8  7  1  0  0  0  0
  9  3  1  0  0  0  0
 12 15  1  0  0  0  0
 12  2  1  0  0  0  0
 12 13  1  0  0  0  0
 14 12  1  0  0  0  0
 15 21  1  0  0  0  0
 16 17  1  0  0  0  0
 16 15  2  0  0  0  0
 17 19  2  0  0  0  0
 18 17  1  0  0  0  0
 19 20  1  0  0  0  0
 21 20  2  0  0  0  0
M  END
>  <minimizedAffinity>
-3.9635632

$$$$

 OpenBabel03242517143D

 21 22  0  0  0  0  0  0  0  0999 V2000
   37.0710   27.3800   42.0930 C   0  0  0  0  0  3  0  0  0  0  0  0
   36.9190   26.2590   41.4240 C   0  0  0  0  0  3  0  0  0  0  0  0
   35.8340   29.1570   40.8380 C   0  0  0  0  0  0  0  0  0  0  0  0
   36.9370   28.7250   41.5670 C   0  0  0  0  0  0  0  0  0  0  0  0
   37.9530   29.6390   41.7950 C   0  0  0  0  0  0  0  0  0  0  0  0
   37.8390   30.9110   41.3040 N   0  0  0  0  0  0  0  0  0  0  0  0
   36.7440   31.2910   40.5970 C   0  0  0  0  0  0  0  0  0  0  0  0
   35.7520   30.4070   40.3710 N   0  0  0  0  0  0  0  0  0  0  0  0
   35.0670   28.4060   40.6870 H   0  0  0  0  0  0  0  0  0  0  0  0
   38.8610   29.3990   42.3560 H   0  0  0  0  0  0  0  0  0  0  0  0
   36.6210   32.2880   40.1950 H   0  0  0  0  0  0  0  0  0  0  0  0
   37.0790   24.9180   42.0600 C   0  0  0  0  0  0  0  0  0  0  0  0
   36.2820   24.8330   42.8250 H   0  0  0  0  0  0  0  0  0  0  0  0
   38.0810   24.8640   42.5290 H   0  0  0  0  0  0  0  0  0  0  0  0
   37.0170   23.8290   41.0620 C   0  0  0  0  0  0  0  0  0  0  0  0
   35.9790   23.7310   40.1400 C   0  0  0  0  0  3  0  0  0  0  0  0
   35.8730   22.7460   39.1950 C   0  0  0  0  0  0  0  0  0  0  0  0
   35.0480   22.7350   38.5200 H   0  0  0  0  0  0  0  0  0  0  0  0
   36.8300   21.8110   39.1480 N   0  0  0  0  0  0  0  0  0  0  0  0
   37.8510   21.8860   40.0370 C   0  0  0  0  0  3  0  0  0  0  0  0
   37.9570   22.8630   40.9750 N   0  0  0  0  0  0  0  0  0  0  0  0
  2 12  1  0  0  0  0
  2  1  2  0  0  0  0
  3  4  1  0  0  0  0
  4  5  2  0  0  0  0
  4  1  1  0  0  0  0
  5 10  1  0  0  0  0
  6  5  1  0  0  0  0
  7  6  2  0  0  0  0
  8  7  1  0  0  0  0
  8  3  2  0  0  0  0
  9  3  1  0  0  0  0
 11  7  1  0  0  0  0
 12 14  1  0  0  0  0
 12 13  1  0  0  0  0
 15 12  1  0  0  0  0
 16 15  2  0  0  0  0
 17 16  1  0  0  0  0
 18 17  1  0  0  0  0
 19 17  2  0  0  0  0
 19 20  1  0  0  0  0
 20 21  2  0  0  0  0
 21 15  1  0  0  0  0
M  END
>  <minimizedAffinity>
-3.93309402

$$$$

 OpenBabel03242517143D

 21 22  0  0  0  0  0  0  0  0999 V2000
   38.2410   29.5060   41.5020 C   0  0  0  0  0  3  0  0  0  0  0  0
   37.4040   29.2180   42.4740 C   0  0  0  0  0  3  0  0  0  0  0  0
   36.9520   30.1220   39.4470 C   0  0  0  0  0  0  0  0  0  0  0  0
   37.9770   30.3570   40.3590 C   0  0  0  0  0  0  0  0  0  0  0  0
   38.7790   31.4680   40.1500 C   0  0  0  0  0  0  0  0  0  0  0  0
   38.5400   32.2800   39.0750 N   0  0  0  0  0  0  0  0  0  0  0  0
   37.5280   32.0130   38.2090 C   0  0  0  0  0  0  0  0  0  0  0  0
   36.7450   30.9350   38.4060 N   0  0  0  0  0  0  0  0  0  0  0  0
   36.3550   29.2420   39.6540 H   0  0  0  0  0  0  0  0  0  0  0  0
   39.6090   31.7410   40.8070 H   0  0  0  0  0  0  0  0  0  0  0  0
   37.3110   32.6340   37.3500 H   0  0  0  0  0  0  0  0  0  0  0  0
   37.7750   28.3250   43.6120 C   0  0  0  0  0  0  0  0  0  0  0  0
   36.9300   28.3590   44.3280 H   0  0  0  0  0  0  0  0  0  0  0  0
   38.7020   28.7100   44.0790 H   0  0  0  0  0  0  0  0  0  0  0  0
   38.0680   26.9500   43.1540 C   0  0  0  0  0  0  0  0  0  0  0  0
   37.1120   26.1630   42.5210 C   0  0  0  0  0  3  0  0  0  0  0  0
   37.3290   24.8860   42.0770 C   0  0  0  0  0  0  0  0  0  0  0  0
   36.5470   24.3430   41.5990 H   0  0  0  0  0  0  0  0  0  0  0  0
   38.5430   24.3530   42.2600 N   0  0  0  0  0  0  0  0  0  0  0  0
   39.4920   25.1010   42.8760 C   0  0  0  0  0  3  0  0  0  0  0  0
   39.2770   26.3690   43.3170 N   0  0  0  0  0  0  0  0  0  0  0  0
  1  2  2  0  0  0  0
  2 12  1  0  0  0  0
  3  9  1  0  0  0  0
  3  4  1  0  0  0  0
  4  1  1  0  0  0  0
  5  4  2  0  0  0  0
  5 10  1  0  0  0  0
  6  5  1  0  0  0  0
  7  8  1  0  0  0  0
  7  6  2  0  0  0  0
  8  3  2  0  0  0  0
 11  7  1  0  0  0  0
 12 14  1  0  0  0  0
 12 13  1  0  0  0  0
 15 21  1  0  0  0  0
 15 12  1  0  0  0  0
 16 15  2  0  0  0  0
 17 19  2  0  0  0  0
 17 16  1  0  0  0  0
 18 17  1  0  0  0  0
 19 20  1  0  0  0  0
 20 21  2  0  0  0  0
M  END
>  <minimizedAffinity>
-3.92681551

$$$$
