
 OpenBabel03252504333D

 38 40  0  0  0  0  0  0  0  0999 V2000
   43.6650   35.3460   41.1550 C   0  0  0  0  0  3  0  0  0  0  0  0
   43.8320   35.5360   42.4610 C   0  0  0  0  0  3  0  0  0  0  0  0
   45.1880   35.5960   43.1480 C   0  0  0  0  0  0  0  0  0  0  0  0
   45.4550   36.6380   43.4160 H   0  0  0  0  0  0  0  0  0  0  0  0
   45.9160   35.2310   42.4070 H   0  0  0  0  0  0  0  0  0  0  0  0
   45.0900   34.8130   44.2840 O   0  0  0  0  0  0  0  0  0  0  0  0
   45.7130   32.6610   42.8500 O   0  0  0  0  0  0  0  0  0  0  0  0
   46.0260   33.4180   44.1200 P   0  0  1  0  0  0  0  0  0  0  0  0
   47.6810   33.8270   44.0630 O   0  0  0  0  0  0  0  0  0  0  0  0
   47.8460   34.5730   43.4320 H   0  0  0  0  0  0  0  0  0  0  0  0
   45.8110   32.4160   45.4590 O   0  0  0  0  0  0  0  0  0  0  0  0
   46.1350   33.0470   46.6460 C   0  0  0  0  0  0  0  0  0  0  0  0
   47.0560   32.3670   47.6060 C   0  0  0  0  0  0  0  0  0  0  0  0
   45.5630   32.4100   47.8910 C   0  0  0  0  0  0  0  0  0  0  0  0
   46.2120   34.1500   46.6120 H   0  0  0  0  0  0  0  0  0  0  0  0
   47.5020   31.3890   47.3190 H   0  0  0  0  0  0  0  0  0  0  0  0
   47.6390   33.0190   48.2870 H   0  0  0  0  0  0  0  0  0  0  0  0
   45.0410   31.4390   47.8120 H   0  0  0  0  0  0  0  0  0  0  0  0
   45.1840   33.0830   48.6880 H   0  0  0  0  0  0  0  0  0  0  0  0
   42.3600   35.3140   40.6980 O   0  0  0  0  0  0  0  0  0  0  0  0
   41.2230   35.2820   41.4310 C   0  0  0  0  0  0  0  0  0  0  0  0
   41.3040   35.3110   42.5420 H   0  0  0  0  0  0  0  0  0  0  0  0
   40.5970   36.1930   41.1960 H   0  0  0  0  0  0  0  0  0  0  0  0
   40.8760   32.8890   41.6520 C   0  0  0  0  0  0  0  0  0  0  0  0
   40.3520   34.0930   41.1670 C   0  0  0  0  0  0  0  0  0  0  0  0
   39.1510   34.0880   40.5530 C   0  0  0  0  0  0  0  0  0  0  0  0
   38.5410   32.9050   40.4540 N   0  0  0  0  0  0  0  0  0  0  0  0
   39.0150   31.7480   40.9060 C   0  0  0  0  0  0  0  0  0  0  0  0
   40.2560   31.7110   41.5480 N   0  0  0  0  0  0  0  0  0  0  0  0
   41.8320   32.8250   42.1520 H   0  0  0  0  0  0  0  0  0  0  0  0
   38.7840   35.0260   40.1940 H   0  0  0  0  0  0  0  0  0  0  0  0
   38.3000   30.4810   40.7700 C   0  0  0  0  0  0  0  0  0  0  0  0
   38.3350   29.6230   41.8520 C   0  0  0  0  0  3  0  0  0  0  0  0
   37.6420   28.4170   41.6910 C   0  0  0  0  0  0  0  0  0  0  0  0
   37.6750   27.7520   42.5460 H   0  0  0  0  0  0  0  0  0  0  0  0
   36.9820   28.1060   40.5630 N   0  0  0  0  0  0  0  0  0  0  0  0
   36.9760   28.9740   39.5360 C   0  0  0  0  0  3  0  0  0  0  0  0
   37.6380   30.1620   39.6430 N   0  0  0  0  0  0  0  0  0  0  0  0
  1  2  2  0  0  0  0
  2  3  1  0  0  0  0
  3  4  1  0  0  0  0
  3  6  1  0  0  0  0
  5  3  1  0  0  0  0
  8  7  2  6  0  0  0
  8  6  1  0  0  0  0
  8 11  1  0  0  0  0
  9  8  1  0  0  0  0
 10  9  1  0  0  0  0
 11 12  1  0  0  0  0
 12 13  1  0  0  0  0
 12 14  1  0  0  0  0
 13 14  1  0  0  0  0
 13 17  1  0  0  0  0
 14 19  1  0  0  0  0
 15 12  1  0  0  0  0
 16 13  1  0  0  0  0
 18 14  1  0  0  0  0
 20  1  1  0  0  0  0
 20 21  1  0  0  0  0
 21 22  1  0  0  0  0
 23 21  1  0  0  0  0
 24 30  1  0  0  0  0
 25 21  1  0  0  0  0
 25 24  2  0  0  0  0
 26 25  1  0  0  0  0
 27 26  2  0  0  0  0
 27 28  1  0  0  0  0
 28 29  2  0  0  0  0
 29 24  1  0  0  0  0
 31 26  1  0  0  0  0
 32 28  1  0  0  0  0
 32 33  1  0  0  0  0
 34 33  2  0  0  0  0
 34 35  1  0  0  0  0
 36 34  1  0  0  0  0
 37 38  1  0  0  0  0
 37 36  2  0  0  0  0
 38 32  2  0  0  0  0
M  END
>  <minimizedAffinity>
-4.98908424

>  <minimizedRMSD>
1.19021261

$$$$
