
 OpenBabel03252506113D

 28 30  0  0  0  0  0  0  0  0999 V2000
   38.1780   28.1650   39.7370 F   0  0  0  0  0  0  0  0  0  0  0  0
   37.7840   27.9840   40.9900 C   0  0  0  0  0  0  0  0  0  0  0  0
   37.8120   29.0430   41.8750 C   0  0  0  0  0  0  0  0  0  0  0  0
   37.4200   28.9420   43.1920 C   0  0  0  0  0  0  0  0  0  0  0  0
   36.9690   27.7130   43.6800 C   0  0  0  0  0  0  0  0  0  0  0  0
   36.9580   26.6800   42.7610 C   0  0  0  0  0  0  0  0  0  0  0  0
   37.3480   26.7650   41.4310 C   0  0  0  0  0  0  0  0  0  0  0  0
   37.4660   29.8140   43.8350 H   0  0  0  0  0  0  0  0  0  0  0  0
   36.6590   27.5970   44.6900 H   0  0  0  0  0  0  0  0  0  0  0  0
   36.5940   25.7410   43.2020 H   0  0  0  0  0  0  0  0  0  0  0  0
   37.8470   32.4570   40.4780 C   0  0  0  0  0  0  0  0  0  0  0  0
   39.2190   32.7890   40.5790 C   0  0  0  0  0  0  0  0  0  0  0  0
   40.1100   31.8510   41.1180 C   0  0  0  0  0  0  0  0  0  0  0  0
   39.5860   30.6600   41.5160 N   0  0  0  0  0  0  0  0  0  0  0  0
   38.2780   30.3620   41.4130 C   0  0  0  0  0  0  0  0  0  0  0  0
   37.4410   31.2570   40.9010 N   0  0  0  0  0  0  0  0  0  0  0  0
   39.5470   33.7600   40.2360 H   0  0  0  0  0  0  0  0  0  0  0  0
   41.1500   32.0790   41.2030 H   0  0  0  0  0  0  0  0  0  0  0  0
   36.9490   33.4080   39.9330 N   0  0  0  0  0  0  0  0  0  0  0  0
   36.6700   33.2910   38.9390 H   0  0  0  0  0  0  0  0  0  0  0  0
   36.5520   34.2150   40.4590 H   0  0  0  0  0  0  0  0  0  0  0  0
   37.2520   25.5630   40.6630 C   0  0  0  0  0  0  0  0  0  0  0  0
   36.5690   25.3470   39.4920 C   0  0  0  0  0  3  0  0  0  0  0  0
   36.5080   24.1630   38.7900 C   0  0  0  0  0  0  0  0  0  0  0  0
   35.9410   24.0910   37.8720 H   0  0  0  0  0  0  0  0  0  0  0  0
   37.1760   23.1050   39.2810 N   0  0  0  0  0  0  0  0  0  0  0  0
   37.8600   23.2720   40.4280 C   0  0  0  0  0  3  0  0  0  0  0  0
   37.8820   24.4480   41.0680 N   0  0  0  0  0  0  0  0  0  0  0  0
  1  2  1  0  0  0  0
  2  7  2  0  0  0  0
  2  3  1  0  0  0  0
  3  4  2  0  0  0  0
  4  5  1  0  0  0  0
  4  8  1  0  0  0  0
  5  9  1  0  0  0  0
  6 10  1  0  0  0  0
  6  5  2  0  0  0  0
  7  6  1  0  0  0  0
 11 12  2  0  0  0  0
 11 16  1  0  0  0  0
 12 13  1  0  0  0  0
 13 18  1  0  0  0  0
 13 14  2  0  0  0  0
 15 14  1  0  0  0  0
 15  3  1  0  0  0  0
 16 15  2  0  0  0  0
 17 12  1  0  0  0  0
 19 21  1  0  0  0  0
 19 11  1  0  0  0  0
 20 19  1  0  0  0  0
 22 28  1  0  0  0  0
 22  7  1  0  0  0  0
 23 22  2  0  0  0  0
 24 26  2  0  0  0  0
 24 23  1  0  0  0  0
 25 24  1  0  0  0  0
 26 27  1  0  0  0  0
 27 28  2  0  0  0  0
M  END
>  <minimizedAffinity>
-5.68578768

$$$$

 OpenBabel03252506113D

 28 30  0  0  0  0  0  0  0  0999 V2000
   40.2360   29.1690   41.0400 F   0  0  0  0  0  0  0  0  0  0  0  0
   39.3180   28.6780   41.8620 C   0  0  0  0  0  0  0  0  0  0  0  0
   38.0020   29.0760   41.7340 C   0  0  0  0  0  0  0  0  0  0  0  0
   36.9880   28.6140   42.5450 C   0  0  0  0  0  0  0  0  0  0  0  0
   37.2830   27.6960   43.5550 C   0  0  0  0  0  0  0  0  0  0  0  0
   38.6120   27.3250   43.6480 C   0  0  0  0  0  0  0  0  0  0  0  0
   39.6460   27.7800   42.8390 C   0  0  0  0  0  0  0  0  0  0  0  0
   35.9750   28.9670   42.3910 H   0  0  0  0  0  0  0  0  0  0  0  0
   36.5270   27.3180   44.2000 H   0  0  0  0  0  0  0  0  0  0  0  0
   38.7830   26.6020   44.4590 H   0  0  0  0  0  0  0  0  0  0  0  0
   37.3270   32.2410   39.9660 C   0  0  0  0  0  0  0  0  0  0  0  0
   36.9420   31.7740   38.6860 C   0  0  0  0  0  0  0  0  0  0  0  0
   36.9160   30.3930   38.4440 C   0  0  0  0  0  0  0  0  0  0  0  0
   37.2710   29.5790   39.4760 N   0  0  0  0  0  0  0  0  0  0  0  0
   37.6350   30.0420   40.6850 C   0  0  0  0  0  0  0  0  0  0  0  0
   37.6570   31.3510   40.9050 N   0  0  0  0  0  0  0  0  0  0  0  0
   36.6750   32.4930   37.9270 H   0  0  0  0  0  0  0  0  0  0  0  0
   36.6280   30.0170   37.4870 H   0  0  0  0  0  0  0  0  0  0  0  0
   37.3520   33.6370   40.2070 N   0  0  0  0  0  0  0  0  0  0  0  0
   36.5430   34.0530   40.7070 H   0  0  0  0  0  0  0  0  0  0  0  0
   38.1250   34.2730   39.9160 H   0  0  0  0  0  0  0  0  0  0  0  0
   40.9460   27.2570   43.1190 C   0  0  0  0  0  0  0  0  0  0  0  0
   42.0990   27.9420   43.4160 C   0  0  0  0  0  3  0  0  0  0  0  0
   43.3330   27.3880   43.6780 C   0  0  0  0  0  0  0  0  0  0  0  0
   44.1860   28.0140   43.9030 H   0  0  0  0  0  0  0  0  0  0  0  0
   43.4400   26.0480   43.6460 N   0  0  0  0  0  0  0  0  0  0  0  0
   42.3350   25.3360   43.3590 C   0  0  0  0  0  3  0  0  0  0  0  0
   41.1610   25.9320   43.1120 N   0  0  0  0  0  0  0  0  0  0  0  0
  1  2  1  0  0  0  0
  2  7  1  0  0  0  0
  3  2  2  0  0  0  0
  3  4  1  0  0  0  0
  4  5  2  0  0  0  0
  5  6  1  0  0  0  0
  5  9  1  0  0  0  0
  6 10  1  0  0  0  0
  7 22  1  0  0  0  0
  7  6  2  0  0  0  0
  8  4  1  0  0  0  0
 11 19  1  0  0  0  0
 11 16  1  0  0  0  0
 12 11  2  0  0  0  0
 13 12  1  0  0  0  0
 13 14  2  0  0  0  0
 14 15  1  0  0  0  0
 15 16  2  0  0  0  0
 15  3  1  0  0  0  0
 17 12  1  0  0  0  0
 18 13  1  0  0  0  0
 19 20  1  0  0  0  0
 21 19  1  0  0  0  0
 22 23  1  0  0  0  0
 23 24  2  0  0  0  0
 24 25  1  0  0  0  0
 26 24  1  0  0  0  0
 27 26  2  0  0  0  0
 28 22  2  0  0  0  0
 28 27  1  0  0  0  0
M  END
>  <minimizedAffinity>
-5.47515678

$$$$

 OpenBabel03252506113D

 28 30  0  0  0  0  0  0  0  0999 V2000
   37.7910   27.8670   39.6280 F   0  0  0  0  0  0  0  0  0  0  0  0
   37.5190   27.8470   40.9260 C   0  0  0  0  0  0  0  0  0  0  0  0
   37.1330   26.6660   41.5260 C   0  0  0  0  0  0  0  0  0  0  0  0
   36.8340   26.5590   42.8670 C   0  0  0  0  0  0  0  0  0  0  0  0
   36.9170   27.6910   43.6800 C   0  0  0  0  0  0  0  0  0  0  0  0
   37.3070   28.8520   43.0390 C   0  0  0  0  0  0  0  0  0  0  0  0
   37.6130   28.9780   41.6900 C   0  0  0  0  0  0  0  0  0  0  0  0
   36.5360   25.5990   43.2760 H   0  0  0  0  0  0  0  0  0  0  0  0
   36.6930   27.6460   44.7190 H   0  0  0  0  0  0  0  0  0  0  0  0
   37.3540   29.7080   43.7280 H   0  0  0  0  0  0  0  0  0  0  0  0
   37.5570   23.1970   40.3470 C   0  0  0  0  0  0  0  0  0  0  0  0
   36.7880   23.2060   39.1590 C   0  0  0  0  0  0  0  0  0  0  0  0
   36.1390   24.3890   38.7760 C   0  0  0  0  0  0  0  0  0  0  0  0
   36.2950   25.4690   39.5880 N   0  0  0  0  0  0  0  0  0  0  0  0
   37.0290   25.4410   40.7150 C   0  0  0  0  0  0  0  0  0  0  0  0
   37.6400   24.3160   41.0700 N   0  0  0  0  0  0  0  0  0  0  0  0
   36.7200   22.3010   38.5740 H   0  0  0  0  0  0  0  0  0  0  0  0
   35.5540   24.4200   37.8830 H   0  0  0  0  0  0  0  0  0  0  0  0
   38.2100   22.0000   40.7310 N   0  0  0  0  0  0  0  0  0  0  0  0
   39.2220   21.9140   40.5160 H   0  0  0  0  0  0  0  0  0  0  0  0
   37.7450   21.2010   41.2130 H   0  0  0  0  0  0  0  0  0  0  0  0
   37.9940   30.2810   41.2440 C   0  0  0  0  0  0  0  0  0  0  0  0
   39.2150   30.9000   41.3490 C   0  0  0  0  0  3  0  0  0  0  0  0
   39.5310   32.1640   40.9030 C   0  0  0  0  0  0  0  0  0  0  0  0
   40.5270   32.5670   41.0320 H   0  0  0  0  0  0  0  0  0  0  0  0
   38.5640   32.8780   40.3000 N   0  0  0  0  0  0  0  0  0  0  0  0
   37.3500   32.3110   40.1750 C   0  0  0  0  0  3  0  0  0  0  0  0
   37.1020   31.0760   40.6310 N   0  0  0  0  0  0  0  0  0  0  0  0
  1  2  1  0  0  0  0
  2  3  2  0  0  0  0
  2  7  1  0  0  0  0
  3  4  1  0  0  0  0
  4  8  1  0  0  0  0
  4  5  2  0  0  0  0
  5  9  1  0  0  0  0
  6  5  1  0  0  0  0
  6 10  1  0  0  0  0
  7  6  2  0  0  0  0
 11 19  1  0  0  0  0
 11 16  1  0  0  0  0
 12 11  2  0  0  0  0
 13 12  1  0  0  0  0
 13 14  2  0  0  0  0
 14 15  1  0  0  0  0
 15 16  2  0  0  0  0
 15  3  1  0  0  0  0
 17 12  1  0  0  0  0
 18 13  1  0  0  0  0
 19 21  1  0  0  0  0
 20 19  1  0  0  0  0
 22 23  1  0  0  0  0
 22  7  1  0  0  0  0
 24 25  1  0  0  0  0
 24 23  2  0  0  0  0
 26 24  1  0  0  0  0
 27 26  2  0  0  0  0
 27 28  1  0  0  0  0
 28 22  2  0  0  0  0
M  END
>  <minimizedAffinity>
-5.36786461

$$$$

 OpenBabel03252506113D

 28 30  0  0  0  0  0  0  0  0999 V2000
   39.3450   28.5940   40.1850 F   0  0  0  0  0  0  0  0  0  0  0  0
   38.0650   28.9260   40.2890 C   0  0  0  0  0  0  0  0  0  0  0  0
   37.6790   30.2360   40.0890 C   0  0  0  0  0  0  0  0  0  0  0  0
   36.3730   30.6640   40.1790 C   0  0  0  0  0  0  0  0  0  0  0  0
   35.3700   29.7430   40.4880 C   0  0  0  0  0  0  0  0  0  0  0  0
   35.7990   28.4430   40.6800 C   0  0  0  0  0  0  0  0  0  0  0  0
   37.1110   27.9940   40.5930 C   0  0  0  0  0  0  0  0  0  0  0  0
   36.1370   31.7090   40.0100 H   0  0  0  0  0  0  0  0  0  0  0  0
   34.3500   30.0370   40.5650 H   0  0  0  0  0  0  0  0  0  0  0  0
   34.9670   27.7650   40.9190 H   0  0  0  0  0  0  0  0  0  0  0  0
   40.0480   32.3400   38.2010 C   0  0  0  0  0  0  0  0  0  0  0  0
   40.5870   33.1510   39.2290 C   0  0  0  0  0  0  0  0  0  0  0  0
   40.1390   32.9710   40.5450 C   0  0  0  0  0  0  0  0  0  0  0  0
   39.1970   32.0100   40.7510 N   0  0  0  0  0  0  0  0  0  0  0  0
   38.6970   31.2490   39.7610 C   0  0  0  0  0  0  0  0  0  0  0  0
   39.1270   31.4270   38.5170 N   0  0  0  0  0  0  0  0  0  0  0  0
   41.3320   33.8900   38.9740 H   0  0  0  0  0  0  0  0  0  0  0  0
   40.5310   33.5710   41.3370 H   0  0  0  0  0  0  0  0  0  0  0  0
   40.5030   32.5250   36.8730 N   0  0  0  0  0  0  0  0  0  0  0  0
   41.2170   31.8640   36.5120 H   0  0  0  0  0  0  0  0  0  0  0  0
   40.1710   33.2790   36.2340 H   0  0  0  0  0  0  0  0  0  0  0  0
   37.3220   26.6010   40.8320 C   0  0  0  0  0  0  0  0  0  0  0  0
   37.1920   25.9040   42.0090 C   0  0  0  0  0  3  0  0  0  0  0  0
   37.4100   24.5560   42.1870 C   0  0  0  0  0  0  0  0  0  0  0  0
   37.2810   24.0960   43.1570 H   0  0  0  0  0  0  0  0  0  0  0  0
   37.7830   23.8320   41.1160 N   0  0  0  0  0  0  0  0  0  0  0  0
   37.9220   24.4740   39.9420 C   0  0  0  0  0  3  0  0  0  0  0  0
   37.6980   25.7900   39.8300 N   0  0  0  0  0  0  0  0  0  0  0  0
  1  2  1  0  0  0  0
  2  7  1  0  0  0  0
  3  4  1  0  0  0  0
  3  2  2  0  0  0  0
  4  5  2  0  0  0  0
  5  9  1  0  0  0  0
  5  6  1  0  0  0  0
  6 10  1  0  0  0  0
  7  6  2  0  0  0  0
  7 22  1  0  0  0  0
  8  4  1  0  0  0  0
 11 16  2  0  0  0  0
 11 12  1  0  0  0  0
 12 13  2  0  0  0  0
 13 14  1  0  0  0  0
 13 18  1  0  0  0  0
 15  3  1  0  0  0  0
 15 14  2  0  0  0  0
 16 15  1  0  0  0  0
 17 12  1  0  0  0  0
 19 11  1  0  0  0  0
 20 19  1  0  0  0  0
 21 19  1  0  0  0  0
 22 23  1  0  0  0  0
 23 24  2  0  0  0  0
 24 25  1  0  0  0  0
 26 24  1  0  0  0  0
 27 26  2  0  0  0  0
 28 27  1  0  0  0  0
 28 22  2  0  0  0  0
M  END
>  <minimizedAffinity>
-5.33828974

$$$$

 OpenBabel03252506113D

 28 30  0  0  0  0  0  0  0  0999 V2000
   39.9580   28.9030   41.3140 F   0  0  0  0  0  0  0  0  0  0  0  0
   38.6400   29.0180   41.2170 C   0  0  0  0  0  0  0  0  0  0  0  0
   37.8320   27.9660   41.5970 C   0  0  0  0  0  0  0  0  0  0  0  0
   36.4560   28.0030   41.5290 C   0  0  0  0  0  0  0  0  0  0  0  0
   35.8240   29.1540   41.0550 C   0  0  0  0  0  0  0  0  0  0  0  0
   36.6710   30.1840   40.6860 C   0  0  0  0  0  0  0  0  0  0  0  0
   38.0580   30.1640   40.7480 C   0  0  0  0  0  0  0  0  0  0  0  0
   35.8790   27.1400   41.8430 H   0  0  0  0  0  0  0  0  0  0  0  0
   34.7650   29.2190   40.9890 H   0  0  0  0  0  0  0  0  0  0  0  0
   36.1170   31.0620   40.3220 H   0  0  0  0  0  0  0  0  0  0  0  0
   38.7250   24.4110   42.0110 C   0  0  0  0  0  0  0  0  0  0  0  0
   39.6250   24.4710   43.1020 C   0  0  0  0  0  0  0  0  0  0  0  0
   39.9150   25.7150   43.6790 C   0  0  0  0  0  0  0  0  0  0  0  0
   39.2980   26.8040   43.1420 N   0  0  0  0  0  0  0  0  0  0  0  0
   38.4460   26.7270   42.1050 C   0  0  0  0  0  0  0  0  0  0  0  0
   38.1780   25.5440   41.5630 N   0  0  0  0  0  0  0  0  0  0  0  0
   40.0680   23.5550   43.4640 H   0  0  0  0  0  0  0  0  0  0  0  0
   40.5900   25.7850   44.5040 H   0  0  0  0  0  0  0  0  0  0  0  0
   38.4350   23.1520   41.4300 N   0  0  0  0  0  0  0  0  0  0  0  0
   37.5500   22.6860   41.7070 H   0  0  0  0  0  0  0  0  0  0  0  0
   39.0500   22.6620   40.7450 H   0  0  0  0  0  0  0  0  0  0  0  0
   38.7300   31.3470   40.3120 C   0  0  0  0  0  0  0  0  0  0  0  0
   39.5810   31.5060   39.2470 C   0  0  0  0  0  3  0  0  0  0  0  0
   40.2060   32.6740   38.8680 C   0  0  0  0  0  0  0  0  0  0  0  0
   40.8630   32.6990   38.0090 H   0  0  0  0  0  0  0  0  0  0  0  0
   39.9710   33.7780   39.5990 N   0  0  0  0  0  0  0  0  0  0  0  0
   39.1420   33.6690   40.6530 C   0  0  0  0  0  3  0  0  0  0  0  0
   38.5630   32.5040   40.9740 N   0  0  0  0  0  0  0  0  0  0  0  0
  2  1  1  0  0  0  0
  2  3  1  0  0  0  0
  3 15  1  0  0  0  0
  4  3  2  0  0  0  0
  4  8  1  0  0  0  0
  5  4  1  0  0  0  0
  6  7  1  0  0  0  0
  6  5  2  0  0  0  0
  7  2  2  0  0  0  0
  9  5  1  0  0  0  0
 10  6  1  0  0  0  0
 11 12  1  0  0  0  0
 12 17  1  0  0  0  0
 12 13  2  0  0  0  0
 13 18  1  0  0  0  0
 14 13  1  0  0  0  0
 15 14  2  0  0  0  0
 16 11  2  0  0  0  0
 16 15  1  0  0  0  0
 19 20  1  0  0  0  0
 19 11  1  0  0  0  0
 21 19  1  0  0  0  0
 22  7  1  0  0  0  0
 22 28  1  0  0  0  0
 23 22  2  0  0  0  0
 24 23  1  0  0  0  0
 24 26  2  0  0  0  0
 25 24  1  0  0  0  0
 26 27  1  0  0  0  0
 27 28  2  0  0  0  0
M  END
>  <minimizedAffinity>
-5.32571316

$$$$

 OpenBabel03252506113D

 28 30  0  0  0  0  0  0  0  0999 V2000
   39.6600   29.6160   41.2480 F   0  0  0  0  0  0  0  0  0  0  0  0
   38.3780   29.2770   41.2060 C   0  0  0  0  0  0  0  0  0  0  0  0
   37.4320   30.2230   40.8680 C   0  0  0  0  0  0  0  0  0  0  0  0
   36.0820   29.9540   40.8020 C   0  0  0  0  0  0  0  0  0  0  0  0
   35.6250   28.6660   41.0880 C   0  0  0  0  0  0  0  0  0  0  0  0
   36.6060   27.7500   41.4210 C   0  0  0  0  0  0  0  0  0  0  0  0
   37.9700   28.0040   41.4920 C   0  0  0  0  0  0  0  0  0  0  0  0
   35.3900   30.7430   40.5290 H   0  0  0  0  0  0  0  0  0  0  0  0
   34.5900   28.4210   41.0460 H   0  0  0  0  0  0  0  0  0  0  0  0
   36.1870   26.7560   41.6350 H   0  0  0  0  0  0  0  0  0  0  0  0
   39.4490   33.3030   40.6580 C   0  0  0  0  0  0  0  0  0  0  0  0
   38.5800   34.1610   39.9410 C   0  0  0  0  0  0  0  0  0  0  0  0
   37.3250   33.6820   39.5420 C   0  0  0  0  0  0  0  0  0  0  0  0
   37.0190   32.3980   39.8760 N   0  0  0  0  0  0  0  0  0  0  0  0
   37.8580   31.5980   40.5570 C   0  0  0  0  0  0  0  0  0  0  0  0
   39.0460   32.0600   40.9310 N   0  0  0  0  0  0  0  0  0  0  0  0
   38.9070   35.1660   39.7200 H   0  0  0  0  0  0  0  0  0  0  0  0
   36.6520   34.3110   39.0010 H   0  0  0  0  0  0  0  0  0  0  0  0
   40.7170   33.7910   41.0590 N   0  0  0  0  0  0  0  0  0  0  0  0
   40.8210   34.1080   42.0420 H   0  0  0  0  0  0  0  0  0  0  0  0
   41.5500   33.8530   40.4360 H   0  0  0  0  0  0  0  0  0  0  0  0
   38.8010   26.9010   41.8600 C   0  0  0  0  0  0  0  0  0  0  0  0
   39.0300   26.3780   43.1090 C   0  0  0  0  0  3  0  0  0  0  0  0
   39.8450   25.3100   43.4100 C   0  0  0  0  0  0  0  0  0  0  0  0
   39.9610   24.9700   44.4300 H   0  0  0  0  0  0  0  0  0  0  0  0
   40.4880   24.7040   42.3960 N   0  0  0  0  0  0  0  0  0  0  0  0
   40.2930   25.1830   41.1540 C   0  0  0  0  0  3  0  0  0  0  0  0
   39.4880   26.2280   40.9220 N   0  0  0  0  0  0  0  0  0  0  0  0
  2  1  1  0  0  0  0
  2  7  1  0  0  0  0
  3  2  2  0  0  0  0
  4  3  1  0  0  0  0
  4  5  2  0  0  0  0
  5  6  1  0  0  0  0
  6  7  2  0  0  0  0
  6 10  1  0  0  0  0
  7 22  1  0  0  0  0
  8  4  1  0  0  0  0
  9  5  1  0  0  0  0
 11 16  1  0  0  0  0
 11 19  1  0  0  0  0
 12 11  2  0  0  0  0
 13 14  2  0  0  0  0
 13 12  1  0  0  0  0
 14 15  1  0  0  0  0
 15  3  1  0  0  0  0
 15 16  2  0  0  0  0
 17 12  1  0  0  0  0
 18 13  1  0  0  0  0
 19 20  1  0  0  0  0
 21 19  1  0  0  0  0
 22 23  1  0  0  0  0
 23 24  2  0  0  0  0
 24 25  1  0  0  0  0
 26 24  1  0  0  0  0
 27 26  2  0  0  0  0
 28 27  1  0  0  0  0
 28 22  2  0  0  0  0
M  END
>  <minimizedAffinity>
-5.29403257

$$$$

 OpenBabel03252506113D

 28 30  0  0  0  0  0  0  0  0999 V2000
   39.6730   27.9490   40.4060 F   0  0  0  0  0  0  0  0  0  0  0  0
   38.7420   27.8540   41.3450 C   0  0  0  0  0  0  0  0  0  0  0  0
   39.1080   27.5690   42.6450 C   0  0  0  0  0  0  0  0  0  0  0  0
   38.2050   27.4530   43.6790 C   0  0  0  0  0  0  0  0  0  0  0  0
   36.8430   27.6270   43.4230 C   0  0  0  0  0  0  0  0  0  0  0  0
   36.5210   27.9110   42.1080 C   0  0  0  0  0  0  0  0  0  0  0  0
   37.4170   28.0320   41.0540 C   0  0  0  0  0  0  0  0  0  0  0  0
   38.5590   27.2280   44.6790 H   0  0  0  0  0  0  0  0  0  0  0  0
   36.1180   27.5450   44.1960 H   0  0  0  0  0  0  0  0  0  0  0  0
   35.4370   28.0370   41.9680 H   0  0  0  0  0  0  0  0  0  0  0  0
   42.3630   25.9720   43.3190 C   0  0  0  0  0  0  0  0  0  0  0  0
   43.1810   27.0970   43.5830 C   0  0  0  0  0  0  0  0  0  0  0  0
   42.6150   28.3790   43.5290 C   0  0  0  0  0  0  0  0  0  0  0  0
   41.2920   28.4570   43.2200 N   0  0  0  0  0  0  0  0  0  0  0  0
   40.5310   27.3760   42.9720 C   0  0  0  0  0  0  0  0  0  0  0  0
   41.0750   26.1660   43.0250 N   0  0  0  0  0  0  0  0  0  0  0  0
   44.2220   26.9410   43.8220 H   0  0  0  0  0  0  0  0  0  0  0  0
   43.2120   29.2420   43.7260 H   0  0  0  0  0  0  0  0  0  0  0  0
   42.9390   24.6790   43.3740 N   0  0  0  0  0  0  0  0  0  0  0  0
   42.7880   24.1210   44.2370 H   0  0  0  0  0  0  0  0  0  0  0  0
   43.5030   24.2500   42.6100 H   0  0  0  0  0  0  0  0  0  0  0  0
   36.8550   28.3300   39.7750 C   0  0  0  0  0  0  0  0  0  0  0  0
   36.1360   27.5080   38.9420 C   0  0  0  0  0  3  0  0  0  0  0  0
   35.6150   27.8460   37.7130 C   0  0  0  0  0  0  0  0  0  0  0  0
   35.0600   27.1260   37.1280 H   0  0  0  0  0  0  0  0  0  0  0  0
   35.8170   29.0990   37.2660 N   0  0  0  0  0  0  0  0  0  0  0  0
   36.5170   29.9390   38.0500 C   0  0  0  0  0  3  0  0  0  0  0  0
   37.0010   29.5520   39.2380 N   0  0  0  0  0  0  0  0  0  0  0  0
  1  2  1  0  0  0  0
  2  3  1  0  0  0  0
  3 15  1  0  0  0  0
  3  4  2  0  0  0  0
  4  8  1  0  0  0  0
  5  4  1  0  0  0  0
  5  9  1  0  0  0  0
  6  5  2  0  0  0  0
  7  2  2  0  0  0  0
  7  6  1  0  0  0  0
 10  6  1  0  0  0  0
 11 19  1  0  0  0  0
 11 12  1  0  0  0  0
 12 17  1  0  0  0  0
 13 12  2  0  0  0  0
 13 18  1  0  0  0  0
 14 13  1  0  0  0  0
 15 16  1  0  0  0  0
 15 14  2  0  0  0  0
 16 11  2  0  0  0  0
 19 20  1  0  0  0  0
 21 19  1  0  0  0  0
 22  7  1  0  0  0  0
 23 22  2  0  0  0  0
 24 23  1  0  0  0  0
 25 24  1  0  0  0  0
 26 24  2  0  0  0  0
 26 27  1  0  0  0  0
 27 28  2  0  0  0  0
 28 22  1  0  0  0  0
M  END
>  <minimizedAffinity>
-5.22147179

$$$$

 OpenBabel03252506113D

 28 30  0  0  0  0  0  0  0  0999 V2000
   36.1040   26.6570   39.1370 F   0  0  0  0  0  0  0  0  0  0  0  0
   36.2400   27.7420   39.8870 C   0  0  0  0  0  0  0  0  0  0  0  0
   35.6630   28.9290   39.4840 C   0  0  0  0  0  0  0  0  0  0  0  0
   35.7560   30.1000   40.2030 C   0  0  0  0  0  0  0  0  0  0  0  0
   36.4670   30.1110   41.4050 C   0  0  0  0  0  0  0  0  0  0  0  0
   37.0290   28.9020   41.7710 C   0  0  0  0  0  0  0  0  0  0  0  0
   36.9440   27.7120   41.0590 C   0  0  0  0  0  0  0  0  0  0  0  0
   35.2780   30.9990   39.8300 H   0  0  0  0  0  0  0  0  0  0  0  0
   36.5600   30.9960   41.9870 H   0  0  0  0  0  0  0  0  0  0  0  0
   37.5750   28.9730   42.7230 H   0  0  0  0  0  0  0  0  0  0  0  0
   32.8680   28.9560   37.0770 C   0  0  0  0  0  0  0  0  0  0  0  0
   33.5570   29.0650   35.8450 C   0  0  0  0  0  0  0  0  0  0  0  0
   34.9570   29.1260   35.8500 C   0  0  0  0  0  0  0  0  0  0  0  0
   35.5730   29.0770   37.0630 N   0  0  0  0  0  0  0  0  0  0  0  0
   34.9010   28.9740   38.2240 C   0  0  0  0  0  0  0  0  0  0  0  0
   33.5740   28.9160   38.2100 N   0  0  0  0  0  0  0  0  0  0  0  0
   32.9850   29.0960   34.9300 H   0  0  0  0  0  0  0  0  0  0  0  0
   35.4990   29.2080   34.9330 H   0  0  0  0  0  0  0  0  0  0  0  0
   31.4530   28.8940   37.0680 N   0  0  0  0  0  0  0  0  0  0  0  0
   31.0110   27.9590   37.1630 H   0  0  0  0  0  0  0  0  0  0  0  0
   30.8260   29.7210   36.9720 H   0  0  0  0  0  0  0  0  0  0  0  0
   37.6060   26.5820   41.6310 C   0  0  0  0  0  0  0  0  0  0  0  0
   37.1840   25.2760   41.6800 C   0  0  0  0  0  3  0  0  0  0  0  0
   37.8630   24.2200   42.2470 C   0  0  0  0  0  0  0  0  0  0  0  0
   37.4460   23.2220   42.2360 H   0  0  0  0  0  0  0  0  0  0  0  0
   39.0590   24.4700   42.8100 N   0  0  0  0  0  0  0  0  0  0  0  0
   39.5120   25.7370   42.7840 C   0  0  0  0  0  3  0  0  0  0  0  0
   38.8050   26.7250   42.2190 N   0  0  0  0  0  0  0  0  0  0  0  0
  1  2  1  0  0  0  0
  2  7  1  0  0  0  0
  3  2  2  0  0  0  0
  3  4  1  0  0  0  0
  4  5  2  0  0  0  0
  5  6  1  0  0  0  0
  5  9  1  0  0  0  0
  6 10  1  0  0  0  0
  7 22  1  0  0  0  0
  7  6  2  0  0  0  0
  8  4  1  0  0  0  0
 11 16  1  0  0  0  0
 12 13  1  0  0  0  0
 12 11  2  0  0  0  0
 13 14  2  0  0  0  0
 14 15  1  0  0  0  0
 15  3  1  0  0  0  0
 16 15  2  0  0  0  0
 17 12  1  0  0  0  0
 18 13  1  0  0  0  0
 19 11  1  0  0  0  0
 19 20  1  0  0  0  0
 21 19  1  0  0  0  0
 22 23  2  0  0  0  0
 22 28  1  0  0  0  0
 23 24  1  0  0  0  0
 24 26  2  0  0  0  0
 25 24  1  0  0  0  0
 27 26  1  0  0  0  0
 28 27  2  0  0  0  0
M  END
>  <minimizedAffinity>
-5.17052507

$$$$

 OpenBabel03252506113D

 28 30  0  0  0  0  0  0  0  0999 V2000
   40.1900   30.1050   40.4550 F   0  0  0  0  0  0  0  0  0  0  0  0
   39.1970   30.9550   40.2330 C   0  0  0  0  0  0  0  0  0  0  0  0
   37.9290   30.6610   40.6900 C   0  0  0  0  0  0  0  0  0  0  0  0
   36.8440   31.4890   40.5030 C   0  0  0  0  0  0  0  0  0  0  0  0
   37.0120   32.6930   39.8150 C   0  0  0  0  0  0  0  0  0  0  0  0
   38.2970   32.9490   39.3750 C   0  0  0  0  0  0  0  0  0  0  0  0
   39.4020   32.1260   39.5560 C   0  0  0  0  0  0  0  0  0  0  0  0
   35.8730   31.1980   40.8880 H   0  0  0  0  0  0  0  0  0  0  0  0
   36.1970   33.3570   39.6520 H   0  0  0  0  0  0  0  0  0  0  0  0
   38.3670   33.9080   38.8420 H   0  0  0  0  0  0  0  0  0  0  0  0
   37.2280   27.1170   41.4330 C   0  0  0  0  0  0  0  0  0  0  0  0
   37.2730   27.1110   42.8480 C   0  0  0  0  0  0  0  0  0  0  0  0
   37.5400   28.3080   43.5270 C   0  0  0  0  0  0  0  0  0  0  0  0
   37.7420   29.4180   42.7660 N   0  0  0  0  0  0  0  0  0  0  0  0
   37.6950   29.4040   41.4220 C   0  0  0  0  0  0  0  0  0  0  0  0
   37.4420   28.2660   40.7870 N   0  0  0  0  0  0  0  0  0  0  0  0
   37.1000   26.1820   43.3710 H   0  0  0  0  0  0  0  0  0  0  0  0
   37.5780   28.3280   44.5950 H   0  0  0  0  0  0  0  0  0  0  0  0
   36.9590   25.9050   40.7510 N   0  0  0  0  0  0  0  0  0  0  0  0
   35.9900   25.7490   40.4110 H   0  0  0  0  0  0  0  0  0  0  0  0
   37.6660   25.1610   40.5670 H   0  0  0  0  0  0  0  0  0  0  0  0
   40.6370   32.5950   39.0120 C   0  0  0  0  0  0  0  0  0  0  0  0
   41.0690   32.5570   37.7080 C   0  0  0  0  0  3  0  0  0  0  0  0
   42.2750   33.0240   37.2340 C   0  0  0  0  0  0  0  0  0  0  0  0
   42.5250   32.9490   36.1850 H   0  0  0  0  0  0  0  0  0  0  0  0
   43.1270   33.5750   38.1170 N   0  0  0  0  0  0  0  0  0  0  0  0
   42.7450   33.6330   39.4060 C   0  0  0  0  0  3  0  0  0  0  0  0
   41.5580   33.1610   39.8090 N   0  0  0  0  0  0  0  0  0  0  0  0
  2  1  1  0  0  0  0
  2  3  1  0  0  0  0
  3 15  1  0  0  0  0
  4  3  2  0  0  0  0
  4  8  1  0  0  0  0
  5  4  1  0  0  0  0
  6  7  1  0  0  0  0
  6  5  2  0  0  0  0
  7  2  2  0  0  0  0
  9  5  1  0  0  0  0
 10  6  1  0  0  0  0
 11 12  1  0  0  0  0
 12 17  1  0  0  0  0
 12 13  2  0  0  0  0
 13 18  1  0  0  0  0
 14 13  1  0  0  0  0
 15 14  2  0  0  0  0
 16 15  1  0  0  0  0
 16 11  2  0  0  0  0
 19 11  1  0  0  0  0
 20 19  1  0  0  0  0
 21 19  1  0  0  0  0
 22  7  1  0  0  0  0
 22 28  1  0  0  0  0
 23 22  2  0  0  0  0
 24 23  1  0  0  0  0
 24 26  2  0  0  0  0
 25 24  1  0  0  0  0
 26 27  1  0  0  0  0
 27 28  2  0  0  0  0
M  END
>  <minimizedAffinity>
-5.07406998

$$$$
