
 OpenBabel03252504323D

 38 40  0  0  0  0  0  0  0  0999 V2000
   43.6250   35.3950   41.1700 C   0  0  0  0  0  3  0  0  0  0  0  0
   43.7910   35.5290   42.4830 C   0  0  0  0  0  3  0  0  0  0  0  0
   45.1480   35.5910   43.1690 C   0  0  0  0  0  0  0  0  0  0  0  0
   45.4080   36.6320   43.4480 H   0  0  0  0  0  0  0  0  0  0  0  0
   45.8770   35.2380   42.4240 H   0  0  0  0  0  0  0  0  0  0  0  0
   45.0560   34.7950   44.2970 O   0  0  0  0  0  0  0  0  0  0  0  0
   45.6910   32.6540   42.8530 O   0  0  0  0  0  0  0  0  0  0  0  0
   46.0070   33.4120   44.1210 P   0  0  1  0  0  0  0  0  0  0  0  0
   47.6560   33.8410   44.0480 O   0  0  0  0  0  0  0  0  0  0  0  0
   47.8060   34.5900   43.4170 H   0  0  0  0  0  0  0  0  0  0  0  0
   45.8180   32.4050   45.4610 O   0  0  0  0  0  0  0  0  0  0  0  0
   46.1360   33.0410   46.6460 C   0  0  0  0  0  0  0  0  0  0  0  0
   47.0560   32.3680   47.6120 C   0  0  0  0  0  0  0  0  0  0  0  0
   45.5610   32.4060   47.8910 C   0  0  0  0  0  0  0  0  0  0  0  0
   46.2080   34.1450   46.6090 H   0  0  0  0  0  0  0  0  0  0  0  0
   47.5060   31.3900   47.3300 H   0  0  0  0  0  0  0  0  0  0  0  0
   47.6340   33.0240   48.2920 H   0  0  0  0  0  0  0  0  0  0  0  0
   45.0430   31.4330   47.8140 H   0  0  0  0  0  0  0  0  0  0  0  0
   45.1770   33.0810   48.6850 H   0  0  0  0  0  0  0  0  0  0  0  0
   42.3200   35.3520   40.7150 O   0  0  0  0  0  0  0  0  0  0  0  0
   41.1840   35.3040   41.4490 C   0  0  0  0  0  0  0  0  0  0  0  0
   41.2670   35.3250   42.5610 H   0  0  0  0  0  0  0  0  0  0  0  0
   40.5490   36.2110   41.2230 H   0  0  0  0  0  0  0  0  0  0  0  0
   40.8330   32.9150   41.6990 C   0  0  0  0  0  0  0  0  0  0  0  0
   40.3240   34.1090   41.1780 C   0  0  0  0  0  0  0  0  0  0  0  0
   39.1430   34.0910   40.5260 C   0  0  0  0  0  0  0  0  0  0  0  0
   38.5380   32.9050   40.4270 N   0  0  0  0  0  0  0  0  0  0  0  0
   38.9990   31.7570   40.9130 C   0  0  0  0  0  0  0  0  0  0  0  0
   40.2190   31.7330   41.5950 N   0  0  0  0  0  0  0  0  0  0  0  0
   41.7730   32.8610   42.2310 H   0  0  0  0  0  0  0  0  0  0  0  0
   38.7860   35.0220   40.1400 H   0  0  0  0  0  0  0  0  0  0  0  0
   38.2910   30.4860   40.7760 C   0  0  0  0  0  0  0  0  0  0  0  0
   38.3300   29.6280   41.8560 C   0  0  0  0  0  3  0  0  0  0  0  0
   37.6430   28.4180   41.6950 C   0  0  0  0  0  0  0  0  0  0  0  0
   37.6810   27.7510   42.5480 H   0  0  0  0  0  0  0  0  0  0  0  0
   36.9850   28.1050   40.5650 N   0  0  0  0  0  0  0  0  0  0  0  0
   36.9750   28.9740   39.5390 C   0  0  0  0  0  3  0  0  0  0  0  0
   37.6300   30.1660   39.6480 N   0  0  0  0  0  0  0  0  0  0  0  0
  1  2  2  0  0  0  0
  2  3  1  0  0  0  0
  3  4  1  0  0  0  0
  3  6  1  0  0  0  0
  5  3  1  0  0  0  0
  8  7  2  6  0  0  0
  8  6  1  0  0  0  0
  8 11  1  0  0  0  0
  9  8  1  0  0  0  0
 10  9  1  0  0  0  0
 11 12  1  0  0  0  0
 12 13  1  0  0  0  0
 12 14  1  0  0  0  0
 13 14  1  0  0  0  0
 13 17  1  0  0  0  0
 14 19  1  0  0  0  0
 15 12  1  0  0  0  0
 16 13  1  0  0  0  0
 18 14  1  0  0  0  0
 20  1  1  0  0  0  0
 20 21  1  0  0  0  0
 21 22  1  0  0  0  0
 23 21  1  0  0  0  0
 24 30  1  0  0  0  0
 25 21  1  0  0  0  0
 25 24  2  0  0  0  0
 26 25  1  0  0  0  0
 27 26  2  0  0  0  0
 27 28  1  0  0  0  0
 28 29  2  0  0  0  0
 29 24  1  0  0  0  0
 31 26  1  0  0  0  0
 32 28  1  0  0  0  0
 32 33  1  0  0  0  0
 34 33  2  0  0  0  0
 34 35  1  0  0  0  0
 36 34  1  0  0  0  0
 37 38  1  0  0  0  0
 37 36  2  0  0  0  0
 38 32  2  0  0  0  0
M  END
>  <minimizedAffinity>
-4.98565197

>  <minimizedRMSD>
1.20484424

$$$$
