
 OpenBabel03252509293D

 19 20  0  0  0  0  0  0  0  0999 V2000
   47.0970   35.0410   41.8550 C   0  0  0  0  0  0  0  0  0  0  0  0
   48.1680   35.1240   42.1340 H   0  0  0  0  0  0  0  0  0  0  0  0
   46.8890   36.0010   41.3010 H   0  0  0  0  0  0  0  0  0  0  0  0
   44.5760   35.9240   44.4480 C   0  0  0  0  0  0  0  0  0  0  0  0
   45.3540   35.9660   43.2610 C   0  0  0  0  0  0  0  0  0  0  0  0
   46.3090   34.9770   43.0830 C   0  0  0  0  0  0  0  0  0  0  0  0
   46.4600   34.0180   44.0430 N   0  0  0  0  0  0  0  0  0  0  0  0
   45.6970   34.0180   45.1570 C   0  0  0  0  0  0  0  0  0  0  0  0
   44.7640   34.9630   45.3570 N   0  0  0  0  0  0  0  0  0  0  0  0
   43.8430   36.7170   44.5410 H   0  0  0  0  0  0  0  0  0  0  0  0
   45.1920   36.7420   42.5430 H   0  0  0  0  0  0  0  0  0  0  0  0
   45.8940   33.2050   45.8680 H   0  0  0  0  0  0  0  0  0  0  0  0
   46.9680   33.8790   40.9570 C   0  0  0  0  0  0  0  0  0  0  0  0
   45.7920   33.7010   40.2540 C   0  0  0  0  0  3  0  0  0  0  0  0
   45.5800   32.6320   39.3810 C   0  0  0  0  0  0  0  0  0  0  0  0
   44.6920   32.4580   38.8230 H   0  0  0  0  0  0  0  0  0  0  0  0
   46.5740   31.7430   39.2290 N   0  0  0  0  0  0  0  0  0  0  0  0
   47.7160   31.9100   39.9080 C   0  0  0  0  0  3  0  0  0  0  0  0
   47.9480   32.9460   40.7660 N   0  0  0  0  0  0  0  0  0  0  0  0
  1  2  1  0  0  0  0
  1  6  1  0  0  0  0
  3  1  1  0  0  0  0
  4 10  1  0  0  0  0
  4  9  1  0  0  0  0
  5  4  2  0  0  0  0
  6  5  1  0  0  0  0
  6  7  2  0  0  0  0
  7  8  1  0  0  0  0
  8  9  2  0  0  0  0
  8 12  1  0  0  0  0
 11  5  1  0  0  0  0
 13  1  1  0  0  0  0
 14 13  2  0  0  0  0
 15 14  1  0  0  0  0
 16 15  1  0  0  0  0
 17 15  2  0  0  0  0
 17 18  1  0  0  0  0
 18 19  2  0  0  0  0
 19 13  1  0  0  0  0
M  END
>  <minimizedAffinity>
-3.63968301

>  <minimizedRMSD>
1.07862282

$$$$
