
 OpenBabel03242516293D

 44 48  0  0  0  0  0  0  0  0999 V2000
   49.6770   30.0180   49.3400 C   0  0  0  0  0  0  0  0  0  0  0  0
   49.9320   31.1830   50.0160 N   0  0  0  0  0  0  0  0  0  0  0  0
   50.6230   31.2410   51.1530 C   0  0  0  0  0  0  0  0  0  0  0  0
   51.0850   30.0910   51.6500 N   0  0  0  0  0  0  0  0  0  0  0  0
   50.8790   28.9080   51.0530 C   0  0  0  0  0  0  0  0  0  0  0  0
   51.3660   27.7060   51.5710 C   0  0  0  0  0  0  0  0  0  0  0  0
   51.1420   26.5290   50.9430 C   0  0  0  0  0  0  0  0  0  0  0  0
   50.4300   26.4930   49.7810 C   0  0  0  0  0  0  0  0  0  0  0  0
   49.9230   27.6660   49.2210 C   0  0  0  0  0  0  0  0  0  0  0  0
   50.1530   28.8510   49.8580 C   0  0  0  0  0  0  0  0  0  0  0  0
   50.7730   32.2060   51.6120 H   0  0  0  0  0  0  0  0  0  0  0  0
   51.9160   27.7990   52.4830 H   0  0  0  0  0  0  0  0  0  0  0  0
   51.5380   25.6120   51.3770 H   0  0  0  0  0  0  0  0  0  0  0  0
   50.2860   25.5130   49.3290 H   0  0  0  0  0  0  0  0  0  0  0  0
   49.1480   27.5050   47.9740 C   0  0  0  0  0  0  0  0  0  0  0  0
   48.6260   28.3960   47.6180 H   0  0  0  0  0  0  0  0  0  0  0  0
   49.6260   26.8530   47.2120 H   0  0  0  0  0  0  0  0  0  0  0  0
   47.9460   26.6070   48.2270 C   0  0  0  0  0  0  0  0  0  0  0  0
   46.6920   26.9090   47.7300 C   0  0  0  0  0  0  0  0  0  0  0  0
   45.5360   26.1800   47.8940 C   0  0  0  0  0  0  0  0  0  0  0  0
   44.6100   26.5210   47.4550 H   0  0  0  0  0  0  0  0  0  0  0  0
   45.6650   25.0590   48.6170 N   0  0  0  0  0  0  0  0  0  0  0  0
   46.8600   24.7150   49.1250 C   0  0  0  0  0  0  0  0  0  0  0  0
   47.9710   25.4450   48.9490 N   0  0  0  0  0  0  0  0  0  0  0  0
   48.8140   30.0200   47.8500 S   0  0  0  0  0  0  0  0  0  0  0  0
   46.0040   32.6960   46.8790 C   0  0  0  0  0  0  0  0  0  0  0  0
   47.1290   31.8830   46.8680 C   0  0  0  0  0  0  0  0  0  0  0  0
   47.3620   30.9980   47.9020 C   0  0  0  0  0  0  0  0  0  0  0  0
   46.4840   30.9080   48.9570 C   0  0  0  0  0  0  0  0  0  0  0  0
   45.3710   31.6890   49.0010 C   0  0  0  0  0  0  0  0  0  0  0  0
   45.1520   32.5700   47.9600 C   0  0  0  0  0  0  0  0  0  0  0  0
   47.7980   31.9640   46.0450 H   0  0  0  0  0  0  0  0  0  0  0  0
   46.7130   30.2000   49.7370 H   0  0  0  0  0  0  0  0  0  0  0  0
   44.6760   31.6240   49.8280 H   0  0  0  0  0  0  0  0  0  0  0  0
   44.2650   33.1990   47.9850 H   0  0  0  0  0  0  0  0  0  0  0  0
   44.5730   35.5140   45.0380 C   0  0  0  0  0  0  0  0  0  0  0  0
   45.2440   35.4590   43.7870 C   0  0  0  0  0  0  0  0  0  0  0  0
   46.1880   34.4460   43.5870 C   0  0  0  0  0  0  0  0  0  0  0  0
   46.4490   33.5420   44.5760 N   0  0  0  0  0  0  0  0  0  0  0  0
   45.7750   33.6350   45.7680 C   0  0  0  0  0  0  0  0  0  0  0  0
   44.8480   34.6030   46.0080 N   0  0  0  0  0  0  0  0  0  0  0  0
   43.8380   36.2780   45.2320 H   0  0  0  0  0  0  0  0  0  0  0  0
   45.0220   36.1790   43.0290 H   0  0  0  0  0  0  0  0  0  0  0  0
   46.7150   34.3730   42.6540 H   0  0  0  0  0  0  0  0  0  0  0  0
  1 10  2  0  0  0  0
  1  2  1  0  0  0  0
  2  3  2  0  0  0  0
  3 11  1  0  0  0  0
  3  4  1  0  0  0  0
  5  6  1  0  0  0  0
  5  4  2  0  0  0  0
  6 12  1  0  0  0  0
  7 13  1  0  0  0  0
  7  6  2  0  0  0  0
  8  7  1  0  0  0  0
  9  8  2  0  0  0  0
  9 10  1  0  0  0  0
 10  5  1  0  0  0  0
 14  8  1  0  0  0  0
 15 18  1  0  0  0  0
 15  9  1  0  0  0  0
 16 15  1  0  0  0  0
 17 15  1  0  0  0  0
 18 24  1  0  0  0  0
 19 20  1  0  0  0  0
 19 18  2  0  0  0  0
 20 22  2  0  0  0  0
 21 20  1  0  0  0  0
 22 23  1  0  0  0  0
 24 23  2  0  0  0  0
 25 28  1  0  0  0  0
 25  1  1  0  0  0  0
 26 31  1  0  0  0  0
 27 26  2  0  0  0  0
 27 28  1  0  0  0  0
 28 29  2  0  0  0  0
 29 30  1  0  0  0  0
 29 33  1  0  0  0  0
 30 34  1  0  0  0  0
 31 35  1  0  0  0  0
 31 30  2  0  0  0  0
 32 27  1  0  0  0  0
 36 42  1  0  0  0  0
 36 41  1  0  0  0  0
 37 36  2  0  0  0  0
 38 37  1  0  0  0  0
 38 39  2  0  0  0  0
 39 40  1  0  0  0  0
 40 41  2  0  0  0  0
 40 26  1  0  0  0  0
 43 37  1  0  0  0  0
 44 38  1  0  0  0  0
M  END
>  <minimizedAffinity>
-6.65615225

>  <minimizedRMSD>
1.55284572

$$$$
