
 OpenBabel03242517213D

 31 33  0  0  1  0  0  0  0  0999 V2000
   44.6760   35.3260   45.4430 C   0  0  0  0  0  0  0  0  0  0  0  0
   44.6740   36.1660   44.3210 C   0  0  0  0  0  0  0  0  0  0  0  0
   45.3450   35.7450   43.1560 C   0  0  0  0  0  0  0  0  0  0  0  0
   45.9550   34.5400   43.1990 N   0  0  0  0  0  0  0  0  0  0  0  0
   45.9460   33.7480   44.2850 C   0  0  0  0  0  0  0  0  0  0  0  0
   45.3070   34.1490   45.3950 N   0  0  0  0  0  0  0  0  0  0  0  0
   46.6340   32.4810   44.2310 N   0  0  0  0  0  0  0  0  0  0  0  0
   46.4720   31.6260   45.4000 C   0  0  0  0  0  0  0  0  0  0  0  0
   47.4930   30.5620   45.5250 C   0  0  0  0  0  0  0  0  0  0  0  0
   47.8700   30.0400   44.1640 C   0  0  0  0  0  0  0  0  0  0  0  0
   48.5190   31.1950   43.4450 C   0  0  0  0  0  0  0  0  0  0  0  0
   47.4190   32.1460   43.0560 C   0  0  2  0  0  0  0  0  0  0  0  0
   44.1550   35.6580   46.3410 H   0  0  0  0  0  0  0  0  0  0  0  0
   44.1660   37.1270   44.3430 H   0  0  0  0  0  0  0  0  0  0  0  0
   45.3590   36.3830   42.2670 H   0  0  0  0  0  0  0  0  0  0  0  0
   46.4170   32.2900   46.3060 H   0  0  0  0  0  0  0  0  0  0  0  0
   45.4550   31.1910   45.3130 H   0  0  0  0  0  0  0  0  0  0  0  0
   47.0430   29.7050   46.0920 H   0  0  0  0  0  0  0  0  0  0  0  0
   48.4210   30.8400   46.0390 H   0  0  0  0  0  0  0  0  0  0  0  0
   46.9770   29.6750   43.6310 H   0  0  0  0  0  0  0  0  0  0  0  0
   48.6360   29.2500   44.2880 H   0  0  0  0  0  0  0  0  0  0  0  0
   49.1040   30.8890   42.5580 H   0  0  0  0  0  0  0  0  0  0  0  0
   49.1910   31.7400   44.1630 H   0  0  0  0  0  0  0  0  0  0  0  0
   46.7480   31.6120   42.3570 H   0  0  0  0  0  0  0  0  0  0  0  0
   47.9660   33.3540   42.3840 C   0  0  0  0  0  0  0  0  0  0  0  0
   47.6100   33.6460   41.0670 C   0  0  0  0  0  0  0  0  0  0  0  0
   48.0720   34.7370   40.3470 C   0  0  0  0  0  0  0  0  0  0  0  0
   47.7100   34.8270   39.3470 H   0  0  0  0  0  0  0  0  0  0  0  0
   48.9160   35.5770   40.9450 N   0  0  0  0  0  0  0  0  0  0  0  0
   49.2690   35.3020   42.2270 C   0  0  0  0  0  0  0  0  0  0  0  0
   48.8180   34.2370   42.9290 N   0  0  0  0  0  0  0  0  0  0  0  0
  1 13  1  0  0  0  0
  2 14  1  0  0  0  0
  2  1  2  0  0  0  0
  3  4  2  0  0  0  0
  3  2  1  0  0  0  0
  4  5  1  0  0  0  0
  5  6  2  0  0  0  0
  6  1  1  0  0  0  0
  7  5  1  0  0  0  0
  7  8  1  0  0  0  0
  8  9  1  0  0  0  0
  8 16  1  0  0  0  0
  9 19  1  0  0  0  0
  9 18  1  0  0  0  0
 10 21  1  0  0  0  0
 10  9  1  0  0  0  0
 11 23  1  0  0  0  0
 11 10  1  0  0  0  0
 12 24  1  6  0  0  0
 12 11  1  0  0  0  0
 12  7  1  0  0  0  0
 15  3  1  0  0  0  0
 17  8  1  0  0  0  0
 20 10  1  0  0  0  0
 22 11  1  0  0  0  0
 25 31  1  0  0  0  0
 25 12  1  0  0  0  0
 26 25  2  0  0  0  0
 27 29  2  0  0  0  0
 27 26  1  0  0  0  0
 28 27  1  0  0  0  0
 29 30  1  0  0  0  0
 30 31  2  0  0  0  0
M  END
>  <minimizedAffinity>
-5.11444426

>  <minimizedRMSD>
3.20267439

$$$$
