
 OpenBabel03242521353D

 29 32  0  0  0  0  0  0  0  0999 V2000
   38.8670   26.6830   43.4160 C   0  0  0  0  0  0  0  0  0  0  0  0
   39.0810   28.0700   43.1560 C   0  0  0  0  0  0  0  0  0  0  0  0
   38.5440   28.5840   41.9890 C   0  0  0  0  0  0  0  0  0  0  0  0
   37.8500   27.7670   41.1600 N   0  0  0  0  0  0  0  0  0  0  0  0
   37.6600   26.4460   41.4310 C   0  0  0  0  0  0  0  0  0  0  0  0
   38.1670   25.9280   42.5470 N   0  0  0  0  0  0  0  0  0  0  0  0
   39.3120   26.3520   44.3370 H   0  0  0  0  0  0  0  0  0  0  0  0
   39.6220   28.7240   43.7940 H   0  0  0  0  0  0  0  0  0  0  0  0
   39.9030   30.5880   41.8070 C   0  0  0  0  0  0  0  0  0  0  0  0
   38.6770   29.9740   41.5890 C   0  0  0  0  0  0  0  0  0  0  0  0
   37.6750   30.7130   41.0120 C   0  0  0  0  0  0  0  0  0  0  0  0
   37.8380   32.0420   40.6400 C   0  0  0  0  0  0  0  0  0  0  0  0
   37.0100   32.9440   40.0700 N   0  0  0  0  0  0  0  0  0  0  0  0
   37.7020   34.1190   39.9280 C   0  0  0  0  0  0  0  0  0  0  0  0
   38.9590   33.9150   40.4190 N   0  0  0  0  0  0  0  0  0  0  0  0
   39.0570   32.6500   40.8590 C   0  0  0  0  0  0  0  0  0  0  0  0
   40.0810   31.9240   41.4400 C   0  0  0  0  0  0  0  0  0  0  0  0
   40.7130   30.0100   42.2680 H   0  0  0  0  0  0  0  0  0  0  0  0
   36.7280   30.2040   40.8540 H   0  0  0  0  0  0  0  0  0  0  0  0
   36.0150   32.7830   39.7840 H   0  0  0  0  0  0  0  0  0  0  0  0
   37.3450   35.0540   39.5070 H   0  0  0  0  0  0  0  0  0  0  0  0
   41.0510   32.3760   41.6230 H   0  0  0  0  0  0  0  0  0  0  0  0
   36.9040   25.6150   40.5000 C   0  0  0  0  0  0  0  0  0  0  0  0
   36.5670   24.3150   40.8640 C   0  0  0  0  0  3  0  0  0  0  0  0
   35.8570   23.5540   39.9710 C   0  0  0  0  0  0  0  0  0  0  0  0
   35.6420   22.5500   40.3490 H   0  0  0  0  0  0  0  0  0  0  0  0
   35.4830   24.0380   38.7630 N   0  0  0  0  0  0  0  0  0  0  0  0
   35.8370   25.3160   38.4540 C   0  0  0  0  0  3  0  0  0  0  0  0
   36.5430   26.1120   39.3090 N   0  0  0  0  0  0  0  0  0  0  0  0
  1  7  1  0  0  0  0
  2  1  1  0  0  0  0
  2  8  1  0  0  0  0
  3  2  2  0  0  0  0
  4  5  2  0  0  0  0
  4  3  1  0  0  0  0
  5  6  1  0  0  0  0
  6  1  2  0  0  0  0
  9 18  1  0  0  0  0
 10  9  1  0  0  0  0
 10  3  1  0  0  0  0
 11 10  2  0  0  0  0
 12 16  2  0  0  0  0
 12 11  1  0  0  0  0
 13 12  1  0  0  0  0
 14 13  1  0  0  0  0
 14 15  2  0  0  0  0
 15 16  1  0  0  0  0
 16 17  1  0  0  0  0
 17 22  1  0  0  0  0
 17  9  2  0  0  0  0
 19 11  1  0  0  0  0
 20 13  1  0  0  0  0
 21 14  1  0  0  0  0
 23 24  1  0  0  0  0
 23  5  1  0  0  0  0
 25 26  1  0  0  0  0
 25 24  2  0  0  0  0
 27 25  1  0  0  0  0
 28 27  2  0  0  0  0
 28 29  1  0  0  0  0
 29 23  2  0  0  0  0
M  END
>  <minimizedAffinity>
-5.50084066

$$$$

 OpenBabel03242521353D

 29 32  0  0  0  0  0  0  0  0999 V2000
   35.8160   30.2160   40.6720 C   0  0  0  0  0  0  0  0  0  0  0  0
   36.7970   31.1720   40.2660 C   0  0  0  0  0  0  0  0  0  0  0  0
   38.1230   30.7900   40.3510 C   0  0  0  0  0  0  0  0  0  0  0  0
   38.4300   29.5500   40.8070 N   0  0  0  0  0  0  0  0  0  0  0  0
   37.4770   28.6570   41.1890 C   0  0  0  0  0  0  0  0  0  0  0  0
   36.1930   29.0020   41.1150 N   0  0  0  0  0  0  0  0  0  0  0  0
   34.8080   30.5800   40.5800 H   0  0  0  0  0  0  0  0  0  0  0  0
   36.5730   32.1450   39.9070 H   0  0  0  0  0  0  0  0  0  0  0  0
   39.9590   32.2410   40.9990 C   0  0  0  0  0  0  0  0  0  0  0  0
   39.2320   31.6500   39.9750 C   0  0  0  0  0  0  0  0  0  0  0  0
   39.6020   31.9130   38.6800 C   0  0  0  0  0  0  0  0  0  0  0  0
   40.6700   32.7410   38.3570 C   0  0  0  0  0  0  0  0  0  0  0  0
   41.2030   33.1350   37.1800 N   0  0  0  0  0  0  0  0  0  0  0  0
   42.2580   33.9670   37.4520 C   0  0  0  0  0  0  0  0  0  0  0  0
   42.3550   34.0710   38.8090 N   0  0  0  0  0  0  0  0  0  0  0  0
   41.3910   33.3280   39.3770 C   0  0  0  0  0  0  0  0  0  0  0  0
   41.0340   33.0770   40.6890 C   0  0  0  0  0  0  0  0  0  0  0  0
   39.6740   32.0400   42.0390 H   0  0  0  0  0  0  0  0  0  0  0  0
   39.0130   31.4360   37.9020 H   0  0  0  0  0  0  0  0  0  0  0  0
   40.8760   32.8580   36.2240 H   0  0  0  0  0  0  0  0  0  0  0  0
   42.9130   34.4640   36.7430 H   0  0  0  0  0  0  0  0  0  0  0  0
   41.5840   33.5240   41.5110 H   0  0  0  0  0  0  0  0  0  0  0  0
   37.8680   27.3370   41.6710 C   0  0  0  0  0  0  0  0  0  0  0  0
   37.0920   26.2310   41.3390 C   0  0  0  0  0  3  0  0  0  0  0  0
   37.4810   25.0010   41.8050 C   0  0  0  0  0  0  0  0  0  0  0  0
   36.8080   24.1980   41.4910 H   0  0  0  0  0  0  0  0  0  0  0  0
   38.5890   24.8480   42.5690 N   0  0  0  0  0  0  0  0  0  0  0  0
   39.3140   25.9610   42.8660 C   0  0  0  0  0  3  0  0  0  0  0  0
   38.9680   27.2060   42.4250 N   0  0  0  0  0  0  0  0  0  0  0  0
  1  6  1  0  0  0  0
  2  3  1  0  0  0  0
  2  1  2  0  0  0  0
  3  4  2  0  0  0  0
  4  5  1  0  0  0  0
  5 23  1  0  0  0  0
  6  5  2  0  0  0  0
  7  1  1  0  0  0  0
  8  2  1  0  0  0  0
  9 18  1  0  0  0  0
 10  3  1  0  0  0  0
 10  9  2  0  0  0  0
 11 10  1  0  0  0  0
 12 11  2  0  0  0  0
 12 16  1  0  0  0  0
 13 14  1  0  0  0  0
 13 12  1  0  0  0  0
 14 15  2  0  0  0  0
 15 16  1  0  0  0  0
 16 17  2  0  0  0  0
 17  9  1  0  0  0  0
 17 22  1  0  0  0  0
 19 11  1  0  0  0  0
 20 13  1  0  0  0  0
 21 14  1  0  0  0  0
 23 29  1  0  0  0  0
 24 23  2  0  0  0  0
 24 25  1  0  0  0  0
 25 27  2  0  0  0  0
 26 25  1  0  0  0  0
 27 28  1  0  0  0  0
 29 28  2  0  0  0  0
M  END
>  <minimizedAffinity>
-5.43127489

$$$$

 OpenBabel03242521353D

 29 32  0  0  0  0  0  0  0  0999 V2000
   34.5750   28.9540   35.5840 C   0  0  0  0  0  0  0  0  0  0  0  0
   35.4250   28.6360   36.6860 C   0  0  0  0  0  0  0  0  0  0  0  0
   34.8550   28.6460   37.9460 C   0  0  0  0  0  0  0  0  0  0  0  0
   33.5410   28.9510   38.0800 N   0  0  0  0  0  0  0  0  0  0  0  0
   32.7510   29.2520   37.0130 C   0  0  0  0  0  0  0  0  0  0  0  0
   33.2770   29.2490   35.7890 N   0  0  0  0  0  0  0  0  0  0  0  0
   35.0830   28.9280   34.6360 H   0  0  0  0  0  0  0  0  0  0  0  0
   36.4550   28.3940   36.5990 H   0  0  0  0  0  0  0  0  0  0  0  0
   36.1950   27.0960   39.2500 C   0  0  0  0  0  0  0  0  0  0  0  0
   35.5910   28.3430   39.1620 C   0  0  0  0  0  0  0  0  0  0  0  0
   35.7240   29.2050   40.2210 C   0  0  0  0  0  0  0  0  0  0  0  0
   36.4360   28.8810   41.3690 C   0  0  0  0  0  0  0  0  0  0  0  0
   36.6940   29.5560   42.5110 N   0  0  0  0  0  0  0  0  0  0  0  0
   37.4540   28.7470   43.3160 C   0  0  0  0  0  0  0  0  0  0  0  0
   37.6520   27.5750   42.6460 N   0  0  0  0  0  0  0  0  0  0  0  0
   37.0350   27.6410   41.4540 C   0  0  0  0  0  0  0  0  0  0  0  0
   36.9130   26.7560   40.3990 C   0  0  0  0  0  0  0  0  0  0  0  0
   36.0960   26.3960   38.4110 H   0  0  0  0  0  0  0  0  0  0  0  0
   35.2390   30.1720   40.1220 H   0  0  0  0  0  0  0  0  0  0  0  0
   36.3740   30.5250   42.7470 H   0  0  0  0  0  0  0  0  0  0  0  0
   37.8410   28.9700   44.3050 H   0  0  0  0  0  0  0  0  0  0  0  0
   37.3750   25.7750   40.4380 H   0  0  0  0  0  0  0  0  0  0  0  0
   31.3430   29.5730   37.2180 C   0  0  0  0  0  0  0  0  0  0  0  0
   30.9120   29.9770   38.4780 C   0  0  0  0  0  3  0  0  0  0  0  0
   29.5830   30.2720   38.6450 C   0  0  0  0  0  0  0  0  0  0  0  0
   29.3440   30.5790   39.6680 H   0  0  0  0  0  0  0  0  0  0  0  0
   28.6990   30.1800   37.6230 N   0  0  0  0  0  0  0  0  0  0  0  0
   29.1710   29.7800   36.4100 C   0  0  0  0  0  3  0  0  0  0  0  0
   30.4840   29.4760   36.1940 N   0  0  0  0  0  0  0  0  0  0  0  0
  1  6  2  0  0  0  0
  1  2  1  0  0  0  0
  2  3  2  0  0  0  0
  3  4  1  0  0  0  0
  3 10  1  0  0  0  0
  5 23  1  0  0  0  0
  5  4  2  0  0  0  0
  6  5  1  0  0  0  0
  7  1  1  0  0  0  0
  8  2  1  0  0  0  0
  9 17  1  0  0  0  0
 10  9  2  0  0  0  0
 10 11  1  0  0  0  0
 11 12  2  0  0  0  0
 12 16  1  0  0  0  0
 12 13  1  0  0  0  0
 13 20  1  0  0  0  0
 13 14  1  0  0  0  0
 14 21  1  0  0  0  0
 15 14  2  0  0  0  0
 16 15  1  0  0  0  0
 17 22  1  0  0  0  0
 17 16  2  0  0  0  0
 18  9  1  0  0  0  0
 19 11  1  0  0  0  0
 23 24  1  0  0  0  0
 24 25  2  0  0  0  0
 25 26  1  0  0  0  0
 27 25  1  0  0  0  0
 28 27  2  0  0  0  0
 29 28  1  0  0  0  0
 29 23  2  0  0  0  0
M  END
>  <minimizedAffinity>
-5.32659817

$$$$

 OpenBabel03242521353D

 29 32  0  0  0  0  0  0  0  0999 V2000
   36.9710   32.4050   40.0740 C   0  0  0  0  0  0  0  0  0  0  0  0
   36.6170   31.0650   40.4210 C   0  0  0  0  0  0  0  0  0  0  0  0
   37.6190   30.2600   40.9330 C   0  0  0  0  0  0  0  0  0  0  0  0
   38.8670   30.7660   41.0820 N   0  0  0  0  0  0  0  0  0  0  0  0
   39.1800   32.0470   40.7430 C   0  0  0  0  0  0  0  0  0  0  0  0
   38.2330   32.8410   40.2490 N   0  0  0  0  0  0  0  0  0  0  0  0
   36.1460   32.9730   39.6830 H   0  0  0  0  0  0  0  0  0  0  0  0
   35.6440   30.6540   40.3110 H   0  0  0  0  0  0  0  0  0  0  0  0
   37.2990   28.6140   42.6890 C   0  0  0  0  0  0  0  0  0  0  0  0
   37.4130   28.8790   41.3310 C   0  0  0  0  0  0  0  0  0  0  0  0
   37.3240   27.8260   40.4540 C   0  0  0  0  0  0  0  0  0  0  0  0
   37.1260   26.5150   40.8710 C   0  0  0  0  0  0  0  0  0  0  0  0
   37.0100   25.3470   40.2030 N   0  0  0  0  0  0  0  0  0  0  0  0
   36.8250   24.3500   41.1260 C   0  0  0  0  0  0  0  0  0  0  0  0
   36.8300   24.9320   42.3610 N   0  0  0  0  0  0  0  0  0  0  0  0
   37.0140   26.2550   42.2220 C   0  0  0  0  0  0  0  0  0  0  0  0
   37.1010   27.3010   43.1220 C   0  0  0  0  0  0  0  0  0  0  0  0
   37.3690   29.4450   43.4000 H   0  0  0  0  0  0  0  0  0  0  0  0
   37.4170   28.0660   39.3990 H   0  0  0  0  0  0  0  0  0  0  0  0
   37.0530   25.2160   39.1640 H   0  0  0  0  0  0  0  0  0  0  0  0
   36.6950   23.2890   40.9410 H   0  0  0  0  0  0  0  0  0  0  0  0
   37.0160   27.1260   44.1900 H   0  0  0  0  0  0  0  0  0  0  0  0
   40.5430   32.5350   40.9260 C   0  0  0  0  0  0  0  0  0  0  0  0
   40.9560   33.6760   40.2450 C   0  0  0  0  0  3  0  0  0  0  0  0
   42.2420   34.1140   40.4330 C   0  0  0  0  0  0  0  0  0  0  0  0
   42.4700   35.0160   39.8560 H   0  0  0  0  0  0  0  0  0  0  0  0
   43.1000   33.4680   41.2570 N   0  0  0  0  0  0  0  0  0  0  0  0
   42.6480   32.3570   41.9010 C   0  0  0  0  0  3  0  0  0  0  0  0
   41.3770   31.8820   41.7460 N   0  0  0  0  0  0  0  0  0  0  0  0
  1  6  2  0  0  0  0
  1  2  1  0  0  0  0
  2  3  2  0  0  0  0
  3  4  1  0  0  0  0
  3 10  1  0  0  0  0
  5 23  1  0  0  0  0
  5  4  2  0  0  0  0
  6  5  1  0  0  0  0
  7  1  1  0  0  0  0
  8  2  1  0  0  0  0
  9 17  1  0  0  0  0
  9 18  1  0  0  0  0
 10  9  2  0  0  0  0
 11 12  2  0  0  0  0
 11 10  1  0  0  0  0
 12 16  1  0  0  0  0
 13 12  1  0  0  0  0
 13 14  1  0  0  0  0
 14 15  2  0  0  0  0
 16 15  1  0  0  0  0
 16 17  2  0  0  0  0
 17 22  1  0  0  0  0
 19 11  1  0  0  0  0
 20 13  1  0  0  0  0
 21 14  1  0  0  0  0
 23 29  1  0  0  0  0
 24 25  1  0  0  0  0
 24 23  2  0  0  0  0
 25 27  2  0  0  0  0
 26 25  1  0  0  0  0
 27 28  1  0  0  0  0
 29 28  2  0  0  0  0
M  END
>  <minimizedAffinity>
-5.30648041

$$$$

 OpenBabel03242521353D

 29 32  0  0  0  0  0  0  0  0999 V2000
   37.7210   28.1800   43.6700 C   0  0  0  0  0  0  0  0  0  0  0  0
   37.3660   27.0210   42.9140 C   0  0  0  0  0  0  0  0  0  0  0  0
   37.1950   27.1840   41.5510 C   0  0  0  0  0  0  0  0  0  0  0  0
   37.3680   28.4110   41.0020 N   0  0  0  0  0  0  0  0  0  0  0  0
   37.7060   29.5010   41.7440 C   0  0  0  0  0  0  0  0  0  0  0  0
   37.8760   29.3690   43.0580 N   0  0  0  0  0  0  0  0  0  0  0  0
   37.8360   27.9800   44.7210 H   0  0  0  0  0  0  0  0  0  0  0  0
   37.2270   26.0530   43.3290 H   0  0  0  0  0  0  0  0  0  0  0  0
   36.8580   24.8110   41.1640 C   0  0  0  0  0  0  0  0  0  0  0  0
   36.8360   26.1010   40.6520 C   0  0  0  0  0  0  0  0  0  0  0  0
   36.4780   26.2730   39.3380 C   0  0  0  0  0  0  0  0  0  0  0  0
   36.1400   25.2120   38.5070 C   0  0  0  0  0  0  0  0  0  0  0  0
   35.7650   25.1450   37.2100 N   0  0  0  0  0  0  0  0  0  0  0  0
   35.5510   23.8270   36.9020 C   0  0  0  0  0  0  0  0  0  0  0  0
   35.8010   23.0980   38.0280 N   0  0  0  0  0  0  0  0  0  0  0  0
   36.1630   23.9310   39.0180 C   0  0  0  0  0  0  0  0  0  0  0  0
   36.5200   23.7360   40.3390 C   0  0  0  0  0  0  0  0  0  0  0  0
   37.1420   24.6590   42.2120 H   0  0  0  0  0  0  0  0  0  0  0  0
   36.4710   27.2940   38.9680 H   0  0  0  0  0  0  0  0  0  0  0  0
   35.6540   25.9520   36.5520 H   0  0  0  0  0  0  0  0  0  0  0  0
   35.2390   23.4100   35.9490 H   0  0  0  0  0  0  0  0  0  0  0  0
   36.5460   22.7380   40.7680 H   0  0  0  0  0  0  0  0  0  0  0  0
   37.8790   30.7970   41.0960 C   0  0  0  0  0  0  0  0  0  0  0  0
   36.9310   31.2310   40.1750 C   0  0  0  0  0  3  0  0  0  0  0  0
   37.1160   32.4530   39.5790 C   0  0  0  0  0  0  0  0  0  0  0  0
   36.3190   32.7030   38.8730 H   0  0  0  0  0  0  0  0  0  0  0  0
   38.1870   33.2300   39.8680 N   0  0  0  0  0  0  0  0  0  0  0  0
   39.0850   32.7600   40.7770 C   0  0  0  0  0  3  0  0  0  0  0  0
   38.9440   31.5520   41.3960 N   0  0  0  0  0  0  0  0  0  0  0  0
  1  7  1  0  0  0  0
  2  8  1  0  0  0  0
  2  1  2  0  0  0  0
  3  2  1  0  0  0  0
  4  3  2  0  0  0  0
  4  5  1  0  0  0  0
  5  6  2  0  0  0  0
  6  1  1  0  0  0  0
  9 18  1  0  0  0  0
 10  9  1  0  0  0  0
 10  3  1  0  0  0  0
 11 10  2  0  0  0  0
 12 16  2  0  0  0  0
 12 11  1  0  0  0  0
 13 12  1  0  0  0  0
 14 13  1  0  0  0  0
 14 15  2  0  0  0  0
 15 16  1  0  0  0  0
 16 17  1  0  0  0  0
 17 22  1  0  0  0  0
 17  9  2  0  0  0  0
 19 11  1  0  0  0  0
 20 13  1  0  0  0  0
 21 14  1  0  0  0  0
 23 29  1  0  0  0  0
 23  5  1  0  0  0  0
 24 23  2  0  0  0  0
 25 27  2  0  0  0  0
 25 24  1  0  0  0  0
 26 25  1  0  0  0  0
 27 28  1  0  0  0  0
 28 29  2  0  0  0  0
M  END
>  <minimizedAffinity>
-5.27989006

$$$$

 OpenBabel03242521353D

 29 32  0  0  0  0  0  0  0  0999 V2000
   36.9140   30.2770   41.7270 C   0  0  0  0  0  0  0  0  0  0  0  0
   36.1410   30.3570   40.5280 C   0  0  0  0  0  0  0  0  0  0  0  0
   35.9560   29.1840   39.8180 C   0  0  0  0  0  0  0  0  0  0  0  0
   36.5020   28.0330   40.2810 N   0  0  0  0  0  0  0  0  0  0  0  0
   37.2360   27.9830   41.4260 C   0  0  0  0  0  0  0  0  0  0  0  0
   37.4280   29.0990   42.1270 N   0  0  0  0  0  0  0  0  0  0  0  0
   37.0180   31.2240   42.2260 H   0  0  0  0  0  0  0  0  0  0  0  0
   35.7060   31.2490   40.1530 H   0  0  0  0  0  0  0  0  0  0  0  0
   35.8980   29.2140   37.3910 C   0  0  0  0  0  0  0  0  0  0  0  0
   35.1950   29.1060   38.5840 C   0  0  0  0  0  0  0  0  0  0  0  0
   33.8350   28.9340   38.5220 C   0  0  0  0  0  0  0  0  0  0  0  0
   33.1390   28.8630   37.3210 C   0  0  0  0  0  0  0  0  0  0  0  0
   31.8310   28.7010   37.0270 N   0  0  0  0  0  0  0  0  0  0  0  0
   31.7030   28.7060   35.6620 C   0  0  0  0  0  0  0  0  0  0  0  0
   32.9510   28.8720   35.1360 N   0  0  0  0  0  0  0  0  0  0  0  0
   33.8400   28.9700   36.1380 C   0  0  0  0  0  0  0  0  0  0  0  0
   35.2110   29.1450   36.1770 C   0  0  0  0  0  0  0  0  0  0  0  0
   36.9850   29.3520   37.4250 H   0  0  0  0  0  0  0  0  0  0  0  0
   33.3140   28.8530   39.4720 H   0  0  0  0  0  0  0  0  0  0  0  0
   31.0460   28.5900   37.7130 H   0  0  0  0  0  0  0  0  0  0  0  0
   30.7930   28.5980   35.0790 H   0  0  0  0  0  0  0  0  0  0  0  0
   35.7880   29.2320   35.2610 H   0  0  0  0  0  0  0  0  0  0  0  0
   37.8000   26.7150   41.8740 C   0  0  0  0  0  0  0  0  0  0  0  0
   38.9460   26.7170   42.6620 C   0  0  0  0  0  3  0  0  0  0  0  0
   39.4580   25.5120   43.0690 C   0  0  0  0  0  0  0  0  0  0  0  0
   40.3570   25.6200   43.6820 H   0  0  0  0  0  0  0  0  0  0  0  0
   38.8740   24.3390   42.7250 N   0  0  0  0  0  0  0  0  0  0  0  0
   37.7540   24.3900   41.9530 C   0  0  0  0  0  3  0  0  0  0  0  0
   37.2080   25.5650   41.5240 N   0  0  0  0  0  0  0  0  0  0  0  0
  1  6  1  0  0  0  0
  1  7  1  0  0  0  0
  2  1  2  0  0  0  0
  3  4  2  0  0  0  0
  3  2  1  0  0  0  0
  4  5  1  0  0  0  0
  5 23  1  0  0  0  0
  5  6  2  0  0  0  0
  8  2  1  0  0  0  0
  9 18  1  0  0  0  0
  9 10  1  0  0  0  0
 10  3  1  0  0  0  0
 11 10  2  0  0  0  0
 11 19  1  0  0  0  0
 12 11  1  0  0  0  0
 13 12  1  0  0  0  0
 13 20  1  0  0  0  0
 14 13  1  0  0  0  0
 15 14  2  0  0  0  0
 15 16  1  0  0  0  0
 16 17  1  0  0  0  0
 16 12  2  0  0  0  0
 17  9  2  0  0  0  0
 21 14  1  0  0  0  0
 22 17  1  0  0  0  0
 23 24  1  0  0  0  0
 24 25  2  0  0  0  0
 25 26  1  0  0  0  0
 27 25  1  0  0  0  0
 28 27  2  0  0  0  0
 29 23  2  0  0  0  0
 29 28  1  0  0  0  0
M  END
>  <minimizedAffinity>
-5.19276667

$$$$

 OpenBabel03242521353D

 29 32  0  0  0  0  0  0  0  0999 V2000
   37.9630   33.2270   40.0850 C   0  0  0  0  0  0  0  0  0  0  0  0
   39.1500   33.1650   39.2940 C   0  0  0  0  0  0  0  0  0  0  0  0
   39.8440   31.9680   39.2890 C   0  0  0  0  0  0  0  0  0  0  0  0
   39.3770   30.9260   40.0190 N   0  0  0  0  0  0  0  0  0  0  0  0
   38.2420   31.0100   40.7660 C   0  0  0  0  0  0  0  0  0  0  0  0
   37.5570   32.1510   40.7860 N   0  0  0  0  0  0  0  0  0  0  0  0
   37.4760   34.1850   40.0430 H   0  0  0  0  0  0  0  0  0  0  0  0
   39.5290   33.9710   38.7170 H   0  0  0  0  0  0  0  0  0  0  0  0
   42.2010   32.4390   38.9450 C   0  0  0  0  0  0  0  0  0  0  0  0
   41.0660   31.7530   38.5350 C   0  0  0  0  0  0  0  0  0  0  0  0
   41.1690   30.9190   37.4500 C   0  0  0  0  0  0  0  0  0  0  0  0
   42.3560   30.7360   36.7520 C   0  0  0  0  0  0  0  0  0  0  0  0
   42.6840   29.9830   35.6780 N   0  0  0  0  0  0  0  0  0  0  0  0
   44.0120   30.1890   35.4090 C   0  0  0  0  0  0  0  0  0  0  0  0
   44.4830   31.0760   36.3340 N   0  0  0  0  0  0  0  0  0  0  0  0
   43.4830   31.4200   37.1610 C   0  0  0  0  0  0  0  0  0  0  0  0
   43.4010   32.2660   38.2520 C   0  0  0  0  0  0  0  0  0  0  0  0
   42.1340   33.1090   39.8110 H   0  0  0  0  0  0  0  0  0  0  0  0
   40.2640   30.3960   37.1540 H   0  0  0  0  0  0  0  0  0  0  0  0
   42.0430   29.3520   35.1420 H   0  0  0  0  0  0  0  0  0  0  0  0
   44.6060   29.7440   34.6180 H   0  0  0  0  0  0  0  0  0  0  0  0
   44.2710   32.8160   38.5970 H   0  0  0  0  0  0  0  0  0  0  0  0
   37.7880   29.8540   41.5320 C   0  0  0  0  0  0  0  0  0  0  0  0
   38.3510   29.5970   42.7770 C   0  0  0  0  0  3  0  0  0  0  0  0
   37.9080   28.5040   43.4780 C   0  0  0  0  0  0  0  0  0  0  0  0
   38.4110   28.3870   44.4420 H   0  0  0  0  0  0  0  0  0  0  0  0
   36.9480   27.6860   42.9850 N   0  0  0  0  0  0  0  0  0  0  0  0
   36.4280   27.9810   41.7620 C   0  0  0  0  0  3  0  0  0  0  0  0
   36.8360   29.0570   41.0280 N   0  0  0  0  0  0  0  0  0  0  0  0
  1  6  1  0  0  0  0
  2  1  2  0  0  0  0
  3  2  1  0  0  0  0
  3  4  2  0  0  0  0
  4  5  1  0  0  0  0
  5  6  2  0  0  0  0
  5 23  1  0  0  0  0
  7  1  1  0  0  0  0
  8  2  1  0  0  0  0
  9 18  1  0  0  0  0
 10  9  1  0  0  0  0
 10  3  1  0  0  0  0
 11 10  2  0  0  0  0
 12 16  2  0  0  0  0
 12 11  1  0  0  0  0
 13 12  1  0  0  0  0
 14 13  1  0  0  0  0
 14 15  2  0  0  0  0
 15 16  1  0  0  0  0
 16 17  1  0  0  0  0
 17 22  1  0  0  0  0
 17  9  2  0  0  0  0
 19 11  1  0  0  0  0
 20 13  1  0  0  0  0
 21 14  1  0  0  0  0
 23 24  1  0  0  0  0
 24 25  2  0  0  0  0
 25 26  1  0  0  0  0
 27 25  1  0  0  0  0
 28 27  2  0  0  0  0
 29 23  2  0  0  0  0
 29 28  1  0  0  0  0
M  END
>  <minimizedAffinity>
-5.03713846

$$$$

 OpenBabel03242521353D

 29 32  0  0  0  0  0  0  0  0999 V2000
   39.7300   34.0880   40.4010 C   0  0  0  0  0  0  0  0  0  0  0  0
   39.1030   32.9400   40.9750 C   0  0  0  0  0  0  0  0  0  0  0  0
   39.9040   31.8390   41.2190 C   0  0  0  0  0  0  0  0  0  0  0  0
   41.2230   31.8950   40.9110 N   0  0  0  0  0  0  0  0  0  0  0  0
   41.7970   33.0020   40.3640 C   0  0  0  0  0  0  0  0  0  0  0  0
   41.0470   34.0740   40.1200 N   0  0  0  0  0  0  0  0  0  0  0  0
   39.0490   34.9050   40.2380 H   0  0  0  0  0  0  0  0  0  0  0  0
   38.0720   32.8800   41.2220 H   0  0  0  0  0  0  0  0  0  0  0  0
   40.3510   29.7240   42.3240 C   0  0  0  0  0  0  0  0  0  0  0  0
   39.4120   30.6010   41.7980 C   0  0  0  0  0  0  0  0  0  0  0  0
   38.0870   30.2470   41.8570 C   0  0  0  0  0  0  0  0  0  0  0  0
   37.6530   29.0530   42.4190 C   0  0  0  0  0  0  0  0  0  0  0  0
   36.4270   28.5080   42.5820 N   0  0  0  0  0  0  0  0  0  0  0  0
   36.5850   27.2980   43.2060 C   0  0  0  0  0  0  0  0  0  0  0  0
   37.9210   27.1180   43.4180 N   0  0  0  0  0  0  0  0  0  0  0  0
   38.5870   28.1830   42.9410 C   0  0  0  0  0  0  0  0  0  0  0  0
   39.9280   28.5200   42.8920 C   0  0  0  0  0  0  0  0  0  0  0  0
   41.4130   29.9940   42.2840 H   0  0  0  0  0  0  0  0  0  0  0  0
   37.3790   30.9550   41.4360 H   0  0  0  0  0  0  0  0  0  0  0  0
   35.5140   28.9290   42.2880 H   0  0  0  0  0  0  0  0  0  0  0  0
   35.8110   26.5920   43.4920 H   0  0  0  0  0  0  0  0  0  0  0  0
   40.6850   27.8550   43.2960 H   0  0  0  0  0  0  0  0  0  0  0  0
   43.2230   33.0030   40.0530 C   0  0  0  0  0  0  0  0  0  0  0  0
   43.8640   31.7980   39.7830 C   0  0  0  0  0  3  0  0  0  0  0  0
   45.2040   31.8260   39.4940 C   0  0  0  0  0  0  0  0  0  0  0  0
   45.6140   30.8310   39.2970 H   0  0  0  0  0  0  0  0  0  0  0  0
   45.9020   32.9860   39.4670 N   0  0  0  0  0  0  0  0  0  0  0  0
   45.2290   34.1380   39.7380 C   0  0  0  0  0  3  0  0  0  0  0  0
   43.8960   34.1610   40.0310 N   0  0  0  0  0  0  0  0  0  0  0  0
  1  2  1  0  0  0  0
  2  3  2  0  0  0  0
  2  8  1  0  0  0  0
  3 10  1  0  0  0  0
  4  3  1  0  0  0  0
  5  4  2  0  0  0  0
  6  5  1  0  0  0  0
  6  1  2  0  0  0  0
  7  1  1  0  0  0  0
  9 17  1  0  0  0  0
 10 11  1  0  0  0  0
 10  9  2  0  0  0  0
 11 12  2  0  0  0  0
 12 13  1  0  0  0  0
 12 16  1  0  0  0  0
 13 14  1  0  0  0  0
 14 15  2  0  0  0  0
 14 21  1  0  0  0  0
 16 15  1  0  0  0  0
 17 16  2  0  0  0  0
 17 22  1  0  0  0  0
 18  9  1  0  0  0  0
 19 11  1  0  0  0  0
 20 13  1  0  0  0  0
 23  5  1  0  0  0  0
 24 23  2  0  0  0  0
 25 24  1  0  0  0  0
 26 25  1  0  0  0  0
 27 25  2  0  0  0  0
 27 28  1  0  0  0  0
 28 29  2  0  0  0  0
 29 23  1  0  0  0  0
M  END
>  <minimizedAffinity>
-5.01410913

$$$$

 OpenBabel03242521353D

 29 32  0  0  0  0  0  0  0  0999 V2000
   37.2210   28.3150   43.2920 C   0  0  0  0  0  0  0  0  0  0  0  0
   38.3200   29.2240   43.2160 C   0  0  0  0  0  0  0  0  0  0  0  0
   38.5880   29.7880   41.9820 C   0  0  0  0  0  0  0  0  0  0  0  0
   37.8120   29.4630   40.9190 N   0  0  0  0  0  0  0  0  0  0  0  0
   36.7690   28.5930   41.0170 C   0  0  0  0  0  0  0  0  0  0  0  0
   36.4920   28.0370   42.1950 N   0  0  0  0  0  0  0  0  0  0  0  0
   37.0710   27.9150   44.2790 H   0  0  0  0  0  0  0  0  0  0  0  0
   38.9370   29.4900   44.0380 H   0  0  0  0  0  0  0  0  0  0  0  0
   40.8040   30.6090   42.5390 C   0  0  0  0  0  0  0  0  0  0  0  0
   39.6700   30.7280   41.7470 C   0  0  0  0  0  0  0  0  0  0  0  0
   39.6420   31.7200   40.7980 C   0  0  0  0  0  0  0  0  0  0  0  0
   40.6970   32.6020   40.6020 C   0  0  0  0  0  0  0  0  0  0  0  0
   40.8860   33.6320   39.7480 N   0  0  0  0  0  0  0  0  0  0  0  0
   42.1260   34.1610   39.9940 C   0  0  0  0  0  0  0  0  0  0  0  0
   42.6850   33.4380   41.0080 N   0  0  0  0  0  0  0  0  0  0  0  0
   41.8230   32.4810   41.3900 C   0  0  0  0  0  0  0  0  0  0  0  0
   41.8720   31.4890   42.3530 C   0  0  0  0  0  0  0  0  0  0  0  0
   40.8400   29.8210   43.3010 H   0  0  0  0  0  0  0  0  0  0  0  0
   38.7410   31.7870   40.1960 H   0  0  0  0  0  0  0  0  0  0  0  0
   40.2100   33.9710   39.0220 H   0  0  0  0  0  0  0  0  0  0  0  0
   42.6030   34.9980   39.4930 H   0  0  0  0  0  0  0  0  0  0  0  0
   42.7450   31.3710   42.9870 H   0  0  0  0  0  0  0  0  0  0  0  0
   35.9690   28.2800   39.8380 C   0  0  0  0  0  0  0  0  0  0  0  0
   34.9410   29.1390   39.4630 C   0  0  0  0  0  3  0  0  0  0  0  0
   34.2030   28.8230   38.3510 C   0  0  0  0  0  0  0  0  0  0  0  0
   33.4210   29.5590   38.1400 H   0  0  0  0  0  0  0  0  0  0  0  0
   34.4550   27.7090   37.6240 N   0  0  0  0  0  0  0  0  0  0  0  0
   35.4710   26.9010   38.0320 C   0  0  0  0  0  3  0  0  0  0  0  0
   36.2340   27.1730   39.1310 N   0  0  0  0  0  0  0  0  0  0  0  0
  1  7  1  0  0  0  0
  2  1  1  0  0  0  0
  2  8  1  0  0  0  0
  3  2  2  0  0  0  0
  4  5  2  0  0  0  0
  4  3  1  0  0  0  0
  5  6  1  0  0  0  0
  6  1  2  0  0  0  0
  9 18  1  0  0  0  0
 10  3  1  0  0  0  0
 10  9  2  0  0  0  0
 11 10  1  0  0  0  0
 12 11  2  0  0  0  0
 12 16  1  0  0  0  0
 13 14  1  0  0  0  0
 13 12  1  0  0  0  0
 14 15  2  0  0  0  0
 15 16  1  0  0  0  0
 16 17  2  0  0  0  0
 17  9  1  0  0  0  0
 17 22  1  0  0  0  0
 19 11  1  0  0  0  0
 20 13  1  0  0  0  0
 21 14  1  0  0  0  0
 23  5  1  0  0  0  0
 24 23  1  0  0  0  0
 25 24  2  0  0  0  0
 26 25  1  0  0  0  0
 27 28  2  0  0  0  0
 27 25  1  0  0  0  0
 28 29  1  0  0  0  0
 29 23  2  0  0  0  0
M  END
>  <minimizedAffinity>
-4.99959421

$$$$
