
     RDKit          3D

 40 43  0  0  0  0  0  0  0  0999 V2000
   47.1882   34.5607   42.0098 C   0  0  1  0  0  0  0  0  0  0  0  0
   48.3288   35.4546   41.7514 C   0  0  0  0  0  0  0  0  0  0  0  0
   48.5823   34.1035   42.3099 C   0  0  2  0  0  0  0  0  0  0  0  0
   45.4804   36.0201   43.1436 C   0  0  0  0  0  0  0  0  0  0  0  0
   46.2738   34.8528   43.1544 C   0  0  0  0  0  0  0  0  0  0  0  0
   46.1771   33.9844   44.2544 C   0  0  0  0  0  0  0  0  0  0  0  0
   45.3201   34.3148   45.2567 N   0  0  0  0  0  0  0  0  0  0  0  0
   44.5677   35.4503   45.2158 C   0  0  0  0  0  0  0  0  0  0  0  0
   44.6432   36.3112   44.1577 N   0  0  0  0  0  0  0  0  0  0  0  0
   49.3139   33.2017   41.4881 N   0  0  0  0  0  0  0  0  0  0  0  0
   50.6639   33.1192   42.0504 C   0  0  0  0  0  0  0  0  0  0  0  0
   51.3255   31.8128   41.7433 C   0  0  0  0  0  0  0  0  0  0  0  0
   50.6148   30.7350   42.5257 C   0  0  0  0  0  0  0  0  0  0  0  0
   49.1283   30.9785   42.5747 C   0  0  0  0  0  0  0  0  0  0  0  0
   48.7400   31.8794   41.4200 C   0  0  2  0  0  0  0  0  0  0  0  0
   46.7048   34.1186   41.1226 H   0  0  0  0  0  0  0  0  0  0  0  0
   48.5961   35.6884   40.7018 H   0  0  0  0  0  0  0  0  0  0  0  0
   48.4463   36.3141   42.4467 H   0  0  0  0  0  0  0  0  0  0  0  0
   48.8103   33.9985   43.3956 H   0  0  0  0  0  0  0  0  0  0  0  0
   45.6050   36.6397   42.2702 H   0  0  0  0  0  0  0  0  0  0  0  0
   46.7755   33.0897   44.2780 H   0  0  0  0  0  0  0  0  0  0  0  0
   43.9102   35.6276   46.0681 H   0  0  0  0  0  0  0  0  0  0  0  0
   51.2405   33.9132   41.4980 H   0  0  0  0  0  0  0  0  0  0  0  0
   50.7114   33.3602   43.1138 H   0  0  0  0  0  0  0  0  0  0  0  0
   52.3658   31.8885   42.1178 H   0  0  0  0  0  0  0  0  0  0  0  0
   51.3513   31.6131   40.6708 H   0  0  0  0  0  0  0  0  0  0  0  0
   51.0484   30.7680   43.5658 H   0  0  0  0  0  0  0  0  0  0  0  0
   50.8988   29.7464   42.1382 H   0  0  0  0  0  0  0  0  0  0  0  0
   48.8897   31.5151   43.5027 H   0  0  0  0  0  0  0  0  0  0  0  0
   48.5953   30.0351   42.4233 H   0  0  0  0  0  0  0  0  0  0  0  0
   47.6304   32.0377   41.5642 H   0  0  0  0  0  0  0  0  0  0  0  0
   48.8806   31.2209   40.1131 C   0  0  0  0  0  0  0  0  0  0  0  0
   49.5510   31.9989   39.1608 C   0  0  0  0  0  0  0  0  0  0  0  0
   49.7228   31.4369   37.8907 C   0  0  0  0  0  0  0  0  0  0  0  0
   50.2373   32.0074   37.1239 H   0  0  0  0  0  0  0  0  0  0  0  0
   49.2841   30.2031   37.5371 N   0  0  0  0  0  0  0  0  0  0  0  0
   48.6497   29.5183   38.5077 C   0  0  0  0  0  0  0  0  0  0  0  0
   48.4425   29.9841   39.7537 N   0  0  0  0  0  0  0  0  0  0  0  0
   49.9411   32.9854   39.3258 H   0  0  0  0  0  0  0  0  0  0  0  0
   48.2790   28.5180   38.2658 H   0  0  0  0  0  0  0  0  0  0  0  0
  1  3  1  0
  1  5  1  0
  2  1  1  0
  2  3  1  0
  4  9  2  0
  5  4  1  0
  5  6  2  0
  6  7  1  0
  8  7  2  0
  9  8  1  0
 10 11  1  0
 10  3  1  0
 12 11  1  0
 12 13  1  0
 13 14  1  0
 15 10  1  0
 15 14  1  0
  1 16  1  6
  2 17  1  0
  2 18  1  0
  3 19  1  1
  4 20  1  0
  6 21  1  0
  8 22  1  0
 11 23  1  0
 11 24  1  0
 12 25  1  0
 12 26  1  0
 13 27  1  0
 13 28  1  0
 14 29  1  0
 14 30  1  0
 15 31  1  1
 32 33  2  0
 33 34  1  0
 34 35  1  0
 34 36  2  0
 36 37  1  0
 37 38  2  0
 38 32  1  0
 33 39  1  0
 37 40  1  0
 15 32  1  0
M  ISO  8  16  13  17  13  18  13  19  13  20  14  21  14  22  14  23  13
M  ISO  8  24  13  25  13  26  13  27  13  28  13  29  13  30  13  31  13
M  ISO  1  35  14
M  END
>  <DihAtoms>  (1) 
9,14,31,32

>  <DihDeg>  (1) 
-44.98755847485091

$$$$
