
 OpenBabel03242517583D

 41 43  0  0  0  0  0  0  0  0999 V2000
   37.7640   30.4800   38.9010 O   0  0  0  0  0  0  0  0  0  0  0  0
   39.1550   31.9780   40.2790 C   0  0  0  0  0  0  0  0  0  0  0  0
   38.1170   31.7090   39.4550 C   0  0  0  0  0  0  0  0  0  0  0  0
   37.2860   32.7510   39.0920 C   0  0  0  0  0  0  0  0  0  0  0  0
   37.4730   34.0400   39.5330 C   0  0  0  0  0  0  0  0  0  0  0  0
   38.5350   34.3000   40.3720 C   0  0  0  0  0  0  0  0  0  0  0  0
   39.3720   33.2570   40.7380 C   0  0  0  0  0  0  0  0  0  0  0  0
   36.4340   32.6230   38.4400 H   0  0  0  0  0  0  0  0  0  0  0  0
   36.8240   34.8580   39.2510 H   0  0  0  0  0  0  0  0  0  0  0  0
   38.7000   35.3070   40.7290 H   0  0  0  0  0  0  0  0  0  0  0  0
   40.2120   33.4440   41.3950 H   0  0  0  0  0  0  0  0  0  0  0  0
   40.1060   30.5980   40.7840 S   0  0  0  0  0  0  0  0  0  0  0  0
   41.4080   30.9370   41.3730 O   0  0  0  0  0  0  0  0  0  0  0  0
   40.4400   29.8390   39.4770 O   0  0  0  0  0  0  0  0  0  0  0  0
   39.1470   29.4030   41.6270 C   0  0  0  0  0  0  0  0  0  0  0  0
   38.4870   29.6490   42.8090 C   0  0  0  0  0  3  0  0  0  0  0  0
   37.7680   28.6160   43.3630 C   0  0  0  0  0  0  0  0  0  0  0  0
   37.2550   28.8250   44.2910 H   0  0  0  0  0  0  0  0  0  0  0  0
   37.6890   27.3970   42.8040 N   0  0  0  0  0  0  0  0  0  0  0  0
   38.3490   27.1840   41.6390 C   0  0  0  0  0  3  0  0  0  0  0  0
   39.0610   28.1800   41.0740 N   0  0  0  0  0  0  0  0  0  0  0  0
   34.7330   29.1360   40.1120 C   0  0  0  0  0  0  0  0  0  0  0  0
   34.0230   28.8710   38.9260 C   0  0  0  0  0  0  0  0  0  0  0  0
   34.6010   29.1590   37.7180 C   0  0  0  0  0  0  0  0  0  0  0  0
   35.8350   29.6890   37.7600 N   0  0  0  0  0  0  0  0  0  0  0  0
   36.5010   29.9380   38.8750 C   0  0  0  0  0  0  0  0  0  0  0  0
   35.9510   29.6610   40.0530 N   0  0  0  0  0  0  0  0  0  0  0  0
   34.2700   28.9040   41.0570 H   0  0  0  0  0  0  0  0  0  0  0  0
   33.0450   28.4420   39.0450 H   0  0  0  0  0  0  0  0  0  0  0  0
   33.9700   28.9010   36.4170 C   0  0  0  0  0  0  0  0  0  0  0  0
   34.3510   27.9250   36.0380 H   0  0  0  0  0  0  0  0  0  0  0  0
   34.2900   29.6460   35.6740 H   0  0  0  0  0  0  0  0  0  0  0  0
   32.4760   28.8100   36.5100 C   0  0  0  0  0  0  0  0  0  0  0  0
   32.2770   28.6150   37.6150 H   0  0  0  0  0  0  0  0  0  0  0  0
   32.0080   27.9630   36.0100 H   0  0  0  0  0  0  0  0  0  0  0  0
   31.7880   30.0690   36.2220 C   0  0  0  0  0  3  0  0  0  0  0  0
   30.8280   30.8600   36.6880 C   0  0  0  0  0  3  0  0  0  0  0  0
   30.2860   32.1160   36.0330 C   0  0  0  0  0  0  0  0  0  0  0  0
   30.6380   32.9670   36.6500 H   0  0  0  0  0  0  0  0  0  0  0  0
   29.1780   32.0130   36.0520 H   0  0  0  0  0  0  0  0  0  0  0  0
   30.6950   32.1940   35.0070 H   0  0  0  0  0  0  0  0  0  0  0  0
  1  3  1  0  0  0  0
  2  7  1  0  0  0  0
  2 12  1  0  0  0  0
  3  2  2  0  0  0  0
  4  3  1  0  0  0  0
  4  5  2  0  0  0  0
  5  6  1  0  0  0  0
  6 10  1  0  0  0  0
  6  7  2  0  0  0  0
  7 11  1  0  0  0  0
  8  4  1  0  0  0  0
  9  5  1  0  0  0  0
 12 13  2  0  0  0  0
 12 15  1  0  0  0  0
 14 12  2  0  0  0  0
 15 16  1  0  0  0  0
 16 17  2  0  0  0  0
 17 18  1  0  0  0  0
 19 17  1  0  0  0  0
 20 19  2  0  0  0  0
 21 15  2  0  0  0  0
 21 20  1  0  0  0  0
 22 28  1  0  0  0  0
 23 29  1  0  0  0  0
 23 22  2  0  0  0  0
 24 25  2  0  0  0  0
 24 23  1  0  0  0  0
 25 26  1  0  0  0  0
 26  1  1  0  0  0  0
 26 27  2  0  0  0  0
 27 22  1  0  0  0  0
 30 33  1  0  0  0  0
 30 24  1  0  0  0  0
 31 30  1  0  0  0  0
 32 30  1  0  0  0  0
 33 34  1  0  0  0  0
 35 33  1  0  0  0  0
 36 33  1  0  0  0  0
 36 37  2  0  0  0  0
 38 40  1  0  0  0  0
 38 39  1  0  0  0  0
 38 37  1  0  0  0  0
 41 38  1  0  0  0  0
M  END
>  <minimizedAffinity>
-5.60016394

$$$$

 OpenBabel03242517583D

 41 43  0  0  0  0  0  0  0  0999 V2000
   36.1780   29.3620   40.1480 O   0  0  0  0  0  0  0  0  0  0  0  0
   38.2650   29.0880   41.4310 C   0  0  0  0  0  0  0  0  0  0  0  0
   36.9440   28.8950   41.2140 C   0  0  0  0  0  0  0  0  0  0  0  0
   36.2330   28.1550   42.1380 C   0  0  0  0  0  0  0  0  0  0  0  0
   36.8120   27.6120   43.2620 C   0  0  0  0  0  0  0  0  0  0  0  0
   38.1580   27.8170   43.4710 C   0  0  0  0  0  0  0  0  0  0  0  0
   38.8760   28.5600   42.5460 C   0  0  0  0  0  0  0  0  0  0  0  0
   35.1750   27.9520   42.0410 H   0  0  0  0  0  0  0  0  0  0  0  0
   36.2580   27.0330   43.9880 H   0  0  0  0  0  0  0  0  0  0  0  0
   38.6330   27.4000   44.3480 H   0  0  0  0  0  0  0  0  0  0  0  0
   39.9340   28.7310   42.6950 H   0  0  0  0  0  0  0  0  0  0  0  0
   39.1280   29.9420   40.1710 S   0  0  0  0  0  0  0  0  0  0  0  0
   39.1820   29.2370   38.8830 O   0  0  0  0  0  0  0  0  0  0  0  0
   40.5950   30.0040   40.6590 O   0  0  0  0  0  0  0  0  0  0  0  0
   38.7200   31.6420   40.1210 C   0  0  0  0  0  0  0  0  0  0  0  0
   37.5440   32.1310   39.6010 C   0  0  0  0  0  3  0  0  0  0  0  0
   37.3540   33.4920   39.6270 C   0  0  0  0  0  0  0  0  0  0  0  0
   36.4260   33.8610   39.2150 H   0  0  0  0  0  0  0  0  0  0  0  0
   38.2590   34.3480   40.1310 N   0  0  0  0  0  0  0  0  0  0  0  0
   39.4100   33.8380   40.6370 C   0  0  0  0  0  3  0  0  0  0  0  0
   39.6200   32.5060   40.6240 N   0  0  0  0  0  0  0  0  0  0  0  0
   35.6760   26.5500   38.0730 C   0  0  0  0  0  0  0  0  0  0  0  0
   34.7480   27.0300   37.1310 C   0  0  0  0  0  0  0  0  0  0  0  0
   34.3040   28.3230   37.2220 C   0  0  0  0  0  0  0  0  0  0  0  0
   34.8030   29.0520   38.2330 N   0  0  0  0  0  0  0  0  0  0  0  0
   35.6760   28.6000   39.1180 C   0  0  0  0  0  0  0  0  0  0  0  0
   36.1140   27.3490   39.0390 N   0  0  0  0  0  0  0  0  0  0  0  0
   36.0200   25.5320   37.9910 H   0  0  0  0  0  0  0  0  0  0  0  0
   34.4380   26.3330   36.3730 H   0  0  0  0  0  0  0  0  0  0  0  0
   33.3590   28.9410   36.2820 C   0  0  0  0  0  0  0  0  0  0  0  0
   33.3580   28.3340   35.3470 H   0  0  0  0  0  0  0  0  0  0  0  0
   33.7080   29.9390   35.9790 H   0  0  0  0  0  0  0  0  0  0  0  0
   31.9580   28.9750   36.8130 C   0  0  0  0  0  0  0  0  0  0  0  0
   32.0840   28.8580   37.9390 H   0  0  0  0  0  0  0  0  0  0  0  0
   31.3140   28.1420   36.5380 H   0  0  0  0  0  0  0  0  0  0  0  0
   31.2920   30.2660   36.6430 C   0  0  0  0  0  3  0  0  0  0  0  0
   30.8550   31.0950   35.7010 C   0  0  0  0  0  3  0  0  0  0  0  0
   30.2650   32.4770   35.9070 C   0  0  0  0  0  0  0  0  0  0  0  0
   29.1850   32.3940   35.6740 H   0  0  0  0  0  0  0  0  0  0  0  0
   30.7990   33.1430   35.1920 H   0  0  0  0  0  0  0  0  0  0  0  0
   30.4070   32.7760   36.9640 H   0  0  0  0  0  0  0  0  0  0  0  0
  1  3  1  0  0  0  0
  2  7  1  0  0  0  0
  3  2  2  0  0  0  0
  3  4  1  0  0  0  0
  4  5  2  0  0  0  0
  5  6  1  0  0  0  0
  5  9  1  0  0  0  0
  6 10  1  0  0  0  0
  7 11  1  0  0  0  0
  7  6  2  0  0  0  0
  8  4  1  0  0  0  0
 12 14  2  0  0  0  0
 12  2  1  0  0  0  0
 13 12  2  0  0  0  0
 15 12  1  0  0  0  0
 15 21  1  0  0  0  0
 16 17  1  0  0  0  0
 16 15  2  0  0  0  0
 17 19  2  0  0  0  0
 18 17  1  0  0  0  0
 19 20  1  0  0  0  0
 21 20  2  0  0  0  0
 22 27  1  0  0  0  0
 23 24  1  0  0  0  0
 23 22  2  0  0  0  0
 24 25  2  0  0  0  0
 25 26  1  0  0  0  0
 26  1  1  0  0  0  0
 27 26  2  0  0  0  0
 28 22  1  0  0  0  0
 29 23  1  0  0  0  0
 30 33  1  0  0  0  0
 30 24  1  0  0  0  0
 31 30  1  0  0  0  0
 32 30  1  0  0  0  0
 33 34  1  0  0  0  0
 35 33  1  0  0  0  0
 36 33  1  0  0  0  0
 37 38  1  0  0  0  0
 37 36  2  0  0  0  0
 38 41  1  0  0  0  0
 39 38  1  0  0  0  0
 40 38  1  0  0  0  0
M  END
>  <minimizedAffinity>
-5.58587122

$$$$

 OpenBabel03242517583D

 41 43  0  0  0  0  0  0  0  0999 V2000
   36.1430   28.9360   40.3390 O   0  0  0  0  0  0  0  0  0  0  0  0
   38.2930   28.9160   41.5440 C   0  0  0  0  0  0  0  0  0  0  0  0
   36.9830   28.6120   41.4030 C   0  0  0  0  0  0  0  0  0  0  0  0
   36.3650   27.9000   42.4120 C   0  0  0  0  0  0  0  0  0  0  0  0
   37.0270   27.4920   43.5470 C   0  0  0  0  0  0  0  0  0  0  0  0
   38.3610   27.8090   43.6790 C   0  0  0  0  0  0  0  0  0  0  0  0
   38.9850   28.5240   42.6680 C   0  0  0  0  0  0  0  0  0  0  0  0
   35.3230   27.6150   42.3790 H   0  0  0  0  0  0  0  0  0  0  0  0
   36.5470   26.9350   44.3400 H   0  0  0  0  0  0  0  0  0  0  0  0
   38.9000   27.4990   44.5630 H   0  0  0  0  0  0  0  0  0  0  0  0
   40.0320   28.7820   42.7560 H   0  0  0  0  0  0  0  0  0  0  0  0
   39.0390   29.7260   40.1850 S   0  0  0  0  0  0  0  0  0  0  0  0
   39.0760   28.9330   38.9480 O   0  0  0  0  0  0  0  0  0  0  0  0
   40.5220   29.9090   40.5900 O   0  0  0  0  0  0  0  0  0  0  0  0
   38.5250   31.3910   40.0380 C   0  0  0  0  0  0  0  0  0  0  0  0
   37.4940   31.8030   39.2260 C   0  0  0  0  0  3  0  0  0  0  0  0
   37.1960   33.1450   39.2080 C   0  0  0  0  0  0  0  0  0  0  0  0
   36.3830   33.4540   38.5660 H   0  0  0  0  0  0  0  0  0  0  0  0
   37.8630   34.0530   39.9410 N   0  0  0  0  0  0  0  0  0  0  0  0
   38.8750   33.6180   40.7320 C   0  0  0  0  0  3  0  0  0  0  0  0
   39.1870   32.3060   40.7680 N   0  0  0  0  0  0  0  0  0  0  0  0
   34.3650   27.7870   37.5140 C   0  0  0  0  0  0  0  0  0  0  0  0
   34.8190   26.4610   37.3880 C   0  0  0  0  0  0  0  0  0  0  0  0
   35.7370   25.9770   38.2830 C   0  0  0  0  0  0  0  0  0  0  0  0
   36.1440   26.8300   39.2370 N   0  0  0  0  0  0  0  0  0  0  0  0
   35.7160   28.0760   39.3550 C   0  0  0  0  0  0  0  0  0  0  0  0
   34.8260   28.5560   38.4930 N   0  0  0  0  0  0  0  0  0  0  0  0
   33.6430   28.1580   36.8060 H   0  0  0  0  0  0  0  0  0  0  0  0
   34.4040   25.8920   36.5760 H   0  0  0  0  0  0  0  0  0  0  0  0
   36.2620   24.6050   38.2690 C   0  0  0  0  0  0  0  0  0  0  0  0
   37.3680   24.6620   38.1460 H   0  0  0  0  0  0  0  0  0  0  0  0
   35.8990   24.0580   37.3850 H   0  0  0  0  0  0  0  0  0  0  0  0
   35.9740   23.8660   39.5410 C   0  0  0  0  0  0  0  0  0  0  0  0
   35.9190   22.7730   39.2240 H   0  0  0  0  0  0  0  0  0  0  0  0
   35.0060   24.0500   40.0020 H   0  0  0  0  0  0  0  0  0  0  0  0
   37.0670   23.9180   40.5140 C   0  0  0  0  0  3  0  0  0  0  0  0
   37.3320   24.2890   41.7610 C   0  0  0  0  0  3  0  0  0  0  0  0
   38.6860   24.2830   42.4440 C   0  0  0  0  0  0  0  0  0  0  0  0
   38.6550   23.4670   43.1930 H   0  0  0  0  0  0  0  0  0  0  0  0
   38.7890   25.2850   42.9190 H   0  0  0  0  0  0  0  0  0  0  0  0
   39.4700   24.0800   41.6890 H   0  0  0  0  0  0  0  0  0  0  0  0
  1  3  1  0  0  0  0
  2  7  1  0  0  0  0
  3  2  2  0  0  0  0
  3  4  1  0  0  0  0
  4  5  2  0  0  0  0
  5  6  1  0  0  0  0
  5  9  1  0  0  0  0
  6 10  1  0  0  0  0
  7 11  1  0  0  0  0
  7  6  2  0  0  0  0
  8  4  1  0  0  0  0
 12 14  2  0  0  0  0
 12  2  1  0  0  0  0
 13 12  2  0  0  0  0
 15 12  1  0  0  0  0
 15 21  1  0  0  0  0
 16 15  2  0  0  0  0
 17 16  1  0  0  0  0
 17 19  2  0  0  0  0
 18 17  1  0  0  0  0
 19 20  1  0  0  0  0
 20 21  2  0  0  0  0
 22 27  1  0  0  0  0
 23 22  2  0  0  0  0
 23 24  1  0  0  0  0
 24 25  2  0  0  0  0
 25 26  1  0  0  0  0
 26  1  1  0  0  0  0
 27 26  2  0  0  0  0
 28 22  1  0  0  0  0
 29 23  1  0  0  0  0
 30 24  1  0  0  0  0
 30 33  1  0  0  0  0
 31 30  1  0  0  0  0
 32 30  1  0  0  0  0
 33 35  1  0  0  0  0
 33 36  1  0  0  0  0
 34 33  1  0  0  0  0
 36 37  2  0  0  0  0
 37 38  1  0  0  0  0
 38 40  1  0  0  0  0
 38 39  1  0  0  0  0
 41 38  1  0  0  0  0
M  END
>  <minimizedAffinity>
-5.55187988

$$$$

 OpenBabel03242517583D

 41 43  0  0  0  0  0  0  0  0999 V2000
   38.6730   29.7510   40.1490 O   0  0  0  0  0  0  0  0  0  0  0  0
   39.6830   31.9990   40.2030 C   0  0  0  0  0  0  0  0  0  0  0  0
   38.6420   31.1430   40.0950 C   0  0  0  0  0  0  0  0  0  0  0  0
   37.3800   31.6720   39.9040 C   0  0  0  0  0  0  0  0  0  0  0  0
   37.1450   33.0240   39.8190 C   0  0  0  0  0  0  0  0  0  0  0  0
   38.2150   33.8850   39.9300 C   0  0  0  0  0  0  0  0  0  0  0  0
   39.4840   33.3590   40.1210 C   0  0  0  0  0  0  0  0  0  0  0  0
   36.4940   31.0590   39.8090 H   0  0  0  0  0  0  0  0  0  0  0  0
   36.1590   33.4420   39.6700 H   0  0  0  0  0  0  0  0  0  0  0  0
   38.0530   34.9520   39.8650 H   0  0  0  0  0  0  0  0  0  0  0  0
   40.3350   34.0210   40.2090 H   0  0  0  0  0  0  0  0  0  0  0  0
   41.2360   31.2710   40.5490 S   0  0  0  0  0  0  0  0  0  0  0  0
   41.5320   30.0640   39.7650 O   0  0  0  0  0  0  0  0  0  0  0  0
   41.1360   30.7850   42.0150 O   0  0  0  0  0  0  0  0  0  0  0  0
   42.5130   32.4590   40.6770 C   0  0  0  0  0  0  0  0  0  0  0  0
   43.3240   32.8250   39.6280 C   0  0  0  0  0  3  0  0  0  0  0  0
   44.2890   33.7730   39.8710 C   0  0  0  0  0  0  0  0  0  0  0  0
   44.9190   34.0510   39.0370 H   0  0  0  0  0  0  0  0  0  0  0  0
   44.4670   34.3450   41.0740 N   0  0  0  0  0  0  0  0  0  0  0  0
   43.6530   33.9650   42.0900 C   0  0  0  0  0  3  0  0  0  0  0  0
   42.6980   33.0370   41.8770 N   0  0  0  0  0  0  0  0  0  0  0  0
   37.6450   28.7430   43.3730 C   0  0  0  0  0  0  0  0  0  0  0  0
   38.3610   27.5470   43.5590 C   0  0  0  0  0  0  0  0  0  0  0  0
   39.1940   27.0990   42.5680 C   0  0  0  0  0  0  0  0  0  0  0  0
   39.2640   27.8590   41.4620 N   0  0  0  0  0  0  0  0  0  0  0  0
   38.5900   28.9840   41.2880 C   0  0  0  0  0  0  0  0  0  0  0  0
   37.7800   29.4280   42.2430 N   0  0  0  0  0  0  0  0  0  0  0  0
   36.9940   29.0870   44.1590 H   0  0  0  0  0  0  0  0  0  0  0  0
   38.2090   27.0440   44.4970 H   0  0  0  0  0  0  0  0  0  0  0  0
   40.0120   25.8820   42.6610 C   0  0  0  0  0  0  0  0  0  0  0  0
   40.7130   26.0040   43.5180 H   0  0  0  0  0  0  0  0  0  0  0  0
   40.6540   25.7760   41.7740 H   0  0  0  0  0  0  0  0  0  0  0  0
   39.1880   24.6540   42.9070 C   0  0  0  0  0  0  0  0  0  0  0  0
   38.5580   24.9180   43.8180 H   0  0  0  0  0  0  0  0  0  0  0  0
   39.7280   23.7610   43.2160 H   0  0  0  0  0  0  0  0  0  0  0  0
   38.2170   24.3720   41.8500 C   0  0  0  0  0  3  0  0  0  0  0  0
   36.9090   24.3420   41.6200 C   0  0  0  0  0  3  0  0  0  0  0  0
   36.2180   23.8810   40.3500 C   0  0  0  0  0  0  0  0  0  0  0  0
   35.8050   24.7920   39.8720 H   0  0  0  0  0  0  0  0  0  0  0  0
   35.4190   23.1800   40.6790 H   0  0  0  0  0  0  0  0  0  0  0  0
   36.9650   23.4050   39.6860 H   0  0  0  0  0  0  0  0  0  0  0  0
  1 26  1  0  0  0  0
  2 12  1  0  0  0  0
  3  1  1  0  0  0  0
  3  2  2  0  0  0  0
  4  3  1  0  0  0  0
  5  4  2  0  0  0  0
  5  6  1  0  0  0  0
  6  7  2  0  0  0  0
  7  2  1  0  0  0  0
  7 11  1  0  0  0  0
  8  4  1  0  0  0  0
  9  5  1  0  0  0  0
 10  6  1  0  0  0  0
 12 15  1  0  0  0  0
 12 14  2  0  0  0  0
 13 12  2  0  0  0  0
 15 21  1  0  0  0  0
 16 17  1  0  0  0  0
 16 15  2  0  0  0  0
 17 19  2  0  0  0  0
 18 17  1  0  0  0  0
 19 20  1  0  0  0  0
 21 20  2  0  0  0  0
 22 23  1  0  0  0  0
 22 28  1  0  0  0  0
 23 29  1  0  0  0  0
 24 30  1  0  0  0  0
 24 23  2  0  0  0  0
 25 24  1  0  0  0  0
 26 25  2  0  0  0  0
 26 27  1  0  0  0  0
 27 22  2  0  0  0  0
 30 33  1  0  0  0  0
 30 31  1  0  0  0  0
 32 30  1  0  0  0  0
 33 35  1  0  0  0  0
 33 34  1  0  0  0  0
 36 33  1  0  0  0  0
 37 36  2  0  0  0  0
 38 40  1  0  0  0  0
 38 37  1  0  0  0  0
 39 38  1  0  0  0  0
 41 38  1  0  0  0  0
M  END
>  <minimizedAffinity>
-5.38585567

$$$$

 OpenBabel03242517583D

 41 43  0  0  0  0  0  0  0  0999 V2000
   38.0670   26.7330   38.8400 O   0  0  0  0  0  0  0  0  0  0  0  0
   37.9750   26.4800   41.2900 C   0  0  0  0  0  0  0  0  0  0  0  0
   37.7240   26.0810   40.0230 C   0  0  0  0  0  0  0  0  0  0  0  0
   37.0450   24.8930   39.8360 C   0  0  0  0  0  0  0  0  0  0  0  0
   36.6170   24.1080   40.8810 C   0  0  0  0  0  0  0  0  0  0  0  0
   36.8790   24.5270   42.1670 C   0  0  0  0  0  0  0  0  0  0  0  0
   37.5610   25.7190   42.3600 C   0  0  0  0  0  0  0  0  0  0  0  0
   36.8040   24.5010   38.8570 H   0  0  0  0  0  0  0  0  0  0  0  0
   36.0850   23.1770   40.7380 H   0  0  0  0  0  0  0  0  0  0  0  0
   36.5520   23.9250   43.0030 H   0  0  0  0  0  0  0  0  0  0  0  0
   37.7740   26.0630   43.3630 H   0  0  0  0  0  0  0  0  0  0  0  0
   38.9300   27.9370   41.4560 S   0  0  0  0  0  0  0  0  0  0  0  0
   40.3120   27.8190   40.9700 O   0  0  0  0  0  0  0  0  0  0  0  0
   39.0590   28.1630   42.9820 O   0  0  0  0  0  0  0  0  0  0  0  0
   38.0470   29.3690   40.9800 C   0  0  0  0  0  0  0  0  0  0  0  0
   36.7660   29.6500   41.3950 C   0  0  0  0  0  3  0  0  0  0  0  0
   36.1920   30.8140   40.9420 C   0  0  0  0  0  0  0  0  0  0  0  0
   35.1850   31.0210   41.2770 H   0  0  0  0  0  0  0  0  0  0  0  0
   36.8230   31.6710   40.1220 N   0  0  0  0  0  0  0  0  0  0  0  0
   38.0850   31.3680   39.7290 C   0  0  0  0  0  3  0  0  0  0  0  0
   38.6710   30.2320   40.1590 N   0  0  0  0  0  0  0  0  0  0  0  0
   37.2130   29.2650   36.5330 C   0  0  0  0  0  0  0  0  0  0  0  0
   35.8400   29.4470   36.7770 C   0  0  0  0  0  0  0  0  0  0  0  0
   35.2210   28.6920   37.7380 C   0  0  0  0  0  0  0  0  0  0  0  0
   35.9960   27.8110   38.3920 N   0  0  0  0  0  0  0  0  0  0  0  0
   37.2880   27.6400   38.1610 C   0  0  0  0  0  0  0  0  0  0  0  0
   37.8980   28.3670   37.2320 N   0  0  0  0  0  0  0  0  0  0  0  0
   37.6900   29.8640   35.7750 H   0  0  0  0  0  0  0  0  0  0  0  0
   35.3460   30.1920   36.1790 H   0  0  0  0  0  0  0  0  0  0  0  0
   33.8020   28.8130   38.1000 C   0  0  0  0  0  0  0  0  0  0  0  0
   33.6590   29.7980   38.6010 H   0  0  0  0  0  0  0  0  0  0  0  0
   33.5270   28.0610   38.8540 H   0  0  0  0  0  0  0  0  0  0  0  0
   32.8980   28.7660   36.9040 C   0  0  0  0  0  0  0  0  0  0  0  0
   32.3050   27.8040   37.0410 H   0  0  0  0  0  0  0  0  0  0  0  0
   33.3800   28.6380   35.9360 H   0  0  0  0  0  0  0  0  0  0  0  0
   31.8920   29.8270   36.8830 C   0  0  0  0  0  3  0  0  0  0  0  0
   31.2330   30.6200   36.0450 C   0  0  0  0  0  3  0  0  0  0  0  0
   30.2740   31.7370   36.4120 C   0  0  0  0  0  0  0  0  0  0  0  0
   29.2610   31.3840   36.1310 H   0  0  0  0  0  0  0  0  0  0  0  0
   30.5940   32.6180   35.8110 H   0  0  0  0  0  0  0  0  0  0  0  0
   30.3280   31.9150   37.5030 H   0  0  0  0  0  0  0  0  0  0  0  0
  1  3  1  0  0  0  0
  2 12  1  0  0  0  0
  2  7  1  0  0  0  0
  3  2  2  0  0  0  0
  4  3  1  0  0  0  0
  4  5  2  0  0  0  0
  5  6  1  0  0  0  0
  6  7  2  0  0  0  0
  6 10  1  0  0  0  0
  7 11  1  0  0  0  0
  8  4  1  0  0  0  0
  9  5  1  0  0  0  0
 12 14  2  0  0  0  0
 13 12  2  0  0  0  0
 15 16  1  0  0  0  0
 15 12  1  0  0  0  0
 17 18  1  0  0  0  0
 17 16  2  0  0  0  0
 19 17  1  0  0  0  0
 20 19  2  0  0  0  0
 20 21  1  0  0  0  0
 21 15  2  0  0  0  0
 22 23  2  0  0  0  0
 22 27  1  0  0  0  0
 23 24  1  0  0  0  0
 24 30  1  0  0  0  0
 24 25  2  0  0  0  0
 26 25  1  0  0  0  0
 26  1  1  0  0  0  0
 27 26  2  0  0  0  0
 28 22  1  0  0  0  0
 29 23  1  0  0  0  0
 30 31  1  0  0  0  0
 30 32  1  0  0  0  0
 33 34  1  0  0  0  0
 33 30  1  0  0  0  0
 35 33  1  0  0  0  0
 36 33  1  0  0  0  0
 37 38  1  0  0  0  0
 37 36  2  0  0  0  0
 38 41  1  0  0  0  0
 39 38  1  0  0  0  0
 40 38  1  0  0  0  0
M  END
>  <minimizedAffinity>
-5.37772894

$$$$

 OpenBabel03242517583D

 41 43  0  0  0  0  0  0  0  0999 V2000
   38.3330   28.8330   42.9330 O   0  0  0  0  0  0  0  0  0  0  0  0
   37.8740   30.3240   41.0240 C   0  0  0  0  0  0  0  0  0  0  0  0
   37.5710   29.3130   41.8700 C   0  0  0  0  0  0  0  0  0  0  0  0
   36.3730   28.6480   41.6890 C   0  0  0  0  0  0  0  0  0  0  0  0
   35.4850   28.9720   40.6900 C   0  0  0  0  0  0  0  0  0  0  0  0
   35.8070   30.0030   39.8350 C   0  0  0  0  0  0  0  0  0  0  0  0
   37.0080   30.6740   40.0120 C   0  0  0  0  0  0  0  0  0  0  0  0
   36.0540   27.8310   42.3210 H   0  0  0  0  0  0  0  0  0  0  0  0
   34.5470   28.4540   40.5460 H   0  0  0  0  0  0  0  0  0  0  0  0
   35.1230   30.2740   39.0430 H   0  0  0  0  0  0  0  0  0  0  0  0
   37.2760   31.4860   39.3490 H   0  0  0  0  0  0  0  0  0  0  0  0
   39.3520   31.1920   41.3710 S   0  0  0  0  0  0  0  0  0  0  0  0
   39.7540   31.1720   42.7850 O   0  0  0  0  0  0  0  0  0  0  0  0
   39.0310   32.6750   41.0650 O   0  0  0  0  0  0  0  0  0  0  0  0
   40.6040   30.8710   40.1930 C   0  0  0  0  0  0  0  0  0  0  0  0
   40.8030   29.6440   39.6040 C   0  0  0  0  0  3  0  0  0  0  0  0
   41.8260   29.5340   38.6930 C   0  0  0  0  0  0  0  0  0  0  0  0
   41.9700   28.5640   38.2390 H   0  0  0  0  0  0  0  0  0  0  0  0
   42.6250   30.5620   38.3610 N   0  0  0  0  0  0  0  0  0  0  0  0
   42.4050   31.7610   38.9570 C   0  0  0  0  0  3  0  0  0  0  0  0
   41.4080   31.8950   39.8550 N   0  0  0  0  0  0  0  0  0  0  0  0
   40.8100   26.4310   43.6790 C   0  0  0  0  0  0  0  0  0  0  0  0
   40.2520   25.2480   43.1610 C   0  0  0  0  0  0  0  0  0  0  0  0
   39.0220   25.2930   42.5580 C   0  0  0  0  0  0  0  0  0  0  0  0
   38.4290   26.4970   42.5070 N   0  0  0  0  0  0  0  0  0  0  0  0
   38.9550   27.6080   42.9940 C   0  0  0  0  0  0  0  0  0  0  0  0
   40.1460   27.5770   43.5800 N   0  0  0  0  0  0  0  0  0  0  0  0
   41.7780   26.3850   44.1510 H   0  0  0  0  0  0  0  0  0  0  0  0
   40.8430   24.3570   43.2710 H   0  0  0  0  0  0  0  0  0  0  0  0
   38.3530   24.1310   41.9570 C   0  0  0  0  0  0  0  0  0  0  0  0
   38.4770   23.2670   42.6510 H   0  0  0  0  0  0  0  0  0  0  0  0
   38.8560   23.8300   41.0260 H   0  0  0  0  0  0  0  0  0  0  0  0
   36.8840   24.3550   41.7540 C   0  0  0  0  0  0  0  0  0  0  0  0
   36.6600   25.2950   42.3550 H   0  0  0  0  0  0  0  0  0  0  0  0
   36.2160   23.6090   42.1800 H   0  0  0  0  0  0  0  0  0  0  0  0
   36.5240   24.6960   40.3770 C   0  0  0  0  0  3  0  0  0  0  0  0
   36.7430   25.6130   39.4420 C   0  0  0  0  0  3  0  0  0  0  0  0
   36.0820   25.6990   38.0790 C   0  0  0  0  0  0  0  0  0  0  0  0
   36.8610   25.4340   37.3360 H   0  0  0  0  0  0  0  0  0  0  0  0
   35.7420   26.7540   37.9740 H   0  0  0  0  0  0  0  0  0  0  0  0
   35.2490   24.9700   38.0350 H   0  0  0  0  0  0  0  0  0  0  0  0
  1 26  1  0  0  0  0
  2 12  1  0  0  0  0
  2  3  1  0  0  0  0
  3  1  1  0  0  0  0
  4  3  2  0  0  0  0
  4  8  1  0  0  0  0
  5  4  1  0  0  0  0
  6  7  1  0  0  0  0
  6  5  2  0  0  0  0
  7  2  2  0  0  0  0
  9  5  1  0  0  0  0
 10  6  1  0  0  0  0
 11  7  1  0  0  0  0
 12 13  2  0  0  0  0
 14 12  2  0  0  0  0
 15 12  1  0  0  0  0
 16 15  2  0  0  0  0
 17 16  1  0  0  0  0
 18 17  1  0  0  0  0
 19 17  2  0  0  0  0
 19 20  1  0  0  0  0
 20 21  2  0  0  0  0
 21 15  1  0  0  0  0
 22 28  1  0  0  0  0
 23 29  1  0  0  0  0
 23 22  2  0  0  0  0
 24 23  1  0  0  0  0
 25 24  2  0  0  0  0
 25 26  1  0  0  0  0
 26 27  2  0  0  0  0
 27 22  1  0  0  0  0
 30 24  1  0  0  0  0
 30 31  1  0  0  0  0
 32 30  1  0  0  0  0
 33 30  1  0  0  0  0
 33 35  1  0  0  0  0
 33 34  1  0  0  0  0
 36 33  1  0  0  0  0
 37 36  2  0  0  0  0
 38 37  1  0  0  0  0
 39 38  1  0  0  0  0
 40 38  1  0  0  0  0
 41 38  1  0  0  0  0
M  END
>  <minimizedAffinity>
-5.37094879

$$$$

 OpenBabel03242517583D

 41 43  0  0  0  0  0  0  0  0999 V2000
   36.2490   27.3130   39.8780 O   0  0  0  0  0  0  0  0  0  0  0  0
   37.3130   29.1840   41.0810 C   0  0  0  0  0  0  0  0  0  0  0  0
   36.8040   27.9340   40.9960 C   0  0  0  0  0  0  0  0  0  0  0  0
   36.8140   27.1470   42.1310 C   0  0  0  0  0  0  0  0  0  0  0  0
   37.3160   27.5830   43.3340 C   0  0  0  0  0  0  0  0  0  0  0  0
   37.8310   28.8590   43.4070 C   0  0  0  0  0  0  0  0  0  0  0  0
   37.8230   29.6530   42.2700 C   0  0  0  0  0  0  0  0  0  0  0  0
   36.4280   26.1370   42.1490 H   0  0  0  0  0  0  0  0  0  0  0  0
   37.3250   26.9700   44.2250 H   0  0  0  0  0  0  0  0  0  0  0  0
   38.2300   29.2220   44.3440 H   0  0  0  0  0  0  0  0  0  0  0  0
   38.2230   30.6570   42.3100 H   0  0  0  0  0  0  0  0  0  0  0  0
   37.3670   30.0890   39.5840 S   0  0  0  0  0  0  0  0  0  0  0  0
   36.1100   30.0850   38.8230 O   0  0  0  0  0  0  0  0  0  0  0  0
   38.3810   29.3320   38.6920 O   0  0  0  0  0  0  0  0  0  0  0  0
   38.1710   31.6310   39.7690 C   0  0  0  0  0  0  0  0  0  0  0  0
   37.5070   32.8220   39.9520 C   0  0  0  0  0  3  0  0  0  0  0  0
   38.2660   33.9600   40.0840 C   0  0  0  0  0  0  0  0  0  0  0  0
   37.7300   34.8880   40.2270 H   0  0  0  0  0  0  0  0  0  0  0  0
   39.6090   33.9530   40.0400 N   0  0  0  0  0  0  0  0  0  0  0  0
   40.2370   32.7650   39.8590 C   0  0  0  0  0  3  0  0  0  0  0  0
   39.5150   31.6330   39.7270 N   0  0  0  0  0  0  0  0  0  0  0  0
   38.3960   24.8100   38.6180 C   0  0  0  0  0  0  0  0  0  0  0  0
   37.5000   23.7730   38.3020 C   0  0  0  0  0  0  0  0  0  0  0  0
   36.1600   23.9490   38.5280 C   0  0  0  0  0  0  0  0  0  0  0  0
   35.7960   25.1320   39.0490 N   0  0  0  0  0  0  0  0  0  0  0  0
   36.6390   26.1070   39.3450 C   0  0  0  0  0  0  0  0  0  0  0  0
   37.9400   25.9470   39.1300 N   0  0  0  0  0  0  0  0  0  0  0  0
   39.4470   24.6620   38.4360 H   0  0  0  0  0  0  0  0  0  0  0  0
   37.9340   22.8810   37.8880 H   0  0  0  0  0  0  0  0  0  0  0  0
   35.1300   22.9500   38.2130 C   0  0  0  0  0  0  0  0  0  0  0  0
   35.6410   22.0430   37.8140 H   0  0  0  0  0  0  0  0  0  0  0  0
   34.4830   23.3020   37.3950 H   0  0  0  0  0  0  0  0  0  0  0  0
   34.3370   22.5410   39.4180 C   0  0  0  0  0  0  0  0  0  0  0  0
   34.7210   23.2200   40.2480 H   0  0  0  0  0  0  0  0  0  0  0  0
   34.5170   21.5380   39.8010 H   0  0  0  0  0  0  0  0  0  0  0  0
   32.9090   22.8450   39.3170 C   0  0  0  0  0  3  0  0  0  0  0  0
   31.7720   22.7320   39.9920 C   0  0  0  0  0  3  0  0  0  0  0  0
   30.3820   23.0940   39.5020 C   0  0  0  0  0  0  0  0  0  0  0  0
   30.0790   24.0000   40.0640 H   0  0  0  0  0  0  0  0  0  0  0  0
   29.7400   22.2160   39.7410 H   0  0  0  0  0  0  0  0  0  0  0  0
   30.4280   23.3140   38.4180 H   0  0  0  0  0  0  0  0  0  0  0  0
  1  3  1  0  0  0  0
  2  7  1  0  0  0  0
  3  2  2  0  0  0  0
  3  4  1  0  0  0  0
  4  8  1  0  0  0  0
  4  5  2  0  0  0  0
  5  6  1  0  0  0  0
  5  9  1  0  0  0  0
  6 10  1  0  0  0  0
  7 11  1  0  0  0  0
  7  6  2  0  0  0  0
 12 15  1  0  0  0  0
 12  2  1  0  0  0  0
 13 12  2  0  0  0  0
 14 12  2  0  0  0  0
 15 16  1  0  0  0  0
 16 17  2  0  0  0  0
 17 18  1  0  0  0  0
 19 17  1  0  0  0  0
 20 19  2  0  0  0  0
 21 15  2  0  0  0  0
 21 20  1  0  0  0  0
 22 27  1  0  0  0  0
 23 24  1  0  0  0  0
 23 22  2  0  0  0  0
 24 25  2  0  0  0  0
 25 26  1  0  0  0  0
 26  1  1  0  0  0  0
 27 26  2  0  0  0  0
 28 22  1  0  0  0  0
 29 23  1  0  0  0  0
 30 24  1  0  0  0  0
 30 33  1  0  0  0  0
 31 30  1  0  0  0  0
 32 30  1  0  0  0  0
 33 35  1  0  0  0  0
 33 34  1  0  0  0  0
 36 33  1  0  0  0  0
 36 37  2  0  0  0  0
 38 40  1  0  0  0  0
 38 37  1  0  0  0  0
 38 39  1  0  0  0  0
 41 38  1  0  0  0  0
M  END
>  <minimizedAffinity>
-5.36296225

$$$$

 OpenBabel03242517583D

 41 43  0  0  0  0  0  0  0  0999 V2000
   37.1430   31.7670   40.8880 O   0  0  0  0  0  0  0  0  0  0  0  0
   39.6020   31.7580   41.0580 C   0  0  0  0  0  0  0  0  0  0  0  0
   38.4120   32.3300   40.7670 C   0  0  0  0  0  0  0  0  0  0  0  0
   38.4110   33.6240   40.2840 C   0  0  0  0  0  0  0  0  0  0  0  0
   39.5650   34.3470   40.0900 C   0  0  0  0  0  0  0  0  0  0  0  0
   40.7700   33.7520   40.3900 C   0  0  0  0  0  0  0  0  0  0  0  0
   40.7760   32.4520   40.8740 C   0  0  0  0  0  0  0  0  0  0  0  0
   37.5040   34.1560   40.0280 H   0  0  0  0  0  0  0  0  0  0  0  0
   39.5680   35.3600   39.7130 H   0  0  0  0  0  0  0  0  0  0  0  0
   41.6900   34.3020   40.2450 H   0  0  0  0  0  0  0  0  0  0  0  0
   41.7140   31.9690   41.1150 H   0  0  0  0  0  0  0  0  0  0  0  0
   39.5270   30.1580   41.7630 S   0  0  0  0  0  0  0  0  0  0  0  0
   38.7210   30.0690   42.9880 O   0  0  0  0  0  0  0  0  0  0  0  0
   40.9760   29.8470   42.2100 O   0  0  0  0  0  0  0  0  0  0  0  0
   39.2740   28.9130   40.5610 C   0  0  0  0  0  0  0  0  0  0  0  0
   39.9240   28.8770   39.3490 C   0  0  0  0  0  3  0  0  0  0  0  0
   39.6280   27.8390   38.4990 C   0  0  0  0  0  0  0  0  0  0  0  0
   40.1470   27.8240   37.5510 H   0  0  0  0  0  0  0  0  0  0  0  0
   38.7420   26.8750   38.8020 N   0  0  0  0  0  0  0  0  0  0  0  0
   38.1160   26.9350   40.0040 C   0  0  0  0  0  3  0  0  0  0  0  0
   38.3890   27.9440   40.8560 N   0  0  0  0  0  0  0  0  0  0  0  0
   34.9970   29.2100   39.7390 C   0  0  0  0  0  0  0  0  0  0  0  0
   35.3930   29.0610   38.3980 C   0  0  0  0  0  0  0  0  0  0  0  0
   36.4000   29.8480   37.9020 C   0  0  0  0  0  0  0  0  0  0  0  0
   36.9450   30.7250   38.7610 N   0  0  0  0  0  0  0  0  0  0  0  0
   36.5720   30.8640   40.0220 C   0  0  0  0  0  0  0  0  0  0  0  0
   35.5980   30.1060   40.5130 N   0  0  0  0  0  0  0  0  0  0  0  0
   34.2050   28.5860   40.1190 H   0  0  0  0  0  0  0  0  0  0  0  0
   34.8680   28.3160   37.8280 H   0  0  0  0  0  0  0  0  0  0  0  0
   36.9160   29.7630   36.5290 C   0  0  0  0  0  0  0  0  0  0  0  0
   37.6400   28.9170   36.4870 H   0  0  0  0  0  0  0  0  0  0  0  0
   37.5010   30.6600   36.2780 H   0  0  0  0  0  0  0  0  0  0  0  0
   35.8350   29.4990   35.5240 C   0  0  0  0  0  0  0  0  0  0  0  0
   34.9450   30.0960   35.9080 H   0  0  0  0  0  0  0  0  0  0  0  0
   35.4590   28.4790   35.4720 H   0  0  0  0  0  0  0  0  0  0  0  0
   36.1140   30.0520   34.1980 C   0  0  0  0  0  3  0  0  0  0  0  0
   36.3030   31.2080   33.5720 C   0  0  0  0  0  3  0  0  0  0  0  0
   36.4840   31.4160   32.0810 C   0  0  0  0  0  0  0  0  0  0  0  0
   37.5450   31.7000   31.9310 H   0  0  0  0  0  0  0  0  0  0  0  0
   35.7860   32.2390   31.8040 H   0  0  0  0  0  0  0  0  0  0  0  0
   36.2630   30.4680   31.5540 H   0  0  0  0  0  0  0  0  0  0  0  0
  2 12  1  0  0  0  0
  3  1  1  0  0  0  0
  3  2  2  0  0  0  0
  4  3  1  0  0  0  0
  5  4  2  0  0  0  0
  5  6  1  0  0  0  0
  6  7  2  0  0  0  0
  7  2  1  0  0  0  0
  7 11  1  0  0  0  0
  8  4  1  0  0  0  0
  9  5  1  0  0  0  0
 10  6  1  0  0  0  0
 12 14  2  0  0  0  0
 12 13  2  0  0  0  0
 15 21  1  0  0  0  0
 15 12  1  0  0  0  0
 16 15  2  0  0  0  0
 17 19  2  0  0  0  0
 17 16  1  0  0  0  0
 18 17  1  0  0  0  0
 19 20  1  0  0  0  0
 20 21  2  0  0  0  0
 22 28  1  0  0  0  0
 22 27  1  0  0  0  0
 23 22  2  0  0  0  0
 24 23  1  0  0  0  0
 24 25  2  0  0  0  0
 25 26  1  0  0  0  0
 26 27  2  0  0  0  0
 26  1  1  0  0  0  0
 29 23  1  0  0  0  0
 30 24  1  0  0  0  0
 31 30  1  0  0  0  0
 32 30  1  0  0  0  0
 33 34  1  0  0  0  0
 33 30  1  0  0  0  0
 35 33  1  0  0  0  0
 36 33  1  0  0  0  0
 37 36  2  0  0  0  0
 38 37  1  0  0  0  0
 39 38  1  0  0  0  0
 40 38  1  0  0  0  0
 41 38  1  0  0  0  0
M  END
>  <minimizedAffinity>
-5.33104086

$$$$

 OpenBabel03242517583D

 41 43  0  0  0  0  0  0  0  0999 V2000
   40.4290   29.8930   39.8880 O   0  0  0  0  0  0  0  0  0  0  0  0
   38.7790   31.4820   38.9780 C   0  0  0  0  0  0  0  0  0  0  0  0
   39.3510   30.2620   39.0850 C   0  0  0  0  0  0  0  0  0  0  0  0
   38.8370   29.2320   38.3210 C   0  0  0  0  0  0  0  0  0  0  0  0
   37.7760   29.3990   37.4630 C   0  0  0  0  0  0  0  0  0  0  0  0
   37.2030   30.6480   37.3630 C   0  0  0  0  0  0  0  0  0  0  0  0
   37.7160   31.6860   38.1270 C   0  0  0  0  0  0  0  0  0  0  0  0
   39.2340   28.2260   38.3480 H   0  0  0  0  0  0  0  0  0  0  0  0
   37.3710   28.5950   36.8630 H   0  0  0  0  0  0  0  0  0  0  0  0
   36.3680   30.8020   36.6930 H   0  0  0  0  0  0  0  0  0  0  0  0
   37.2780   32.6730   38.0600 H   0  0  0  0  0  0  0  0  0  0  0  0
   39.4070   32.7160   40.0480 S   0  0  0  0  0  0  0  0  0  0  0  0
   39.2450   32.4220   41.4780 O   0  0  0  0  0  0  0  0  0  0  0  0
   38.5250   33.9610   39.7900 O   0  0  0  0  0  0  0  0  0  0  0  0
   40.9730   33.3050   39.5370 C   0  0  0  0  0  0  0  0  0  0  0  0
   42.0010   33.5930   40.4050 C   0  0  0  0  0  3  0  0  0  0  0  0
   43.1790   34.0490   39.8650 C   0  0  0  0  0  0  0  0  0  0  0  0
   43.9780   34.2710   40.5600 H   0  0  0  0  0  0  0  0  0  0  0  0
   43.3620   34.2210   38.5450 N   0  0  0  0  0  0  0  0  0  0  0  0
   42.3320   33.9290   37.7140 C   0  0  0  0  0  3  0  0  0  0  0  0
   41.1640   33.4800   38.2180 N   0  0  0  0  0  0  0  0  0  0  0  0
   41.4970   27.2300   41.9460 C   0  0  0  0  0  0  0  0  0  0  0  0
   40.4350   27.1090   42.8600 C   0  0  0  0  0  0  0  0  0  0  0  0
   39.3580   27.9500   42.7570 C   0  0  0  0  0  0  0  0  0  0  0  0
   39.4020   28.8510   41.7620 N   0  0  0  0  0  0  0  0  0  0  0  0
   40.4000   28.9640   40.9020 C   0  0  0  0  0  0  0  0  0  0  0  0
   41.4490   28.1540   40.9920 N   0  0  0  0  0  0  0  0  0  0  0  0
   42.3390   26.5640   42.0350 H   0  0  0  0  0  0  0  0  0  0  0  0
   40.5360   26.3390   43.6040 H   0  0  0  0  0  0  0  0  0  0  0  0
   38.1820   27.8990   43.6350 C   0  0  0  0  0  0  0  0  0  0  0  0
   37.8580   28.9460   43.8360 H   0  0  0  0  0  0  0  0  0  0  0  0
   38.4470   27.4830   44.6180 H   0  0  0  0  0  0  0  0  0  0  0  0
   37.0300   27.1700   43.0110 C   0  0  0  0  0  0  0  0  0  0  0  0
   36.3340   26.9460   43.8850 H   0  0  0  0  0  0  0  0  0  0  0  0
   37.2450   26.1880   42.5940 H   0  0  0  0  0  0  0  0  0  0  0  0
   36.2330   27.9930   42.1010 C   0  0  0  0  0  3  0  0  0  0  0  0
   36.0720   28.2570   40.8090 C   0  0  0  0  0  3  0  0  0  0  0  0
   35.1590   29.3050   40.2010 C   0  0  0  0  0  0  0  0  0  0  0  0
   34.3330   28.7530   39.7100 H   0  0  0  0  0  0  0  0  0  0  0  0
   35.7860   29.8630   39.4700 H   0  0  0  0  0  0  0  0  0  0  0  0
   34.7610   29.9490   41.0090 H   0  0  0  0  0  0  0  0  0  0  0  0
  1 26  1  0  0  0  0
  2  3  1  0  0  0  0
  2 12  1  0  0  0  0
  3  1  1  0  0  0  0
  4  8  1  0  0  0  0
  4  3  2  0  0  0  0
  5  4  1  0  0  0  0
  6  5  2  0  0  0  0
  6  7  1  0  0  0  0
  7  2  2  0  0  0  0
  9  5  1  0  0  0  0
 10  6  1  0  0  0  0
 11  7  1  0  0  0  0
 12 13  2  0  0  0  0
 14 12  2  0  0  0  0
 15 12  1  0  0  0  0
 15 16  1  0  0  0  0
 17 16  2  0  0  0  0
 17 18  1  0  0  0  0
 19 17  1  0  0  0  0
 20 21  1  0  0  0  0
 20 19  2  0  0  0  0
 21 15  2  0  0  0  0
 22 28  1  0  0  0  0
 22 23  1  0  0  0  0
 23 29  1  0  0  0  0
 24 23  2  0  0  0  0
 24 30  1  0  0  0  0
 25 24  1  0  0  0  0
 26 27  1  0  0  0  0
 26 25  2  0  0  0  0
 27 22  2  0  0  0  0
 30 31  1  0  0  0  0
 30 32  1  0  0  0  0
 33 30  1  0  0  0  0
 33 34  1  0  0  0  0
 35 33  1  0  0  0  0
 36 33  1  0  0  0  0
 37 36  2  0  0  0  0
 38 37  1  0  0  0  0
 38 41  1  0  0  0  0
 39 38  1  0  0  0  0
 40 38  1  0  0  0  0
M  END
>  <minimizedAffinity>
-5.26687956

$$$$
