
 OpenBabel03252502223D

 31 33  0  0  1  0  0  0  0  0999 V2000
   36.6590   28.3280   40.9230 N   0  0  0  0  0  0  0  0  0  0  0  0
   36.9860   27.0300   41.5010 C   0  0  0  0  0  0  0  0  0  0  0  0
   36.6280   27.1590   42.9930 C   0  0  0  0  0  0  0  0  0  0  0  0
   37.4420   28.2030   43.6800 C   0  0  0  0  0  0  0  0  0  0  0  0
   37.8420   29.3450   42.8190 C   0  0  0  0  0  0  0  0  0  0  0  0
   36.9790   29.5460   41.6070 C   0  0  1  0  0  0  0  0  0  0  0  0
   38.0760   26.9030   41.3720 H   0  0  0  0  0  0  0  0  0  0  0  0
   36.3770   26.2280   41.0730 H   0  0  0  0  0  0  0  0  0  0  0  0
   35.5360   27.3350   43.0440 H   0  0  0  0  0  0  0  0  0  0  0  0
   36.8640   26.1650   43.4270 H   0  0  0  0  0  0  0  0  0  0  0  0
   36.8450   28.6260   44.5240 H   0  0  0  0  0  0  0  0  0  0  0  0
   38.3340   27.7310   44.1600 H   0  0  0  0  0  0  0  0  0  0  0  0
   37.8830   30.2900   43.3890 H   0  0  0  0  0  0  0  0  0  0  0  0
   38.8760   29.1520   42.4420 H   0  0  0  0  0  0  0  0  0  0  0  0
   35.9880   29.9530   41.9680 H   0  0  0  0  0  0  0  0  0  0  0  0
   34.1330   28.9300   38.2400 C   0  0  0  0  0  0  0  0  0  0  0  0
   34.6780   28.8690   39.5300 C   0  0  0  0  0  0  0  0  0  0  0  0
   36.0160   28.4270   39.6630 C   0  0  0  0  0  0  0  0  0  0  0  0
   36.6880   28.0850   38.5280 N   0  0  0  0  0  0  0  0  0  0  0  0
   36.1130   28.1620   37.2910 C   0  0  0  0  0  0  0  0  0  0  0  0
   34.8450   28.5830   37.1650 N   0  0  0  0  0  0  0  0  0  0  0  0
   33.1140   29.2660   38.1050 H   0  0  0  0  0  0  0  0  0  0  0  0
   34.1350   29.1390   40.4030 H   0  0  0  0  0  0  0  0  0  0  0  0
   36.7090   27.8740   36.4110 H   0  0  0  0  0  0  0  0  0  0  0  0
   37.5820   30.5910   40.7750 C   0  0  0  0  0  0  0  0  0  0  0  0
   36.8950   31.7600   40.4440 C   0  0  0  0  0  3  0  0  0  0  0  0
   37.4000   32.7870   39.6640 C   0  0  0  0  0  0  0  0  0  0  0  0
   36.7300   33.6390   39.4960 H   0  0  0  0  0  0  0  0  0  0  0  0
   38.6380   32.6550   39.1910 N   0  0  0  0  0  0  0  0  0  0  0  0
   39.3240   31.5380   39.4940 C   0  0  0  0  0  3  0  0  0  0  0  0
   38.8390   30.5220   40.2590 N   0  0  0  0  0  0  0  0  0  0  0  0
  1  2  1  0  0  0  0
  1  6  1  0  0  0  0
  2  3  1  0  0  0  0
  3  9  1  0  0  0  0
  3 10  1  0  0  0  0
  3  4  1  0  0  0  0
  4 12  1  0  0  0  0
  4 11  1  0  0  0  0
  5 13  1  0  0  0  0
  5  4  1  0  0  0  0
  6 15  1  1  0  0  0
  6  5  1  0  0  0  0
  7  2  1  0  0  0  0
  8  2  1  0  0  0  0
 14  5  1  0  0  0  0
 16 17  1  0  0  0  0
 17 18  2  0  0  0  0
 17 23  1  0  0  0  0
 18  1  1  0  0  0  0
 19 18  1  0  0  0  0
 20 19  2  0  0  0  0
 21 20  1  0  0  0  0
 21 16  2  0  0  0  0
 22 16  1  0  0  0  0
 24 20  1  0  0  0  0
 25  6  1  0  0  0  0
 26 25  1  0  0  0  0
 27 26  2  0  0  0  0
 28 27  1  0  0  0  0
 29 30  2  0  0  0  0
 29 27  1  0  0  0  0
 30 31  1  0  0  0  0
 31 25  2  0  0  0  0
M  END
>  <minimizedAffinity>
-4.86109591

$$$$

 OpenBabel03252502223D

 31 33  0  0  1  0  0  0  0  0999 V2000
   36.7540   28.4050   40.9380 N   0  0  0  0  0  0  0  0  0  0  0  0
   37.1220   27.0800   41.4230 C   0  0  0  0  0  0  0  0  0  0  0  0
   36.7640   27.0920   42.9200 C   0  0  0  0  0  0  0  0  0  0  0  0
   37.5470   28.1080   43.6790 C   0  0  0  0  0  0  0  0  0  0  0  0
   37.9110   29.3210   42.9020 C   0  0  0  0  0  0  0  0  0  0  0  0
   37.0380   29.5810   41.7080 C   0  0  1  0  0  0  0  0  0  0  0  0
   38.2150   26.9960   41.2840 H   0  0  0  0  0  0  0  0  0  0  0  0
   36.5360   26.2930   40.9390 H   0  0  0  0  0  0  0  0  0  0  0  0
   35.6670   27.2300   42.9850 H   0  0  0  0  0  0  0  0  0  0  0  0
   37.0310   26.0770   43.2820 H   0  0  0  0  0  0  0  0  0  0  0  0
   36.9400   28.4520   44.5520 H   0  0  0  0  0  0  0  0  0  0  0  0
   38.4550   27.6310   44.1240 H   0  0  0  0  0  0  0  0  0  0  0  0
   37.9240   30.2240   43.5380 H   0  0  0  0  0  0  0  0  0  0  0  0
   38.9490   29.1860   42.5120 H   0  0  0  0  0  0  0  0  0  0  0  0
   36.0360   29.9310   42.0970 H   0  0  0  0  0  0  0  0  0  0  0  0
   34.1790   29.0260   38.3070 C   0  0  0  0  0  0  0  0  0  0  0  0
   34.7260   28.8800   39.5890 C   0  0  0  0  0  0  0  0  0  0  0  0
   36.1050   28.5740   39.6900 C   0  0  0  0  0  0  0  0  0  0  0  0
   36.8110   28.4370   38.5320 N   0  0  0  0  0  0  0  0  0  0  0  0
   36.2320   28.5880   37.3040 C   0  0  0  0  0  0  0  0  0  0  0  0
   34.9260   28.8800   37.2100 N   0  0  0  0  0  0  0  0  0  0  0  0
   33.1290   29.2610   38.1970 H   0  0  0  0  0  0  0  0  0  0  0  0
   34.1570   28.9900   40.4790 H   0  0  0  0  0  0  0  0  0  0  0  0
   36.8570   28.4670   36.4060 H   0  0  0  0  0  0  0  0  0  0  0  0
   37.6070   30.7010   40.9520 C   0  0  0  0  0  0  0  0  0  0  0  0
   38.9410   30.7170   40.5450 C   0  0  0  0  0  3  0  0  0  0  0  0
   39.5450   31.7380   39.8300 C   0  0  0  0  0  0  0  0  0  0  0  0
   40.6050   31.5960   39.5890 H   0  0  0  0  0  0  0  0  0  0  0  0
   38.7970   32.7890   39.5010 N   0  0  0  0  0  0  0  0  0  0  0  0
   37.5050   32.8010   39.8800 C   0  0  0  0  0  3  0  0  0  0  0  0
   36.9010   31.8050   40.5820 N   0  0  0  0  0  0  0  0  0  0  0  0
  1  2  1  0  0  0  0
  1  6  1  0  0  0  0
  2  3  1  0  0  0  0
  3  9  1  0  0  0  0
  3 10  1  0  0  0  0
  3  4  1  0  0  0  0
  4 12  1  0  0  0  0
  4 11  1  0  0  0  0
  5 13  1  0  0  0  0
  5  4  1  0  0  0  0
  6 15  1  1  0  0  0
  6  5  1  0  0  0  0
  7  2  1  0  0  0  0
  8  2  1  0  0  0  0
 14  5  1  0  0  0  0
 16 17  1  0  0  0  0
 17 18  2  0  0  0  0
 17 23  1  0  0  0  0
 18  1  1  0  0  0  0
 19 18  1  0  0  0  0
 20 19  2  0  0  0  0
 21 20  1  0  0  0  0
 21 16  2  0  0  0  0
 22 16  1  0  0  0  0
 24 20  1  0  0  0  0
 25  6  1  0  0  0  0
 26 25  2  0  0  0  0
 27 26  1  0  0  0  0
 28 27  1  0  0  0  0
 29 27  2  0  0  0  0
 29 30  1  0  0  0  0
 30 31  2  0  0  0  0
 31 25  1  0  0  0  0
M  END
>  <minimizedAffinity>
-4.8369956

$$$$

 OpenBabel03252502223D

 31 33  0  0  1  0  0  0  0  0999 V2000
   38.6800   31.3930   40.6290 N   0  0  0  0  0  0  0  0  0  0  0  0
   39.7910   32.2660   40.2680 C   0  0  0  0  0  0  0  0  0  0  0  0
   39.3470   33.6740   40.7050 C   0  0  0  0  0  0  0  0  0  0  0  0
   38.1280   34.1320   39.9790 C   0  0  0  0  0  0  0  0  0  0  0  0
   37.1900   33.0470   39.5920 C   0  0  0  0  0  0  0  0  0  0  0  0
   37.3210   31.7910   40.4030 C   0  0  1  0  0  0  0  0  0  0  0  0
   39.8790   32.2100   39.1680 H   0  0  0  0  0  0  0  0  0  0  0  0
   40.7030   32.0120   40.8150 H   0  0  0  0  0  0  0  0  0  0  0  0
   39.2280   33.6430   41.8060 H   0  0  0  0  0  0  0  0  0  0  0  0
   40.2010   34.3340   40.4430 H   0  0  0  0  0  0  0  0  0  0  0  0
   37.5600   34.8340   40.6370 H   0  0  0  0  0  0  0  0  0  0  0  0
   38.4240   34.7410   39.0900 H   0  0  0  0  0  0  0  0  0  0  0  0
   36.1390   33.3860   39.6260 H   0  0  0  0  0  0  0  0  0  0  0  0
   37.4030   32.7640   38.5330 H   0  0  0  0  0  0  0  0  0  0  0  0
   36.9020   32.0110   41.4300 H   0  0  0  0  0  0  0  0  0  0  0  0
   38.9280   28.5740   43.0640 C   0  0  0  0  0  0  0  0  0  0  0  0
   38.6690   29.8650   42.5840 C   0  0  0  0  0  0  0  0  0  0  0  0
   38.9090   30.1220   41.2130 C   0  0  0  0  0  0  0  0  0  0  0  0
   39.3790   29.0970   40.4470 N   0  0  0  0  0  0  0  0  0  0  0  0
   39.6170   27.8540   40.9620 C   0  0  0  0  0  0  0  0  0  0  0  0
   39.3880   27.6110   42.2620 N   0  0  0  0  0  0  0  0  0  0  0  0
   38.7540   28.3470   44.1070 H   0  0  0  0  0  0  0  0  0  0  0  0
   38.3030   30.6510   43.1990 H   0  0  0  0  0  0  0  0  0  0  0  0
   39.9940   27.0660   40.2920 H   0  0  0  0  0  0  0  0  0  0  0  0
   36.4590   30.7630   39.8120 C   0  0  0  0  0  0  0  0  0  0  0  0
   36.5400   30.4180   38.4620 C   0  0  0  0  0  3  0  0  0  0  0  0
   35.7600   29.4590   37.8370 C   0  0  0  0  0  0  0  0  0  0  0  0
   35.9490   29.3080   36.7670 H   0  0  0  0  0  0  0  0  0  0  0  0
   34.8620   28.8120   38.5760 N   0  0  0  0  0  0  0  0  0  0  0  0
   34.7620   29.1250   39.8820 C   0  0  0  0  0  3  0  0  0  0  0  0
   35.5220   30.0640   40.5080 N   0  0  0  0  0  0  0  0  0  0  0  0
  1 18  1  0  0  0  0
  2  1  1  0  0  0  0
  2  3  1  0  0  0  0
  2  8  1  0  0  0  0
  3  9  1  0  0  0  0
  4 11  1  0  0  0  0
  4  3  1  0  0  0  0
  5 13  1  0  0  0  0
  5  4  1  0  0  0  0
  5  6  1  0  0  0  0
  6  1  1  0  0  0  0
  6 15  1  1  0  0  0
  7  2  1  0  0  0  0
 10  3  1  0  0  0  0
 12  4  1  0  0  0  0
 14  5  1  0  0  0  0
 16 22  1  0  0  0  0
 17 16  1  0  0  0  0
 17 23  1  0  0  0  0
 18 17  2  0  0  0  0
 19 20  2  0  0  0  0
 19 18  1  0  0  0  0
 20 21  1  0  0  0  0
 21 16  2  0  0  0  0
 24 20  1  0  0  0  0
 25  6  1  0  0  0  0
 25 31  1  0  0  0  0
 26 25  2  0  0  0  0
 27 26  1  0  0  0  0
 27 29  2  0  0  0  0
 28 27  1  0  0  0  0
 29 30  1  0  0  0  0
 30 31  2  0  0  0  0
M  END
>  <minimizedAffinity>
-4.7880559

$$$$

 OpenBabel03252502223D

 31 33  0  0  1  0  0  0  0  0999 V2000
   36.8430   28.3040   40.9260 N   0  0  0  0  0  0  0  0  0  0  0  0
   37.2560   26.9940   41.4140 C   0  0  0  0  0  0  0  0  0  0  0  0
   36.8730   26.9860   42.9050 C   0  0  0  0  0  0  0  0  0  0  0  0
   37.6000   28.0320   43.6800 C   0  0  0  0  0  0  0  0  0  0  0  0
   37.9270   29.2600   42.9120 C   0  0  0  0  0  0  0  0  0  0  0  0
   37.0650   29.4880   41.7040 C   0  0  1  0  0  0  0  0  0  0  0  0
   38.3550   26.9550   41.2940 H   0  0  0  0  0  0  0  0  0  0  0  0
   36.7130   26.1850   40.9180 H   0  0  0  0  0  0  0  0  0  0  0  0
   35.7700   27.0790   42.9500 H   0  0  0  0  0  0  0  0  0  0  0  0
   37.1750   25.9820   43.2690 H   0  0  0  0  0  0  0  0  0  0  0  0
   36.9640   28.3470   44.5420 H   0  0  0  0  0  0  0  0  0  0  0  0
   38.5190   27.5910   44.1390 H   0  0  0  0  0  0  0  0  0  0  0  0
   37.8920   30.1610   43.5500 H   0  0  0  0  0  0  0  0  0  0  0  0
   38.9760   29.1700   42.5390 H   0  0  0  0  0  0  0  0  0  0  0  0
   36.0430   29.7960   42.0750 H   0  0  0  0  0  0  0  0  0  0  0  0
   36.1730   28.3950   37.2550 C   0  0  0  0  0  0  0  0  0  0  0  0
   36.8890   28.2230   38.4460 C   0  0  0  0  0  0  0  0  0  0  0  0
   36.2090   28.4490   39.6670 C   0  0  0  0  0  0  0  0  0  0  0  0
   34.8990   28.8220   39.6040 N   0  0  0  0  0  0  0  0  0  0  0  0
   34.2430   28.9770   38.4160 C   0  0  0  0  0  0  0  0  0  0  0  0
   34.8890   28.7610   37.2600 N   0  0  0  0  0  0  0  0  0  0  0  0
   36.6650   28.2290   36.3060 H   0  0  0  0  0  0  0  0  0  0  0  0
   37.9120   27.9330   38.4730 H   0  0  0  0  0  0  0  0  0  0  0  0
   33.1850   29.2780   38.4300 H   0  0  0  0  0  0  0  0  0  0  0  0
   37.6000   30.6330   40.9600 C   0  0  0  0  0  0  0  0  0  0  0  0
   38.9400   30.7050   40.5780 C   0  0  0  0  0  3  0  0  0  0  0  0
   39.5130   31.7520   39.8760 C   0  0  0  0  0  0  0  0  0  0  0  0
   40.5830   31.6550   39.6540 H   0  0  0  0  0  0  0  0  0  0  0  0
   38.7290   32.7730   39.5350 N   0  0  0  0  0  0  0  0  0  0  0  0
   37.4310   32.7300   39.8900 C   0  0  0  0  0  3  0  0  0  0  0  0
   36.8560   31.7080   40.5790 N   0  0  0  0  0  0  0  0  0  0  0  0
  1  2  1  0  0  0  0
  1  6  1  0  0  0  0
  2  3  1  0  0  0  0
  3  9  1  0  0  0  0
  3 10  1  0  0  0  0
  3  4  1  0  0  0  0
  4 12  1  0  0  0  0
  4 11  1  0  0  0  0
  5 13  1  0  0  0  0
  5  4  1  0  0  0  0
  6 15  1  1  0  0  0
  6  5  1  0  0  0  0
  7  2  1  0  0  0  0
  8  2  1  0  0  0  0
 14  5  1  0  0  0  0
 16 21  2  0  0  0  0
 16 17  1  0  0  0  0
 17 23  1  0  0  0  0
 17 18  2  0  0  0  0
 18  1  1  0  0  0  0
 19 18  1  0  0  0  0
 20 24  1  0  0  0  0
 20 19  2  0  0  0  0
 21 20  1  0  0  0  0
 22 16  1  0  0  0  0
 25  6  1  0  0  0  0
 26 25  2  0  0  0  0
 27 26  1  0  0  0  0
 28 27  1  0  0  0  0
 29 27  2  0  0  0  0
 29 30  1  0  0  0  0
 30 31  2  0  0  0  0
 31 25  1  0  0  0  0
M  END
>  <minimizedAffinity>
-4.70986462

$$$$

 OpenBabel03252502223D

 31 33  0  0  1  0  0  0  0  0999 V2000
   37.7220   29.4000   41.3630 N   0  0  0  0  0  0  0  0  0  0  0  0
   37.6380   29.3070   42.8150 C   0  0  0  0  0  0  0  0  0  0  0  0
   38.3100   27.9670   43.1670 C   0  0  0  0  0  0  0  0  0  0  0  0
   37.5910   26.8030   42.5740 C   0  0  0  0  0  0  0  0  0  0  0  0
   36.9180   27.0810   41.2800 C   0  0  0  0  0  0  0  0  0  0  0  0
   37.4680   28.2600   40.5310 C   0  0  1  0  0  0  0  0  0  0  0  0
   36.5600   29.2770   43.0580 H   0  0  0  0  0  0  0  0  0  0  0  0
   38.1960   30.1080   43.3080 H   0  0  0  0  0  0  0  0  0  0  0  0
   39.3680   28.0500   42.8510 H   0  0  0  0  0  0  0  0  0  0  0  0
   38.2580   27.9070   44.2740 H   0  0  0  0  0  0  0  0  0  0  0  0
   38.3270   25.9840   42.3880 H   0  0  0  0  0  0  0  0  0  0  0  0
   36.8700   26.3860   43.3190 H   0  0  0  0  0  0  0  0  0  0  0  0
   36.9310   26.1990   40.6160 H   0  0  0  0  0  0  0  0  0  0  0  0
   35.8450   27.3120   41.4880 H   0  0  0  0  0  0  0  0  0  0  0  0
   38.4790   27.9570   40.1270 H   0  0  0  0  0  0  0  0  0  0  0  0
   37.5670   32.8620   39.9720 C   0  0  0  0  0  0  0  0  0  0  0  0
   37.1400   31.6960   40.6210 C   0  0  0  0  0  0  0  0  0  0  0  0
   38.0560   30.6220   40.7260 C   0  0  0  0  0  0  0  0  0  0  0  0
   39.2960   30.7900   40.1860 N   0  0  0  0  0  0  0  0  0  0  0  0
   39.6660   31.9470   39.5610 C   0  0  0  0  0  0  0  0  0  0  0  0
   38.7970   32.9650   39.4640 N   0  0  0  0  0  0  0  0  0  0  0  0
   36.8900   33.7000   39.8770 H   0  0  0  0  0  0  0  0  0  0  0  0
   36.1670   31.5850   41.0360 H   0  0  0  0  0  0  0  0  0  0  0  0
   40.6830   32.0230   39.1460 H   0  0  0  0  0  0  0  0  0  0  0  0
   36.6130   28.5140   39.3680 C   0  0  0  0  0  0  0  0  0  0  0  0
   35.2290   28.6510   39.4840 C   0  0  0  0  0  3  0  0  0  0  0  0
   34.3610   28.8910   38.4320 C   0  0  0  0  0  0  0  0  0  0  0  0
   33.2990   28.9720   38.6920 H   0  0  0  0  0  0  0  0  0  0  0  0
   34.8820   29.0000   37.2110 N   0  0  0  0  0  0  0  0  0  0  0  0
   36.2140   28.8720   37.0690 C   0  0  0  0  0  3  0  0  0  0  0  0
   37.0770   28.6370   38.0940 N   0  0  0  0  0  0  0  0  0  0  0  0
  1  2  1  0  0  0  0
  2  7  1  0  0  0  0
  2  3  1  0  0  0  0
  2  8  1  0  0  0  0
  3 10  1  0  0  0  0
  4  3  1  0  0  0  0
  4 12  1  0  0  0  0
  5 14  1  0  0  0  0
  5  4  1  0  0  0  0
  6 15  1  6  0  0  0
  6  5  1  0  0  0  0
  6  1  1  0  0  0  0
  9  3  1  0  0  0  0
 11  4  1  0  0  0  0
 13  5  1  0  0  0  0
 16 17  1  0  0  0  0
 17 18  2  0  0  0  0
 17 23  1  0  0  0  0
 18  1  1  0  0  0  0
 19 18  1  0  0  0  0
 20 19  2  0  0  0  0
 21 20  1  0  0  0  0
 21 16  2  0  0  0  0
 22 16  1  0  0  0  0
 24 20  1  0  0  0  0
 25 26  1  0  0  0  0
 25  6  1  0  0  0  0
 27 28  1  0  0  0  0
 27 26  2  0  0  0  0
 29 27  1  0  0  0  0
 30 29  2  0  0  0  0
 30 31  1  0  0  0  0
 31 25  2  0  0  0  0
M  END
>  <minimizedAffinity>
-4.53662348

$$$$

 OpenBabel03252502223D

 31 33  0  0  1  0  0  0  0  0999 V2000
   36.5250   28.9870   40.2080 N   0  0  0  0  0  0  0  0  0  0  0  0
   35.0850   28.8890   40.0050 C   0  0  0  0  0  0  0  0  0  0  0  0
   34.9170   28.5300   38.5170 C   0  0  0  0  0  0  0  0  0  0  0  0
   35.4520   29.5930   37.6180 C   0  0  0  0  0  0  0  0  0  0  0  0
   36.6070   30.3490   38.1660 C   0  0  0  0  0  0  0  0  0  0  0  0
   37.3670   29.6310   39.2430 C   0  0  1  0  0  0  0  0  0  0  0  0
   34.6770   29.8950   40.2110 H   0  0  0  0  0  0  0  0  0  0  0  0
   34.6430   28.0840   40.6010 H   0  0  0  0  0  0  0  0  0  0  0  0
   35.3910   27.5390   38.3730 H   0  0  0  0  0  0  0  0  0  0  0  0
   33.8200   28.4410   38.3690 H   0  0  0  0  0  0  0  0  0  0  0  0
   35.7960   29.1180   36.6670 H   0  0  0  0  0  0  0  0  0  0  0  0
   34.6270   30.2840   37.3180 H   0  0  0  0  0  0  0  0  0  0  0  0
   37.3110   30.6490   37.3710 H   0  0  0  0  0  0  0  0  0  0  0  0
   36.2200   31.2900   38.6260 H   0  0  0  0  0  0  0  0  0  0  0  0
   37.9420   28.7940   38.7450 H   0  0  0  0  0  0  0  0  0  0  0  0
   38.3480   26.7440   42.5710 C   0  0  0  0  0  0  0  0  0  0  0  0
   37.7720   27.1850   41.3720 C   0  0  0  0  0  0  0  0  0  0  0  0
   37.1380   28.4510   41.3680 C   0  0  0  0  0  0  0  0  0  0  0  0
   37.1280   29.1600   42.5320 N   0  0  0  0  0  0  0  0  0  0  0  0
   37.7040   28.6860   43.6770 C   0  0  0  0  0  0  0  0  0  0  0  0
   38.3050   27.4870   43.6800 N   0  0  0  0  0  0  0  0  0  0  0  0
   38.8400   25.7810   42.6060 H   0  0  0  0  0  0  0  0  0  0  0  0
   37.7900   26.6150   40.4750 H   0  0  0  0  0  0  0  0  0  0  0  0
   37.6640   29.3070   44.5860 H   0  0  0  0  0  0  0  0  0  0  0  0
   38.3650   30.5500   39.7990 C   0  0  0  0  0  0  0  0  0  0  0  0
   38.0260   31.8280   40.2450 C   0  0  0  0  0  3  0  0  0  0  0  0
   38.9140   32.7460   40.7800 C   0  0  0  0  0  0  0  0  0  0  0  0
   38.4860   33.7100   41.0830 H   0  0  0  0  0  0  0  0  0  0  0  0
   40.1920   32.3870   40.8800 N   0  0  0  0  0  0  0  0  0  0  0  0
   40.5490   31.1600   40.4570 C   0  0  0  0  0  3  0  0  0  0  0  0
   39.6870   30.2490   39.9300 N   0  0  0  0  0  0  0  0  0  0  0  0
  1 18  1  0  0  0  0
  2  1  1  0  0  0  0
  2  7  1  0  0  0  0
  2  8  1  0  0  0  0
  3  2  1  0  0  0  0
  4  5  1  0  0  0  0
  4  3  1  0  0  0  0
  5 14  1  0  0  0  0
  5  6  1  0  0  0  0
  6 15  1  6  0  0  0
  6 25  1  0  0  0  0
  6  1  1  0  0  0  0
  9  3  1  0  0  0  0
 10  3  1  0  0  0  0
 11  4  1  0  0  0  0
 12  4  1  0  0  0  0
 13  5  1  0  0  0  0
 16 22  1  0  0  0  0
 16 21  1  0  0  0  0
 17 16  2  0  0  0  0
 18 17  1  0  0  0  0
 18 19  2  0  0  0  0
 19 20  1  0  0  0  0
 20 21  2  0  0  0  0
 20 24  1  0  0  0  0
 23 17  1  0  0  0  0
 25 31  2  0  0  0  0
 25 26  1  0  0  0  0
 26 27  2  0  0  0  0
 27 29  1  0  0  0  0
 27 28  1  0  0  0  0
 30 29  2  0  0  0  0
 31 30  1  0  0  0  0
M  END
>  <minimizedAffinity>
-4.47997046

$$$$

 OpenBabel03252502223D

 31 33  0  0  1  0  0  0  0  0999 V2000
   36.9330   30.0860   38.7140 N   0  0  0  0  0  0  0  0  0  0  0  0
   36.7310   29.7370   37.3130 C   0  0  0  0  0  0  0  0  0  0  0  0
   35.2620   29.2850   37.2230 C   0  0  0  0  0  0  0  0  0  0  0  0
   34.9910   28.0790   38.0560 C   0  0  0  0  0  0  0  0  0  0  0  0
   35.8210   27.9710   39.2840 C   0  0  0  0  0  0  0  0  0  0  0  0
   36.3940   29.2730   39.7650 C   0  0  1  0  0  0  0  0  0  0  0  0
   37.4120   28.8910   37.1070 H   0  0  0  0  0  0  0  0  0  0  0  0
   36.8630   30.6010   36.6550 H   0  0  0  0  0  0  0  0  0  0  0  0
   34.6430   30.1640   37.4900 H   0  0  0  0  0  0  0  0  0  0  0  0
   35.1080   29.0350   36.1530 H   0  0  0  0  0  0  0  0  0  0  0  0
   33.9240   28.1030   38.3860 H   0  0  0  0  0  0  0  0  0  0  0  0
   35.0830   27.1590   37.4290 H   0  0  0  0  0  0  0  0  0  0  0  0
   35.2640   27.4980   40.1120 H   0  0  0  0  0  0  0  0  0  0  0  0
   36.6900   27.3060   39.0600 H   0  0  0  0  0  0  0  0  0  0  0  0
   35.5400   29.8740   40.1980 H   0  0  0  0  0  0  0  0  0  0  0  0
   37.8650   33.4890   39.9340 C   0  0  0  0  0  0  0  0  0  0  0  0
   37.0480   32.4000   39.6010 C   0  0  0  0  0  0  0  0  0  0  0  0
   37.6690   31.2390   39.0830 C   0  0  0  0  0  0  0  0  0  0  0  0
   39.0250   31.2550   38.9390 N   0  0  0  0  0  0  0  0  0  0  0  0
   39.7790   32.3420   39.2780 C   0  0  0  0  0  0  0  0  0  0  0  0
   39.1890   33.4420   39.7700 N   0  0  0  0  0  0  0  0  0  0  0  0
   37.4190   34.3900   40.3330 H   0  0  0  0  0  0  0  0  0  0  0  0
   35.9910   32.4090   39.7210 H   0  0  0  0  0  0  0  0  0  0  0  0
   40.8710   32.2930   39.1400 H   0  0  0  0  0  0  0  0  0  0  0  0
   37.3120   28.9950   40.8740 C   0  0  0  0  0  0  0  0  0  0  0  0
   38.3510   28.0700   40.7590 C   0  0  0  0  0  3  0  0  0  0  0  0
   39.2540   27.7570   41.7620 C   0  0  0  0  0  0  0  0  0  0  0  0
   40.0120   27.0060   41.5100 H   0  0  0  0  0  0  0  0  0  0  0  0
   39.1270   28.3870   42.9280 N   0  0  0  0  0  0  0  0  0  0  0  0
   38.1330   29.2850   43.0680 C   0  0  0  0  0  3  0  0  0  0  0  0
   37.2410   29.6000   42.0910 N   0  0  0  0  0  0  0  0  0  0  0  0
  1 18  1  0  0  0  0
  1  6  1  0  0  0  0
  2  1  1  0  0  0  0
  3  2  1  0  0  0  0
  3  9  1  0  0  0  0
  3  4  1  0  0  0  0
  4 11  1  0  0  0  0
  4  5  1  0  0  0  0
  5  6  1  0  0  0  0
  5 13  1  0  0  0  0
  6 15  1  1  0  0  0
  6 25  1  0  0  0  0
  7  2  1  0  0  0  0
  8  2  1  0  0  0  0
 10  3  1  0  0  0  0
 12  4  1  0  0  0  0
 14  5  1  0  0  0  0
 16 22  1  0  0  0  0
 17 23  1  0  0  0  0
 17 16  2  0  0  0  0
 18 17  1  0  0  0  0
 19 18  2  0  0  0  0
 19 20  1  0  0  0  0
 20 21  2  0  0  0  0
 21 16  1  0  0  0  0
 24 20  1  0  0  0  0
 25 31  1  0  0  0  0
 26 25  2  0  0  0  0
 26 27  1  0  0  0  0
 27 29  2  0  0  0  0
 28 27  1  0  0  0  0
 29 30  1  0  0  0  0
 31 30  2  0  0  0  0
M  END
>  <minimizedAffinity>
-4.45091629

$$$$

 OpenBabel03252502223D

 31 33  0  0  1  0  0  0  0  0999 V2000
   37.0120   30.0450   38.7510 N   0  0  0  0  0  0  0  0  0  0  0  0
   36.7230   29.6900   37.3660 C   0  0  0  0  0  0  0  0  0  0  0  0
   35.2630   29.2020   37.3780 C   0  0  0  0  0  0  0  0  0  0  0  0
   35.0800   27.9900   38.2270 C   0  0  0  0  0  0  0  0  0  0  0  0
   35.9940   27.9050   39.3940 C   0  0  0  0  0  0  0  0  0  0  0  0
   36.5670   29.2210   39.8360 C   0  0  1  0  0  0  0  0  0  0  0  0
   37.4090   28.8600   37.1140 H   0  0  0  0  0  0  0  0  0  0  0  0
   36.7880   30.5560   36.7010 H   0  0  0  0  0  0  0  0  0  0  0  0
   34.6420   30.0650   37.6870 H   0  0  0  0  0  0  0  0  0  0  0  0
   35.0420   28.9470   36.3200 H   0  0  0  0  0  0  0  0  0  0  0  0
   34.0380   27.9880   38.6290 H   0  0  0  0  0  0  0  0  0  0  0  0
   35.1510   27.0720   37.5950 H   0  0  0  0  0  0  0  0  0  0  0  0
   35.5070   27.4200   40.2590 H   0  0  0  0  0  0  0  0  0  0  0  0
   36.8620   27.2610   39.1110 H   0  0  0  0  0  0  0  0  0  0  0  0
   35.7300   29.8010   40.3260 H   0  0  0  0  0  0  0  0  0  0  0  0
   37.9470   33.4610   39.9320 C   0  0  0  0  0  0  0  0  0  0  0  0
   37.1370   32.3510   39.6590 C   0  0  0  0  0  0  0  0  0  0  0  0
   37.7430   31.2170   39.0680 C   0  0  0  0  0  0  0  0  0  0  0  0
   39.0790   31.2780   38.8000 N   0  0  0  0  0  0  0  0  0  0  0  0
   39.8280   32.3840   39.0850 C   0  0  0  0  0  0  0  0  0  0  0  0
   39.2520   33.4580   39.6470 N   0  0  0  0  0  0  0  0  0  0  0  0
   37.5130   34.3420   40.3850 H   0  0  0  0  0  0  0  0  0  0  0  0
   36.0960   32.3240   39.8750 H   0  0  0  0  0  0  0  0  0  0  0  0
   40.9020   32.3730   38.8470 H   0  0  0  0  0  0  0  0  0  0  0  0
   37.5660   28.9670   40.8780 C   0  0  0  0  0  0  0  0  0  0  0  0
   37.4110   29.4410   42.1820 C   0  0  0  0  0  3  0  0  0  0  0  0
   38.3100   29.2400   43.2150 C   0  0  0  0  0  0  0  0  0  0  0  0
   38.0390   29.6810   44.1820 H   0  0  0  0  0  0  0  0  0  0  0  0
   39.4120   28.5400   42.9500 N   0  0  0  0  0  0  0  0  0  0  0  0
   39.5880   28.0700   41.7010 C   0  0  0  0  0  3  0  0  0  0  0  0
   38.7120   28.2600   40.6780 N   0  0  0  0  0  0  0  0  0  0  0  0
  1 18  1  0  0  0  0
  1  6  1  0  0  0  0
  2  3  1  0  0  0  0
  2  1  1  0  0  0  0
  3  9  1  0  0  0  0
  3  4  1  0  0  0  0
  4 11  1  0  0  0  0
  4  5  1  0  0  0  0
  5  6  1  0  0  0  0
  5 13  1  0  0  0  0
  6 15  1  1  0  0  0
  6 25  1  0  0  0  0
  7  2  1  0  0  0  0
  8  2  1  0  0  0  0
 10  3  1  0  0  0  0
 12  4  1  0  0  0  0
 14  5  1  0  0  0  0
 16 22  1  0  0  0  0
 17 23  1  0  0  0  0
 17 16  1  0  0  0  0
 18 17  2  0  0  0  0
 19 18  1  0  0  0  0
 19 20  2  0  0  0  0
 20 21  1  0  0  0  0
 21 16  2  0  0  0  0
 24 20  1  0  0  0  0
 25 26  1  0  0  0  0
 26 27  2  0  0  0  0
 27 28  1  0  0  0  0
 29 27  1  0  0  0  0
 30 29  2  0  0  0  0
 31 25  2  0  0  0  0
 31 30  1  0  0  0  0
M  END
>  <minimizedAffinity>
-4.42607212

$$$$

 OpenBabel03252502223D

 31 33  0  0  1  0  0  0  0  0999 V2000
   37.4600   25.3970   40.8970 N   0  0  0  0  0  0  0  0  0  0  0  0
   36.5200   25.1970   39.8010 C   0  0  0  0  0  0  0  0  0  0  0  0
   35.9460   23.7850   40.0230 C   0  0  0  0  0  0  0  0  0  0  0  0
   36.9970   22.7310   39.9460 C   0  0  0  0  0  0  0  0  0  0  0  0
   38.3450   23.1610   40.3980 C   0  0  0  0  0  0  0  0  0  0  0  0
   38.3450   24.3490   41.3160 C   0  0  1  0  0  0  0  0  0  0  0  0
   37.1200   25.2310   38.8730 H   0  0  0  0  0  0  0  0  0  0  0  0
   35.6920   25.9110   39.8380 H   0  0  0  0  0  0  0  0  0  0  0  0
   35.4050   23.8100   40.9900 H   0  0  0  0  0  0  0  0  0  0  0  0
   35.2200   23.6420   39.1960 H   0  0  0  0  0  0  0  0  0  0  0  0
   36.6950   21.8740   40.5960 H   0  0  0  0  0  0  0  0  0  0  0  0
   37.0380   22.3130   38.9100 H   0  0  0  0  0  0  0  0  0  0  0  0
   38.8950   22.3350   40.8830 H   0  0  0  0  0  0  0  0  0  0  0  0
   38.9370   23.4570   39.4980 H   0  0  0  0  0  0  0  0  0  0  0  0
   37.9420   24.0020   42.3130 H   0  0  0  0  0  0  0  0  0  0  0  0
   37.1420   28.0700   43.4830 C   0  0  0  0  0  0  0  0  0  0  0  0
   37.0240   26.8050   42.8930 C   0  0  0  0  0  0  0  0  0  0  0  0
   37.5310   26.6360   41.5820 C   0  0  0  0  0  0  0  0  0  0  0  0
   38.1000   27.7160   40.9770 N   0  0  0  0  0  0  0  0  0  0  0  0
   38.1920   28.9320   41.5940 C   0  0  0  0  0  0  0  0  0  0  0  0
   37.7120   29.0910   42.8370 N   0  0  0  0  0  0  0  0  0  0  0  0
   36.7650   28.2310   44.4850 H   0  0  0  0  0  0  0  0  0  0  0  0
   36.5760   25.9750   43.3830 H   0  0  0  0  0  0  0  0  0  0  0  0
   38.6640   29.7660   41.0540 H   0  0  0  0  0  0  0  0  0  0  0  0
   39.7330   24.7590   41.5470 C   0  0  0  0  0  0  0  0  0  0  0  0
   40.2860   24.8080   42.8270 C   0  0  0  0  0  3  0  0  0  0  0  0
   41.5860   25.1840   43.1200 C   0  0  0  0  0  0  0  0  0  0  0  0
   41.8650   25.1690   44.1810 H   0  0  0  0  0  0  0  0  0  0  0  0
   42.3760   25.5260   42.1040 N   0  0  0  0  0  0  0  0  0  0  0  0
   41.8700   25.4880   40.8570 C   0  0  0  0  0  3  0  0  0  0  0  0
   40.5950   25.1210   40.5570 N   0  0  0  0  0  0  0  0  0  0  0  0
  1  6  1  0  0  0  0
  1 18  1  0  0  0  0
  2  8  1  0  0  0  0
  2  3  1  0  0  0  0
  2  1  1  0  0  0  0
  3  9  1  0  0  0  0
  4  3  1  0  0  0  0
  4  5  1  0  0  0  0
  4 11  1  0  0  0  0
  5 13  1  0  0  0  0
  5  6  1  0  0  0  0
  6 25  1  0  0  0  0
  6 15  1  1  0  0  0
  7  2  1  0  0  0  0
 10  3  1  0  0  0  0
 12  4  1  0  0  0  0
 14  5  1  0  0  0  0
 16 22  1  0  0  0  0
 17 23  1  0  0  0  0
 17 16  1  0  0  0  0
 18 17  2  0  0  0  0
 19 18  1  0  0  0  0
 19 20  2  0  0  0  0
 20 21  1  0  0  0  0
 21 16  2  0  0  0  0
 24 20  1  0  0  0  0
 25 26  1  0  0  0  0
 26 27  2  0  0  0  0
 27 28  1  0  0  0  0
 29 27  1  0  0  0  0
 30 29  2  0  0  0  0
 31 30  1  0  0  0  0
 31 25  2  0  0  0  0
M  END
>  <minimizedAffinity>
-4.42604637

$$$$
