REMARK  Name = 
REMARK  4 active torsions:
REMARK  status: ('A' for Active; 'I' for Inactive)
REMARK    1  A    between atoms: C_1  and  O_12
REMARK    2  A    between atoms: C_2  and  C_7
REMARK    3  A    between atoms: O_12  and  C_13
REMARK    4  A    between atoms: C_20  and  C_35
REMARK                            x       y       z     vdW  Elec       q    Type
REMARK                         _______ _______ _______ _____ _____    ______ ____
ROOT
ATOM      1  C   UNL     1      43.385  34.466  40.766  0.00  0.00    +0.000 C 
ATOM      2  O   UNL     1      43.299  35.720  40.545  0.00  0.00    +0.000 OA
ATOM      3  N   UNL     1      42.043  34.056  40.391  0.00  0.00    +0.000 N 
ATOM      4  C   UNL     1      41.687  34.329  39.019  0.00  0.00    +0.000 C 
ATOM      5  C   UNL     1      40.844  35.621  39.078  0.00  0.00    +0.000 C 
ATOM      6  C   UNL     1      40.031  35.542  40.383  0.00  0.00    +0.000 C 
ATOM      7  C   UNL     1      39.722  34.103  40.737  0.00  0.00    +0.000 C 
ATOM      8  C   UNL     1      41.018  33.417  41.194  0.00  0.00    +0.000 C 
ATOM      9  H   UNL     1      42.541  34.566  38.365  0.00  0.00    +0.000 HD
ATOM     10  H   UNL     1      41.033  33.535  38.593  0.00  0.00    +0.000 HD
ATOM     11  H   UNL     1      40.149  35.656  38.198  0.00  0.00    +0.000 HD
ATOM     12  H   UNL     1      41.497  36.505  39.121  0.00  0.00    +0.000 HD
ATOM     13  H   UNL     1      40.614  36.045  41.186  0.00  0.00    +0.000 HD
ATOM     14  H   UNL     1      39.089  36.060  40.161  0.00  0.00    +0.000 HD
ATOM     15  H   UNL     1      38.960  34.129  41.537  0.00  0.00    +0.000 HD
ATOM     16  H   UNL     1      39.325  33.642  39.822  0.00  0.00    +0.000 HD
ATOM     17  H   UNL     1      41.207  33.729  42.240  0.00  0.00    +0.000 HD
ENDROOT
BRANCH   8  18
ATOM     18  C   UNL     1      40.936  31.954  41.001  0.00  0.00    +0.000 A 
ATOM     19  C   UNL     1      39.906  31.132  41.395  0.00  0.00    +0.000 A 
ATOM     20  C   UNL     1      39.892  29.778  41.185  0.00  0.00    +0.000 A 
ATOM     21  H   UNL     1      39.011  29.224  41.545  0.00  0.00    +0.000 HD
ATOM     22  N   UNL     1      40.936  29.206  40.561  0.00  0.00    +0.000 NA
ATOM     23  C   UNL     1      41.971  29.991  40.159  0.00  0.00    +0.000 A 
ATOM     24  N   UNL     1      41.973  31.332  40.373  0.00  0.00    +0.000 NA
ENDBRANCH   8  18
BRANCH   1  25
ATOM     25  O   UNL     1      44.471  33.791  41.225  0.00  0.00    +0.000 OA
BRANCH  25  26
ATOM     26  C   UNL     1      45.794  34.128  41.072  0.00  0.00    +0.000 A 
ATOM     27  C   UNL     1      46.422  34.751  42.153  0.00  0.00    +0.000 A 
ATOM     28  C   UNL     1      47.775  35.093  41.989  0.00  0.00    +0.000 A 
ATOM     29  N   UNL     1      48.378  34.797  40.794  0.00  0.00    +0.000 NA
ATOM     30  C   UNL     1      47.727  34.204  39.804  0.00  0.00    +0.000 A 
ATOM     31  N   UNL     1      46.435  33.867  39.936  0.00  0.00    +0.000 NA
ATOM     32  H   UNL     1      48.283  35.577  42.816  0.00  0.00    +0.000 HD
ATOM     33  H   UNL     1      48.298  34.011  38.893  0.00  0.00    +0.000 HD
BRANCH  27  34
ATOM     34  C   UNL     1      45.688  35.019  43.376  0.00  0.00    +0.000 A 
ATOM     35  C   UNL     1      45.041  36.239  43.609  0.00  0.00    +0.000 A 
ATOM     36  C   UNL     1      44.483  36.078  44.854  0.00  0.00    +0.000 A 
ATOM     37  N   UNL     1      44.766  34.860  45.337  0.00  0.00    +0.000 N 
ATOM     38  N   UNL     1      45.493  34.237  44.432  0.00  0.00    +0.000 NA
ATOM     39  H   UNL     1      44.953  37.138  43.011  0.00  0.00    +0.000 HD
ATOM     40  H   UNL     1      43.879  36.752  45.469  0.00  0.00    +0.000 HD
ATOM     41  H   UNL     1      44.568  34.310  46.201  0.00  0.00    +0.000 HD
ENDBRANCH  27  34
ENDBRANCH  25  26
ENDBRANCH   1  25
TORSDOF 4
