REMARK  Name = 
REMARK  4 active torsions:
REMARK  status: ('A' for Active; 'I' for Inactive)
REMARK    1  A    between atoms: S_1  and  C_2
REMARK    2  A    between atoms: S_1  and  C_12
REMARK    3  A    between atoms: C_12  and  C_17
REMARK    4  A    between atoms: C_15  and  C_29
REMARK                            x       y       z     vdW  Elec       q    Type
REMARK                         _______ _______ _______ _____ _____    ______ ____
ROOT
ATOM      1  C   UNL     1      45.608  33.115  46.638  0.00  0.00    +0.000 C 
ATOM      2  H   UNL     1      44.581  32.744  46.846  0.00  0.00    +0.000 HD
ATOM      3  H   UNL     1      46.042  33.624  47.518  0.00  0.00    +0.000 HD
ENDROOT
BRANCH   1   8
ATOM      4  C   UNL     1      44.586  35.987  44.503  0.00  0.00    +0.000 A 
ATOM      5  C   UNL     1      45.342  35.739  43.337  0.00  0.00    +0.000 A 
ATOM      6  C   UNL     1      46.169  34.614  43.313  0.00  0.00    +0.000 A 
ATOM      7  N   UNL     1      46.238  33.777  44.398  0.00  0.00    +0.000 NA
ATOM      8  C   UNL     1      45.478  34.066  45.513  0.00  0.00    +0.000 A 
ATOM      9  N   UNL     1      44.685  35.151  45.529  0.00  0.00    +0.000 NA
ATOM     10  H   UNL     1      43.944  36.856  44.531  0.00  0.00    +0.000 HD
ATOM     11  H   UNL     1      45.262  36.420  42.501  0.00  0.00    +0.000 HD
BRANCH   6  12
ATOM     12  C   UNL     1      46.955  34.346  42.115  0.00  0.00    +0.000 A 
ATOM     13  C   UNL     1      47.643  35.366  41.494  0.00  0.00    +0.000 A 
ATOM     14  C   UNL     1      48.343  34.967  40.373  0.00  0.00    +0.000 A 
ATOM     15  H   UNL     1      48.912  35.729  39.831  0.00  0.00    +0.000 HD
ATOM     16  N   UNL     1      48.374  33.691  39.896  0.00  0.00    +0.000 NA
ATOM     17  C   UNL     1      47.667  32.737  40.565  0.00  0.00    +0.000 A 
ATOM     18  N   UNL     1      46.971  33.080  41.661  0.00  0.00    +0.000 NA
ENDBRANCH   6  12
ENDBRANCH   1   8
BRANCH   1  19
ATOM     19  S   UNL     1      46.574  31.710  46.051  0.00  0.00    +0.000 S 
BRANCH  19  20
ATOM     20  C   UNL     1      47.620  31.070  47.338  0.00  0.00    +0.000 A 
ATOM     21  C   UNL     1      47.955  31.922  48.364  0.00  0.00    +0.000 A 
ATOM     22  C   UNL     1      48.760  31.442  49.368  0.00  0.00    +0.000 A 
ATOM     23  C   UNL     1      49.239  30.145  49.381  0.00  0.00    +0.000 A 
ATOM     24  N   UNL     1      50.022  29.698  50.373  0.00  0.00    +0.000 NA
ATOM     25  C   UNL     1      50.493  28.440  50.398  0.00  0.00    +0.000 A 
ATOM     26  C   UNL     1      50.160  27.583  49.373  0.00  0.00    +0.000 A 
ATOM     27  C   UNL     1      49.349  28.023  48.334  0.00  0.00    +0.000 A 
ATOM     28  C   UNL     1      48.861  29.337  48.314  0.00  0.00    +0.000 A 
ATOM     29  C   UNL     1      48.055  29.772  47.281  0.00  0.00    +0.000 A 
ATOM     30  H   UNL     1      47.672  32.939  48.499  0.00  0.00    +0.000 HD
ATOM     31  H   UNL     1      49.078  32.051  50.226  0.00  0.00    +0.000 HD
ATOM     32  H   UNL     1      51.128  28.109  51.221  0.00  0.00    +0.000 HD
ATOM     33  H   UNL     1      50.517  26.565  49.355  0.00  0.00    +0.000 HD
ATOM     34  H   UNL     1      49.058  27.393  47.505  0.00  0.00    +0.000 HD
ATOM     35  H   UNL     1      47.785  29.107  46.467  0.00  0.00    +0.000 HD
ENDBRANCH  19  20
ENDBRANCH   1  19
TORSDOF 4
