
 OpenBabel03252506593D

 22 23  0  0  0  0  0  0  0  0999 V2000
   47.1400   34.3230   43.2670 C   0  0  0  0  0  0  0  0  0  0  0  0
   47.0250   34.3800   42.1460 H   0  0  0  0  0  0  0  0  0  0  0  0
   47.7790   35.1120   43.6530 H   0  0  0  0  0  0  0  0  0  0  0  0
   47.5910   32.9680   43.5630 C   0  0  0  0  0  0  0  0  0  0  0  0
   47.1230   32.1990   44.6160 C   0  0  0  0  0  0  0  0  0  0  0  0
   47.6660   30.8940   44.7470 C   0  0  0  0  0  0  0  0  0  0  0  0
   48.6040   30.4850   43.8360 N   0  0  0  0  0  0  0  0  0  0  0  0
   49.0130   31.2830   42.8390 C   0  0  0  0  0  0  0  0  0  0  0  0
   48.5020   32.5100   42.7170 N   0  0  0  0  0  0  0  0  0  0  0  0
   46.3960   32.6030   45.2700 H   0  0  0  0  0  0  0  0  0  0  0  0
   47.3110   30.2750   45.5680 H   0  0  0  0  0  0  0  0  0  0  0  0
   49.7610   30.8610   42.1710 H   0  0  0  0  0  0  0  0  0  0  0  0
   45.7870   34.5250   43.9240 C   0  0  0  0  0  0  0  0  0  0  0  0
   45.5370   33.6850   44.6040 H   0  0  0  0  0  0  0  0  0  0  0  0
   45.7550   35.4530   44.5230 H   0  0  0  0  0  0  0  0  0  0  0  0
   44.7620   34.5030   42.8480 C   0  0  0  0  0  0  0  0  0  0  0  0
   44.2010   33.3330   42.3760 C   0  0  0  0  0  3  0  0  0  0  0  0
   43.2540   33.3400   41.3790 C   0  0  0  0  0  0  0  0  0  0  0  0
   42.8260   32.3950   41.0220 H   0  0  0  0  0  0  0  0  0  0  0  0
   42.8350   34.4890   40.8240 N   0  0  0  0  0  0  0  0  0  0  0  0
   43.3760   35.6250   41.2790 C   0  0  0  0  0  3  0  0  0  0  0  0
   44.3160   35.6440   42.2650 N   0  0  0  0  0  0  0  0  0  0  0  0
  1  4  1  0  0  0  0
  1  3  1  0  0  0  0
  1 13  1  0  0  0  0
  2  1  1  0  0  0  0
  4  5  1  0  0  0  0
  5  6  2  0  0  0  0
  5 10  1  0  0  0  0
  6 11  1  0  0  0  0
  7  6  1  0  0  0  0
  8  7  2  0  0  0  0
  9  8  1  0  0  0  0
  9  4  2  0  0  0  0
 12  8  1  0  0  0  0
 13 15  1  0  0  0  0
 13 14  1  0  0  0  0
 16 13  1  0  0  0  0
 17 16  1  0  0  0  0
 18 17  2  0  0  0  0
 19 18  1  0  0  0  0
 20 21  2  0  0  0  0
 20 18  1  0  0  0  0
 21 22  1  0  0  0  0
 22 16  2  0  0  0  0
M  END
>  <minimizedAffinity>
-3.05805278

>  <minimizedRMSD>
6.41516638

$$$$
