
 OpenBabel03252509293D

 19 20  0  0  0  0  0  0  0  0999 V2000
   46.9130   35.0130   41.9930 C   0  0  0  0  0  0  0  0  0  0  0  0
   47.9290   34.5990   42.1650 H   0  0  0  0  0  0  0  0  0  0  0  0
   47.1060   36.0860   41.7070 H   0  0  0  0  0  0  0  0  0  0  0  0
   44.5480   35.9260   44.7200 C   0  0  0  0  0  0  0  0  0  0  0  0
   45.2780   35.9730   43.5030 C   0  0  0  0  0  0  0  0  0  0  0  0
   46.1730   34.9440   43.2500 C   0  0  0  0  0  0  0  0  0  0  0  0
   46.3130   33.9440   44.1690 N   0  0  0  0  0  0  0  0  0  0  0  0
   45.5960   33.9420   45.3140 C   0  0  0  0  0  0  0  0  0  0  0  0
   44.7220   34.9240   45.5860 N   0  0  0  0  0  0  0  0  0  0  0  0
   43.8620   36.7510   44.8720 H   0  0  0  0  0  0  0  0  0  0  0  0
   45.1280   36.7810   42.8200 H   0  0  0  0  0  0  0  0  0  0  0  0
   45.7800   33.0940   45.9870 H   0  0  0  0  0  0  0  0  0  0  0  0
   46.3220   34.2670   40.8670 C   0  0  0  0  0  0  0  0  0  0  0  0
   44.9490   34.1100   40.8130 C   0  0  0  0  0  3  0  0  0  0  0  0
   44.3020   33.4210   39.7860 C   0  0  0  0  0  0  0  0  0  0  0  0
   43.2520   33.2770   39.7060 H   0  0  0  0  0  0  0  0  0  0  0  0
   45.0610   32.8900   38.8130 N   0  0  0  0  0  0  0  0  0  0  0  0
   46.3920   33.0390   38.8610 C   0  0  0  0  0  3  0  0  0  0  0  0
   47.0480   33.7080   39.8540 N   0  0  0  0  0  0  0  0  0  0  0  0
  1  2  1  0  0  0  0
  1  6  1  0  0  0  0
  3  1  1  0  0  0  0
  4 10  1  0  0  0  0
  4  9  1  0  0  0  0
  5  4  2  0  0  0  0
  6  5  1  0  0  0  0
  6  7  2  0  0  0  0
  7  8  1  0  0  0  0
  8  9  2  0  0  0  0
  8 12  1  0  0  0  0
 11  5  1  0  0  0  0
 13  1  1  0  0  0  0
 14 13  1  0  0  0  0
 15 14  2  0  0  0  0
 16 15  1  0  0  0  0
 17 18  2  0  0  0  0
 17 15  1  0  0  0  0
 18 19  1  0  0  0  0
 19 13  2  0  0  0  0
M  END
>  <minimizedAffinity>
-3.9122808

>  <minimizedRMSD>
0.323200583

$$$$
