
 OpenBabel03252509043D

 46 48  0  0  1  0  0  0  0  0999 V2000
   47.3170   34.0370   42.8960 N   0  0  0  0  0  0  0  0  0  0  0  0
   46.8800   35.2830   42.3830 C   0  0  0  0  0  0  0  0  0  0  0  0
   45.3920   35.5380   42.4900 C   0  0  0  0  0  0  0  0  0  0  0  0
   44.7320   34.9010   43.6890 C   0  0  0  0  0  0  0  0  0  0  0  0
   45.7470   34.2460   44.5960 C   0  0  0  0  0  0  0  0  0  0  0  0
   46.4810   33.2290   43.6390 C   0  0  2  0  0  0  0  0  0  0  0  0
   47.3770   36.0790   43.0080 H   0  0  0  0  0  0  0  0  0  0  0  0
   47.1630   35.5250   41.3540 H   0  0  0  0  0  0  0  0  0  0  0  0
   44.8940   35.2290   41.5320 H   0  0  0  0  0  0  0  0  0  0  0  0
   45.2080   36.6390   42.5760 H   0  0  0  0  0  0  0  0  0  0  0  0
   44.0230   35.5660   44.2090 H   0  0  0  0  0  0  0  0  0  0  0  0
   44.1110   34.0510   43.2880 H   0  0  0  0  0  0  0  0  0  0  0  0
   46.4870   34.9440   44.9990 H   0  0  0  0  0  0  0  0  0  0  0  0
   45.1840   33.6770   45.3580 H   0  0  0  0  0  0  0  0  0  0  0  0
   45.6730   32.6730   43.1210 H   0  0  0  0  0  0  0  0  0  0  0  0
   48.3550   33.4080   42.1050 C   0  0  0  0  0  0  0  0  0  0  0  0
   48.9040   34.2350   41.6070 H   0  0  0  0  0  0  0  0  0  0  0  0
   49.1110   32.8970   42.7540 H   0  0  0  0  0  0  0  0  0  0  0  0
   47.7160   32.5210   41.1050 C   0  0  0  0  0  0  0  0  0  0  0  0
   47.9350   31.4720   41.3140 H   0  0  0  0  0  0  0  0  0  0  0  0
   46.5870   32.5910   41.1590 H   0  0  0  0  0  0  0  0  0  0  0  0
   49.4110   32.3950   37.7430 C   0  0  0  0  0  0  0  0  0  0  0  0
   48.9580   32.0560   39.0340 C   0  0  0  0  0  0  0  0  0  0  0  0
   48.1750   32.9070   39.7470 C   0  0  0  0  0  0  0  0  0  0  0  0
   47.8610   34.0690   39.1680 N   0  0  0  0  0  0  0  0  0  0  0  0
   48.2770   34.4150   37.9410 C   0  0  0  0  0  0  0  0  0  0  0  0
   49.0530   33.5930   37.2130 N   0  0  0  0  0  0  0  0  0  0  0  0
   50.0240   31.7570   37.1540 H   0  0  0  0  0  0  0  0  0  0  0  0
   49.3050   31.0860   39.3420 H   0  0  0  0  0  0  0  0  0  0  0  0
   47.9450   35.3900   37.5950 H   0  0  0  0  0  0  0  0  0  0  0  0
   47.1640   32.4520   44.5440 O   0  0  0  0  0  0  0  0  0  0  0  0
   45.3070   30.6670   43.8370 O   0  0  0  0  0  0  0  0  0  0  0  0
   46.4050   31.0020   44.8740 P   0  0  2  0  0  0  0  0  0  0  0  0
   45.5090   31.2420   46.3290 O   0  0  0  0  0  0  0  0  0  0  0  0
   46.1220   31.7040   46.9630 H   0  0  0  0  0  0  0  0  0  0  0  0
   47.4140   29.7190   45.1190 O   0  0  0  0  0  0  0  0  0  0  0  0
   47.6860   29.0700   43.9430 C   0  0  0  0  0  0  0  0  0  0  0  0
   46.7320   29.1610   43.3310 H   0  0  0  0  0  0  0  0  0  0  0  0
   47.6910   27.9660   44.1910 H   0  0  0  0  0  0  0  0  0  0  0  0
   48.8600   29.4790   43.1890 C   0  0  0  0  0  0  0  0  0  0  0  0
   48.8580   28.8770   41.9260 C   0  0  0  0  0  3  0  0  0  0  0  0
   49.9020   29.2110   41.0560 C   0  0  0  0  0  0  0  0  0  0  0  0
   49.9860   28.7910   40.0420 H   0  0  0  0  0  0  0  0  0  0  0  0
   50.8860   30.0690   41.3820 N   0  0  0  0  0  0  0  0  0  0  0  0
   50.8430   30.6200   42.6080 C   0  0  0  0  0  3  0  0  0  0  0  0
   49.8680   30.3430   43.4930 N   0  0  0  0  0  0  0  0  0  0  0  0
  1  6  1  0  0  0  0
  2  3  1  0  0  0  0
  2  1  1  0  0  0  0
  2  7  1  0  0  0  0
  3 10  1  0  0  0  0
  3  4  1  0  0  0  0
  4 11  1  0  0  0  0
  4  5  1  0  0  0  0
  5 13  1  0  0  0  0
  5 14  1  0  0  0  0
  6 15  1  6  0  0  0
  6 31  1  0  0  0  0
  6  5  1  0  0  0  0
  8  2  1  0  0  0  0
  9  3  1  0  0  0  0
 12  4  1  0  0  0  0
 16 18  1  0  0  0  0
 16  1  1  0  0  0  0
 17 16  1  0  0  0  0
 19 21  1  0  0  0  0
 19 20  1  0  0  0  0
 19 16  1  0  0  0  0
 22 23  1  0  0  0  0
 23 29  1  0  0  0  0
 23 24  2  0  0  0  0
 24 19  1  0  0  0  0
 25 24  1  0  0  0  0
 26 25  2  0  0  0  0
 27 22  2  0  0  0  0
 27 26  1  0  0  0  0
 28 22  1  0  0  0  0
 30 26  1  0  0  0  0
 31 33  1  0  0  0  0
 33 32  2  6  0  0  0
 33 36  1  0  0  0  0
 33 34  1  0  0  0  0
 34 35  1  0  0  0  0
 37 39  1  0  0  0  0
 37 36  1  0  0  0  0
 38 37  1  0  0  0  0
 40 46  1  0  0  0  0
 40 37  1  0  0  0  0
 41 40  2  0  0  0  0
 42 44  2  0  0  0  0
 42 41  1  0  0  0  0
 43 42  1  0  0  0  0
 44 45  1  0  0  0  0
 45 46  2  0  0  0  0
M  END
>  <minimizedAffinity>
-3.68294644

>  <minimizedRMSD>
1.27353537

$$$$
