
 OpenBabel03252505103D

 42 45  0  0  1  0  0  0  0  0999 V2000
   44.5590   35.5650   44.6130 C   0  0  0  0  0  0  0  0  0  0  0  0
   45.2450   35.6020   43.3760 C   0  0  0  0  0  0  0  0  0  0  0  0
   46.3430   34.7270   43.1990 C   0  0  0  0  0  0  0  0  0  0  0  0
   46.6910   33.8920   44.2140 N   0  0  0  0  0  0  0  0  0  0  0  0
   46.0110   33.8890   45.3750 C   0  0  0  0  0  0  0  0  0  0  0  0
   44.9440   34.7220   45.5820 N   0  0  0  0  0  0  0  0  0  0  0  0
   43.7270   36.1890   44.8200 H   0  0  0  0  0  0  0  0  0  0  0  0
   44.9200   36.2900   42.5990 H   0  0  0  0  0  0  0  0  0  0  0  0
   46.4320   32.9580   46.4610 C   0  0  2  0  0  0  0  0  0  0  0  0
   46.9480   31.7270   45.7460 C   0  0  0  0  0  0  0  0  0  0  0  0
   46.0610   30.5580   45.7760 C   0  0  0  0  0  0  0  0  0  0  0  0
   45.8020   30.2920   47.2560 C   0  0  0  0  0  0  0  0  0  0  0  0
   45.0140   31.3580   47.8630 C   0  0  0  0  0  0  0  0  0  0  0  0
   45.3840   32.7310   47.4160 C   0  0  0  0  0  0  0  0  0  0  0  0
   47.2910   33.4710   46.9670 H   0  0  0  0  0  0  0  0  0  0  0  0
   47.2510   31.9450   44.6870 H   0  0  0  0  0  0  0  0  0  0  0  0
   47.9010   31.4360   46.2620 H   0  0  0  0  0  0  0  0  0  0  0  0
   46.5810   29.7040   45.3410 H   0  0  0  0  0  0  0  0  0  0  0  0
   45.1200   30.7770   45.2430 H   0  0  0  0  0  0  0  0  0  0  0  0
   46.7690   30.1140   47.7530 H   0  0  0  0  0  0  0  0  0  0  0  0
   45.1510   29.3870   47.2880 H   0  0  0  0  0  0  0  0  0  0  0  0
   44.2120   31.4560   48.5700 H   0  0  0  0  0  0  0  0  0  0  0  0
   44.6910   33.8620   47.9410 N   0  0  0  0  0  0  0  0  0  0  0  0
   43.8680   34.4250   47.6780 H   0  0  0  0  0  0  0  0  0  0  0  0
   44.9530   34.3730   48.8080 H   0  0  0  0  0  0  0  0  0  0  0  0
   47.0580   34.7450   41.9410 C   0  0  0  0  0  0  0  0  0  0  0  0
   48.2190   35.4700   41.8690 C   0  0  0  0  0  0  0  0  0  0  0  0
   48.8720   35.4520   40.6210 C   0  0  0  0  0  0  0  0  0  0  0  0
   48.2950   34.7230   39.6180 C   0  0  0  0  0  0  0  0  0  0  0  0
   47.1340   33.9950   39.6800 C   0  0  0  0  0  0  0  0  0  0  0  0
   46.5320   34.0400   40.9110 N   0  0  0  0  0  0  0  0  0  0  0  0
   48.6270   36.0230   42.6900 H   0  0  0  0  0  0  0  0  0  0  0  0
   49.7920   36.0050   40.5000 H   0  0  0  0  0  0  0  0  0  0  0  0
   48.8450   34.7540   38.6950 H   0  0  0  0  0  0  0  0  0  0  0  0
   46.6020   33.2840   38.6430 O   0  0  0  0  0  0  0  0  0  0  0  0
   47.2190   33.0780   37.4620 C   0  0  0  0  0  0  0  0  0  0  0  0
   46.1820   32.4850   36.7050 C   0  0  0  0  0  0  0  0  0  0  0  0
   46.3820   32.0910   35.3670 C   0  0  0  0  0  0  0  0  0  0  0  0
   45.6920   31.6290   34.6630 H   0  0  0  0  0  0  0  0  0  0  0  0
   47.5890   32.2850   34.7980 N   0  0  0  0  0  0  0  0  0  0  0  0
   48.5570   32.8460   35.5290 C   0  0  0  0  0  0  0  0  0  0  0  0
   48.4020   33.2290   36.7930 N   0  0  0  0  0  0  0  0  0  0  0  0
  1  7  1  0  0  0  0
  1  6  1  0  0  0  0
  2  1  2  0  0  0  0
  3  2  1  0  0  0  0
  3  4  2  0  0  0  0
  4  5  1  0  0  0  0
  5  6  2  0  0  0  0
  5  9  1  0  0  0  0
  8  2  1  0  0  0  0
  9 15  1  1  0  0  0
  9 14  1  0  0  0  0
 10 11  1  0  0  0  0
 10 17  1  0  0  0  0
 10  9  1  0  0  0  0
 11 12  1  0  0  0  0
 12 21  1  0  0  0  0
 12 20  1  0  0  0  0
 12 13  1  0  0  0  0
 13 22  1  0  0  0  0
 14 13  2  0  0  0  0
 14 23  1  0  0  0  0
 16 10  1  0  0  0  0
 18 11  1  0  0  0  0
 19 11  1  0  0  0  0
 23 25  1  0  0  0  0
 24 23  1  0  0  0  0
 26  3  1  0  0  0  0
 27 26  1  0  0  0  0
 27 32  1  0  0  0  0
 28 27  2  0  0  0  0
 29 30  2  0  0  0  0
 29 28  1  0  0  0  0
 30 31  1  0  0  0  0
 31 26  2  0  0  0  0
 33 28  1  0  0  0  0
 34 29  1  0  0  0  0
 35 30  1  0  0  0  0
 36 35  1  0  0  0  0
 37 36  2  0  0  0  0
 38 37  1  0  0  0  0
 39 38  1  0  0  0  0
 40 38  2  0  0  0  0
 40 41  1  0  0  0  0
 41 42  2  0  0  0  0
 42 36  1  0  0  0  0
M  END
>  <minimizedAffinity>
-7.39657259

>  <minimizedRMSD>
0.216535762

$$$$
