
 OpenBabel03252508353D

 33 35  0  0  1  0  0  0  0  0999 V2000
   36.5820   28.2160   40.9820 N   0  0  0  0  0  0  0  0  0  0  0  0
   37.0520   29.5270   41.3650 C   0  0  1  0  0  0  0  0  0  0  0  0
   37.7460   29.5490   42.6740 C   0  0  0  0  0  0  0  0  0  0  0  0
   37.2320   28.7190   43.6790 N   0  0  0  0  0  0  0  0  0  0  0  0
   36.5680   27.5570   43.3150 C   0  0  0  0  0  0  0  0  0  0  0  0
   36.9080   27.1590   41.8830 C   0  0  0  0  0  0  0  0  0  0  0  0
   36.2000   30.2380   41.3320 H   0  0  0  0  0  0  0  0  0  0  0  0
   38.8180   29.2380   42.5080 H   0  0  0  0  0  0  0  0  0  0  0  0
   37.7910   30.5920   43.0360 H   0  0  0  0  0  0  0  0  0  0  0  0
   37.2880   28.9930   44.6530 H   0  0  0  0  0  0  0  0  0  0  0  0
   36.7370   26.6580   43.9680 H   0  0  0  0  0  0  0  0  0  0  0  0
   35.4560   27.7570   43.3080 H   0  0  0  0  0  0  0  0  0  0  0  0
   37.9850   26.9060   41.8750 H   0  0  0  0  0  0  0  0  0  0  0  0
   36.3360   26.2440   41.6280 H   0  0  0  0  0  0  0  0  0  0  0  0
   34.7730   28.9560   39.6180 C   0  0  0  0  0  0  0  0  0  0  0  0
   35.8570   28.1140   39.7720 C   0  0  0  0  0  0  0  0  0  0  0  0
   36.1580   27.2200   38.7190 C   0  0  0  0  0  0  0  0  0  0  0  0
   35.3740   27.2250   37.6080 N   0  0  0  0  0  0  0  0  0  0  0  0
   34.3270   28.0600   37.4960 C   0  0  0  0  0  0  0  0  0  0  0  0
   34.0220   28.9190   38.4850 N   0  0  0  0  0  0  0  0  0  0  0  0
   34.4650   29.6680   40.3580 H   0  0  0  0  0  0  0  0  0  0  0  0
   37.0040   26.5910   38.8890 H   0  0  0  0  0  0  0  0  0  0  0  0
   33.8040   27.9470   36.5600 H   0  0  0  0  0  0  0  0  0  0  0  0
   38.0320   29.9850   40.3140 C   0  0  0  0  0  0  0  0  0  0  0  0
   39.0370   29.5550   40.5960 H   0  0  0  0  0  0  0  0  0  0  0  0
   37.8050   29.5140   39.3140 H   0  0  0  0  0  0  0  0  0  0  0  0
   38.1200   31.4480   40.1630 C   0  0  0  0  0  0  0  0  0  0  0  0
   37.1820   32.3510   39.7200 C   0  0  0  0  0  3  0  0  0  0  0  0
   37.4400   33.6850   39.6520 C   0  0  0  0  0  0  0  0  0  0  0  0
   36.6540   34.3330   39.2940 H   0  0  0  0  0  0  0  0  0  0  0  0
   38.6240   34.1540   40.0170 N   0  0  0  0  0  0  0  0  0  0  0  0
   39.5640   33.3050   40.4550 C   0  0  0  0  0  3  0  0  0  0  0  0
   39.3230   31.9830   40.5270 N   0  0  0  0  0  0  0  0  0  0  0  0
  1  2  1  0  0  0  0
  1  6  1  0  0  0  0
  2  7  1  1  0  0  0
  2  3  1  0  0  0  0
  3  9  1  0  0  0  0
  3  4  1  0  0  0  0
  4 10  1  0  0  0  0
  5  4  1  0  0  0  0
  5 11  1  0  0  0  0
  6  5  1  0  0  0  0
  8  3  1  0  0  0  0
 12  5  1  0  0  0  0
 13  6  1  0  0  0  0
 14  6  1  0  0  0  0
 15 16  1  0  0  0  0
 15 21  1  0  0  0  0
 16  1  1  0  0  0  0
 17 22  1  0  0  0  0
 17 16  2  0  0  0  0
 18 17  1  0  0  0  0
 19 18  2  0  0  0  0
 19 20  1  0  0  0  0
 20 15  2  0  0  0  0
 23 19  1  0  0  0  0
 24 25  1  0  0  0  0
 24  2  1  0  0  0  0
 26 24  1  0  0  0  0
 27 24  1  0  0  0  0
 27 33  1  0  0  0  0
 28 27  2  0  0  0  0
 29 28  1  0  0  0  0
 29 31  2  0  0  0  0
 30 29  1  0  0  0  0
 31 32  1  0  0  0  0
 32 33  2  0  0  0  0
M  END
>  <minimizedAffinity>
-4.86142683

$$$$

 OpenBabel03252508353D

 33 35  0  0  1  0  0  0  0  0999 V2000
   37.0740   30.6670   39.4860 N   0  0  0  0  0  0  0  0  0  0  0  0
   36.1260   30.3680   40.5340 C   0  0  1  0  0  0  0  0  0  0  0  0
   35.2530   29.2110   40.2300 C   0  0  0  0  0  0  0  0  0  0  0  0
   34.8270   29.0670   38.9020 N   0  0  0  0  0  0  0  0  0  0  0  0
   35.6290   29.5610   37.8840 C   0  0  0  0  0  0  0  0  0  0  0  0
   37.0580   29.7780   38.3700 C   0  0  0  0  0  0  0  0  0  0  0  0
   35.5420   31.2840   40.7620 H   0  0  0  0  0  0  0  0  0  0  0  0
   35.8120   28.2690   40.4990 H   0  0  0  0  0  0  0  0  0  0  0  0
   34.3760   29.2390   40.9030 H   0  0  0  0  0  0  0  0  0  0  0  0
   33.9200   28.6670   38.6920 H   0  0  0  0  0  0  0  0  0  0  0  0
   35.6780   28.9490   36.9430 H   0  0  0  0  0  0  0  0  0  0  0  0
   35.2590   30.5880   37.5920 H   0  0  0  0  0  0  0  0  0  0  0  0
   37.4620   28.7770   38.6140 H   0  0  0  0  0  0  0  0  0  0  0  0
   37.6530   30.1970   37.5340 H   0  0  0  0  0  0  0  0  0  0  0  0
   37.2920   33.0250   39.7540 C   0  0  0  0  0  0  0  0  0  0  0  0
   37.9100   31.7930   39.6690 C   0  0  0  0  0  0  0  0  0  0  0  0
   39.3200   31.7500   39.7680 C   0  0  0  0  0  0  0  0  0  0  0  0
   40.0020   32.9130   39.9410 N   0  0  0  0  0  0  0  0  0  0  0  0
   39.3650   34.0930   40.0190 C   0  0  0  0  0  0  0  0  0  0  0  0
   38.0240   34.1580   39.9280 N   0  0  0  0  0  0  0  0  0  0  0  0
   36.2300   33.1610   39.6910 H   0  0  0  0  0  0  0  0  0  0  0  0
   39.7470   30.7740   39.6950 H   0  0  0  0  0  0  0  0  0  0  0  0
   40.0390   34.9210   40.1570 H   0  0  0  0  0  0  0  0  0  0  0  0
   36.9110   30.0400   41.7800 C   0  0  0  0  0  0  0  0  0  0  0  0
   37.8280   30.6990   41.7700 H   0  0  0  0  0  0  0  0  0  0  0  0
   36.3540   30.3630   42.7060 H   0  0  0  0  0  0  0  0  0  0  0  0
   37.2940   28.6230   41.9000 C   0  0  0  0  0  0  0  0  0  0  0  0
   36.6510   27.5830   42.5280 C   0  0  0  0  0  3  0  0  0  0  0  0
   37.1560   26.3190   42.5340 C   0  0  0  0  0  0  0  0  0  0  0  0
   36.5940   25.5540   43.0480 H   0  0  0  0  0  0  0  0  0  0  0  0
   38.3020   26.0580   41.9210 N   0  0  0  0  0  0  0  0  0  0  0  0
   38.9580   27.0460   41.2970 C   0  0  0  0  0  3  0  0  0  0  0  0
   38.4700   28.3000   41.2850 N   0  0  0  0  0  0  0  0  0  0  0  0
  1 16  1  0  0  0  0
  1  2  1  0  0  0  0
  2  7  1  1  0  0  0
  2 24  1  0  0  0  0
  3  8  1  0  0  0  0
  3  2  1  0  0  0  0
  3  9  1  0  0  0  0
  4  3  1  0  0  0  0
  5  6  1  0  0  0  0
  5  4  1  0  0  0  0
  6 13  1  0  0  0  0
  6  1  1  0  0  0  0
 10  4  1  0  0  0  0
 11  5  1  0  0  0  0
 12  5  1  0  0  0  0
 14  6  1  0  0  0  0
 15 20  1  0  0  0  0
 16 15  2  0  0  0  0
 16 17  1  0  0  0  0
 17 18  2  0  0  0  0
 18 19  1  0  0  0  0
 19 23  1  0  0  0  0
 20 19  2  0  0  0  0
 21 15  1  0  0  0  0
 22 17  1  0  0  0  0
 24 27  1  0  0  0  0
 24 26  1  0  0  0  0
 25 24  1  0  0  0  0
 27 28  1  0  0  0  0
 28 29  2  0  0  0  0
 29 30  1  0  0  0  0
 31 29  1  0  0  0  0
 32 31  2  0  0  0  0
 33 32  1  0  0  0  0
 33 27  2  0  0  0  0
M  END
>  <minimizedAffinity>
-4.72501898

$$$$

 OpenBabel03252508353D

 33 35  0  0  1  0  0  0  0  0999 V2000
   38.3560   31.3740   40.6620 N   0  0  0  0  0  0  0  0  0  0  0  0
   37.2960   31.4100   39.6810 C   0  0  1  0  0  0  0  0  0  0  0  0
   37.3090   32.6300   38.8400 C   0  0  0  0  0  0  0  0  0  0  0  0
   37.6570   33.8320   39.4700 N   0  0  0  0  0  0  0  0  0  0  0  0
   38.5020   33.7920   40.5700 C   0  0  0  0  0  0  0  0  0  0  0  0
   39.2650   32.4740   40.6260 C   0  0  0  0  0  0  0  0  0  0  0  0
   36.3240   31.2670   40.1960 H   0  0  0  0  0  0  0  0  0  0  0  0
   38.0480   32.4710   38.0030 H   0  0  0  0  0  0  0  0  0  0  0  0
   36.3230   32.7350   38.3520 H   0  0  0  0  0  0  0  0  0  0  0  0
   37.2500   34.7090   39.1680 H   0  0  0  0  0  0  0  0  0  0  0  0
   39.2520   34.6240   40.6560 H   0  0  0  0  0  0  0  0  0  0  0  0
   37.8780   33.8110   41.5110 H   0  0  0  0  0  0  0  0  0  0  0  0
   39.9240   32.4540   39.7380 H   0  0  0  0  0  0  0  0  0  0  0  0
   39.9040   32.4760   41.5320 H   0  0  0  0  0  0  0  0  0  0  0  0
   39.6220   29.7300   41.8350 C   0  0  0  0  0  0  0  0  0  0  0  0
   38.3850   30.2700   41.5470 C   0  0  0  0  0  0  0  0  0  0  0  0
   37.2480   29.6850   42.1490 C   0  0  0  0  0  0  0  0  0  0  0  0
   37.4190   28.6230   42.9810 N   0  0  0  0  0  0  0  0  0  0  0  0
   38.6400   28.1240   43.2360 C   0  0  0  0  0  0  0  0  0  0  0  0
   39.7360   28.6660   42.6740 N   0  0  0  0  0  0  0  0  0  0  0  0
   40.5410   30.1030   41.4290 H   0  0  0  0  0  0  0  0  0  0  0  0
   36.3160   30.1400   41.8930 H   0  0  0  0  0  0  0  0  0  0  0  0
   38.6130   27.2860   43.9120 H   0  0  0  0  0  0  0  0  0  0  0  0
   37.4770   30.2200   38.7720 C   0  0  0  0  0  0  0  0  0  0  0  0
   38.1390   30.5560   37.9210 H   0  0  0  0  0  0  0  0  0  0  0  0
   38.0750   29.4090   39.2790 H   0  0  0  0  0  0  0  0  0  0  0  0
   36.2180   29.6550   38.2540 C   0  0  0  0  0  0  0  0  0  0  0  0
   35.0950   29.2340   38.9260 C   0  0  0  0  0  3  0  0  0  0  0  0
   34.0070   28.7380   38.2750 C   0  0  0  0  0  0  0  0  0  0  0  0
   33.1620   28.4270   38.8690 H   0  0  0  0  0  0  0  0  0  0  0  0
   34.0070   28.6500   36.9520 N   0  0  0  0  0  0  0  0  0  0  0  0
   35.0840   29.0510   36.2630 C   0  0  0  0  0  3  0  0  0  0  0  0
   36.1650   29.5420   36.8940 N   0  0  0  0  0  0  0  0  0  0  0  0
  1 16  1  0  0  0  0
  2  7  1  1  0  0  0
  2  1  1  0  0  0  0
  3  4  1  0  0  0  0
  3  2  1  0  0  0  0
  4  5  1  0  0  0  0
  5  6  1  0  0  0  0
  5 11  1  0  0  0  0
  5 12  1  0  0  0  0
  6  1  1  0  0  0  0
  6 14  1  0  0  0  0
  8  3  1  0  0  0  0
  9  3  1  0  0  0  0
 10  4  1  0  0  0  0
 13  6  1  0  0  0  0
 15 20  1  0  0  0  0
 16 15  2  0  0  0  0
 16 17  1  0  0  0  0
 17 18  2  0  0  0  0
 18 19  1  0  0  0  0
 19 23  1  0  0  0  0
 20 19  2  0  0  0  0
 21 15  1  0  0  0  0
 22 17  1  0  0  0  0
 24 26  1  0  0  0  0
 24  2  1  0  0  0  0
 25 24  1  0  0  0  0
 27 24  1  0  0  0  0
 27 28  1  0  0  0  0
 29 30  1  0  0  0  0
 29 28  2  0  0  0  0
 31 29  1  0  0  0  0
 32 33  1  0  0  0  0
 32 31  2  0  0  0  0
 33 27  2  0  0  0  0
M  END
>  <minimizedAffinity>
-4.61509514

$$$$

 OpenBabel03252508353D

 33 35  0  0  1  0  0  0  0  0999 V2000
   37.5470   30.4110   38.7470 N   0  0  0  0  0  0  0  0  0  0  0  0
   37.0760   30.1210   40.0820 C   0  0  1  0  0  0  0  0  0  0  0  0
   36.3920   31.2640   40.7300 C   0  0  0  0  0  0  0  0  0  0  0  0
   36.9180   32.5400   40.4850 N   0  0  0  0  0  0  0  0  0  0  0  0
   37.5830   32.7730   39.2900 C   0  0  0  0  0  0  0  0  0  0  0  0
   37.2320   31.7120   38.2530 C   0  0  0  0  0  0  0  0  0  0  0  0
   37.9240   29.7420   40.6890 H   0  0  0  0  0  0  0  0  0  0  0  0
   35.3200   31.2780   40.3790 H   0  0  0  0  0  0  0  0  0  0  0  0
   36.3470   31.0810   41.8190 H   0  0  0  0  0  0  0  0  0  0  0  0
   36.8700   33.2630   41.1940 H   0  0  0  0  0  0  0  0  0  0  0  0
   37.4230   33.7800   38.8160 H   0  0  0  0  0  0  0  0  0  0  0  0
   38.6940   32.6610   39.4620 H   0  0  0  0  0  0  0  0  0  0  0  0
   36.1560   31.8360   38.0290 H   0  0  0  0  0  0  0  0  0  0  0  0
   37.8050   31.9230   37.3280 H   0  0  0  0  0  0  0  0  0  0  0  0
   37.7770   28.9910   36.8470 C   0  0  0  0  0  0  0  0  0  0  0  0
   38.2620   29.3920   38.0760 C   0  0  0  0  0  0  0  0  0  0  0  0
   39.4260   28.7590   38.5690 C   0  0  0  0  0  0  0  0  0  0  0  0
   40.0140   27.7890   37.8190 N   0  0  0  0  0  0  0  0  0  0  0  0
   39.5110   27.4260   36.6270 C   0  0  0  0  0  0  0  0  0  0  0  0
   38.4050   28.0150   36.1380 N   0  0  0  0  0  0  0  0  0  0  0  0
   36.9030   29.4100   36.3890 H   0  0  0  0  0  0  0  0  0  0  0  0
   39.7590   29.1050   39.5230 H   0  0  0  0  0  0  0  0  0  0  0  0
   40.0860   26.6470   36.1530 H   0  0  0  0  0  0  0  0  0  0  0  0
   36.0850   28.9880   39.9790 C   0  0  0  0  0  0  0  0  0  0  0  0
   35.1030   29.3760   40.3810 H   0  0  0  0  0  0  0  0  0  0  0  0
   35.8600   28.7420   38.9010 H   0  0  0  0  0  0  0  0  0  0  0  0
   36.4870   27.7640   40.6930 C   0  0  0  0  0  0  0  0  0  0  0  0
   36.7970   26.5160   40.2050 C   0  0  0  0  0  3  0  0  0  0  0  0
   37.1580   25.4900   41.0230 C   0  0  0  0  0  0  0  0  0  0  0  0
   37.3870   24.5380   40.5670 H   0  0  0  0  0  0  0  0  0  0  0  0
   37.2210   25.6740   42.3340 N   0  0  0  0  0  0  0  0  0  0  0  0
   36.9260   26.8770   42.8470 C   0  0  0  0  0  3  0  0  0  0  0  0
   36.5670   27.9000   42.0500 N   0  0  0  0  0  0  0  0  0  0  0  0
  1  2  1  0  0  0  0
  2  7  1  1  0  0  0
  2  3  1  0  0  0  0
  3  9  1  0  0  0  0
  4  3  1  0  0  0  0
  4 10  1  0  0  0  0
  5 12  1  0  0  0  0
  5  4  1  0  0  0  0
  6  1  1  0  0  0  0
  6  5  1  0  0  0  0
  8  3  1  0  0  0  0
 11  5  1  0  0  0  0
 13  6  1  0  0  0  0
 14  6  1  0  0  0  0
 15 16  1  0  0  0  0
 16 17  2  0  0  0  0
 16  1  1  0  0  0  0
 17 22  1  0  0  0  0
 18 17  1  0  0  0  0
 19 18  2  0  0  0  0
 20 19  1  0  0  0  0
 20 15  2  0  0  0  0
 21 15  1  0  0  0  0
 23 19  1  0  0  0  0
 24  2  1  0  0  0  0
 24 25  1  0  0  0  0
 24 27  1  0  0  0  0
 26 24  1  0  0  0  0
 27 33  1  0  0  0  0
 28 27  2  0  0  0  0
 28 29  1  0  0  0  0
 29 31  2  0  0  0  0
 30 29  1  0  0  0  0
 31 32  1  0  0  0  0
 33 32  2  0  0  0  0
M  END
>  <minimizedAffinity>
-4.61242437

$$$$

 OpenBabel03252508353D

 33 35  0  0  1  0  0  0  0  0999 V2000
   38.2810   30.8370   41.0450 N   0  0  0  0  0  0  0  0  0  0  0  0
   39.2960   30.1330   41.7940 C   0  0  1  0  0  0  0  0  0  0  0  0
   40.3270   31.0240   42.3760 C   0  0  0  0  0  0  0  0  0  0  0  0
   40.7290   32.1210   41.6020 N   0  0  0  0  0  0  0  0  0  0  0  0
   39.8290   32.6710   40.7000 C   0  0  0  0  0  0  0  0  0  0  0  0
   38.4000   32.2590   41.0350 C   0  0  0  0  0  0  0  0  0  0  0  0
   39.7390   29.3460   41.1490 H   0  0  0  0  0  0  0  0  0  0  0  0
   39.9280   31.4360   43.3480 H   0  0  0  0  0  0  0  0  0  0  0  0
   41.2090   30.4160   42.6500 H   0  0  0  0  0  0  0  0  0  0  0  0
   41.6800   32.4680   41.6530 H   0  0  0  0  0  0  0  0  0  0  0  0
   39.8460   33.7890   40.5950 H   0  0  0  0  0  0  0  0  0  0  0  0
   40.0270   32.2380   39.6760 H   0  0  0  0  0  0  0  0  0  0  0  0
   38.1620   32.7150   42.0140 H   0  0  0  0  0  0  0  0  0  0  0  0
   37.7220   32.6970   40.2750 H   0  0  0  0  0  0  0  0  0  0  0  0
   37.7060   29.2150   39.3960 C   0  0  0  0  0  0  0  0  0  0  0  0
   37.2880   30.0580   40.4070 C   0  0  0  0  0  0  0  0  0  0  0  0
   35.9110   30.0810   40.7250 C   0  0  0  0  0  0  0  0  0  0  0  0
   35.0620   29.2790   40.0280 N   0  0  0  0  0  0  0  0  0  0  0  0
   35.5080   28.4720   39.0500 C   0  0  0  0  0  0  0  0  0  0  0  0
   36.8140   28.4340   38.7310 N   0  0  0  0  0  0  0  0  0  0  0  0
   38.7280   29.1270   39.0820 H   0  0  0  0  0  0  0  0  0  0  0  0
   35.6410   30.7490   41.5130 H   0  0  0  0  0  0  0  0  0  0  0  0
   34.7180   27.8990   38.5920 H   0  0  0  0  0  0  0  0  0  0  0  0
   38.6100   29.4170   42.9310 C   0  0  0  0  0  0  0  0  0  0  0  0
   38.9220   29.9390   43.8820 H   0  0  0  0  0  0  0  0  0  0  0  0
   37.4920   29.5690   42.8910 H   0  0  0  0  0  0  0  0  0  0  0  0
   38.9100   27.9770   43.0100 C   0  0  0  0  0  0  0  0  0  0  0  0
   39.9460   27.3220   43.6350 C   0  0  0  0  0  3  0  0  0  0  0  0
   40.0640   25.9660   43.6090 C   0  0  0  0  0  0  0  0  0  0  0  0
   40.9030   25.5240   44.1230 H   0  0  0  0  0  0  0  0  0  0  0  0
   39.1650   25.2330   42.9680 N   0  0  0  0  0  0  0  0  0  0  0  0
   38.1410   25.8350   42.3470 C   0  0  0  0  0  3  0  0  0  0  0  0
   38.0130   27.1740   42.3650 N   0  0  0  0  0  0  0  0  0  0  0  0
  1  2  1  0  0  0  0
  2  7  1  6  0  0  0
  2  3  1  0  0  0  0
  2 24  1  0  0  0  0
  3  9  1  0  0  0  0
  3  8  1  0  0  0  0
  4 10  1  0  0  0  0
  4  3  1  0  0  0  0
  5  6  1  0  0  0  0
  5  4  1  0  0  0  0
  6  1  1  0  0  0  0
  6 13  1  0  0  0  0
 11  5  1  0  0  0  0
 12  5  1  0  0  0  0
 14  6  1  0  0  0  0
 15 16  1  0  0  0  0
 16 17  2  0  0  0  0
 16  1  1  0  0  0  0
 17 22  1  0  0  0  0
 18 17  1  0  0  0  0
 19 18  2  0  0  0  0
 20 19  1  0  0  0  0
 20 15  2  0  0  0  0
 21 15  1  0  0  0  0
 23 19  1  0  0  0  0
 24 27  1  0  0  0  0
 24 25  1  0  0  0  0
 26 24  1  0  0  0  0
 27 28  1  0  0  0  0
 29 28  2  0  0  0  0
 29 30  1  0  0  0  0
 31 29  1  0  0  0  0
 32 33  1  0  0  0  0
 32 31  2  0  0  0  0
 33 27  2  0  0  0  0
M  END
>  <minimizedAffinity>
-4.58577061

$$$$

 OpenBabel03252508353D

 33 35  0  0  1  0  0  0  0  0999 V2000
   36.7530   28.3810   39.7030 N   0  0  0  0  0  0  0  0  0  0  0  0
   37.0940   29.6480   39.0960 C   0  0  1  0  0  0  0  0  0  0  0  0
   36.5300   29.8240   37.7380 C   0  0  0  0  0  0  0  0  0  0  0  0
   36.4940   28.6920   36.9120 N   0  0  0  0  0  0  0  0  0  0  0  0
   36.3980   27.4380   37.4980 C   0  0  0  0  0  0  0  0  0  0  0  0
   35.8930   27.5430   38.9330 C   0  0  0  0  0  0  0  0  0  0  0  0
   38.1970   29.7680   39.1100 H   0  0  0  0  0  0  0  0  0  0  0  0
   35.4670   30.1870   37.8440 H   0  0  0  0  0  0  0  0  0  0  0  0
   37.0740   30.6420   37.2300 H   0  0  0  0  0  0  0  0  0  0  0  0
   36.6020   28.7830   35.9090 H   0  0  0  0  0  0  0  0  0  0  0  0
   35.7580   26.6850   36.9650 H   0  0  0  0  0  0  0  0  0  0  0  0
   37.4330   26.9930   37.5820 H   0  0  0  0  0  0  0  0  0  0  0  0
   34.8580   27.9290   38.8740 H   0  0  0  0  0  0  0  0  0  0  0  0
   35.8580   26.5230   39.3670 H   0  0  0  0  0  0  0  0  0  0  0  0
   38.6730   28.0220   41.0690 C   0  0  0  0  0  0  0  0  0  0  0  0
   37.2980   28.1060   40.9790 C   0  0  0  0  0  0  0  0  0  0  0  0
   36.5420   27.9080   42.1570 C   0  0  0  0  0  0  0  0  0  0  0  0
   37.1960   27.6470   43.3210 N   0  0  0  0  0  0  0  0  0  0  0  0
   38.5370   27.5740   43.3680 C   0  0  0  0  0  0  0  0  0  0  0  0
   39.2760   27.7580   42.2590 N   0  0  0  0  0  0  0  0  0  0  0  0
   39.3310   28.1570   40.2330 H   0  0  0  0  0  0  0  0  0  0  0  0
   35.4840   27.9830   42.0330 H   0  0  0  0  0  0  0  0  0  0  0  0
   38.9070   27.3610   44.3570 H   0  0  0  0  0  0  0  0  0  0  0  0
   36.5350   30.7390   39.9750 C   0  0  0  0  0  0  0  0  0  0  0  0
   35.5450   31.0450   39.5250 H   0  0  0  0  0  0  0  0  0  0  0  0
   36.2590   30.3400   40.9930 H   0  0  0  0  0  0  0  0  0  0  0  0
   37.4170   31.9100   40.1240 C   0  0  0  0  0  0  0  0  0  0  0  0
   37.2710   33.1930   39.6540 C   0  0  0  0  0  3  0  0  0  0  0  0
   38.1970   34.1610   39.8970 C   0  0  0  0  0  0  0  0  0  0  0  0
   38.0140   35.1460   39.4950 H   0  0  0  0  0  0  0  0  0  0  0  0
   39.2810   33.8820   40.6060 N   0  0  0  0  0  0  0  0  0  0  0  0
   39.4580   32.6410   41.0820 C   0  0  0  0  0  3  0  0  0  0  0  0
   38.5510   31.6750   40.8490 N   0  0  0  0  0  0  0  0  0  0  0  0
  1 16  1  0  0  0  0
  2  7  1  6  0  0  0
  2  1  1  0  0  0  0
  2 24  1  0  0  0  0
  3  8  1  0  0  0  0
  3  2  1  0  0  0  0
  4  5  1  0  0  0  0
  4  3  1  0  0  0  0
  5 12  1  0  0  0  0
  5  6  1  0  0  0  0
  6 14  1  0  0  0  0
  6  1  1  0  0  0  0
  9  3  1  0  0  0  0
 10  4  1  0  0  0  0
 11  5  1  0  0  0  0
 13  6  1  0  0  0  0
 15 20  1  0  0  0  0
 16 15  2  0  0  0  0
 16 17  1  0  0  0  0
 17 18  2  0  0  0  0
 18 19  1  0  0  0  0
 19 23  1  0  0  0  0
 20 19  2  0  0  0  0
 21 15  1  0  0  0  0
 22 17  1  0  0  0  0
 24 27  1  0  0  0  0
 24 26  1  0  0  0  0
 25 24  1  0  0  0  0
 27 33  1  0  0  0  0
 28 29  1  0  0  0  0
 28 27  2  0  0  0  0
 29 31  2  0  0  0  0
 30 29  1  0  0  0  0
 31 32  1  0  0  0  0
 33 32  2  0  0  0  0
M  END
>  <minimizedAffinity>
-4.46571016

$$$$

 OpenBabel03252508353D

 33 35  0  0  1  0  0  0  0  0999 V2000
   38.0790   29.6130   41.1440 N   0  0  0  0  0  0  0  0  0  0  0  0
   36.6670   29.8150   41.3720 C   0  0  1  0  0  0  0  0  0  0  0  0
   36.1250   31.0200   40.7010 C   0  0  0  0  0  0  0  0  0  0  0  0
   36.9510   32.1520   40.6640 N   0  0  0  0  0  0  0  0  0  0  0  0
   38.3270   31.9780   40.6770 C   0  0  0  0  0  0  0  0  0  0  0  0
   38.7020   30.5560   40.2750 C   0  0  0  0  0  0  0  0  0  0  0  0
   36.4760   29.8250   42.4660 H   0  0  0  0  0  0  0  0  0  0  0  0
   35.8900   30.7500   39.6310 H   0  0  0  0  0  0  0  0  0  0  0  0
   35.1550   31.2780   41.1630 H   0  0  0  0  0  0  0  0  0  0  0  0
   36.5510   33.0820   40.6920 H   0  0  0  0  0  0  0  0  0  0  0  0
   38.9260   32.6830   40.0390 H   0  0  0  0  0  0  0  0  0  0  0  0
   38.7000   32.0920   41.7370 H   0  0  0  0  0  0  0  0  0  0  0  0
   38.3930   30.4360   39.2200 H   0  0  0  0  0  0  0  0  0  0  0  0
   39.8050   30.4580   40.3260 H   0  0  0  0  0  0  0  0  0  0  0  0
   39.4030   27.6360   41.0060 C   0  0  0  0  0  0  0  0  0  0  0  0
   38.6900   28.5160   41.7950 C   0  0  0  0  0  0  0  0  0  0  0  0
   38.6230   28.2580   43.1840 C   0  0  0  0  0  0  0  0  0  0  0  0
   39.2580   27.1620   43.6800 N   0  0  0  0  0  0  0  0  0  0  0  0
   39.9420   26.3280   42.8780 C   0  0  0  0  0  0  0  0  0  0  0  0
   40.0190   26.5550   41.5550 N   0  0  0  0  0  0  0  0  0  0  0  0
   39.5120   27.7450   39.9450 H   0  0  0  0  0  0  0  0  0  0  0  0
   38.0600   28.9680   43.7480 H   0  0  0  0  0  0  0  0  0  0  0  0
   40.3890   25.5090   43.4160 H   0  0  0  0  0  0  0  0  0  0  0  0
   35.9380   28.6130   40.8230 C   0  0  0  0  0  0  0  0  0  0  0  0
   36.6010   27.7180   41.0090 H   0  0  0  0  0  0  0  0  0  0  0  0
   35.0080   28.3930   41.4230 H   0  0  0  0  0  0  0  0  0  0  0  0
   35.5940   28.7120   39.3950 C   0  0  0  0  0  0  0  0  0  0  0  0
   36.4010   28.6440   38.2830 C   0  0  0  0  0  3  0  0  0  0  0  0
   35.9020   28.7520   37.0210 C   0  0  0  0  0  0  0  0  0  0  0  0
   36.5970   28.6880   36.1970 H   0  0  0  0  0  0  0  0  0  0  0  0
   34.6020   28.9280   36.8320 N   0  0  0  0  0  0  0  0  0  0  0  0
   33.7840   29.0000   37.8910 C   0  0  0  0  0  3  0  0  0  0  0  0
   34.2640   28.8950   39.1440 N   0  0  0  0  0  0  0  0  0  0  0  0
  1  2  1  0  0  0  0
  1 16  1  0  0  0  0
  2  7  1  1  0  0  0
  3  9  1  0  0  0  0
  3  2  1  0  0  0  0
  4  5  1  0  0  0  0
  4 10  1  0  0  0  0
  4  3  1  0  0  0  0
  5 12  1  0  0  0  0
  6 14  1  0  0  0  0
  6  5  1  0  0  0  0
  6  1  1  0  0  0  0
  8  3  1  0  0  0  0
 11  5  1  0  0  0  0
 13  6  1  0  0  0  0
 15 20  2  0  0  0  0
 15 16  1  0  0  0  0
 16 17  2  0  0  0  0
 17 18  1  0  0  0  0
 17 22  1  0  0  0  0
 19 23  1  0  0  0  0
 19 18  2  0  0  0  0
 20 19  1  0  0  0  0
 21 15  1  0  0  0  0
 24 25  1  0  0  0  0
 24  2  1  0  0  0  0
 24 26  1  0  0  0  0
 27 24  1  0  0  0  0
 28 27  2  0  0  0  0
 29 28  1  0  0  0  0
 30 29  1  0  0  0  0
 31 29  2  0  0  0  0
 31 32  1  0  0  0  0
 32 33  2  0  0  0  0
 33 27  1  0  0  0  0
M  END
>  <minimizedAffinity>
-4.42491817

$$$$

 OpenBabel03252508353D

 33 35  0  0  1  0  0  0  0  0999 V2000
   37.0790   29.4250   39.1630 N   0  0  0  0  0  0  0  0  0  0  0  0
   36.4010   30.6660   39.4580 C   0  0  1  0  0  0  0  0  0  0  0  0
   36.4490   31.0410   40.8910 C   0  0  0  0  0  0  0  0  0  0  0  0
   36.3440   30.0000   41.8240 N   0  0  0  0  0  0  0  0  0  0  0  0
   36.7840   28.7340   41.4680 C   0  0  0  0  0  0  0  0  0  0  0  0
   37.7250   28.7990   40.2700 C   0  0  0  0  0  0  0  0  0  0  0  0
   35.3610   30.6080   39.0760 H   0  0  0  0  0  0  0  0  0  0  0  0
   37.4330   31.5580   41.0850 H   0  0  0  0  0  0  0  0  0  0  0  0
   35.6700   31.8000   41.0860 H   0  0  0  0  0  0  0  0  0  0  0  0
   35.8950   30.1540   42.7190 H   0  0  0  0  0  0  0  0  0  0  0  0
   37.2950   28.1370   42.2710 H   0  0  0  0  0  0  0  0  0  0  0  0
   35.9000   28.1250   41.1150 H   0  0  0  0  0  0  0  0  0  0  0  0
   38.6240   29.3470   40.6060 H   0  0  0  0  0  0  0  0  0  0  0  0
   38.0280   27.7660   40.0060 H   0  0  0  0  0  0  0  0  0  0  0  0
   35.7840   28.8340   37.2510 C   0  0  0  0  0  0  0  0  0  0  0  0
   37.0320   28.9620   37.8270 C   0  0  0  0  0  0  0  0  0  0  0  0
   38.1620   28.6240   37.0470 C   0  0  0  0  0  0  0  0  0  0  0  0
   37.9730   28.1890   35.7720 N   0  0  0  0  0  0  0  0  0  0  0  0
   36.7410   28.0760   35.2470 C   0  0  0  0  0  0  0  0  0  0  0  0
   35.6530   28.3930   35.9710 N   0  0  0  0  0  0  0  0  0  0  0  0
   34.8690   29.0650   37.7600 H   0  0  0  0  0  0  0  0  0  0  0  0
   39.1020   28.7410   37.5390 H   0  0  0  0  0  0  0  0  0  0  0  0
   36.7550   27.7200   34.2300 H   0  0  0  0  0  0  0  0  0  0  0  0
   37.0850   31.7570   38.6720 C   0  0  0  0  0  0  0  0  0  0  0  0
   37.3380   31.3210   37.6610 H   0  0  0  0  0  0  0  0  0  0  0  0
   36.3680   32.5960   38.4340 H   0  0  0  0  0  0  0  0  0  0  0  0
   38.2920   32.3040   39.3150 C   0  0  0  0  0  0  0  0  0  0  0  0
   39.5630   31.7870   39.3980 C   0  0  0  0  0  3  0  0  0  0  0  0
   40.5700   32.4430   40.0370 C   0  0  0  0  0  0  0  0  0  0  0  0
   41.5420   31.9730   40.0600 H   0  0  0  0  0  0  0  0  0  0  0  0
   40.3430   33.6190   40.6030 N   0  0  0  0  0  0  0  0  0  0  0  0
   39.1170   34.1560   40.5430 C   0  0  0  0  0  3  0  0  0  0  0  0
   38.1120   33.5180   39.9160 N   0  0  0  0  0  0  0  0  0  0  0  0
  1  2  1  0  0  0  0
  1  6  1  0  0  0  0
  2  7  1  6  0  0  0
  2  3  1  0  0  0  0
  3  8  1  0  0  0  0
  3  9  1  0  0  0  0
  3  4  1  0  0  0  0
  4 10  1  0  0  0  0
  5  4  1  0  0  0  0
  5 11  1  0  0  0  0
  6 13  1  0  0  0  0
  6  5  1  0  0  0  0
 12  5  1  0  0  0  0
 14  6  1  0  0  0  0
 15 21  1  0  0  0  0
 15 16  1  0  0  0  0
 16  1  1  0  0  0  0
 17 22  1  0  0  0  0
 17 16  2  0  0  0  0
 18 17  1  0  0  0  0
 19 18  2  0  0  0  0
 19 20  1  0  0  0  0
 20 15  2  0  0  0  0
 23 19  1  0  0  0  0
 24 27  1  0  0  0  0
 24  2  1  0  0  0  0
 25 24  1  0  0  0  0
 26 24  1  0  0  0  0
 27 28  2  0  0  0  0
 27 33  1  0  0  0  0
 28 29  1  0  0  0  0
 29 30  1  0  0  0  0
 29 31  2  0  0  0  0
 32 31  1  0  0  0  0
 33 32  2  0  0  0  0
M  END
>  <minimizedAffinity>
-4.40614271

$$$$

 OpenBabel03252508353D

 33 35  0  0  1  0  0  0  0  0999 V2000
   37.9090   27.2280   41.4920 N   0  0  0  0  0  0  0  0  0  0  0  0
   36.6930   27.8310   40.9980 C   0  0  1  0  0  0  0  0  0  0  0  0
   36.5040   29.2320   41.4410 C   0  0  0  0  0  0  0  0  0  0  0  0
   36.9050   29.5450   42.7470 N   0  0  0  0  0  0  0  0  0  0  0  0
   37.9300   28.8120   43.3270 C   0  0  0  0  0  0  0  0  0  0  0  0
   38.7480   28.0830   42.2670 C   0  0  0  0  0  0  0  0  0  0  0  0
   35.8320   27.1860   41.2740 H   0  0  0  0  0  0  0  0  0  0  0  0
   37.0910   29.9020   40.7480 H   0  0  0  0  0  0  0  0  0  0  0  0
   35.4440   29.5110   41.2980 H   0  0  0  0  0  0  0  0  0  0  0  0
   36.4130   30.2500   43.2830 H   0  0  0  0  0  0  0  0  0  0  0  0
   38.6470   29.3820   43.9780 H   0  0  0  0  0  0  0  0  0  0  0  0
   37.4810   27.9960   43.9650 H   0  0  0  0  0  0  0  0  0  0  0  0
   39.2420   28.8640   41.6590 H   0  0  0  0  0  0  0  0  0  0  0  0
   39.5350   27.4920   42.7770 H   0  0  0  0  0  0  0  0  0  0  0  0
   37.2310   24.9470   41.6400 C   0  0  0  0  0  0  0  0  0  0  0  0
   38.1400   25.8720   41.1640 C   0  0  0  0  0  0  0  0  0  0  0  0
   39.2260   25.3990   40.3920 C   0  0  0  0  0  0  0  0  0  0  0  0
   39.3300   24.0640   40.1530 N   0  0  0  0  0  0  0  0  0  0  0  0
   38.4250   23.1950   40.6340 C   0  0  0  0  0  0  0  0  0  0  0  0
   37.3830   23.6230   41.3700 N   0  0  0  0  0  0  0  0  0  0  0  0
   36.3760   25.2070   42.2320 H   0  0  0  0  0  0  0  0  0  0  0  0
   39.8990   26.1540   40.0490 H   0  0  0  0  0  0  0  0  0  0  0  0
   38.6410   22.1760   40.3610 H   0  0  0  0  0  0  0  0  0  0  0  0
   36.7620   27.8290   39.4910 C   0  0  0  0  0  0  0  0  0  0  0  0
   37.2260   26.8450   39.1870 H   0  0  0  0  0  0  0  0  0  0  0  0
   35.7300   27.7940   39.0370 H   0  0  0  0  0  0  0  0  0  0  0  0
   37.5180   28.9550   38.9160 C   0  0  0  0  0  0  0  0  0  0  0  0
   38.8750   29.1500   38.8150 C   0  0  0  0  0  3  0  0  0  0  0  0
   39.4040   30.2650   38.2390 C   0  0  0  0  0  0  0  0  0  0  0  0
   40.4790   30.3480   38.1960 H   0  0  0  0  0  0  0  0  0  0  0  0
   38.6060   31.2050   37.7540 N   0  0  0  0  0  0  0  0  0  0  0  0
   37.2770   31.0500   37.8340 C   0  0  0  0  0  3  0  0  0  0  0  0
   36.7420   29.9540   38.4010 N   0  0  0  0  0  0  0  0  0  0  0  0
  1  6  1  0  0  0  0
  2  7  1  1  0  0  0
  2  3  1  0  0  0  0
  2  1  1  0  0  0  0
  3  4  1  0  0  0  0
  4 10  1  0  0  0  0
  4  5  1  0  0  0  0
  5 12  1  0  0  0  0
  5 11  1  0  0  0  0
  6 14  1  0  0  0  0
  6  5  1  0  0  0  0
  8  3  1  0  0  0  0
  9  3  1  0  0  0  0
 13  6  1  0  0  0  0
 15 21  1  0  0  0  0
 16  1  1  0  0  0  0
 16 15  2  0  0  0  0
 17 16  1  0  0  0  0
 18 17  2  0  0  0  0
 18 19  1  0  0  0  0
 19 20  2  0  0  0  0
 20 15  1  0  0  0  0
 22 17  1  0  0  0  0
 23 19  1  0  0  0  0
 24  2  1  0  0  0  0
 25 24  1  0  0  0  0
 26 24  1  0  0  0  0
 27 24  1  0  0  0  0
 28 27  1  0  0  0  0
 29 28  2  0  0  0  0
 30 29  1  0  0  0  0
 31 32  2  0  0  0  0
 31 29  1  0  0  0  0
 32 33  1  0  0  0  0
 33 27  2  0  0  0  0
M  END
>  <minimizedAffinity>
-4.39253712

$$$$
