
 OpenBabel03252506373D

 42 45  0  0  1  0  0  0  0  0999 V2000
   44.5060   35.5310   45.1360 C   0  0  0  0  0  0  0  0  0  0  0  0
   45.1570   35.5300   43.8900 C   0  0  0  0  0  0  0  0  0  0  0  0
   46.0760   34.5740   43.6250 C   0  0  0  0  0  0  0  0  0  0  0  0
   46.3150   33.6580   44.5980 N   0  0  0  0  0  0  0  0  0  0  0  0
   45.6980   33.6660   45.7690 C   0  0  0  0  0  0  0  0  0  0  0  0
   44.7900   34.5960   46.0530 N   0  0  0  0  0  0  0  0  0  0  0  0
   46.0290   32.6500   46.7310 N   0  0  0  0  0  0  0  0  0  0  0  0
   45.2910   32.3970   47.9160 C   0  0  0  0  0  0  0  0  0  0  0  0
   46.3650   32.0430   48.9270 C   0  0  0  0  0  0  0  0  0  0  0  0
   47.6490   31.9530   48.1590 C   0  0  0  0  0  0  0  0  0  0  0  0
   47.1560   31.7450   46.7270 C   0  0  1  0  0  0  0  0  0  0  0  0
   43.7730   36.3110   45.3150 H   0  0  0  0  0  0  0  0  0  0  0  0
   46.5950   34.5440   42.6770 H   0  0  0  0  0  0  0  0  0  0  0  0
   44.4620   31.7730   48.0000 H   0  0  0  0  0  0  0  0  0  0  0  0
   44.9360   33.4150   48.2800 H   0  0  0  0  0  0  0  0  0  0  0  0
   46.3960   32.6810   49.8100 H   0  0  0  0  0  0  0  0  0  0  0  0
   46.1230   31.0130   49.3210 H   0  0  0  0  0  0  0  0  0  0  0  0
   48.2320   31.1000   48.5110 H   0  0  0  0  0  0  0  0  0  0  0  0
   48.1460   32.9420   48.2610 H   0  0  0  0  0  0  0  0  0  0  0  0
   47.9420   32.0980   46.0400 H   0  0  0  0  0  0  0  0  0  0  0  0
   44.8040   36.5620   42.9500 N   0  0  0  0  0  0  0  0  0  0  0  0
   45.1520   36.4490   41.9690 H   0  0  0  0  0  0  0  0  0  0  0  0
   44.2350   37.3680   43.2460 H   0  0  0  0  0  0  0  0  0  0  0  0
   46.6540   30.0530   46.5290 S   0  0  0  0  0  0  0  0  0  0  0  0
   45.6350   30.6020   43.3980 O   0  0  0  0  0  0  0  0  0  0  0  0
   45.0090   30.0310   44.3070 C   0  0  0  0  0  0  0  0  0  0  0  0
   45.1100   29.7650   45.7670 C   0  0  1  0  0  0  0  0  0  0  0  0
   44.5940   28.3510   45.8470 C   0  0  0  0  0  0  0  0  0  0  0  0
   43.2760   28.5630   45.0990 C   0  0  0  0  0  0  0  0  0  0  0  0
   43.7700   29.3720   43.9830 N   0  0  0  0  0  0  0  0  0  0  0  0
   44.2190   30.3370   46.1360 H   0  0  0  0  0  0  0  0  0  0  0  0
   45.2000   27.6660   45.2170 H   0  0  0  0  0  0  0  0  0  0  0  0
   44.4500   27.9940   46.8700 H   0  0  0  0  0  0  0  0  0  0  0  0
   42.5320   29.0810   45.6970 H   0  0  0  0  0  0  0  0  0  0  0  0
   42.9390   27.5930   44.6860 H   0  0  0  0  0  0  0  0  0  0  0  0
   43.0180   29.4240   42.7560 C   0  0  0  0  0  0  0  0  0  0  0  0
   43.0850   28.5770   41.6930 C   0  0  0  0  0  3  0  0  0  0  0  0
   42.2470   28.8510   40.6260 C   0  0  0  0  0  0  0  0  0  0  0  0
   42.3150   28.1550   39.7780 H   0  0  0  0  0  0  0  0  0  0  0  0
   41.3990   29.8950   40.6110 N   0  0  0  0  0  0  0  0  0  0  0  0
   41.3480   30.7230   41.6740 C   0  0  0  0  0  3  0  0  0  0  0  0
   42.1500   30.4750   42.7160 N   0  0  0  0  0  0  0  0  0  0  0  0
  1 12  1  0  0  0  0
  1  6  1  0  0  0  0
  2  1  2  0  0  0  0
  3  2  1  0  0  0  0
  3  4  2  0  0  0  0
  4  5  1  0  0  0  0
  5  6  2  0  0  0  0
  5  7  1  0  0  0  0
  7  8  1  0  0  0  0
  8 14  1  0  0  0  0
  8 15  1  0  0  0  0
  8  9  1  0  0  0  0
  9 17  1  0  0  0  0
  9 16  1  0  0  0  0
 10 19  1  0  0  0  0
 10 18  1  0  0  0  0
 10  9  1  0  0  0  0
 11 20  1  6  0  0  0
 11  7  1  0  0  0  0
 11 10  1  0  0  0  0
 13  3  1  0  0  0  0
 21 23  1  0  0  0  0
 21  2  1  0  0  0  0
 22 21  1  0  0  0  0
 24 11  1  0  0  0  0
 25 26  2  0  0  0  0
 26 27  1  0  0  0  0
 27 28  1  0  0  0  0
 27 31  1  1  0  0  0
 27 24  1  0  0  0  0
 28 33  1  0  0  0  0
 29 34  1  0  0  0  0
 29 28  1  0  0  0  0
 30 26  1  0  0  0  0
 30 29  1  0  0  0  0
 32 28  1  0  0  0  0
 35 29  1  0  0  0  0
 36 30  1  0  0  0  0
 37 36  2  0  0  0  0
 38 37  1  0  0  0  0
 39 38  1  0  0  0  0
 40 38  2  0  0  0  0
 40 41  1  0  0  0  0
 41 42  2  0  0  0  0
 42 36  1  0  0  0  0
M  END
>  <minimizedAffinity>
-5.33607006

>  <minimizedRMSD>
0.134262323

$$$$
