
 OpenBabel03252508393D

 39 42  0  0  0  0  0  0  0  0999 V2000
   45.1510   33.9620   40.7030 C   0  0  0  0  0  0  0  0  0  0  0  0
   44.1110   33.6380   39.8820 C   0  0  0  0  0  0  0  0  0  0  0  0
   44.4120   33.1470   38.6520 C   0  0  0  0  0  0  0  0  0  0  0  0
   45.6910   32.9560   38.1880 C   0  0  0  0  0  0  0  0  0  0  0  0
   46.7200   33.2890   39.0320 C   0  0  0  0  0  0  0  0  0  0  0  0
   46.4700   33.7920   40.2910 C   0  0  0  0  0  0  0  0  0  0  0  0
   43.5780   32.8870   37.9900 H   0  0  0  0  0  0  0  0  0  0  0  0
   45.9020   32.5670   37.2140 H   0  0  0  0  0  0  0  0  0  0  0  0
   47.7420   33.1440   38.6790 H   0  0  0  0  0  0  0  0  0  0  0  0
   40.8240   35.2640   40.7860 C   0  0  0  0  0  0  0  0  0  0  0  0
   42.1210   35.0900   40.2720 C   0  0  0  0  0  0  0  0  0  0  0  0
   42.7770   33.8510   40.4000 C   0  0  0  0  0  0  0  0  0  0  0  0
   42.0640   32.8900   41.0400 N   0  0  0  0  0  0  0  0  0  0  0  0
   40.8420   33.0660   41.5200 C   0  0  0  0  0  0  0  0  0  0  0  0
   40.2170   34.2440   41.3980 N   0  0  0  0  0  0  0  0  0  0  0  0
   40.2150   36.5220   40.6300 N   0  0  0  0  0  0  0  0  0  0  0  0
   42.6360   35.8920   39.7730 H   0  0  0  0  0  0  0  0  0  0  0  0
   40.3210   32.2590   42.0220 H   0  0  0  0  0  0  0  0  0  0  0  0
   39.7120   37.1030   41.3380 H   0  0  0  0  0  0  0  0  0  0  0  0
   40.2330   36.9930   39.7000 H   0  0  0  0  0  0  0  0  0  0  0  0
   47.6280   34.1130   41.1100 C   0  0  0  0  0  0  0  0  0  0  0  0
   48.1410   35.3800   40.9540 C   0  0  0  0  0  0  0  0  0  0  0  0
   49.2460   35.8620   41.6550 C   0  0  0  0  0  0  0  0  0  0  0  0
   49.8480   35.0060   42.5520 C   0  0  0  0  0  0  0  0  0  0  0  0
   49.3530   33.7310   42.7260 C   0  0  0  0  0  0  0  0  0  0  0  0
   48.2540   33.2780   42.0170 C   0  0  0  0  0  0  0  0  0  0  0  0
   47.7000   36.0950   40.2580 H   0  0  0  0  0  0  0  0  0  0  0  0
   49.6080   36.8650   41.4960 H   0  0  0  0  0  0  0  0  0  0  0  0
   50.7190   35.3130   43.1380 H   0  0  0  0  0  0  0  0  0  0  0  0
   49.7980   33.0230   43.4230 H   0  0  0  0  0  0  0  0  0  0  0  0
   47.6720   31.9360   42.1490 C   0  0  0  0  0  0  0  0  0  0  0  0
   48.3390   31.0060   41.3460 C   0  0  0  0  0  3  0  0  0  0  0  0
   47.9530   29.6620   41.3140 C   0  0  0  0  0  0  0  0  0  0  0  0
   48.4770   28.9450   40.6870 H   0  0  0  0  0  0  0  0  0  0  0  0
   46.9150   29.2510   42.0730 N   0  0  0  0  0  0  0  0  0  0  0  0
   46.3210   30.2000   42.8200 C   0  0  0  0  0  3  0  0  0  0  0  0
   46.6500   31.5090   42.8900 N   0  0  0  0  0  0  0  0  0  0  0  0
   44.7480   34.9110   43.0990 N   0  0  0  0  0  0  0  0  0  0  0  0
   44.9350   34.4920   42.0300 C   0  0  0  0  0  0  0  0  0  0  0  0
  1 39  1  0  0  0  0
  2 12  1  0  0  0  0
  2  1  2  0  0  0  0
  3  2  1  0  0  0  0
  4  3  2  0  0  0  0
  4  5  1  0  0  0  0
  5  6  2  0  0  0  0
  6  1  1  0  0  0  0
  6 21  1  0  0  0  0
  7  3  1  0  0  0  0
  8  4  1  0  0  0  0
  9  5  1  0  0  0  0
 10 15  1  0  0  0  0
 11 12  1  0  0  0  0
 11 10  2  0  0  0  0
 12 13  2  0  0  0  0
 13 14  1  0  0  0  0
 14 18  1  0  0  0  0
 15 14  2  0  0  0  0
 16 10  1  0  0  0  0
 16 19  1  0  0  0  0
 17 11  1  0  0  0  0
 20 16  1  0  0  0  0
 21 26  1  0  0  0  0
 22 21  2  0  0  0  0
 22 23  1  0  0  0  0
 23 24  2  0  0  0  0
 24 25  1  0  0  0  0
 24 29  1  0  0  0  0
 25 30  1  0  0  0  0
 26 31  1  0  0  0  0
 26 25  2  0  0  0  0
 27 22  1  0  0  0  0
 28 23  1  0  0  0  0
 31 37  1  0  0  0  0
 32 31  2  0  0  0  0
 33 32  1  0  0  0  0
 33 35  2  0  0  0  0
 34 33  1  0  0  0  0
 35 36  1  0  0  0  0
 36 37  2  0  0  0  0
 39 38  3  0  0  0  0
M  END
>  <minimizedAffinity>
-5.95531273

>  <minimizedRMSD>
0.306082189

$$$$
