
 OpenBabel03252501383D

 33 35  0  0  0  0  0  0  0  0999 V2000
   43.1300   32.2060   39.5480 Cl  0  0  0  0  0  0  0  0  0  0  0  0
   42.0390   33.5060   40.0020 C   0  0  0  0  0  0  0  0  0  0  0  0
   42.4870   34.6990   40.5620 C   0  0  0  0  0  0  0  0  0  0  0  0
   41.5890   35.6740   40.8950 C   0  0  0  0  0  0  0  0  0  0  0  0
   40.2310   35.5530   40.7090 C   0  0  0  0  0  0  0  0  0  0  0  0
   39.7590   34.3660   40.1510 C   0  0  0  0  0  0  0  0  0  0  0  0
   38.0390   34.1200   39.8740 Cl  0  0  0  0  0  0  0  0  0  0  0  0
   40.6690   33.3910   39.8180 C   0  0  0  0  0  0  0  0  0  0  0  0
   41.9660   36.5910   41.3290 H   0  0  0  0  0  0  0  0  0  0  0  0
   39.5420   36.3420   40.9830 H   0  0  0  0  0  0  0  0  0  0  0  0
   40.2010   32.1400   39.2310 C   0  0  0  0  0  0  0  0  0  0  0  0
   40.0160   31.9810   37.8740 C   0  0  0  0  0  0  0  0  0  0  0  0
   39.5760   30.8240   37.2620 C   0  0  0  0  0  0  0  0  0  0  0  0
   39.4350   30.7070   36.2120 H   0  0  0  0  0  0  0  0  0  0  0  0
   39.3190   29.7920   38.1180 N   0  0  0  0  0  0  0  0  0  0  0  0
   39.4860   29.9070   39.4560 C   0  0  0  0  0  0  0  0  0  0  0  0
   39.9240   31.0680   40.0270 N   0  0  0  0  0  0  0  0  0  0  0  0
   43.8580   34.8130   40.7470 O   0  0  0  0  0  0  0  0  0  0  0  0
   44.4180   34.3490   41.9430 C   0  0  0  0  0  0  0  0  0  0  0  0
   44.0770   33.2750   42.5630 O   0  0  0  0  0  0  0  0  0  0  0  0
   45.4580   35.0610   42.6010 N   0  0  0  0  0  0  0  0  0  0  0  0
   45.8380   35.9310   42.2050 H   0  0  0  0  0  0  0  0  0  0  0  0
   45.8100   34.3490   43.8230 C   0  0  0  0  0  0  0  0  0  0  0  0
   45.1960   34.5350   45.0440 C   0  0  0  0  0  0  0  0  0  0  0  0
   45.6680   33.7670   46.0890 C   0  0  0  0  0  0  0  0  0  0  0  0
   46.6770   32.9080   45.8450 N   0  0  0  0  0  0  0  0  0  0  0  0
   47.2500   32.7570   44.6360 C   0  0  0  0  0  0  0  0  0  0  0  0
   46.8110   33.4960   43.5830 N   0  0  0  0  0  0  0  0  0  0  0  0
   45.1980   33.9010   47.0490 H   0  0  0  0  0  0  0  0  0  0  0  0
   48.0600   32.0410   44.5250 H   0  0  0  0  0  0  0  0  0  0  0  0
   44.1510   35.4810   45.1150 N   0  0  0  0  0  0  0  0  0  0  0  0
   43.2210   35.2510   44.6970 H   0  0  0  0  0  0  0  0  0  0  0  0
   44.2480   36.4250   45.5740 H   0  0  0  0  0  0  0  0  0  0  0  0
  1  2  1  0  0  0  0
  2  3  1  0  0  0  0
  3 18  1  0  0  0  0
  3  4  2  0  0  0  0
  4  9  1  0  0  0  0
  5  4  1  0  0  0  0
  5 10  1  0  0  0  0
  6  5  2  0  0  0  0
  7  6  1  0  0  0  0
  8  2  2  0  0  0  0
  8  6  1  0  0  0  0
 11  8  1  0  0  0  0
 11 17  1  0  0  0  0
 12 11  2  0  0  0  0
 13 12  1  0  0  0  0
 13 15  2  0  0  0  0
 14 13  1  0  0  0  0
 15 16  1  0  0  0  0
 16 17  2  0  0  0  0
 18 19  1  0  0  0  0
 19 20  2  0  0  0  0
 19 21  1  0  0  0  0
 21 23  1  0  0  0  0
 22 21  1  0  0  0  0
 23 24  1  0  0  0  0
 24 31  1  0  0  0  0
 24 25  2  0  0  0  0
 25 29  1  0  0  0  0
 26 25  1  0  0  0  0
 27 26  2  0  0  0  0
 28 23  2  0  0  0  0
 28 27  1  0  0  0  0
 30 27  1  0  0  0  0
 31 33  1  0  0  0  0
 32 31  1  0  0  0  0
M  END
>  <minimizedAffinity>
-5.86825323

>  <minimizedRMSD>
1.34977484

$$$$
