REMARK  Name = 
REMARK  4 active torsions:
REMARK  status: ('A' for Active; 'I' for Inactive)
REMARK    1  A    between atoms: C_1  and  C_21
REMARK    2  A    between atoms: C_2  and  C_9
REMARK    3  A    between atoms: C_6  and  C_14
REMARK    4  A    between atoms: C_19  and  C_33
REMARK                            x       y       z     vdW  Elec       q    Type
REMARK                         _______ _______ _______ _____ _____    ______ ____
ROOT
ATOM      1  C   UNL     1      45.122  33.943  40.701  0.00  0.00    +0.000 A 
ATOM      2  C   UNL     1      44.082  33.634  39.875  0.00  0.00    +0.000 A 
ATOM      3  C   UNL     1      44.382  33.155  38.640  0.00  0.00    +0.000 A 
ATOM      4  C   UNL     1      45.661  32.964  38.175  0.00  0.00    +0.000 A 
ATOM      5  C   UNL     1      46.690  33.282  39.025  0.00  0.00    +0.000 A 
ATOM      6  C   UNL     1      46.441  33.772  40.289  0.00  0.00    +0.000 A 
ATOM      7  H   UNL     1      43.548  32.907  37.974  0.00  0.00    +0.000 HD
ATOM      8  H   UNL     1      45.871  32.585  37.197  0.00  0.00    +0.000 HD
ATOM      9  H   UNL     1      47.712  33.136  38.671  0.00  0.00    +0.000 HD
ENDROOT
BRANCH   2  12
ATOM     10  C   UNL     1      40.799  35.263  40.787  0.00  0.00    +0.000 A 
ATOM     11  C   UNL     1      42.095  35.089  40.273  0.00  0.00    +0.000 A 
ATOM     12  C   UNL     1      42.748  33.847  40.394  0.00  0.00    +0.000 A 
ATOM     13  N   UNL     1      42.032  32.885  41.027  0.00  0.00    +0.000 NA
ATOM     14  C   UNL     1      40.810  33.061  41.508  0.00  0.00    +0.000 A 
ATOM     15  N   UNL     1      40.189  34.241  41.393  0.00  0.00    +0.000 NA
ATOM     16  N   UNL     1      40.193  36.524  40.639  0.00  0.00    +0.000 N 
ATOM     17  H   UNL     1      42.613  35.893  39.779  0.00  0.00    +0.000 HD
ATOM     18  H   UNL     1      40.287  32.252  42.005  0.00  0.00    +0.000 HD
ATOM     19  H   UNL     1      39.691  37.102  41.350  0.00  0.00    +0.000 HD
ATOM     20  H   UNL     1      40.213  37.001  39.711  0.00  0.00    +0.000 HD
ENDBRANCH   2  12
BRANCH   6  21
ATOM     21  C   UNL     1      47.599  34.078  41.113  0.00  0.00    +0.000 A 
ATOM     22  C   UNL     1      48.133  35.336  40.955  0.00  0.00    +0.000 A 
ATOM     23  C   UNL     1      49.242  35.803  41.660  0.00  0.00    +0.000 A 
ATOM     24  C   UNL     1      49.825  34.941  42.564  0.00  0.00    +0.000 A 
ATOM     25  C   UNL     1      49.309  33.675  42.740  0.00  0.00    +0.000 A 
ATOM     26  C   UNL     1      48.207  33.237  42.027  0.00  0.00    +0.000 A 
ATOM     27  H   UNL     1      47.708  36.055  40.253  0.00  0.00    +0.000 HD
ATOM     28  H   UNL     1      49.621  36.799  41.499  0.00  0.00    +0.000 HD
ATOM     29  H   UNL     1      50.698  35.237  43.153  0.00  0.00    +0.000 HD
ATOM     30  H   UNL     1      49.739  32.963  43.443  0.00  0.00    +0.000 HD
BRANCH  26  31
ATOM     31  C   UNL     1      47.603  31.905  42.161  0.00  0.00    +0.000 A 
ATOM     32  C   UNL     1      48.559  30.939  42.489  0.00  0.00    +0.000 A 
ATOM     33  C   UNL     1      48.208  29.597  42.667  0.00  0.00    +0.000 A 
ATOM     34  H   UNL     1      48.956  28.852  42.922  0.00  0.00    +0.000 HD
ATOM     35  N   UNL     1      46.918  29.223  42.520  0.00  0.00    +0.000 NA
ATOM     36  C   UNL     1      46.054  30.206  42.204  0.00  0.00    +0.000 A 
ATOM     37  N   UNL     1      46.336  31.514  42.021  0.00  0.00    +0.000 NA
ENDBRANCH  26  31
ENDBRANCH   6  21
BRANCH   1  39
ATOM     38  N   UNL     1      44.720  34.867  43.107  0.00  0.00    +0.000 NA
ATOM     39  C   UNL     1      44.907  34.459  42.034  0.00  0.00    +0.000 C 
ENDBRANCH   1  39
TORSDOF 4
