
 OpenBabel03252508553D

 41 44  0  0  1  0  0  0  0  0999 V2000
   37.3930   27.5840   38.4260 C   0  0  0  0  0  0  0  0  0  0  0  0
   36.8310   26.9260   37.4880 O   0  0  0  0  0  0  0  0  0  0  0  0
   37.0240   28.9340   38.0370 N   0  0  0  0  0  0  0  0  0  0  0  0
   35.6030   29.1840   37.9920 C   0  0  0  0  0  0  0  0  0  0  0  0
   35.2290   29.0810   36.4980 C   0  0  0  0  0  0  0  0  0  0  0  0
   36.4260   29.6530   35.7170 C   0  0  0  0  0  0  0  0  0  0  0  0
   37.1300   30.7240   36.5230 C   0  0  0  0  0  0  0  0  0  0  0  0
   37.8740   30.0570   37.6890 C   0  0  1  0  0  0  0  0  0  0  0  0
   34.9900   28.4230   38.5010 H   0  0  0  0  0  0  0  0  0  0  0  0
   35.3520   30.2190   38.3180 H   0  0  0  0  0  0  0  0  0  0  0  0
   34.3140   29.6970   36.2960 H   0  0  0  0  0  0  0  0  0  0  0  0
   35.0890   28.0290   36.2080 H   0  0  0  0  0  0  0  0  0  0  0  0
   37.1110   28.8130   35.4660 H   0  0  0  0  0  0  0  0  0  0  0  0
   35.9860   30.1170   34.8250 H   0  0  0  0  0  0  0  0  0  0  0  0
   37.8200   31.2410   35.8310 H   0  0  0  0  0  0  0  0  0  0  0  0
   36.3440   31.4010   36.8830 H   0  0  0  0  0  0  0  0  0  0  0  0
   38.8070   29.6220   37.2820 H   0  0  0  0  0  0  0  0  0  0  0  0
   38.0810   31.0120   38.7980 C   0  0  0  0  0  0  0  0  0  0  0  0
   37.5360   32.2710   38.9060 C   0  0  0  0  0  3  0  0  0  0  0  0
   37.7700   33.1110   39.9630 C   0  0  0  0  0  0  0  0  0  0  0  0
   37.2780   34.0960   39.9400 H   0  0  0  0  0  0  0  0  0  0  0  0
   38.5710   32.6950   40.9590 N   0  0  0  0  0  0  0  0  0  0  0  0
   39.1250   31.4550   40.8820 C   0  0  0  0  0  3  0  0  0  0  0  0
   38.8860   30.6330   39.8290 N   0  0  0  0  0  0  0  0  0  0  0  0
   38.1170   27.0770   39.4580 O   0  0  0  0  0  0  0  0  0  0  0  0
   37.8790   25.9210   40.1600 C   0  0  0  0  0  0  0  0  0  0  0  0
   37.5540   26.0510   41.5130 C   0  0  0  0  0  0  0  0  0  0  0  0
   37.3120   24.8640   42.2240 C   0  0  0  0  0  0  0  0  0  0  0  0
   37.4120   23.6740   41.5520 N   0  0  0  0  0  0  0  0  0  0  0  0
   37.7250   23.6150   40.2660 C   0  0  0  0  0  0  0  0  0  0  0  0
   37.9600   24.7340   39.5640 N   0  0  0  0  0  0  0  0  0  0  0  0
   37.0580   24.9420   43.2760 H   0  0  0  0  0  0  0  0  0  0  0  0
   37.7780   22.6180   39.8230 H   0  0  0  0  0  0  0  0  0  0  0  0
   37.4760   27.3640   42.1270 C   0  0  0  0  0  0  0  0  0  0  0  0
   38.4540   27.8370   43.0090 C   0  0  0  0  0  0  0  0  0  0  0  0
   38.0050   29.0900   43.3510 C   0  0  0  0  0  0  0  0  0  0  0  0
   36.8500   29.3560   42.7260 N   0  0  0  0  0  0  0  0  0  0  0  0
   36.5470   28.3040   41.9940 N   0  0  0  0  0  0  0  0  0  0  0  0
   39.3690   27.3920   43.3840 H   0  0  0  0  0  0  0  0  0  0  0  0
   38.4250   29.8540   44.0130 H   0  0  0  0  0  0  0  0  0  0  0  0
   36.1660   30.1430   42.6760 H   0  0  0  0  0  0  0  0  0  0  0  0
  1 25  1  0  0  0  0
  2  1  2  0  0  0  0
  3  1  1  0  0  0  0
  4  3  1  0  0  0  0
  4 10  1  0  0  0  0
  4  9  1  0  0  0  0
  5  4  1  0  0  0  0
  6  5  1  0  0  0  0
  6  7  1  0  0  0  0
  7 16  1  0  0  0  0
  7  8  1  0  0  0  0
  8 17  1  6  0  0  0
  8  3  1  0  0  0  0
  8 18  1  0  0  0  0
 11  5  1  0  0  0  0
 12  5  1  0  0  0  0
 13  6  1  0  0  0  0
 14  6  1  0  0  0  0
 15  7  1  0  0  0  0
 18 19  2  0  0  0  0
 18 24  1  0  0  0  0
 19 20  1  0  0  0  0
 20 22  2  0  0  0  0
 21 20  1  0  0  0  0
 23 22  1  0  0  0  0
 24 23  2  0  0  0  0
 25 26  1  0  0  0  0
 26 27  1  0  0  0  0
 27 34  1  0  0  0  0
 27 28  2  0  0  0  0
 28 32  1  0  0  0  0
 29 28  1  0  0  0  0
 30 29  2  0  0  0  0
 31 26  2  0  0  0  0
 31 30  1  0  0  0  0
 33 30  1  0  0  0  0
 34 35  1  0  0  0  0
 35 36  2  0  0  0  0
 35 39  1  0  0  0  0
 36 40  1  0  0  0  0
 37 36  1  0  0  0  0
 38 34  2  0  0  0  0
 38 37  1  0  0  0  0
 41 37  1  0  0  0  0
M  END
>  <minimizedAffinity>
-5.82326317

$$$$

 OpenBabel03252508553D

 41 44  0  0  1  0  0  0  0  0999 V2000
   37.1430   28.8700   40.1550 C   0  0  0  0  0  0  0  0  0  0  0  0
   36.0470   28.2170   40.2070 O   0  0  0  0  0  0  0  0  0  0  0  0
   37.7950   28.3550   41.3460 N   0  0  0  0  0  0  0  0  0  0  0  0
   38.0260   26.9300   41.3420 C   0  0  0  0  0  0  0  0  0  0  0  0
   36.8850   26.3400   42.1990 C   0  0  0  0  0  0  0  0  0  0  0  0
   36.6190   27.3630   43.3190 C   0  0  0  0  0  0  0  0  0  0  0  0
   37.8870   28.1070   43.6790 C   0  0  0  0  0  0  0  0  0  0  0  0
   38.2420   29.0630   42.5300 C   0  0  1  0  0  0  0  0  0  0  0  0
   37.9260   26.4540   40.3540 H   0  0  0  0  0  0  0  0  0  0  0  0
   38.9820   26.6620   41.8480 H   0  0  0  0  0  0  0  0  0  0  0  0
   37.2150   25.3650   42.6440 H   0  0  0  0  0  0  0  0  0  0  0  0
   35.9710   26.2290   41.5970 H   0  0  0  0  0  0  0  0  0  0  0  0
   35.8210   28.0560   42.9730 H   0  0  0  0  0  0  0  0  0  0  0  0
   36.3070   26.7610   44.1820 H   0  0  0  0  0  0  0  0  0  0  0  0
   37.6820   28.6460   44.6210 H   0  0  0  0  0  0  0  0  0  0  0  0
   38.6620   27.3410   43.8170 H   0  0  0  0  0  0  0  0  0  0  0  0
   37.5860   29.9510   42.6240 H   0  0  0  0  0  0  0  0  0  0  0  0
   39.6870   29.3720   42.5290 C   0  0  0  0  0  0  0  0  0  0  0  0
   40.7030   28.5390   42.9380 C   0  0  0  0  0  3  0  0  0  0  0  0
   42.0270   28.8870   42.9130 C   0  0  0  0  0  0  0  0  0  0  0  0
   42.7510   28.1360   43.2660 H   0  0  0  0  0  0  0  0  0  0  0  0
   42.3700   30.1070   42.4630 N   0  0  0  0  0  0  0  0  0  0  0  0
   41.3890   30.9550   42.0510 C   0  0  0  0  0  3  0  0  0  0  0  0
   40.0800   30.5970   42.0820 N   0  0  0  0  0  0  0  0  0  0  0  0
   37.5090   29.7750   39.2100 O   0  0  0  0  0  0  0  0  0  0  0  0
   38.7380   29.9120   38.6130 C   0  0  0  0  0  0  0  0  0  0  0  0
   39.2650   31.2030   38.5290 C   0  0  0  0  0  0  0  0  0  0  0  0
   40.5230   31.3350   37.9160 C   0  0  0  0  0  0  0  0  0  0  0  0
   41.1380   30.2030   37.4470 N   0  0  0  0  0  0  0  0  0  0  0  0
   40.5850   29.0040   37.5570 C   0  0  0  0  0  0  0  0  0  0  0  0
   39.3860   28.8510   38.1380 N   0  0  0  0  0  0  0  0  0  0  0  0
   40.9520   32.3290   37.8410 H   0  0  0  0  0  0  0  0  0  0  0  0
   41.1570   28.1660   37.1520 H   0  0  0  0  0  0  0  0  0  0  0  0
   38.5280   32.3350   39.0590 C   0  0  0  0  0  0  0  0  0  0  0  0
   39.0880   33.2280   39.9800 C   0  0  0  0  0  0  0  0  0  0  0  0
   38.0780   34.1280   40.2160 C   0  0  0  0  0  0  0  0  0  0  0  0
   36.9930   33.8090   39.4960 N   0  0  0  0  0  0  0  0  0  0  0  0
   37.2840   32.7250   38.8050 N   0  0  0  0  0  0  0  0  0  0  0  0
   40.0670   33.2720   40.4440 H   0  0  0  0  0  0  0  0  0  0  0  0
   38.0300   35.0110   40.8610 H   0  0  0  0  0  0  0  0  0  0  0  0
   36.0290   34.1800   39.3510 H   0  0  0  0  0  0  0  0  0  0  0  0
  1  2  2  0  0  0  0
  1  3  1  0  0  0  0
  3  8  1  0  0  0  0
  4  3  1  0  0  0  0
  4 10  1  0  0  0  0
  4  5  1  0  0  0  0
  5 11  1  0  0  0  0
  5  6  1  0  0  0  0
  6  7  1  0  0  0  0
  6 14  1  0  0  0  0
  7 16  1  0  0  0  0
  7 15  1  0  0  0  0
  8 17  1  1  0  0  0
  8  7  1  0  0  0  0
  9  4  1  0  0  0  0
 12  5  1  0  0  0  0
 13  6  1  0  0  0  0
 18  8  1  0  0  0  0
 18 19  1  0  0  0  0
 20 19  2  0  0  0  0
 20 21  1  0  0  0  0
 22 20  1  0  0  0  0
 23 24  1  0  0  0  0
 23 22  2  0  0  0  0
 24 18  2  0  0  0  0
 25  1  1  0  0  0  0
 26 25  1  0  0  0  0
 27 26  1  0  0  0  0
 27 34  1  0  0  0  0
 28 27  2  0  0  0  0
 29 30  2  0  0  0  0
 29 28  1  0  0  0  0
 30 31  1  0  0  0  0
 31 26  2  0  0  0  0
 32 28  1  0  0  0  0
 33 30  1  0  0  0  0
 34 35  1  0  0  0  0
 35 36  2  0  0  0  0
 35 39  1  0  0  0  0
 36 40  1  0  0  0  0
 37 36  1  0  0  0  0
 38 34  2  0  0  0  0
 38 37  1  0  0  0  0
 41 37  1  0  0  0  0
M  END
>  <minimizedAffinity>
-5.791327

$$$$

 OpenBabel03252508553D

 41 44  0  0  1  0  0  0  0  0999 V2000
   38.2830   29.8110   38.1600 C   0  0  0  0  0  0  0  0  0  0  0  0
   37.9550   30.2660   37.0130 O   0  0  0  0  0  0  0  0  0  0  0  0
   37.2060   28.8590   38.3660 N   0  0  0  0  0  0  0  0  0  0  0  0
   37.1300   27.8070   37.3800 C   0  0  0  0  0  0  0  0  0  0  0  0
   36.0130   28.2520   36.4110 C   0  0  0  0  0  0  0  0  0  0  0  0
   34.9580   28.9670   37.2740 C   0  0  0  0  0  0  0  0  0  0  0  0
   34.9270   28.3900   38.6730 C   0  0  0  0  0  0  0  0  0  0  0  0
   36.2030   28.8170   39.4130 C   0  0  1  0  0  0  0  0  0  0  0  0
   38.0320   27.6990   36.7580 H   0  0  0  0  0  0  0  0  0  0  0  0
   36.8040   26.8410   37.8280 H   0  0  0  0  0  0  0  0  0  0  0  0
   35.5580   27.3500   35.9240 H   0  0  0  0  0  0  0  0  0  0  0  0
   36.4070   28.9640   35.6710 H   0  0  0  0  0  0  0  0  0  0  0  0
   35.1970   30.0540   37.2850 H   0  0  0  0  0  0  0  0  0  0  0  0
   33.9990   28.7530   36.7840 H   0  0  0  0  0  0  0  0  0  0  0  0
   34.0140   28.7800   39.1580 H   0  0  0  0  0  0  0  0  0  0  0  0
   34.8790   27.2980   38.5520 H   0  0  0  0  0  0  0  0  0  0  0  0
   36.0590   29.8640   39.7440 H   0  0  0  0  0  0  0  0  0  0  0  0
   36.5210   27.8720   40.5040 C   0  0  0  0  0  0  0  0  0  0  0  0
   36.5800   28.1630   41.8480 C   0  0  0  0  0  3  0  0  0  0  0  0
   36.8820   27.2380   42.8120 C   0  0  0  0  0  0  0  0  0  0  0  0
   36.9000   27.5880   43.8560 H   0  0  0  0  0  0  0  0  0  0  0  0
   37.1350   25.9710   42.4420 N   0  0  0  0  0  0  0  0  0  0  0  0
   37.0840   25.6510   41.1200 C   0  0  0  0  0  3  0  0  0  0  0  0
   36.7830   26.5770   40.1740 N   0  0  0  0  0  0  0  0  0  0  0  0
   39.3590   30.1760   38.9050 O   0  0  0  0  0  0  0  0  0  0  0  0
   39.6150   29.8620   40.2170 C   0  0  0  0  0  0  0  0  0  0  0  0
   39.2440   30.8010   41.1820 C   0  0  0  0  0  0  0  0  0  0  0  0
   39.5090   30.4730   42.5220 C   0  0  0  0  0  0  0  0  0  0  0  0
   40.1090   29.2690   42.7880 N   0  0  0  0  0  0  0  0  0  0  0  0
   40.4380   28.4180   41.8260 C   0  0  0  0  0  0  0  0  0  0  0  0
   40.1940   28.7080   40.5390 N   0  0  0  0  0  0  0  0  0  0  0  0
   39.2290   31.1870   43.2880 H   0  0  0  0  0  0  0  0  0  0  0  0
   40.9100   27.4860   42.1430 H   0  0  0  0  0  0  0  0  0  0  0  0
   38.6140   32.0490   40.7900 C   0  0  0  0  0  0  0  0  0  0  0  0
   39.3370   33.2390   40.6440 C   0  0  0  0  0  0  0  0  0  0  0  0
   38.3820   34.1550   40.2730 C   0  0  0  0  0  0  0  0  0  0  0  0
   37.1790   33.5690   40.1980 N   0  0  0  0  0  0  0  0  0  0  0  0
   37.3390   32.3000   40.5130 N   0  0  0  0  0  0  0  0  0  0  0  0
   40.3880   33.4690   40.7730 H   0  0  0  0  0  0  0  0  0  0  0  0
   38.4550   35.2220   40.0420 H   0  0  0  0  0  0  0  0  0  0  0  0
   36.2010   33.8480   39.9660 H   0  0  0  0  0  0  0  0  0  0  0  0
  1  3  1  0  0  0  0
  1 25  1  0  0  0  0
  2  1  2  0  0  0  0
  3  8  1  0  0  0  0
  4 10  1  0  0  0  0
  4  3  1  0  0  0  0
  5  6  1  0  0  0  0
  5  4  1  0  0  0  0
  6 13  1  0  0  0  0
  6  7  1  0  0  0  0
  7 15  1  0  0  0  0
  7  8  1  0  0  0  0
  8 17  1  1  0  0  0
  8 18  1  0  0  0  0
  9  4  1  0  0  0  0
 11  5  1  0  0  0  0
 12  5  1  0  0  0  0
 14  6  1  0  0  0  0
 16  7  1  0  0  0  0
 18 19  1  0  0  0  0
 19 20  2  0  0  0  0
 20 21  1  0  0  0  0
 22 20  1  0  0  0  0
 23 22  2  0  0  0  0
 24 18  2  0  0  0  0
 24 23  1  0  0  0  0
 25 26  1  0  0  0  0
 26 31  2  0  0  0  0
 26 27  1  0  0  0  0
 27 28  2  0  0  0  0
 28 29  1  0  0  0  0
 28 32  1  0  0  0  0
 30 33  1  0  0  0  0
 30 29  2  0  0  0  0
 31 30  1  0  0  0  0
 34 27  1  0  0  0  0
 35 39  1  0  0  0  0
 35 34  1  0  0  0  0
 36 35  2  0  0  0  0
 37 36  1  0  0  0  0
 37 38  1  0  0  0  0
 38 34  2  0  0  0  0
 40 36  1  0  0  0  0
 41 37  1  0  0  0  0
M  END
>  <minimizedAffinity>
-5.74369907

$$$$

 OpenBabel03252508553D

 41 44  0  0  1  0  0  0  0  0999 V2000
   38.0890   29.2990   40.7500 C   0  0  0  0  0  0  0  0  0  0  0  0
   38.5150   29.8860   41.8000 O   0  0  0  0  0  0  0  0  0  0  0  0
   37.6430   28.0450   41.3310 N   0  0  0  0  0  0  0  0  0  0  0  0
   36.6040   28.1730   42.3250 C   0  0  0  0  0  0  0  0  0  0  0  0
   37.3380   28.0780   43.6800 C   0  0  0  0  0  0  0  0  0  0  0  0
   38.4830   27.0700   43.4750 C   0  0  0  0  0  0  0  0  0  0  0  0
   38.1060   26.0300   42.4420 C   0  0  0  0  0  0  0  0  0  0  0  0
   38.0910   26.6930   41.0570 C   0  0  1  0  0  0  0  0  0  0  0  0
   36.0990   29.1520   42.3330 H   0  0  0  0  0  0  0  0  0  0  0  0
   35.8840   27.3240   42.2860 H   0  0  0  0  0  0  0  0  0  0  0  0
   36.6310   27.6970   44.4630 H   0  0  0  0  0  0  0  0  0  0  0  0
   37.7680   29.0520   43.9530 H   0  0  0  0  0  0  0  0  0  0  0  0
   39.3930   27.6350   43.1740 H   0  0  0  0  0  0  0  0  0  0  0  0
   38.6000   26.5740   44.4480 H   0  0  0  0  0  0  0  0  0  0  0  0
   38.8610   25.2260   42.5100 H   0  0  0  0  0  0  0  0  0  0  0  0
   37.1080   25.6670   42.7250 H   0  0  0  0  0  0  0  0  0  0  0  0
   39.1420   26.7790   40.7190 H   0  0  0  0  0  0  0  0  0  0  0  0
   37.2120   25.9510   40.1280 C   0  0  0  0  0  0  0  0  0  0  0  0
   36.7800   26.3780   38.8930 C   0  0  0  0  0  3  0  0  0  0  0  0
   35.9630   25.6400   38.0780 C   0  0  0  0  0  0  0  0  0  0  0  0
   35.6820   26.0860   37.1110 H   0  0  0  0  0  0  0  0  0  0  0  0
   35.5540   24.4280   38.4920 N   0  0  0  0  0  0  0  0  0  0  0  0
   35.9640   23.9770   39.7090 C   0  0  0  0  0  3  0  0  0  0  0  0
   36.7740   24.7190   40.5070 N   0  0  0  0  0  0  0  0  0  0  0  0
   38.0930   29.7890   39.4820 O   0  0  0  0  0  0  0  0  0  0  0  0
   39.1820   30.0390   38.6840 C   0  0  0  0  0  0  0  0  0  0  0  0
   39.5030   31.3770   38.4440 C   0  0  0  0  0  0  0  0  0  0  0  0
   40.6180   31.6250   37.6260 C   0  0  0  0  0  0  0  0  0  0  0  0
   41.3050   30.5500   37.1240 N   0  0  0  0  0  0  0  0  0  0  0  0
   40.9500   29.3010   37.3880 C   0  0  0  0  0  0  0  0  0  0  0  0
   39.8900   29.0380   38.1660 N   0  0  0  0  0  0  0  0  0  0  0  0
   40.8860   32.6570   37.4270 H   0  0  0  0  0  0  0  0  0  0  0  0
   41.5640   28.5160   36.9400 H   0  0  0  0  0  0  0  0  0  0  0  0
   38.7060   32.4410   39.0270 C   0  0  0  0  0  0  0  0  0  0  0  0
   39.2180   33.3190   39.9900 C   0  0  0  0  0  0  0  0  0  0  0  0
   38.1600   34.1500   40.2670 C   0  0  0  0  0  0  0  0  0  0  0  0
   37.0940   33.8070   39.5320 N   0  0  0  0  0  0  0  0  0  0  0  0
   37.4420   32.7750   38.7910 N   0  0  0  0  0  0  0  0  0  0  0  0
   40.1930   33.3940   40.4570 H   0  0  0  0  0  0  0  0  0  0  0  0
   38.0660   34.9970   40.9530 H   0  0  0  0  0  0  0  0  0  0  0  0
   36.1100   34.1320   39.4040 H   0  0  0  0  0  0  0  0  0  0  0  0
  1  3  1  0  0  0  0
  1  2  2  0  0  0  0
  3  4  1  0  0  0  0
  4  9  1  0  0  0  0
  4  5  1  0  0  0  0
  5 12  1  0  0  0  0
  5 11  1  0  0  0  0
  6  5  1  0  0  0  0
  6 14  1  0  0  0  0
  7 15  1  0  0  0  0
  7 16  1  0  0  0  0
  7  6  1  0  0  0  0
  8 17  1  6  0  0  0
  8  3  1  0  0  0  0
  8  7  1  0  0  0  0
 10  4  1  0  0  0  0
 13  6  1  0  0  0  0
 18 24  1  0  0  0  0
 18  8  1  0  0  0  0
 19 18  2  0  0  0  0
 20 22  2  0  0  0  0
 20 19  1  0  0  0  0
 21 20  1  0  0  0  0
 22 23  1  0  0  0  0
 23 24  2  0  0  0  0
 25  1  1  0  0  0  0
 26 25  1  0  0  0  0
 27 26  1  0  0  0  0
 27 34  1  0  0  0  0
 28 27  2  0  0  0  0
 29 30  2  0  0  0  0
 29 28  1  0  0  0  0
 30 31  1  0  0  0  0
 31 26  2  0  0  0  0
 32 28  1  0  0  0  0
 33 30  1  0  0  0  0
 34 35  1  0  0  0  0
 35 36  2  0  0  0  0
 35 39  1  0  0  0  0
 36 40  1  0  0  0  0
 37 36  1  0  0  0  0
 38 34  2  0  0  0  0
 38 37  1  0  0  0  0
 41 37  1  0  0  0  0
M  END
>  <minimizedAffinity>
-5.7185235

$$$$

 OpenBabel03252508553D

 41 44  0  0  1  0  0  0  0  0999 V2000
   36.3450   29.6130   40.6080 C   0  0  0  0  0  0  0  0  0  0  0  0
   35.3010   28.9160   40.8350 O   0  0  0  0  0  0  0  0  0  0  0  0
   37.3010   28.9060   41.4440 N   0  0  0  0  0  0  0  0  0  0  0  0
   37.5030   27.5210   41.0930 C   0  0  0  0  0  0  0  0  0  0  0  0
   36.6420   26.7280   42.1000 C   0  0  0  0  0  0  0  0  0  0  0  0
   36.7170   27.5020   43.4290 C   0  0  0  0  0  0  0  0  0  0  0  0
   38.0450   28.2170   43.5600 C   0  0  0  0  0  0  0  0  0  0  0  0
   38.0730   29.3920   42.5710 C   0  0  1  0  0  0  0  0  0  0  0  0
   37.1210   27.2420   40.0980 H   0  0  0  0  0  0  0  0  0  0  0  0
   38.5580   27.2020   41.2480 H   0  0  0  0  0  0  0  0  0  0  0  0
   37.0720   25.7000   42.2340 H   0  0  0  0  0  0  0  0  0  0  0  0
   35.5940   26.6950   41.7690 H   0  0  0  0  0  0  0  0  0  0  0  0
   35.8630   28.2140   43.4650 H   0  0  0  0  0  0  0  0  0  0  0  0
   36.6540   26.7310   44.2090 H   0  0  0  0  0  0  0  0  0  0  0  0
   38.1220   28.5540   44.6100 H   0  0  0  0  0  0  0  0  0  0  0  0
   38.8170   27.4730   43.3220 H   0  0  0  0  0  0  0  0  0  0  0  0
   37.4820   30.2150   43.0180 H   0  0  0  0  0  0  0  0  0  0  0  0
   39.4630   29.7580   42.2270 C   0  0  0  0  0  0  0  0  0  0  0  0
   40.3170   29.0520   41.4100 C   0  0  0  0  0  3  0  0  0  0  0  0
   41.5990   29.4470   41.1310 C   0  0  0  0  0  0  0  0  0  0  0  0
   42.1900   28.8010   40.4630 H   0  0  0  0  0  0  0  0  0  0  0  0
   42.0620   30.5850   41.6760 N   0  0  0  0  0  0  0  0  0  0  0  0
   41.2420   31.3060   42.4890 C   0  0  0  0  0  3  0  0  0  0  0  0
   39.9740   30.9030   42.7570 N   0  0  0  0  0  0  0  0  0  0  0  0
   36.4420   30.6990   39.7970 O   0  0  0  0  0  0  0  0  0  0  0  0
   37.4870   31.5850   39.7040 C   0  0  0  0  0  0  0  0  0  0  0  0
   38.3970   31.3900   38.6620 C   0  0  0  0  0  0  0  0  0  0  0  0
   39.4630   32.3000   38.5730 C   0  0  0  0  0  0  0  0  0  0  0  0
   39.5380   33.3050   39.5030 N   0  0  0  0  0  0  0  0  0  0  0  0
   38.6420   33.4370   40.4700 C   0  0  0  0  0  0  0  0  0  0  0  0
   37.6140   32.5810   40.5760 N   0  0  0  0  0  0  0  0  0  0  0  0
   40.1820   32.1680   37.7710 H   0  0  0  0  0  0  0  0  0  0  0  0
   38.7900   34.2710   41.1600 H   0  0  0  0  0  0  0  0  0  0  0  0
   38.2240   30.2910   37.7300 C   0  0  0  0  0  0  0  0  0  0  0  0
   38.9750   29.1120   37.8150 C   0  0  0  0  0  0  0  0  0  0  0  0
   38.5080   28.3540   36.7680 C   0  0  0  0  0  0  0  0  0  0  0  0
   37.5510   29.0170   36.1040 N   0  0  0  0  0  0  0  0  0  0  0  0
   37.3940   30.1820   36.6980 N   0  0  0  0  0  0  0  0  0  0  0  0
   39.7500   28.7950   38.5010 H   0  0  0  0  0  0  0  0  0  0  0  0
   38.7820   27.3530   36.4210 H   0  0  0  0  0  0  0  0  0  0  0  0
   36.9330   28.8530   35.2800 H   0  0  0  0  0  0  0  0  0  0  0  0
  1  2  2  0  0  0  0
  1  3  1  0  0  0  0
  3  8  1  0  0  0  0
  4 10  1  0  0  0  0
  4  3  1  0  0  0  0
  4  5  1  0  0  0  0
  5 11  1  0  0  0  0
  5  6  1  0  0  0  0
  6 13  1  0  0  0  0
  6  7  1  0  0  0  0
  6 14  1  0  0  0  0
  7 15  1  0  0  0  0
  8 17  1  1  0  0  0
  8  7  1  0  0  0  0
  9  4  1  0  0  0  0
 12  5  1  0  0  0  0
 16  7  1  0  0  0  0
 18  8  1  0  0  0  0
 18 24  1  0  0  0  0
 19 18  2  0  0  0  0
 20 19  1  0  0  0  0
 20 22  2  0  0  0  0
 21 20  1  0  0  0  0
 22 23  1  0  0  0  0
 23 24  2  0  0  0  0
 25  1  1  0  0  0  0
 26 25  1  0  0  0  0
 26 31  1  0  0  0  0
 27 26  2  0  0  0  0
 28 27  1  0  0  0  0
 28 29  2  0  0  0  0
 29 30  1  0  0  0  0
 30 31  2  0  0  0  0
 30 33  1  0  0  0  0
 32 28  1  0  0  0  0
 34 35  1  0  0  0  0
 34 27  1  0  0  0  0
 35 39  1  0  0  0  0
 36 35  2  0  0  0  0
 37 38  1  0  0  0  0
 37 36  1  0  0  0  0
 38 34  2  0  0  0  0
 40 36  1  0  0  0  0
 41 37  1  0  0  0  0
M  END
>  <minimizedAffinity>
-5.68390083

$$$$

 OpenBabel03252508553D

 41 44  0  0  1  0  0  0  0  0999 V2000
   37.2900   30.1750   37.7630 C   0  0  0  0  0  0  0  0  0  0  0  0
   36.5760   30.0950   36.7090 O   0  0  0  0  0  0  0  0  0  0  0  0
   36.4890   29.3680   38.6670 N   0  0  0  0  0  0  0  0  0  0  0  0
   36.3060   27.9970   38.2530 C   0  0  0  0  0  0  0  0  0  0  0  0
   34.9000   27.9600   37.6160 C   0  0  0  0  0  0  0  0  0  0  0  0
   34.0360   28.9410   38.4280 C   0  0  0  0  0  0  0  0  0  0  0  0
   34.5040   29.0050   39.8660 C   0  0  0  0  0  0  0  0  0  0  0  0
   35.8520   29.7410   39.9150 C   0  0  1  0  0  0  0  0  0  0  0  0
   36.9950   27.6630   37.4620 H   0  0  0  0  0  0  0  0  0  0  0  0
   36.2860   27.3000   39.1210 H   0  0  0  0  0  0  0  0  0  0  0  0
   34.4790   26.9230   37.6970 H   0  0  0  0  0  0  0  0  0  0  0  0
   34.9420   28.3050   36.5720 H   0  0  0  0  0  0  0  0  0  0  0  0
   34.0870   29.9370   37.9360 H   0  0  0  0  0  0  0  0  0  0  0  0
   33.0250   28.5130   38.4060 H   0  0  0  0  0  0  0  0  0  0  0  0
   33.7180   29.5370   40.4330 H   0  0  0  0  0  0  0  0  0  0  0  0
   34.6030   27.9640   40.2020 H   0  0  0  0  0  0  0  0  0  0  0  0
   35.6400   30.8260   39.8400 H   0  0  0  0  0  0  0  0  0  0  0  0
   36.6210   29.3530   41.1160 C   0  0  0  0  0  0  0  0  0  0  0  0
   37.7200   30.0030   41.6290 C   0  0  0  0  0  3  0  0  0  0  0  0
   38.3910   29.5890   42.7500 C   0  0  0  0  0  0  0  0  0  0  0  0
   39.2580   30.1900   43.0660 H   0  0  0  0  0  0  0  0  0  0  0  0
   37.9620   28.4920   43.3970 N   0  0  0  0  0  0  0  0  0  0  0  0
   36.8770   27.8280   42.9150 C   0  0  0  0  0  3  0  0  0  0  0  0
   36.2210   28.2470   41.8030 N   0  0  0  0  0  0  0  0  0  0  0  0
   38.4590   30.8510   37.9070 O   0  0  0  0  0  0  0  0  0  0  0  0
   38.6920   31.9720   38.6670 C   0  0  0  0  0  0  0  0  0  0  0  0
   40.0240   32.3410   38.8670 C   0  0  0  0  0  0  0  0  0  0  0  0
   40.2540   33.4880   39.6450 C   0  0  0  0  0  0  0  0  0  0  0  0
   39.1690   34.1570   40.1500 N   0  0  0  0  0  0  0  0  0  0  0  0
   37.9270   33.7560   39.9250 C   0  0  0  0  0  0  0  0  0  0  0  0
   37.6810   32.6640   39.1850 N   0  0  0  0  0  0  0  0  0  0  0  0
   41.2810   33.7940   39.8130 H   0  0  0  0  0  0  0  0  0  0  0  0
   37.1330   34.3590   40.3710 H   0  0  0  0  0  0  0  0  0  0  0  0
   41.1000   31.5590   38.2850 C   0  0  0  0  0  0  0  0  0  0  0  0
   41.6670   31.8730   37.0440 C   0  0  0  0  0  0  0  0  0  0  0  0
   42.6270   30.9050   36.8720 C   0  0  0  0  0  0  0  0  0  0  0  0
   42.6420   30.0730   37.9220 N   0  0  0  0  0  0  0  0  0  0  0  0
   41.7150   30.4830   38.7630 N   0  0  0  0  0  0  0  0  0  0  0  0
   41.4610   32.6630   36.3320 H   0  0  0  0  0  0  0  0  0  0  0  0
   43.3360   30.7260   36.0580 H   0  0  0  0  0  0  0  0  0  0  0  0
   43.1730   29.2280   38.2260 H   0  0  0  0  0  0  0  0  0  0  0  0
  1 25  1  0  0  0  0
  1  3  1  0  0  0  0
  2  1  2  0  0  0  0
  3  8  1  0  0  0  0
  4  3  1  0  0  0  0
  4 10  1  0  0  0  0
  5 11  1  0  0  0  0
  5  4  1  0  0  0  0
  5  6  1  0  0  0  0
  6  7  1  0  0  0  0
  7  8  1  0  0  0  0
  7 16  1  0  0  0  0
  7 15  1  0  0  0  0
  8 17  1  1  0  0  0
  8 18  1  0  0  0  0
  9  4  1  0  0  0  0
 12  5  1  0  0  0  0
 13  6  1  0  0  0  0
 14  6  1  0  0  0  0
 18 19  2  0  0  0  0
 18 24  1  0  0  0  0
 19 20  1  0  0  0  0
 20 21  1  0  0  0  0
 20 22  2  0  0  0  0
 23 22  1  0  0  0  0
 24 23  2  0  0  0  0
 25 26  1  0  0  0  0
 26 27  2  0  0  0  0
 26 31  1  0  0  0  0
 27 28  1  0  0  0  0
 28 32  1  0  0  0  0
 28 29  2  0  0  0  0
 30 29  1  0  0  0  0
 30 33  1  0  0  0  0
 31 30  2  0  0  0  0
 34 38  2  0  0  0  0
 34 27  1  0  0  0  0
 35 34  1  0  0  0  0
 36 35  2  0  0  0  0
 36 37  1  0  0  0  0
 37 41  1  0  0  0  0
 37 38  1  0  0  0  0
 39 35  1  0  0  0  0
 40 36  1  0  0  0  0
M  END
>  <minimizedAffinity>
-5.67659569

$$$$

 OpenBabel03252508553D

 41 44  0  0  1  0  0  0  0  0999 V2000
   37.3920   30.7830   37.4760 C   0  0  0  0  0  0  0  0  0  0  0  0
   37.7310   31.9250   37.0180 O   0  0  0  0  0  0  0  0  0  0  0  0
   37.6940   30.9810   38.8820 N   0  0  0  0  0  0  0  0  0  0  0  0
   36.9550   32.0470   39.5170 C   0  0  0  0  0  0  0  0  0  0  0  0
   37.9340   33.2400   39.5510 C   0  0  0  0  0  0  0  0  0  0  0  0
   39.3320   32.6410   39.7860 C   0  0  0  0  0  0  0  0  0  0  0  0
   39.2410   31.3700   40.6040 C   0  0  0  0  0  0  0  0  0  0  0  0
   38.6250   30.2650   39.7330 C   0  0  1  0  0  0  0  0  0  0  0  0
   36.0830   32.3990   38.9450 H   0  0  0  0  0  0  0  0  0  0  0  0
   36.7020   31.8060   40.5740 H   0  0  0  0  0  0  0  0  0  0  0  0
   37.6640   33.9220   40.4000 H   0  0  0  0  0  0  0  0  0  0  0  0
   37.9320   33.7670   38.5850 H   0  0  0  0  0  0  0  0  0  0  0  0
   39.8020   32.4570   38.7940 H   0  0  0  0  0  0  0  0  0  0  0  0
   39.8700   33.3980   40.3710 H   0  0  0  0  0  0  0  0  0  0  0  0
   40.2700   31.1240   40.9240 H   0  0  0  0  0  0  0  0  0  0  0  0
   38.6010   31.6070   41.4650 H   0  0  0  0  0  0  0  0  0  0  0  0
   39.4240   29.8860   39.0650 H   0  0  0  0  0  0  0  0  0  0  0  0
   37.9900   29.2270   40.5720 C   0  0  0  0  0  0  0  0  0  0  0  0
   37.4760   28.0260   40.1380 C   0  0  0  0  0  3  0  0  0  0  0  0
   36.8970   27.1040   40.9700 C   0  0  0  0  0  0  0  0  0  0  0  0
   36.5210   26.1770   40.5090 H   0  0  0  0  0  0  0  0  0  0  0  0
   36.8210   27.3720   42.2850 N   0  0  0  0  0  0  0  0  0  0  0  0
   37.3190   28.5510   42.7450 C   0  0  0  0  0  3  0  0  0  0  0  0
   37.8910   29.4570   41.9100 N   0  0  0  0  0  0  0  0  0  0  0  0
   36.8960   29.7340   36.7680 O   0  0  0  0  0  0  0  0  0  0  0  0
   35.5870   29.3270   36.6790 C   0  0  0  0  0  0  0  0  0  0  0  0
   35.0040   29.3280   35.4100 C   0  0  0  0  0  0  0  0  0  0  0  0
   33.6650   28.9100   35.3270 C   0  0  0  0  0  0  0  0  0  0  0  0
   33.0310   28.5360   36.4820 N   0  0  0  0  0  0  0  0  0  0  0  0
   33.6390   28.5560   37.6590 C   0  0  0  0  0  0  0  0  0  0  0  0
   34.9170   28.9510   37.7650 N   0  0  0  0  0  0  0  0  0  0  0  0
   33.1920   28.9030   34.3510 H   0  0  0  0  0  0  0  0  0  0  0  0
   33.0460   28.2370   38.5190 H   0  0  0  0  0  0  0  0  0  0  0  0
   35.7690   29.7460   34.2490 C   0  0  0  0  0  0  0  0  0  0  0  0
   35.8110   31.0790   33.8200 C   0  0  0  0  0  0  0  0  0  0  0  0
   36.6270   31.0380   32.7150 C   0  0  0  0  0  0  0  0  0  0  0  0
   37.0470   29.7850   32.4930 N   0  0  0  0  0  0  0  0  0  0  0  0
   36.5190   29.0210   33.4270 N   0  0  0  0  0  0  0  0  0  0  0  0
   35.3460   31.9780   34.2040 H   0  0  0  0  0  0  0  0  0  0  0  0
   36.9650   31.8270   32.0360 H   0  0  0  0  0  0  0  0  0  0  0  0
   37.6530   29.2880   31.8040 H   0  0  0  0  0  0  0  0  0  0  0  0
  1  3  1  0  0  0  0
  2  1  2  0  0  0  0
  3  4  1  0  0  0  0
  3  8  1  0  0  0  0
  4  5  1  0  0  0  0
  4 10  1  0  0  0  0
  5  6  1  0  0  0  0
  5 11  1  0  0  0  0
  6 14  1  0  0  0  0
  6  7  1  0  0  0  0
  7 15  1  0  0  0  0
  7 16  1  0  0  0  0
  8 17  1  6  0  0  0
  8 18  1  0  0  0  0
  8  7  1  0  0  0  0
  9  4  1  0  0  0  0
 12  5  1  0  0  0  0
 13  6  1  0  0  0  0
 18 24  1  0  0  0  0
 19 18  2  0  0  0  0
 19 20  1  0  0  0  0
 20 22  2  0  0  0  0
 21 20  1  0  0  0  0
 22 23  1  0  0  0  0
 24 23  2  0  0  0  0
 25  1  1  0  0  0  0
 26 25  1  0  0  0  0
 26 31  1  0  0  0  0
 27 26  2  0  0  0  0
 28 27  1  0  0  0  0
 28 29  2  0  0  0  0
 29 30  1  0  0  0  0
 30 31  2  0  0  0  0
 30 33  1  0  0  0  0
 32 28  1  0  0  0  0
 34 27  1  0  0  0  0
 35 39  1  0  0  0  0
 35 34  1  0  0  0  0
 36 35  2  0  0  0  0
 37 36  1  0  0  0  0
 37 38  1  0  0  0  0
 38 34  2  0  0  0  0
 40 36  1  0  0  0  0
 41 37  1  0  0  0  0
M  END
>  <minimizedAffinity>
-5.65927362

$$$$

 OpenBabel03252508553D

 41 44  0  0  1  0  0  0  0  0999 V2000
   38.5390   29.9430   38.3020 C   0  0  0  0  0  0  0  0  0  0  0  0
   38.1070   30.1180   37.1140 O   0  0  0  0  0  0  0  0  0  0  0  0
   37.4170   29.2150   38.8690 N   0  0  0  0  0  0  0  0  0  0  0  0
   37.1220   27.9580   38.2230 C   0  0  0  0  0  0  0  0  0  0  0  0
   35.9340   28.2640   37.2860 C   0  0  0  0  0  0  0  0  0  0  0  0
   35.0660   29.3020   38.0210 C   0  0  0  0  0  0  0  0  0  0  0  0
   35.1640   29.1190   39.5200 C   0  0  0  0  0  0  0  0  0  0  0  0
   36.5580   29.5690   39.9830 C   0  0  1  0  0  0  0  0  0  0  0  0
   37.9240   27.5840   37.5660 H   0  0  0  0  0  0  0  0  0  0  0  0
   36.7730   27.1890   38.9480 H   0  0  0  0  0  0  0  0  0  0  0  0
   35.3420   27.3270   37.1120 H   0  0  0  0  0  0  0  0  0  0  0  0
   36.2900   28.7050   36.3430 H   0  0  0  0  0  0  0  0  0  0  0  0
   35.3990   30.3160   37.7090 H   0  0  0  0  0  0  0  0  0  0  0  0
   34.0370   29.0830   37.7070 H   0  0  0  0  0  0  0  0  0  0  0  0
   34.3600   29.7290   39.9690 H   0  0  0  0  0  0  0  0  0  0  0  0
   35.0060   28.0480   39.7080 H   0  0  0  0  0  0  0  0  0  0  0  0
   36.5510   30.6760   40.0270 H   0  0  0  0  0  0  0  0  0  0  0  0
   36.9290   28.9120   41.2530 C   0  0  0  0  0  0  0  0  0  0  0  0
   36.3270   27.8060   41.8100 C   0  0  0  0  0  3  0  0  0  0  0  0
   36.7210   27.2440   42.9960 C   0  0  0  0  0  0  0  0  0  0  0  0
   36.1620   26.3610   43.3430 H   0  0  0  0  0  0  0  0  0  0  0  0
   37.7520   27.7900   43.6640 N   0  0  0  0  0  0  0  0  0  0  0  0
   38.3690   28.8840   43.1400 C   0  0  0  0  0  3  0  0  0  0  0  0
   37.9690   29.4310   41.9640 N   0  0  0  0  0  0  0  0  0  0  0  0
   39.7300   30.3600   38.8070 O   0  0  0  0  0  0  0  0  0  0  0  0
   40.6810   31.1300   38.1840 C   0  0  0  0  0  0  0  0  0  0  0  0
   40.7240   32.4850   38.5200 C   0  0  0  0  0  0  0  0  0  0  0  0
   41.6990   33.2670   37.8780 C   0  0  0  0  0  0  0  0  0  0  0  0
   42.5310   32.6540   36.9770 N   0  0  0  0  0  0  0  0  0  0  0  0
   42.4400   31.3620   36.7000 C   0  0  0  0  0  0  0  0  0  0  0  0
   41.5180   30.5940   37.3000 N   0  0  0  0  0  0  0  0  0  0  0  0
   41.7510   34.3220   38.1240 H   0  0  0  0  0  0  0  0  0  0  0  0
   43.1500   30.9700   35.9680 H   0  0  0  0  0  0  0  0  0  0  0  0
   39.7930   33.0330   39.4900 C   0  0  0  0  0  0  0  0  0  0  0  0
   38.4880   33.4070   39.1470 C   0  0  0  0  0  0  0  0  0  0  0  0
   37.9600   33.8650   40.3300 C   0  0  0  0  0  0  0  0  0  0  0  0
   38.8690   33.7750   41.3110 N   0  0  0  0  0  0  0  0  0  0  0  0
   39.9670   33.2710   40.7850 N   0  0  0  0  0  0  0  0  0  0  0  0
   37.9490   33.3760   38.2080 H   0  0  0  0  0  0  0  0  0  0  0  0
   36.9710   34.2640   40.5740 H   0  0  0  0  0  0  0  0  0  0  0  0
   38.9250   33.9910   42.3300 H   0  0  0  0  0  0  0  0  0  0  0  0
  1 25  1  0  0  0  0
  1  3  1  0  0  0  0
  2  1  2  0  0  0  0
  3  8  1  0  0  0  0
  4  3  1  0  0  0  0
  4 10  1  0  0  0  0
  5  6  1  0  0  0  0
  5  4  1  0  0  0  0
  6  7  1  0  0  0  0
  7 16  1  0  0  0  0
  7 15  1  0  0  0  0
  7  8  1  0  0  0  0
  8 17  1  1  0  0  0
  8 18  1  0  0  0  0
  9  4  1  0  0  0  0
 11  5  1  0  0  0  0
 12  5  1  0  0  0  0
 13  6  1  0  0  0  0
 14  6  1  0  0  0  0
 18 19  2  0  0  0  0
 18 24  1  0  0  0  0
 19 20  1  0  0  0  0
 20 21  1  0  0  0  0
 20 22  2  0  0  0  0
 23 22  1  0  0  0  0
 24 23  2  0  0  0  0
 26 27  1  0  0  0  0
 26 25  1  0  0  0  0
 27 34  1  0  0  0  0
 28 32  1  0  0  0  0
 28 27  2  0  0  0  0
 29 28  1  0  0  0  0
 30 29  2  0  0  0  0
 30 31  1  0  0  0  0
 31 26  2  0  0  0  0
 33 30  1  0  0  0  0
 34 38  2  0  0  0  0
 35 34  1  0  0  0  0
 35 36  2  0  0  0  0
 36 40  1  0  0  0  0
 36 37  1  0  0  0  0
 37 41  1  0  0  0  0
 38 37  1  0  0  0  0
 39 35  1  0  0  0  0
M  END
>  <minimizedAffinity>
-5.61842203

$$$$

 OpenBabel03252508553D

 41 44  0  0  1  0  0  0  0  0999 V2000
   39.2150   29.3070   41.8540 C   0  0  0  0  0  0  0  0  0  0  0  0
   39.4350   28.8070   43.0080 O   0  0  0  0  0  0  0  0  0  0  0  0
   38.0230   28.5630   41.4850 N   0  0  0  0  0  0  0  0  0  0  0  0
   36.8950   28.7490   42.3660 C   0  0  0  0  0  0  0  0  0  0  0  0
   36.9000   27.5070   43.2830 C   0  0  0  0  0  0  0  0  0  0  0  0
   37.3730   26.3310   42.4090 C   0  0  0  0  0  0  0  0  0  0  0  0
   36.9610   26.5360   40.9660 C   0  0  0  0  0  0  0  0  0  0  0  0
   37.8090   27.6670   40.3650 C   0  0  1  0  0  0  0  0  0  0  0  0
   36.9840   29.6130   43.0440 H   0  0  0  0  0  0  0  0  0  0  0  0
   35.9290   28.7390   41.8130 H   0  0  0  0  0  0  0  0  0  0  0  0
   35.8600   27.3110   43.6550 H   0  0  0  0  0  0  0  0  0  0  0  0
   37.6130   27.6420   44.1100 H   0  0  0  0  0  0  0  0  0  0  0  0
   38.4770   26.2450   42.5110 H   0  0  0  0  0  0  0  0  0  0  0  0
   36.8450   25.4540   42.8050 H   0  0  0  0  0  0  0  0  0  0  0  0
   37.1250   25.5730   40.4500 H   0  0  0  0  0  0  0  0  0  0  0  0
   35.8950   26.8010   40.9880 H   0  0  0  0  0  0  0  0  0  0  0  0
   38.8010   27.2410   40.1170 H   0  0  0  0  0  0  0  0  0  0  0  0
   37.1130   28.2960   39.2230 C   0  0  0  0  0  0  0  0  0  0  0  0
   35.7760   28.6130   39.1530 C   0  0  0  0  0  3  0  0  0  0  0  0
   35.1910   29.1970   38.0600 C   0  0  0  0  0  0  0  0  0  0  0  0
   34.1110   29.4040   38.1190 H   0  0  0  0  0  0  0  0  0  0  0  0
   35.9530   29.4860   36.9910 N   0  0  0  0  0  0  0  0  0  0  0  0
   37.2800   29.1850   37.0290 C   0  0  0  0  0  3  0  0  0  0  0  0
   37.8470   28.6060   38.1180 N   0  0  0  0  0  0  0  0  0  0  0  0
   39.9470   30.2640   41.2270 O   0  0  0  0  0  0  0  0  0  0  0  0
   40.4320   30.2410   39.9420 C   0  0  0  0  0  0  0  0  0  0  0  0
   39.9290   31.1950   39.0550 C   0  0  0  0  0  0  0  0  0  0  0  0
   40.4300   31.1660   37.7420 C   0  0  0  0  0  0  0  0  0  0  0  0
   41.3640   30.2130   37.4260 N   0  0  0  0  0  0  0  0  0  0  0  0
   41.8010   29.3330   38.3140 C   0  0  0  0  0  0  0  0  0  0  0  0
   41.3400   29.3410   39.5740 N   0  0  0  0  0  0  0  0  0  0  0  0
   40.0540   31.8980   37.0360 H   0  0  0  0  0  0  0  0  0  0  0  0
   42.5470   28.6170   37.9620 H   0  0  0  0  0  0  0  0  0  0  0  0
   38.9390   32.1610   39.4950 C   0  0  0  0  0  0  0  0  0  0  0  0
   39.2740   33.4790   39.8270 C   0  0  0  0  0  0  0  0  0  0  0  0
   38.0720   34.0400   40.1830 C   0  0  0  0  0  0  0  0  0  0  0  0
   37.0870   33.1370   40.0750 N   0  0  0  0  0  0  0  0  0  0  0  0
   37.6290   32.0110   39.6590 N   0  0  0  0  0  0  0  0  0  0  0  0
   40.2200   34.0070   39.8300 H   0  0  0  0  0  0  0  0  0  0  0  0
   37.8150   35.0490   40.5190 H   0  0  0  0  0  0  0  0  0  0  0  0
   36.0560   33.1020   40.2290 H   0  0  0  0  0  0  0  0  0  0  0  0
  1  2  2  0  0  0  0
  3  1  1  0  0  0  0
  3  4  1  0  0  0  0
  4  9  1  0  0  0  0
  4  5  1  0  0  0  0
  5 11  1  0  0  0  0
  5 12  1  0  0  0  0
  6 13  1  0  0  0  0
  6 14  1  0  0  0  0
  6  5  1  0  0  0  0
  7 16  1  0  0  0  0
  7  6  1  0  0  0  0
  8 17  1  6  0  0  0
  8  7  1  0  0  0  0
  8  3  1  0  0  0  0
 10  4  1  0  0  0  0
 15  7  1  0  0  0  0
 18  8  1  0  0  0  0
 19 18  1  0  0  0  0
 20 21  1  0  0  0  0
 20 19  2  0  0  0  0
 22 23  2  0  0  0  0
 22 20  1  0  0  0  0
 23 24  1  0  0  0  0
 24 18  2  0  0  0  0
 25  1  1  0  0  0  0
 26 25  1  0  0  0  0
 27 34  1  0  0  0  0
 27 26  2  0  0  0  0
 28 27  1  0  0  0  0
 29 28  2  0  0  0  0
 29 30  1  0  0  0  0
 30 31  2  0  0  0  0
 31 26  1  0  0  0  0
 32 28  1  0  0  0  0
 33 30  1  0  0  0  0
 34 38  2  0  0  0  0
 34 35  1  0  0  0  0
 35 39  1  0  0  0  0
 35 36  2  0  0  0  0
 36 40  1  0  0  0  0
 37 36  1  0  0  0  0
 37 41  1  0  0  0  0
 38 37  1  0  0  0  0
M  END
>  <minimizedAffinity>
-5.61526871

$$$$
