
 OpenBabel03252502383D

 36 38  0  0  1  0  0  0  0  0999 V2000
   45.5460   33.5110   39.7860 C   0  0  1  0  0  0  0  0  0  0  0  0
   45.8960   34.5220   39.4630 H   0  0  0  0  0  0  0  0  0  0  0  0
   46.0070   32.5890   38.7670 N   0  0  0  0  0  0  0  0  0  0  0  0
   45.2880   31.3820   38.6870 C   0  0  0  0  0  0  0  0  0  0  0  0
   46.1800   30.4370   37.8490 C   0  0  0  0  0  0  0  0  0  0  0  0
   46.0740   30.9570   36.5200 N   0  0  0  0  0  0  0  0  0  0  0  0
   46.4490   32.3110   36.3610 C   0  0  0  0  0  0  0  0  0  0  0  0
   46.2890   33.2260   37.5260 C   0  0  0  0  0  0  0  0  0  0  0  0
   45.2670   30.9140   39.7000 H   0  0  0  0  0  0  0  0  0  0  0  0
   44.2910   31.4420   38.2340 H   0  0  0  0  0  0  0  0  0  0  0  0
   45.6500   29.4700   37.8800 H   0  0  0  0  0  0  0  0  0  0  0  0
   47.1990   30.4440   38.2300 H   0  0  0  0  0  0  0  0  0  0  0  0
   45.2750   30.6160   35.9750 H   0  0  0  0  0  0  0  0  0  0  0  0
   45.8810   32.7000   35.4600 H   0  0  0  0  0  0  0  0  0  0  0  0
   47.5090   32.3180   36.0150 H   0  0  0  0  0  0  0  0  0  0  0  0
   45.4780   33.9440   37.3000 H   0  0  0  0  0  0  0  0  0  0  0  0
   47.2320   33.8230   37.5730 H   0  0  0  0  0  0  0  0  0  0  0  0
   43.2360   34.0300   39.0420 C   0  0  0  0  0  0  0  0  0  0  0  0
   44.1270   33.5370   39.9800 C   0  0  0  0  0  0  0  0  0  0  0  0
   43.5420   33.0670   41.1610 C   0  0  0  0  0  0  0  0  0  0  0  0
   42.1820   33.1150   41.3260 N   0  0  0  0  0  0  0  0  0  0  0  0
   41.3760   33.6100   40.3660 C   0  0  0  0  0  0  0  0  0  0  0  0
   41.9010   34.0740   39.2110 N   0  0  0  0  0  0  0  0  0  0  0  0
   43.6630   34.4040   38.1100 H   0  0  0  0  0  0  0  0  0  0  0  0
   44.1440   32.6640   41.9510 H   0  0  0  0  0  0  0  0  0  0  0  0
   40.3370   33.5750   40.6540 H   0  0  0  0  0  0  0  0  0  0  0  0
   46.2410   33.1730   41.1080 C   0  0  0  0  0  0  0  0  0  0  0  0
   45.4980   33.2990   41.9520 H   0  0  0  0  0  0  0  0  0  0  0  0
   46.5920   32.1060   41.0770 H   0  0  0  0  0  0  0  0  0  0  0  0
   47.4060   34.0100   41.4270 C   0  0  0  0  0  0  0  0  0  0  0  0
   47.9350   35.2410   41.1710 C   0  0  0  0  0  3  0  0  0  0  0  0
   49.1260   35.7220   41.6440 C   0  0  0  0  0  0  0  0  0  0  0  0
   49.3370   36.7170   41.3130 H   0  0  0  0  0  0  0  0  0  0  0  0
   49.8440   34.9140   42.4320 N   0  0  0  0  0  0  0  0  0  0  0  0
   49.3860   33.7070   42.7160 C   0  0  0  0  0  3  0  0  0  0  0  0
   48.2250   33.2710   42.2410 N   0  0  0  0  0  0  0  0  0  0  0  0
  1  2  1  6  0  0  0
  1 19  1  0  0  0  0
  1 27  1  0  0  0  0
  3  1  1  0  0  0  0
  4  3  1  0  0  0  0
  4  9  1  0  0  0  0
  5 11  1  0  0  0  0
  5 12  1  0  0  0  0
  5  4  1  0  0  0  0
  6  5  1  0  0  0  0
  7  6  1  0  0  0  0
  7  8  1  0  0  0  0
  8 17  1  0  0  0  0
  8  3  1  0  0  0  0
 10  4  1  0  0  0  0
 13  6  1  0  0  0  0
 14  7  1  0  0  0  0
 15  7  1  0  0  0  0
 16  8  1  0  0  0  0
 18 23  2  0  0  0  0
 18 19  1  0  0  0  0
 19 20  2  0  0  0  0
 20 21  1  0  0  0  0
 20 25  1  0  0  0  0
 22 26  1  0  0  0  0
 22 21  2  0  0  0  0
 23 22  1  0  0  0  0
 24 18  1  0  0  0  0
 27 30  1  0  0  0  0
 27 28  1  0  0  0  0
 29 27  1  0  0  0  0
 30 36  1  0  0  0  0
 31 30  2  0  0  0  0
 31 32  1  0  0  0  0
 32 34  2  0  0  0  0
 33 32  1  0  0  0  0
 34 35  1  0  0  0  0
 36 35  2  0  0  0  0
M  END
>  <minimizedAffinity>
-3.72952247

>  <minimizedRMSD>
4.0255475

$$$$
