
 OpenBabel03252509213D

 23 25  0  0  0  0  0  0  0  0999 V2000
   44.7570   35.4380   45.5180 C   0  0  0  0  0  0  0  0  0  0  0  0
   45.2970   35.9750   44.3180 C   0  0  0  0  0  0  0  0  0  0  0  0
   45.8220   35.0420   43.4510 C   0  0  0  0  0  0  0  0  0  0  0  0
   45.7910   33.7030   43.7930 N   0  0  0  0  0  0  0  0  0  0  0  0
   45.2710   33.2470   44.9360 C   0  0  0  0  0  0  0  0  0  0  0  0
   44.7540   34.1390   45.7930 N   0  0  0  0  0  0  0  0  0  0  0  0
   44.3060   35.9890   46.3210 H   0  0  0  0  0  0  0  0  0  0  0  0
   45.3690   32.1700   44.9610 H   0  0  0  0  0  0  0  0  0  0  0  0
   46.3200   35.4790   42.0970 C   0  0  0  0  0  0  0  0  0  0  0  0
   47.8240   35.2100   41.9600 C   0  0  0  0  0  0  0  0  0  0  0  0
   46.7240   34.4510   41.1560 C   0  0  0  0  0  0  0  0  0  0  0  0
   46.1840   36.5660   41.8940 H   0  0  0  0  0  0  0  0  0  0  0  0
   48.3310   34.5550   42.6770 H   0  0  0  0  0  0  0  0  0  0  0  0
   48.4370   35.8480   41.3310 H   0  0  0  0  0  0  0  0  0  0  0  0
   46.5670   33.3930   41.3660 H   0  0  0  0  0  0  0  0  0  0  0  0
   46.6330   34.7230   40.0690 H   0  0  0  0  0  0  0  0  0  0  0  0
   45.2630   37.4120   44.1170 C   0  0  0  0  0  0  0  0  0  0  0  0
   45.2130   38.2260   45.2220 C   0  0  0  0  0  3  0  0  0  0  0  0
   45.1670   39.6010   45.1850 C   0  0  0  0  0  0  0  0  0  0  0  0
   45.1270   40.2850   46.0110 H   0  0  0  0  0  0  0  0  0  0  0  0
   45.1720   40.2310   43.9750 N   0  0  0  0  0  0  0  0  0  0  0  0
   45.2210   39.4250   42.9010 C   0  0  0  0  0  3  0  0  0  0  0  0
   45.2640   38.1110   42.9910 N   0  0  0  0  0  0  0  0  0  0  0  0
  1  6  1  0  0  0  0
  1  7  1  0  0  0  0
  2  1  2  0  0  0  0
  3  4  2  0  0  0  0
  3  2  1  0  0  0  0
  4  5  1  0  0  0  0
  5  8  1  0  0  0  0
  5  6  2  0  0  0  0
  9  3  1  0  0  0  0
 10  9  1  0  0  0  0
 10 13  1  0  0  0  0
 11 15  1  0  0  0  0
 11 10  1  0  0  0  0
 11  9  1  0  0  0  0
 12  9  1  0  0  0  0
 14 10  1  0  0  0  0
 16 11  1  0  0  0  0
 17  2  1  0  0  0  0
 17 18  1  0  0  0  0
 19 18  2  0  0  0  0
 19 20  1  0  0  0  0
 21 19  1  0  0  0  0
 22 23  1  0  0  0  0
 22 21  2  0  0  0  0
 23 17  2  0  0  0  0
M  END
>  <minimizedAffinity>
-0.0683548823

>  <minimizedRMSD>
2.12478757

$$$$
