
 OpenBabel03252506443D

 38 41  0  0  1  0  0  0  0  0999 V2000
   37.2930   28.1450   40.7040 N   0  0  1  0  0  0  0  0  0  0  0  0
   37.3270   29.3390   41.5520 C   0  0  0  0  0  0  0  0  0  0  0  0
   38.0950   29.1130   42.8160 C   0  0  0  0  0  0  0  0  0  0  0  0
   37.3020   28.1610   43.6800 C   0  0  0  0  0  0  0  0  0  0  0  0
   36.6350   27.0920   42.8520 C   0  0  0  0  0  0  0  0  0  0  0  0
   37.3660   26.9650   41.5320 C   0  0  2  0  0  0  0  0  0  0  0  0
   37.9090   30.0890   40.9480 H   0  0  0  0  0  0  0  0  0  0  0  0
   36.3410   29.7670   41.7450 H   0  0  0  0  0  0  0  0  0  0  0  0
   38.1480   30.0920   43.3330 H   0  0  0  0  0  0  0  0  0  0  0  0
   39.1090   28.7630   42.6180 H   0  0  0  0  0  0  0  0  0  0  0  0
   36.5260   28.7880   44.2030 H   0  0  0  0  0  0  0  0  0  0  0  0
   37.9400   27.7750   44.4880 H   0  0  0  0  0  0  0  0  0  0  0  0
   35.6080   27.4100   42.6290 H   0  0  0  0  0  0  0  0  0  0  0  0
   36.7320   26.1240   43.3540 H   0  0  0  0  0  0  0  0  0  0  0  0
   36.7750   26.1810   40.9710 H   0  0  0  0  0  0  0  0  0  0  0  0
   35.7970   29.3550   38.9900 C   0  0  1  0  0  0  0  0  0  0  0  0
   35.1370   29.2890   40.3050 C   0  0  0  0  0  0  0  0  0  0  0  0
   36.1050   28.2280   39.9270 C   0  0  2  0  0  0  0  0  0  0  0  0
   36.5770   30.1260   38.8750 H   0  0  0  0  0  0  0  0  0  0  0  0
   35.4010   30.0420   41.0720 H   0  0  0  0  0  0  0  0  0  0  0  0
   34.0610   29.0090   40.2990 H   0  0  0  0  0  0  0  0  0  0  0  0
   35.7210   27.2350   39.5970 H   0  0  0  0  0  0  0  0  0  0  0  0
   35.6610   28.9190   36.5150 C   0  0  0  0  0  0  0  0  0  0  0  0
   35.0060   29.0600   37.7580 C   0  0  0  0  0  0  0  0  0  0  0  0
   33.6100   28.9110   37.8030 C   0  0  0  0  0  0  0  0  0  0  0  0
   32.9580   28.6400   36.6400 N   0  0  0  0  0  0  0  0  0  0  0  0
   33.6210   28.5110   35.4570 C   0  0  0  0  0  0  0  0  0  0  0  0
   34.9780   28.6500   35.3860 N   0  0  0  0  0  0  0  0  0  0  0  0
   36.7310   29.0460   36.5550 H   0  0  0  0  0  0  0  0  0  0  0  0
   33.0950   29.0160   38.7420 H   0  0  0  0  0  0  0  0  0  0  0  0
   33.0100   28.2920   34.5790 H   0  0  0  0  0  0  0  0  0  0  0  0
   38.7190   26.4100   41.6820 C   0  0  0  0  0  0  0  0  0  0  0  0
   38.7870   25.3220   42.5620 C   0  0  0  0  0  3  0  0  0  0  0  0
   40.0440   24.7410   42.7560 C   0  0  0  0  0  0  0  0  0  0  0  0
   40.1390   23.8950   43.4290 H   0  0  0  0  0  0  0  0  0  0  0  0
   41.1820   25.1640   42.1500 N   0  0  0  0  0  0  0  0  0  0  0  0
   41.0340   26.2150   41.3200 C   0  0  0  0  0  3  0  0  0  0  0  0
   39.8630   26.8320   41.0780 N   0  0  0  0  0  0  0  0  0  0  0  0
  1  6  1  0  0  0  0
  1  2  1  1  0  0  0
  2  8  1  0  0  0  0
  2  3  1  0  0  0  0
  3  9  1  0  0  0  0
  3  4  1  0  0  0  0
  4 11  1  0  0  0  0
  4 12  1  0  0  0  0
  5 14  1  0  0  0  0
  5  4  1  0  0  0  0
  6 15  1  6  0  0  0
  6 32  1  0  0  0  0
  6  5  1  0  0  0  0
  7  2  1  0  0  0  0
 10  3  1  0  0  0  0
 13  5  1  0  0  0  0
 16 19  1  6  0  0  0
 16 18  1  0  0  0  0
 16 17  1  0  0  0  0
 17 20  1  0  0  0  0
 18 22  1  6  0  0  0
 18 17  1  0  0  0  0
 18  1  1  0  0  0  0
 21 17  1  0  0  0  0
 23 29  1  0  0  0  0
 23 24  1  0  0  0  0
 24 25  2  0  0  0  0
 24 16  1  0  0  0  0
 25 30  1  0  0  0  0
 26 25  1  0  0  0  0
 27 26  2  0  0  0  0
 28 27  1  0  0  0  0
 28 23  2  0  0  0  0
 31 27  1  0  0  0  0
 32 33  1  0  0  0  0
 33 34  2  0  0  0  0
 34 35  1  0  0  0  0
 36 34  1  0  0  0  0
 37 36  2  0  0  0  0
 38 37  1  0  0  0  0
 38 32  2  0  0  0  0
M  END
>  <minimizedAffinity>
-5.09039593

$$$$

 OpenBabel03252506443D

 38 41  0  0  1  0  0  0  0  0999 V2000
   36.9350   29.5170   40.1580 N   0  0  1  0  0  0  0  0  0  0  0  0
   37.1680   30.9520   40.3280 C   0  0  0  0  0  0  0  0  0  0  0  0
   36.8990   31.7220   39.0740 C   0  0  0  0  0  0  0  0  0  0  0  0
   37.9700   31.3680   38.0710 C   0  0  0  0  0  0  0  0  0  0  0  0
   38.3340   29.9070   38.1460 C   0  0  0  0  0  0  0  0  0  0  0  0
   37.1890   29.1490   38.7850 C   0  0  2  0  0  0  0  0  0  0  0  0
   36.3910   31.2690   41.0780 H   0  0  0  0  0  0  0  0  0  0  0  0
   38.1470   31.1900   40.7510 H   0  0  0  0  0  0  0  0  0  0  0  0
   37.0040   32.7960   39.3330 H   0  0  0  0  0  0  0  0  0  0  0  0
   35.8900   31.5470   38.6990 H   0  0  0  0  0  0  0  0  0  0  0  0
   38.8640   32.0050   38.3300 H   0  0  0  0  0  0  0  0  0  0  0  0
   37.6680   31.7090   37.0700 H   0  0  0  0  0  0  0  0  0  0  0  0
   39.2080   29.7960   38.8010 H   0  0  0  0  0  0  0  0  0  0  0  0
   38.4450   29.5030   37.1340 H   0  0  0  0  0  0  0  0  0  0  0  0
   37.5670   28.0840   38.8370 H   0  0  0  0  0  0  0  0  0  0  0  0
   37.2720   27.8750   42.1150 C   0  0  1  0  0  0  0  0  0  0  0  0
   37.6230   29.2470   42.5170 C   0  0  0  0  0  0  0  0  0  0  0  0
   37.7720   28.8500   41.0950 C   0  0  2  0  0  0  0  0  0  0  0  0
   36.1950   27.6380   42.0820 H   0  0  0  0  0  0  0  0  0  0  0  0
   36.8130   29.9360   42.8260 H   0  0  0  0  0  0  0  0  0  0  0  0
   38.5590   29.3600   43.1060 H   0  0  0  0  0  0  0  0  0  0  0  0
   38.7890   28.6230   40.6980 H   0  0  0  0  0  0  0  0  0  0  0  0
   37.9070   25.4420   42.0340 C   0  0  0  0  0  0  0  0  0  0  0  0
   38.1610   26.7440   42.5140 C   0  0  0  0  0  0  0  0  0  0  0  0
   39.2630   26.9440   43.3630 C   0  0  0  0  0  0  0  0  0  0  0  0
   40.0300   25.8670   43.6800 N   0  0  0  0  0  0  0  0  0  0  0  0
   39.7560   24.6220   43.1990 C   0  0  0  0  0  0  0  0  0  0  0  0
   38.6920   24.4010   42.3720 N   0  0  0  0  0  0  0  0  0  0  0  0
   37.0470   25.3620   41.3880 H   0  0  0  0  0  0  0  0  0  0  0  0
   39.4710   27.9310   43.7380 H   0  0  0  0  0  0  0  0  0  0  0  0
   40.4300   23.8220   43.5100 H   0  0  0  0  0  0  0  0  0  0  0  0
   35.9910   29.1040   37.9350 C   0  0  0  0  0  0  0  0  0  0  0  0
   34.8050   28.8750   38.6450 C   0  0  0  0  0  3  0  0  0  0  0  0
   33.6220   28.8180   37.9020 C   0  0  0  0  0  0  0  0  0  0  0  0
   32.6820   28.6440   38.4140 H   0  0  0  0  0  0  0  0  0  0  0  0
   33.5590   28.9700   36.5550 N   0  0  0  0  0  0  0  0  0  0  0  0
   34.7410   29.1850   35.9450 C   0  0  0  0  0  3  0  0  0  0  0  0
   35.9230   29.2540   36.5840 N   0  0  0  0  0  0  0  0  0  0  0  0
  1  2  1  6  0  0  0
  1 18  1  0  0  0  0
  2  8  1  0  0  0  0
  2  7  1  0  0  0  0
  3  9  1  0  0  0  0
  3  2  1  0  0  0  0
  4  5  1  0  0  0  0
  4 11  1  0  0  0  0
  4  3  1  0  0  0  0
  5  6  1  0  0  0  0
  5 13  1  0  0  0  0
  6 15  1  1  0  0  0
  6  1  1  0  0  0  0
 10  3  1  0  0  0  0
 12  4  1  0  0  0  0
 14  5  1  0  0  0  0
 16 19  1  6  0  0  0
 16 24  1  0  0  0  0
 16 17  1  0  0  0  0
 17 20  1  0  0  0  0
 17 21  1  0  0  0  0
 18 22  1  6  0  0  0
 18 16  1  0  0  0  0
 18 17  1  0  0  0  0
 23 28  2  0  0  0  0
 23 24  1  0  0  0  0
 24 25  2  0  0  0  0
 25 26  1  0  0  0  0
 25 30  1  0  0  0  0
 27 31  1  0  0  0  0
 27 26  2  0  0  0  0
 28 27  1  0  0  0  0
 29 23  1  0  0  0  0
 32 33  1  0  0  0  0
 32  6  1  0  0  0  0
 34 35  1  0  0  0  0
 34 33  2  0  0  0  0
 36 34  1  0  0  0  0
 37 36  2  0  0  0  0
 37 38  1  0  0  0  0
 38 32  2  0  0  0  0
M  END
>  <minimizedAffinity>
-5.03115368

$$$$

 OpenBabel03252506443D

 38 41  0  0  1  0  0  0  0  0999 V2000
   38.0820   28.5830   41.2740 N   0  0  1  0  0  0  0  0  0  0  0  0
   37.3840   29.3230   42.3270 C   0  0  0  0  0  0  0  0  0  0  0  0
   37.4890   28.6470   43.6570 C   0  0  0  0  0  0  0  0  0  0  0  0
   36.6740   27.3770   43.6020 C   0  0  0  0  0  0  0  0  0  0  0  0
   36.7970   26.7030   42.2590 C   0  0  0  0  0  0  0  0  0  0  0  0
   38.0710   27.1740   41.5880 C   0  0  2  0  0  0  0  0  0  0  0  0
   37.9540   30.2900   42.4080 H   0  0  0  0  0  0  0  0  0  0  0  0
   36.3510   29.5720   42.0770 H   0  0  0  0  0  0  0  0  0  0  0  0
   37.0230   29.3290   44.3970 H   0  0  0  0  0  0  0  0  0  0  0  0
   38.5270   28.4740   43.9440 H   0  0  0  0  0  0  0  0  0  0  0  0
   35.6050   27.6840   43.7850 H   0  0  0  0  0  0  0  0  0  0  0  0
   36.9290   26.7340   44.4570 H   0  0  0  0  0  0  0  0  0  0  0  0
   35.9570   27.0190   41.6280 H   0  0  0  0  0  0  0  0  0  0  0  0
   36.9040   25.6220   42.3990 H   0  0  0  0  0  0  0  0  0  0  0  0
   38.0540   26.6540   40.5840 H   0  0  0  0  0  0  0  0  0  0  0  0
   38.0970   29.6230   38.9160 C   0  0  1  0  0  0  0  0  0  0  0  0
   37.1610   30.3400   39.7980 C   0  0  0  0  0  0  0  0  0  0  0  0
   37.4330   28.9020   40.0490 C   0  0  2  0  0  0  0  0  0  0  0  0
   39.1650   29.8620   39.0440 H   0  0  0  0  0  0  0  0  0  0  0  0
   37.5590   31.1150   40.4810 H   0  0  0  0  0  0  0  0  0  0  0  0
   36.1710   30.5920   39.3590 H   0  0  0  0  0  0  0  0  0  0  0  0
   36.6790   28.1440   39.7350 H   0  0  0  0  0  0  0  0  0  0  0  0
   36.7590   30.1170   36.8430 C   0  0  0  0  0  0  0  0  0  0  0  0
   37.6810   29.2910   37.5210 C   0  0  0  0  0  0  0  0  0  0  0  0
   38.1910   28.1650   36.8530 C   0  0  0  0  0  0  0  0  0  0  0  0
   37.7680   27.9290   35.5820 N   0  0  0  0  0  0  0  0  0  0  0  0
   36.8770   28.7470   34.9570 C   0  0  0  0  0  0  0  0  0  0  0  0
   36.3660   29.8480   35.5840 N   0  0  0  0  0  0  0  0  0  0  0  0
   36.4090   30.9620   37.4150 H   0  0  0  0  0  0  0  0  0  0  0  0
   38.8940   27.5230   37.3560 H   0  0  0  0  0  0  0  0  0  0  0  0
   36.5990   28.4740   33.9370 H   0  0  0  0  0  0  0  0  0  0  0  0
   39.2830   26.6920   42.2650 C   0  0  0  0  0  0  0  0  0  0  0  0
   39.2590   25.3220   42.5540 C   0  0  0  0  0  3  0  0  0  0  0  0
   40.3800   24.7900   43.2000 C   0  0  0  0  0  0  0  0  0  0  0  0
   40.4020   23.7320   43.4410 H   0  0  0  0  0  0  0  0  0  0  0  0
   41.4710   25.5150   43.5560 N   0  0  0  0  0  0  0  0  0  0  0  0
   41.4170   26.8250   43.2440 C   0  0  0  0  0  3  0  0  0  0  0  0
   40.3790   27.4150   42.6250 N   0  0  0  0  0  0  0  0  0  0  0  0
  1  6  1  0  0  0  0
  1  2  1  1  0  0  0
  2  7  1  0  0  0  0
  2  3  1  0  0  0  0
  3 10  1  0  0  0  0
  3  9  1  0  0  0  0
  4  3  1  0  0  0  0
  4 11  1  0  0  0  0
  4 12  1  0  0  0  0
  5 14  1  0  0  0  0
  5  4  1  0  0  0  0
  6 15  1  6  0  0  0
  6  5  1  0  0  0  0
  6 32  1  0  0  0  0
  8  2  1  0  0  0  0
 13  5  1  0  0  0  0
 16 19  1  1  0  0  0
 16 17  1  0  0  0  0
 16 18  1  0  0  0  0
 17 18  1  0  0  0  0
 17 20  1  0  0  0  0
 18 22  1  6  0  0  0
 18  1  1  0  0  0  0
 21 17  1  0  0  0  0
 23 29  1  0  0  0  0
 23 24  1  0  0  0  0
 24 16  1  0  0  0  0
 25 30  1  0  0  0  0
 25 24  2  0  0  0  0
 26 25  1  0  0  0  0
 27 26  2  0  0  0  0
 27 28  1  0  0  0  0
 28 23  2  0  0  0  0
 31 27  1  0  0  0  0
 32 33  2  0  0  0  0
 32 38  1  0  0  0  0
 33 34  1  0  0  0  0
 34 35  1  0  0  0  0
 34 36  2  0  0  0  0
 37 36  1  0  0  0  0
 38 37  2  0  0  0  0
M  END
>  <minimizedAffinity>
-4.85545301

$$$$

 OpenBabel03252506443D

 38 41  0  0  1  0  0  0  0  0999 V2000
   37.2160   29.9290   40.4730 N   0  0  1  0  0  0  0  0  0  0  0  0
   35.8250   30.3670   40.3400 C   0  0  0  0  0  0  0  0  0  0  0  0
   34.8910   29.2220   40.1070 C   0  0  0  0  0  0  0  0  0  0  0  0
   35.1590   28.6750   38.7260 C   0  0  0  0  0  0  0  0  0  0  0  0
   36.6320   28.6890   38.4050 C   0  0  0  0  0  0  0  0  0  0  0  0
   37.4160   28.7260   39.7000 C   0  0  2  0  0  0  0  0  0  0  0  0
   35.5730   30.7920   41.3520 H   0  0  0  0  0  0  0  0  0  0  0  0
   35.6850   31.1640   39.6060 H   0  0  0  0  0  0  0  0  0  0  0  0
   33.8640   29.6420   40.1230 H   0  0  0  0  0  0  0  0  0  0  0  0
   34.9730   28.4650   40.8880 H   0  0  0  0  0  0  0  0  0  0  0  0
   34.6000   29.3430   38.0110 H   0  0  0  0  0  0  0  0  0  0  0  0
   34.6810   27.6900   38.6170 H   0  0  0  0  0  0  0  0  0  0  0  0
   36.8630   29.6100   37.8540 H   0  0  0  0  0  0  0  0  0  0  0  0
   36.9080   27.7560   37.9030 H   0  0  0  0  0  0  0  0  0  0  0  0
   38.4940   28.7780   39.3600 H   0  0  0  0  0  0  0  0  0  0  0  0
   38.6930   31.9710   41.0080 C   0  0  1  0  0  0  0  0  0  0  0  0
   37.4800   32.3800   40.2810 C   0  0  0  0  0  0  0  0  0  0  0  0
   38.0310   31.0190   40.0600 C   0  0  2  0  0  0  0  0  0  0  0  0
   38.5680   31.7620   42.0830 H   0  0  0  0  0  0  0  0  0  0  0  0
   36.5400   32.5200   40.8490 H   0  0  0  0  0  0  0  0  0  0  0  0
   37.6250   33.1170   39.4610 H   0  0  0  0  0  0  0  0  0  0  0  0
   38.6120   30.8120   39.1320 H   0  0  0  0  0  0  0  0  0  0  0  0
   41.2080   31.9740   41.0900 C   0  0  0  0  0  0  0  0  0  0  0  0
   40.0110   32.5570   40.6220 C   0  0  0  0  0  0  0  0  0  0  0  0
   40.0950   33.6860   39.7890 C   0  0  0  0  0  0  0  0  0  0  0  0
   41.3300   34.1610   39.4780 N   0  0  0  0  0  0  0  0  0  0  0  0
   42.4660   33.5740   39.9480 C   0  0  0  0  0  0  0  0  0  0  0  0
   42.4130   32.4750   40.7570 N   0  0  0  0  0  0  0  0  0  0  0  0
   41.0690   31.1110   41.7230 H   0  0  0  0  0  0  0  0  0  0  0  0
   39.1910   34.1440   39.4240 H   0  0  0  0  0  0  0  0  0  0  0  0
   43.4100   34.0280   39.6420 H   0  0  0  0  0  0  0  0  0  0  0  0
   37.3020   27.4800   40.4710 C   0  0  0  0  0  0  0  0  0  0  0  0
   37.5280   27.6460   41.8440 C   0  0  0  0  0  3  0  0  0  0  0  0
   37.4370   26.5020   42.6430 C   0  0  0  0  0  0  0  0  0  0  0  0
   37.6050   26.5870   43.7120 H   0  0  0  0  0  0  0  0  0  0  0  0
   37.1460   25.2630   42.1730 N   0  0  0  0  0  0  0  0  0  0  0  0
   36.9430   25.1870   40.8430 C   0  0  0  0  0  3  0  0  0  0  0  0
   37.0110   26.2360   40.0030 N   0  0  0  0  0  0  0  0  0  0  0  0
  1  2  1  6  0  0  0
  2  7  1  0  0  0  0
  3  9  1  0  0  0  0
  3  2  1  0  0  0  0
  3 10  1  0  0  0  0
  4  3  1  0  0  0  0
  5  4  1  0  0  0  0
  5  6  1  0  0  0  0
  6 15  1  6  0  0  0
  6 32  1  0  0  0  0
  6  1  1  0  0  0  0
  8  2  1  0  0  0  0
 11  4  1  0  0  0  0
 12  4  1  0  0  0  0
 13  5  1  0  0  0  0
 14  5  1  0  0  0  0
 16 19  1  1  0  0  0
 17 20  1  0  0  0  0
 17 16  1  0  0  0  0
 18 22  1  6  0  0  0
 18 17  1  0  0  0  0
 18  1  1  0  0  0  0
 18 16  1  0  0  0  0
 21 17  1  0  0  0  0
 23 29  1  0  0  0  0
 24 16  1  0  0  0  0
 24 23  2  0  0  0  0
 25 24  1  0  0  0  0
 26 25  2  0  0  0  0
 26 27  1  0  0  0  0
 27 28  2  0  0  0  0
 28 23  1  0  0  0  0
 30 25  1  0  0  0  0
 31 27  1  0  0  0  0
 32 33  1  0  0  0  0
 33 34  2  0  0  0  0
 34 35  1  0  0  0  0
 36 34  1  0  0  0  0
 37 36  2  0  0  0  0
 38 32  2  0  0  0  0
 38 37  1  0  0  0  0
M  END
>  <minimizedAffinity>
-4.82991505

$$$$

 OpenBabel03252506443D

 38 41  0  0  1  0  0  0  0  0999 V2000
   37.3430   28.7540   41.3250 N   0  0  1  0  0  0  0  0  0  0  0  0
   36.7020   28.0600   42.4450 C   0  0  0  0  0  0  0  0  0  0  0  0
   37.6960   27.5700   43.4490 C   0  0  0  0  0  0  0  0  0  0  0  0
   38.4810   26.4450   42.8180 C   0  0  0  0  0  0  0  0  0  0  0  0
   38.7630   26.7190   41.3630 C   0  0  0  0  0  0  0  0  0  0  0  0
   38.6640   28.2100   41.1160 C   0  0  2  0  0  0  0  0  0  0  0  0
   36.0950   28.8600   42.9520 H   0  0  0  0  0  0  0  0  0  0  0  0
   36.0130   27.2720   42.1350 H   0  0  0  0  0  0  0  0  0  0  0  0
   37.1120   27.1560   44.2960 H   0  0  0  0  0  0  0  0  0  0  0  0
   38.3310   28.3760   43.8200 H   0  0  0  0  0  0  0  0  0  0  0  0
   37.8430   25.5220   42.9230 H   0  0  0  0  0  0  0  0  0  0  0  0
   39.3770   26.2340   43.4210 H   0  0  0  0  0  0  0  0  0  0  0  0
   37.9860   26.2340   40.7570 H   0  0  0  0  0  0  0  0  0  0  0  0
   39.7940   26.4350   41.1280 H   0  0  0  0  0  0  0  0  0  0  0  0
   38.8460   28.3110   40.0050 H   0  0  0  0  0  0  0  0  0  0  0  0
   35.9650   29.7580   39.3930 C   0  0  1  0  0  0  0  0  0  0  0  0
   35.0870   29.0950   40.3720 C   0  0  0  0  0  0  0  0  0  0  0  0
   36.4790   28.6080   40.2040 C   0  0  2  0  0  0  0  0  0  0  0  0
   36.3340   30.7590   39.6700 H   0  0  0  0  0  0  0  0  0  0  0  0
   34.7920   29.6500   41.2840 H   0  0  0  0  0  0  0  0  0  0  0  0
   34.2790   28.4560   39.9520 H   0  0  0  0  0  0  0  0  0  0  0  0
   36.6620   27.6770   39.6210 H   0  0  0  0  0  0  0  0  0  0  0  0
   36.7200   29.8990   36.9970 C   0  0  0  0  0  0  0  0  0  0  0  0
   35.7250   29.5470   37.9340 C   0  0  0  0  0  0  0  0  0  0  0  0
   34.5220   28.9960   37.4620 C   0  0  0  0  0  0  0  0  0  0  0  0
   34.3770   28.8310   36.1200 N   0  0  0  0  0  0  0  0  0  0  0  0
   35.3580   29.1830   35.2420 C   0  0  0  0  0  0  0  0  0  0  0  0
   36.5370   29.7200   35.6750 N   0  0  0  0  0  0  0  0  0  0  0  0
   37.6160   30.3160   37.4290 H   0  0  0  0  0  0  0  0  0  0  0  0
   33.7530   28.7230   38.1630 H   0  0  0  0  0  0  0  0  0  0  0  0
   35.1480   29.0110   34.1850 H   0  0  0  0  0  0  0  0  0  0  0  0
   39.7440   28.9680   41.7660 C   0  0  0  0  0  0  0  0  0  0  0  0
   39.4360   30.3180   41.9750 C   0  0  0  0  0  3  0  0  0  0  0  0
   40.4170   31.1040   42.5890 C   0  0  0  0  0  0  0  0  0  0  0  0
   40.2180   32.1550   42.7700 H   0  0  0  0  0  0  0  0  0  0  0  0
   41.6280   30.6390   42.9860 N   0  0  0  0  0  0  0  0  0  0  0  0
   41.8480   29.3310   42.7490 C   0  0  0  0  0  3  0  0  0  0  0  0
   40.9600   28.5060   42.1650 N   0  0  0  0  0  0  0  0  0  0  0  0
  1  2  1  1  0  0  0
  2  7  1  0  0  0  0
  2  3  1  0  0  0  0
  3 10  1  0  0  0  0
  3  9  1  0  0  0  0
  4 11  1  0  0  0  0
  4 12  1  0  0  0  0
  4  3  1  0  0  0  0
  5  4  1  0  0  0  0
  6 15  1  6  0  0  0
  6  1  1  0  0  0  0
  6  5  1  0  0  0  0
  6 32  1  0  0  0  0
  8  2  1  0  0  0  0
 13  5  1  0  0  0  0
 14  5  1  0  0  0  0
 16 19  1  1  0  0  0
 16 18  1  0  0  0  0
 16 17  1  0  0  0  0
 17 20  1  0  0  0  0
 18 22  1  6  0  0  0
 18 17  1  0  0  0  0
 18  1  1  0  0  0  0
 21 17  1  0  0  0  0
 23 29  1  0  0  0  0
 23 24  1  0  0  0  0
 24 16  1  0  0  0  0
 25 24  2  0  0  0  0
 25 30  1  0  0  0  0
 26 25  1  0  0  0  0
 27 28  1  0  0  0  0
 27 26  2  0  0  0  0
 28 23  2  0  0  0  0
 31 27  1  0  0  0  0
 32 33  2  0  0  0  0
 32 38  1  0  0  0  0
 33 34  1  0  0  0  0
 34 35  1  0  0  0  0
 34 36  2  0  0  0  0
 37 36  1  0  0  0  0
 38 37  2  0  0  0  0
M  END
>  <minimizedAffinity>
-4.73153305

$$$$

 OpenBabel03252506443D

 38 41  0  0  1  0  0  0  0  0999 V2000
   39.0150   28.3390   41.6020 N   0  0  1  0  0  0  0  0  0  0  0  0
   38.8500   28.5520   43.0420 C   0  0  0  0  0  0  0  0  0  0  0  0
   38.0100   27.4910   43.6780 C   0  0  0  0  0  0  0  0  0  0  0  0
   36.5910   27.6660   43.1920 C   0  0  0  0  0  0  0  0  0  0  0  0
   36.5520   28.0670   41.7390 C   0  0  0  0  0  0  0  0  0  0  0  0
   37.8540   27.6570   41.0820 C   0  0  2  0  0  0  0  0  0  0  0  0
   39.8900   28.4350   43.4570 H   0  0  0  0  0  0  0  0  0  0  0  0
   38.5060   29.5550   43.3000 H   0  0  0  0  0  0  0  0  0  0  0  0
   38.0310   27.6830   44.7700 H   0  0  0  0  0  0  0  0  0  0  0  0
   38.4040   26.4920   43.4880 H   0  0  0  0  0  0  0  0  0  0  0  0
   36.1400   28.4780   43.8310 H   0  0  0  0  0  0  0  0  0  0  0  0
   36.0030   26.7680   43.4300 H   0  0  0  0  0  0  0  0  0  0  0  0
   36.4840   29.1610   41.6780 H   0  0  0  0  0  0  0  0  0  0  0  0
   35.7590   27.5140   41.2260 H   0  0  0  0  0  0  0  0  0  0  0  0
   37.7490   28.0320   40.0210 H   0  0  0  0  0  0  0  0  0  0  0  0
   40.5940   30.2110   40.8020 C   0  0  1  0  0  0  0  0  0  0  0  0
   39.7590   30.6750   41.9230 C   0  0  0  0  0  0  0  0  0  0  0  0
   39.2370   29.6180   41.0210 C   0  0  2  0  0  0  0  0  0  0  0  0
   41.4570   29.5780   41.0680 H   0  0  0  0  0  0  0  0  0  0  0  0
   40.0690   30.4290   42.9570 H   0  0  0  0  0  0  0  0  0  0  0  0
   39.3150   31.6890   41.8160 H   0  0  0  0  0  0  0  0  0  0  0  0
   38.4840   29.8900   40.2450 H   0  0  0  0  0  0  0  0  0  0  0  0
   40.6630   32.5020   39.7630 C   0  0  0  0  0  0  0  0  0  0  0  0
   40.7990   31.1040   39.6230 C   0  0  0  0  0  0  0  0  0  0  0  0
   41.1320   30.5840   38.3610 C   0  0  0  0  0  0  0  0  0  0  0  0
   41.3060   31.4600   37.3340 N   0  0  0  0  0  0  0  0  0  0  0  0
   41.1670   32.8040   37.5040 C   0  0  0  0  0  0  0  0  0  0  0  0
   40.8450   33.3350   38.7200 N   0  0  0  0  0  0  0  0  0  0  0  0
   40.4070   32.8300   40.7580 H   0  0  0  0  0  0  0  0  0  0  0  0
   41.2390   29.5200   38.2360 H   0  0  0  0  0  0  0  0  0  0  0  0
   41.3270   33.4240   36.6200 H   0  0  0  0  0  0  0  0  0  0  0  0
   38.0020   26.1980   40.9740 C   0  0  0  0  0  0  0  0  0  0  0  0
   39.3260   25.7800   40.7880 C   0  0  0  0  0  3  0  0  0  0  0  0
   39.5460   24.4030   40.6760 C   0  0  0  0  0  0  0  0  0  0  0  0
   40.5570   24.0380   40.5320 H   0  0  0  0  0  0  0  0  0  0  0  0
   38.5660   23.4670   40.7370 N   0  0  0  0  0  0  0  0  0  0  0  0
   37.3210   23.9490   40.9170 C   0  0  0  0  0  3  0  0  0  0  0  0
   37.0220   25.2560   41.0340 N   0  0  0  0  0  0  0  0  0  0  0  0
  1  2  1  1  0  0  0
  2  8  1  0  0  0  0
  2  7  1  0  0  0  0
  2  3  1  0  0  0  0
  3  9  1  0  0  0  0
  4 12  1  0  0  0  0
  4  3  1  0  0  0  0
  4 11  1  0  0  0  0
  5  4  1  0  0  0  0
  6 15  1  6  0  0  0
  6  1  1  0  0  0  0
  6  5  1  0  0  0  0
 10  3  1  0  0  0  0
 13  5  1  0  0  0  0
 14  5  1  0  0  0  0
 16 18  1  0  0  0  0
 16 19  1  1  0  0  0
 16 17  1  0  0  0  0
 17 20  1  0  0  0  0
 18 22  1  6  0  0  0
 18  1  1  0  0  0  0
 18 17  1  0  0  0  0
 21 17  1  0  0  0  0
 23 29  1  0  0  0  0
 24 23  1  0  0  0  0
 24 16  1  0  0  0  0
 25 24  2  0  0  0  0
 26 27  2  0  0  0  0
 26 25  1  0  0  0  0
 27 28  1  0  0  0  0
 28 23  2  0  0  0  0
 30 25  1  0  0  0  0
 31 27  1  0  0  0  0
 32 38  1  0  0  0  0
 32  6  1  0  0  0  0
 33 32  2  0  0  0  0
 34 36  2  0  0  0  0
 34 33  1  0  0  0  0
 35 34  1  0  0  0  0
 36 37  1  0  0  0  0
 37 38  2  0  0  0  0
M  END
>  <minimizedAffinity>
-4.71794987

$$$$

 OpenBabel03252506443D

 38 41  0  0  1  0  0  0  0  0999 V2000
   38.6080   31.1110   40.5920 N   0  0  1  0  0  0  0  0  0  0  0  0
   37.3050   31.7730   40.6830 C   0  0  0  0  0  0  0  0  0  0  0  0
   36.1920   30.8010   40.9140 C   0  0  0  0  0  0  0  0  0  0  0  0
   36.0180   29.9830   39.6560 C   0  0  0  0  0  0  0  0  0  0  0  0
   37.3460   29.6650   39.0190 C   0  0  0  0  0  0  0  0  0  0  0  0
   38.4340   29.7770   40.0670 C   0  0  2  0  0  0  0  0  0  0  0  0
   37.3830   32.4050   41.6110 H   0  0  0  0  0  0  0  0  0  0  0  0
   37.0950   32.4430   39.8460 H   0  0  0  0  0  0  0  0  0  0  0  0
   35.2730   31.4030   41.0690 H   0  0  0  0  0  0  0  0  0  0  0  0
   36.3650   30.1880   41.7990 H   0  0  0  0  0  0  0  0  0  0  0  0
   35.3940   30.6110   38.9590 H   0  0  0  0  0  0  0  0  0  0  0  0
   35.3950   29.1020   39.8700 H   0  0  0  0  0  0  0  0  0  0  0  0
   37.5560   30.4170   38.2470 H   0  0  0  0  0  0  0  0  0  0  0  0
   37.3520   28.6240   38.6790 H   0  0  0  0  0  0  0  0  0  0  0  0
   39.3840   29.5660   39.4930 H   0  0  0  0  0  0  0  0  0  0  0  0
   40.6490   32.6550   40.2930 C   0  0  1  0  0  0  0  0  0  0  0  0
   39.3960   33.3970   40.0740 C   0  0  0  0  0  0  0  0  0  0  0  0
   39.4350   31.9410   39.7850 C   0  0  2  0  0  0  0  0  0  0  0  0
   40.9260   32.4680   41.3440 H   0  0  0  0  0  0  0  0  0  0  0  0
   38.8430   33.7810   40.9530 H   0  0  0  0  0  0  0  0  0  0  0  0
   39.3790   34.0800   39.1970 H   0  0  0  0  0  0  0  0  0  0  0  0
   39.5090   31.5980   38.7270 H   0  0  0  0  0  0  0  0  0  0  0  0
   41.7820   33.9420   38.4520 C   0  0  0  0  0  0  0  0  0  0  0  0
   41.7960   32.8610   39.3590 C   0  0  0  0  0  0  0  0  0  0  0  0
   42.9050   31.9990   39.3600 C   0  0  0  0  0  0  0  0  0  0  0  0
   43.9130   32.2520   38.4830 N   0  0  0  0  0  0  0  0  0  0  0  0
   43.8680   33.3050   37.6200 C   0  0  0  0  0  0  0  0  0  0  0  0
   42.8020   34.1580   37.5990 N   0  0  0  0  0  0  0  0  0  0  0  0
   40.9010   34.5620   38.5060 H   0  0  0  0  0  0  0  0  0  0  0  0
   42.9310   31.1690   40.0450 H   0  0  0  0  0  0  0  0  0  0  0  0
   44.7250   33.4250   36.9550 H   0  0  0  0  0  0  0  0  0  0  0  0
   38.3470   28.7270   41.0920 C   0  0  0  0  0  0  0  0  0  0  0  0
   39.0300   29.0370   42.2750 C   0  0  0  0  0  3  0  0  0  0  0  0
   38.9930   28.0830   43.2970 C   0  0  0  0  0  0  0  0  0  0  0  0
   39.5080   28.2860   44.2310 H   0  0  0  0  0  0  0  0  0  0  0  0
   38.3430   26.8950   43.2090 N   0  0  0  0  0  0  0  0  0  0  0  0
   37.7120   26.6710   42.0400 C   0  0  0  0  0  3  0  0  0  0  0  0
   37.6980   27.5340   41.0070 N   0  0  0  0  0  0  0  0  0  0  0  0
  1  2  1  6  0  0  0
  2  3  1  0  0  0  0
  2  7  1  0  0  0  0
  3  9  1  0  0  0  0
  3 10  1  0  0  0  0
  4 12  1  0  0  0  0
  4  3  1  0  0  0  0
  5  4  1  0  0  0  0
  5  6  1  0  0  0  0
  6 15  1  6  0  0  0
  6  1  1  0  0  0  0
  6 32  1  0  0  0  0
  8  2  1  0  0  0  0
 11  4  1  0  0  0  0
 13  5  1  0  0  0  0
 14  5  1  0  0  0  0
 16 19  1  1  0  0  0
 17 16  1  0  0  0  0
 17 20  1  0  0  0  0
 18 22  1  6  0  0  0
 18 17  1  0  0  0  0
 18 16  1  0  0  0  0
 18  1  1  0  0  0  0
 21 17  1  0  0  0  0
 23 29  1  0  0  0  0
 23 24  1  0  0  0  0
 24 25  2  0  0  0  0
 24 16  1  0  0  0  0
 25 30  1  0  0  0  0
 26 25  1  0  0  0  0
 27 26  2  0  0  0  0
 28 27  1  0  0  0  0
 28 23  2  0  0  0  0
 31 27  1  0  0  0  0
 32 33  1  0  0  0  0
 33 34  2  0  0  0  0
 34 35  1  0  0  0  0
 36 34  1  0  0  0  0
 37 36  2  0  0  0  0
 38 32  2  0  0  0  0
 38 37  1  0  0  0  0
M  END
>  <minimizedAffinity>
-4.70730734

$$$$

 OpenBabel03252506443D

 38 41  0  0  1  0  0  0  0  0999 V2000
   37.0450   29.5290   38.9610 N   0  0  1  0  0  0  0  0  0  0  0  0
   38.2810   30.2390   38.6250 C   0  0  0  0  0  0  0  0  0  0  0  0
   39.0810   30.5880   39.8390 C   0  0  0  0  0  0  0  0  0  0  0  0
   38.3310   31.6540   40.6020 C   0  0  0  0  0  0  0  0  0  0  0  0
   36.8430   31.4100   40.5670 C   0  0  0  0  0  0  0  0  0  0  0  0
   36.5920   29.9470   40.2670 C   0  0  2  0  0  0  0  0  0  0  0  0
   38.8820   29.4830   38.0460 H   0  0  0  0  0  0  0  0  0  0  0  0
   38.1270   31.1030   37.9750 H   0  0  0  0  0  0  0  0  0  0  0  0
   40.0340   31.0250   39.4760 H   0  0  0  0  0  0  0  0  0  0  0  0
   39.3050   29.7090   40.4450 H   0  0  0  0  0  0  0  0  0  0  0  0
   38.5760   32.6310   40.0960 H   0  0  0  0  0  0  0  0  0  0  0  0
   38.7500   31.7510   41.6130 H   0  0  0  0  0  0  0  0  0  0  0  0
   36.4100   31.9930   39.7440 H   0  0  0  0  0  0  0  0  0  0  0  0
   36.4170   31.6000   41.5570 H   0  0  0  0  0  0  0  0  0  0  0  0
   35.4650   29.8720   40.2190 H   0  0  0  0  0  0  0  0  0  0  0  0
   35.4280   28.7430   37.1160 C   0  0  1  0  0  0  0  0  0  0  0  0
   36.5600   29.4850   36.5370 C   0  0  0  0  0  0  0  0  0  0  0  0
   36.1180   29.8030   37.9180 C   0  0  2  0  0  0  0  0  0  0  0  0
   35.6280   27.6980   37.4060 H   0  0  0  0  0  0  0  0  0  0  0  0
   37.5140   28.9510   36.3610 H   0  0  0  0  0  0  0  0  0  0  0  0
   36.3070   30.2270   35.7480 H   0  0  0  0  0  0  0  0  0  0  0  0
   35.5070   30.7190   38.0960 H   0  0  0  0  0  0  0  0  0  0  0  0
   33.8140   29.2080   35.2420 C   0  0  0  0  0  0  0  0  0  0  0  0
   34.0450   29.0130   36.6210 C   0  0  0  0  0  0  0  0  0  0  0  0
   32.9510   29.0750   37.5010 C   0  0  0  0  0  0  0  0  0  0  0  0
   31.7210   29.3230   36.9760 N   0  0  0  0  0  0  0  0  0  0  0  0
   31.5330   29.5060   35.6390 C   0  0  0  0  0  0  0  0  0  0  0  0
   32.5790   29.4500   34.7630 N   0  0  0  0  0  0  0  0  0  0  0  0
   34.6970   29.1470   34.6260 H   0  0  0  0  0  0  0  0  0  0  0  0
   33.1100   28.9300   38.5550 H   0  0  0  0  0  0  0  0  0  0  0  0
   30.5090   29.6980   35.3150 H   0  0  0  0  0  0  0  0  0  0  0  0
   37.0030   29.0610   41.3660 C   0  0  0  0  0  0  0  0  0  0  0  0
   37.0580   27.7080   41.0070 C   0  0  0  0  0  3  0  0  0  0  0  0
   37.4420   26.8040   42.0030 C   0  0  0  0  0  0  0  0  0  0  0  0
   37.4980   25.7470   41.7660 H   0  0  0  0  0  0  0  0  0  0  0  0
   37.7590   27.1580   43.2740 N   0  0  0  0  0  0  0  0  0  0  0  0
   37.6810   28.4760   43.5400 C   0  0  0  0  0  3  0  0  0  0  0  0
   37.3210   29.4120   42.6420 N   0  0  0  0  0  0  0  0  0  0  0  0
  1  2  1  6  0  0  0
  1  6  1  0  0  0  0
  2  3  1  0  0  0  0
  3 10  1  0  0  0  0
  3  4  1  0  0  0  0
  4 12  1  0  0  0  0
  5  4  1  0  0  0  0
  5 14  1  0  0  0  0
  6 15  1  6  0  0  0
  6  5  1  0  0  0  0
  6 32  1  0  0  0  0
  7  2  1  0  0  0  0
  8  2  1  0  0  0  0
  9  3  1  0  0  0  0
 11  4  1  0  0  0  0
 13  5  1  0  0  0  0
 16 19  1  1  0  0  0
 16 18  1  0  0  0  0
 17 16  1  0  0  0  0
 17 18  1  0  0  0  0
 18 22  1  1  0  0  0
 18  1  1  0  0  0  0
 20 17  1  0  0  0  0
 21 17  1  0  0  0  0
 23 24  1  0  0  0  0
 24 16  1  0  0  0  0
 24 25  2  0  0  0  0
 25 30  1  0  0  0  0
 26 25  1  0  0  0  0
 27 26  2  0  0  0  0
 28 23  2  0  0  0  0
 28 27  1  0  0  0  0
 29 23  1  0  0  0  0
 31 27  1  0  0  0  0
 32 38  1  0  0  0  0
 33 32  2  0  0  0  0
 33 34  1  0  0  0  0
 34 36  2  0  0  0  0
 35 34  1  0  0  0  0
 36 37  1  0  0  0  0
 38 37  2  0  0  0  0
M  END
>  <minimizedAffinity>
-4.68793678

$$$$

 OpenBabel03252506443D

 38 41  0  0  1  0  0  0  0  0999 V2000
   39.0240   26.8510   41.9760 N   0  0  1  0  0  0  0  0  0  0  0  0
   38.0590   25.8350   42.4030 C   0  0  0  0  0  0  0  0  0  0  0  0
   36.6590   26.3600   42.4280 C   0  0  0  0  0  0  0  0  0  0  0  0
   36.5540   27.3570   43.5560 C   0  0  0  0  0  0  0  0  0  0  0  0
   37.8070   28.1870   43.6760 C   0  0  0  0  0  0  0  0  0  0  0  0
   38.5430   28.1590   42.3530 C   0  0  2  0  0  0  0  0  0  0  0  0
   38.1010   25.0570   41.5910 H   0  0  0  0  0  0  0  0  0  0  0  0
   38.3270   25.3440   43.3410 H   0  0  0  0  0  0  0  0  0  0  0  0
   36.0010   25.4980   42.6610 H   0  0  0  0  0  0  0  0  0  0  0  0
   36.3640   26.7760   41.4640 H   0  0  0  0  0  0  0  0  0  0  0  0
   36.3980   26.7520   44.4940 H   0  0  0  0  0  0  0  0  0  0  0  0
   35.6300   27.9450   43.4480 H   0  0  0  0  0  0  0  0  0  0  0  0
   38.4630   27.7260   44.4260 H   0  0  0  0  0  0  0  0  0  0  0  0
   37.5400   29.2330   43.8590 H   0  0  0  0  0  0  0  0  0  0  0  0
   39.4770   28.7640   42.5510 H   0  0  0  0  0  0  0  0  0  0  0  0
   41.3490   25.7470   41.8560 C   0  0  1  0  0  0  0  0  0  0  0  0
   40.4980   25.0660   42.8450 C   0  0  0  0  0  0  0  0  0  0  0  0
   40.2710   26.5060   42.5660 C   0  0  2  0  0  0  0  0  0  0  0  0
   41.1610   25.4990   40.7980 H   0  0  0  0  0  0  0  0  0  0  0  0
   39.7750   24.3050   42.4920 H   0  0  0  0  0  0  0  0  0  0  0  0
   40.9800   24.8140   43.8150 H   0  0  0  0  0  0  0  0  0  0  0  0
   40.6430   27.2650   43.2930 H   0  0  0  0  0  0  0  0  0  0  0  0
   43.3580   25.4750   43.3460 C   0  0  0  0  0  0  0  0  0  0  0  0
   42.7720   26.0470   42.1960 C   0  0  0  0  0  0  0  0  0  0  0  0
   43.5560   26.8900   41.3900 C   0  0  0  0  0  0  0  0  0  0  0  0
   44.8450   27.1130   41.7620 N   0  0  0  0  0  0  0  0  0  0  0  0
   45.3800   26.5460   42.8790 C   0  0  0  0  0  0  0  0  0  0  0  0
   44.6400   25.7220   43.6790 N   0  0  0  0  0  0  0  0  0  0  0  0
   42.7000   24.8400   43.9170 H   0  0  0  0  0  0  0  0  0  0  0  0
   43.1240   27.3340   40.5100 H   0  0  0  0  0  0  0  0  0  0  0  0
   46.4230   26.7850   43.0940 H   0  0  0  0  0  0  0  0  0  0  0  0
   37.8250   28.8730   41.2870 C   0  0  0  0  0  0  0  0  0  0  0  0
   37.1970   30.0480   41.7220 C   0  0  0  0  0  3  0  0  0  0  0  0
   36.4930   30.7820   40.7620 C   0  0  0  0  0  0  0  0  0  0  0  0
   35.9930   31.6990   41.0580 H   0  0  0  0  0  0  0  0  0  0  0  0
   36.3860   30.4280   39.4570 N   0  0  0  0  0  0  0  0  0  0  0  0
   37.0170   29.2860   39.1180 C   0  0  0  0  0  3  0  0  0  0  0  0
   37.7150   28.5210   39.9770 N   0  0  0  0  0  0  0  0  0  0  0  0
  1  6  1  0  0  0  0
  1  2  1  1  0  0  0
  1 18  1  0  0  0  0
  2  3  1  0  0  0  0
  2  8  1  0  0  0  0
  3  9  1  0  0  0  0
  3  4  1  0  0  0  0
  4  5  1  0  0  0  0
  4 11  1  0  0  0  0
  5 14  1  0  0  0  0
  5 13  1  0  0  0  0
  6 15  1  1  0  0  0
  6  5  1  0  0  0  0
  7  2  1  0  0  0  0
 10  3  1  0  0  0  0
 12  4  1  0  0  0  0
 16 19  1  6  0  0  0
 16 24  1  0  0  0  0
 16 18  1  0  0  0  0
 16 17  1  0  0  0  0
 17 21  1  0  0  0  0
 18 17  1  0  0  0  0
 18 22  1  1  0  0  0
 20 17  1  0  0  0  0
 23 28  1  0  0  0  0
 23 29  1  0  0  0  0
 24 23  2  0  0  0  0
 25 26  2  0  0  0  0
 25 24  1  0  0  0  0
 26 27  1  0  0  0  0
 27 31  1  0  0  0  0
 27 28  2  0  0  0  0
 30 25  1  0  0  0  0
 32 33  1  0  0  0  0
 32  6  1  0  0  0  0
 34 35  1  0  0  0  0
 34 33  2  0  0  0  0
 36 34  1  0  0  0  0
 37 36  2  0  0  0  0
 37 38  1  0  0  0  0
 38 32  2  0  0  0  0
M  END
>  <minimizedAffinity>
-4.64917469

$$$$
