
 OpenBabel03242517133D

 21 22  0  0  0  0  0  0  0  0999 V2000
   44.0240   35.3360   41.7160 C   0  0  0  0  0  3  0  0  0  0  0  0
   42.9520   34.8990   41.0950 C   0  0  0  0  0  3  0  0  0  0  0  0
   44.2920   35.8060   44.1600 C   0  0  0  0  0  0  0  0  0  0  0  0
   44.4540   34.9770   43.0530 C   0  0  0  0  0  0  0  0  0  0  0  0
   45.0590   33.7470   43.2570 C   0  0  0  0  0  0  0  0  0  0  0  0
   45.4690   33.3970   44.5140 N   0  0  0  0  0  0  0  0  0  0  0  0
   45.2920   34.2360   45.5660 C   0  0  0  0  0  0  0  0  0  0  0  0
   44.7040   35.4340   45.3760 N   0  0  0  0  0  0  0  0  0  0  0  0
   43.8140   36.7550   43.9490 H   0  0  0  0  0  0  0  0  0  0  0  0
   45.2320   33.0240   42.4550 H   0  0  0  0  0  0  0  0  0  0  0  0
   45.6030   33.9910   46.5730 H   0  0  0  0  0  0  0  0  0  0  0  0
   42.5950   35.3320   39.7110 C   0  0  0  0  0  0  0  0  0  0  0  0
   43.3620   34.9020   39.0380 H   0  0  0  0  0  0  0  0  0  0  0  0
   42.6110   36.4390   39.6690 H   0  0  0  0  0  0  0  0  0  0  0  0
   41.2260   34.9130   39.3440 C   0  0  0  0  0  0  0  0  0  0  0  0
   40.2430   34.6830   40.3010 C   0  0  0  0  0  3  0  0  0  0  0  0
   38.9600   34.2930   40.0180 C   0  0  0  0  0  0  0  0  0  0  0  0
   38.2600   34.1360   40.8040 H   0  0  0  0  0  0  0  0  0  0  0  0
   38.6250   34.1190   38.7330 N   0  0  0  0  0  0  0  0  0  0  0  0
   39.5670   34.3360   37.7810 C   0  0  0  0  0  3  0  0  0  0  0  0
   40.8390   34.7230   38.0640 N   0  0  0  0  0  0  0  0  0  0  0  0
  1  4  1  0  0  0  0
  2  1  2  0  0  0  0
  3  8  1  0  0  0  0
  4  5  1  0  0  0  0
  4  3  2  0  0  0  0
  5  6  2  0  0  0  0
  6  7  1  0  0  0  0
  7 11  1  0  0  0  0
  8  7  2  0  0  0  0
  9  3  1  0  0  0  0
 10  5  1  0  0  0  0
 12  2  1  0  0  0  0
 13 12  1  0  0  0  0
 14 12  1  0  0  0  0
 15 12  1  0  0  0  0
 15 16  1  0  0  0  0
 17 16  2  0  0  0  0
 17 18  1  0  0  0  0
 19 17  1  0  0  0  0
 20 21  1  0  0  0  0
 20 19  2  0  0  0  0
 21 15  2  0  0  0  0
M  END
>  <minimizedAffinity>
-4.62589693

>  <minimizedRMSD>
1.56961489

$$$$
