
 OpenBabel03252506373D

 42 45  0  0  1  0  0  0  0  0999 V2000
   44.5180   35.4830   45.1440 C   0  0  0  0  0  0  0  0  0  0  0  0
   45.1810   35.4860   43.9050 C   0  0  0  0  0  0  0  0  0  0  0  0
   46.1140   34.5400   43.6520 C   0  0  0  0  0  0  0  0  0  0  0  0
   46.3540   33.6300   44.6310 N   0  0  0  0  0  0  0  0  0  0  0  0
   45.7250   33.6350   45.7960 C   0  0  0  0  0  0  0  0  0  0  0  0
   44.8040   34.5550   46.0680 N   0  0  0  0  0  0  0  0  0  0  0  0
   46.0590   32.6250   46.7640 N   0  0  0  0  0  0  0  0  0  0  0  0
   45.3110   32.3680   47.9420 C   0  0  0  0  0  0  0  0  0  0  0  0
   46.3800   32.0300   48.9660 C   0  0  0  0  0  0  0  0  0  0  0  0
   47.6720   31.9520   48.2100 C   0  0  0  0  0  0  0  0  0  0  0  0
   47.1950   31.7330   46.7750 C   0  0  1  0  0  0  0  0  0  0  0  0
   43.7750   36.2560   45.3140 H   0  0  0  0  0  0  0  0  0  0  0  0
   46.6430   34.5130   42.7100 H   0  0  0  0  0  0  0  0  0  0  0  0
   44.4890   31.7350   48.0210 H   0  0  0  0  0  0  0  0  0  0  0  0
   44.9420   33.3830   48.2990 H   0  0  0  0  0  0  0  0  0  0  0  0
   46.3950   32.6700   49.8470 H   0  0  0  0  0  0  0  0  0  0  0  0
   46.1450   30.9980   49.3600 H   0  0  0  0  0  0  0  0  0  0  0  0
   48.2610   31.1060   48.5700 H   0  0  0  0  0  0  0  0  0  0  0  0
   48.1570   32.9460   48.3140 H   0  0  0  0  0  0  0  0  0  0  0  0
   47.9840   32.0930   46.0940 H   0  0  0  0  0  0  0  0  0  0  0  0
   44.8260   36.5100   42.9580 N   0  0  0  0  0  0  0  0  0  0  0  0
   45.1850   36.3980   41.9800 H   0  0  0  0  0  0  0  0  0  0  0  0
   44.2460   37.3110   43.2460 H   0  0  0  0  0  0  0  0  0  0  0  0
   46.7150   30.0350   46.5770 S   0  0  0  0  0  0  0  0  0  0  0  0
   45.5500   30.5180   43.4860 O   0  0  0  0  0  0  0  0  0  0  0  0
   44.9680   29.9650   44.4350 C   0  0  0  0  0  0  0  0  0  0  0  0
   45.1380   29.7290   45.8940 C   0  0  1  0  0  0  0  0  0  0  0  0
   44.6300   28.3160   46.0270 C   0  0  0  0  0  0  0  0  0  0  0  0
   43.2780   28.5100   45.3380 C   0  0  0  0  0  0  0  0  0  0  0  0
   43.7170   29.2960   44.1830 N   0  0  0  0  0  0  0  0  0  0  0  0
   44.2640   30.3060   46.2920 H   0  0  0  0  0  0  0  0  0  0  0  0
   45.2080   27.6190   45.3840 H   0  0  0  0  0  0  0  0  0  0  0  0
   44.5350   27.9800   47.0630 H   0  0  0  0  0  0  0  0  0  0  0  0
   42.5610   29.0390   45.9580 H   0  0  0  0  0  0  0  0  0  0  0  0
   42.9250   27.5310   44.9610 H   0  0  0  0  0  0  0  0  0  0  0  0
   42.9090   29.3220   42.9920 C   0  0  0  0  0  0  0  0  0  0  0  0
   41.9290   30.2070   42.6590 C   0  0  0  0  0  3  0  0  0  0  0  0
   41.2980   30.0090   41.4450 C   0  0  0  0  0  0  0  0  0  0  0  0
   40.5110   30.7340   41.1950 H   0  0  0  0  0  0  0  0  0  0  0  0
   41.6130   29.0000   40.6120 N   0  0  0  0  0  0  0  0  0  0  0  0
   42.5850   28.1340   40.9600 C   0  0  0  0  0  3  0  0  0  0  0  0
   43.2090   28.3080   42.1310 N   0  0  0  0  0  0  0  0  0  0  0  0
  1 12  1  0  0  0  0
  1  6  1  0  0  0  0
  2  1  2  0  0  0  0
  3  2  1  0  0  0  0
  3  4  2  0  0  0  0
  4  5  1  0  0  0  0
  5  6  2  0  0  0  0
  5  7  1  0  0  0  0
  7 11  1  0  0  0  0
  7  8  1  0  0  0  0
  8 14  1  0  0  0  0
  8 15  1  0  0  0  0
  8  9  1  0  0  0  0
  9 17  1  0  0  0  0
  9 16  1  0  0  0  0
 10 19  1  0  0  0  0
 10 18  1  0  0  0  0
 10  9  1  0  0  0  0
 11 20  1  6  0  0  0
 11 10  1  0  0  0  0
 13  3  1  0  0  0  0
 21 23  1  0  0  0  0
 21  2  1  0  0  0  0
 22 21  1  0  0  0  0
 24 11  1  0  0  0  0
 25 26  2  0  0  0  0
 26 27  1  0  0  0  0
 27 28  1  0  0  0  0
 27 31  1  1  0  0  0
 27 24  1  0  0  0  0
 28 33  1  0  0  0  0
 29 34  1  0  0  0  0
 29 28  1  0  0  0  0
 30 26  1  0  0  0  0
 30 29  1  0  0  0  0
 32 28  1  0  0  0  0
 35 29  1  0  0  0  0
 36 30  1  0  0  0  0
 37 36  1  0  0  0  0
 38 37  2  0  0  0  0
 39 38  1  0  0  0  0
 40 41  2  0  0  0  0
 40 38  1  0  0  0  0
 41 42  1  0  0  0  0
 42 36  2  0  0  0  0
M  END
>  <minimizedAffinity>
-5.27296257

>  <minimizedRMSD>
0.106113352

$$$$
