
     RDKit          3D

 35 37  0  0  0  0  0  0  0  0999 V2000
   48.1468   33.5104   42.5714 C   0  0  1  0  0  0  0  0  0  0  0  0
   46.6783   33.7249   42.2887 C   0  0  2  0  0  0  0  0  0  0  0  0
   46.4756   34.6292   41.2658 O   0  0  0  0  0  0  0  0  0  0  0  0
   46.8780   33.9949   40.1010 C   0  0  0  0  0  0  0  0  0  0  0  0
   48.3853   33.9283   40.0981 C   0  0  2  0  0  0  0  0  0  0  0  0
   48.9863   33.3885   41.3463 C   0  0  2  0  0  0  0  0  0  0  0  0
   44.5847   35.8104   44.6637 C   0  0  0  0  0  0  0  0  0  0  0  0
   45.2185   35.3893   43.4847 C   0  0  0  0  0  0  0  0  0  0  0  0
   45.9868   34.1903   43.5014 C   0  0  0  0  0  0  0  0  0  0  0  0
   46.0621   33.5173   44.6704 N   0  0  0  0  0  0  0  0  0  0  0  0
   45.4413   33.9456   45.7936 C   0  0  0  0  0  0  0  0  0  0  0  0
   44.7052   35.0871   45.7924 N   0  0  0  0  0  0  0  0  0  0  0  0
   48.6517   34.4539   43.4746 O   0  0  0  0  0  0  0  0  0  0  0  0
   48.8155   35.2362   39.8467 O   0  0  0  0  0  0  0  0  0  0  0  0
   49.4648   32.0686   41.1781 O   0  0  0  0  0  0  0  0  0  0  0  0
   48.2006   32.5277   43.1299 H   0  0  0  0  0  0  0  0  0  0  0  0
   46.2831   32.7335   41.9796 H   0  0  0  0  0  0  0  0  0  0  0  0
   46.5077   32.9413   40.0581 H   0  0  0  0  0  0  0  0  0  0  0  0
   46.5834   34.5624   39.1851 H   0  0  0  0  0  0  0  0  0  0  0  0
   48.7022   33.3194   39.2244 H   0  0  0  0  0  0  0  0  0  0  0  0
   49.9232   33.9840   41.5368 H   0  0  0  0  0  0  0  0  0  0  0  0
   44.0351   36.7311   44.5182 H   0  0  0  0  0  0  0  0  0  0  0  0
   45.1844   35.8961   42.5314 H   0  0  0  0  0  0  0  0  0  0  0  0
   45.5141   33.3919   46.7216 H   0  0  0  0  0  0  0  0  0  0  0  0
   49.4297   34.1403   43.9613 H   0  0  0  0  0  0  0  0  0  0  0  0
   49.4394   35.2804   39.0795 H   0  0  0  0  0  0  0  0  0  0  0  0
   50.8168   31.7494   41.2603 C   0  0  0  0  0  0  0  0  0  0  0  0
   51.3086   30.5331   41.6894 C   0  0  0  0  0  0  0  0  0  0  0  0
   52.6772   30.3403   41.7253 C   0  0  0  0  0  0  0  0  0  0  0  0
   53.0610   29.3918   42.0600 H   0  0  0  0  0  0  0  0  0  0  0  0
   53.5511   31.3091   41.3521 N   0  0  0  0  0  0  0  0  0  0  0  0
   53.0367   32.4831   40.9390 C   0  0  0  0  0  0  0  0  0  0  0  0
   51.7200   32.7046   40.8913 N   0  0  0  0  0  0  0  0  0  0  0  0
   50.5863   29.7847   41.9790 H   0  0  0  0  0  0  0  0  0  0  0  0
   53.7294   33.2491   40.6438 H   0  0  0  0  0  0  0  0  0  0  0  0
  1 13  1  0
  2  1  1  0
  2  9  1  0
  3  2  1  0
  4  3  1  0
  5 14  1  0
  5  4  1  0
  5  6  1  0
  6 15  1  0
  6  1  1  0
  7 12  2  0
  8  9  2  0
  8  7  1  0
  9 10  1  0
 10 11  2  0
 12 11  1  0
  1 16  1  1
  2 17  1  6
  4 18  1  0
  4 19  1  0
  5 20  1  6
  6 21  1  1
  7 22  1  0
  8 23  1  0
 11 24  1  0
 13 25  1  0
 14 26  1  0
 27 28  2  0
 28 29  1  0
 29 30  1  0
 29 31  2  0
 31 32  1  0
 32 33  2  0
 33 27  1  0
 28 34  1  0
 32 35  1  0
 15 27  1  0
M  ISO  8  16  13  17  13  18  13  19  13  20  13  21  13  22  14  23  14
M  ISO  4  24  14  25   3  26   3  30  14
M  END
>  <DihAtoms>  (1) 
5,14,26,27

>  <DihDeg>  (1) 
179.99665640567986

$$$$
