
 OpenBabel03252500183D

 18 19  0  0  0  0  0  0  0  0999 V2000
   44.6000   36.0590   44.3980 C   0  0  0  0  0  0  0  0  0  0  0  0
   45.4410   35.7260   43.3260 C   0  0  0  0  0  0  0  0  0  0  0  0
   46.2350   34.5950   43.4870 C   0  0  0  0  0  0  0  0  0  0  0  0
   46.1710   33.8760   44.6360 N   0  0  0  0  0  0  0  0  0  0  0  0
   45.3350   34.2460   45.6420 C   0  0  0  0  0  0  0  0  0  0  0  0
   44.5530   35.3390   45.5130 N   0  0  0  0  0  0  0  0  0  0  0  0
   45.2410   33.5200   46.8550 N   0  0  0  0  0  0  0  0  0  0  0  0
   43.9840   36.9480   44.2570 H   0  0  0  0  0  0  0  0  0  0  0  0
   45.4630   36.3150   42.4420 H   0  0  0  0  0  0  0  0  0  0  0  0
   45.6000   33.7060   47.8290 H   0  0  0  0  0  0  0  0  0  0  0  0
   44.7150   32.6210   46.7860 H   0  0  0  0  0  0  0  0  0  0  0  0
   47.1240   34.2190   42.3910 C   0  0  0  0  0  0  0  0  0  0  0  0
   48.3540   33.6480   42.6440 C   0  0  0  0  0  0  0  0  0  0  0  0
   49.0860   33.3450   41.5390 C   0  0  0  0  0  0  0  0  0  0  0  0
   50.0750   32.8890   41.6470 H   0  0  0  0  0  0  0  0  0  0  0  0
   48.6740   33.5720   40.2770 N   0  0  0  0  0  0  0  0  0  0  0  0
   47.4530   34.1380   40.0610 C   0  0  0  0  0  0  0  0  0  0  0  0
   46.6860   34.4570   41.1390 N   0  0  0  0  0  0  0  0  0  0  0  0
  1  6  1  0  0  0  0
  2  3  1  0  0  0  0
  2  1  2  0  0  0  0
  3  4  2  0  0  0  0
  4  5  1  0  0  0  0
  5  7  1  0  0  0  0
  6  5  2  0  0  0  0
  7 10  1  0  0  0  0
  8  1  1  0  0  0  0
  9  2  1  0  0  0  0
 11  7  1  0  0  0  0
 12 13  1  0  0  0  0
 12  3  1  0  0  0  0
 14 15  1  0  0  0  0
 14 13  2  0  0  0  0
 16 14  1  0  0  0  0
 17 16  2  0  0  0  0
 17 18  1  0  0  0  0
 18 12  2  0  0  0  0
M  END
>  <minimizedAffinity>
-4.67435265

>  <minimizedRMSD>
0.493164539

$$$$
