
 OpenBabel03252506493D

 27 29  0  0  0  0  0  0  0  0999 V2000
   44.3830   34.5570   42.1090 C   0  0  0  0  0  0  0  0  0  0  0  0
   44.7200   33.5430   43.0070 C   0  0  0  0  0  0  0  0  0  0  0  0
   45.1850   33.9130   44.2790 C   0  0  0  0  0  0  0  0  0  0  0  0
   45.2850   35.2310   44.5710 N   0  0  0  0  0  0  0  0  0  0  0  0
   44.9500   36.1870   43.6750 C   0  0  0  0  0  0  0  0  0  0  0  0
   44.4970   35.8640   42.4390 N   0  0  0  0  0  0  0  0  0  0  0  0
   44.6360   32.4930   42.7660 H   0  0  0  0  0  0  0  0  0  0  0  0
   45.4410   33.1120   44.9630 H   0  0  0  0  0  0  0  0  0  0  0  0
   45.0770   37.5910   44.0430 C   0  0  0  0  0  0  0  0  0  0  0  0
   45.3330   38.5440   43.0920 C   0  0  0  0  0  3  0  0  0  0  0  0
   45.4450   39.8770   43.5020 C   0  0  0  0  0  0  0  0  0  0  0  0
   45.6480   40.6300   42.7500 H   0  0  0  0  0  0  0  0  0  0  0  0
   45.3050   40.2260   44.8120 N   0  0  0  0  0  0  0  0  0  0  0  0
   45.0550   39.2350   45.6920 C   0  0  0  0  0  3  0  0  0  0  0  0
   44.9350   37.9210   45.3550 N   0  0  0  0  0  0  0  0  0  0  0  0
   43.7990   34.0050   40.5130 S   0  0  0  0  0  0  0  0  0  0  0  0
   41.6780   31.8470   41.5540 Cl  0  0  0  0  0  0  0  0  0  0  0  0
   41.0710   33.2860   40.7340 C   0  0  0  0  0  0  0  0  0  0  0  0
   42.0440   34.1500   40.3250 C   0  0  0  0  0  0  0  0  0  0  0  0
   41.6290   35.3160   39.6670 C   0  0  0  0  0  0  0  0  0  0  0  0
   40.2710   35.5330   39.4650 C   0  0  0  0  0  0  0  0  0  0  0  0
   39.2960   34.6560   39.8800 C   0  0  0  0  0  0  0  0  0  0  0  0
   39.7330   33.5040   40.5320 C   0  0  0  0  0  0  0  0  0  0  0  0
   38.5920   32.3050   41.1120 Cl  0  0  0  0  0  0  0  0  0  0  0  0
   42.3140   36.0670   39.3020 H   0  0  0  0  0  0  0  0  0  0  0  0
   39.9290   36.4350   38.9540 H   0  0  0  0  0  0  0  0  0  0  0  0
   38.2430   34.8390   39.7150 H   0  0  0  0  0  0  0  0  0  0  0  0
  1  6  2  0  0  0  0
  1  2  1  0  0  0  0
  2  3  2  0  0  0  0
  3  4  1  0  0  0  0
  3  8  1  0  0  0  0
  5  9  1  0  0  0  0
  5  4  2  0  0  0  0
  6  5  1  0  0  0  0
  7  2  1  0  0  0  0
  9 15  1  0  0  0  0
 10 11  1  0  0  0  0
 10  9  2  0  0  0  0
 11 13  2  0  0  0  0
 12 11  1  0  0  0  0
 13 14  1  0  0  0  0
 15 14  2  0  0  0  0
 16  1  1  0  0  0  0
 18 17  1  0  0  0  0
 19 16  1  0  0  0  0
 19 18  2  0  0  0  0
 20 19  1  0  0  0  0
 21 20  2  0  0  0  0
 21 22  1  0  0  0  0
 22 23  2  0  0  0  0
 23 18  1  0  0  0  0
 23 24  1  0  0  0  0
 25 20  1  0  0  0  0
 26 21  1  0  0  0  0
 27 22  1  0  0  0  0
M  END
>  <minimizedAffinity>
-3.35209417

>  <minimizedRMSD>
1.54108882

$$$$
