
 OpenBabel03252507223D

 45 48  0  0  1  0  0  0  0  0999 V2000
   47.1080   33.1940   43.0830 C   0  0  0  0  0  0  0  0  0  0  0  0
   48.3040   33.1870   43.4920 O   0  0  0  0  0  0  0  0  0  0  0  0
   46.6180   32.3290   42.0720 N   0  0  0  0  0  0  0  0  0  0  0  0
   45.3640   31.5600   42.0060 C   0  0  0  0  0  0  0  0  0  0  0  0
   44.6550   31.8630   40.6910 C   0  0  0  0  0  0  0  0  0  0  0  0
   45.4750   31.3870   39.5400 C   0  0  0  0  0  0  0  0  0  0  0  0
   46.8850   31.0800   40.0070 C   0  0  0  0  0  0  0  0  0  0  0  0
   47.4320   32.1240   40.9110 C   0  0  2  0  0  0  0  0  0  0  0  0
   44.7020   31.9200   42.8260 H   0  0  0  0  0  0  0  0  0  0  0  0
   45.5680   30.4770   42.0330 H   0  0  0  0  0  0  0  0  0  0  0  0
   44.4940   32.9560   40.6340 H   0  0  0  0  0  0  0  0  0  0  0  0
   43.6640   31.3740   40.7640 H   0  0  0  0  0  0  0  0  0  0  0  0
   45.4670   32.0460   38.6530 H   0  0  0  0  0  0  0  0  0  0  0  0
   45.0490   30.4150   39.2060 H   0  0  0  0  0  0  0  0  0  0  0  0
   47.5090   31.0880   39.0690 H   0  0  0  0  0  0  0  0  0  0  0  0
   46.9720   30.0770   40.4350 H   0  0  0  0  0  0  0  0  0  0  0  0
   47.3740   33.0990   40.3350 H   0  0  0  0  0  0  0  0  0  0  0  0
   45.8250   35.2680   42.9310 C   0  0  0  0  0  0  0  0  0  0  0  0
   46.2050   34.1390   43.6920 C   0  0  0  0  0  0  0  0  0  0  0  0
   45.7120   33.9640   44.9780 C   0  0  0  0  0  0  0  0  0  0  0  0
   44.8680   34.9090   45.4550 N   0  0  0  0  0  0  0  0  0  0  0  0
   44.4900   36.0020   44.7380 C   0  0  0  0  0  0  0  0  0  0  0  0
   44.9790   36.1600   43.4870 N   0  0  0  0  0  0  0  0  0  0  0  0
   46.2330   35.3660   41.9350 H   0  0  0  0  0  0  0  0  0  0  0  0
   43.8120   36.7210   45.1780 H   0  0  0  0  0  0  0  0  0  0  0  0
   46.1260   32.8040   45.7250 C   0  0  0  0  0  0  0  0  0  0  0  0
   45.6530   31.5740   45.4170 C   0  0  0  0  0  0  0  0  0  0  0  0
   46.0720   30.4840   46.1530 C   0  0  0  0  0  0  0  0  0  0  0  0
   46.9700   30.5900   47.2090 C   0  0  0  0  0  0  0  0  0  0  0  0
   47.4250   31.8680   47.4830 C   0  0  0  0  0  0  0  0  0  0  0  0
   47.0000   32.9060   46.7530 N   0  0  0  0  0  0  0  0  0  0  0  0
   44.9520   31.3460   44.6290 H   0  0  0  0  0  0  0  0  0  0  0  0
   45.7200   29.4820   45.9420 H   0  0  0  0  0  0  0  0  0  0  0  0
   47.3020   29.7380   47.7890 H   0  0  0  0  0  0  0  0  0  0  0  0
   48.1260   32.0190   48.2940 H   0  0  0  0  0  0  0  0  0  0  0  0
   48.8800   31.9030   41.1790 C   0  0  0  0  0  0  0  0  0  0  0  0
   49.3870   32.5470   41.8880 H   0  0  0  0  0  0  0  0  0  0  0  0
   49.0080   30.8830   41.5960 H   0  0  0  0  0  0  0  0  0  0  0  0
   49.6700   31.8620   39.8750 C   0  0  0  0  0  0  0  0  0  0  0  0
   50.9120   31.2560   39.8050 C   0  0  0  0  0  0  0  0  0  0  0  0
   51.6090   31.2450   38.6030 C   0  0  0  0  0  0  0  0  0  0  0  0
   52.5920   30.7670   38.5420 H   0  0  0  0  0  0  0  0  0  0  0  0
   51.0670   31.8240   37.5150 N   0  0  0  0  0  0  0  0  0  0  0  0
   49.8580   32.4020   37.6250 C   0  0  0  0  0  0  0  0  0  0  0  0
   49.1510   32.4340   38.7700 N   0  0  0  0  0  0  0  0  0  0  0  0
  1  2  2  0  0  0  0
  1 19  1  0  0  0  0
  3  1  1  0  0  0  0
  4 10  1  0  0  0  0
  4  3  1  0  0  0  0
  4  9  1  0  0  0  0
  5 12  1  0  0  0  0
  5  4  1  0  0  0  0
  6  7  1  0  0  0  0
  6  5  1  0  0  0  0
  7 16  1  0  0  0  0
  7  8  1  0  0  0  0
  8 17  1  6  0  0  0
  8 36  1  0  0  0  0
  8  3  1  0  0  0  0
 11  5  1  0  0  0  0
 13  6  1  0  0  0  0
 14  6  1  0  0  0  0
 15  7  1  0  0  0  0
 18 23  2  0  0  0  0
 18 19  1  0  0  0  0
 19 20  2  0  0  0  0
 20 21  1  0  0  0  0
 20 26  1  0  0  0  0
 22 25  1  0  0  0  0
 22 21  2  0  0  0  0
 23 22  1  0  0  0  0
 24 18  1  0  0  0  0
 26 31  1  0  0  0  0
 27 26  2  0  0  0  0
 27 28  1  0  0  0  0
 28 29  2  0  0  0  0
 29 30  1  0  0  0  0
 29 34  1  0  0  0  0
 30 35  1  0  0  0  0
 31 30  2  0  0  0  0
 32 27  1  0  0  0  0
 33 28  1  0  0  0  0
 36 38  1  0  0  0  0
 36 37  1  0  0  0  0
 39 36  1  0  0  0  0
 40 39  1  0  0  0  0
 41 40  2  0  0  0  0
 42 41  1  0  0  0  0
 43 44  2  0  0  0  0
 43 41  1  0  0  0  0
 44 45  1  0  0  0  0
 45 39  2  0  0  0  0
M  END
>  <minimizedAffinity>
-5.14570236

>  <minimizedRMSD>
1.115646

$$$$
