
 OpenBabel03252509043D

 46 48  0  0  1  0  0  0  0  0999 V2000
   46.7680   34.3790   43.4850 N   0  0  0  0  0  0  0  0  0  0  0  0
   46.4790   34.9390   42.2160 C   0  0  0  0  0  0  0  0  0  0  0  0
   45.0130   34.9670   41.8430 C   0  0  0  0  0  0  0  0  0  0  0  0
   44.0710   35.1290   43.0120 C   0  0  0  0  0  0  0  0  0  0  0  0
   44.8260   35.3580   44.3000 C   0  0  0  0  0  0  0  0  0  0  0  0
   45.7690   34.0970   44.3940 C   0  0  2  0  0  0  0  0  0  0  0  0
   46.8090   36.0160   42.2590 H   0  0  0  0  0  0  0  0  0  0  0  0
   47.0110   34.5220   41.3550 H   0  0  0  0  0  0  0  0  0  0  0  0
   44.7680   34.0520   41.2400 H   0  0  0  0  0  0  0  0  0  0  0  0
   44.8190   35.8310   41.1590 H   0  0  0  0  0  0  0  0  0  0  0  0
   43.2590   35.8510   42.8290 H   0  0  0  0  0  0  0  0  0  0  0  0
   43.5660   34.1310   43.1460 H   0  0  0  0  0  0  0  0  0  0  0  0
   45.4450   36.2600   44.2890 H   0  0  0  0  0  0  0  0  0  0  0  0
   44.0870   35.3140   45.1230 H   0  0  0  0  0  0  0  0  0  0  0  0
   45.1130   33.2210   44.2160 H   0  0  0  0  0  0  0  0  0  0  0  0
   47.9670   33.5660   43.5090 C   0  0  0  0  0  0  0  0  0  0  0  0
   48.7620   34.1790   43.0350 H   0  0  0  0  0  0  0  0  0  0  0  0
   48.3170   33.3830   44.5570 H   0  0  0  0  0  0  0  0  0  0  0  0
   47.7180   32.3310   42.7300 C   0  0  0  0  0  0  0  0  0  0  0  0
   47.5540   31.4780   43.3900 H   0  0  0  0  0  0  0  0  0  0  0  0
   46.7610   32.4130   42.1290 H   0  0  0  0  0  0  0  0  0  0  0  0
   51.2360   32.1210   41.3980 C   0  0  0  0  0  0  0  0  0  0  0  0
   50.1280   32.3350   42.2440 C   0  0  0  0  0  0  0  0  0  0  0  0
   48.8620   32.0940   41.8140 C   0  0  0  0  0  0  0  0  0  0  0  0
   48.7220   31.6490   40.5630 N   0  0  0  0  0  0  0  0  0  0  0  0
   49.7580   31.4360   39.7380 C   0  0  0  0  0  0  0  0  0  0  0  0
   51.0220   31.6660   40.1360 N   0  0  0  0  0  0  0  0  0  0  0  0
   52.2400   32.2970   41.6970 H   0  0  0  0  0  0  0  0  0  0  0  0
   50.4240   32.6920   43.2140 H   0  0  0  0  0  0  0  0  0  0  0  0
   49.4970   31.0720   38.7480 H   0  0  0  0  0  0  0  0  0  0  0  0
   46.2010   34.1800   45.6970 O   0  0  0  0  0  0  0  0  0  0  0  0
   45.6430   31.5700   45.6090 O   0  0  0  0  0  0  0  0  0  0  0  0
   46.0750   32.7370   46.5260 P   0  0  2  0  0  0  0  0  0  0  0  0
   44.7350   32.9080   47.6000 O   0  0  0  0  0  0  0  0  0  0  0  0
   44.8410   33.7940   48.0410 H   0  0  0  0  0  0  0  0  0  0  0  0
   47.3910   32.3310   47.4370 O   0  0  0  0  0  0  0  0  0  0  0  0
   47.6270   30.9830   47.3940 C   0  0  0  0  0  0  0  0  0  0  0  0
   47.8880   30.7660   46.3090 H   0  0  0  0  0  0  0  0  0  0  0  0
   46.6150   30.4860   47.4870 H   0  0  0  0  0  0  0  0  0  0  0  0
   48.6080   30.4280   48.3130 C   0  0  0  0  0  0  0  0  0  0  0  0
   48.9990   31.3980   49.2440 C   0  0  0  0  0  3  0  0  0  0  0  0
   49.9060   31.0040   50.2350 C   0  0  0  0  0  0  0  0  0  0  0  0
   50.2720   31.6950   51.0100 H   0  0  0  0  0  0  0  0  0  0  0  0
   50.4060   29.7580   50.3230 N   0  0  0  0  0  0  0  0  0  0  0  0
   49.9980   28.8650   49.4040 C   0  0  0  0  0  3  0  0  0  0  0  0
   49.1290   29.1760   48.4270 N   0  0  0  0  0  0  0  0  0  0  0  0
  1 16  1  0  0  0  0
  1  6  1  0  0  0  0
  2  7  1  0  0  0  0
  2  1  1  0  0  0  0
  3  2  1  0  0  0  0
  3  4  1  0  0  0  0
  4 12  1  0  0  0  0
  4  5  1  0  0  0  0
  5  6  1  0  0  0  0
  5 14  1  0  0  0  0
  6 15  1  6  0  0  0
  6 31  1  0  0  0  0
  8  2  1  0  0  0  0
  9  3  1  0  0  0  0
 10  3  1  0  0  0  0
 11  4  1  0  0  0  0
 13  5  1  0  0  0  0
 16 18  1  0  0  0  0
 17 16  1  0  0  0  0
 19 20  1  0  0  0  0
 19 16  1  0  0  0  0
 21 19  1  0  0  0  0
 22 28  1  0  0  0  0
 22 23  1  0  0  0  0
 23 29  1  0  0  0  0
 24 23  2  0  0  0  0
 24 19  1  0  0  0  0
 25 24  1  0  0  0  0
 26 27  1  0  0  0  0
 26 25  2  0  0  0  0
 27 22  2  0  0  0  0
 30 26  1  0  0  0  0
 31 33  1  0  0  0  0
 33 32  2  6  0  0  0
 33 36  1  0  0  0  0
 33 34  1  0  0  0  0
 34 35  1  0  0  0  0
 37 36  1  0  0  0  0
 37 39  1  0  0  0  0
 37 40  1  0  0  0  0
 38 37  1  0  0  0  0
 40 46  2  0  0  0  0
 40 41  1  0  0  0  0
 41 42  2  0  0  0  0
 42 44  1  0  0  0  0
 42 43  1  0  0  0  0
 45 44  2  0  0  0  0
 46 45  1  0  0  0  0
M  END
>  <minimizedAffinity>
-5.02615261

>  <minimizedRMSD>
4.06367922

$$$$
