
 OpenBabel03252507583D

 25 27  0  0  1  0  0  0  0  0999 V2000
   46.5160   32.4360   46.1360 C   0  0  1  0  0  0  0  0  0  0  0  0
   46.9620   32.6770   47.5360 C   0  0  0  0  0  0  0  0  0  0  0  0
   45.6000   32.1400   47.2840 C   0  0  2  0  0  0  0  0  0  0  0  0
   47.0630   31.6850   45.5630 H   0  0  0  0  0  0  0  0  0  0  0  0
   47.0050   33.7440   47.8630 H   0  0  0  0  0  0  0  0  0  0  0  0
   47.7780   32.0590   47.9050 H   0  0  0  0  0  0  0  0  0  0  0  0
   44.7320   32.7780   47.4750 H   0  0  0  0  0  0  0  0  0  0  0  0
   46.2050   34.7790   43.3330 C   0  0  0  0  0  0  0  0  0  0  0  0
   45.2110   35.6860   43.7640 C   0  0  0  0  0  0  0  0  0  0  0  0
   44.6460   35.4730   45.0350 C   0  0  0  0  0  0  0  0  0  0  0  0
   45.0870   34.4170   45.7670 N   0  0  0  0  0  0  0  0  0  0  0  0
   46.0520   33.5790   45.2860 C   0  0  0  0  0  0  0  0  0  0  0  0
   46.6160   33.7400   44.0910 N   0  0  0  0  0  0  0  0  0  0  0  0
   44.8740   36.5080   43.1850 H   0  0  0  0  0  0  0  0  0  0  0  0
   43.8850   36.1300   45.4190 H   0  0  0  0  0  0  0  0  0  0  0  0
   46.7380   35.0620   42.0350 C   0  0  0  0  0  0  0  0  0  0  0  0
   47.9270   35.4260   41.7900 O   0  0  0  0  0  0  0  0  0  0  0  0
   45.9680   34.9190   41.2720 H   0  0  0  0  0  0  0  0  0  0  0  0
   45.3470   30.6710   47.4660 C   0  0  0  0  0  0  0  0  0  0  0  0
   45.1920   30.1230   48.7320 C   0  0  0  0  0  3  0  0  0  0  0  0
   44.9640   28.7650   48.7970 C   0  0  0  0  0  0  0  0  0  0  0  0
   44.8430   28.3430   49.7900 H   0  0  0  0  0  0  0  0  0  0  0  0
   44.8840   27.9540   47.7270 N   0  0  0  0  0  0  0  0  0  0  0  0
   45.0390   28.5200   46.5150 C   0  0  0  0  0  3  0  0  0  0  0  0
   45.2640   29.8430   46.4060 N   0  0  0  0  0  0  0  0  0  0  0  0
  1  4  1  6  0  0  0
  1  3  1  0  0  0  0
  1  2  1  0  0  0  0
  2  5  1  0  0  0  0
  2  6  1  0  0  0  0
  3 19  1  0  0  0  0
  3  7  1  1  0  0  0
  3  2  1  0  0  0  0
  8  9  2  0  0  0  0
  8 13  1  0  0  0  0
  9 10  1  0  0  0  0
 10 15  1  0  0  0  0
 10 11  2  0  0  0  0
 12 11  1  0  0  0  0
 12  1  1  0  0  0  0
 13 12  2  0  0  0  0
 14  9  1  0  0  0  0
 16  8  1  0  0  0  0
 17 16  2  0  0  0  0
 18 16  1  0  0  0  0
 19 20  1  0  0  0  0
 20 21  2  0  0  0  0
 21 22  1  0  0  0  0
 23 21  1  0  0  0  0
 24 23  2  0  0  0  0
 25 24  1  0  0  0  0
 25 19  2  0  0  0  0
M  END
>  <minimizedAffinity>
-4.48838186

>  <minimizedRMSD>
0.897794187

$$$$
