REMARK  Name = 
REMARK  4 active torsions:
REMARK  status: ('A' for Active; 'I' for Inactive)
REMARK    1  A    between atoms: C_1  and  C_3
REMARK    2  A    between atoms: C_1  and  N_8
REMARK    3  A    between atoms: C_1  and  C_14
REMARK    4  A    between atoms: C_14  and  C_30
REMARK                            x       y       z     vdW  Elec       q    Type
REMARK                         _______ _______ _______ _____ _____    ______ ____
ROOT
ATOM      1  C   UNL     1      46.809  35.085  41.896  0.00  0.00    +0.000 C 
ATOM      2  H   UNL     1      46.653  36.067  41.387  0.00  0.00    +0.000 HD
ENDROOT
BRANCH   1   3
ATOM      3  N   UNL     1      46.404  34.075  40.939  0.00  0.00    +0.000 NA
ATOM      4  C   UNL     1      45.043  34.103  40.583  0.00  0.00    +0.000 C 
ATOM      5  C   UNL     1      44.777  32.740  39.903  0.00  0.00    +0.000 C 
ATOM      6  N   UNL     1      45.436  32.856  38.638  0.00  0.00    +0.000 NA
ATOM      7  C   UNL     1      46.817  33.154  38.693  0.00  0.00    +0.000 C 
ATOM      8  C   UNL     1      47.323  33.927  39.863  0.00  0.00    +0.000 C 
ATOM      9  H   UNL     1      44.431  34.068  41.517  0.00  0.00    +0.000 HD
ATOM     10  H   UNL     1      44.735  34.914  39.913  0.00  0.00    +0.000 HD
ATOM     11  H   UNL     1      43.688  32.739  39.721  0.00  0.00    +0.000 HD
ATOM     12  H   UNL     1      45.166  31.930  40.515  0.00  0.00    +0.000 HD
ATOM     13  H   UNL     1      44.884  33.289  37.890  0.00  0.00    +0.000 HD
ATOM     14  H   UNL     1      47.074  33.677  37.721  0.00  0.00    +0.000 HD
ATOM     15  H   UNL     1      47.364  32.186  38.613  0.00  0.00    +0.000 HD
ATOM     16  H   UNL     1      47.630  34.931  39.514  0.00  0.00    +0.000 HD
ATOM     17  H   UNL     1      48.258  33.408  40.186  0.00  0.00    +0.000 HD
ENDBRANCH   1   3
BRANCH   1  19
ATOM     18  C   UNL     1      45.185  36.053  43.505  0.00  0.00    +0.000 A 
ATOM     19  C   UNL     1      46.086  35.069  43.133  0.00  0.00    +0.000 A 
ATOM     20  C   UNL     1      46.259  34.042  44.068  0.00  0.00    +0.000 A 
ATOM     21  N   UNL     1      45.564  34.058  45.249  0.00  0.00    +0.000 NA
ATOM     22  C   UNL     1      44.702  35.052  45.542  0.00  0.00    +0.000 A 
ATOM     23  N   UNL     1      44.506  36.062  44.667  0.00  0.00    +0.000 NA
ATOM     24  H   UNL     1      45.029  36.867  42.796  0.00  0.00    +0.000 HD
ATOM     25  H   UNL     1      46.934  33.232  43.876  0.00  0.00    +0.000 HD
ATOM     26  H   UNL     1      44.240  34.913  46.507  0.00  0.00    +0.000 HD
ENDBRANCH   1  19
BRANCH   1  27
ATOM     27  C   UNL     1      48.307  34.931  42.173  0.00  0.00    +0.000 C 
ATOM     28  H   UNL     1      48.478  33.955  42.719  0.00  0.00    +0.000 HD
ATOM     29  H   UNL     1      48.862  34.913  41.196  0.00  0.00    +0.000 HD
BRANCH  27  30
ATOM     30  C   UNL     1      48.897  35.997  42.994  0.00  0.00    +0.000 A 
ATOM     31  C   UNL     1      49.513  36.200  44.193  0.00  0.00    +0.000 A 
ATOM     32  C   UNL     1      49.944  37.404  44.687  0.00  0.00    +0.000 A 
ATOM     33  H   UNL     1      50.401  37.321  45.650  0.00  0.00    +0.000 HD
ATOM     34  N   UNL     1      49.744  38.484  43.925  0.00  0.00    +0.000 NA
ATOM     35  C   UNL     1      49.151  38.353  42.751  0.00  0.00    +0.000 A 
ATOM     36  N   UNL     1      48.745  37.172  42.302  0.00  0.00    +0.000 NA
ENDBRANCH  27  30
ENDBRANCH   1  27
TORSDOF 4
