REMARK  Name = 
REMARK  5 active torsions:
REMARK  status: ('A' for Active; 'I' for Inactive)
REMARK    1  A    between atoms: C_1  and  O_13
REMARK    2  A    between atoms: C_2  and  C_9
REMARK    3  A    between atoms: C_5  and  O_14
REMARK    4  A    between atoms: C_6  and  O_15
REMARK    5  A    between atoms: O_15  and  C_27
REMARK                            x       y       z     vdW  Elec       q    Type
REMARK                         _______ _______ _______ _____ _____    ______ ____
ROOT
ATOM      1  C   UNL     1      48.147  33.510  42.571  0.00  0.00    +0.000 C 
ATOM      2  C   UNL     1      46.678  33.725  42.289  0.00  0.00    +0.000 C 
ATOM      3  O   UNL     1      46.476  34.629  41.266  0.00  0.00    +0.000 OA
ATOM      4  C   UNL     1      46.878  33.995  40.101  0.00  0.00    +0.000 C 
ATOM      5  C   UNL     1      48.385  33.928  40.098  0.00  0.00    +0.000 C 
ATOM      6  C   UNL     1      48.986  33.389  41.346  0.00  0.00    +0.000 C 
ATOM      7  H   UNL     1      48.201  32.528  43.130  0.00  0.00    +0.000 HD
ATOM      8  H   UNL     1      46.283  32.733  41.980  0.00  0.00    +0.000 HD
ATOM      9  H   UNL     1      46.508  32.941  40.058  0.00  0.00    +0.000 HD
ATOM     10  H   UNL     1      46.583  34.562  39.185  0.00  0.00    +0.000 HD
ATOM     11  H   UNL     1      48.702  33.319  39.224  0.00  0.00    +0.000 HD
ATOM     12  H   UNL     1      49.923  33.984  41.537  0.00  0.00    +0.000 HD
ENDROOT
BRANCH   2  15
ATOM     13  C   UNL     1      44.585  35.810  44.664  0.00  0.00    +0.000 A 
ATOM     14  C   UNL     1      45.218  35.389  43.485  0.00  0.00    +0.000 A 
ATOM     15  C   UNL     1      45.987  34.190  43.501  0.00  0.00    +0.000 A 
ATOM     16  N   UNL     1      46.062  33.517  44.670  0.00  0.00    +0.000 NA
ATOM     17  C   UNL     1      45.441  33.946  45.794  0.00  0.00    +0.000 A 
ATOM     18  N   UNL     1      44.705  35.087  45.792  0.00  0.00    +0.000 NA
ATOM     19  H   UNL     1      44.035  36.731  44.518  0.00  0.00    +0.000 HD
ATOM     20  H   UNL     1      45.184  35.896  42.531  0.00  0.00    +0.000 HD
ATOM     21  H   UNL     1      45.514  33.392  46.722  0.00  0.00    +0.000 HD
ENDBRANCH   2  15
BRANCH   1  22
ATOM     22  O   UNL     1      48.652  34.454  43.475  0.00  0.00    +0.000 OA
ATOM     23  H   UNL     1      49.430  34.140  43.961  0.00  0.00    +0.000 HD
ENDBRANCH   1  22
BRANCH   5  24
ATOM     24  O   UNL     1      48.816  35.236  39.847  0.00  0.00    +0.000 OA
ATOM     25  H   UNL     1      49.439  35.280  39.080  0.00  0.00    +0.000 HD
ENDBRANCH   5  24
BRANCH   6  26
ATOM     26  O   UNL     1      49.465  32.069  41.178  0.00  0.00    +0.000 OA
BRANCH  26  27
ATOM     27  C   UNL     1      50.817  31.749  41.260  0.00  0.00    +0.000 A 
ATOM     28  C   UNL     1      51.466  31.387  42.424  0.00  0.00    +0.000 A 
ATOM     29  C   UNL     1      52.816  31.093  42.373  0.00  0.00    +0.000 A 
ATOM     30  H   UNL     1      53.322  30.811  43.280  0.00  0.00    +0.000 HD
ATOM     31  N   UNL     1      53.522  31.150  41.215  0.00  0.00    +0.000 NA
ATOM     32  C   UNL     1      52.857  31.506  40.100  0.00  0.00    +0.000 A 
ATOM     33  N   UNL     1      51.553  31.797  40.111  0.00  0.00    +0.000 NA
ENDBRANCH  26  27
ENDBRANCH   6  26
TORSDOF 5
