
     RDKit          3D

 25 26  0  0  0  0  0  0  0  0999 V2000
   44.3011   35.7800   44.1892 C   0  0  0  0  0  0  0  0  0  0  0  0
   44.4654   34.9416   43.0897 C   0  0  0  0  0  0  0  0  0  0  0  0
   45.0791   33.7183   43.3035 C   0  0  0  0  0  0  0  0  0  0  0  0
   45.4947   33.3821   44.5619 N   0  0  0  0  0  0  0  0  0  0  0  0
   45.3148   34.2301   45.6072 C   0  0  0  0  0  0  0  0  0  0  0  0
   44.7186   35.4222   45.4082 N   0  0  0  0  0  0  0  0  0  0  0  0
   44.0293   35.2862   41.7506 C   0  0  0  0  0  0  0  0  0  0  0  0
   43.0120   34.7660   41.1010 C   0  0  0  0  0  0  0  0  0  0  0  0
   42.6430   35.1915   39.7178 C   0  0  0  0  0  0  0  0  0  0  0  0
   43.8164   36.7244   43.9715 H   0  0  0  0  0  0  0  0  0  0  0  0
   45.2549   32.9888   42.5067 H   0  0  0  0  0  0  0  0  0  0  0  0
   45.6310   33.9965   46.6151 H   0  0  0  0  0  0  0  0  0  0  0  0
   44.6077   36.0612   41.2248 H   0  0  0  0  0  0  0  0  0  0  0  0
   42.3930   33.9981   41.5490 H   0  0  0  0  0  0  0  0  0  0  0  0
   42.7665   34.3006   39.0701 H   0  0  0  0  0  0  0  0  0  0  0  0
   43.3243   36.0045   39.4020 H   0  0  0  0  0  0  0  0  0  0  0  0
   41.2712   35.7386   39.6635 C   0  0  0  0  0  0  0  0  0  0  0  0
   41.0257   37.1040   39.5487 C   0  0  0  0  0  0  0  0  0  0  0  0
   39.7772   37.6655   39.4940 C   0  0  0  0  0  0  0  0  0  0  0  0
   39.6657   38.7214   39.4057 H   0  0  0  0  0  0  0  0  0  0  0  0
   38.7169   36.8503   39.5546 N   0  0  0  0  0  0  0  0  0  0  0  0
   38.9312   35.5149   39.6667 C   0  0  0  0  0  0  0  0  0  0  0  0
   40.1700   34.9585   39.7210 N   0  0  0  0  0  0  0  0  0  0  0  0
   41.9260   37.7319   39.5026 H   0  0  0  0  0  0  0  0  0  0  0  0
   38.0972   34.8156   39.7193 H   0  0  0  0  0  0  0  0  0  0  0  0
  1  6  2  0
  2  3  2  0
  2  1  1  0
  3  4  1  0
  4  5  2  0
  6  5  1  0
  7  2  1  0
  8  7  2  0
  9  8  1  0
  1 10  1  0
  3 11  1  0
  5 12  1  0
  7 13  1  0
  8 14  1  0
  9 15  1  0
  9 16  1  0
 17 18  2  0
 18 19  1  0
 19 20  1  0
 19 21  2  0
 21 22  1  0
 22 23  2  0
 23 17  1  0
 18 24  1  0
 22 25  1  0
  9 17  1  0
M  ISO  6  10  14  11  14  12  14  15   8  16   8  20  14
M  END
>  <DihAtoms>  (1) 
7,8,16,17

>  <DihDeg>  (1) 
-90.0029916324454

$$$$
