
     RDKit          3D

 44 47  0  0  0  0  0  0  0  0999 V2000
   44.5047   35.5338   45.1225 C   0  0  0  0  0  0  0  0  0  0  0  0
   45.1650   35.5084   43.8818 C   0  0  0  0  0  0  0  0  0  0  0  0
   46.0839   34.5456   43.6423 C   0  0  0  0  0  0  0  0  0  0  0  0
   46.3144   33.6482   44.6336 N   0  0  0  0  0  0  0  0  0  0  0  0
   45.6877   33.6794   45.7999 C   0  0  0  0  0  0  0  0  0  0  0  0
   44.7797   34.6159   46.0605 N   0  0  0  0  0  0  0  0  0  0  0  0
   46.0104   32.6804   46.7834 N   0  0  0  0  0  0  0  0  0  0  0  0
   45.2623   32.4510   47.9673 C   0  0  0  0  0  0  0  0  0  0  0  0
   46.3280   32.1144   48.9933 C   0  0  0  0  0  0  0  0  0  0  0  0
   47.6166   32.0065   48.2364 C   0  0  0  0  0  0  0  0  0  0  0  0
   47.1341   31.7730   46.8049 C   0  0  1  0  0  0  0  0  0  0  0  0
   44.8223   36.5226   42.9209 N   0  0  0  0  0  0  0  0  0  0  0  0
   46.6300   30.0788   46.6347 S   0  0  0  0  0  0  0  0  0  0  0  0
   45.6058   30.5124   43.4870 O   0  0  0  0  0  0  0  0  0  0  0  0
   44.9763   29.9878   44.4207 C   0  0  0  0  0  0  0  0  0  0  0  0
   45.0789   29.7812   45.8909 C   0  0  1  0  0  0  0  0  0  0  0  0
   44.5445   28.3793   46.0309 C   0  0  0  0  0  0  0  0  0  0  0  0
   43.2257   28.5776   45.2802 C   0  0  0  0  0  0  0  0  0  0  0  0
   43.7259   29.3329   44.1288 N   0  0  0  0  0  0  0  0  0  0  0  0
   43.7734   36.3192   45.2825 H   0  0  0  0  0  0  0  0  0  0  0  0
   46.6097   34.4974   42.6991 H   0  0  0  0  0  0  0  0  0  0  0  0
   44.4309   31.8307   48.0566 H   0  0  0  0  0  0  0  0  0  0  0  0
   44.9072   33.4772   48.3094 H   0  0  0  0  0  0  0  0  0  0  0  0
   46.3537   32.7683   49.8635 H   0  0  0  0  0  0  0  0  0  0  0  0
   46.0801   31.0916   49.4043 H   0  0  0  0  0  0  0  0  0  0  0  0
   48.1961   31.1594   48.6079 H   0  0  0  0  0  0  0  0  0  0  0  0
   48.1164   32.9965   48.3229 H   0  0  0  0  0  0  0  0  0  0  0  0
   47.9262   32.1110   46.1170 H   0  0  0  0  0  0  0  0  0  0  0  0
   45.1768   36.3913   41.9444 H   0  0  0  0  0  0  0  0  0  0  0  0
   44.2526   37.3360   43.1969 H   0  0  0  0  0  0  0  0  0  0  0  0
   44.1978   30.3799   46.2391 H   0  0  0  0  0  0  0  0  0  0  0  0
   45.1375   27.6605   45.4283 H   0  0  0  0  0  0  0  0  0  0  0  0
   44.3992   28.0666   47.0690 H   0  0  0  0  0  0  0  0  0  0  0  0
   42.4910   29.1307   45.8580 H   0  0  0  0  0  0  0  0  0  0  0  0
   42.8739   27.5972   44.9086 H   0  0  0  0  0  0  0  0  0  0  0  0
   42.9698   29.3450   42.9040 C   0  0  0  0  0  0  0  0  0  0  0  0
   41.6287   29.5190   42.7458 C   0  0  0  0  0  0  0  0  0  0  0  0
   41.1467   29.4877   41.4495 C   0  0  0  0  0  0  0  0  0  0  0  0
   40.0627   29.6298   41.3429 H   0  0  0  0  0  0  0  0  0  0  0  0
   41.9385   29.2967   40.3791 N   0  0  0  0  0  0  0  0  0  0  0  0
   43.2640   29.1264   40.5569 C   0  0  0  0  0  0  0  0  0  0  0  0
   43.7504   29.1532   41.8026 N   0  0  0  0  0  0  0  0  0  0  0  0
   41.0856   29.6624   43.6453 H   0  0  0  0  0  0  0  0  0  0  0  0
   43.9235   28.9709   39.7118 H   0  0  0  0  0  0  0  0  0  0  0  0
  1  6  2  0
  2  1  1  0
  3  2  2  0
  3  4  1  0
  4  5  2  0
  5  6  1  0
  5  7  1  0
  7 11  1  0
  7  8  1  0
  8  9  1  0
 10  9  1  0
 11 10  1  0
 12  2  1  0
 13 11  1  0
 14 15  2  0
 15 16  1  0
 16 17  1  0
 16 13  1  0
 18 17  1  0
 19 15  1  0
 19 18  1  0
  1 20  1  0
  3 21  1  0
  8 22  1  0
  8 23  1  0
  9 24  1  0
  9 25  1  0
 10 26  1  0
 10 27  1  0
 11 28  1  6
 12 29  1  0
 12 30  1  0
 16 31  1  1
 17 32  1  0
 17 33  1  0
 18 34  1  0
 18 35  1  0
 36 37  2  0
 37 38  1  0
 38 39  1  0
 38 40  2  0
 40 41  1  0
 41 42  2  0
 42 36  1  0
 37 43  1  0
 41 44  1  0
 19 36  1  0
M  ISO  8  20  14  21  14  22  13  23  13  24  13  25  13  26  13  27  13
M  ISO  7  28  13  31  13  32  13  33  13  34  13  35  13  39  14
M  END
>  <DihAtoms>  (1) 
14,18,35,36

>  <DihDeg>  (1) 
90.00055623670873

$$$$
