
 OpenBabel03252505283D

 22 23  0  0  0  0  0  0  0  0999 V2000
   36.3580   30.2890   39.0480 O   0  0  0  0  0  0  0  0  0  0  0  0
   36.8100   31.0590   40.2950 P   0  0  1  0  0  0  0  0  0  0  0  0
   35.5950   31.1360   41.4400 O   0  0  0  0  0  0  0  0  0  0  0  0
   35.7550   31.9390   42.0180 H   0  0  0  0  0  0  0  0  0  0  0  0
   38.1820   30.2740   40.8760 O   0  0  0  0  0  0  0  0  0  0  0  0
   36.9350   27.7360   43.0270 C   0  0  0  0  0  0  0  0  0  0  0  0
   38.0850   27.1930   43.6440 C   0  0  0  0  0  0  0  0  0  0  0  0
   39.3050   27.7550   43.2730 C   0  0  0  0  0  0  0  0  0  0  0  0
   39.3110   28.7570   42.3700 N   0  0  0  0  0  0  0  0  0  0  0  0
   38.1930   29.2470   41.8040 C   0  0  0  0  0  0  0  0  0  0  0  0
   36.9950   28.7300   42.1370 N   0  0  0  0  0  0  0  0  0  0  0  0
   35.9670   27.3260   43.2890 H   0  0  0  0  0  0  0  0  0  0  0  0
   37.9760   26.3880   44.3580 H   0  0  0  0  0  0  0  0  0  0  0  0
   40.2080   27.3670   43.7220 H   0  0  0  0  0  0  0  0  0  0  0  0
   37.1490   32.6280   39.7530 O   0  0  0  0  0  0  0  0  0  0  0  0
   38.5160   32.9430   39.6100 C   0  0  0  0  0  0  0  0  0  0  0  0
   39.3050   32.3690   38.6330 C   0  0  0  0  0  3  0  0  0  0  0  0
   40.6390   32.7150   38.5410 C   0  0  0  0  0  0  0  0  0  0  0  0
   41.3140   32.3090   37.8040 H   0  0  0  0  0  0  0  0  0  0  0  0
   41.2150   33.6030   39.3770 N   0  0  0  0  0  0  0  0  0  0  0  0
   40.4180   34.1550   40.3340 C   0  0  0  0  0  3  0  0  0  0  0  0
   39.1080   33.8310   40.4410 N   0  0  0  0  0  0  0  0  0  0  0  0
  2  1  2  6  0  0  0
  2  5  1  0  0  0  0
  2  3  1  0  0  0  0
  3  4  1  0  0  0  0
  5 10  1  0  0  0  0
  6 12  1  0  0  0  0
  6  7  1  0  0  0  0
  7 13  1  0  0  0  0
  8  7  2  0  0  0  0
  8 14  1  0  0  0  0
  9  8  1  0  0  0  0
 10 11  1  0  0  0  0
 10  9  2  0  0  0  0
 11  6  2  0  0  0  0
 15  2  1  0  0  0  0
 16 15  1  0  0  0  0
 16 22  1  0  0  0  0
 17 16  2  0  0  0  0
 18 17  1  0  0  0  0
 18 20  2  0  0  0  0
 19 18  1  0  0  0  0
 20 21  1  0  0  0  0
 21 22  2  0  0  0  0
M  END
>  <minimizedAffinity>
-4.68315458

$$$$

 OpenBabel03252505283D

 22 23  0  0  0  0  0  0  0  0999 V2000
   36.1760   28.2740   40.6890 O   0  0  0  0  0  0  0  0  0  0  0  0
   36.7100   29.6200   41.1930 P   0  0  1  0  0  0  0  0  0  0  0  0
   35.5040   30.7760   41.2430 O   0  0  0  0  0  0  0  0  0  0  0  0
   35.9300   31.6810   41.1760 H   0  0  0  0  0  0  0  0  0  0  0  0
   37.3790   29.3350   42.7120 O   0  0  0  0  0  0  0  0  0  0  0  0
   40.8150   28.4630   42.9580 C   0  0  0  0  0  0  0  0  0  0  0  0
   40.8140   27.1360   43.4450 C   0  0  0  0  0  0  0  0  0  0  0  0
   39.5630   26.5690   43.6800 C   0  0  0  0  0  0  0  0  0  0  0  0
   38.4590   27.3040   43.4340 N   0  0  0  0  0  0  0  0  0  0  0  0
   38.5020   28.5660   42.9700 C   0  0  0  0  0  0  0  0  0  0  0  0
   39.6920   29.1500   42.7300 N   0  0  0  0  0  0  0  0  0  0  0  0
   41.7680   28.9400   42.7630 H   0  0  0  0  0  0  0  0  0  0  0  0
   41.7550   26.6290   43.6110 H   0  0  0  0  0  0  0  0  0  0  0  0
   39.5190   25.5550   44.0530 H   0  0  0  0  0  0  0  0  0  0  0  0
   37.8740   30.0940   40.0570 O   0  0  0  0  0  0  0  0  0  0  0  0
   38.2420   31.4540   40.0920 C   0  0  0  0  0  0  0  0  0  0  0  0
   39.5290   31.8620   40.3830 C   0  0  0  0  0  3  0  0  0  0  0  0
   39.8310   33.2090   40.4030 C   0  0  0  0  0  0  0  0  0  0  0  0
   40.8120   33.6000   40.6200 H   0  0  0  0  0  0  0  0  0  0  0  0
   38.9100   34.1610   40.1470 N   0  0  0  0  0  0  0  0  0  0  0  0
   37.6460   33.7350   39.8650 C   0  0  0  0  0  3  0  0  0  0  0  0
   37.3290   32.4200   39.8390 N   0  0  0  0  0  0  0  0  0  0  0  0
  2  1  2  6  0  0  0
  2  3  1  0  0  0  0
  2  5  1  0  0  0  0
  4  3  1  0  0  0  0
  5 10  1  0  0  0  0
  6  7  1  0  0  0  0
  7 13  1  0  0  0  0
  7  8  2  0  0  0  0
  8 14  1  0  0  0  0
  9  8  1  0  0  0  0
 10  9  2  0  0  0  0
 11  6  2  0  0  0  0
 11 10  1  0  0  0  0
 12  6  1  0  0  0  0
 15 16  1  0  0  0  0
 15  2  1  0  0  0  0
 16 17  1  0  0  0  0
 17 18  2  0  0  0  0
 18 19  1  0  0  0  0
 20 18  1  0  0  0  0
 21 20  2  0  0  0  0
 22 21  1  0  0  0  0
 22 16  2  0  0  0  0
M  END
>  <minimizedAffinity>
-4.65205717

$$$$

 OpenBabel03252505283D

 22 23  0  0  0  0  0  0  0  0999 V2000
   35.3100   29.2520   40.7890 O   0  0  0  0  0  0  0  0  0  0  0  0
   36.7150   28.9910   41.3450 P   0  0  1  0  0  0  0  0  0  0  0  0
   36.9560   29.7870   42.7950 O   0  0  0  0  0  0  0  0  0  0  0  0
   37.9400   29.9350   42.9150 H   0  0  0  0  0  0  0  0  0  0  0  0
   36.8710   27.3220   41.5040 O   0  0  0  0  0  0  0  0  0  0  0  0
   38.9420   24.6480   42.5900 C   0  0  0  0  0  0  0  0  0  0  0  0
   39.8630   25.2470   43.4800 C   0  0  0  0  0  0  0  0  0  0  0  0
   39.7220   26.6190   43.6780 C   0  0  0  0  0  0  0  0  0  0  0  0
   38.7400   27.2730   43.0240 N   0  0  0  0  0  0  0  0  0  0  0  0
   37.8830   26.6660   42.1830 C   0  0  0  0  0  0  0  0  0  0  0  0
   37.9860   25.3410   41.9650 N   0  0  0  0  0  0  0  0  0  0  0  0
   39.0190   23.5830   42.4090 H   0  0  0  0  0  0  0  0  0  0  0  0
   40.6160   24.6350   43.9580 H   0  0  0  0  0  0  0  0  0  0  0  0
   40.4070   27.1150   44.3520 H   0  0  0  0  0  0  0  0  0  0  0  0
   37.7790   29.6290   40.1900 O   0  0  0  0  0  0  0  0  0  0  0  0
   37.8850   31.0340   40.1690 C   0  0  0  0  0  0  0  0  0  0  0  0
   37.1030   31.8200   39.3460 C   0  0  0  0  0  3  0  0  0  0  0  0
   37.2520   33.1930   39.3670 C   0  0  0  0  0  0  0  0  0  0  0  0
   36.6770   33.8680   38.7540 H   0  0  0  0  0  0  0  0  0  0  0  0
   38.1430   33.8110   40.1710 N   0  0  0  0  0  0  0  0  0  0  0  0
   38.9050   33.0150   40.9730 C   0  0  0  0  0  3  0  0  0  0  0  0
   38.7750   31.6680   40.9680 N   0  0  0  0  0  0  0  0  0  0  0  0
  2  1  2  6  0  0  0
  2  5  1  0  0  0  0
  2  3  1  0  0  0  0
  3  4  1  0  0  0  0
  5 10  1  0  0  0  0
  6  7  1  0  0  0  0
  7  8  2  0  0  0  0
  7 13  1  0  0  0  0
  8 14  1  0  0  0  0
  9  8  1  0  0  0  0
 10  9  2  0  0  0  0
 11 10  1  0  0  0  0
 11  6  2  0  0  0  0
 12  6  1  0  0  0  0
 15  2  1  0  0  0  0
 16 15  1  0  0  0  0
 16 22  1  0  0  0  0
 17 18  1  0  0  0  0
 17 16  2  0  0  0  0
 18 20  2  0  0  0  0
 19 18  1  0  0  0  0
 20 21  1  0  0  0  0
 22 21  2  0  0  0  0
M  END
>  <minimizedAffinity>
-4.63725281

$$$$

 OpenBabel03252505283D

 22 23  0  0  0  0  0  0  0  0999 V2000
   37.3240   32.6200   40.1860 O   0  0  0  0  0  0  0  0  0  0  0  0
   37.0750   31.1730   40.6280 P   0  0  1  0  0  0  0  0  0  0  0  0
   35.5850   31.0080   41.3680 O   0  0  0  0  0  0  0  0  0  0  0  0
   35.6200   30.2130   41.9760 H   0  0  0  0  0  0  0  0  0  0  0  0
   37.2070   30.2170   39.2470 O   0  0  0  0  0  0  0  0  0  0  0  0
   34.0140   28.8270   38.5460 C   0  0  0  0  0  0  0  0  0  0  0  0
   33.9780   28.7040   37.1390 C   0  0  0  0  0  0  0  0  0  0  0  0
   35.1160   29.1280   36.4560 C   0  0  0  0  0  0  0  0  0  0  0  0
   36.1550   29.6170   37.1640 N   0  0  0  0  0  0  0  0  0  0  0  0
   36.1500   29.7180   38.5060 C   0  0  0  0  0  0  0  0  0  0  0  0
   35.0690   29.3180   39.2020 N   0  0  0  0  0  0  0  0  0  0  0  0
   33.1480   28.5080   39.1140 H   0  0  0  0  0  0  0  0  0  0  0  0
   33.0960   28.2980   36.6620 H   0  0  0  0  0  0  0  0  0  0  0  0
   35.1280   29.0510   35.3780 H   0  0  0  0  0  0  0  0  0  0  0  0
   38.2870   30.8350   41.7620 O   0  0  0  0  0  0  0  0  0  0  0  0
   38.2810   29.5290   42.2900 C   0  0  0  0  0  0  0  0  0  0  0  0
   39.4280   28.9180   42.7590 C   0  0  0  0  0  3  0  0  0  0  0  0
   39.3610   27.6350   43.2650 C   0  0  0  0  0  0  0  0  0  0  0  0
   40.2140   27.0970   43.6490 H   0  0  0  0  0  0  0  0  0  0  0  0
   38.2060   26.9400   43.3250 N   0  0  0  0  0  0  0  0  0  0  0  0
   37.0880   27.5620   42.8560 C   0  0  0  0  0  3  0  0  0  0  0  0
   37.1310   28.8190   42.3560 N   0  0  0  0  0  0  0  0  0  0  0  0
  2  1  2  6  0  0  0
  2  3  1  0  0  0  0
  2 15  1  0  0  0  0
  3  4  1  0  0  0  0
  5  2  1  0  0  0  0
  6 12  1  0  0  0  0
  6 11  1  0  0  0  0
  7  6  2  0  0  0  0
  8  7  1  0  0  0  0
  8  9  2  0  0  0  0
  9 10  1  0  0  0  0
 10 11  2  0  0  0  0
 10  5  1  0  0  0  0
 13  7  1  0  0  0  0
 14  8  1  0  0  0  0
 15 16  1  0  0  0  0
 16 22  2  0  0  0  0
 16 17  1  0  0  0  0
 17 18  2  0  0  0  0
 18 20  1  0  0  0  0
 18 19  1  0  0  0  0
 21 20  2  0  0  0  0
 22 21  1  0  0  0  0
M  END
>  <minimizedAffinity>
-4.62955427

$$$$

 OpenBabel03252505283D

 22 23  0  0  0  0  0  0  0  0999 V2000
   34.2210   29.2820   39.5880 O   0  0  0  0  0  0  0  0  0  0  0  0
   35.6520   29.5100   40.0890 P   0  0  1  0  0  0  0  0  0  0  0  0
   35.6850   30.5630   41.3870 O   0  0  0  0  0  0  0  0  0  0  0  0
   36.5900   30.9920   41.4230 H   0  0  0  0  0  0  0  0  0  0  0  0
   36.2730   27.9950   40.4830 O   0  0  0  0  0  0  0  0  0  0  0  0
   37.8180   27.8250   43.6780 C   0  0  0  0  0  0  0  0  0  0  0  0
   39.1000   27.2860   43.4270 C   0  0  0  0  0  0  0  0  0  0  0  0
   39.3930   26.9880   42.0980 C   0  0  0  0  0  0  0  0  0  0  0  0
   38.4560   27.2280   41.1570 N   0  0  0  0  0  0  0  0  0  0  0  0
   37.2450   27.7440   41.4360 C   0  0  0  0  0  0  0  0  0  0  0  0
   36.9250   28.0450   42.7090 N   0  0  0  0  0  0  0  0  0  0  0  0
   37.5530   28.0700   44.6990 H   0  0  0  0  0  0  0  0  0  0  0  0
   39.7830   27.1300   44.2520 H   0  0  0  0  0  0  0  0  0  0  0  0
   40.3630   26.5730   41.8640 H   0  0  0  0  0  0  0  0  0  0  0  0
   36.4730   30.2220   38.7880 O   0  0  0  0  0  0  0  0  0  0  0  0
   37.4000   31.2270   39.1290 C   0  0  0  0  0  0  0  0  0  0  0  0
   38.7630   31.0050   39.1200 C   0  0  0  0  0  3  0  0  0  0  0  0
   39.6250   32.0280   39.4650 C   0  0  0  0  0  0  0  0  0  0  0  0
   40.6980   31.9280   39.4790 H   0  0  0  0  0  0  0  0  0  0  0  0
   39.1870   33.2560   39.8150 N   0  0  0  0  0  0  0  0  0  0  0  0
   37.8380   33.4510   39.8180 C   0  0  0  0  0  3  0  0  0  0  0  0
   36.9770   32.4620   39.4840 N   0  0  0  0  0  0  0  0  0  0  0  0
  2  1  2  6  0  0  0
  2  5  1  0  0  0  0
  2  3  1  0  0  0  0
  3  4  1  0  0  0  0
  5 10  1  0  0  0  0
  6 12  1  0  0  0  0
  7  6  1  0  0  0  0
  7 13  1  0  0  0  0
  8  7  2  0  0  0  0
  9 10  2  0  0  0  0
  9  8  1  0  0  0  0
 10 11  1  0  0  0  0
 11  6  2  0  0  0  0
 14  8  1  0  0  0  0
 15 16  1  0  0  0  0
 15  2  1  0  0  0  0
 16 22  1  0  0  0  0
 17 16  2  0  0  0  0
 17 18  1  0  0  0  0
 18 19  1  0  0  0  0
 18 20  2  0  0  0  0
 20 21  1  0  0  0  0
 22 21  2  0  0  0  0
M  END
>  <minimizedAffinity>
-4.55898571

$$$$

 OpenBabel03252505283D

 22 23  0  0  0  0  0  0  0  0999 V2000
   37.6320   28.8920   40.3250 O   0  0  0  0  0  0  0  0  0  0  0  0
   37.2490   29.4330   41.7080 P   0  0  1  0  0  0  0  0  0  0  0  0
   35.8960   30.4110   41.6280 O   0  0  0  0  0  0  0  0  0  0  0  0
   35.9140   31.0410   42.4070 H   0  0  0  0  0  0  0  0  0  0  0  0
   37.0060   28.0930   42.7000 O   0  0  0  0  0  0  0  0  0  0  0  0
   38.3190   24.8130   42.3320 C   0  0  0  0  0  0  0  0  0  0  0  0
   39.5310   24.8280   43.0580 C   0  0  0  0  0  0  0  0  0  0  0  0
   39.8610   26.0320   43.6770 C   0  0  0  0  0  0  0  0  0  0  0  0
   39.0230   27.0820   43.5460 N   0  0  0  0  0  0  0  0  0  0  0  0
   37.8760   27.0260   42.8440 C   0  0  0  0  0  0  0  0  0  0  0  0
   37.5230   25.8800   42.2320 N   0  0  0  0  0  0  0  0  0  0  0  0
   38.0270   23.8940   41.8370 H   0  0  0  0  0  0  0  0  0  0  0  0
   40.1360   23.9330   43.1040 H   0  0  0  0  0  0  0  0  0  0  0  0
   40.7810   26.0860   44.2420 H   0  0  0  0  0  0  0  0  0  0  0  0
   38.5700   30.3690   42.2050 O   0  0  0  0  0  0  0  0  0  0  0  0
   38.9540   31.4000   41.3240 C   0  0  0  0  0  0  0  0  0  0  0  0
   40.2690   31.6040   40.9570 C   0  0  0  0  0  3  0  0  0  0  0  0
   40.5860   32.6310   40.0900 C   0  0  0  0  0  0  0  0  0  0  0  0
   41.5890   32.8490   39.7600 H   0  0  0  0  0  0  0  0  0  0  0  0
   39.6510   33.4580   39.5760 N   0  0  0  0  0  0  0  0  0  0  0  0
   38.3600   33.2380   39.9530 C   0  0  0  0  0  3  0  0  0  0  0  0
   38.0280   32.2370   40.8010 N   0  0  0  0  0  0  0  0  0  0  0  0
  2  1  2  6  0  0  0
  2 15  1  0  0  0  0
  2  5  1  0  0  0  0
  3  2  1  0  0  0  0
  3  4  1  0  0  0  0
  5 10  1  0  0  0  0
  6  7  1  0  0  0  0
  7 13  1  0  0  0  0
  7  8  2  0  0  0  0
  8 14  1  0  0  0  0
  9  8  1  0  0  0  0
 10  9  2  0  0  0  0
 11  6  2  0  0  0  0
 11 10  1  0  0  0  0
 12  6  1  0  0  0  0
 16 15  1  0  0  0  0
 17 16  1  0  0  0  0
 18 17  2  0  0  0  0
 19 18  1  0  0  0  0
 20 21  2  0  0  0  0
 20 18  1  0  0  0  0
 21 22  1  0  0  0  0
 22 16  2  0  0  0  0
M  END
>  <minimizedAffinity>
-4.49728537

$$$$

 OpenBabel03252505283D

 22 23  0  0  0  0  0  0  0  0999 V2000
   38.6490   31.4410   39.1930 O   0  0  0  0  0  0  0  0  0  0  0  0
   38.2440   31.9700   40.5740 P   0  0  1  0  0  0  0  0  0  0  0  0
   36.6010   32.2660   40.6580 O   0  0  0  0  0  0  0  0  0  0  0  0
   36.4390   32.9540   41.3690 H   0  0  0  0  0  0  0  0  0  0  0  0
   38.7410   30.8180   41.6970 O   0  0  0  0  0  0  0  0  0  0  0  0
   36.3280   28.2130   41.5830 C   0  0  0  0  0  0  0  0  0  0  0  0
   36.4710   27.5370   42.8160 C   0  0  0  0  0  0  0  0  0  0  0  0
   37.4440   28.0360   43.6800 C   0  0  0  0  0  0  0  0  0  0  0  0
   38.1710   29.1050   43.2940 N   0  0  0  0  0  0  0  0  0  0  0  0
   38.0040   29.7210   42.1090 C   0  0  0  0  0  0  0  0  0  0  0  0
   37.0730   29.2690   41.2470 N   0  0  0  0  0  0  0  0  0  0  0  0
   35.5820   27.8560   40.8830 H   0  0  0  0  0  0  0  0  0  0  0  0
   35.8390   26.6870   43.0340 H   0  0  0  0  0  0  0  0  0  0  0  0
   37.5850   27.5470   44.6340 H   0  0  0  0  0  0  0  0  0  0  0  0
   39.0720   33.4380   40.7510 O   0  0  0  0  0  0  0  0  0  0  0  0
   40.3920   33.4580   40.2570 C   0  0  0  0  0  0  0  0  0  0  0  0
   41.4300   32.8170   40.9030 C   0  0  0  0  0  3  0  0  0  0  0  0
   42.7040   32.8710   40.3730 C   0  0  0  0  0  0  0  0  0  0  0  0
   43.5610   32.3950   40.8210 H   0  0  0  0  0  0  0  0  0  0  0  0
   42.9840   33.5330   39.2300 N   0  0  0  0  0  0  0  0  0  0  0  0
   41.9440   34.1580   38.6100 C   0  0  0  0  0  3  0  0  0  0  0  0
   40.6890   34.1180   39.1130 N   0  0  0  0  0  0  0  0  0  0  0  0
  2  1  2  6  0  0  0
  2  3  1  0  0  0  0
  2 15  1  0  0  0  0
  2  5  1  0  0  0  0
  3  4  1  0  0  0  0
  5 10  1  0  0  0  0
  6  7  1  0  0  0  0
  7 13  1  0  0  0  0
  7  8  2  0  0  0  0
  8 14  1  0  0  0  0
  9  8  1  0  0  0  0
 10  9  2  0  0  0  0
 11  6  2  0  0  0  0
 11 10  1  0  0  0  0
 12  6  1  0  0  0  0
 16 15  1  0  0  0  0
 16 17  1  0  0  0  0
 18 19  1  0  0  0  0
 18 17  2  0  0  0  0
 20 18  1  0  0  0  0
 21 22  1  0  0  0  0
 21 20  2  0  0  0  0
 22 16  2  0  0  0  0
M  END
>  <minimizedAffinity>
-4.42601252

$$$$

 OpenBabel03252505283D

 22 23  0  0  0  0  0  0  0  0999 V2000
   39.4530   28.5170   42.9220 O   0  0  0  0  0  0  0  0  0  0  0  0
   37.9580   28.2500   42.7110 P   0  0  1  0  0  0  0  0  0  0  0  0
   37.0170   29.2940   43.6150 O   0  0  0  0  0  0  0  0  0  0  0  0
   36.1280   28.8610   43.7760 H   0  0  0  0  0  0  0  0  0  0  0  0
   37.6680   28.4020   41.0590 O   0  0  0  0  0  0  0  0  0  0  0  0
   37.3030   31.8960   40.5290 C   0  0  0  0  0  0  0  0  0  0  0  0
   37.0220   32.0220   39.1500 C   0  0  0  0  0  0  0  0  0  0  0  0
   36.9670   30.8350   38.4230 C   0  0  0  0  0  0  0  0  0  0  0  0
   37.1810   29.6680   39.0670 N   0  0  0  0  0  0  0  0  0  0  0  0
   37.4460   29.5910   40.3840 C   0  0  0  0  0  0  0  0  0  0  0  0
   37.5080   30.7160   41.1200 N   0  0  0  0  0  0  0  0  0  0  0  0
   37.3540   32.7970   41.1290 H   0  0  0  0  0  0  0  0  0  0  0  0
   36.8650   33.0050   38.7260 H   0  0  0  0  0  0  0  0  0  0  0  0
   36.7550   30.8880   37.3650 H   0  0  0  0  0  0  0  0  0  0  0  0
   37.7030   26.6690   43.2650 O   0  0  0  0  0  0  0  0  0  0  0  0
   37.9260   25.6480   42.3180 C   0  0  0  0  0  0  0  0  0  0  0  0
   36.9250   24.7860   41.9160 C   0  0  0  0  0  3  0  0  0  0  0  0
   37.2010   23.8040   40.9850 C   0  0  0  0  0  0  0  0  0  0  0  0
   36.4710   23.0980   40.6240 H   0  0  0  0  0  0  0  0  0  0  0  0
   38.4270   23.6460   40.4420 N   0  0  0  0  0  0  0  0  0  0  0  0
   39.3990   24.5070   40.8560 C   0  0  0  0  0  3  0  0  0  0  0  0
   39.1490   25.4770   41.7660 N   0  0  0  0  0  0  0  0  0  0  0  0
  2  1  2  1  0  0  0
  2 15  1  0  0  0  0
  2  3  1  0  0  0  0
  3  4  1  0  0  0  0
  5  2  1  0  0  0  0
  6 11  1  0  0  0  0
  6 12  1  0  0  0  0
  7  6  2  0  0  0  0
  8  9  2  0  0  0  0
  8  7  1  0  0  0  0
  9 10  1  0  0  0  0
 10  5  1  0  0  0  0
 10 11  2  0  0  0  0
 13  7  1  0  0  0  0
 14  8  1  0  0  0  0
 16 15  1  0  0  0  0
 17 16  1  0  0  0  0
 18 17  2  0  0  0  0
 19 18  1  0  0  0  0
 20 21  2  0  0  0  0
 20 18  1  0  0  0  0
 21 22  1  0  0  0  0
 22 16  2  0  0  0  0
M  END
>  <minimizedAffinity>
-4.32551432

$$$$

 OpenBabel03252505283D

 22 23  0  0  0  0  0  0  0  0999 V2000
   37.2940   32.6730   40.0980 O   0  0  0  0  0  0  0  0  0  0  0  0
   37.0920   31.2300   40.5750 P   0  0  1  0  0  0  0  0  0  0  0  0
   35.6370   31.0490   41.3780 O   0  0  0  0  0  0  0  0  0  0  0  0
   35.7130   30.2660   41.9990 H   0  0  0  0  0  0  0  0  0  0  0  0
   37.1880   30.2510   39.2080 O   0  0  0  0  0  0  0  0  0  0  0  0
   39.5210   27.6860   38.4340 C   0  0  0  0  0  0  0  0  0  0  0  0
   40.5850   28.3530   37.7850 C   0  0  0  0  0  0  0  0  0  0  0  0
   40.4450   29.7310   37.6350 C   0  0  0  0  0  0  0  0  0  0  0  0
   39.3300   30.3270   38.1060 N   0  0  0  0  0  0  0  0  0  0  0  0
   38.3380   29.6550   38.7190 C   0  0  0  0  0  0  0  0  0  0  0  0
   38.4360   28.3220   38.8840 N   0  0  0  0  0  0  0  0  0  0  0  0
   39.5920   26.6140   38.5710 H   0  0  0  0  0  0  0  0  0  0  0  0
   41.4390   27.7850   37.4420 H   0  0  0  0  0  0  0  0  0  0  0  0
   41.2370   30.2780   37.1430 H   0  0  0  0  0  0  0  0  0  0  0  0
   38.3560   30.9360   41.6640 O   0  0  0  0  0  0  0  0  0  0  0  0
   38.3610   29.6610   42.2650 C   0  0  0  0  0  0  0  0  0  0  0  0
   39.5280   29.0290   42.6420 C   0  0  0  0  0  3  0  0  0  0  0  0
   39.4710   27.7790   43.2270 C   0  0  0  0  0  0  0  0  0  0  0  0
   40.3400   27.2260   43.5470 H   0  0  0  0  0  0  0  0  0  0  0  0
   38.3050   27.1370   43.4490 N   0  0  0  0  0  0  0  0  0  0  0  0
   37.1660   27.7800   43.0670 C   0  0  0  0  0  3  0  0  0  0  0  0
   37.2000   29.0050   42.4940 N   0  0  0  0  0  0  0  0  0  0  0  0
  2  1  2  6  0  0  0
  2  3  1  0  0  0  0
  2 15  1  0  0  0  0
  3  4  1  0  0  0  0
  5  2  1  0  0  0  0
  6 12  1  0  0  0  0
  6 11  1  0  0  0  0
  7  6  2  0  0  0  0
  8  7  1  0  0  0  0
  8  9  2  0  0  0  0
  9 10  1  0  0  0  0
 10 11  2  0  0  0  0
 10  5  1  0  0  0  0
 13  7  1  0  0  0  0
 14  8  1  0  0  0  0
 15 16  1  0  0  0  0
 16 22  2  0  0  0  0
 16 17  1  0  0  0  0
 17 18  2  0  0  0  0
 18 20  1  0  0  0  0
 18 19  1  0  0  0  0
 21 20  2  0  0  0  0
 22 21  1  0  0  0  0
M  END
>  <minimizedAffinity>
-4.22202158

$$$$
