
 OpenBabel03242519363D

 22 23  0  0  0  0  0  0  0  0999 V2000
   37.1850   29.2230   40.0760 O   0  0  0  0  0  0  0  0  0  0  0  0
   37.0020   29.9520   41.4060 P   0  0  1  0  0  0  0  0  0  0  0  0
   35.7080   30.9970   41.3680 O   0  0  0  0  0  0  0  0  0  0  0  0
   35.8460   31.8320   40.8670 H   0  0  0  0  0  0  0  0  0  0  0  0
   36.7540   28.7990   42.6400 O   0  0  0  0  0  0  0  0  0  0  0  0
   39.5270   26.5520   43.4540 C   0  0  0  0  0  0  0  0  0  0  0  0
   38.7270   27.7150   43.4220 C   0  0  0  0  0  0  0  0  0  0  0  0
   37.5470   27.6460   42.6720 C   0  0  0  0  0  0  0  0  0  0  0  0
   37.2310   26.4960   42.0260 N   0  0  0  0  0  0  0  0  0  0  0  0
   38.0250   25.4090   42.0850 C   0  0  0  0  0  0  0  0  0  0  0  0
   39.1690   25.4330   42.7950 N   0  0  0  0  0  0  0  0  0  0  0  0
   40.4500   26.5670   44.0250 H   0  0  0  0  0  0  0  0  0  0  0  0
   39.0040   28.6210   43.9480 H   0  0  0  0  0  0  0  0  0  0  0  0
   37.6160   24.5780   41.5080 H   0  0  0  0  0  0  0  0  0  0  0  0
   38.4680   30.7480   41.7510 O   0  0  0  0  0  0  0  0  0  0  0  0
   38.8580   31.9290   41.1430 C   0  0  0  0  0  0  0  0  0  0  0  0
   40.2160   32.1610   41.0650 C   0  0  0  0  0  3  0  0  0  0  0  0
   40.5970   33.3530   40.4520 C   0  0  0  0  0  0  0  0  0  0  0  0
   41.6410   33.6350   40.3380 H   0  0  0  0  0  0  0  0  0  0  0  0
   39.6340   34.1600   39.9950 N   0  0  0  0  0  0  0  0  0  0  0  0
   38.3240   33.9360   40.0690 C   0  0  0  0  0  3  0  0  0  0  0  0
   37.9480   32.7800   40.6640 N   0  0  0  0  0  0  0  0  0  0  0  0
  2  1  2  6  0  0  0
  2 15  1  0  0  0  0
  2  5  1  0  0  0  0
  3  2  1  0  0  0  0
  4  3  1  0  0  0  0
  5  8  1  0  0  0  0
  6 12  1  0  0  0  0
  7  6  1  0  0  0  0
  7 13  1  0  0  0  0
  8  7  2  0  0  0  0
  9 10  2  0  0  0  0
  9  8  1  0  0  0  0
 10 11  1  0  0  0  0
 11  6  2  0  0  0  0
 14 10  1  0  0  0  0
 16 15  1  0  0  0  0
 17 16  1  0  0  0  0
 18 17  2  0  0  0  0
 19 18  1  0  0  0  0
 20 21  2  0  0  0  0
 20 18  1  0  0  0  0
 21 22  1  0  0  0  0
 22 16  2  0  0  0  0
M  END
>  <minimizedAffinity>
-4.74853134

$$$$

 OpenBabel03242519363D

 22 23  0  0  0  0  0  0  0  0999 V2000
   36.8310   29.6730   39.5450 O   0  0  0  0  0  0  0  0  0  0  0  0
   36.9470   30.8550   40.5070 P   0  0  1  0  0  0  0  0  0  0  0  0
   35.5720   31.0450   41.4250 O   0  0  0  0  0  0  0  0  0  0  0  0
   34.7970   31.4290   40.9600 H   0  0  0  0  0  0  0  0  0  0  0  0
   38.2800   30.5980   41.5420 O   0  0  0  0  0  0  0  0  0  0  0  0
   39.7360   27.6700   43.1860 C   0  0  0  0  0  0  0  0  0  0  0  0
   39.6480   28.8750   42.4540 C   0  0  0  0  0  0  0  0  0  0  0  0
   38.3660   29.4040   42.2670 C   0  0  0  0  0  0  0  0  0  0  0  0
   37.2930   28.7570   42.7830 N   0  0  0  0  0  0  0  0  0  0  0  0
   37.4230   27.6080   43.4760 C   0  0  0  0  0  0  0  0  0  0  0  0
   38.6380   27.0640   43.6790 N   0  0  0  0  0  0  0  0  0  0  0  0
   40.7130   27.2280   43.3520 H   0  0  0  0  0  0  0  0  0  0  0  0
   40.5240   29.3720   42.0540 H   0  0  0  0  0  0  0  0  0  0  0  0
   36.4580   27.2280   43.8140 H   0  0  0  0  0  0  0  0  0  0  0  0
   37.2970   32.2340   39.5710 O   0  0  0  0  0  0  0  0  0  0  0  0
   38.5760   32.5890   39.1810 C   0  0  0  0  0  0  0  0  0  0  0  0
   39.1100   31.8900   38.1160 C   0  0  0  0  0  3  0  0  0  0  0  0
   40.3980   32.2550   37.7320 C   0  0  0  0  0  0  0  0  0  0  0  0
   40.9130   31.7710   36.9060 H   0  0  0  0  0  0  0  0  0  0  0  0
   41.0030   33.2350   38.4110 N   0  0  0  0  0  0  0  0  0  0  0  0
   40.4890   33.9090   39.4370 C   0  0  0  0  0  3  0  0  0  0  0  0
   39.2370   33.5590   39.8160 N   0  0  0  0  0  0  0  0  0  0  0  0
  2  1  2  6  0  0  0
  2  3  1  0  0  0  0
  2  5  1  0  0  0  0
  4  3  1  0  0  0  0
  5  8  1  0  0  0  0
  6 12  1  0  0  0  0
  6 11  1  0  0  0  0
  7  6  2  0  0  0  0
  8  7  1  0  0  0  0
  8  9  2  0  0  0  0
  9 10  1  0  0  0  0
 10 11  2  0  0  0  0
 10 14  1  0  0  0  0
 13  7  1  0  0  0  0
 15  2  1  0  0  0  0
 16 15  1  0  0  0  0
 16 22  1  0  0  0  0
 17 16  2  0  0  0  0
 18 17  1  0  0  0  0
 18 20  2  0  0  0  0
 19 18  1  0  0  0  0
 20 21  1  0  0  0  0
 21 22  2  0  0  0  0
M  END
>  <minimizedAffinity>
-4.73659086

$$$$

 OpenBabel03242519363D

 22 23  0  0  0  0  0  0  0  0999 V2000
   35.3650   29.5360   38.7060 O   0  0  0  0  0  0  0  0  0  0  0  0
   36.2820   30.3200   39.6430 P   0  0  1  0  0  0  0  0  0  0  0  0
   35.5110   30.7430   41.0550 O   0  0  0  0  0  0  0  0  0  0  0  0
   34.8630   31.4790   40.9840 H   0  0  0  0  0  0  0  0  0  0  0  0
   37.6440   29.3610   40.0150 O   0  0  0  0  0  0  0  0  0  0  0  0
   37.7280   26.6410   42.4640 C   0  0  0  0  0  0  0  0  0  0  0  0
   37.6680   27.3050   41.2180 C   0  0  0  0  0  0  0  0  0  0  0  0
   37.7040   28.7030   41.2490 C   0  0  0  0  0  0  0  0  0  0  0  0
   37.7940   29.3440   42.4410 N   0  0  0  0  0  0  0  0  0  0  0  0
   37.8500   28.6700   43.6060 C   0  0  0  0  0  0  0  0  0  0  0  0
   37.8170   27.3230   43.6210 N   0  0  0  0  0  0  0  0  0  0  0  0
   37.7020   25.5560   42.4800 H   0  0  0  0  0  0  0  0  0  0  0  0
   37.5970   26.7660   40.2800 H   0  0  0  0  0  0  0  0  0  0  0  0
   37.9190   29.3440   44.4610 H   0  0  0  0  0  0  0  0  0  0  0  0
   36.8450   31.6760   38.7800 O   0  0  0  0  0  0  0  0  0  0  0  0
   37.9500   32.4180   39.1580 C   0  0  0  0  0  0  0  0  0  0  0  0
   37.7340   33.4100   40.0920 C   0  0  0  0  0  3  0  0  0  0  0  0
   38.8540   34.1510   40.4660 C   0  0  0  0  0  0  0  0  0  0  0  0
   38.7970   34.9560   41.1940 H   0  0  0  0  0  0  0  0  0  0  0  0
   40.0270   33.8460   39.9000 N   0  0  0  0  0  0  0  0  0  0  0  0
   40.2350   32.8890   38.9980 C   0  0  0  0  0  3  0  0  0  0  0  0
   39.1500   32.1660   38.6320 N   0  0  0  0  0  0  0  0  0  0  0  0
  2  1  2  6  0  0  0
  2  5  1  0  0  0  0
  2  3  1  0  0  0  0
  4  3  1  0  0  0  0
  5  8  1  0  0  0  0
  6 12  1  0  0  0  0
  6 11  1  0  0  0  0
  7  8  1  0  0  0  0
  7  6  2  0  0  0  0
  8  9  2  0  0  0  0
  9 10  1  0  0  0  0
 10 11  2  0  0  0  0
 10 14  1  0  0  0  0
 13  7  1  0  0  0  0
 15 16  1  0  0  0  0
 15  2  1  0  0  0  0
 16 17  1  0  0  0  0
 17 18  2  0  0  0  0
 18 19  1  0  0  0  0
 20 18  1  0  0  0  0
 21 20  2  0  0  0  0
 22 21  1  0  0  0  0
 22 16  2  0  0  0  0
M  END
>  <minimizedAffinity>
-4.55713081

$$$$

 OpenBabel03242519363D

 22 23  0  0  0  0  0  0  0  0999 V2000
   36.2280   27.7390   39.7770 O   0  0  0  0  0  0  0  0  0  0  0  0
   36.3440   28.7290   40.9340 P   0  0  1  0  0  0  0  0  0  0  0  0
   35.0640   29.7920   40.9720 O   0  0  0  0  0  0  0  0  0  0  0  0
   35.0770   30.5010   40.2910 H   0  0  0  0  0  0  0  0  0  0  0  0
   36.3930   27.8610   42.4030 O   0  0  0  0  0  0  0  0  0  0  0  0
   38.6350   24.9700   42.5190 C   0  0  0  0  0  0  0  0  0  0  0  0
   37.5040   25.7620   42.2190 C   0  0  0  0  0  0  0  0  0  0  0  0
   37.5130   27.0770   42.7000 C   0  0  0  0  0  0  0  0  0  0  0  0
   38.5770   27.5210   43.4140 N   0  0  0  0  0  0  0  0  0  0  0  0
   39.6360   26.7300   43.6760 C   0  0  0  0  0  0  0  0  0  0  0  0
   39.6680   25.4580   43.2320 N   0  0  0  0  0  0  0  0  0  0  0  0
   38.6640   23.9450   42.1630 H   0  0  0  0  0  0  0  0  0  0  0  0
   36.6670   25.3800   41.6460 H   0  0  0  0  0  0  0  0  0  0  0  0
   40.3960   27.2510   44.2600 H   0  0  0  0  0  0  0  0  0  0  0  0
   37.8410   29.5240   40.7710 O   0  0  0  0  0  0  0  0  0  0  0  0
   37.9640   30.8770   40.5110 C   0  0  0  0  0  0  0  0  0  0  0  0
   38.9930   31.5360   41.1530 C   0  0  0  0  0  3  0  0  0  0  0  0
   39.1070   32.8980   40.8850 C   0  0  0  0  0  0  0  0  0  0  0  0
   39.8820   33.5120   41.3360 H   0  0  0  0  0  0  0  0  0  0  0  0
   38.2270   33.4490   40.0410 N   0  0  0  0  0  0  0  0  0  0  0  0
   37.2350   32.8140   39.4220 C   0  0  0  0  0  3  0  0  0  0  0  0
   37.1190   31.4890   39.6790 N   0  0  0  0  0  0  0  0  0  0  0  0
  2  1  2  6  0  0  0
  2  3  1  0  0  0  0
  2  5  1  0  0  0  0
  4  3  1  0  0  0  0
  5  8  1  0  0  0  0
  6 11  1  0  0  0  0
  7  6  2  0  0  0  0
  7  8  1  0  0  0  0
  8  9  2  0  0  0  0
  9 10  1  0  0  0  0
 10 14  1  0  0  0  0
 11 10  2  0  0  0  0
 12  6  1  0  0  0  0
 13  7  1  0  0  0  0
 15  2  1  0  0  0  0
 16 15  1  0  0  0  0
 16 17  1  0  0  0  0
 18 17  2  0  0  0  0
 18 19  1  0  0  0  0
 20 18  1  0  0  0  0
 21 22  1  0  0  0  0
 21 20  2  0  0  0  0
 22 16  2  0  0  0  0
M  END
>  <minimizedAffinity>
-4.51960278

$$$$

 OpenBabel03242519363D

 22 23  0  0  0  0  0  0  0  0999 V2000
   37.5260   32.5340   40.2750 O   0  0  0  0  0  0  0  0  0  0  0  0
   37.1500   31.1190   40.7110 P   0  0  1  0  0  0  0  0  0  0  0  0
   35.5940   31.0440   41.2980 O   0  0  0  0  0  0  0  0  0  0  0  0
   35.4580   31.4160   42.1970 H   0  0  0  0  0  0  0  0  0  0  0  0
   37.2930   30.0700   39.3720 O   0  0  0  0  0  0  0  0  0  0  0  0
   35.0190   29.1890   36.6420 C   0  0  0  0  0  0  0  0  0  0  0  0
   36.1850   29.6230   37.3110 C   0  0  0  0  0  0  0  0  0  0  0  0
   36.1380   29.6400   38.7090 C   0  0  0  0  0  0  0  0  0  0  0  0
   35.0060   29.2490   39.3450 N   0  0  0  0  0  0  0  0  0  0  0  0
   33.9160   28.8410   38.6660 C   0  0  0  0  0  0  0  0  0  0  0  0
   33.9190   28.8100   37.3190 N   0  0  0  0  0  0  0  0  0  0  0  0
   35.0180   29.1640   35.5570 H   0  0  0  0  0  0  0  0  0  0  0  0
   37.0770   29.9300   36.7760 H   0  0  0  0  0  0  0  0  0  0  0  0
   33.1000   28.5650   39.3360 H   0  0  0  0  0  0  0  0  0  0  0  0
   38.3010   30.6220   41.8630 O   0  0  0  0  0  0  0  0  0  0  0  0
   38.3140   29.3640   42.4380 C   0  0  0  0  0  0  0  0  0  0  0  0
   39.5480   28.8690   42.8080 C   0  0  0  0  0  3  0  0  0  0  0  0
   39.5490   27.6010   43.3850 C   0  0  0  0  0  0  0  0  0  0  0  0
   40.4650   27.1170   43.7130 H   0  0  0  0  0  0  0  0  0  0  0  0
   38.3750   26.9770   43.5340 N   0  0  0  0  0  0  0  0  0  0  0  0
   37.1840   27.4540   43.1770 C   0  0  0  0  0  3  0  0  0  0  0  0
   37.1770   28.6860   42.6150 N   0  0  0  0  0  0  0  0  0  0  0  0
  2  1  2  6  0  0  0
  2  3  1  0  0  0  0
  2 15  1  0  0  0  0
  3  4  1  0  0  0  0
  5  2  1  0  0  0  0
  6  7  2  0  0  0  0
  6 11  1  0  0  0  0
  7  8  1  0  0  0  0
  8  9  2  0  0  0  0
  8  5  1  0  0  0  0
 10 14  1  0  0  0  0
 10  9  1  0  0  0  0
 11 10  2  0  0  0  0
 12  6  1  0  0  0  0
 13  7  1  0  0  0  0
 15 16  1  0  0  0  0
 16 22  2  0  0  0  0
 16 17  1  0  0  0  0
 17 18  2  0  0  0  0
 18 20  1  0  0  0  0
 18 19  1  0  0  0  0
 21 20  2  0  0  0  0
 22 21  1  0  0  0  0
M  END
>  <minimizedAffinity>
-4.51748323

$$$$

 OpenBabel03242519363D

 22 23  0  0  0  0  0  0  0  0999 V2000
   37.6720   29.5650   42.7000 O   0  0  0  0  0  0  0  0  0  0  0  0
   36.8920   29.6770   41.3910 P   0  0  1  0  0  0  0  0  0  0  0  0
   35.7630   30.8990   41.4440 O   0  0  0  0  0  0  0  0  0  0  0  0
   34.9550   30.7130   41.9730 H   0  0  0  0  0  0  0  0  0  0  0  0
   37.9860   29.9820   40.1180 O   0  0  0  0  0  0  0  0  0  0  0  0
   40.1200   32.6900   38.8860 C   0  0  0  0  0  0  0  0  0  0  0  0
   39.5450   31.4050   39.0130 C   0  0  0  0  0  0  0  0  0  0  0  0
   38.5550   31.2550   39.9910 C   0  0  0  0  0  0  0  0  0  0  0  0
   38.1990   32.3190   40.7520 N   0  0  0  0  0  0  0  0  0  0  0  0
   38.7740   33.5270   40.5950 C   0  0  0  0  0  0  0  0  0  0  0  0
   39.7310   33.7160   39.6660 N   0  0  0  0  0  0  0  0  0  0  0  0
   40.8910   32.8450   38.1380 H   0  0  0  0  0  0  0  0  0  0  0  0
   39.8490   30.5720   38.3900 H   0  0  0  0  0  0  0  0  0  0  0  0
   38.3670   34.2630   41.2910 H   0  0  0  0  0  0  0  0  0  0  0  0
   36.1860   28.1560   41.0930 O   0  0  0  0  0  0  0  0  0  0  0  0
   36.9190   26.9970   40.9060 C   0  0  0  0  0  0  0  0  0  0  0  0
   37.1010   26.1990   42.0170 C   0  0  0  0  0  3  0  0  0  0  0  0
   37.8410   25.0350   41.8180 C   0  0  0  0  0  0  0  0  0  0  0  0
   38.0440   24.3350   42.6240 H   0  0  0  0  0  0  0  0  0  0  0  0
   38.3050   24.7880   40.5880 N   0  0  0  0  0  0  0  0  0  0  0  0
   38.1300   25.5580   39.5160 C   0  0  0  0  0  3  0  0  0  0  0  0
   37.4110   26.6900   39.7040 N   0  0  0  0  0  0  0  0  0  0  0  0
  2  3  1  0  0  0  0
  2  1  2  1  0  0  0
  3  4  1  0  0  0  0
  5  2  1  0  0  0  0
  6  7  2  0  0  0  0
  6 11  1  0  0  0  0
  7  8  1  0  0  0  0
  8  5  1  0  0  0  0
  8  9  2  0  0  0  0
 10  9  1  0  0  0  0
 10 14  1  0  0  0  0
 11 10  2  0  0  0  0
 12  6  1  0  0  0  0
 13  7  1  0  0  0  0
 15  2  1  0  0  0  0
 16 15  1  0  0  0  0
 16 17  1  0  0  0  0
 18 17  2  0  0  0  0
 18 19  1  0  0  0  0
 20 18  1  0  0  0  0
 21 22  1  0  0  0  0
 21 20  2  0  0  0  0
 22 16  2  0  0  0  0
M  END
>  <minimizedAffinity>
-4.3470273

$$$$

 OpenBabel03242519363D

 22 23  0  0  0  0  0  0  0  0999 V2000
   38.8400   28.8420   41.2890 O   0  0  0  0  0  0  0  0  0  0  0  0
   37.6410   28.9610   42.2280 P   0  0  1  0  0  0  0  0  0  0  0  0
   38.0560   29.6610   43.6800 O   0  0  0  0  0  0  0  0  0  0  0  0
   38.5570   29.0890   44.3030 H   0  0  0  0  0  0  0  0  0  0  0  0
   36.4390   29.9090   41.4740 O   0  0  0  0  0  0  0  0  0  0  0  0
   37.3840   32.5640   39.1370 C   0  0  0  0  0  0  0  0  0  0  0  0
   37.0890   31.9080   40.3540 C   0  0  0  0  0  0  0  0  0  0  0  0
   36.7310   30.5580   40.2690 C   0  0  0  0  0  0  0  0  0  0  0  0
   36.6850   29.9530   39.0560 N   0  0  0  0  0  0  0  0  0  0  0  0
   36.9750   30.6170   37.9210 C   0  0  0  0  0  0  0  0  0  0  0  0
   37.3240   31.9180   37.9570 N   0  0  0  0  0  0  0  0  0  0  0  0
   37.6660   33.6120   39.1630 H   0  0  0  0  0  0  0  0  0  0  0  0
   37.1350   32.4180   41.3090 H   0  0  0  0  0  0  0  0  0  0  0  0
   36.8860   29.9760   37.0420 H   0  0  0  0  0  0  0  0  0  0  0  0
   36.9960   27.3970   42.4240 O   0  0  0  0  0  0  0  0  0  0  0  0
   37.7690   26.2490   42.4560 C   0  0  0  0  0  0  0  0  0  0  0  0
   38.8720   26.2750   43.2850 C   0  0  0  0  0  3  0  0  0  0  0  0
   39.6440   25.1150   43.3090 C   0  0  0  0  0  0  0  0  0  0  0  0
   40.5340   25.0260   43.9270 H   0  0  0  0  0  0  0  0  0  0  0  0
   39.2600   24.0880   42.5430 N   0  0  0  0  0  0  0  0  0  0  0  0
   38.1960   24.0640   41.7430 C   0  0  0  0  0  3  0  0  0  0  0  0
   37.4420   25.1880   41.7160 N   0  0  0  0  0  0  0  0  0  0  0  0
  2  1  2  6  0  0  0
  2 15  1  0  0  0  0
  2  3  1  0  0  0  0
  3  4  1  0  0  0  0
  5  2  1  0  0  0  0
  6 12  1  0  0  0  0
  6  7  1  0  0  0  0
  7 13  1  0  0  0  0
  8  7  2  0  0  0  0
  8  5  1  0  0  0  0
  9  8  1  0  0  0  0
 10 11  1  0  0  0  0
 10  9  2  0  0  0  0
 11  6  2  0  0  0  0
 14 10  1  0  0  0  0
 15 16  1  0  0  0  0
 16 17  1  0  0  0  0
 17 18  2  0  0  0  0
 18 19  1  0  0  0  0
 20 18  1  0  0  0  0
 21 20  2  0  0  0  0
 22 21  1  0  0  0  0
 22 16  2  0  0  0  0
M  END
>  <minimizedAffinity>
-4.27895403

$$$$

 OpenBabel03242519363D

 22 23  0  0  0  0  0  0  0  0999 V2000
   40.7180   25.8960   41.1630 O   0  0  0  0  0  0  0  0  0  0  0  0
   40.8120   25.3630   42.5920 P   0  0  1  0  0  0  0  0  0  0  0  0
   42.3260   24.7610   42.9310 O   0  0  0  0  0  0  0  0  0  0  0  0
   42.5380   23.8880   42.5330 H   0  0  0  0  0  0  0  0  0  0  0  0
   40.4560   26.6290   43.6800 O   0  0  0  0  0  0  0  0  0  0  0  0
   37.3050   28.4480   43.2740 C   0  0  0  0  0  0  0  0  0  0  0  0
   38.2160   27.4380   43.6580 C   0  0  0  0  0  0  0  0  0  0  0  0
   39.5550   27.6300   43.2990 C   0  0  0  0  0  0  0  0  0  0  0  0
   39.9110   28.7460   42.6160 N   0  0  0  0  0  0  0  0  0  0  0  0
   39.0080   29.6840   42.2700 C   0  0  0  0  0  0  0  0  0  0  0  0
   37.7090   29.5390   42.5960 N   0  0  0  0  0  0  0  0  0  0  0  0
   36.2580   28.3340   43.5350 H   0  0  0  0  0  0  0  0  0  0  0  0
   37.9020   26.5560   44.2040 H   0  0  0  0  0  0  0  0  0  0  0  0
   39.4700   30.5100   41.7270 H   0  0  0  0  0  0  0  0  0  0  0  0
   39.5920   24.1890   42.7730 O   0  0  0  0  0  0  0  0  0  0  0  0
   38.6300   23.9300   41.8120 C   0  0  0  0  0  0  0  0  0  0  0  0
   37.3830   24.4790   42.0260 C   0  0  0  0  0  3  0  0  0  0  0  0
   36.4230   24.2120   41.0520 C   0  0  0  0  0  0  0  0  0  0  0  0
   35.4080   24.5950   41.1210 H   0  0  0  0  0  0  0  0  0  0  0  0
   36.7810   23.4590   40.0060 N   0  0  0  0  0  0  0  0  0  0  0  0
   37.9850   22.9290   39.8000 C   0  0  0  0  0  3  0  0  0  0  0  0
   38.9220   23.1860   40.7430 N   0  0  0  0  0  0  0  0  0  0  0  0
  2  1  2  6  0  0  0
  2 15  1  0  0  0  0
  2  3  1  0  0  0  0
  2  5  1  0  0  0  0
  4  3  1  0  0  0  0
  6 12  1  0  0  0  0
  6  7  1  0  0  0  0
  7 13  1  0  0  0  0
  8  7  2  0  0  0  0
  8  5  1  0  0  0  0
  9  8  1  0  0  0  0
 10 11  1  0  0  0  0
 10  9  2  0  0  0  0
 11  6  2  0  0  0  0
 14 10  1  0  0  0  0
 16 17  1  0  0  0  0
 16 15  1  0  0  0  0
 18 19  1  0  0  0  0
 18 17  2  0  0  0  0
 20 18  1  0  0  0  0
 21 20  2  0  0  0  0
 21 22  1  0  0  0  0
 22 16  2  0  0  0  0
M  END
>  <minimizedAffinity>
-4.25171041

$$$$

 OpenBabel03242519363D

 22 23  0  0  0  0  0  0  0  0999 V2000
   37.1490   29.4300   39.9610 O   0  0  0  0  0  0  0  0  0  0  0  0
   37.0570   30.2740   41.2300 P   0  0  1  0  0  0  0  0  0  0  0  0
   35.5670   31.0000   41.3870 O   0  0  0  0  0  0  0  0  0  0  0  0
   35.4020   31.7690   40.7970 H   0  0  0  0  0  0  0  0  0  0  0  0
   37.3350   29.2710   42.5840 O   0  0  0  0  0  0  0  0  0  0  0  0
   37.3400   25.6260   42.2540 C   0  0  0  0  0  0  0  0  0  0  0  0
   36.8620   26.9400   42.4520 C   0  0  0  0  0  0  0  0  0  0  0  0
   37.8090   27.9690   42.3880 C   0  0  0  0  0  0  0  0  0  0  0  0
   39.1090   27.6690   42.1460 N   0  0  0  0  0  0  0  0  0  0  0  0
   39.5200   26.3990   41.9640 C   0  0  0  0  0  0  0  0  0  0  0  0
   38.6420   25.3790   42.0160 N   0  0  0  0  0  0  0  0  0  0  0  0
   36.6360   24.8010   42.2970 H   0  0  0  0  0  0  0  0  0  0  0  0
   35.8160   27.1510   42.6430 H   0  0  0  0  0  0  0  0  0  0  0  0
   40.5950   26.3440   41.7820 H   0  0  0  0  0  0  0  0  0  0  0  0
   38.3270   31.4070   41.1760 O   0  0  0  0  0  0  0  0  0  0  0  0
   39.6600   31.0690   41.3290 C   0  0  0  0  0  0  0  0  0  0  0  0
   40.1780   31.1680   42.6040 C   0  0  0  0  0  3  0  0  0  0  0  0
   41.5210   30.8260   42.7460 C   0  0  0  0  0  0  0  0  0  0  0  0
   42.0290   30.8670   43.7060 H   0  0  0  0  0  0  0  0  0  0  0  0
   42.1880   30.4340   41.6550 N   0  0  0  0  0  0  0  0  0  0  0  0
   41.6890   30.3380   40.4250 C   0  0  0  0  0  3  0  0  0  0  0  0
   40.3840   30.6700   40.2810 N   0  0  0  0  0  0  0  0  0  0  0  0
  2  1  2  6  0  0  0
  2  3  1  0  0  0  0
  2  5  1  0  0  0  0
  4  3  1  0  0  0  0
  6 12  1  0  0  0  0
  6  7  1  0  0  0  0
  7 13  1  0  0  0  0
  8  7  2  0  0  0  0
  8  5  1  0  0  0  0
  9  8  1  0  0  0  0
 10 11  1  0  0  0  0
 10  9  2  0  0  0  0
 11  6  2  0  0  0  0
 14 10  1  0  0  0  0
 15  2  1  0  0  0  0
 15 16  1  0  0  0  0
 16 17  1  0  0  0  0
 17 18  2  0  0  0  0
 18 19  1  0  0  0  0
 20 18  1  0  0  0  0
 21 20  2  0  0  0  0
 22 21  1  0  0  0  0
 22 16  2  0  0  0  0
M  END
>  <minimizedAffinity>
-4.18490314

$$$$
