
 OpenBabel03242511133D

 42 46  0  0  1  0  0  0  0  0999 V2000
   50.0230   31.8060   41.9830 C   0  0  1  0  0  0  0  0  0  0  0  0
   49.3210   31.7950   40.6530 C   0  0  0  0  0  0  0  0  0  0  0  0
   48.5630   31.7470   42.0100 C   0  0  2  0  0  0  0  0  0  0  0  0
   50.4750   32.7560   42.2620 H   0  0  0  0  0  0  0  0  0  0  0  0
   49.3450   30.8590   40.0650 H   0  0  0  0  0  0  0  0  0  0  0  0
   49.2360   32.7290   40.0660 H   0  0  0  0  0  0  0  0  0  0  0  0
   48.0450   30.7820   42.2160 H   0  0  0  0  0  0  0  0  0  0  0  0
   51.2100   28.3020   42.1890 C   0  0  0  0  0  0  0  0  0  0  0  0
   52.2890   28.4230   43.1340 C   0  0  0  0  0  0  0  0  0  0  0  0
   52.5770   29.7160   43.6720 C   0  0  0  0  0  0  0  0  0  0  0  0
   51.8420   30.7500   43.2830 N   0  0  0  0  0  0  0  0  0  0  0  0
   50.8260   30.5920   42.3830 C   0  0  0  0  0  0  0  0  0  0  0  0
   50.4970   29.3780   41.8280 N   0  0  0  0  0  0  0  0  0  0  0  0
   50.9860   27.3400   41.7800 H   0  0  0  0  0  0  0  0  0  0  0  0
   52.8330   27.5450   43.3970 H   0  0  0  0  0  0  0  0  0  0  0  0
   53.6710   29.8110   44.6240 C   0  0  0  0  0  0  0  0  0  0  0  0
   53.3950   30.1950   45.9090 C   0  0  0  0  0  0  0  0  0  0  0  0
   54.4820   30.2630   46.7550 C   0  0  0  0  0  0  0  0  0  0  0  0
   54.2820   30.5700   47.7930 H   0  0  0  0  0  0  0  0  0  0  0  0
   55.7570   29.9730   46.3690 N   0  0  0  0  0  0  0  0  0  0  0  0
   55.9750   29.5960   45.0760 C   0  0  0  0  0  0  0  0  0  0  0  0
   54.9170   29.5210   44.2210 N   0  0  0  0  0  0  0  0  0  0  0  0
   47.8240   32.9150   42.3720 N   0  0  0  0  0  0  0  0  0  0  0  0
   47.9800   33.5680   41.5820 H   0  0  0  0  0  0  0  0  0  0  0  0
   47.1160   33.0070   43.5790 C   0  0  0  0  0  0  0  0  0  0  0  0
   47.3350   32.0700   44.5620 C   0  0  0  0  0  0  0  0  0  0  0  0
   46.7320   32.1340   45.8110 C   0  0  0  0  0  0  0  0  0  0  0  0
   45.8700   33.1610   46.1210 C   0  0  0  0  0  0  0  0  0  0  0  0
   45.6360   34.1050   45.1560 C   0  0  0  0  0  0  0  0  0  0  0  0
   44.7730   35.1430   45.4440 C   0  0  0  0  0  0  0  0  0  0  0  0
   44.4770   36.1230   44.5400 C   0  0  0  0  0  0  0  0  0  0  0  0
   45.0910   36.0310   43.2970 C   0  0  0  0  0  0  0  0  0  0  0  0
   45.9520   34.9900   43.0210 C   0  0  0  0  0  0  0  0  0  0  0  0
   46.2470   34.0170   43.9240 C   0  0  0  0  0  0  0  0  0  0  0  0
   48.0140   31.2340   44.3590 H   0  0  0  0  0  0  0  0  0  0  0  0
   46.9550   31.3620   46.5250 H   0  0  0  0  0  0  0  0  0  0  0  0
   45.4120   33.1890   47.1030 H   0  0  0  0  0  0  0  0  0  0  0  0
   44.3140   35.1780   46.4280 H   0  0  0  0  0  0  0  0  0  0  0  0
   43.8000   36.9020   44.8310 H   0  0  0  0  0  0  0  0  0  0  0  0
   44.8750   36.7920   42.5600 H   0  0  0  0  0  0  0  0  0  0  0  0
   46.5310   34.9340   41.7760 O   0  0  0  0  0  0  0  0  0  0  0  0
   45.9980   34.8970   40.9300 H   0  0  0  0  0  0  0  0  0  0  0  0
  1  3  1  0  0  0  0
  1  4  1  1  0  0  0
  1 12  1  0  0  0  0
  2  1  1  0  0  0  0
  2  3  1  0  0  0  0
  3  7  1  1  0  0  0
  3 23  1  0  0  0  0
  5  2  1  0  0  0  0
  6  2  1  0  0  0  0
  8  9  1  0  0  0  0
  9 15  1  0  0  0  0
  9 10  2  0  0  0  0
 10 16  1  0  0  0  0
 11 10  1  0  0  0  0
 12 11  2  0  0  0  0
 13  8  2  0  0  0  0
 13 12  1  0  0  0  0
 14  8  1  0  0  0  0
 16 17  1  0  0  0  0
 17 18  2  0  0  0  0
 18 19  1  0  0  0  0
 20 18  1  0  0  0  0
 21 20  2  0  0  0  0
 22 16  2  0  0  0  0
 22 21  1  0  0  0  0
 23 25  1  0  0  0  0
 24 23  1  0  0  0  0
 25 34  2  0  0  0  0
 25 26  1  0  0  0  0
 26 27  2  0  0  0  0
 27 28  1  0  0  0  0
 27 36  1  0  0  0  0
 28 37  1  0  0  0  0
 29 30  1  0  0  0  0
 29 28  2  0  0  0  0
 30 38  1  0  0  0  0
 31 39  1  0  0  0  0
 31 30  2  0  0  0  0
 32 31  1  0  0  0  0
 33 32  2  0  0  0  0
 33 34  1  0  0  0  0
 34 29  1  0  0  0  0
 35 26  1  0  0  0  0
 40 32  1  0  0  0  0
 41 33  1  0  0  0  0
 42 41  1  0  0  0  0
M  END
>  <minimizedAffinity>
-5.04021311

>  <minimizedRMSD>
0.484165281

$$$$
