
 OpenBabel03242517333D

 45 48  0  0  1  0  0  0  0  0999 V2000
   36.5340   25.1230   38.3720 C   0  0  0  0  0  0  0  0  0  0  0  0
   35.6020   24.0970   38.6890 C   0  0  0  0  0  0  0  0  0  0  0  0
   35.6450   23.5340   39.9670 C   0  0  0  0  0  0  0  0  0  0  0  0
   36.5800   23.9990   40.8510 N   0  0  0  0  0  0  0  0  0  0  0  0
   37.4450   24.9570   40.5440 C   0  0  0  0  0  0  0  0  0  0  0  0
   37.3920   25.4900   39.3100 N   0  0  0  0  0  0  0  0  0  0  0  0
   38.3640   25.3810   41.4850 N   0  0  0  0  0  0  0  0  0  0  0  0
   39.2910   24.4390   42.0760 C   0  0  0  0  0  0  0  0  0  0  0  0
   39.9480   24.9400   43.3220 C   0  0  0  0  0  0  0  0  0  0  0  0
   40.1630   26.3310   43.4330 N   0  0  0  0  0  0  0  0  0  0  0  0
   39.8320   27.0530   42.2330 C   0  0  0  0  0  0  0  0  0  0  0  0
   38.4050   26.8020   41.8890 C   0  0  2  0  0  0  0  0  0  0  0  0
   36.5260   25.5770   37.3920 H   0  0  0  0  0  0  0  0  0  0  0  0
   34.8850   23.7680   37.9540 H   0  0  0  0  0  0  0  0  0  0  0  0
   34.9460   22.7530   40.2300 H   0  0  0  0  0  0  0  0  0  0  0  0
   40.0580   24.1870   41.3230 H   0  0  0  0  0  0  0  0  0  0  0  0
   38.7580   23.4890   42.3120 H   0  0  0  0  0  0  0  0  0  0  0  0
   39.3410   24.5850   44.1970 H   0  0  0  0  0  0  0  0  0  0  0  0
   40.9230   24.3980   43.4190 H   0  0  0  0  0  0  0  0  0  0  0  0
   41.1660   26.5900   43.6770 H   0  0  0  0  0  0  0  0  0  0  0  0
   40.1690   28.0890   42.2340 H   0  0  0  0  0  0  0  0  0  0  0  0
   40.4360   26.5560   41.4170 H   0  0  0  0  0  0  0  0  0  0  0  0
   38.0860   27.4060   41.0310 H   0  0  0  0  0  0  0  0  0  0  0  0
   37.4640   27.0710   43.0290 C   0  0  0  0  0  0  0  0  0  0  0  0
   37.9440   27.5890   43.8700 H   0  0  0  0  0  0  0  0  0  0  0  0
   37.0140   26.1470   43.4180 H   0  0  0  0  0  0  0  0  0  0  0  0
   36.3500   27.9220   42.4740 C   0  0  0  0  0  3  0  0  0  0  0  0
   36.4020   28.3830   41.2300 C   0  0  0  0  0  3  0  0  0  0  0  0
   35.3710   29.2290   40.5650 C   0  0  0  0  0  0  0  0  0  0  0  0
   34.8160   28.5980   39.8440 H   0  0  0  0  0  0  0  0  0  0  0  0
   34.6450   29.5970   41.3070 H   0  0  0  0  0  0  0  0  0  0  0  0
   36.0520   30.3660   39.8420 C   0  0  2  0  0  0  0  0  0  0  0  0
   36.5670   30.1100   38.4560 C   0  0  0  0  0  0  0  0  0  0  0  0
   37.5160   30.3170   39.6060 C   0  0  1  0  0  0  0  0  0  0  0  0
   35.5590   31.3450   39.9960 H   0  0  0  0  0  0  0  0  0  0  0  0
   36.4760   30.9330   37.7110 H   0  0  0  0  0  0  0  0  0  0  0  0
   36.5030   29.1030   38.0050 H   0  0  0  0  0  0  0  0  0  0  0  0
   38.0560   29.4670   40.0370 H   0  0  0  0  0  0  0  0  0  0  0  0
   38.3140   31.5850   39.6650 C   0  0  0  0  0  0  0  0  0  0  0  0
   37.7520   32.6960   40.2760 C   0  0  0  0  0  3  0  0  0  0  0  0
   38.5350   33.8400   40.3010 C   0  0  0  0  0  0  0  0  0  0  0  0
   38.0640   34.6930   40.7870 H   0  0  0  0  0  0  0  0  0  0  0  0
   39.7620   33.9000   39.7770 N   0  0  0  0  0  0  0  0  0  0  0  0
   40.2700   32.7980   39.1920 C   0  0  0  0  0  3  0  0  0  0  0  0
   39.5660   31.6510   39.1310 N   0  0  0  0  0  0  0  0  0  0  0  0
  1  2  2  0  0  0  0
  1  6  1  0  0  0  0
  2  3  1  0  0  0  0
  3 15  1  0  0  0  0
  3  4  2  0  0  0  0
  5  4  1  0  0  0  0
  5  7  1  0  0  0  0
  6  5  2  0  0  0  0
  7 12  1  0  0  0  0
  7  8  1  0  0  0  0
  8 17  1  0  0  0  0
  8  9  1  0  0  0  0
  9 19  1  0  0  0  0
  9 10  1  0  0  0  0
  9 18  1  0  0  0  0
 10 20  1  0  0  0  0
 11 21  1  0  0  0  0
 11 10  1  0  0  0  0
 12 23  1  6  0  0  0
 12 11  1  0  0  0  0
 12 24  1  0  0  0  0
 13  1  1  0  0  0  0
 14  2  1  0  0  0  0
 16  8  1  0  0  0  0
 22 11  1  0  0  0  0
 24 26  1  0  0  0  0
 24 25  1  0  0  0  0
 27 24  1  0  0  0  0
 28 27  2  0  0  0  0
 29 28  1  0  0  0  0
 29 31  1  0  0  0  0
 30 29  1  0  0  0  0
 32 35  1  1  0  0  0
 32 29  1  0  0  0  0
 33 34  1  0  0  0  0
 33 32  1  0  0  0  0
 34 39  1  0  0  0  0
 34 32  1  0  0  0  0
 34 38  1  1  0  0  0
 36 33  1  0  0  0  0
 37 33  1  0  0  0  0
 39 40  1  0  0  0  0
 40 41  2  0  0  0  0
 41 42  1  0  0  0  0
 43 41  1  0  0  0  0
 44 43  2  0  0  0  0
 45 44  1  0  0  0  0
 45 39  2  0  0  0  0
M  END
>  <minimizedAffinity>
-5.66790152

$$$$

 OpenBabel03242517333D

 45 48  0  0  1  0  0  0  0  0999 V2000
   35.3960   29.4660   39.8050 C   0  0  0  0  0  0  0  0  0  0  0  0
   35.7870   28.2160   39.2520 C   0  0  0  0  0  0  0  0  0  0  0  0
   37.1020   28.0730   38.7990 C   0  0  0  0  0  0  0  0  0  0  0  0
   37.9470   29.1420   38.9120 N   0  0  0  0  0  0  0  0  0  0  0  0
   37.5720   30.3050   39.4300 C   0  0  0  0  0  0  0  0  0  0  0  0
   36.3040   30.4280   39.8610 N   0  0  0  0  0  0  0  0  0  0  0  0
   38.4780   31.3450   39.5140 N   0  0  0  0  0  0  0  0  0  0  0  0
   39.1300   31.8430   38.3210 C   0  0  0  0  0  0  0  0  0  0  0  0
   40.3350   32.6820   38.5990 C   0  0  0  0  0  0  0  0  0  0  0  0
   40.3490   33.4310   39.7960 N   0  0  0  0  0  0  0  0  0  0  0  0
   39.1020   33.3740   40.5140 C   0  0  0  0  0  0  0  0  0  0  0  0
   38.7820   31.9540   40.8250 C   0  0  2  0  0  0  0  0  0  0  0  0
   34.3870   29.6080   40.1630 H   0  0  0  0  0  0  0  0  0  0  0  0
   35.0790   27.4060   39.1880 H   0  0  0  0  0  0  0  0  0  0  0  0
   37.4200   27.1320   38.3750 H   0  0  0  0  0  0  0  0  0  0  0  0
   38.3940   32.4260   37.7400 H   0  0  0  0  0  0  0  0  0  0  0  0
   39.4330   30.9870   37.6760 H   0  0  0  0  0  0  0  0  0  0  0  0
   41.2360   32.0120   38.5690 H   0  0  0  0  0  0  0  0  0  0  0  0
   40.4670   33.3680   37.7240 H   0  0  0  0  0  0  0  0  0  0  0  0
   40.5710   34.4620   39.6530 H   0  0  0  0  0  0  0  0  0  0  0  0
   39.0300   34.0920   41.3300 H   0  0  0  0  0  0  0  0  0  0  0  0
   38.3210   33.7080   39.7680 H   0  0  0  0  0  0  0  0  0  0  0  0
   37.8850   31.8730   41.4510 H   0  0  0  0  0  0  0  0  0  0  0  0
   39.9030   31.2300   41.5150 C   0  0  0  0  0  0  0  0  0  0  0  0
   40.7140   31.8980   41.8330 H   0  0  0  0  0  0  0  0  0  0  0  0
   40.3430   30.4500   40.8780 H   0  0  0  0  0  0  0  0  0  0  0  0
   39.3000   30.5500   42.7180 C   0  0  0  0  0  3  0  0  0  0  0  0
   38.4600   29.5320   42.5730 C   0  0  0  0  0  3  0  0  0  0  0  0
   37.8000   28.7770   43.6760 C   0  0  0  0  0  0  0  0  0  0  0  0
   38.2450   29.1030   44.6360 H   0  0  0  0  0  0  0  0  0  0  0  0
   36.7260   29.0190   43.7120 H   0  0  0  0  0  0  0  0  0  0  0  0
   38.0300   27.2990   43.4720 C   0  0  2  0  0  0  0  0  0  0  0  0
   39.4380   26.7880   43.5600 C   0  0  0  0  0  0  0  0  0  0  0  0
   38.7100   26.8210   42.2440 C   0  0  1  0  0  0  0  0  0  0  0  0
   37.2600   26.6630   43.9500 H   0  0  0  0  0  0  0  0  0  0  0  0
   39.5980   25.7930   44.0340 H   0  0  0  0  0  0  0  0  0  0  0  0
   40.2850   27.4830   43.7080 H   0  0  0  0  0  0  0  0  0  0  0  0
   38.9600   27.5790   41.4930 H   0  0  0  0  0  0  0  0  0  0  0  0
   38.2820   25.5260   41.6220 C   0  0  0  0  0  0  0  0  0  0  0  0
   36.9330   25.2030   41.6210 C   0  0  0  0  0  3  0  0  0  0  0  0
   36.5960   23.9930   41.0330 C   0  0  0  0  0  0  0  0  0  0  0  0
   35.5310   23.7700   41.0500 H   0  0  0  0  0  0  0  0  0  0  0  0
   37.4930   23.1660   40.4900 N   0  0  0  0  0  0  0  0  0  0  0  0
   38.7940   23.5190   40.5120 C   0  0  0  0  0  3  0  0  0  0  0  0
   39.1950   24.6790   41.0670 N   0  0  0  0  0  0  0  0  0  0  0  0
  1  6  1  0  0  0  0
  1 13  1  0  0  0  0
  2  1  2  0  0  0  0
  3  4  2  0  0  0  0
  3  2  1  0  0  0  0
  4  5  1  0  0  0  0
  5  7  1  0  0  0  0
  5  6  2  0  0  0  0
  7 12  1  0  0  0  0
  8  9  1  0  0  0  0
  8  7  1  0  0  0  0
  9 10  1  0  0  0  0
 10 11  1  0  0  0  0
 11 12  1  0  0  0  0
 11 21  1  0  0  0  0
 12 23  1  1  0  0  0
 12 24  1  0  0  0  0
 14  2  1  0  0  0  0
 15  3  1  0  0  0  0
 16  8  1  0  0  0  0
 17  8  1  0  0  0  0
 18  9  1  0  0  0  0
 19  9  1  0  0  0  0
 20 10  1  0  0  0  0
 22 11  1  0  0  0  0
 24 25  1  0  0  0  0
 24 27  1  0  0  0  0
 26 24  1  0  0  0  0
 28 27  2  0  0  0  0
 28 29  1  0  0  0  0
 29 31  1  0  0  0  0
 29 30  1  0  0  0  0
 32 33  1  0  0  0  0
 32 29  1  0  0  0  0
 32 35  1  1  0  0  0
 33 37  1  0  0  0  0
 33 36  1  0  0  0  0
 34 38  1  6  0  0  0
 34 32  1  0  0  0  0
 34 33  1  0  0  0  0
 39 34  1  0  0  0  0
 40 39  1  0  0  0  0
 41 42  1  0  0  0  0
 41 40  2  0  0  0  0
 43 44  2  0  0  0  0
 43 41  1  0  0  0  0
 44 45  1  0  0  0  0
 45 39  2  0  0  0  0
M  END
>  <minimizedAffinity>
-5.58066797

$$$$

 OpenBabel03242517333D

 45 48  0  0  1  0  0  0  0  0999 V2000
   38.3370   28.9050   37.1740 C   0  0  0  0  0  0  0  0  0  0  0  0
   39.5210   28.1770   36.8730 C   0  0  0  0  0  0  0  0  0  0  0  0
   40.7260   28.6100   37.4340 C   0  0  0  0  0  0  0  0  0  0  0  0
   40.7070   29.7110   38.2450 N   0  0  0  0  0  0  0  0  0  0  0  0
   39.5960   30.3830   38.5190 C   0  0  0  0  0  0  0  0  0  0  0  0
   38.4440   29.9550   37.9730 N   0  0  0  0  0  0  0  0  0  0  0  0
   39.6470   31.4880   39.3470 N   0  0  0  0  0  0  0  0  0  0  0  0
   40.4990   32.6110   39.0150 C   0  0  0  0  0  0  0  0  0  0  0  0
   40.7430   33.5410   40.1590 C   0  0  0  0  0  0  0  0  0  0  0  0
   39.7230   33.6700   41.1260 N   0  0  0  0  0  0  0  0  0  0  0  0
   38.5160   32.9700   40.7730 C   0  0  0  0  0  0  0  0  0  0  0  0
   38.8270   31.5280   40.5760 C   0  0  2  0  0  0  0  0  0  0  0  0
   37.3910   28.5950   36.7560 H   0  0  0  0  0  0  0  0  0  0  0  0
   39.4790   27.3150   36.2280 H   0  0  0  0  0  0  0  0  0  0  0  0
   41.6380   28.0710   37.2190 H   0  0  0  0  0  0  0  0  0  0  0  0
   40.0370   33.1610   38.1760 H   0  0  0  0  0  0  0  0  0  0  0  0
   41.4810   32.2370   38.6430 H   0  0  0  0  0  0  0  0  0  0  0  0
   41.6960   33.2240   40.6620 H   0  0  0  0  0  0  0  0  0  0  0  0
   40.9780   34.5440   39.7210 H   0  0  0  0  0  0  0  0  0  0  0  0
   39.4440   34.6790   41.3210 H   0  0  0  0  0  0  0  0  0  0  0  0
   37.6630   33.2140   41.4060 H   0  0  0  0  0  0  0  0  0  0  0  0
   38.2370   33.3660   39.7510 H   0  0  0  0  0  0  0  0  0  0  0  0
   37.9180   30.9420   40.3950 H   0  0  0  0  0  0  0  0  0  0  0  0
   39.5580   30.9140   41.7370 C   0  0  0  0  0  0  0  0  0  0  0  0
   39.8760   31.6540   42.4830 H   0  0  0  0  0  0  0  0  0  0  0  0
   40.4490   30.3580   41.4160 H   0  0  0  0  0  0  0  0  0  0  0  0
   38.6080   29.9290   42.3690 C   0  0  0  0  0  3  0  0  0  0  0  0
   39.0550   28.7920   42.8900 C   0  0  0  0  0  3  0  0  0  0  0  0
   38.2250   27.7400   43.5420 C   0  0  0  0  0  0  0  0  0  0  0  0
   38.8800   26.8810   43.7840 H   0  0  0  0  0  0  0  0  0  0  0  0
   37.8120   28.1160   44.4920 H   0  0  0  0  0  0  0  0  0  0  0  0
   37.1330   27.3100   42.5930 C   0  0  2  0  0  0  0  0  0  0  0  0
   37.0380   25.8540   42.2440 C   0  0  0  0  0  0  0  0  0  0  0  0
   37.4820   26.8660   41.2220 C   0  0  1  0  0  0  0  0  0  0  0  0
   36.1680   27.8240   42.7690 H   0  0  0  0  0  0  0  0  0  0  0  0
   36.0210   25.4160   42.1250 H   0  0  0  0  0  0  0  0  0  0  0  0
   37.7830   25.1320   42.6220 H   0  0  0  0  0  0  0  0  0  0  0  0
   38.5370   26.9360   40.9350 H   0  0  0  0  0  0  0  0  0  0  0  0
   36.5610   27.1960   40.0850 C   0  0  0  0  0  0  0  0  0  0  0  0
   35.8970   28.4130   40.0990 C   0  0  0  0  0  3  0  0  0  0  0  0
   35.0590   28.6630   39.0230 C   0  0  0  0  0  0  0  0  0  0  0  0
   34.5530   29.6260   39.0660 H   0  0  0  0  0  0  0  0  0  0  0  0
   34.8830   27.8050   38.0150 N   0  0  0  0  0  0  0  0  0  0  0  0
   35.5480   26.6330   38.0410 C   0  0  0  0  0  3  0  0  0  0  0  0
   36.3780   26.3220   39.0550 N   0  0  0  0  0  0  0  0  0  0  0  0
  1  6  1  0  0  0  0
  2  1  2  0  0  0  0
  2  3  1  0  0  0  0
  3  4  2  0  0  0  0
  4  5  1  0  0  0  0
  5  7  1  0  0  0  0
  6  5  2  0  0  0  0
  7 12  1  0  0  0  0
  8  7  1  0  0  0  0
  8  9  1  0  0  0  0
  9 18  1  0  0  0  0
  9 10  1  0  0  0  0
 10 20  1  0  0  0  0
 11 10  1  0  0  0  0
 11 21  1  0  0  0  0
 12 23  1  6  0  0  0
 12 11  1  0  0  0  0
 12 24  1  0  0  0  0
 13  1  1  0  0  0  0
 14  2  1  0  0  0  0
 15  3  1  0  0  0  0
 16  8  1  0  0  0  0
 17  8  1  0  0  0  0
 19  9  1  0  0  0  0
 22 11  1  0  0  0  0
 24 27  1  0  0  0  0
 24 25  1  0  0  0  0
 26 24  1  0  0  0  0
 27 28  2  0  0  0  0
 28 29  1  0  0  0  0
 29 30  1  0  0  0  0
 29 31  1  0  0  0  0
 32 35  1  1  0  0  0
 32 29  1  0  0  0  0
 33 32  1  0  0  0  0
 33 37  1  0  0  0  0
 34 38  1  6  0  0  0
 34 33  1  0  0  0  0
 34 32  1  0  0  0  0
 36 33  1  0  0  0  0
 39 40  1  0  0  0  0
 39 34  1  0  0  0  0
 41 42  1  0  0  0  0
 41 40  2  0  0  0  0
 43 44  2  0  0  0  0
 43 41  1  0  0  0  0
 44 45  1  0  0  0  0
 45 39  2  0  0  0  0
M  END
>  <minimizedAffinity>
-5.39703751

$$$$

 OpenBabel03242517333D

 45 48  0  0  1  0  0  0  0  0999 V2000
   39.7440   28.0690   41.3910 C   0  0  0  0  0  0  0  0  0  0  0  0
   38.9660   28.2320   42.5700 C   0  0  0  0  0  0  0  0  0  0  0  0
   38.5680   29.5230   42.9280 C   0  0  0  0  0  0  0  0  0  0  0  0
   38.9460   30.5650   42.1270 N   0  0  0  0  0  0  0  0  0  0  0  0
   39.6720   30.4010   41.0280 C   0  0  0  0  0  0  0  0  0  0  0  0
   40.0480   29.1530   40.6960 N   0  0  0  0  0  0  0  0  0  0  0  0
   40.0190   31.4980   40.2630 N   0  0  0  0  0  0  0  0  0  0  0  0
   40.7640   32.5920   40.8500 C   0  0  0  0  0  0  0  0  0  0  0  0
   40.7360   33.8460   40.0370 C   0  0  0  0  0  0  0  0  0  0  0  0
   40.6310   33.7140   38.6350 N   0  0  0  0  0  0  0  0  0  0  0  0
   40.7110   32.3480   38.1880 C   0  0  0  0  0  0  0  0  0  0  0  0
   39.6310   31.5560   38.8390 C   0  0  2  0  0  0  0  0  0  0  0  0
   40.0670   27.0840   41.0870 H   0  0  0  0  0  0  0  0  0  0  0  0
   38.6960   27.3750   43.1650 H   0  0  0  0  0  0  0  0  0  0  0  0
   37.9760   29.6700   43.8200 H   0  0  0  0  0  0  0  0  0  0  0  0
   41.8080   32.2630   40.9950 H   0  0  0  0  0  0  0  0  0  0  0  0
   40.3610   32.8160   41.8650 H   0  0  0  0  0  0  0  0  0  0  0  0
   39.8910   34.4820   40.4160 H   0  0  0  0  0  0  0  0  0  0  0  0
   41.6590   34.4240   40.2940 H   0  0  0  0  0  0  0  0  0  0  0  0
   41.3740   34.2540   38.0990 H   0  0  0  0  0  0  0  0  0  0  0  0
   40.8250   32.2430   37.1090 H   0  0  0  0  0  0  0  0  0  0  0  0
   41.6800   31.9560   38.6180 H   0  0  0  0  0  0  0  0  0  0  0  0
   39.5990   30.5290   38.4550 H   0  0  0  0  0  0  0  0  0  0  0  0
   38.2670   32.1630   38.6700 C   0  0  0  0  0  0  0  0  0  0  0  0
   38.2800   33.0970   38.0940 H   0  0  0  0  0  0  0  0  0  0  0  0
   37.7870   32.3730   39.6360 H   0  0  0  0  0  0  0  0  0  0  0  0
   37.4260   31.1350   37.9560 C   0  0  0  0  0  3  0  0  0  0  0  0
   36.4880   30.4550   38.6050 C   0  0  0  0  0  3  0  0  0  0  0  0
   35.5910   29.4190   38.0180 C   0  0  0  0  0  0  0  0  0  0  0  0
   34.6080   29.8860   37.8120 H   0  0  0  0  0  0  0  0  0  0  0  0
   35.9960   29.0680   37.0550 H   0  0  0  0  0  0  0  0  0  0  0  0
   35.4320   28.2860   39.0010 C   0  0  2  0  0  0  0  0  0  0  0  0
   35.8430   28.5260   40.4240 C   0  0  0  0  0  0  0  0  0  0  0  0
   36.6340   27.6020   39.5380 C   0  0  1  0  0  0  0  0  0  0  0  0
   34.4950   27.7110   38.8640 H   0  0  0  0  0  0  0  0  0  0  0  0
   35.2240   28.0630   41.2260 H   0  0  0  0  0  0  0  0  0  0  0  0
   36.3040   29.4830   40.7260 H   0  0  0  0  0  0  0  0  0  0  0  0
   37.6020   27.9170   39.1330 H   0  0  0  0  0  0  0  0  0  0  0  0
   36.5840   26.1270   39.8040 C   0  0  0  0  0  0  0  0  0  0  0  0
   36.0550   25.2930   38.8310 C   0  0  0  0  0  3  0  0  0  0  0  0
   36.0350   23.9400   39.1320 C   0  0  0  0  0  0  0  0  0  0  0  0
   35.6130   23.3140   38.3470 H   0  0  0  0  0  0  0  0  0  0  0  0
   36.4910   23.4370   40.2820 N   0  0  0  0  0  0  0  0  0  0  0  0
   36.9970   24.2830   41.2010 C   0  0  0  0  0  3  0  0  0  0  0  0
   37.0480   25.6110   40.9770 N   0  0  0  0  0  0  0  0  0  0  0  0
  1  2  1  0  0  0  0
  2  3  2  0  0  0  0
  2 14  1  0  0  0  0
  3 15  1  0  0  0  0
  4  3  1  0  0  0  0
  5  4  2  0  0  0  0
  6  5  1  0  0  0  0
  6  1  2  0  0  0  0
  7  8  1  0  0  0  0
  7  5  1  0  0  0  0
  8 16  1  0  0  0  0
  8 17  1  0  0  0  0
  9 19  1  0  0  0  0
  9 18  1  0  0  0  0
  9  8  1  0  0  0  0
 10  9  1  0  0  0  0
 11 22  1  0  0  0  0
 11 10  1  0  0  0  0
 11 12  1  0  0  0  0
 12 23  1  6  0  0  0
 12  7  1  0  0  0  0
 13  1  1  0  0  0  0
 20 10  1  0  0  0  0
 21 11  1  0  0  0  0
 24 12  1  0  0  0  0
 24 26  1  0  0  0  0
 25 24  1  0  0  0  0
 27 28  2  0  0  0  0
 27 24  1  0  0  0  0
 29 28  1  0  0  0  0
 29 32  1  0  0  0  0
 30 29  1  0  0  0  0
 31 29  1  0  0  0  0
 32 35  1  6  0  0  0
 32 34  1  0  0  0  0
 32 33  1  0  0  0  0
 33 37  1  0  0  0  0
 33 36  1  0  0  0  0
 34 38  1  6  0  0  0
 34 39  1  0  0  0  0
 34 33  1  0  0  0  0
 39 45  1  0  0  0  0
 40 41  1  0  0  0  0
 40 39  2  0  0  0  0
 41 43  2  0  0  0  0
 42 41  1  0  0  0  0
 43 44  1  0  0  0  0
 45 44  2  0  0  0  0
M  END
>  <minimizedAffinity>
-5.32690668

$$$$

 OpenBabel03242517333D

 45 48  0  0  1  0  0  0  0  0999 V2000
   37.5850   33.3290   39.6910 C   0  0  0  0  0  0  0  0  0  0  0  0
   37.1330   32.2640   38.8660 C   0  0  0  0  0  0  0  0  0  0  0  0
   38.0750   31.3490   38.3890 C   0  0  0  0  0  0  0  0  0  0  0  0
   39.3850   31.5230   38.7410 N   0  0  0  0  0  0  0  0  0  0  0  0
   39.7960   32.5210   39.5120 C   0  0  0  0  0  0  0  0  0  0  0  0
   38.8780   33.3940   39.9640 N   0  0  0  0  0  0  0  0  0  0  0  0
   41.1360   32.6380   39.8300 N   0  0  0  0  0  0  0  0  0  0  0  0
   42.1270   32.7570   38.7810 C   0  0  0  0  0  0  0  0  0  0  0  0
   43.5260   32.4940   39.2410 C   0  0  0  0  0  0  0  0  0  0  0  0
   43.8460   32.8170   40.5780 N   0  0  0  0  0  0  0  0  0  0  0  0
   42.7810   33.4990   41.2660 C   0  0  0  0  0  0  0  0  0  0  0  0
   41.5610   32.6450   41.2450 C   0  0  2  0  0  0  0  0  0  0  0  0
   36.8810   34.0520   40.0760 H   0  0  0  0  0  0  0  0  0  0  0  0
   36.0870   32.1740   38.6200 H   0  0  0  0  0  0  0  0  0  0  0  0
   37.7540   30.5310   37.7600 H   0  0  0  0  0  0  0  0  0  0  0  0
   42.0580   33.7710   38.3510 H   0  0  0  0  0  0  0  0  0  0  0  0
   41.8850   32.0490   37.9560 H   0  0  0  0  0  0  0  0  0  0  0  0
   43.7510   31.4100   39.0550 H   0  0  0  0  0  0  0  0  0  0  0  0
   44.2080   33.0450   38.5460 H   0  0  0  0  0  0  0  0  0  0  0  0
   44.7110   33.4300   40.6730 H   0  0  0  0  0  0  0  0  0  0  0  0
   43.0760   33.9220   42.2260 H   0  0  0  0  0  0  0  0  0  0  0  0
   42.5400   34.3940   40.6190 H   0  0  0  0  0  0  0  0  0  0  0  0
   40.7510   33.0870   41.8390 H   0  0  0  0  0  0  0  0  0  0  0  0
   41.8030   31.2500   41.7470 C   0  0  0  0  0  0  0  0  0  0  0  0
   42.7420   31.1530   42.3100 H   0  0  0  0  0  0  0  0  0  0  0  0
   41.8260   30.5160   40.9310 H   0  0  0  0  0  0  0  0  0  0  0  0
   40.6370   30.9060   42.6390 C   0  0  0  0  0  3  0  0  0  0  0  0
   39.7560   29.9810   42.2780 C   0  0  0  0  0  3  0  0  0  0  0  0
   38.5660   29.5490   43.0650 C   0  0  0  0  0  0  0  0  0  0  0  0
   38.6200   30.0230   44.0650 H   0  0  0  0  0  0  0  0  0  0  0  0
   37.6420   29.9040   42.5830 H   0  0  0  0  0  0  0  0  0  0  0  0
   38.5800   28.0460   43.2010 C   0  0  2  0  0  0  0  0  0  0  0  0
   39.8900   27.3790   43.5000 C   0  0  0  0  0  0  0  0  0  0  0  0
   39.2310   27.2180   42.1570 C   0  0  1  0  0  0  0  0  0  0  0  0
   37.7030   27.6450   43.7460 H   0  0  0  0  0  0  0  0  0  0  0  0
   39.8790   26.5020   44.1870 H   0  0  0  0  0  0  0  0  0  0  0  0
   40.8240   27.9670   43.5570 H   0  0  0  0  0  0  0  0  0  0  0  0
   39.6220   27.7480   41.2810 H   0  0  0  0  0  0  0  0  0  0  0  0
   38.6390   25.8880   41.7970 C   0  0  0  0  0  0  0  0  0  0  0  0
   39.4100   24.9910   41.0730 C   0  0  0  0  0  3  0  0  0  0  0  0
   38.8120   23.7780   40.7700 C   0  0  0  0  0  0  0  0  0  0  0  0
   39.4440   23.0990   40.2000 H   0  0  0  0  0  0  0  0  0  0  0  0
   37.5680   23.4610   41.1390 N   0  0  0  0  0  0  0  0  0  0  0  0
   36.8540   24.3610   41.8420 C   0  0  0  0  0  3  0  0  0  0  0  0
   37.3700   25.5610   42.1720 N   0  0  0  0  0  0  0  0  0  0  0  0
  1  6  1  0  0  0  0
  1 13  1  0  0  0  0
  2  1  2  0  0  0  0
  3  4  2  0  0  0  0
  3  2  1  0  0  0  0
  4  5  1  0  0  0  0
  5  7  1  0  0  0  0
  5  6  2  0  0  0  0
  7 12  1  0  0  0  0
  8  9  1  0  0  0  0
  8  7  1  0  0  0  0
  9 10  1  0  0  0  0
 10 20  1  0  0  0  0
 10 11  1  0  0  0  0
 11 21  1  0  0  0  0
 12 11  1  0  0  0  0
 12 24  1  0  0  0  0
 12 23  1  1  0  0  0
 14  2  1  0  0  0  0
 15  3  1  0  0  0  0
 16  8  1  0  0  0  0
 17  8  1  0  0  0  0
 18  9  1  0  0  0  0
 19  9  1  0  0  0  0
 22 11  1  0  0  0  0
 24 25  1  0  0  0  0
 24 27  1  0  0  0  0
 26 24  1  0  0  0  0
 28 27  2  0  0  0  0
 28 29  1  0  0  0  0
 29 32  1  0  0  0  0
 29 30  1  0  0  0  0
 31 29  1  0  0  0  0
 32 33  1  0  0  0  0
 32 35  1  1  0  0  0
 33 37  1  0  0  0  0
 33 36  1  0  0  0  0
 34 38  1  6  0  0  0
 34 32  1  0  0  0  0
 34 33  1  0  0  0  0
 39 34  1  0  0  0  0
 39 45  1  0  0  0  0
 40 39  2  0  0  0  0
 41 40  1  0  0  0  0
 41 43  2  0  0  0  0
 42 41  1  0  0  0  0
 43 44  1  0  0  0  0
 44 45  2  0  0  0  0
M  END
>  <minimizedAffinity>
-5.31185961

$$$$

 OpenBabel03242517333D

 45 48  0  0  1  0  0  0  0  0999 V2000
   39.9100   28.7270   37.7490 C   0  0  0  0  0  0  0  0  0  0  0  0
   40.7210   28.1260   38.7490 C   0  0  0  0  0  0  0  0  0  0  0  0
   40.8500   28.7790   39.9790 C   0  0  0  0  0  0  0  0  0  0  0  0
   40.1890   29.9630   40.1580 N   0  0  0  0  0  0  0  0  0  0  0  0
   39.4340   30.5150   39.2170 C   0  0  0  0  0  0  0  0  0  0  0  0
   39.3190   29.8760   38.0390 N   0  0  0  0  0  0  0  0  0  0  0  0
   38.7930   31.7140   39.4640 N   0  0  0  0  0  0  0  0  0  0  0  0
   39.5560   32.8860   39.8400 C   0  0  0  0  0  0  0  0  0  0  0  0
   38.7280   33.9780   40.4370 C   0  0  0  0  0  0  0  0  0  0  0  0
   37.3900   34.0970   40.0010 N   0  0  0  0  0  0  0  0  0  0  0  0
   37.0670   33.2070   38.9170 C   0  0  0  0  0  0  0  0  0  0  0  0
   37.3230   31.8030   39.3430 C   0  0  2  0  0  0  0  0  0  0  0  0
   39.7900   28.2470   36.7890 H   0  0  0  0  0  0  0  0  0  0  0  0
   41.2190   27.1910   38.5550 H   0  0  0  0  0  0  0  0  0  0  0  0
   41.4620   28.3400   40.7540 H   0  0  0  0  0  0  0  0  0  0  0  0
   40.0820   33.2600   38.9450 H   0  0  0  0  0  0  0  0  0  0  0  0
   40.3460   32.5980   40.5710 H   0  0  0  0  0  0  0  0  0  0  0  0
   38.7470   33.8540   41.5520 H   0  0  0  0  0  0  0  0  0  0  0  0
   39.2710   34.9390   40.2520 H   0  0  0  0  0  0  0  0  0  0  0  0
   37.1310   35.0770   39.6780 H   0  0  0  0  0  0  0  0  0  0  0  0
   36.1080   33.4170   38.4450 H   0  0  0  0  0  0  0  0  0  0  0  0
   37.8350   33.4290   38.1170 H   0  0  0  0  0  0  0  0  0  0  0  0
   37.0030   31.0860   38.5770 H   0  0  0  0  0  0  0  0  0  0  0  0
   36.6480   31.4430   40.6350 C   0  0  0  0  0  0  0  0  0  0  0  0
   35.8420   32.1370   40.9070 H   0  0  0  0  0  0  0  0  0  0  0  0
   37.3550   31.4080   41.4750 H   0  0  0  0  0  0  0  0  0  0  0  0
   36.0850   30.0560   40.4530 C   0  0  0  0  0  3  0  0  0  0  0  0
   36.8310   28.9840   40.6930 C   0  0  0  0  0  3  0  0  0  0  0  0
   36.3960   27.5650   40.5540 C   0  0  0  0  0  0  0  0  0  0  0  0
   35.3270   27.4990   40.8350 H   0  0  0  0  0  0  0  0  0  0  0  0
   36.4800   27.2420   39.5040 H   0  0  0  0  0  0  0  0  0  0  0  0
   37.2270   26.6990   41.4690 C   0  0  2  0  0  0  0  0  0  0  0  0
   36.8860   26.6900   42.9300 C   0  0  0  0  0  0  0  0  0  0  0  0
   38.1560   27.3300   42.4390 C   0  0  1  0  0  0  0  0  0  0  0  0
   37.4850   25.7150   41.0320 H   0  0  0  0  0  0  0  0  0  0  0  0
   36.9760   25.7220   43.4760 H   0  0  0  0  0  0  0  0  0  0  0  0
   36.0900   27.3440   43.3300 H   0  0  0  0  0  0  0  0  0  0  0  0
   38.2440   28.4220   42.3970 H   0  0  0  0  0  0  0  0  0  0  0  0
   39.4650   26.6660   42.7440 C   0  0  0  0  0  0  0  0  0  0  0  0
   40.4330   27.3880   43.4250 C   0  0  0  0  0  3  0  0  0  0  0  0
   41.6230   26.7240   43.6790 C   0  0  0  0  0  0  0  0  0  0  0  0
   42.3610   27.3190   44.2150 H   0  0  0  0  0  0  0  0  0  0  0  0
   41.8550   25.4630   43.3040 N   0  0  0  0  0  0  0  0  0  0  0  0
   40.8860   24.7980   42.6440 C   0  0  0  0  0  3  0  0  0  0  0  0
   39.7050   25.3800   42.3620 N   0  0  0  0  0  0  0  0  0  0  0  0
  1  6  2  0  0  0  0
  1  2  1  0  0  0  0
  2  3  2  0  0  0  0
  3  4  1  0  0  0  0
  3 15  1  0  0  0  0
  5  7  1  0  0  0  0
  5  4  2  0  0  0  0
  6  5  1  0  0  0  0
  7  8  1  0  0  0  0
  8  9  1  0  0  0  0
  8 17  1  0  0  0  0
  9 18  1  0  0  0  0
 10  9  1  0  0  0  0
 11 12  1  0  0  0  0
 11 10  1  0  0  0  0
 12 23  1  6  0  0  0
 12  7  1  0  0  0  0
 12 24  1  0  0  0  0
 13  1  1  0  0  0  0
 14  2  1  0  0  0  0
 16  8  1  0  0  0  0
 19  9  1  0  0  0  0
 20 10  1  0  0  0  0
 21 11  1  0  0  0  0
 22 11  1  0  0  0  0
 24 25  1  0  0  0  0
 24 26  1  0  0  0  0
 27 24  1  0  0  0  0
 27 28  2  0  0  0  0
 29 28  1  0  0  0  0
 29 30  1  0  0  0  0
 29 32  1  0  0  0  0
 31 29  1  0  0  0  0
 32 35  1  6  0  0  0
 32 34  1  0  0  0  0
 32 33  1  0  0  0  0
 33 37  1  0  0  0  0
 33 36  1  0  0  0  0
 34 38  1  1  0  0  0
 34 39  1  0  0  0  0
 34 33  1  0  0  0  0
 39 40  1  0  0  0  0
 40 41  2  0  0  0  0
 41 42  1  0  0  0  0
 43 41  1  0  0  0  0
 44 43  2  0  0  0  0
 45 44  1  0  0  0  0
 45 39  2  0  0  0  0
M  END
>  <minimizedAffinity>
-5.30290318

$$$$

 OpenBabel03242517333D

 45 48  0  0  1  0  0  0  0  0999 V2000
   39.9170   28.0130   37.2450 C   0  0  0  0  0  0  0  0  0  0  0  0
   41.1730   28.5660   36.8750 C   0  0  0  0  0  0  0  0  0  0  0  0
   41.4560   29.8820   37.2540 C   0  0  0  0  0  0  0  0  0  0  0  0
   40.5110   30.5710   37.9620 N   0  0  0  0  0  0  0  0  0  0  0  0
   39.3410   30.0450   38.3030 C   0  0  0  0  0  0  0  0  0  0  0  0
   39.0830   28.7790   37.9320 N   0  0  0  0  0  0  0  0  0  0  0  0
   38.4310   30.7980   39.0200 N   0  0  0  0  0  0  0  0  0  0  0  0
   37.9530   32.0600   38.4950 C   0  0  0  0  0  0  0  0  0  0  0  0
   37.2900   32.9260   39.5180 C   0  0  0  0  0  0  0  0  0  0  0  0
   36.6180   32.2850   40.5810 N   0  0  0  0  0  0  0  0  0  0  0  0
   36.5570   30.8540   40.4310 C   0  0  0  0  0  0  0  0  0  0  0  0
   37.9400   30.3140   40.3260 C   0  0  2  0  0  0  0  0  0  0  0  0
   39.6690   27.0000   36.9680 H   0  0  0  0  0  0  0  0  0  0  0  0
   41.8820   27.9770   36.3170 H   0  0  0  0  0  0  0  0  0  0  0  0
   42.4050   30.3220   36.9830 H   0  0  0  0  0  0  0  0  0  0  0  0
   37.2500   31.8490   37.6700 H   0  0  0  0  0  0  0  0  0  0  0  0
   38.8030   32.6240   38.0470 H   0  0  0  0  0  0  0  0  0  0  0  0
   38.0670   33.6220   39.9340 H   0  0  0  0  0  0  0  0  0  0  0  0
   36.5790   33.5940   38.9700 H   0  0  0  0  0  0  0  0  0  0  0  0
   35.6180   32.6200   40.7180 H   0  0  0  0  0  0  0  0  0  0  0  0
   35.8830   30.3650   41.1350 H   0  0  0  0  0  0  0  0  0  0  0  0
   36.0850   30.6870   39.4180 H   0  0  0  0  0  0  0  0  0  0  0  0
   37.9420   29.2170   40.3030 H   0  0  0  0  0  0  0  0  0  0  0  0
   38.8380   30.7610   41.4450 C   0  0  0  0  0  0  0  0  0  0  0  0
   38.6730   31.8070   41.7370 H   0  0  0  0  0  0  0  0  0  0  0  0
   39.9010   30.6500   41.1900 H   0  0  0  0  0  0  0  0  0  0  0  0
   38.5520   29.8540   42.6140 C   0  0  0  0  0  3  0  0  0  0  0  0
   38.7710   28.5470   42.5300 C   0  0  0  0  0  3  0  0  0  0  0  0
   38.5330   27.5470   43.6090 C   0  0  0  0  0  0  0  0  0  0  0  0
   39.1580   27.8200   44.4810 H   0  0  0  0  0  0  0  0  0  0  0  0
   37.4810   27.5820   43.9350 H   0  0  0  0  0  0  0  0  0  0  0  0
   38.9130   26.1750   43.1070 C   0  0  2  0  0  0  0  0  0  0  0  0
   40.3730   25.8570   42.9700 C   0  0  0  0  0  0  0  0  0  0  0  0
   39.5020   26.0220   41.7550 C   0  0  1  0  0  0  0  0  0  0  0  0
   38.2830   25.3640   43.5210 H   0  0  0  0  0  0  0  0  0  0  0  0
   40.7030   24.8240   43.2290 H   0  0  0  0  0  0  0  0  0  0  0  0
   41.1420   26.6240   43.1720 H   0  0  0  0  0  0  0  0  0  0  0  0
   39.5720   26.9290   41.1430 H   0  0  0  0  0  0  0  0  0  0  0  0
   39.1640   24.8110   40.9370 C   0  0  0  0  0  0  0  0  0  0  0  0
   38.1260   23.9940   41.3580 C   0  0  0  0  0  3  0  0  0  0  0  0
   37.8580   22.8900   40.5640 C   0  0  0  0  0  0  0  0  0  0  0  0
   37.0390   22.2690   40.9230 H   0  0  0  0  0  0  0  0  0  0  0  0
   38.5410   22.6030   39.4520 N   0  0  0  0  0  0  0  0  0  0  0  0
   39.5420   23.4240   39.0800 C   0  0  0  0  0  3  0  0  0  0  0  0
   39.8580   24.5150   39.8030 N   0  0  0  0  0  0  0  0  0  0  0  0
  1  6  1  0  0  0  0
  2  1  2  0  0  0  0
  2  3  1  0  0  0  0
  3  4  2  0  0  0  0
  4  5  1  0  0  0  0
  5  7  1  0  0  0  0
  6  5  2  0  0  0  0
  7 12  1  0  0  0  0
  8  7  1  0  0  0  0
  8  9  1  0  0  0  0
  9 18  1  0  0  0  0
  9 10  1  0  0  0  0
 10 20  1  0  0  0  0
 11 10  1  0  0  0  0
 11 21  1  0  0  0  0
 12 23  1  6  0  0  0
 12 11  1  0  0  0  0
 12 24  1  0  0  0  0
 13  1  1  0  0  0  0
 14  2  1  0  0  0  0
 15  3  1  0  0  0  0
 16  8  1  0  0  0  0
 17  8  1  0  0  0  0
 19  9  1  0  0  0  0
 22 11  1  0  0  0  0
 24 25  1  0  0  0  0
 24 27  1  0  0  0  0
 26 24  1  0  0  0  0
 28 27  2  0  0  0  0
 28 29  1  0  0  0  0
 29 31  1  0  0  0  0
 29 30  1  0  0  0  0
 32 35  1  1  0  0  0
 32 29  1  0  0  0  0
 33 32  1  0  0  0  0
 33 37  1  0  0  0  0
 33 36  1  0  0  0  0
 34 38  1  6  0  0  0
 34 33  1  0  0  0  0
 34 32  1  0  0  0  0
 39 40  1  0  0  0  0
 39 34  1  0  0  0  0
 41 42  1  0  0  0  0
 41 40  2  0  0  0  0
 43 41  1  0  0  0  0
 44 43  2  0  0  0  0
 44 45  1  0  0  0  0
 45 39  2  0  0  0  0
M  END
>  <minimizedAffinity>
-5.30210543

$$$$

 OpenBabel03242517333D

 45 48  0  0  1  0  0  0  0  0999 V2000
   37.3640   32.4150   39.8780 C   0  0  0  0  0  0  0  0  0  0  0  0
   37.0380   31.6460   38.7270 C   0  0  0  0  0  0  0  0  0  0  0  0
   38.0330   30.8420   38.1630 C   0  0  0  0  0  0  0  0  0  0  0  0
   39.2700   30.8330   38.7480 N   0  0  0  0  0  0  0  0  0  0  0  0
   39.5620   31.5550   39.8220 C   0  0  0  0  0  0  0  0  0  0  0  0
   38.5960   32.3240   40.3530 N   0  0  0  0  0  0  0  0  0  0  0  0
   40.8330   31.5000   40.3620 N   0  0  0  0  0  0  0  0  0  0  0  0
   41.9850   31.8420   39.5550 C   0  0  0  0  0  0  0  0  0  0  0  0
   43.2850   31.3800   40.1320 C   0  0  0  0  0  0  0  0  0  0  0  0
   43.3850   31.3040   41.5390 N   0  0  0  0  0  0  0  0  0  0  0  0
   42.2310   31.8330   42.2180 C   0  0  0  0  0  0  0  0  0  0  0  0
   41.0190   31.0930   41.7700 C   0  0  2  0  0  0  0  0  0  0  0  0
   36.6160   33.0450   40.3360 H   0  0  0  0  0  0  0  0  0  0  0  0
   36.0460   31.6890   38.3070 H   0  0  0  0  0  0  0  0  0  0  0  0
   37.8080   30.2490   37.2890 H   0  0  0  0  0  0  0  0  0  0  0  0
   42.0030   32.9380   39.4220 H   0  0  0  0  0  0  0  0  0  0  0  0
   41.8720   31.4040   38.5370 H   0  0  0  0  0  0  0  0  0  0  0  0
   43.5210   30.3770   39.6870 H   0  0  0  0  0  0  0  0  0  0  0  0
   44.0800   32.0590   39.7330 H   0  0  0  0  0  0  0  0  0  0  0  0
   44.2320   31.8140   41.9340 H   0  0  0  0  0  0  0  0  0  0  0  0
   42.3700   31.9580   43.2910 H   0  0  0  0  0  0  0  0  0  0  0  0
   42.1130   32.8840   41.8190 H   0  0  0  0  0  0  0  0  0  0  0  0
   40.1290   31.4030   42.3320 H   0  0  0  0  0  0  0  0  0  0  0  0
   41.1550   29.6020   41.8920 C   0  0  0  0  0  0  0  0  0  0  0  0
   42.1060   29.2920   42.3470 H   0  0  0  0  0  0  0  0  0  0  0  0
   41.0710   29.0990   40.9190 H   0  0  0  0  0  0  0  0  0  0  0  0
   40.0050   29.1340   42.7480 C   0  0  0  0  0  3  0  0  0  0  0  0
   39.7290   27.8410   42.8670 C   0  0  0  0  0  3  0  0  0  0  0  0
   38.6270   27.2520   43.6800 C   0  0  0  0  0  0  0  0  0  0  0  0
   38.9460   26.2490   44.0220 H   0  0  0  0  0  0  0  0  0  0  0  0
   38.4470   27.8640   44.5780 H   0  0  0  0  0  0  0  0  0  0  0  0
   37.3870   27.1390   42.8270 C   0  0  2  0  0  0  0  0  0  0  0  0
   37.0780   25.8080   42.2070 C   0  0  0  0  0  0  0  0  0  0  0  0
   37.5150   26.9720   41.3590 C   0  0  1  0  0  0  0  0  0  0  0  0
   36.5180   27.6900   43.2370 H   0  0  0  0  0  0  0  0  0  0  0  0
   36.0080   25.5020   42.1470 H   0  0  0  0  0  0  0  0  0  0  0  0
   37.7700   24.9560   42.3230 H   0  0  0  0  0  0  0  0  0  0  0  0
   38.5290   27.0050   40.9460 H   0  0  0  0  0  0  0  0  0  0  0  0
   36.5130   27.6230   40.4530 C   0  0  0  0  0  0  0  0  0  0  0  0
   35.7350   28.6550   40.9550 C   0  0  0  0  0  3  0  0  0  0  0  0
   34.8260   29.2190   40.0730 C   0  0  0  0  0  0  0  0  0  0  0  0
   34.2320   30.0260   40.4990 H   0  0  0  0  0  0  0  0  0  0  0  0
   34.6840   28.8150   38.8080 N   0  0  0  0  0  0  0  0  0  0  0  0
   35.4600   27.8080   38.3610 C   0  0  0  0  0  3  0  0  0  0  0  0
   36.3650   27.2130   39.1620 N   0  0  0  0  0  0  0  0  0  0  0  0
  1 13  1  0  0  0  0
  1  6  1  0  0  0  0
  2  1  2  0  0  0  0
  3  2  1  0  0  0  0
  3  4  2  0  0  0  0
  4  5  1  0  0  0  0
  5  6  2  0  0  0  0
  5  7  1  0  0  0  0
  7 12  1  0  0  0  0
  8  9  1  0  0  0  0
  8  7  1  0  0  0  0
  9 10  1  0  0  0  0
 10 20  1  0  0  0  0
 10 11  1  0  0  0  0
 11 21  1  0  0  0  0
 12 24  1  0  0  0  0
 12 11  1  0  0  0  0
 12 23  1  1  0  0  0
 14  2  1  0  0  0  0
 15  3  1  0  0  0  0
 16  8  1  0  0  0  0
 17  8  1  0  0  0  0
 18  9  1  0  0  0  0
 19  9  1  0  0  0  0
 22 11  1  0  0  0  0
 24 25  1  0  0  0  0
 24 27  1  0  0  0  0
 26 24  1  0  0  0  0
 27 28  2  0  0  0  0
 28 29  1  0  0  0  0
 29 30  1  0  0  0  0
 29 31  1  0  0  0  0
 32 35  1  1  0  0  0
 32 29  1  0  0  0  0
 33 37  1  0  0  0  0
 33 32  1  0  0  0  0
 34 38  1  6  0  0  0
 34 33  1  0  0  0  0
 34 32  1  0  0  0  0
 36 33  1  0  0  0  0
 39 40  1  0  0  0  0
 39 34  1  0  0  0  0
 41 42  1  0  0  0  0
 41 40  2  0  0  0  0
 43 41  1  0  0  0  0
 44 43  2  0  0  0  0
 44 45  1  0  0  0  0
 45 39  2  0  0  0  0
M  END
>  <minimizedAffinity>
-5.24685669

$$$$

 OpenBabel03242517333D

 45 48  0  0  1  0  0  0  0  0999 V2000
   38.7400   27.2820   36.9120 C   0  0  0  0  0  0  0  0  0  0  0  0
   40.1160   27.6390   36.9090 C   0  0  0  0  0  0  0  0  0  0  0  0
   40.5420   28.6470   37.7790 C   0  0  0  0  0  0  0  0  0  0  0  0
   39.6140   29.2380   38.5920 N   0  0  0  0  0  0  0  0  0  0  0  0
   38.3320   28.8960   38.5870 C   0  0  0  0  0  0  0  0  0  0  0  0
   37.9370   27.9250   37.7450 N   0  0  0  0  0  0  0  0  0  0  0  0
   37.4470   29.5340   39.4350 N   0  0  0  0  0  0  0  0  0  0  0  0
   37.2850   30.9720   39.3740 C   0  0  0  0  0  0  0  0  0  0  0  0
   36.6050   31.5530   40.5720 C   0  0  0  0  0  0  0  0  0  0  0  0
   35.6590   30.7470   41.2420 N   0  0  0  0  0  0  0  0  0  0  0  0
   35.3890   29.5080   40.5620 C   0  0  0  0  0  0  0  0  0  0  0  0
   36.6600   28.7480   40.4070 C   0  0  2  0  0  0  0  0  0  0  0  0
   38.3810   26.5070   36.2520 H   0  0  0  0  0  0  0  0  0  0  0  0
   40.8050   27.1400   36.2470 H   0  0  0  0  0  0  0  0  0  0  0  0
   41.5830   28.9350   37.7930 H   0  0  0  0  0  0  0  0  0  0  0  0
   36.7140   31.2180   38.4620 H   0  0  0  0  0  0  0  0  0  0  0  0
   38.2820   31.4560   39.2600 H   0  0  0  0  0  0  0  0  0  0  0  0
   37.4010   31.8750   41.2960 H   0  0  0  0  0  0  0  0  0  0  0  0
   36.1230   32.5080   40.2430 H   0  0  0  0  0  0  0  0  0  0  0  0
   34.7200   31.2250   41.3890 H   0  0  0  0  0  0  0  0  0  0  0  0
   34.5300   28.9660   40.9580 H   0  0  0  0  0  0  0  0  0  0  0  0
   35.0820   29.8080   39.5170 H   0  0  0  0  0  0  0  0  0  0  0  0
   36.4840   27.7550   39.9760 H   0  0  0  0  0  0  0  0  0  0  0  0
   37.4080   28.5730   41.6980 C   0  0  0  0  0  0  0  0  0  0  0  0
   37.2040   29.3700   42.4250 H   0  0  0  0  0  0  0  0  0  0  0  0
   38.4950   28.5330   41.5430 H   0  0  0  0  0  0  0  0  0  0  0  0
   36.9790   27.2440   42.2660 C   0  0  0  0  0  3  0  0  0  0  0  0
   37.2630   26.1110   41.6330 C   0  0  0  0  0  3  0  0  0  0  0  0
   36.8990   24.7390   42.0870 C   0  0  0  0  0  0  0  0  0  0  0  0
   37.7820   24.2920   42.5850 H   0  0  0  0  0  0  0  0  0  0  0  0
   36.0910   24.7870   42.8340 H   0  0  0  0  0  0  0  0  0  0  0  0
   36.5020   23.9100   40.8910 C   0  0  2  0  0  0  0  0  0  0  0  0
   37.5940   23.3600   40.0220 C   0  0  0  0  0  0  0  0  0  0  0  0
   36.6870   24.4520   39.5230 C   0  0  1  0  0  0  0  0  0  0  0  0
   35.6580   23.2200   41.0930 H   0  0  0  0  0  0  0  0  0  0  0  0
   37.4520   22.3400   39.5960 H   0  0  0  0  0  0  0  0  0  0  0  0
   38.6530   23.6080   40.2180 H   0  0  0  0  0  0  0  0  0  0  0  0
   37.0520   25.4830   39.4480 H   0  0  0  0  0  0  0  0  0  0  0  0
   35.6810   24.1280   38.4600 C   0  0  0  0  0  0  0  0  0  0  0  0
   34.5610   23.3880   38.8080 C   0  0  0  0  0  3  0  0  0  0  0  0
   33.6660   23.1180   37.7840 C   0  0  0  0  0  0  0  0  0  0  0  0
   32.7990   22.5350   38.0910 H   0  0  0  0  0  0  0  0  0  0  0  0
   33.8430   23.5320   36.5260 N   0  0  0  0  0  0  0  0  0  0  0  0
   34.9460   24.2480   36.2320 C   0  0  0  0  0  3  0  0  0  0  0  0
   35.8590   24.5480   37.1750 N   0  0  0  0  0  0  0  0  0  0  0  0
  1  6  1  0  0  0  0
  2  1  2  0  0  0  0
  2  3  1  0  0  0  0
  3 15  1  0  0  0  0
  3  4  2  0  0  0  0
  5  4  1  0  0  0  0
  5  7  1  0  0  0  0
  6  5  2  0  0  0  0
  7 12  1  0  0  0  0
  8  7  1  0  0  0  0
  8  9  1  0  0  0  0
  9 10  1  0  0  0  0
  9 18  1  0  0  0  0
 10 20  1  0  0  0  0
 11 21  1  0  0  0  0
 11 10  1  0  0  0  0
 12 23  1  6  0  0  0
 12 11  1  0  0  0  0
 12 24  1  0  0  0  0
 13  1  1  0  0  0  0
 14  2  1  0  0  0  0
 16  8  1  0  0  0  0
 17  8  1  0  0  0  0
 19  9  1  0  0  0  0
 22 11  1  0  0  0  0
 24 27  1  0  0  0  0
 24 25  1  0  0  0  0
 26 24  1  0  0  0  0
 28 29  1  0  0  0  0
 28 27  2  0  0  0  0
 29 30  1  0  0  0  0
 29 31  1  0  0  0  0
 32 35  1  1  0  0  0
 32 29  1  0  0  0  0
 33 37  1  0  0  0  0
 33 32  1  0  0  0  0
 34 38  1  6  0  0  0
 34 33  1  0  0  0  0
 34 32  1  0  0  0  0
 36 33  1  0  0  0  0
 39 40  1  0  0  0  0
 39 34  1  0  0  0  0
 41 42  1  0  0  0  0
 41 40  2  0  0  0  0
 43 41  1  0  0  0  0
 44 43  2  0  0  0  0
 44 45  1  0  0  0  0
 45 39  2  0  0  0  0
M  END
>  <minimizedAffinity>
-5.12277937

$$$$
