
     RDKit          3D

 43 46  0  0  0  0  0  0  0  0999 V2000
   45.7936   34.1283   41.0717 C   0  0  0  0  0  0  0  0  0  0  0  0
   46.4225   34.7508   42.1530 C   0  0  0  0  0  0  0  0  0  0  0  0
   47.7747   35.0931   41.9894 C   0  0  0  0  0  0  0  0  0  0  0  0
   48.3778   34.7965   40.7942 N   0  0  0  0  0  0  0  0  0  0  0  0
   47.7270   34.2039   39.8042 C   0  0  0  0  0  0  0  0  0  0  0  0
   46.4346   33.8669   39.9359 N   0  0  0  0  0  0  0  0  0  0  0  0
   45.6877   35.0191   43.3764 C   0  0  0  0  0  0  0  0  0  0  0  0
   45.0414   36.2387   43.6092 C   0  0  0  0  0  0  0  0  0  0  0  0
   44.4825   36.0776   44.8536 C   0  0  0  0  0  0  0  0  0  0  0  0
   44.7664   34.8596   45.3367 N   0  0  0  0  0  0  0  0  0  0  0  0
   45.4931   34.2372   44.4324 N   0  0  0  0  0  0  0  0  0  0  0  0
   44.4715   33.7911   41.2250 O   0  0  0  0  0  0  0  0  0  0  0  0
   43.3854   34.4663   40.7663 C   0  0  0  0  0  0  0  0  0  0  0  0
   43.2993   35.7203   40.5447 O   0  0  0  0  0  0  0  0  0  0  0  0
   42.0428   34.0560   40.3913 N   0  0  0  0  0  0  0  0  0  0  0  0
   41.6868   34.3287   39.0194 C   0  0  0  0  0  0  0  0  0  0  0  0
   40.8441   35.6212   39.0781 C   0  0  0  0  0  0  0  0  0  0  0  0
   40.0310   35.5416   40.3828 C   0  0  0  0  0  0  0  0  0  0  0  0
   39.7219   34.1033   40.7371 C   0  0  0  0  0  0  0  0  0  0  0  0
   41.0178   33.4170   41.1937 C   0  0  1  0  0  0  0  0  0  0  0  0
   48.2829   35.5771   42.8157 H   0  0  0  0  0  0  0  0  0  0  0  0
   48.2985   34.0113   38.8927 H   0  0  0  0  0  0  0  0  0  0  0  0
   44.9535   37.1381   43.0114 H   0  0  0  0  0  0  0  0  0  0  0  0
   43.8790   36.7524   45.4693 H   0  0  0  0  0  0  0  0  0  0  0  0
   44.5681   34.3096   46.2010 H   0  0  0  0  0  0  0  0  0  0  0  0
   42.5405   34.5656   38.3647 H   0  0  0  0  0  0  0  0  0  0  0  0
   41.0330   33.5355   38.5929 H   0  0  0  0  0  0  0  0  0  0  0  0
   40.1494   35.6555   38.1976 H   0  0  0  0  0  0  0  0  0  0  0  0
   41.4967   36.5053   39.1208 H   0  0  0  0  0  0  0  0  0  0  0  0
   40.6140   36.0452   41.1859 H   0  0  0  0  0  0  0  0  0  0  0  0
   39.0891   36.0605   40.1606 H   0  0  0  0  0  0  0  0  0  0  0  0
   38.9603   34.1286   41.5368 H   0  0  0  0  0  0  0  0  0  0  0  0
   39.3247   33.6419   39.8225 H   0  0  0  0  0  0  0  0  0  0  0  0
   41.2067   33.7294   42.2399 H   0  0  0  0  0  0  0  0  0  0  0  0
   40.9364   31.9536   41.0007 C   0  0  0  0  0  0  0  0  0  0  0  0
   41.9400   31.0411   41.2292 C   0  0  0  0  0  0  0  0  0  0  0  0
   41.7993   29.6925   41.0293 C   0  0  0  0  0  0  0  0  0  0  0  0
   42.6739   29.0595   41.2468 H   0  0  0  0  0  0  0  0  0  0  0  0
   40.6214   29.2201   40.5860 N   0  0  0  0  0  0  0  0  0  0  0  0
   39.6091   30.0972   40.3506 C   0  0  0  0  0  0  0  0  0  0  0  0
   39.7610   31.4314   40.5525 N   0  0  0  0  0  0  0  0  0  0  0  0
   42.8828   31.4320   41.5857 H   0  0  0  0  0  0  0  0  0  0  0  0
   38.6898   29.6528   39.9960 H   0  0  0  0  0  0  0  0  0  0  0  0
  1 12  1  0
  1  2  1  0
  2  7  1  0
  3  2  2  0
  4  3  1  0
  5  6  1  0
  5  4  2  0
  6  1  2  0
  7  8  1  0
  7 11  2  0
  8  9  2  0
  9 10  1  0
 11 10  1  0
 13 12  1  0
 14 13  2  0
 15 13  1  0
 15 20  1  0
 16 17  1  0
 16 15  1  0
 17 18  1  0
 18 19  1  0
 19 20  1  0
  3 21  1  0
  5 22  1  0
  8 23  1  0
  9 24  1  0
 10 25  1  0
 16 26  1  0
 16 27  1  0
 17 28  1  0
 17 29  1  0
 18 30  1  0
 18 31  1  0
 19 32  1  0
 19 33  1  0
 20 34  1  1
 35 36  2  0
 36 37  1  0
 37 38  1  0
 37 39  2  0
 39 40  1  0
 40 41  2  0
 41 35  1  0
 36 42  1  0
 40 43  1  0
 20 35  1  0
M  ISO  8  21  14  22  14  23  14  24  14  25   9  26  13  27  13  28  13
M  ISO  7  29  13  30  13  31  13  32  13  33  13  34  13  38  14
M  END
>  <DihAtoms>  (1) 
14,19,34,35

>  <DihDeg>  (1) 
44.70521610526174

$$$$
