
     RDKit          3D

 31 33  0  0  0  0  0  0  0  0999 V2000
   44.9042   35.0443   43.5600 C   0  0  0  0  0  0  0  0  0  0  0  0
   45.2853   34.9174   42.2167 C   0  0  0  0  0  0  0  0  0  0  0  0
   46.3963   34.1213   41.8636 C   0  0  0  0  0  0  0  0  0  0  0  0
   47.0279   33.5211   42.8973 N   0  0  0  0  0  0  0  0  0  0  0  0
   46.6571   33.6486   44.1690 C   0  0  0  0  0  0  0  0  0  0  0  0
   45.5858   34.4177   44.4968 N   0  0  0  0  0  0  0  0  0  0  0  0
   43.7947   35.8487   43.8631 N   0  0  0  0  0  0  0  0  0  0  0  0
   47.9648   34.6431   40.0948 C   0  0  0  0  0  0  0  0  0  0  0  0
   46.8110   33.9743   40.4822 C   0  0  0  0  0  0  0  0  0  0  0  0
   46.1693   33.2404   39.5332 C   0  0  0  0  0  0  0  0  0  0  0  0
   46.6188   33.1405   38.2224 C   0  0  0  0  0  0  0  0  0  0  0  0
   47.7630   33.8162   37.8773 C   0  0  0  0  0  0  0  0  0  0  0  0
   48.4326   34.5630   38.8061 C   0  0  0  0  0  0  0  0  0  0  0  0
   49.3242   36.0721   41.8169 N   0  0  0  0  0  0  0  0  0  0  0  0
   48.7010   35.4334   41.0363 C   0  0  0  0  0  0  0  0  0  0  0  0
   44.7275   35.4321   41.4323 H   0  0  0  0  0  0  0  0  0  0  0  0
   47.2546   33.1110   44.8937 H   0  0  0  0  0  0  0  0  0  0  0  0
   43.0178   36.1074   43.2158 H   0  0  0  0  0  0  0  0  0  0  0  0
   43.7124   36.2416   44.8252 H   0  0  0  0  0  0  0  0  0  0  0  0
   45.2629   32.7112   39.8259 H   0  0  0  0  0  0  0  0  0  0  0  0
   46.0573   32.5368   37.5161 H   0  0  0  0  0  0  0  0  0  0  0  0
   48.0619   33.7017   36.8509 H   0  0  0  0  0  0  0  0  0  0  0  0
   49.6480   35.2815   38.4414 C   0  0  0  0  0  0  0  0  0  0  0  0
   49.7890   36.6373   38.5378 C   0  0  0  0  0  0  0  0  0  0  0  0
   50.9364   37.3214   38.1942 C   0  0  0  0  0  0  0  0  0  0  0  0
   51.0090   38.4064   38.2860 H   0  0  0  0  0  0  0  0  0  0  0  0
   51.9988   36.6521   37.7341 N   0  0  0  0  0  0  0  0  0  0  0  0
   51.8858   35.3105   37.6290 C   0  0  0  0  0  0  0  0  0  0  0  0
   50.7564   34.6707   37.9709 N   0  0  0  0  0  0  0  0  0  0  0  0
   48.9935   37.2515   38.8947 H   0  0  0  0  0  0  0  0  0  0  0  0
   52.6797   34.6449   37.2672 H   0  0  0  0  0  0  0  0  0  0  0  0
  1  7  1  0
  1  6  2  0
  2  1  1  0
  3  2  2  0
  3  4  1  0
  4  5  2  0
  5  6  1  0
  8  9  2  0
  8 15  1  0
  9  3  1  0
 10  9  1  0
 11 10  2  0
 12 11  1  0
 12 13  2  0
 13  8  1  0
 15 14  3  0
  2 16  1  0
  5 17  1  0
  7 18  1  0
  7 19  1  0
 10 20  1  0
 11 21  1  0
 12 22  1  0
 23 24  2  0
 24 25  1  0
 25 26  1  0
 25 27  2  0
 27 28  1  0
 28 29  2  0
 29 23  1  0
 24 30  1  0
 28 31  1  0
 13 23  1  0
M  ISO  6  16  14  17  14  20  14  21  14  22  14  26  14
M  END
>  <DihAtoms>  (1) 
11,12,22,23

>  <DihDeg>  (1) 
-0.0035857494356814645

$$$$
