
 OpenBabel03252509313D

 25 26  0  0  0  0  0  0  0  0999 V2000
   48.2400   33.2810   43.1200 O   0  0  0  0  0  0  0  0  0  0  0  0
   47.1410   34.0360   42.7000 C   0  0  0  0  0  0  0  0  0  0  0  0
   47.4170   34.9600   42.1620 H   0  0  0  0  0  0  0  0  0  0  0  0
   46.5200   33.4470   41.9630 H   0  0  0  0  0  0  0  0  0  0  0  0
   45.4510   33.9060   46.0350 C   0  0  0  0  0  0  0  0  0  0  0  0
   46.3040   33.5770   44.9720 C   0  0  0  0  0  0  0  0  0  0  0  0
   46.2590   34.3580   43.8270 C   0  0  0  0  0  0  0  0  0  0  0  0
   45.3900   35.4080   43.7900 N   0  0  0  0  0  0  0  0  0  0  0  0
   44.5710   35.7070   44.8400 C   0  0  0  0  0  0  0  0  0  0  0  0
   44.6130   34.9530   45.9450 N   0  0  0  0  0  0  0  0  0  0  0  0
   45.5380   33.2480   46.9090 H   0  0  0  0  0  0  0  0  0  0  0  0
   46.9790   32.7210   45.0620 H   0  0  0  0  0  0  0  0  0  0  0  0
   43.8830   36.5320   44.8200 H   0  0  0  0  0  0  0  0  0  0  0  0
   50.6290   32.8240   42.1590 O   0  0  0  0  0  0  0  0  0  0  0  0
   49.5850   33.9040   42.3200 P   0  0  2  0  0  0  0  0  0  0  0  0
   50.1580   35.2170   43.2030 O   0  0  0  0  0  0  0  0  0  0  0  0
   51.1290   35.1630   43.2870 H   0  0  0  0  0  0  0  0  0  0  0  0
   49.1090   34.3780   40.7790 O   0  0  0  0  0  0  0  0  0  0  0  0
   48.5580   33.4410   39.9170 C   0  0  0  0  0  0  0  0  0  0  0  0
   47.7240   33.9370   38.9100 C   0  0  0  0  0  3  0  0  0  0  0  0
   47.1270   33.0740   37.9990 C   0  0  0  0  0  0  0  0  0  0  0  0
   46.4680   33.4430   37.2000 H   0  0  0  0  0  0  0  0  0  0  0  0
   47.3870   31.7540   38.1330 N   0  0  0  0  0  0  0  0  0  0  0  0
   48.1930   31.3120   39.1120 C   0  0  0  0  0  3  0  0  0  0  0  0
   48.7700   32.1220   39.9880 N   0  0  0  0  0  0  0  0  0  0  0  0
  2  1  1  0  0  0  0
  2  7  1  0  0  0  0
  3  2  1  0  0  0  0
  4  2  1  0  0  0  0
  5 11  1  0  0  0  0
  6 12  1  0  0  0  0
  6  5  2  0  0  0  0
  7  6  1  0  0  0  0
  8  7  2  0  0  0  0
  8  9  1  0  0  0  0
  9 10  2  0  0  0  0
 10  5  1  0  0  0  0
 13  9  1  0  0  0  0
 15 14  2  6  0  0  0
 15  1  1  0  0  0  0
 15 16  1  0  0  0  0
 16 17  1  0  0  0  0
 18 15  1  0  0  0  0
 19 25  1  0  0  0  0
 19 18  1  0  0  0  0
 20 19  2  0  0  0  0
 21 23  2  0  0  0  0
 21 20  1  0  0  0  0
 22 21  1  0  0  0  0
 23 24  1  0  0  0  0
 24 25  2  0  0  0  0
M  END
>  <minimizedAffinity>
-4.57480383

>  <minimizedRMSD>
0.803428411

$$$$
