
 OpenBabel03252505503D

 20 21  0  0  0  0  0  0  0  0999 V2000
   38.6960   31.1830   41.0080 C   0  0  0  0  0  0  0  0  0  0  0  0
   37.5380   31.4610   40.2980 C   0  0  0  0  0  0  0  0  0  0  0  0
   36.3740   30.7940   40.6870 C   0  0  0  0  0  0  0  0  0  0  0  0
   36.4190   29.9300   41.7120 N   0  0  0  0  0  0  0  0  0  0  0  0
   37.5740   29.6850   42.3830 C   0  0  0  0  0  0  0  0  0  0  0  0
   38.7000   30.3010   42.0410 N   0  0  0  0  0  0  0  0  0  0  0  0
   39.6410   31.6570   40.7720 H   0  0  0  0  0  0  0  0  0  0  0  0
   35.4880   31.0310   40.1150 H   0  0  0  0  0  0  0  0  0  0  0  0
   37.6390   32.4360   39.1820 C   0  0  0  0  0  0  0  0  0  0  0  0
   38.9930   32.6540   38.9970 F   0  0  0  0  0  0  0  0  0  0  0  0
   36.9860   33.5800   39.5460 F   0  0  0  0  0  0  0  0  0  0  0  0
   37.0490   31.8560   38.0590 F   0  0  0  0  0  0  0  0  0  0  0  0
   37.6060   28.7860   43.4430 O   0  0  0  0  0  0  0  0  0  0  0  0
   38.0850   27.4980   43.1540 C   0  0  0  0  0  0  0  0  0  0  0  0
   39.3030   27.0540   43.6440 C   0  0  0  0  0  3  0  0  0  0  0  0
   39.6940   25.7550   43.3010 C   0  0  0  0  0  0  0  0  0  0  0  0
   40.6320   25.3510   43.6530 H   0  0  0  0  0  0  0  0  0  0  0  0
   38.9180   24.9670   42.5240 N   0  0  0  0  0  0  0  0  0  0  0  0
   37.7410   25.4330   42.0660 C   0  0  0  0  0  3  0  0  0  0  0  0
   37.3130   26.6930   42.3730 N   0  0  0  0  0  0  0  0  0  0  0  0
  1  6  1  0  0  0  0
  2  3  1  0  0  0  0
  2  1  2  0  0  0  0
  3  4  2  0  0  0  0
  4  5  1  0  0  0  0
  5 13  1  0  0  0  0
  6  5  2  0  0  0  0
  7  1  1  0  0  0  0
  8  3  1  0  0  0  0
  9 11  1  0  0  0  0
  9  2  1  0  0  0  0
 10  9  1  0  0  0  0
 12  9  1  0  0  0  0
 14 13  1  0  0  0  0
 14 15  1  0  0  0  0
 16 15  2  0  0  0  0
 16 17  1  0  0  0  0
 18 16  1  0  0  0  0
 19 20  1  0  0  0  0
 19 18  2  0  0  0  0
 20 14  2  0  0  0  0
M  END
>  <minimizedAffinity>
-4.78127241

$$$$

 OpenBabel03252505503D

 20 21  0  0  0  0  0  0  0  0999 V2000
   36.5600   30.8150   40.7160 C   0  0  0  0  0  0  0  0  0  0  0  0
   37.7410   31.4670   40.3920 C   0  0  0  0  0  0  0  0  0  0  0  0
   38.8750   31.1430   41.1400 C   0  0  0  0  0  0  0  0  0  0  0  0
   38.7820   30.2330   42.1220 N   0  0  0  0  0  0  0  0  0  0  0  0
   37.6060   29.6170   42.4080 C   0  0  0  0  0  0  0  0  0  0  0  0
   36.5080   29.9000   41.7180 N   0  0  0  0  0  0  0  0  0  0  0  0
   35.6350   31.0070   40.1850 H   0  0  0  0  0  0  0  0  0  0  0  0
   39.7800   31.6670   40.8650 H   0  0  0  0  0  0  0  0  0  0  0  0
   37.6930   32.4540   39.2840 C   0  0  0  0  0  0  0  0  0  0  0  0
   37.0770   33.5770   39.8080 F   0  0  0  0  0  0  0  0  0  0  0  0
   36.9760   31.9160   38.2540 F   0  0  0  0  0  0  0  0  0  0  0  0
   39.0080   32.7180   38.8970 F   0  0  0  0  0  0  0  0  0  0  0  0
   37.5240   28.6780   43.4290 O   0  0  0  0  0  0  0  0  0  0  0  0
   38.0400   27.4030   43.1480 C   0  0  0  0  0  0  0  0  0  0  0  0
   39.2470   26.9780   43.6790 C   0  0  0  0  0  3  0  0  0  0  0  0
   39.6760   25.6900   43.3400 C   0  0  0  0  0  0  0  0  0  0  0  0
   40.6080   25.3020   43.7240 H   0  0  0  0  0  0  0  0  0  0  0  0
   38.9460   24.8950   42.5280 N   0  0  0  0  0  0  0  0  0  0  0  0
   37.7780   25.3410   42.0290 C   0  0  0  0  0  3  0  0  0  0  0  0
   37.3140   26.5900   42.3300 N   0  0  0  0  0  0  0  0  0  0  0  0
  1  6  1  0  0  0  0
  2  1  2  0  0  0  0
  2  3  1  0  0  0  0
  3  4  2  0  0  0  0
  4  5  1  0  0  0  0
  5 13  1  0  0  0  0
  6  5  2  0  0  0  0
  7  1  1  0  0  0  0
  8  3  1  0  0  0  0
  9 10  1  0  0  0  0
  9  2  1  0  0  0  0
 11  9  1  0  0  0  0
 12  9  1  0  0  0  0
 14 13  1  0  0  0  0
 14 15  1  0  0  0  0
 16 15  2  0  0  0  0
 16 17  1  0  0  0  0
 18 16  1  0  0  0  0
 19 20  1  0  0  0  0
 19 18  2  0  0  0  0
 20 14  2  0  0  0  0
M  END
>  <minimizedAffinity>
-4.76726007

$$$$

 OpenBabel03252505503D

 20 21  0  0  0  0  0  0  0  0999 V2000
   37.1900   26.2040   40.5540 C   0  0  0  0  0  0  0  0  0  0  0  0
   37.6200   26.0880   41.8680 C   0  0  0  0  0  0  0  0  0  0  0  0
   37.3040   27.1350   42.7380 C   0  0  0  0  0  0  0  0  0  0  0  0
   36.6120   28.1880   42.2800 N   0  0  0  0  0  0  0  0  0  0  0  0
   36.2080   28.2640   40.9860 C   0  0  0  0  0  0  0  0  0  0  0  0
   36.4910   27.2890   40.1310 N   0  0  0  0  0  0  0  0  0  0  0  0
   37.3920   25.4380   39.8150 H   0  0  0  0  0  0  0  0  0  0  0  0
   37.6520   27.0160   43.7540 H   0  0  0  0  0  0  0  0  0  0  0  0
   38.3830   24.8670   42.2310 C   0  0  0  0  0  0  0  0  0  0  0  0
   39.2020   25.2360   43.2830 F   0  0  0  0  0  0  0  0  0  0  0  0
   39.1040   24.4660   41.1420 F   0  0  0  0  0  0  0  0  0  0  0  0
   37.4600   23.8910   42.6090 F   0  0  0  0  0  0  0  0  0  0  0  0
   35.4930   29.3630   40.5260 O   0  0  0  0  0  0  0  0  0  0  0  0
   36.2440   30.4060   39.9600 C   0  0  0  0  0  0  0  0  0  0  0  0
   36.5300   30.4370   38.6050 C   0  0  0  0  0  3  0  0  0  0  0  0
   37.2860   31.5170   38.1360 C   0  0  0  0  0  0  0  0  0  0  0  0
   37.5400   31.5990   37.0900 H   0  0  0  0  0  0  0  0  0  0  0  0
   37.7190   32.4880   38.9700 N   0  0  0  0  0  0  0  0  0  0  0  0
   37.4230   32.4240   40.2820 C   0  0  0  0  0  3  0  0  0  0  0  0
   36.6880   31.3920   40.7890 N   0  0  0  0  0  0  0  0  0  0  0  0
  1  2  1  0  0  0  0
  2  9  1  0  0  0  0
  2  3  2  0  0  0  0
  3  8  1  0  0  0  0
  4  3  1  0  0  0  0
  5  4  2  0  0  0  0
  6  1  2  0  0  0  0
  6  5  1  0  0  0  0
  7  1  1  0  0  0  0
  9 12  1  0  0  0  0
  9 10  1  0  0  0  0
 11  9  1  0  0  0  0
 13  5  1  0  0  0  0
 14 13  1  0  0  0  0
 14 20  1  0  0  0  0
 15 14  2  0  0  0  0
 16 15  1  0  0  0  0
 16 18  2  0  0  0  0
 17 16  1  0  0  0  0
 18 19  1  0  0  0  0
 19 20  2  0  0  0  0
M  END
>  <minimizedAffinity>
-4.55064917

$$$$

 OpenBabel03252505503D

 20 21  0  0  0  0  0  0  0  0999 V2000
   36.8040   31.1610   40.8220 C   0  0  0  0  0  0  0  0  0  0  0  0
   37.4140   31.0130   39.5860 C   0  0  0  0  0  0  0  0  0  0  0  0
   37.7180   29.7120   39.1760 C   0  0  0  0  0  0  0  0  0  0  0  0
   37.4150   28.6790   39.9770 N   0  0  0  0  0  0  0  0  0  0  0  0
   36.8170   28.8670   41.1810 C   0  0  0  0  0  0  0  0  0  0  0  0
   36.5130   30.0890   41.6030 N   0  0  0  0  0  0  0  0  0  0  0  0
   36.5340   32.1340   41.2150 H   0  0  0  0  0  0  0  0  0  0  0  0
   38.1930   29.6280   38.2090 H   0  0  0  0  0  0  0  0  0  0  0  0
   37.6950   32.2470   38.8100 C   0  0  0  0  0  0  0  0  0  0  0  0
   37.0550   32.0810   37.5950 F   0  0  0  0  0  0  0  0  0  0  0  0
   39.0470   32.3660   38.6600 F   0  0  0  0  0  0  0  0  0  0  0  0
   37.1730   33.3250   39.5290 F   0  0  0  0  0  0  0  0  0  0  0  0
   36.5100   27.7870   42.0000 O   0  0  0  0  0  0  0  0  0  0  0  0
   37.5950   27.0260   42.4630 C   0  0  0  0  0  0  0  0  0  0  0  0
   38.5750   27.5810   43.2700 C   0  0  0  0  0  3  0  0  0  0  0  0
   39.6170   26.7410   43.6800 C   0  0  0  0  0  0  0  0  0  0  0  0
   40.4100   27.1150   44.3100 H   0  0  0  0  0  0  0  0  0  0  0  0
   39.6650   25.4440   43.3040 N   0  0  0  0  0  0  0  0  0  0  0  0
   38.6960   24.9390   42.5190 C   0  0  0  0  0  3  0  0  0  0  0  0
   37.6570   25.7160   42.0930 N   0  0  0  0  0  0  0  0  0  0  0  0
  1  7  1  0  0  0  0
  1  6  1  0  0  0  0
  2  1  2  0  0  0  0
  3  2  1  0  0  0  0
  3  4  2  0  0  0  0
  4  5  1  0  0  0  0
  5  6  2  0  0  0  0
  5 13  1  0  0  0  0
  8  3  1  0  0  0  0
  9 12  1  0  0  0  0
  9  2  1  0  0  0  0
 10  9  1  0  0  0  0
 11  9  1  0  0  0  0
 13 14  1  0  0  0  0
 14 15  1  0  0  0  0
 15 16  2  0  0  0  0
 16 17  1  0  0  0  0
 18 16  1  0  0  0  0
 19 18  2  0  0  0  0
 20 14  2  0  0  0  0
 20 19  1  0  0  0  0
M  END
>  <minimizedAffinity>
-4.48090982

$$$$

 OpenBabel03252505503D

 20 21  0  0  0  0  0  0  0  0999 V2000
   38.7560   29.5100   42.3880 C   0  0  0  0  0  0  0  0  0  0  0  0
   37.5550   28.8390   42.2050 C   0  0  0  0  0  0  0  0  0  0  0  0
   36.5660   29.4910   41.4650 C   0  0  0  0  0  0  0  0  0  0  0  0
   36.8090   30.7140   40.9700 N   0  0  0  0  0  0  0  0  0  0  0  0
   37.9990   31.3380   41.1720 C   0  0  0  0  0  0  0  0  0  0  0  0
   38.9620   30.7480   41.8700 N   0  0  0  0  0  0  0  0  0  0  0  0
   39.5750   29.0760   42.9490 H   0  0  0  0  0  0  0  0  0  0  0  0
   35.6420   28.9440   41.3390 H   0  0  0  0  0  0  0  0  0  0  0  0
   37.4260   27.4920   42.8160 C   0  0  0  0  0  0  0  0  0  0  0  0
   36.2080   27.4940   43.4730 F   0  0  0  0  0  0  0  0  0  0  0  0
   38.4680   27.3060   43.6790 F   0  0  0  0  0  0  0  0  0  0  0  0
   37.4570   26.5550   41.7820 F   0  0  0  0  0  0  0  0  0  0  0  0
   38.2360   32.6050   40.6540 O   0  0  0  0  0  0  0  0  0  0  0  0
   39.2180   32.6980   39.6550 C   0  0  0  0  0  0  0  0  0  0  0  0
   40.2850   33.5740   39.7720 C   0  0  0  0  0  3  0  0  0  0  0  0
   41.2130   33.5940   38.7240 C   0  0  0  0  0  0  0  0  0  0  0  0
   42.0670   34.2540   38.7560 H   0  0  0  0  0  0  0  0  0  0  0  0
   41.0730   32.7930   37.6440 N   0  0  0  0  0  0  0  0  0  0  0  0
   40.0230   31.9550   37.5650 C   0  0  0  0  0  3  0  0  0  0  0  0
   39.0900   31.8970   38.5610 N   0  0  0  0  0  0  0  0  0  0  0  0
  1  7  1  0  0  0  0
  2  1  1  0  0  0  0
  2  9  1  0  0  0  0
  3  2  2  0  0  0  0
  4  5  2  0  0  0  0
  4  3  1  0  0  0  0
  5  6  1  0  0  0  0
  6  1  2  0  0  0  0
  8  3  1  0  0  0  0
  9 10  1  0  0  0  0
  9 11  1  0  0  0  0
 12  9  1  0  0  0  0
 13  5  1  0  0  0  0
 14 15  1  0  0  0  0
 14 13  1  0  0  0  0
 16 17  1  0  0  0  0
 16 15  2  0  0  0  0
 18 16  1  0  0  0  0
 19 18  2  0  0  0  0
 19 20  1  0  0  0  0
 20 14  2  0  0  0  0
M  END
>  <minimizedAffinity>
-4.46602964

$$$$

 OpenBabel03252505503D

 20 21  0  0  0  0  0  0  0  0999 V2000
   36.8250   26.7230   40.4130 C   0  0  0  0  0  0  0  0  0  0  0  0
   37.0980   26.0670   41.6050 C   0  0  0  0  0  0  0  0  0  0  0  0
   37.0860   26.8330   42.7730 C   0  0  0  0  0  0  0  0  0  0  0  0
   36.8170   28.1450   42.7000 N   0  0  0  0  0  0  0  0  0  0  0  0
   36.5540   28.7500   41.5130 C   0  0  0  0  0  0  0  0  0  0  0  0
   36.5570   28.0530   40.3830 N   0  0  0  0  0  0  0  0  0  0  0  0
   36.8140   26.2030   39.4630 H   0  0  0  0  0  0  0  0  0  0  0  0
   37.3020   26.2940   43.6850 H   0  0  0  0  0  0  0  0  0  0  0  0
   37.3850   24.6110   41.5320 C   0  0  0  0  0  0  0  0  0  0  0  0
   36.1520   23.9920   41.4230 F   0  0  0  0  0  0  0  0  0  0  0  0
   38.0400   24.2410   42.6720 F   0  0  0  0  0  0  0  0  0  0  0  0
   38.1770   24.3930   40.4040 F   0  0  0  0  0  0  0  0  0  0  0  0
   36.2780   30.1110   41.4530 O   0  0  0  0  0  0  0  0  0  0  0  0
   37.2220   30.9110   40.7880 C   0  0  0  0  0  0  0  0  0  0  0  0
   36.8860   31.6320   39.6540 C   0  0  0  0  0  3  0  0  0  0  0  0
   37.8960   32.4000   39.0630 C   0  0  0  0  0  0  0  0  0  0  0  0
   37.6970   32.9850   38.1780 H   0  0  0  0  0  0  0  0  0  0  0  0
   39.1460   32.4350   39.5770 N   0  0  0  0  0  0  0  0  0  0  0  0
   39.4360   31.7210   40.6800 C   0  0  0  0  0  3  0  0  0  0  0  0
   38.4860   30.9570   41.2950 N   0  0  0  0  0  0  0  0  0  0  0  0
  1  2  1  0  0  0  0
  2  3  2  0  0  0  0
  3  8  1  0  0  0  0
  4  3  1  0  0  0  0
  5  4  2  0  0  0  0
  6  1  2  0  0  0  0
  6  5  1  0  0  0  0
  7  1  1  0  0  0  0
  9  2  1  0  0  0  0
  9 11  1  0  0  0  0
 10  9  1  0  0  0  0
 12  9  1  0  0  0  0
 13  5  1  0  0  0  0
 14 20  1  0  0  0  0
 14 13  1  0  0  0  0
 15 14  2  0  0  0  0
 16 18  2  0  0  0  0
 16 15  1  0  0  0  0
 17 16  1  0  0  0  0
 18 19  1  0  0  0  0
 19 20  2  0  0  0  0
M  END
>  <minimizedAffinity>
-4.43901682

$$$$

 OpenBabel03252505503D

 20 21  0  0  0  0  0  0  0  0999 V2000
   36.8170   27.4300   40.4370 C   0  0  0  0  0  0  0  0  0  0  0  0
   37.3360   27.6080   41.7110 C   0  0  0  0  0  0  0  0  0  0  0  0
   38.0450   28.7880   41.9520 C   0  0  0  0  0  0  0  0  0  0  0  0
   38.1920   29.6840   40.9650 N   0  0  0  0  0  0  0  0  0  0  0  0
   37.6670   29.4730   39.7310 C   0  0  0  0  0  0  0  0  0  0  0  0
   36.9880   28.3630   39.4650 N   0  0  0  0  0  0  0  0  0  0  0  0
   36.2540   26.5450   40.1660 H   0  0  0  0  0  0  0  0  0  0  0  0
   38.4380   28.8980   42.9530 H   0  0  0  0  0  0  0  0  0  0  0  0
   37.0990   26.5280   42.7010 C   0  0  0  0  0  0  0  0  0  0  0  0
   38.3340   26.2580   43.2640 F   0  0  0  0  0  0  0  0  0  0  0  0
   36.5910   25.4430   42.0460 F   0  0  0  0  0  0  0  0  0  0  0  0
   36.1940   27.0130   43.6470 F   0  0  0  0  0  0  0  0  0  0  0  0
   37.8290   30.4100   38.7170 O   0  0  0  0  0  0  0  0  0  0  0  0
   38.2430   31.6920   39.1120 C   0  0  0  0  0  0  0  0  0  0  0  0
   37.3280   32.6610   39.4910 C   0  0  0  0  0  3  0  0  0  0  0  0
   37.8390   33.9080   39.8690 C   0  0  0  0  0  0  0  0  0  0  0  0
   37.1760   34.7040   40.1760 H   0  0  0  0  0  0  0  0  0  0  0  0
   39.1670   34.1570   39.8630 N   0  0  0  0  0  0  0  0  0  0  0  0
   40.0260   33.1910   39.4880 C   0  0  0  0  0  3  0  0  0  0  0  0
   39.5790   31.9570   39.1120 N   0  0  0  0  0  0  0  0  0  0  0  0
  1  2  1  0  0  0  0
  2  3  2  0  0  0  0
  2  9  1  0  0  0  0
  3  8  1  0  0  0  0
  4  3  1  0  0  0  0
  5  4  2  0  0  0  0
  6  5  1  0  0  0  0
  6  1  2  0  0  0  0
  7  1  1  0  0  0  0
  9 10  1  0  0  0  0
  9 12  1  0  0  0  0
 11  9  1  0  0  0  0
 13 14  1  0  0  0  0
 13  5  1  0  0  0  0
 14 15  1  0  0  0  0
 15 16  2  0  0  0  0
 16 17  1  0  0  0  0
 18 16  1  0  0  0  0
 19 18  2  0  0  0  0
 20 14  2  0  0  0  0
 20 19  1  0  0  0  0
M  END
>  <minimizedAffinity>
-4.41826296

$$$$

 OpenBabel03252505503D

 20 21  0  0  0  0  0  0  0  0999 V2000
   37.1830   30.2780   41.3340 C   0  0  0  0  0  0  0  0  0  0  0  0
   38.3220   31.0700   41.3350 C   0  0  0  0  0  0  0  0  0  0  0  0
   39.4050   30.6290   42.0990 C   0  0  0  0  0  0  0  0  0  0  0  0
   39.3060   29.4820   42.7870 N   0  0  0  0  0  0  0  0  0  0  0  0
   38.1720   28.7350   42.7610 C   0  0  0  0  0  0  0  0  0  0  0  0
   37.1230   29.1230   42.0460 N   0  0  0  0  0  0  0  0  0  0  0  0
   36.2990   30.5460   40.7690 H   0  0  0  0  0  0  0  0  0  0  0  0
   40.2780   31.2660   42.0790 H   0  0  0  0  0  0  0  0  0  0  0  0
   38.2860   32.3170   40.5290 C   0  0  0  0  0  0  0  0  0  0  0  0
   39.1110   32.0850   39.4430 F   0  0  0  0  0  0  0  0  0  0  0  0
   38.7430   33.3460   41.3030 F   0  0  0  0  0  0  0  0  0  0  0  0
   36.9630   32.5300   40.1400 F   0  0  0  0  0  0  0  0  0  0  0  0
   38.0830   27.5490   43.4800 O   0  0  0  0  0  0  0  0  0  0  0  0
   38.2350   26.3610   42.7480 C   0  0  0  0  0  0  0  0  0  0  0  0
   37.1400   25.6010   42.3700 C   0  0  0  0  0  3  0  0  0  0  0  0
   37.3940   24.4330   41.6420 C   0  0  0  0  0  0  0  0  0  0  0  0
   36.5820   23.7990   41.3180 H   0  0  0  0  0  0  0  0  0  0  0  0
   38.6540   24.0620   41.3220 N   0  0  0  0  0  0  0  0  0  0  0  0
   39.6930   24.8260   41.7070 C   0  0  0  0  0  3  0  0  0  0  0  0
   39.4990   25.9750   42.4180 N   0  0  0  0  0  0  0  0  0  0  0  0
  1  2  2  0  0  0  0
  1  6  1  0  0  0  0
  2  3  1  0  0  0  0
  3  4  2  0  0  0  0
  5  4  1  0  0  0  0
  5 13  1  0  0  0  0
  6  5  2  0  0  0  0
  7  1  1  0  0  0  0
  8  3  1  0  0  0  0
  9 11  1  0  0  0  0
  9  2  1  0  0  0  0
 10  9  1  0  0  0  0
 12  9  1  0  0  0  0
 14 13  1  0  0  0  0
 15 14  2  0  0  0  0
 16 15  1  0  0  0  0
 17 16  1  0  0  0  0
 18 16  2  0  0  0  0
 18 19  1  0  0  0  0
 19 20  2  0  0  0  0
 20 14  1  0  0  0  0
M  END
>  <minimizedAffinity>
-4.29588366

$$$$

 OpenBabel03252505503D

 20 21  0  0  0  0  0  0  0  0999 V2000
   38.1880   30.0190   41.6340 C   0  0  0  0  0  0  0  0  0  0  0  0
   36.9190   29.9200   41.0820 C   0  0  0  0  0  0  0  0  0  0  0  0
   36.4110   31.0530   40.4420 C   0  0  0  0  0  0  0  0  0  0  0  0
   37.1540   32.1690   40.3840 N   0  0  0  0  0  0  0  0  0  0  0  0
   38.3930   32.2250   40.9370 C   0  0  0  0  0  0  0  0  0  0  0  0
   38.9080   31.1680   41.5540 N   0  0  0  0  0  0  0  0  0  0  0  0
   38.6560   29.1880   42.1470 H   0  0  0  0  0  0  0  0  0  0  0  0
   35.4200   30.9460   40.0220 H   0  0  0  0  0  0  0  0  0  0  0  0
   36.2110   28.6230   41.2270 C   0  0  0  0  0  0  0  0  0  0  0  0
   34.9080   28.8600   40.8270 F   0  0  0  0  0  0  0  0  0  0  0  0
   36.2780   28.2360   42.5360 F   0  0  0  0  0  0  0  0  0  0  0  0
   36.8480   27.6990   40.3970 F   0  0  0  0  0  0  0  0  0  0  0  0
   39.1500   33.3880   40.8710 O   0  0  0  0  0  0  0  0  0  0  0  0
   40.3170   33.3310   40.0930 C   0  0  0  0  0  0  0  0  0  0  0  0
   40.2800   32.9420   38.7630 C   0  0  0  0  0  3  0  0  0  0  0  0
   41.4950   32.9170   38.0710 C   0  0  0  0  0  0  0  0  0  0  0  0
   41.5310   32.6240   37.0320 H   0  0  0  0  0  0  0  0  0  0  0  0
   42.6570   33.2550   38.6730 N   0  0  0  0  0  0  0  0  0  0  0  0
   42.6550   33.6270   39.9670 C   0  0  0  0  0  3  0  0  0  0  0  0
   41.4950   33.6700   40.6870 N   0  0  0  0  0  0  0  0  0  0  0  0
  1  7  1  0  0  0  0
  2  9  1  0  0  0  0
  2  1  2  0  0  0  0
  3  2  1  0  0  0  0
  4  3  2  0  0  0  0
  4  5  1  0  0  0  0
  5  6  2  0  0  0  0
  6  1  1  0  0  0  0
  8  3  1  0  0  0  0
  9 11  1  0  0  0  0
 10  9  1  0  0  0  0
 12  9  1  0  0  0  0
 13  5  1  0  0  0  0
 14 20  1  0  0  0  0
 14 13  1  0  0  0  0
 15 14  2  0  0  0  0
 16 18  2  0  0  0  0
 16 15  1  0  0  0  0
 17 16  1  0  0  0  0
 18 19  1  0  0  0  0
 19 20  2  0  0  0  0
M  END
>  <minimizedAffinity>
-4.22976065

$$$$
