
 OpenBabel03252507573D

 25 27  0  0  1  0  0  0  0  0999 V2000
   46.8490   32.3980   46.2330 C   0  0  1  0  0  0  0  0  0  0  0  0
   46.7680   32.4360   47.7200 C   0  0  0  0  0  0  0  0  0  0  0  0
   45.8490   31.5500   46.9590 C   0  0  2  0  0  0  0  0  0  0  0  0
   47.7800   32.0320   45.7960 H   0  0  0  0  0  0  0  0  0  0  0  0
   46.2980   33.3460   48.1660 H   0  0  0  0  0  0  0  0  0  0  0  0
   47.6280   32.0580   48.2690 H   0  0  0  0  0  0  0  0  0  0  0  0
   44.7840   31.7960   46.9180 H   0  0  0  0  0  0  0  0  0  0  0  0
   46.1030   34.6620   43.4470 C   0  0  0  0  0  0  0  0  0  0  0  0
   45.0830   35.4960   43.9580 C   0  0  0  0  0  0  0  0  0  0  0  0
   44.6540   35.2620   45.2760 C   0  0  0  0  0  0  0  0  0  0  0  0
   45.2410   34.2550   45.9760 N   0  0  0  0  0  0  0  0  0  0  0  0
   46.2210   33.4870   45.4180 C   0  0  0  0  0  0  0  0  0  0  0  0
   46.6610   33.6710   44.1750 N   0  0  0  0  0  0  0  0  0  0  0  0
   44.6320   36.2790   43.4030 H   0  0  0  0  0  0  0  0  0  0  0  0
   43.8800   35.8640   45.7220 H   0  0  0  0  0  0  0  0  0  0  0  0
   46.4930   34.9630   42.1030 C   0  0  0  0  0  0  0  0  0  0  0  0
   47.6760   35.1970   41.7140 O   0  0  0  0  0  0  0  0  0  0  0  0
   45.6180   34.9630   41.4480 H   0  0  0  0  0  0  0  0  0  0  0  0
   46.1550   30.0820   46.8700 C   0  0  0  0  0  0  0  0  0  0  0  0
   47.2320   29.5330   47.5530 C   0  0  0  0  0  3  0  0  0  0  0  0
   47.4320   28.1760   47.4080 C   0  0  0  0  0  0  0  0  0  0  0  0
   48.2750   27.7540   47.9450 H   0  0  0  0  0  0  0  0  0  0  0  0
   46.6610   27.3690   46.6600 N   0  0  0  0  0  0  0  0  0  0  0  0
   45.6260   27.9350   46.0110 C   0  0  0  0  0  3  0  0  0  0  0  0
   45.3940   29.2560   46.1240 N   0  0  0  0  0  0  0  0  0  0  0  0
  1  4  1  6  0  0  0
  1  3  1  0  0  0  0
  1  2  1  0  0  0  0
  2  5  1  0  0  0  0
  2  6  1  0  0  0  0
  3  7  1  6  0  0  0
  3  2  1  0  0  0  0
  8  9  2  0  0  0  0
  8 13  1  0  0  0  0
  9 10  1  0  0  0  0
 10 15  1  0  0  0  0
 10 11  2  0  0  0  0
 12 11  1  0  0  0  0
 12  1  1  0  0  0  0
 13 12  2  0  0  0  0
 14  9  1  0  0  0  0
 16  8  1  0  0  0  0
 17 16  2  0  0  0  0
 18 16  1  0  0  0  0
 19  3  1  0  0  0  0
 19 20  1  0  0  0  0
 21 20  2  0  0  0  0
 21 22  1  0  0  0  0
 23 21  1  0  0  0  0
 24 25  1  0  0  0  0
 24 23  2  0  0  0  0
 25 19  2  0  0  0  0
M  END
>  <minimizedAffinity>
-4.25328159

>  <minimizedRMSD>
1.90903139

$$$$
