
 OpenBabel03252500003D

 19 20  0  0  0  0  0  0  0  0999 V2000
   40.1320   28.7050   42.8300 C   0  0  0  0  0  0  0  0  0  0  0  0
   40.0690   29.9920   42.2250 C   0  0  0  0  0  0  0  0  0  0  0  0
   38.8390   30.3990   41.7160 C   0  0  0  0  0  0  0  0  0  0  0  0
   37.7730   29.5690   41.8170 N   0  0  0  0  0  0  0  0  0  0  0  0
   37.8750   28.3490   42.4020 C   0  0  0  0  0  0  0  0  0  0  0  0
   39.0460   27.9220   42.9030 N   0  0  0  0  0  0  0  0  0  0  0  0
   41.0780   28.3850   43.2250 H   0  0  0  0  0  0  0  0  0  0  0  0
   40.9150   30.6530   42.1440 H   0  0  0  0  0  0  0  0  0  0  0  0
   38.6180   31.6880   41.0690 C   0  0  0  0  0  0  0  0  0  0  0  0
   37.4830   31.9850   40.3490 C   0  0  0  0  0  3  0  0  0  0  0  0
   37.2530   33.1980   39.7280 C   0  0  0  0  0  0  0  0  0  0  0  0
   36.3490   33.4020   39.1680 H   0  0  0  0  0  0  0  0  0  0  0  0
   38.2150   34.1610   39.8390 N   0  0  0  0  0  0  0  0  0  0  0  0
   39.3340   33.8720   40.5490 C   0  0  0  0  0  3  0  0  0  0  0  0
   39.5220   32.6930   41.1310 N   0  0  0  0  0  0  0  0  0  0  0  0
   36.5950   27.5820   42.4190 C   0  0  0  0  0  0  0  0  0  0  0  0
   36.0930   27.4480   43.6770 F   0  0  0  0  0  0  0  0  0  0  0  0
   36.7860   26.3210   41.8590 F   0  0  0  0  0  0  0  0  0  0  0  0
   35.6870   28.2080   41.5580 F   0  0  0  0  0  0  0  0  0  0  0  0
  1  6  1  0  0  0  0
  1  7  1  0  0  0  0
  2  1  2  0  0  0  0
  3  4  2  0  0  0  0
  3  2  1  0  0  0  0
  4  5  1  0  0  0  0
  5 16  1  0  0  0  0
  5  6  2  0  0  0  0
  8  2  1  0  0  0  0
  9 15  1  0  0  0  0
  9  3  1  0  0  0  0
 10  9  2  0  0  0  0
 11 13  2  0  0  0  0
 11 10  1  0  0  0  0
 12 11  1  0  0  0  0
 13 14  1  0  0  0  0
 14 15  2  0  0  0  0
 16 17  1  0  0  0  0
 18 16  1  0  0  0  0
 19 16  1  0  0  0  0
M  END
>  <minimizedAffinity>
-4.78434849

$$$$

 OpenBabel03252500003D

 19 20  0  0  0  0  0  0  0  0999 V2000
   36.5330   27.6430   39.2410 C   0  0  0  0  0  0  0  0  0  0  0  0
   36.8850   29.0160   39.1090 C   0  0  0  0  0  0  0  0  0  0  0  0
   37.2870   29.6860   40.2610 C   0  0  0  0  0  0  0  0  0  0  0  0
   37.3260   29.0160   41.4370 N   0  0  0  0  0  0  0  0  0  0  0  0
   36.9820   27.7060   41.5200 C   0  0  0  0  0  0  0  0  0  0  0  0
   36.5880   27.0280   40.4300 N   0  0  0  0  0  0  0  0  0  0  0  0
   36.2210   27.1210   38.3560 H   0  0  0  0  0  0  0  0  0  0  0  0
   36.8550   29.5510   38.1740 H   0  0  0  0  0  0  0  0  0  0  0  0
   37.6780   31.0920   40.2830 C   0  0  0  0  0  0  0  0  0  0  0  0
   37.0230   32.0680   39.5670 C   0  0  0  0  0  3  0  0  0  0  0  0
   37.3760   33.4040   39.5740 C   0  0  0  0  0  0  0  0  0  0  0  0
   36.8400   34.1490   38.9990 H   0  0  0  0  0  0  0  0  0  0  0  0
   38.4420   33.7760   40.3420 N   0  0  0  0  0  0  0  0  0  0  0  0
   39.0890   32.8160   41.0490 C   0  0  0  0  0  3  0  0  0  0  0  0
   38.7230   31.5410   41.0180 N   0  0  0  0  0  0  0  0  0  0  0  0
   37.0900   27.1440   42.8980 C   0  0  0  0  0  0  0  0  0  0  0  0
   38.1660   27.6360   43.5720 F   0  0  0  0  0  0  0  0  0  0  0  0
   37.1740   25.7540   42.8420 F   0  0  0  0  0  0  0  0  0  0  0  0
   35.8910   27.3900   43.5770 F   0  0  0  0  0  0  0  0  0  0  0  0
  1  6  1  0  0  0  0
  2  1  2  0  0  0  0
  2  3  1  0  0  0  0
  3  9  1  0  0  0  0
  3  4  2  0  0  0  0
  4  5  1  0  0  0  0
  5 16  1  0  0  0  0
  6  5  2  0  0  0  0
  7  1  1  0  0  0  0
  8  2  1  0  0  0  0
  9 15  1  0  0  0  0
 10 11  1  0  0  0  0
 10  9  2  0  0  0  0
 11 13  2  0  0  0  0
 12 11  1  0  0  0  0
 13 14  1  0  0  0  0
 15 14  2  0  0  0  0
 16 17  1  0  0  0  0
 16 19  1  0  0  0  0
 18 16  1  0  0  0  0
M  END
>  <minimizedAffinity>
-4.69707823

$$$$

 OpenBabel03252500003D

 19 20  0  0  0  0  0  0  0  0999 V2000
   39.6090   26.7970   43.6330 C   0  0  0  0  0  0  0  0  0  0  0  0
   39.3350   28.1230   43.1920 C   0  0  0  0  0  0  0  0  0  0  0  0
   38.3850   28.2780   42.1870 C   0  0  0  0  0  0  0  0  0  0  0  0
   37.7730   27.1820   41.6800 N   0  0  0  0  0  0  0  0  0  0  0  0
   38.0620   25.9350   42.1280 C   0  0  0  0  0  0  0  0  0  0  0  0
   38.9740   25.7460   43.0960 N   0  0  0  0  0  0  0  0  0  0  0  0
   40.3410   26.6700   44.4090 H   0  0  0  0  0  0  0  0  0  0  0  0
   39.8220   28.9960   43.5950 H   0  0  0  0  0  0  0  0  0  0  0  0
   37.9990   29.5720   41.6330 C   0  0  0  0  0  0  0  0  0  0  0  0
   38.9100   30.5280   41.2450 C   0  0  0  0  0  3  0  0  0  0  0  0
   38.5670   31.7590   40.7190 C   0  0  0  0  0  0  0  0  0  0  0  0
   39.3070   32.4900   40.4220 H   0  0  0  0  0  0  0  0  0  0  0  0
   37.2380   32.0410   40.5750 N   0  0  0  0  0  0  0  0  0  0  0  0
   36.3380   31.1000   40.9560 C   0  0  0  0  0  3  0  0  0  0  0  0
   36.7040   29.9270   41.4600 N   0  0  0  0  0  0  0  0  0  0  0  0
   37.2850   24.8570   41.4490 C   0  0  0  0  0  0  0  0  0  0  0  0
   38.0910   23.8950   40.9240 F   0  0  0  0  0  0  0  0  0  0  0  0
   36.4940   25.4020   40.4390 F   0  0  0  0  0  0  0  0  0  0  0  0
   36.3630   24.3290   42.3600 F   0  0  0  0  0  0  0  0  0  0  0  0
  1  7  1  0  0  0  0
  2  8  1  0  0  0  0
  2  1  1  0  0  0  0
  3  2  2  0  0  0  0
  4  5  2  0  0  0  0
  4  3  1  0  0  0  0
  5  6  1  0  0  0  0
  6  1  2  0  0  0  0
  9  3  1  0  0  0  0
 10  9  2  0  0  0  0
 11 10  1  0  0  0  0
 12 11  1  0  0  0  0
 13 11  2  0  0  0  0
 13 14  1  0  0  0  0
 14 15  2  0  0  0  0
 15  9  1  0  0  0  0
 16  5  1  0  0  0  0
 16 19  1  0  0  0  0
 17 16  1  0  0  0  0
 18 16  1  0  0  0  0
M  END
>  <minimizedAffinity>
-4.43829584

$$$$

 OpenBabel03252500003D

 19 20  0  0  0  0  0  0  0  0999 V2000
   37.9080   28.0220   43.6190 C   0  0  0  0  0  0  0  0  0  0  0  0
   37.8110   29.1850   42.8040 C   0  0  0  0  0  0  0  0  0  0  0  0
   37.4930   28.9990   41.4620 C   0  0  0  0  0  0  0  0  0  0  0  0
   37.2930   27.7430   40.9970 N   0  0  0  0  0  0  0  0  0  0  0  0
   37.3950   26.6600   41.8070 C   0  0  0  0  0  0  0  0  0  0  0  0
   37.7010   26.8000   43.1080 N   0  0  0  0  0  0  0  0  0  0  0  0
   38.1530   28.1580   44.6560 H   0  0  0  0  0  0  0  0  0  0  0  0
   37.9700   30.1840   43.1720 H   0  0  0  0  0  0  0  0  0  0  0  0
   37.3580   30.0910   40.5040 C   0  0  0  0  0  0  0  0  0  0  0  0
   37.4710   31.4180   40.8540 C   0  0  0  0  0  3  0  0  0  0  0  0
   37.3470   32.4680   39.9640 C   0  0  0  0  0  0  0  0  0  0  0  0
   37.4420   33.5020   40.2700 H   0  0  0  0  0  0  0  0  0  0  0  0
   37.0970   32.1670   38.6560 N   0  0  0  0  0  0  0  0  0  0  0  0
   36.9850   30.8600   38.3080 C   0  0  0  0  0  3  0  0  0  0  0  0
   37.1090   29.8770   39.1910 N   0  0  0  0  0  0  0  0  0  0  0  0
   37.1390   25.3640   41.1130 C   0  0  0  0  0  0  0  0  0  0  0  0
   38.2840   24.7980   40.6420 F   0  0  0  0  0  0  0  0  0  0  0  0
   36.2480   25.5540   40.0590 F   0  0  0  0  0  0  0  0  0  0  0  0
   36.4580   24.5130   41.9920 F   0  0  0  0  0  0  0  0  0  0  0  0
  1  7  1  0  0  0  0
  2  8  1  0  0  0  0
  2  1  2  0  0  0  0
  3  2  1  0  0  0  0
  4  3  2  0  0  0  0
  4  5  1  0  0  0  0
  5  6  2  0  0  0  0
  6  1  1  0  0  0  0
  9 10  1  0  0  0  0
  9  3  1  0  0  0  0
 11 12  1  0  0  0  0
 11 10  2  0  0  0  0
 13 11  1  0  0  0  0
 14 13  2  0  0  0  0
 14 15  1  0  0  0  0
 15  9  2  0  0  0  0
 16  5  1  0  0  0  0
 16 19  1  0  0  0  0
 17 16  1  0  0  0  0
 18 16  1  0  0  0  0
M  END
>  <minimizedAffinity>
-4.33467245

$$$$

 OpenBabel03252500003D

 19 20  0  0  0  0  0  0  0  0999 V2000
   37.6190   28.6840   42.8140 C   0  0  0  0  0  0  0  0  0  0  0  0
   38.4730   29.8030   42.5990 C   0  0  0  0  0  0  0  0  0  0  0  0
   38.2630   30.5550   41.4470 C   0  0  0  0  0  0  0  0  0  0  0  0
   37.2730   30.1980   40.5950 N   0  0  0  0  0  0  0  0  0  0  0  0
   36.4800   29.1240   40.8370 C   0  0  0  0  0  0  0  0  0  0  0  0
   36.6540   28.3740   41.9370 N   0  0  0  0  0  0  0  0  0  0  0  0
   37.7760   28.1000   43.7020 H   0  0  0  0  0  0  0  0  0  0  0  0
   39.2610   30.0880   43.2760 H   0  0  0  0  0  0  0  0  0  0  0  0
   39.0550   31.7270   41.0910 C   0  0  0  0  0  0  0  0  0  0  0  0
   38.4970   32.9230   40.6960 C   0  0  0  0  0  3  0  0  0  0  0  0
   39.2280   34.0440   40.3540 C   0  0  0  0  0  0  0  0  0  0  0  0
   38.7600   34.9710   40.0480 H   0  0  0  0  0  0  0  0  0  0  0  0
   40.5900   33.9590   40.4140 N   0  0  0  0  0  0  0  0  0  0  0  0
   41.1420   32.7820   40.8040 C   0  0  0  0  0  3  0  0  0  0  0  0
   40.4080   31.7240   41.1240 N   0  0  0  0  0  0  0  0  0  0  0  0
   35.4470   28.8910   39.7850 C   0  0  0  0  0  0  0  0  0  0  0  0
   35.5450   27.6510   39.2330 F   0  0  0  0  0  0  0  0  0  0  0  0
   35.5580   29.8540   38.7840 F   0  0  0  0  0  0  0  0  0  0  0  0
   34.1830   29.1170   40.3420 F   0  0  0  0  0  0  0  0  0  0  0  0
  1  7  1  0  0  0  0
  2  1  1  0  0  0  0
  2  8  1  0  0  0  0
  3  2  2  0  0  0  0
  4  5  2  0  0  0  0
  4  3  1  0  0  0  0
  5  6  1  0  0  0  0
  6  1  2  0  0  0  0
  9 15  1  0  0  0  0
  9  3  1  0  0  0  0
 10  9  2  0  0  0  0
 11 13  2  0  0  0  0
 11 10  1  0  0  0  0
 12 11  1  0  0  0  0
 13 14  1  0  0  0  0
 14 15  2  0  0  0  0
 16 19  1  0  0  0  0
 16  5  1  0  0  0  0
 17 16  1  0  0  0  0
 18 16  1  0  0  0  0
M  END
>  <minimizedAffinity>
-4.32389164

$$$$

 OpenBabel03252500003D

 19 20  0  0  0  0  0  0  0  0999 V2000
   36.6290   30.2020   37.8540 C   0  0  0  0  0  0  0  0  0  0  0  0
   36.6610   29.2180   38.8820 C   0  0  0  0  0  0  0  0  0  0  0  0
   37.1180   29.6170   40.1350 C   0  0  0  0  0  0  0  0  0  0  0  0
   37.5060   30.9020   40.3190 N   0  0  0  0  0  0  0  0  0  0  0  0
   37.4600   31.8100   39.3120 C   0  0  0  0  0  0  0  0  0  0  0  0
   37.0250   31.4600   38.0900 N   0  0  0  0  0  0  0  0  0  0  0  0
   36.2770   29.9000   36.8850 H   0  0  0  0  0  0  0  0  0  0  0  0
   36.3530   28.1960   38.7370 H   0  0  0  0  0  0  0  0  0  0  0  0
   37.2080   28.7240   41.2850 C   0  0  0  0  0  0  0  0  0  0  0  0
   37.4000   29.1720   42.5730 C   0  0  0  0  0  3  0  0  0  0  0  0
   37.4880   28.3440   43.6760 C   0  0  0  0  0  0  0  0  0  0  0  0
   37.6400   28.7260   44.6780 H   0  0  0  0  0  0  0  0  0  0  0  0
   37.3760   26.9990   43.4730 N   0  0  0  0  0  0  0  0  0  0  0  0
   37.1860   26.5550   42.2050 C   0  0  0  0  0  3  0  0  0  0  0  0
   37.1070   27.3800   41.1680 N   0  0  0  0  0  0  0  0  0  0  0  0
   37.9260   33.1700   39.7090 C   0  0  0  0  0  0  0  0  0  0  0  0
   36.9940   34.1290   39.4510 F   0  0  0  0  0  0  0  0  0  0  0  0
   39.1090   33.4830   39.0440 F   0  0  0  0  0  0  0  0  0  0  0  0
   38.2870   33.1430   41.0610 F   0  0  0  0  0  0  0  0  0  0  0  0
  1  6  2  0  0  0  0
  1  2  1  0  0  0  0
  2  3  2  0  0  0  0
  3  4  1  0  0  0  0
  3  9  1  0  0  0  0
  5 16  1  0  0  0  0
  5  4  2  0  0  0  0
  6  5  1  0  0  0  0
  7  1  1  0  0  0  0
  8  2  1  0  0  0  0
  9 10  1  0  0  0  0
 10 11  2  0  0  0  0
 11 12  1  0  0  0  0
 13 11  1  0  0  0  0
 14 13  2  0  0  0  0
 15  9  2  0  0  0  0
 15 14  1  0  0  0  0
 16 19  1  0  0  0  0
 17 16  1  0  0  0  0
 18 16  1  0  0  0  0
M  END
>  <minimizedAffinity>
-4.2289691

$$$$

 OpenBabel03252500003D

 19 20  0  0  0  0  0  0  0  0999 V2000
   39.6770   29.8000   42.5210 C   0  0  0  0  0  0  0  0  0  0  0  0
   39.3940   28.4070   42.4460 C   0  0  0  0  0  0  0  0  0  0  0  0
   38.2950   28.0180   41.6860 C   0  0  0  0  0  0  0  0  0  0  0  0
   37.5550   28.9650   41.0610 N   0  0  0  0  0  0  0  0  0  0  0  0
   37.8580   30.2830   41.1580 C   0  0  0  0  0  0  0  0  0  0  0  0
   38.9110   30.6960   41.8830 N   0  0  0  0  0  0  0  0  0  0  0  0
   40.5240   30.1070   43.1070 H   0  0  0  0  0  0  0  0  0  0  0  0
   39.9830   27.6540   42.9430 H   0  0  0  0  0  0  0  0  0  0  0  0
   37.8810   26.6300   41.5150 C   0  0  0  0  0  0  0  0  0  0  0  0
   38.2760   25.6160   42.3600 C   0  0  0  0  0  3  0  0  0  0  0  0
   37.8960   24.2950   42.2160 C   0  0  0  0  0  0  0  0  0  0  0  0
   38.2240   23.5200   42.8970 H   0  0  0  0  0  0  0  0  0  0  0  0
   37.0770   23.9790   41.1710 N   0  0  0  0  0  0  0  0  0  0  0  0
   36.6850   24.9760   40.3380 C   0  0  0  0  0  3  0  0  0  0  0  0
   37.0710   26.2350   40.5060 N   0  0  0  0  0  0  0  0  0  0  0  0
   36.9280   31.1700   40.3990 C   0  0  0  0  0  0  0  0  0  0  0  0
   37.0510   31.0120   39.0530 F   0  0  0  0  0  0  0  0  0  0  0  0
   37.1600   32.5030   40.7330 F   0  0  0  0  0  0  0  0  0  0  0  0
   35.6210   30.9280   40.8380 F   0  0  0  0  0  0  0  0  0  0  0  0
  1  7  1  0  0  0  0
  2  1  1  0  0  0  0
  2  8  1  0  0  0  0
  3  2  2  0  0  0  0
  4  5  2  0  0  0  0
  4  3  1  0  0  0  0
  5  6  1  0  0  0  0
  6  1  2  0  0  0  0
  9  3  1  0  0  0  0
  9 10  1  0  0  0  0
 11 10  2  0  0  0  0
 11 12  1  0  0  0  0
 13 11  1  0  0  0  0
 14 15  1  0  0  0  0
 14 13  2  0  0  0  0
 15  9  2  0  0  0  0
 16 18  1  0  0  0  0
 16 19  1  0  0  0  0
 16  5  1  0  0  0  0
 17 16  1  0  0  0  0
M  END
>  <minimizedAffinity>
-4.0935955

$$$$

 OpenBabel03252500003D

 19 20  0  0  0  0  0  0  0  0999 V2000
   37.8840   26.1340   38.8820 C   0  0  0  0  0  0  0  0  0  0  0  0
   37.8380   27.5100   38.5180 C   0  0  0  0  0  0  0  0  0  0  0  0
   37.5410   28.4270   39.5210 C   0  0  0  0  0  0  0  0  0  0  0  0
   37.3130   27.9800   40.7800 N   0  0  0  0  0  0  0  0  0  0  0  0
   37.3670   26.6600   41.0860 C   0  0  0  0  0  0  0  0  0  0  0  0
   37.6500   25.7460   40.1430 N   0  0  0  0  0  0  0  0  0  0  0  0
   38.1130   25.4210   38.1120 H   0  0  0  0  0  0  0  0  0  0  0  0
   38.0190   27.8660   37.5170 H   0  0  0  0  0  0  0  0  0  0  0  0
   37.4590   29.8670   39.3020 C   0  0  0  0  0  0  0  0  0  0  0  0
   37.1740   30.7670   40.3050 C   0  0  0  0  0  3  0  0  0  0  0  0
   37.0910   32.1340   40.1200 C   0  0  0  0  0  0  0  0  0  0  0  0
   36.8650   32.8160   40.9290 H   0  0  0  0  0  0  0  0  0  0  0  0
   37.3060   32.6200   38.8620 N   0  0  0  0  0  0  0  0  0  0  0  0
   37.5870   31.7350   37.8720 C   0  0  0  0  0  3  0  0  0  0  0  0
   37.6580   30.4270   38.0860 N   0  0  0  0  0  0  0  0  0  0  0  0
   37.0890   26.3650   42.5220 C   0  0  0  0  0  0  0  0  0  0  0  0
   36.2810   27.3010   43.0920 F   0  0  0  0  0  0  0  0  0  0  0  0
   38.2840   26.2880   43.2350 F   0  0  0  0  0  0  0  0  0  0  0  0
   36.5460   25.0780   42.6170 F   0  0  0  0  0  0  0  0  0  0  0  0
  1  6  1  0  0  0  0
  2  1  2  0  0  0  0
  2  3  1  0  0  0  0
  3  4  2  0  0  0  0
  4  5  1  0  0  0  0
  5 16  1  0  0  0  0
  6  5  2  0  0  0  0
  7  1  1  0  0  0  0
  8  2  1  0  0  0  0
  9  3  1  0  0  0  0
  9 10  1  0  0  0  0
 11 10  2  0  0  0  0
 11 12  1  0  0  0  0
 13 11  1  0  0  0  0
 14 15  1  0  0  0  0
 14 13  2  0  0  0  0
 15  9  2  0  0  0  0
 16 19  1  0  0  0  0
 16 17  1  0  0  0  0
 16 18  1  0  0  0  0
M  END
>  <minimizedAffinity>
-4.09062624

$$$$

 OpenBabel03252500003D

 19 20  0  0  0  0  0  0  0  0999 V2000
   37.0250   27.2810   39.4540 C   0  0  0  0  0  0  0  0  0  0  0  0
   37.7120   28.4020   38.9080 C   0  0  0  0  0  0  0  0  0  0  0  0
   38.2660   29.3110   39.8050 C   0  0  0  0  0  0  0  0  0  0  0  0
   38.1310   29.0940   41.1350 N   0  0  0  0  0  0  0  0  0  0  0  0
   37.4690   28.0120   41.6150 C   0  0  0  0  0  0  0  0  0  0  0  0
   36.9200   27.1140   40.7800 N   0  0  0  0  0  0  0  0  0  0  0  0
   36.5950   26.5760   38.7670 H   0  0  0  0  0  0  0  0  0  0  0  0
   37.8190   28.5760   37.8500 H   0  0  0  0  0  0  0  0  0  0  0  0
   38.9970   30.5050   39.3970 C   0  0  0  0  0  0  0  0  0  0  0  0
   39.3170   30.7820   38.0860 C   0  0  0  0  0  3  0  0  0  0  0  0
   40.0090   31.9060   37.6780 C   0  0  0  0  0  0  0  0  0  0  0  0
   40.2460   32.0970   36.6390 H   0  0  0  0  0  0  0  0  0  0  0  0
   40.3980   32.7980   38.6370 N   0  0  0  0  0  0  0  0  0  0  0  0
   40.0830   32.5280   39.9290 C   0  0  0  0  0  3  0  0  0  0  0  0
   39.4180   31.4360   40.2850 N   0  0  0  0  0  0  0  0  0  0  0  0
   37.4280   27.9460   43.1060 C   0  0  0  0  0  0  0  0  0  0  0  0
   37.6230   29.1640   43.6800 F   0  0  0  0  0  0  0  0  0  0  0  0
   38.3920   27.0540   43.5710 F   0  0  0  0  0  0  0  0  0  0  0  0
   36.2120   27.3730   43.4950 F   0  0  0  0  0  0  0  0  0  0  0  0
  1  6  1  0  0  0  0
  2  1  2  0  0  0  0
  2  3  1  0  0  0  0
  3  4  2  0  0  0  0
  4  5  1  0  0  0  0
  5 16  1  0  0  0  0
  6  5  2  0  0  0  0
  7  1  1  0  0  0  0
  8  2  1  0  0  0  0
  9  3  1  0  0  0  0
  9 15  1  0  0  0  0
 10  9  2  0  0  0  0
 11 10  1  0  0  0  0
 11 13  2  0  0  0  0
 12 11  1  0  0  0  0
 13 14  1  0  0  0  0
 14 15  2  0  0  0  0
 16 19  1  0  0  0  0
 16 18  1  0  0  0  0
 16 17  1  0  0  0  0
M  END
>  <minimizedAffinity>
-4.08065939

$$$$
