
 OpenBabel03242510323D

 37 39  0  0  1  0  0  0  0  0999 V2000
   36.7670   31.3740   39.5970 C   0  0  1  0  0  0  0  0  0  0  0  0
   37.0160   30.3540   38.4250 C   0  0  0  0  0  0  0  0  0  0  0  0
   35.7640   29.6180   38.1720 C   0  0  0  0  0  0  0  0  0  0  0  0
   35.5670   28.7140   39.3870 C   0  0  0  0  0  0  0  0  0  0  0  0
   35.5080   29.5070   40.5770 C   0  0  0  0  0  0  0  0  0  0  0  0
   36.5750   30.6760   40.7930 C   0  0  1  0  0  0  0  0  0  0  0  0
   35.9680   32.0480   39.2670 H   0  0  0  0  0  0  0  0  0  0  0  0
   37.8430   29.6910   38.6660 H   0  0  0  0  0  0  0  0  0  0  0  0
   37.2260   31.0190   37.5540 H   0  0  0  0  0  0  0  0  0  0  0  0
   34.8970   30.2710   38.0030 H   0  0  0  0  0  0  0  0  0  0  0  0
   35.9370   28.9210   37.3250 H   0  0  0  0  0  0  0  0  0  0  0  0
   36.3430   27.9070   39.3340 H   0  0  0  0  0  0  0  0  0  0  0  0
   34.5770   28.2520   39.2220 H   0  0  0  0  0  0  0  0  0  0  0  0
   35.1490   29.1050   41.5040 H   0  0  0  0  0  0  0  0  0  0  0  0
   34.6220   30.2340   40.3400 H   0  0  0  0  0  0  0  0  0  0  0  0
   36.1090   31.0570   41.7020 H   0  0  0  0  0  0  0  0  0  0  0  0
   39.5960   33.8830   40.4410 C   0  0  0  0  0  0  0  0  0  0  0  0
   38.3850   33.2400   40.5620 C   0  0  0  0  0  0  0  0  0  0  0  0
   38.0350   32.1890   39.6790 C   0  0  0  0  0  0  0  0  0  0  0  0
   38.9440   31.8820   38.7530 N   0  0  0  0  0  0  0  0  0  0  0  0
   40.1120   32.5050   38.6390 C   0  0  0  0  0  0  0  0  0  0  0  0
   40.4540   33.5220   39.4900 N   0  0  0  0  0  0  0  0  0  0  0  0
   39.7210   34.6590   41.1830 H   0  0  0  0  0  0  0  0  0  0  0  0
   37.5660   33.4090   41.2810 H   0  0  0  0  0  0  0  0  0  0  0  0
   40.8610   32.2630   37.8850 H   0  0  0  0  0  0  0  0  0  0  0  0
   37.7550   30.0240   41.2240 O   0  0  0  0  0  0  0  0  0  0  0  0
   37.4370   29.4450   42.4600 C   0  0  0  0  0  0  0  0  0  0  0  0
   36.7050   28.6640   42.4300 H   0  0  0  0  0  0  0  0  0  0  0  0
   37.2050   30.2460   43.2120 H   0  0  0  0  0  0  0  0  0  0  0  0
   38.6950   28.8490   42.7950 O   0  0  0  0  0  0  0  0  0  0  0  0
   38.8660   27.4780   42.8160 C   0  0  0  0  0  0  0  0  0  0  0  0
   39.9130   27.0270   43.5910 C   0  0  0  0  0  3  0  0  0  0  0  0
   40.1710   25.6540   43.6800 C   0  0  0  0  0  0  0  0  0  0  0  0
   40.9550   25.1760   44.2480 H   0  0  0  0  0  0  0  0  0  0  0  0
   39.3940   24.7690   43.0050 N   0  0  0  0  0  0  0  0  0  0  0  0
   38.3830   25.2440   42.2590 C   0  0  0  0  0  3  0  0  0  0  0  0
   38.0980   26.5730   42.1460 N   0  0  0  0  0  0  0  0  0  0  0  0
  1  7  1  6  0  0  0
  1 19  1  0  0  0  0
  1  6  1  0  0  0  0
  2  8  1  0  0  0  0
  2  1  1  0  0  0  0
  3  2  1  0  0  0  0
  3  4  1  0  0  0  0
  4  5  1  0  0  0  0
  5  6  1  0  0  0  0
  5 14  1  0  0  0  0
  6 26  1  0  0  0  0
  6 16  1  1  0  0  0
  9  2  1  0  0  0  0
 10  3  1  0  0  0  0
 11  3  1  0  0  0  0
 12  4  1  0  0  0  0
 13  4  1  0  0  0  0
 15  5  1  0  0  0  0
 17 18  1  0  0  0  0
 17 23  1  0  0  0  0
 18 24  1  0  0  0  0
 19 18  2  0  0  0  0
 20 19  1  0  0  0  0
 21 20  2  0  0  0  0
 21 22  1  0  0  0  0
 22 17  2  0  0  0  0
 25 21  1  0  0  0  0
 26 27  1  0  0  0  0
 27 30  1  0  0  0  0
 27 29  1  0  0  0  0
 28 27  1  0  0  0  0
 30 31  1  0  0  0  0
 31 32  1  0  0  0  0
 32 33  2  0  0  0  0
 33 34  1  0  0  0  0
 35 33  1  0  0  0  0
 36 35  2  0  0  0  0
 37 36  1  0  0  0  0
 37 31  2  0  0  0  0
M  END
>  <minimizedAffinity>
-5.18128061

$$$$

 OpenBabel03242510323D

 37 39  0  0  1  0  0  0  0  0999 V2000
   36.6840   31.1630   39.6040 C   0  0  1  0  0  0  0  0  0  0  0  0
   36.9000   30.1350   38.4320 C   0  0  0  0  0  0  0  0  0  0  0  0
   35.6330   29.4180   38.2000 C   0  0  0  0  0  0  0  0  0  0  0  0
   35.4400   28.5210   39.4220 C   0  0  0  0  0  0  0  0  0  0  0  0
   35.4120   29.3200   40.6100 C   0  0  0  0  0  0  0  0  0  0  0  0
   36.5000   30.4730   40.8050 C   0  0  1  0  0  0  0  0  0  0  0  0
   35.8920   31.8480   39.2840 H   0  0  0  0  0  0  0  0  0  0  0  0
   37.7200   29.4610   38.6630 H   0  0  0  0  0  0  0  0  0  0  0  0
   37.1070   30.7940   37.5560 H   0  0  0  0  0  0  0  0  0  0  0  0
   34.7740   30.0840   38.0430 H   0  0  0  0  0  0  0  0  0  0  0  0
   35.7830   28.7160   37.3540 H   0  0  0  0  0  0  0  0  0  0  0  0
   36.2030   27.7030   39.3610 H   0  0  0  0  0  0  0  0  0  0  0  0
   34.4410   28.0740   39.2740 H   0  0  0  0  0  0  0  0  0  0  0  0
   35.0610   28.9260   41.5430 H   0  0  0  0  0  0  0  0  0  0  0  0
   34.5340   30.0590   40.3840 H   0  0  0  0  0  0  0  0  0  0  0  0
   36.0540   30.8630   41.7210 H   0  0  0  0  0  0  0  0  0  0  0  0
   40.2770   32.5690   39.2430 C   0  0  0  0  0  0  0  0  0  0  0  0
   39.2090   31.7300   39.0220 C   0  0  0  0  0  0  0  0  0  0  0  0
   37.9670   31.9580   39.6640 C   0  0  0  0  0  0  0  0  0  0  0  0
   37.9180   33.0170   40.4720 N   0  0  0  0  0  0  0  0  0  0  0  0
   38.9500   33.8250   40.6840 C   0  0  0  0  0  0  0  0  0  0  0  0
   40.1530   33.6080   40.0660 N   0  0  0  0  0  0  0  0  0  0  0  0
   41.1530   32.2700   38.6860 H   0  0  0  0  0  0  0  0  0  0  0  0
   39.1380   30.8340   38.3820 H   0  0  0  0  0  0  0  0  0  0  0  0
   38.9210   34.6920   41.3440 H   0  0  0  0  0  0  0  0  0  0  0  0
   37.6760   29.8030   41.2210 O   0  0  0  0  0  0  0  0  0  0  0  0
   37.3490   29.1800   42.4330 C   0  0  0  0  0  0  0  0  0  0  0  0
   36.4940   28.5360   42.4050 H   0  0  0  0  0  0  0  0  0  0  0  0
   37.3080   29.9410   43.2580 H   0  0  0  0  0  0  0  0  0  0  0  0
   38.5060   28.3600   42.6200 O   0  0  0  0  0  0  0  0  0  0  0  0
   38.4380   26.9820   42.5500 C   0  0  0  0  0  0  0  0  0  0  0  0
   37.2100   26.4700   42.1850 C   0  0  0  0  0  3  0  0  0  0  0  0
   37.0360   25.0860   42.0840 C   0  0  0  0  0  0  0  0  0  0  0  0
   36.1320   24.5630   41.8100 H   0  0  0  0  0  0  0  0  0  0  0  0
   38.0720   24.2470   42.3430 N   0  0  0  0  0  0  0  0  0  0  0  0
   39.2540   24.7790   42.6960 C   0  0  0  0  0  3  0  0  0  0  0  0
   39.4650   26.1230   42.8060 N   0  0  0  0  0  0  0  0  0  0  0  0
  1  7  1  6  0  0  0
  1 19  1  0  0  0  0
  1  6  1  0  0  0  0
  2  8  1  0  0  0  0
  2  1  1  0  0  0  0
  3  2  1  0  0  0  0
  3  4  1  0  0  0  0
  4  5  1  0  0  0  0
  5  6  1  0  0  0  0
  5 14  1  0  0  0  0
  6 26  1  0  0  0  0
  6 16  1  1  0  0  0
  9  2  1  0  0  0  0
 10  3  1  0  0  0  0
 11  3  1  0  0  0  0
 12  4  1  0  0  0  0
 13  4  1  0  0  0  0
 15  5  1  0  0  0  0
 17 22  1  0  0  0  0
 18 17  2  0  0  0  0
 18 19  1  0  0  0  0
 19 20  2  0  0  0  0
 20 21  1  0  0  0  0
 21 25  1  0  0  0  0
 22 21  2  0  0  0  0
 23 17  1  0  0  0  0
 24 18  1  0  0  0  0
 26 27  1  0  0  0  0
 27 30  1  0  0  0  0
 27 29  1  0  0  0  0
 28 27  1  0  0  0  0
 31 30  1  0  0  0  0
 31 37  1  0  0  0  0
 32 31  2  0  0  0  0
 33 32  1  0  0  0  0
 33 35  2  0  0  0  0
 34 33  1  0  0  0  0
 35 36  1  0  0  0  0
 36 37  2  0  0  0  0
M  END
>  <minimizedAffinity>
-5.15011978

$$$$

 OpenBabel03242510323D

 37 39  0  0  1  0  0  0  0  0999 V2000
   38.0100   31.6770   39.4370 C   0  0  1  0  0  0  0  0  0  0  0  0
   37.1070   32.8640   39.9370 C   0  0  0  0  0  0  0  0  0  0  0  0
   37.8090   34.1310   39.6650 C   0  0  0  0  0  0  0  0  0  0  0  0
   38.9920   34.1600   40.6320 C   0  0  0  0  0  0  0  0  0  0  0  0
   39.8220   33.0140   40.4160 C   0  0  0  0  0  0  0  0  0  0  0  0
   39.1440   31.5770   40.2470 C   0  0  1  0  0  0  0  0  0  0  0  0
   38.1640   31.8250   38.3630 H   0  0  0  0  0  0  0  0  0  0  0  0
   36.8660   32.7430   40.9890 H   0  0  0  0  0  0  0  0  0  0  0  0
   36.2140   32.7970   39.2710 H   0  0  0  0  0  0  0  0  0  0  0  0
   38.1330   34.2400   38.6210 H   0  0  0  0  0  0  0  0  0  0  0  0
   37.1560   34.9660   39.9930 H   0  0  0  0  0  0  0  0  0  0  0  0
   38.5800   34.3210   41.6610 H   0  0  0  0  0  0  0  0  0  0  0  0
   39.5570   35.0640   40.3410 H   0  0  0  0  0  0  0  0  0  0  0  0
   40.8130   32.9540   40.8200 H   0  0  0  0  0  0  0  0  0  0  0  0
   40.0940   33.1210   39.2840 H   0  0  0  0  0  0  0  0  0  0  0  0
   40.0770   31.0660   40.0050 H   0  0  0  0  0  0  0  0  0  0  0  0
   35.3240   29.0370   40.3490 C   0  0  0  0  0  0  0  0  0  0  0  0
   35.9290   30.2710   40.2900 C   0  0  0  0  0  0  0  0  0  0  0  0
   37.1550   30.4430   39.6010 C   0  0  0  0  0  0  0  0  0  0  0  0
   37.6580   29.3480   39.0330 N   0  0  0  0  0  0  0  0  0  0  0  0
   37.0730   28.1570   39.0910 C   0  0  0  0  0  0  0  0  0  0  0  0
   35.8880   27.9870   39.7560 N   0  0  0  0  0  0  0  0  0  0  0  0
   34.3980   29.0620   40.9060 H   0  0  0  0  0  0  0  0  0  0  0  0
   35.6060   31.2350   40.7200 H   0  0  0  0  0  0  0  0  0  0  0  0
   37.4770   27.2560   38.6300 H   0  0  0  0  0  0  0  0  0  0  0  0
   38.8250   31.1630   41.5630 O   0  0  0  0  0  0  0  0  0  0  0  0
   39.9340   30.4340   42.0110 C   0  0  0  0  0  0  0  0  0  0  0  0
   40.7410   31.0170   42.4070 H   0  0  0  0  0  0  0  0  0  0  0  0
   40.2580   29.7020   41.2230 H   0  0  0  0  0  0  0  0  0  0  0  0
   39.3450   29.7110   43.0960 O   0  0  0  0  0  0  0  0  0  0  0  0
   38.6380   28.5410   42.8900 C   0  0  0  0  0  0  0  0  0  0  0  0
   37.3960   28.4910   43.4860 C   0  0  0  0  0  3  0  0  0  0  0  0
   36.5990   27.3500   43.3370 C   0  0  0  0  0  0  0  0  0  0  0  0
   35.6150   27.1870   43.7500 H   0  0  0  0  0  0  0  0  0  0  0  0
   37.0470   26.2960   42.6090 N   0  0  0  0  0  0  0  0  0  0  0  0
   38.2620   26.3790   42.0430 C   0  0  0  0  0  3  0  0  0  0  0  0
   39.0690   27.4720   42.1630 N   0  0  0  0  0  0  0  0  0  0  0  0
  1  7  1  6  0  0  0
  1 19  1  0  0  0  0
  1  2  1  0  0  0  0
  1  6  1  0  0  0  0
  2  8  1  0  0  0  0
  3  2  1  0  0  0  0
  3 11  1  0  0  0  0
  3  4  1  0  0  0  0
  4 12  1  0  0  0  0
  5  4  1  0  0  0  0
  5 14  1  0  0  0  0
  6 16  1  6  0  0  0
  6  5  1  0  0  0  0
  6 26  1  0  0  0  0
  9  2  1  0  0  0  0
 10  3  1  0  0  0  0
 13  4  1  0  0  0  0
 15  5  1  0  0  0  0
 17 23  1  0  0  0  0
 18 17  1  0  0  0  0
 18 24  1  0  0  0  0
 19 18  2  0  0  0  0
 20 21  2  0  0  0  0
 20 19  1  0  0  0  0
 21 22  1  0  0  0  0
 22 17  2  0  0  0  0
 25 21  1  0  0  0  0
 26 27  1  0  0  0  0
 27 28  1  0  0  0  0
 27 30  1  0  0  0  0
 29 27  1  0  0  0  0
 31 30  1  0  0  0  0
 31 32  1  0  0  0  0
 33 32  2  0  0  0  0
 33 34  1  0  0  0  0
 35 33  1  0  0  0  0
 36 37  1  0  0  0  0
 36 35  2  0  0  0  0
 37 31  2  0  0  0  0
M  END
>  <minimizedAffinity>
-4.89505672

$$$$

 OpenBabel03242510323D

 37 39  0  0  1  0  0  0  0  0999 V2000
   36.5620   30.2430   40.1800 C   0  0  1  0  0  0  0  0  0  0  0  0
   37.5570   31.4560   40.2910 C   0  0  0  0  0  0  0  0  0  0  0  0
   37.2180   32.4350   39.2420 C   0  0  0  0  0  0  0  0  0  0  0  0
   37.6150   31.7770   37.9230 C   0  0  0  0  0  0  0  0  0  0  0  0
   36.9120   30.5390   37.7680 C   0  0  0  0  0  0  0  0  0  0  0  0
   36.8180   29.5320   39.0040 C   0  0  1  0  0  0  0  0  0  0  0  0
   35.5530   30.6450   40.3210 H   0  0  0  0  0  0  0  0  0  0  0  0
   38.5860   31.1130   40.2190 H   0  0  0  0  0  0  0  0  0  0  0  0
   37.3080   31.8940   41.2870 H   0  0  0  0  0  0  0  0  0  0  0  0
   36.1620   32.7370   39.2460 H   0  0  0  0  0  0  0  0  0  0  0  0
   37.9040   33.3020   39.3440 H   0  0  0  0  0  0  0  0  0  0  0  0
   38.7350   31.7500   37.8840 H   0  0  0  0  0  0  0  0  0  0  0  0
   37.2600   32.4820   37.1500 H   0  0  0  0  0  0  0  0  0  0  0  0
   36.8650   30.0340   36.8240 H   0  0  0  0  0  0  0  0  0  0  0  0
   35.7960   30.8830   37.8440 H   0  0  0  0  0  0  0  0  0  0  0  0
   36.1440   28.8360   38.5020 H   0  0  0  0  0  0  0  0  0  0  0  0
   36.6350   27.5940   43.0070 C   0  0  0  0  0  0  0  0  0  0  0  0
   36.2060   28.2210   41.8600 C   0  0  0  0  0  0  0  0  0  0  0  0
   36.8700   29.3760   41.3770 C   0  0  0  0  0  0  0  0  0  0  0  0
   37.9110   29.7900   42.1000 N   0  0  0  0  0  0  0  0  0  0  0  0
   38.3230   29.1820   43.2060 C   0  0  0  0  0  0  0  0  0  0  0  0
   37.6830   28.0670   43.6770 N   0  0  0  0  0  0  0  0  0  0  0  0
   36.0320   26.7300   43.2480 H   0  0  0  0  0  0  0  0  0  0  0  0
   35.3650   27.9700   41.1910 H   0  0  0  0  0  0  0  0  0  0  0  0
   39.1720   29.5140   43.8050 H   0  0  0  0  0  0  0  0  0  0  0  0
   38.0710   28.8750   39.0410 O   0  0  0  0  0  0  0  0  0  0  0  0
   37.8600   27.6230   38.4480 C   0  0  0  0  0  0  0  0  0  0  0  0
   38.0680   27.5670   37.4000 H   0  0  0  0  0  0  0  0  0  0  0  0
   36.8430   27.2330   38.7240 H   0  0  0  0  0  0  0  0  0  0  0  0
   38.8500   26.8460   39.1300 O   0  0  0  0  0  0  0  0  0  0  0  0
   38.5130   25.9660   40.1400 C   0  0  0  0  0  0  0  0  0  0  0  0
   37.3130   25.3060   39.9700 C   0  0  0  0  0  3  0  0  0  0  0  0
   36.8800   24.3920   40.9370 C   0  0  0  0  0  0  0  0  0  0  0  0
   35.9680   23.8150   40.9220 H   0  0  0  0  0  0  0  0  0  0  0  0
   37.6370   24.1540   42.0380 N   0  0  0  0  0  0  0  0  0  0  0  0
   38.7980   24.8150   42.1720 C   0  0  0  0  0  3  0  0  0  0  0  0
   39.2570   25.7130   41.2530 N   0  0  0  0  0  0  0  0  0  0  0  0
  1  2  1  0  0  0  0
  1  7  1  1  0  0  0
  1 19  1  0  0  0  0
  2  9  1  0  0  0  0
  3 10  1  0  0  0  0
  3 11  1  0  0  0  0
  3  2  1  0  0  0  0
  4  3  1  0  0  0  0
  5 15  1  0  0  0  0
  5  4  1  0  0  0  0
  5  6  1  0  0  0  0
  6 16  1  6  0  0  0
  6 26  1  0  0  0  0
  6  1  1  0  0  0  0
  8  2  1  0  0  0  0
 12  4  1  0  0  0  0
 13  4  1  0  0  0  0
 14  5  1  0  0  0  0
 17 23  1  0  0  0  0
 17 22  1  0  0  0  0
 18 17  2  0  0  0  0
 19 18  1  0  0  0  0
 19 20  2  0  0  0  0
 20 21  1  0  0  0  0
 21 22  2  0  0  0  0
 21 25  1  0  0  0  0
 24 18  1  0  0  0  0
 27 29  1  0  0  0  0
 27 26  1  0  0  0  0
 27 30  1  0  0  0  0
 28 27  1  0  0  0  0
 30 31  1  0  0  0  0
 31 37  1  0  0  0  0
 32 31  2  0  0  0  0
 32 33  1  0  0  0  0
 33 35  2  0  0  0  0
 34 33  1  0  0  0  0
 35 36  1  0  0  0  0
 37 36  2  0  0  0  0
M  END
>  <minimizedAffinity>
-4.79381418

$$$$

 OpenBabel03242510323D

 37 39  0  0  1  0  0  0  0  0999 V2000
   37.7780   26.5230   42.4630 C   0  0  1  0  0  0  0  0  0  0  0  0
   38.4030   25.3220   41.6600 C   0  0  0  0  0  0  0  0  0  0  0  0
   39.1080   24.4420   42.6100 C   0  0  0  0  0  0  0  0  0  0  0  0
   40.3320   25.2310   43.0700 C   0  0  0  0  0  0  0  0  0  0  0  0
   39.9180   26.4650   43.6670 C   0  0  0  0  0  0  0  0  0  0  0  0
   38.7990   27.3470   42.9450 C   0  0  1  0  0  0  0  0  0  0  0  0
   37.0860   26.0900   43.1940 H   0  0  0  0  0  0  0  0  0  0  0  0
   39.0580   25.6890   40.8740 H   0  0  0  0  0  0  0  0  0  0  0  0
   37.5060   24.7870   41.2700 H   0  0  0  0  0  0  0  0  0  0  0  0
   38.4870   24.1220   43.4570 H   0  0  0  0  0  0  0  0  0  0  0  0
   39.5220   23.5830   42.0430 H   0  0  0  0  0  0  0  0  0  0  0  0
   41.0430   25.2820   42.2050 H   0  0  0  0  0  0  0  0  0  0  0  0
   40.7850   24.5970   43.8520 H   0  0  0  0  0  0  0  0  0  0  0  0
   40.5880   27.0580   44.2560 H   0  0  0  0  0  0  0  0  0  0  0  0
   39.2070   26.0950   44.5190 H   0  0  0  0  0  0  0  0  0  0  0  0
   38.7230   28.0750   43.7530 H   0  0  0  0  0  0  0  0  0  0  0  0
   35.4420   28.9520   40.5520 C   0  0  0  0  0  0  0  0  0  0  0  0
   36.1590   28.4420   41.6100 C   0  0  0  0  0  0  0  0  0  0  0  0
   36.9480   27.2760   41.4510 C   0  0  0  0  0  0  0  0  0  0  0  0
   36.9400   26.7320   40.2350 N   0  0  0  0  0  0  0  0  0  0  0  0
   36.2460   27.2260   39.2160 C   0  0  0  0  0  0  0  0  0  0  0  0
   35.4820   28.3530   39.3650 N   0  0  0  0  0  0  0  0  0  0  0  0
   34.8910   29.8420   40.8240 H   0  0  0  0  0  0  0  0  0  0  0  0
   36.2370   28.8060   42.6490 H   0  0  0  0  0  0  0  0  0  0  0  0
   36.2320   26.7870   38.2180 H   0  0  0  0  0  0  0  0  0  0  0  0
   39.4770   28.0210   41.9000 O   0  0  0  0  0  0  0  0  0  0  0  0
   40.2060   29.0440   42.5200 C   0  0  0  0  0  0  0  0  0  0  0  0
   41.0640   29.3910   41.9820 H   0  0  0  0  0  0  0  0  0  0  0  0
   40.4300   28.7660   43.5860 H   0  0  0  0  0  0  0  0  0  0  0  0
   39.2330   30.0930   42.5140 O   0  0  0  0  0  0  0  0  0  0  0  0
   39.3300   31.1670   41.6490 C   0  0  0  0  0  0  0  0  0  0  0  0
   38.1770   31.4700   40.9560 C   0  0  0  0  0  3  0  0  0  0  0  0
   38.1690   32.5410   40.0550 C   0  0  0  0  0  0  0  0  0  0  0  0
   37.3380   32.8780   39.4540 H   0  0  0  0  0  0  0  0  0  0  0  0
   39.2920   33.2790   39.8630 N   0  0  0  0  0  0  0  0  0  0  0  0
   40.3970   32.9550   40.5540 C   0  0  0  0  0  3  0  0  0  0  0  0
   40.4460   31.9200   41.4420 N   0  0  0  0  0  0  0  0  0  0  0  0
  1  6  1  0  0  0  0
  1  7  1  1  0  0  0
  2  1  1  0  0  0  0
  2  3  1  0  0  0  0
  3  4  1  0  0  0  0
  3 10  1  0  0  0  0
  4  5  1  0  0  0  0
  4 13  1  0  0  0  0
  5 14  1  0  0  0  0
  5 15  1  0  0  0  0
  6  5  1  0  0  0  0
  6 16  1  1  0  0  0
  8  2  1  0  0  0  0
  9  2  1  0  0  0  0
 11  3  1  0  0  0  0
 12  4  1  0  0  0  0
 17 23  1  0  0  0  0
 17 18  1  0  0  0  0
 18 24  1  0  0  0  0
 19 18  2  0  0  0  0
 19  1  1  0  0  0  0
 20 19  1  0  0  0  0
 21 22  1  0  0  0  0
 21 20  2  0  0  0  0
 22 17  2  0  0  0  0
 25 21  1  0  0  0  0
 26 27  1  0  0  0  0
 26  6  1  0  0  0  0
 27 29  1  0  0  0  0
 28 27  1  0  0  0  0
 30 27  1  0  0  0  0
 31 30  1  0  0  0  0
 32 31  2  0  0  0  0
 33 32  1  0  0  0  0
 34 33  1  0  0  0  0
 35 33  2  0  0  0  0
 35 36  1  0  0  0  0
 36 37  2  0  0  0  0
 37 31  1  0  0  0  0
M  END
>  <minimizedAffinity>
-4.76357508

$$$$

 OpenBabel03242510323D

 37 39  0  0  1  0  0  0  0  0999 V2000
   36.5750   31.1520   39.2000 C   0  0  1  0  0  0  0  0  0  0  0  0
   36.8710   30.2010   37.9820 C   0  0  0  0  0  0  0  0  0  0  0  0
   35.6130   29.5430   37.5870 C   0  0  0  0  0  0  0  0  0  0  0  0
   35.2850   28.5710   38.7190 C   0  0  0  0  0  0  0  0  0  0  0  0
   35.1680   29.2860   39.9530 C   0  0  0  0  0  0  0  0  0  0  0  0
   36.2630   30.3870   40.3270 C   0  0  1  0  0  0  0  0  0  0  0  0
   35.8330   31.8820   38.8600 H   0  0  0  0  0  0  0  0  0  0  0  0
   37.6490   29.4860   38.2370 H   0  0  0  0  0  0  0  0  0  0  0  0
   37.1750   30.9110   37.1770 H   0  0  0  0  0  0  0  0  0  0  0  0
   34.7890   30.2450   37.4010 H   0  0  0  0  0  0  0  0  0  0  0  0
   35.8210   28.8960   36.7090 H   0  0  0  0  0  0  0  0  0  0  0  0
   36.0290   27.7340   38.6680 H   0  0  0  0  0  0  0  0  0  0  0  0
   34.2920   28.1670   38.4500 H   0  0  0  0  0  0  0  0  0  0  0  0
   34.7230   28.8410   40.8210 H   0  0  0  0  0  0  0  0  0  0  0  0
   34.3340   30.0670   39.7030 H   0  0  0  0  0  0  0  0  0  0  0  0
   35.7450   30.7280   41.2240 H   0  0  0  0  0  0  0  0  0  0  0  0
   40.2210   32.4630   39.2650 C   0  0  0  0  0  0  0  0  0  0  0  0
   39.1570   31.6760   38.8890 C   0  0  0  0  0  0  0  0  0  0  0  0
   37.8670   31.8990   39.4310 C   0  0  0  0  0  0  0  0  0  0  0  0
   37.7710   32.9010   40.3050 N   0  0  0  0  0  0  0  0  0  0  0  0
   38.8000   33.6590   40.6660 C   0  0  0  0  0  0  0  0  0  0  0  0
   40.0490   33.4460   40.1450 N   0  0  0  0  0  0  0  0  0  0  0  0
   41.1370   32.1740   38.7690 H   0  0  0  0  0  0  0  0  0  0  0  0
   39.1210   30.8280   38.1840 H   0  0  0  0  0  0  0  0  0  0  0  0
   38.7320   34.4800   41.3800 H   0  0  0  0  0  0  0  0  0  0  0  0
   37.3790   29.6530   40.7990 O   0  0  0  0  0  0  0  0  0  0  0  0
   36.9500   29.0270   41.9760 C   0  0  0  0  0  0  0  0  0  0  0  0
   37.1260   27.9720   42.0300 H   0  0  0  0  0  0  0  0  0  0  0  0
   35.8860   29.3130   42.1990 H   0  0  0  0  0  0  0  0  0  0  0  0
   37.8070   29.6610   42.9310 O   0  0  0  0  0  0  0  0  0  0  0  0
   39.1830   29.5710   42.8430 C   0  0  0  0  0  0  0  0  0  0  0  0
   39.8410   30.7690   42.6560 C   0  0  0  0  0  3  0  0  0  0  0  0
   41.2360   30.7870   42.5550 C   0  0  0  0  0  0  0  0  0  0  0  0
   41.8660   31.6520   42.4090 H   0  0  0  0  0  0  0  0  0  0  0  0
   41.9410   29.6300   42.6390 N   0  0  0  0  0  0  0  0  0  0  0  0
   41.2680   28.4820   42.8200 C   0  0  0  0  0  3  0  0  0  0  0  0
   39.9090   28.4210   42.9240 N   0  0  0  0  0  0  0  0  0  0  0  0
  1  7  1  6  0  0  0
  1 19  1  0  0  0  0
  1  6  1  0  0  0  0
  2  8  1  0  0  0  0
  2  1  1  0  0  0  0
  3  2  1  0  0  0  0
  3  4  1  0  0  0  0
  4  5  1  0  0  0  0
  5  6  1  0  0  0  0
  5 14  1  0  0  0  0
  6 26  1  0  0  0  0
  6 16  1  1  0  0  0
  9  2  1  0  0  0  0
 10  3  1  0  0  0  0
 11  3  1  0  0  0  0
 12  4  1  0  0  0  0
 13  4  1  0  0  0  0
 15  5  1  0  0  0  0
 17 22  1  0  0  0  0
 18 17  2  0  0  0  0
 18 19  1  0  0  0  0
 19 20  2  0  0  0  0
 20 21  1  0  0  0  0
 21 25  1  0  0  0  0
 22 21  2  0  0  0  0
 23 17  1  0  0  0  0
 24 18  1  0  0  0  0
 26 27  1  0  0  0  0
 27 28  1  0  0  0  0
 27 29  1  0  0  0  0
 27 30  1  0  0  0  0
 31 37  1  0  0  0  0
 31 30  1  0  0  0  0
 32 31  2  0  0  0  0
 33 35  2  0  0  0  0
 33 32  1  0  0  0  0
 34 33  1  0  0  0  0
 35 36  1  0  0  0  0
 36 37  2  0  0  0  0
M  END
>  <minimizedAffinity>
-4.74419785

$$$$

 OpenBabel03242510323D

 37 39  0  0  1  0  0  0  0  0999 V2000
   38.3160   26.8340   42.5840 C   0  0  1  0  0  0  0  0  0  0  0  0
   39.6360   27.4850   42.0290 C   0  0  0  0  0  0  0  0  0  0  0  0
   40.0190   28.5960   42.9190 C   0  0  0  0  0  0  0  0  0  0  0  0
   38.9690   29.6830   42.6930 C   0  0  0  0  0  0  0  0  0  0  0  0
   37.6660   29.1670   42.9860 C   0  0  0  0  0  0  0  0  0  0  0  0
   37.2520   27.7270   42.4330 C   0  0  1  0  0  0  0  0  0  0  0  0
   38.5390   26.4750   43.5950 H   0  0  0  0  0  0  0  0  0  0  0  0
   39.4980   27.8090   41.0000 H   0  0  0  0  0  0  0  0  0  0  0  0
   40.3850   26.6650   42.1340 H   0  0  0  0  0  0  0  0  0  0  0  0
   40.0870   28.3090   43.9770 H   0  0  0  0  0  0  0  0  0  0  0  0
   40.9650   29.0330   42.5390 H   0  0  0  0  0  0  0  0  0  0  0  0
   39.1450   30.1120   41.6730 H   0  0  0  0  0  0  0  0  0  0  0  0
   39.2170   30.4580   43.4400 H   0  0  0  0  0  0  0  0  0  0  0  0
   36.8210   29.8140   43.1150 H   0  0  0  0  0  0  0  0  0  0  0  0
   37.7900   28.8090   44.0920 H   0  0  0  0  0  0  0  0  0  0  0  0
   36.2970   27.7000   42.9590 H   0  0  0  0  0  0  0  0  0  0  0  0
   37.0170   23.6230   40.8480 C   0  0  0  0  0  0  0  0  0  0  0  0
   37.0100   24.6980   41.7050 C   0  0  0  0  0  0  0  0  0  0  0  0
   38.0890   25.6180   41.7180 C   0  0  0  0  0  0  0  0  0  0  0  0
   39.0760   25.3650   40.8590 N   0  0  0  0  0  0  0  0  0  0  0  0
   39.0790   24.3250   40.0330 C   0  0  0  0  0  0  0  0  0  0  0  0
   38.0400   23.4340   40.0180 N   0  0  0  0  0  0  0  0  0  0  0  0
   36.1300   23.0130   40.9520 H   0  0  0  0  0  0  0  0  0  0  0  0
   36.2550   25.0020   42.4500 H   0  0  0  0  0  0  0  0  0  0  0  0
   39.8830   24.1090   39.3280 H   0  0  0  0  0  0  0  0  0  0  0  0
   36.9200   27.9360   41.0720 O   0  0  0  0  0  0  0  0  0  0  0  0
   35.7610   28.7230   41.0810 C   0  0  0  0  0  0  0  0  0  0  0  0
   35.7180   29.4730   41.8430 H   0  0  0  0  0  0  0  0  0  0  0  0
   34.8500   28.0660   41.0480 H   0  0  0  0  0  0  0  0  0  0  0  0
   35.8940   29.3890   39.8210 O   0  0  0  0  0  0  0  0  0  0  0  0
   36.7110   30.4920   39.6660 C   0  0  0  0  0  0  0  0  0  0  0  0
   37.5710   30.4410   38.5890 C   0  0  0  0  0  3  0  0  0  0  0  0
   38.4410   31.5090   38.3430 C   0  0  0  0  0  0  0  0  0  0  0  0
   39.1580   31.5910   37.5400 H   0  0  0  0  0  0  0  0  0  0  0  0
   38.4400   32.5920   39.1620 N   0  0  0  0  0  0  0  0  0  0  0  0
   37.5900   32.6070   40.2010 C   0  0  0  0  0  3  0  0  0  0  0  0
   36.7260   31.5880   40.4750 N   0  0  0  0  0  0  0  0  0  0  0  0
  1  7  1  1  0  0  0
  2  9  1  0  0  0  0
  2  1  1  0  0  0  0
  2  3  1  0  0  0  0
  3 10  1  0  0  0  0
  4  3  1  0  0  0  0
  4  5  1  0  0  0  0
  4 13  1  0  0  0  0
  5 14  1  0  0  0  0
  5 15  1  0  0  0  0
  6  1  1  0  0  0  0
  6 16  1  1  0  0  0
  6  5  1  0  0  0  0
  8  2  1  0  0  0  0
 11  3  1  0  0  0  0
 12  4  1  0  0  0  0
 17 23  1  0  0  0  0
 17 18  1  0  0  0  0
 18 19  2  0  0  0  0
 18 24  1  0  0  0  0
 19  1  1  0  0  0  0
 20 19  1  0  0  0  0
 21 20  2  0  0  0  0
 22 21  1  0  0  0  0
 22 17  2  0  0  0  0
 25 21  1  0  0  0  0
 26 27  1  0  0  0  0
 26  6  1  0  0  0  0
 27 28  1  0  0  0  0
 29 27  1  0  0  0  0
 30 27  1  0  0  0  0
 31 30  1  0  0  0  0
 31 37  1  0  0  0  0
 32 31  2  0  0  0  0
 33 32  1  0  0  0  0
 33 35  2  0  0  0  0
 34 33  1  0  0  0  0
 35 36  1  0  0  0  0
 36 37  2  0  0  0  0
M  END
>  <minimizedAffinity>
-4.73737192

$$$$

 OpenBabel03242510323D

 37 39  0  0  1  0  0  0  0  0999 V2000
   36.8080   28.9420   41.3210 C   0  0  1  0  0  0  0  0  0  0  0  0
   37.1930   27.4170   41.3360 C   0  0  0  0  0  0  0  0  0  0  0  0
   36.8550   26.8630   42.6590 C   0  0  0  0  0  0  0  0  0  0  0  0
   37.8530   27.4860   43.6330 C   0  0  0  0  0  0  0  0  0  0  0  0
   37.7460   28.9130   43.5890 C   0  0  0  0  0  0  0  0  0  0  0  0
   37.6580   29.6490   42.1740 C   0  0  1  0  0  0  0  0  0  0  0  0
   35.7310   29.0000   41.5130 H   0  0  0  0  0  0  0  0  0  0  0  0
   38.2440   27.2860   41.0900 H   0  0  0  0  0  0  0  0  0  0  0  0
   36.5060   26.9760   40.5750 H   0  0  0  0  0  0  0  0  0  0  0  0
   35.8160   27.0520   42.9630 H   0  0  0  0  0  0  0  0  0  0  0  0
   37.1010   25.7810   42.6550 H   0  0  0  0  0  0  0  0  0  0  0  0
   38.8560   27.0310   43.4230 H   0  0  0  0  0  0  0  0  0  0  0  0
   37.5180   27.1380   44.6260 H   0  0  0  0  0  0  0  0  0  0  0  0
   38.1840   29.5330   44.3460 H   0  0  0  0  0  0  0  0  0  0  0  0
   36.6180   29.0800   43.8500 H   0  0  0  0  0  0  0  0  0  0  0  0
   37.4820   30.6390   42.5990 H   0  0  0  0  0  0  0  0  0  0  0  0
   36.9310   30.7800   37.9120 C   0  0  0  0  0  0  0  0  0  0  0  0
   36.6580   30.5890   39.2460 C   0  0  0  0  0  0  0  0  0  0  0  0
   37.0320   29.3850   39.8950 C   0  0  0  0  0  0  0  0  0  0  0  0
   37.6490   28.4840   39.1320 N   0  0  0  0  0  0  0  0  0  0  0  0
   37.9110   28.6710   37.8430 C   0  0  0  0  0  0  0  0  0  0  0  0
   37.5510   29.8320   37.2130 N   0  0  0  0  0  0  0  0  0  0  0  0
   36.5890   31.7420   37.5590 H   0  0  0  0  0  0  0  0  0  0  0  0
   36.1570   31.2580   39.9660 H   0  0  0  0  0  0  0  0  0  0  0  0
   38.4140   27.9390   37.2100 H   0  0  0  0  0  0  0  0  0  0  0  0
   38.9890   29.6830   41.6930 O   0  0  0  0  0  0  0  0  0  0  0  0
   39.5780   30.8080   42.2850 C   0  0  0  0  0  0  0  0  0  0  0  0
   40.6470   30.8420   42.2510 H   0  0  0  0  0  0  0  0  0  0  0  0
   39.1580   30.9640   43.3160 H   0  0  0  0  0  0  0  0  0  0  0  0
   39.0820   31.8400   41.4260 O   0  0  0  0  0  0  0  0  0  0  0  0
   39.8000   32.2770   40.3290 C   0  0  0  0  0  0  0  0  0  0  0  0
   40.1280   33.6170   40.3360 C   0  0  0  0  0  3  0  0  0  0  0  0
   40.8540   34.1600   39.2710 C   0  0  0  0  0  0  0  0  0  0  0  0
   41.1720   35.1860   39.1570 H   0  0  0  0  0  0  0  0  0  0  0  0
   41.2360   33.3720   38.2330 N   0  0  0  0  0  0  0  0  0  0  0  0
   40.8980   32.0730   38.2590 C   0  0  0  0  0  3  0  0  0  0  0  0
   40.1920   31.5040   39.2780 N   0  0  0  0  0  0  0  0  0  0  0  0
  1  2  1  0  0  0  0
  1  7  1  1  0  0  0
  1  6  1  0  0  0  0
  2  3  1  0  0  0  0
  3 10  1  0  0  0  0
  3  4  1  0  0  0  0
  4 13  1  0  0  0  0
  5  4  1  0  0  0  0
  5 15  1  0  0  0  0
  5 14  1  0  0  0  0
  6 16  1  1  0  0  0
  6  5  1  0  0  0  0
  8  2  1  0  0  0  0
  9  2  1  0  0  0  0
 11  3  1  0  0  0  0
 12  4  1  0  0  0  0
 17 18  1  0  0  0  0
 18 19  2  0  0  0  0
 18 24  1  0  0  0  0
 19  1  1  0  0  0  0
 20 19  1  0  0  0  0
 21 20  2  0  0  0  0
 22 21  1  0  0  0  0
 22 17  2  0  0  0  0
 23 17  1  0  0  0  0
 25 21  1  0  0  0  0
 26  6  1  0  0  0  0
 26 27  1  0  0  0  0
 27 29  1  0  0  0  0
 28 27  1  0  0  0  0
 30 27  1  0  0  0  0
 31 32  1  0  0  0  0
 31 30  1  0  0  0  0
 33 32  2  0  0  0  0
 34 33  1  0  0  0  0
 35 36  2  0  0  0  0
 35 33  1  0  0  0  0
 36 37  1  0  0  0  0
 37 31  2  0  0  0  0
M  END
>  <minimizedAffinity>
-4.72395325

$$$$

 OpenBabel03242510323D

 37 39  0  0  1  0  0  0  0  0999 V2000
   36.7290   27.2700   41.1660 C   0  0  1  0  0  0  0  0  0  0  0  0
   37.2000   26.5390   42.4770 C   0  0  0  0  0  0  0  0  0  0  0  0
   36.6730   27.2760   43.6390 C   0  0  0  0  0  0  0  0  0  0  0  0
   37.4470   28.5930   43.6750 C   0  0  0  0  0  0  0  0  0  0  0  0
   37.2600   29.2990   42.4430 C   0  0  0  0  0  0  0  0  0  0  0  0
   37.3730   28.5060   41.0610 C   0  0  1  0  0  0  0  0  0  0  0  0
   35.6340   27.2670   41.1760 H   0  0  0  0  0  0  0  0  0  0  0  0
   38.2840   26.4550   42.4980 H   0  0  0  0  0  0  0  0  0  0  0  0
   36.6850   25.5510   42.4120 H   0  0  0  0  0  0  0  0  0  0  0  0
   35.5880   27.4420   43.5990 H   0  0  0  0  0  0  0  0  0  0  0  0
   36.9840   26.7400   44.5590 H   0  0  0  0  0  0  0  0  0  0  0  0
   38.4970   28.3570   43.9870 H   0  0  0  0  0  0  0  0  0  0  0  0
   36.9660   29.1680   44.4870 H   0  0  0  0  0  0  0  0  0  0  0  0
   37.5200   30.3340   42.3430 H   0  0  0  0  0  0  0  0  0  0  0  0
   36.0950   29.4000   42.3960 H   0  0  0  0  0  0  0  0  0  0  0  0
   37.0650   29.3530   40.4460 H   0  0  0  0  0  0  0  0  0  0  0  0
   37.3320   25.4590   37.7940 C   0  0  0  0  0  0  0  0  0  0  0  0
   36.8460   26.4120   38.6590 C   0  0  0  0  0  0  0  0  0  0  0  0
   37.1690   26.3680   40.0380 C   0  0  0  0  0  0  0  0  0  0  0  0
   37.9570   25.3620   40.4160 N   0  0  0  0  0  0  0  0  0  0  0  0
   38.4250   24.4430   39.5790 C   0  0  0  0  0  0  0  0  0  0  0  0
   38.1150   24.4820   38.2460 N   0  0  0  0  0  0  0  0  0  0  0  0
   37.0020   25.6230   36.7780 H   0  0  0  0  0  0  0  0  0  0  0  0
   36.1920   27.2780   38.4580 H   0  0  0  0  0  0  0  0  0  0  0  0
   39.0690   23.6160   39.8790 H   0  0  0  0  0  0  0  0  0  0  0  0
   38.7630   28.3650   40.8290 O   0  0  0  0  0  0  0  0  0  0  0  0
   39.0440   29.1660   39.7150 C   0  0  0  0  0  0  0  0  0  0  0  0
   38.1950   29.4710   39.1390 H   0  0  0  0  0  0  0  0  0  0  0  0
   39.8570   28.6960   39.0980 H   0  0  0  0  0  0  0  0  0  0  0  0
   39.5720   30.3290   40.3610 O   0  0  0  0  0  0  0  0  0  0  0  0
   38.9980   31.5750   40.1950 C   0  0  0  0  0  0  0  0  0  0  0  0
   39.7260   32.6310   40.7030 C   0  0  0  0  0  3  0  0  0  0  0  0
   39.2320   33.9350   40.5860 C   0  0  0  0  0  0  0  0  0  0  0  0
   39.7010   34.8410   40.9400 H   0  0  0  0  0  0  0  0  0  0  0  0
   38.0410   34.1610   39.9740 N   0  0  0  0  0  0  0  0  0  0  0  0
   37.3590   33.1100   39.4920 C   0  0  0  0  0  3  0  0  0  0  0  0
   37.8050   31.8240   39.5850 N   0  0  0  0  0  0  0  0  0  0  0  0
  1  7  1  6  0  0  0
  1  2  1  0  0  0  0
  2  8  1  0  0  0  0
  2  3  1  0  0  0  0
  3  4  1  0  0  0  0
  3 11  1  0  0  0  0
  4 12  1  0  0  0  0
  4 13  1  0  0  0  0
  5  4  1  0  0  0  0
  6 16  1  6  0  0  0
  6  1  1  0  0  0  0
  6  5  1  0  0  0  0
  9  2  1  0  0  0  0
 10  3  1  0  0  0  0
 14  5  1  0  0  0  0
 15  5  1  0  0  0  0
 17 22  2  0  0  0  0
 17 18  1  0  0  0  0
 18 19  2  0  0  0  0
 19 20  1  0  0  0  0
 19  1  1  0  0  0  0
 21 25  1  0  0  0  0
 21 20  2  0  0  0  0
 22 21  1  0  0  0  0
 23 17  1  0  0  0  0
 24 18  1  0  0  0  0
 26  6  1  0  0  0  0
 27 30  1  0  0  0  0
 27 26  1  0  0  0  0
 28 27  1  0  0  0  0
 29 27  1  0  0  0  0
 31 30  1  0  0  0  0
 31 32  1  0  0  0  0
 33 32  2  0  0  0  0
 33 34  1  0  0  0  0
 35 33  1  0  0  0  0
 36 37  1  0  0  0  0
 36 35  2  0  0  0  0
 37 31  2  0  0  0  0
M  END
>  <minimizedAffinity>
-4.60478544

$$$$
