
 OpenBabel03252508333D

 30 32  0  0  1  0  0  0  0  0999 V2000
   38.2620   30.5260   41.0530 N   0  0  0  0  0  0  0  0  0  0  0  0
   36.9980   31.0900   40.7500 C   0  0  1  0  0  0  0  0  0  0  0  0
   37.0100   32.4660   40.2050 C   0  0  0  0  0  0  0  0  0  0  0  0
   38.0440   33.3260   40.5970 N   0  0  0  0  0  0  0  0  0  0  0  0
   39.2540   32.7650   41.0250 C   0  0  0  0  0  0  0  0  0  0  0  0
   39.3690   31.3150   40.6130 C   0  0  0  0  0  0  0  0  0  0  0  0
   36.3800   31.0760   41.6840 H   0  0  0  0  0  0  0  0  0  0  0  0
   37.0210   32.4080   39.0740 H   0  0  0  0  0  0  0  0  0  0  0  0
   36.0210   32.9510   40.4200 H   0  0  0  0  0  0  0  0  0  0  0  0
   38.2100   34.0470   39.8580 H   0  0  0  0  0  0  0  0  0  0  0  0
   39.3170   32.8680   42.1380 H   0  0  0  0  0  0  0  0  0  0  0  0
   40.1490   33.2960   40.6110 H   0  0  0  0  0  0  0  0  0  0  0  0
   40.3690   30.9280   40.8210 H   0  0  0  0  0  0  0  0  0  0  0  0
   39.3220   31.3570   39.4780 H   0  0  0  0  0  0  0  0  0  0  0  0
   37.7680   29.2110   42.9790 C   0  0  0  0  0  0  0  0  0  0  0  0
   38.3310   29.2880   41.7090 C   0  0  0  0  0  0  0  0  0  0  0  0
   38.9430   28.1390   41.1900 C   0  0  0  0  0  0  0  0  0  0  0  0
   38.9780   26.9900   41.9190 N   0  0  0  0  0  0  0  0  0  0  0  0
   38.4140   26.9550   43.1600 C   0  0  0  0  0  0  0  0  0  0  0  0
   37.8200   28.0470   43.6790 N   0  0  0  0  0  0  0  0  0  0  0  0
   37.2570   29.9670   43.5500 H   0  0  0  0  0  0  0  0  0  0  0  0
   39.3720   28.1740   40.2240 H   0  0  0  0  0  0  0  0  0  0  0  0
   38.4780   26.0050   43.6910 H   0  0  0  0  0  0  0  0  0  0  0  0
   36.2300   30.2560   39.7500 C   0  0  0  0  0  0  0  0  0  0  0  0
   35.1470   29.4200   39.9110 C   0  0  0  0  0  3  0  0  0  0  0  0
   34.6500   28.7800   38.8050 C   0  0  0  0  0  0  0  0  0  0  0  0
   33.7990   28.1420   39.0220 H   0  0  0  0  0  0  0  0  0  0  0  0
   35.2110   28.9700   37.5960 N   0  0  0  0  0  0  0  0  0  0  0  0
   36.2530   29.7780   37.4550 C   0  0  0  0  0  3  0  0  0  0  0  0
   36.7810   30.4330   38.5150 N   0  0  0  0  0  0  0  0  0  0  0  0
  1 16  1  0  0  0  0
  2  1  1  0  0  0  0
  2  7  1  1  0  0  0
  3  9  1  0  0  0  0
  3  4  1  0  0  0  0
  3  2  1  0  0  0  0
  4  5  1  0  0  0  0
  5 11  1  0  0  0  0
  6 13  1  0  0  0  0
  6  5  1  0  0  0  0
  6  1  1  0  0  0  0
  8  3  1  0  0  0  0
 10  4  1  0  0  0  0
 12  5  1  0  0  0  0
 14  6  1  0  0  0  0
 15 21  1  0  0  0  0
 15 20  1  0  0  0  0
 16 15  2  0  0  0  0
 17 16  1  0  0  0  0
 17 18  2  0  0  0  0
 18 19  1  0  0  0  0
 19 20  2  0  0  0  0
 19 23  1  0  0  0  0
 22 17  1  0  0  0  0
 24 25  1  0  0  0  0
 24  2  1  0  0  0  0
 26 27  1  0  0  0  0
 26 25  2  0  0  0  0
 28 26  1  0  0  0  0
 29 28  2  0  0  0  0
 29 30  1  0  0  0  0
 30 24  2  0  0  0  0
M  END
>  <minimizedAffinity>
-4.7404747

$$$$

 OpenBabel03252508333D

 30 32  0  0  1  0  0  0  0  0999 V2000
   36.8410   30.1980   39.2380 N   0  0  0  0  0  0  0  0  0  0  0  0
   35.9800   29.7920   40.2870 C   0  0  1  0  0  0  0  0  0  0  0  0
   34.9100   28.8380   39.9210 C   0  0  0  0  0  0  0  0  0  0  0  0
   34.3930   28.8870   38.6200 N   0  0  0  0  0  0  0  0  0  0  0  0
   35.1980   29.4130   37.6010 C   0  0  0  0  0  0  0  0  0  0  0  0
   36.6490   29.4780   38.0190 C   0  0  0  0  0  0  0  0  0  0  0  0
   35.5130   30.7100   40.7260 H   0  0  0  0  0  0  0  0  0  0  0  0
   35.2840   27.7840   40.1040 H   0  0  0  0  0  0  0  0  0  0  0  0
   34.0690   28.9340   40.6590 H   0  0  0  0  0  0  0  0  0  0  0  0
   34.0170   27.9500   38.3480 H   0  0  0  0  0  0  0  0  0  0  0  0
   34.8130   30.4310   37.3390 H   0  0  0  0  0  0  0  0  0  0  0  0
   35.1540   28.8100   36.6590 H   0  0  0  0  0  0  0  0  0  0  0  0
   37.2860   29.7500   37.1750 H   0  0  0  0  0  0  0  0  0  0  0  0
   36.9150   28.3920   38.2240 H   0  0  0  0  0  0  0  0  0  0  0  0
   37.3000   32.4560   39.8480 C   0  0  0  0  0  0  0  0  0  0  0  0
   37.7860   31.2090   39.4680 C   0  0  0  0  0  0  0  0  0  0  0  0
   39.1720   31.0610   39.3190 C   0  0  0  0  0  0  0  0  0  0  0  0
   40.0040   32.1140   39.5430 N   0  0  0  0  0  0  0  0  0  0  0  0
   39.4880   33.3200   39.9140 C   0  0  0  0  0  0  0  0  0  0  0  0
   38.1600   33.4870   40.0630 N   0  0  0  0  0  0  0  0  0  0  0  0
   36.2860   32.7760   40.0160 H   0  0  0  0  0  0  0  0  0  0  0  0
   39.5630   30.1190   39.0370 H   0  0  0  0  0  0  0  0  0  0  0  0
   40.2090   34.1220   40.0760 H   0  0  0  0  0  0  0  0  0  0  0  0
   36.7370   29.1460   41.4250 C   0  0  0  0  0  0  0  0  0  0  0  0
   37.5090   29.6950   42.4260 C   0  0  0  0  0  3  0  0  0  0  0  0
   38.0870   28.8510   43.3390 C   0  0  0  0  0  0  0  0  0  0  0  0
   38.6760   29.3660   44.0910 H   0  0  0  0  0  0  0  0  0  0  0  0
   37.9000   27.5210   43.2520 N   0  0  0  0  0  0  0  0  0  0  0  0
   37.1560   27.0050   42.2830 C   0  0  0  0  0  3  0  0  0  0  0  0
   36.5640   27.7950   41.3580 N   0  0  0  0  0  0  0  0  0  0  0  0
  1 16  1  0  0  0  0
  1  2  1  0  0  0  0
  2  7  1  1  0  0  0
  2 24  1  0  0  0  0
  3  8  1  0  0  0  0
  3  2  1  0  0  0  0
  3  9  1  0  0  0  0
  4  3  1  0  0  0  0
  5  6  1  0  0  0  0
  5  4  1  0  0  0  0
  6 14  1  0  0  0  0
  6  1  1  0  0  0  0
 10  4  1  0  0  0  0
 11  5  1  0  0  0  0
 12  5  1  0  0  0  0
 13  6  1  0  0  0  0
 15 21  1  0  0  0  0
 15 20  1  0  0  0  0
 16 15  2  0  0  0  0
 17 16  1  0  0  0  0
 17 18  2  0  0  0  0
 18 19  1  0  0  0  0
 19 20  2  0  0  0  0
 19 23  1  0  0  0  0
 22 17  1  0  0  0  0
 24 25  1  0  0  0  0
 25 26  2  0  0  0  0
 26 27  1  0  0  0  0
 28 26  1  0  0  0  0
 29 28  2  0  0  0  0
 30 24  2  0  0  0  0
 30 29  1  0  0  0  0
M  END
>  <minimizedAffinity>
-4.47384691

$$$$

 OpenBabel03252508333D

 30 32  0  0  1  0  0  0  0  0999 V2000
   38.9820   27.6950   41.9980 N   0  0  0  0  0  0  0  0  0  0  0  0
   37.6970   27.2630   42.4060 C   0  0  1  0  0  0  0  0  0  0  0  0
   36.6180   28.2740   42.3480 C   0  0  0  0  0  0  0  0  0  0  0  0
   36.9590   29.6190   42.5430 N   0  0  0  0  0  0  0  0  0  0  0  0
   38.2710   30.0230   42.2650 C   0  0  0  0  0  0  0  0  0  0  0  0
   38.9980   29.0020   41.4210 C   0  0  0  0  0  0  0  0  0  0  0  0
   37.7770   26.8780   43.4540 H   0  0  0  0  0  0  0  0  0  0  0  0
   36.0970   28.1920   41.3450 H   0  0  0  0  0  0  0  0  0  0  0  0
   35.8100   27.9860   43.0720 H   0  0  0  0  0  0  0  0  0  0  0  0
   36.2690   30.2370   42.0560 H   0  0  0  0  0  0  0  0  0  0  0  0
   38.8020   30.1870   43.2370 H   0  0  0  0  0  0  0  0  0  0  0  0
   38.3180   30.9970   41.7150 H   0  0  0  0  0  0  0  0  0  0  0  0
   39.9640   29.3870   41.0890 H   0  0  0  0  0  0  0  0  0  0  0  0
   38.3800   28.9560   40.4680 H   0  0  0  0  0  0  0  0  0  0  0  0
   40.3380   26.3740   43.4460 C   0  0  0  0  0  0  0  0  0  0  0  0
   40.0860   26.8440   42.1620 C   0  0  0  0  0  0  0  0  0  0  0  0
   40.9590   26.4580   41.1360 C   0  0  0  0  0  0  0  0  0  0  0  0
   42.0180   25.6460   41.4050 N   0  0  0  0  0  0  0  0  0  0  0  0
   42.2310   25.2060   42.6770 C   0  0  0  0  0  0  0  0  0  0  0  0
   41.4050   25.5640   43.6790 N   0  0  0  0  0  0  0  0  0  0  0  0
   39.7970   26.5490   44.3600 H   0  0  0  0  0  0  0  0  0  0  0  0
   40.7820   26.7990   40.1510 H   0  0  0  0  0  0  0  0  0  0  0  0
   43.0970   24.5600   42.8250 H   0  0  0  0  0  0  0  0  0  0  0  0
   37.2070   26.0900   41.5870 C   0  0  0  0  0  0  0  0  0  0  0  0
   37.0100   24.7690   41.9260 C   0  0  0  0  0  3  0  0  0  0  0  0
   36.5500   23.9110   40.9600 C   0  0  0  0  0  0  0  0  0  0  0  0
   36.4230   22.8920   41.3130 H   0  0  0  0  0  0  0  0  0  0  0  0
   36.2990   24.3570   39.7150 N   0  0  0  0  0  0  0  0  0  0  0  0
   36.4930   25.6300   39.4020 C   0  0  0  0  0  3  0  0  0  0  0  0
   36.9460   26.5170   40.3190 N   0  0  0  0  0  0  0  0  0  0  0  0
  1 16  1  0  0  0  0
  1  2  1  0  0  0  0
  2  7  1  1  0  0  0
  3  2  1  0  0  0  0
  3  4  1  0  0  0  0
  3  9  1  0  0  0  0
  5  4  1  0  0  0  0
  5 11  1  0  0  0  0
  6  1  1  0  0  0  0
  6  5  1  0  0  0  0
  8  3  1  0  0  0  0
 10  4  1  0  0  0  0
 12  5  1  0  0  0  0
 13  6  1  0  0  0  0
 14  6  1  0  0  0  0
 15 20  1  0  0  0  0
 15 21  1  0  0  0  0
 16 15  2  0  0  0  0
 17 18  2  0  0  0  0
 17 16  1  0  0  0  0
 18 19  1  0  0  0  0
 19 23  1  0  0  0  0
 19 20  2  0  0  0  0
 22 17  1  0  0  0  0
 24 25  1  0  0  0  0
 24  2  1  0  0  0  0
 26 27  1  0  0  0  0
 26 25  2  0  0  0  0
 28 26  1  0  0  0  0
 29 28  2  0  0  0  0
 29 30  1  0  0  0  0
 30 24  2  0  0  0  0
M  END
>  <minimizedAffinity>
-4.42302799

$$$$

 OpenBabel03252508333D

 30 32  0  0  1  0  0  0  0  0999 V2000
   38.0150   30.9100   40.0920 N   0  0  0  0  0  0  0  0  0  0  0  0
   38.9800   30.2430   40.8860 C   0  0  1  0  0  0  0  0  0  0  0  0
   39.6380   31.0540   41.9340 C   0  0  0  0  0  0  0  0  0  0  0  0
   39.8010   32.4260   41.7060 N   0  0  0  0  0  0  0  0  0  0  0  0
   38.9280   33.0640   40.8150 C   0  0  0  0  0  0  0  0  0  0  0  0
   37.6980   32.2260   40.5480 C   0  0  0  0  0  0  0  0  0  0  0  0
   39.7640   29.8280   40.2020 H   0  0  0  0  0  0  0  0  0  0  0  0
   39.0640   30.9320   42.9020 H   0  0  0  0  0  0  0  0  0  0  0  0
   40.6340   30.5960   42.1760 H   0  0  0  0  0  0  0  0  0  0  0  0
   39.8410   32.9380   42.6170 H   0  0  0  0  0  0  0  0  0  0  0  0
   39.4820   33.2700   39.8650 H   0  0  0  0  0  0  0  0  0  0  0  0
   38.5730   34.0570   41.1910 H   0  0  0  0  0  0  0  0  0  0  0  0
   36.9600   32.7880   39.9730 H   0  0  0  0  0  0  0  0  0  0  0  0
   37.2220   32.1200   41.5750 H   0  0  0  0  0  0  0  0  0  0  0  0
   38.3230   29.8720   37.9670 C   0  0  0  0  0  0  0  0  0  0  0  0
   37.4540   30.2560   38.9840 C   0  0  0  0  0  0  0  0  0  0  0  0
   36.0890   29.9860   38.8200 C   0  0  0  0  0  0  0  0  0  0  0  0
   35.6410   29.3660   37.6940 N   0  0  0  0  0  0  0  0  0  0  0  0
   36.5250   29.0060   36.7200 C   0  0  0  0  0  0  0  0  0  0  0  0
   37.8420   29.2550   36.8560 N   0  0  0  0  0  0  0  0  0  0  0  0
   39.3910   29.9850   37.8980 H   0  0  0  0  0  0  0  0  0  0  0  0
   35.4120   30.2630   39.5840 H   0  0  0  0  0  0  0  0  0  0  0  0
   36.1010   28.5140   35.8440 H   0  0  0  0  0  0  0  0  0  0  0  0
   38.3960   29.0430   41.5980 C   0  0  0  0  0  0  0  0  0  0  0  0
   38.2340   27.7380   41.1880 C   0  0  0  0  0  3  0  0  0  0  0  0
   37.6630   26.8490   42.0610 C   0  0  0  0  0  0  0  0  0  0  0  0
   37.5730   25.8450   41.6580 H   0  0  0  0  0  0  0  0  0  0  0  0
   37.2730   27.2480   43.2860 N   0  0  0  0  0  0  0  0  0  0  0  0
   37.4340   28.5080   43.6670 C   0  0  0  0  0  3  0  0  0  0  0  0
   37.9930   29.4250   42.8430 N   0  0  0  0  0  0  0  0  0  0  0  0
  1  6  1  0  0  0  0
  1  2  1  0  0  0  0
  2  7  1  6  0  0  0
  2 24  1  0  0  0  0
  2  3  1  0  0  0  0
  3  9  1  0  0  0  0
  3  8  1  0  0  0  0
  4  3  1  0  0  0  0
  4 10  1  0  0  0  0
  5 12  1  0  0  0  0
  5  4  1  0  0  0  0
  6  5  1  0  0  0  0
  6 14  1  0  0  0  0
 11  5  1  0  0  0  0
 13  6  1  0  0  0  0
 15 16  1  0  0  0  0
 16  1  1  0  0  0  0
 17 16  2  0  0  0  0
 17 22  1  0  0  0  0
 18 17  1  0  0  0  0
 19 20  1  0  0  0  0
 19 18  2  0  0  0  0
 20 15  2  0  0  0  0
 21 15  1  0  0  0  0
 23 19  1  0  0  0  0
 24 30  1  0  0  0  0
 25 24  2  0  0  0  0
 25 26  1  0  0  0  0
 26 28  2  0  0  0  0
 27 26  1  0  0  0  0
 28 29  1  0  0  0  0
 30 29  2  0  0  0  0
M  END
>  <minimizedAffinity>
-4.40439081

$$$$

 OpenBabel03252508333D

 30 32  0  0  1  0  0  0  0  0999 V2000
   37.4860   29.9630   39.3230 N   0  0  0  0  0  0  0  0  0  0  0  0
   38.4280   30.7420   38.6090 C   0  0  1  0  0  0  0  0  0  0  0  0
   38.0510   31.1220   37.2290 C   0  0  0  0  0  0  0  0  0  0  0  0
   37.2240   30.2540   36.5050 N   0  0  0  0  0  0  0  0  0  0  0  0
   36.3840   29.3850   37.2140 C   0  0  0  0  0  0  0  0  0  0  0  0
   36.2310   29.8150   38.6550 C   0  0  0  0  0  0  0  0  0  0  0  0
   39.3940   30.1760   38.5780 H   0  0  0  0  0  0  0  0  0  0  0  0
   37.5480   32.1360   37.2560 H   0  0  0  0  0  0  0  0  0  0  0  0
   38.9860   31.3230   36.6400 H   0  0  0  0  0  0  0  0  0  0  0  0
   36.6830   30.7900   35.7880 H   0  0  0  0  0  0  0  0  0  0  0  0
   36.8100   28.3520   37.1490 H   0  0  0  0  0  0  0  0  0  0  0  0
   35.3540   29.3260   36.7780 H   0  0  0  0  0  0  0  0  0  0  0  0
   35.4660   29.2220   39.1600 H   0  0  0  0  0  0  0  0  0  0  0  0
   35.7680   30.8500   38.5760 H   0  0  0  0  0  0  0  0  0  0  0  0
   38.8600   28.5080   40.6180 C   0  0  0  0  0  0  0  0  0  0  0  0
   37.8270   29.4380   40.5790 C   0  0  0  0  0  0  0  0  0  0  0  0
   37.1890   29.7640   41.7840 C   0  0  0  0  0  0  0  0  0  0  0  0
   37.5810   29.1790   42.9490 N   0  0  0  0  0  0  0  0  0  0  0  0
   38.5980   28.2720   42.9450 C   0  0  0  0  0  0  0  0  0  0  0  0
   39.2260   27.9430   41.7990 N   0  0  0  0  0  0  0  0  0  0  0  0
   39.4710   28.1260   39.8180 H   0  0  0  0  0  0  0  0  0  0  0  0
   36.4050   30.4750   41.7770 H   0  0  0  0  0  0  0  0  0  0  0  0
   38.8620   27.8400   43.9110 H   0  0  0  0  0  0  0  0  0  0  0  0
   38.7480   32.0380   39.3200 C   0  0  0  0  0  0  0  0  0  0  0  0
   37.9430   33.0980   39.6770 C   0  0  0  0  0  3  0  0  0  0  0  0
   38.5160   34.1600   40.3250 C   0  0  0  0  0  0  0  0  0  0  0  0
   37.8110   34.9490   40.5680 H   0  0  0  0  0  0  0  0  0  0  0  0
   39.8330   34.1610   40.6040 N   0  0  0  0  0  0  0  0  0  0  0  0
   40.5970   33.1350   40.2550 C   0  0  0  0  0  3  0  0  0  0  0  0
   40.0800   32.0610   39.6130 N   0  0  0  0  0  0  0  0  0  0  0  0
  1 16  1  0  0  0  0
  2  7  1  6  0  0  0
  2 24  1  0  0  0  0
  2  1  1  0  0  0  0
  3  8  1  0  0  0  0
  3  2  1  0  0  0  0
  4  5  1  0  0  0  0
  4  3  1  0  0  0  0
  5  6  1  0  0  0  0
  6 13  1  0  0  0  0
  6  1  1  0  0  0  0
  9  3  1  0  0  0  0
 10  4  1  0  0  0  0
 11  5  1  0  0  0  0
 12  5  1  0  0  0  0
 14  6  1  0  0  0  0
 15 20  1  0  0  0  0
 16 15  2  0  0  0  0
 16 17  1  0  0  0  0
 17 18  2  0  0  0  0
 19 18  1  0  0  0  0
 19 23  1  0  0  0  0
 20 19  2  0  0  0  0
 21 15  1  0  0  0  0
 22 17  1  0  0  0  0
 24 30  2  0  0  0  0
 24 25  1  0  0  0  0
 25 26  2  0  0  0  0
 26 27  1  0  0  0  0
 26 28  1  0  0  0  0
 29 28  2  0  0  0  0
 30 29  1  0  0  0  0
M  END
>  <minimizedAffinity>
-4.38755894

$$$$

 OpenBabel03252508333D

 30 32  0  0  1  0  0  0  0  0999 V2000
   39.0020   30.4290   39.1500 N   0  0  0  0  0  0  0  0  0  0  0  0
   37.8450   31.1630   38.7910 C   0  0  1  0  0  0  0  0  0  0  0  0
   37.8710   31.8150   37.4630 C   0  0  0  0  0  0  0  0  0  0  0  0
   39.1070   32.2340   36.9530 N   0  0  0  0  0  0  0  0  0  0  0  0
   40.2680   31.5960   37.4090 C   0  0  0  0  0  0  0  0  0  0  0  0
   39.9500   30.2850   38.0900 C   0  0  0  0  0  0  0  0  0  0  0  0
   37.6730   31.9430   39.5750 H   0  0  0  0  0  0  0  0  0  0  0  0
   37.4050   31.1140   36.7040 H   0  0  0  0  0  0  0  0  0  0  0  0
   37.1580   32.6820   37.4700 H   0  0  0  0  0  0  0  0  0  0  0  0
   39.0770   32.2470   35.9080 H   0  0  0  0  0  0  0  0  0  0  0  0
   40.7990   32.2900   38.1090 H   0  0  0  0  0  0  0  0  0  0  0  0
   40.9910   31.3710   36.5840 H   0  0  0  0  0  0  0  0  0  0  0  0
   40.8630   29.7290   38.3110 H   0  0  0  0  0  0  0  0  0  0  0  0
   39.4490   29.6760   37.2720 H   0  0  0  0  0  0  0  0  0  0  0  0
   39.3350   28.5370   40.5620 C   0  0  0  0  0  0  0  0  0  0  0  0
   39.1180   29.9060   40.4470 C   0  0  0  0  0  0  0  0  0  0  0  0
   39.0090   30.6560   41.6260 C   0  0  0  0  0  0  0  0  0  0  0  0
   39.1130   30.0480   42.8390 N   0  0  0  0  0  0  0  0  0  0  0  0
   39.3250   28.7040   42.9090 C   0  0  0  0  0  0  0  0  0  0  0  0
   39.4340   27.9620   41.7900 N   0  0  0  0  0  0  0  0  0  0  0  0
   39.4480   27.7930   39.7920 H   0  0  0  0  0  0  0  0  0  0  0  0
   38.8500   31.7000   41.5610 H   0  0  0  0  0  0  0  0  0  0  0  0
   39.3970   28.2790   43.9110 H   0  0  0  0  0  0  0  0  0  0  0  0
   36.6020   30.3020   38.8040 C   0  0  0  0  0  0  0  0  0  0  0  0
   35.7630   29.9400   39.8350 C   0  0  0  0  0  3  0  0  0  0  0  0
   34.6920   29.1340   39.5490 C   0  0  0  0  0  0  0  0  0  0  0  0
   34.0850   28.8980   40.4180 H   0  0  0  0  0  0  0  0  0  0  0  0
   34.4710   28.7120   38.2900 N   0  0  0  0  0  0  0  0  0  0  0  0
   35.2870   29.0680   37.3070 C   0  0  0  0  0  3  0  0  0  0  0  0
   36.3580   29.8620   37.5370 N   0  0  0  0  0  0  0  0  0  0  0  0
  1 16  1  0  0  0  0
  2 24  1  0  0  0  0
  2  1  1  0  0  0  0
  2  7  1  1  0  0  0
  3  9  1  0  0  0  0
  3  2  1  0  0  0  0
  4  5  1  0  0  0  0
  4  3  1  0  0  0  0
  5  6  1  0  0  0  0
  5 11  1  0  0  0  0
  6 13  1  0  0  0  0
  6  1  1  0  0  0  0
  8  3  1  0  0  0  0
 10  4  1  0  0  0  0
 12  5  1  0  0  0  0
 14  6  1  0  0  0  0
 15 20  1  0  0  0  0
 16 15  2  0  0  0  0
 16 17  1  0  0  0  0
 17 18  2  0  0  0  0
 18 19  1  0  0  0  0
 19 23  1  0  0  0  0
 20 19  2  0  0  0  0
 21 15  1  0  0  0  0
 22 17  1  0  0  0  0
 24 25  1  0  0  0  0
 26 25  2  0  0  0  0
 26 27  1  0  0  0  0
 28 26  1  0  0  0  0
 29 30  1  0  0  0  0
 29 28  2  0  0  0  0
 30 24  2  0  0  0  0
M  END
>  <minimizedAffinity>
-4.37882519

$$$$

 OpenBabel03252508333D

 30 32  0  0  1  0  0  0  0  0999 V2000
   36.6850   29.2410   40.1090 N   0  0  0  0  0  0  0  0  0  0  0  0
   37.2940   29.8730   38.9970 C   0  0  1  0  0  0  0  0  0  0  0  0
   36.4160   30.1420   37.8360 C   0  0  0  0  0  0  0  0  0  0  0  0
   35.3450   29.2720   37.5990 N   0  0  0  0  0  0  0  0  0  0  0  0
   34.8250   28.5420   38.6770 C   0  0  0  0  0  0  0  0  0  0  0  0
   35.2650   29.1220   40.0020 C   0  0  0  0  0  0  0  0  0  0  0  0
   38.1520   29.2360   38.6630 H   0  0  0  0  0  0  0  0  0  0  0  0
   35.9950   31.1890   37.9340 H   0  0  0  0  0  0  0  0  0  0  0  0
   37.0490   30.2140   36.9110 H   0  0  0  0  0  0  0  0  0  0  0  0
   34.5820   29.7730   37.0890 H   0  0  0  0  0  0  0  0  0  0  0  0
   35.1600   27.4790   38.5770 H   0  0  0  0  0  0  0  0  0  0  0  0
   33.7060   28.5180   38.6850 H   0  0  0  0  0  0  0  0  0  0  0  0
   34.7430   28.6410   40.8310 H   0  0  0  0  0  0  0  0  0  0  0  0
   34.8400   30.1760   39.9850 H   0  0  0  0  0  0  0  0  0  0  0  0
   38.3780   27.7860   40.9470 C   0  0  0  0  0  0  0  0  0  0  0  0
   37.4770   28.8180   41.1870 C   0  0  0  0  0  0  0  0  0  0  0  0
   37.4080   29.3420   42.4850 C   0  0  0  0  0  0  0  0  0  0  0  0
   38.2050   28.8450   43.4700 N   0  0  0  0  0  0  0  0  0  0  0  0
   39.0750   27.8320   43.1940 C   0  0  0  0  0  0  0  0  0  0  0  0
   39.1590   27.3130   41.9540 N   0  0  0  0  0  0  0  0  0  0  0  0
   38.5840   27.2530   40.0340 H   0  0  0  0  0  0  0  0  0  0  0  0
   36.7340   30.1320   42.6880 H   0  0  0  0  0  0  0  0  0  0  0  0
   39.6830   27.4790   44.0270 H   0  0  0  0  0  0  0  0  0  0  0  0
   37.9070   31.2050   39.3680 C   0  0  0  0  0  0  0  0  0  0  0  0
   37.3450   32.3410   39.9080 C   0  0  0  0  0  3  0  0  0  0  0  0
   38.1580   33.4200   40.1420 C   0  0  0  0  0  0  0  0  0  0  0  0
   37.6340   34.2700   40.5680 H   0  0  0  0  0  0  0  0  0  0  0  0
   39.4700   33.3620   39.8500 N   0  0  0  0  0  0  0  0  0  0  0  0
   39.9980   32.2630   39.3300 C   0  0  0  0  0  3  0  0  0  0  0  0
   39.2390   31.1700   39.0800 N   0  0  0  0  0  0  0  0  0  0  0  0
  1 16  1  0  0  0  0
  2  7  1  6  0  0  0
  2 24  1  0  0  0  0
  2  1  1  0  0  0  0
  3  8  1  0  0  0  0
  3  2  1  0  0  0  0
  4  3  1  0  0  0  0
  4  5  1  0  0  0  0
  5 12  1  0  0  0  0
  5  6  1  0  0  0  0
  6  1  1  0  0  0  0
  6 13  1  0  0  0  0
  9  3  1  0  0  0  0
 10  4  1  0  0  0  0
 11  5  1  0  0  0  0
 14  6  1  0  0  0  0
 15 16  2  0  0  0  0
 15 20  1  0  0  0  0
 16 17  1  0  0  0  0
 17 22  1  0  0  0  0
 17 18  2  0  0  0  0
 19 18  1  0  0  0  0
 19 23  1  0  0  0  0
 20 19  2  0  0  0  0
 21 15  1  0  0  0  0
 24 25  1  0  0  0  0
 25 26  2  0  0  0  0
 26 27  1  0  0  0  0
 28 26  1  0  0  0  0
 29 28  2  0  0  0  0
 30 29  1  0  0  0  0
 30 24  2  0  0  0  0
M  END
>  <minimizedAffinity>
-4.37811089

$$$$

 OpenBabel03252508333D

 30 32  0  0  1  0  0  0  0  0999 V2000
   39.4830   31.8950   39.0770 N   0  0  0  0  0  0  0  0  0  0  0  0
   39.7990   32.8770   40.0470 C   0  0  1  0  0  0  0  0  0  0  0  0
   38.6560   33.4640   40.7810 C   0  0  0  0  0  0  0  0  0  0  0  0
   37.4230   33.5540   40.1240 N   0  0  0  0  0  0  0  0  0  0  0  0
   37.1590   32.6670   39.0720 C   0  0  0  0  0  0  0  0  0  0  0  0
   38.1110   31.4940   39.0850 C   0  0  0  0  0  0  0  0  0  0  0  0
   40.3630   33.6990   39.5360 H   0  0  0  0  0  0  0  0  0  0  0  0
   38.4970   32.8750   41.7350 H   0  0  0  0  0  0  0  0  0  0  0  0
   38.9510   34.4780   41.1610 H   0  0  0  0  0  0  0  0  0  0  0  0
   36.6440   33.5440   40.8220 H   0  0  0  0  0  0  0  0  0  0  0  0
   37.2350   33.2310   38.1090 H   0  0  0  0  0  0  0  0  0  0  0  0
   36.1210   32.2480   39.1080 H   0  0  0  0  0  0  0  0  0  0  0  0
   37.8100   30.7390   38.3560 H   0  0  0  0  0  0  0  0  0  0  0  0
   37.9110   31.0010   40.0890 H   0  0  0  0  0  0  0  0  0  0  0  0
   41.2550   32.3310   37.5430 C   0  0  0  0  0  0  0  0  0  0  0  0
   40.4900   31.3980   38.2360 C   0  0  0  0  0  0  0  0  0  0  0  0
   40.7630   30.0390   38.0290 C   0  0  0  0  0  0  0  0  0  0  0  0
   41.7490   29.6590   37.1710 N   0  0  0  0  0  0  0  0  0  0  0  0
   42.4760   30.6040   36.5100 C   0  0  0  0  0  0  0  0  0  0  0  0
   42.2320   31.9160   36.6940 N   0  0  0  0  0  0  0  0  0  0  0  0
   41.2080   33.4060   37.5600 H   0  0  0  0  0  0  0  0  0  0  0  0
   40.1970   29.3130   38.5510 H   0  0  0  0  0  0  0  0  0  0  0  0
   43.2500   30.2330   35.8380 H   0  0  0  0  0  0  0  0  0  0  0  0
   40.7410   32.3460   41.1040 C   0  0  0  0  0  0  0  0  0  0  0  0
   40.6030   31.3090   42.0010 C   0  0  0  0  0  3  0  0  0  0  0  0
   41.6390   31.0490   42.8600 C   0  0  0  0  0  0  0  0  0  0  0  0
   41.4460   30.2170   43.5300 H   0  0  0  0  0  0  0  0  0  0  0  0
   42.7590   31.7940   42.8220 N   0  0  0  0  0  0  0  0  0  0  0  0
   42.8790   32.7900   41.9560 C   0  0  0  0  0  3  0  0  0  0  0  0
   41.8850   33.0870   41.0860 N   0  0  0  0  0  0  0  0  0  0  0  0
  1  6  1  0  0  0  0
  1  2  1  0  0  0  0
  2  7  1  6  0  0  0
  2  3  1  0  0  0  0
  2 24  1  0  0  0  0
  3  9  1  0  0  0  0
  3  8  1  0  0  0  0
  4  3  1  0  0  0  0
  4 10  1  0  0  0  0
  5  6  1  0  0  0  0
  5 12  1  0  0  0  0
  5  4  1  0  0  0  0
  6 14  1  0  0  0  0
 11  5  1  0  0  0  0
 13  6  1  0  0  0  0
 15 21  1  0  0  0  0
 15 16  1  0  0  0  0
 16  1  1  0  0  0  0
 17 16  2  0  0  0  0
 17 22  1  0  0  0  0
 18 17  1  0  0  0  0
 19 20  1  0  0  0  0
 19 18  2  0  0  0  0
 20 15  2  0  0  0  0
 23 19  1  0  0  0  0
 24 25  1  0  0  0  0
 25 26  2  0  0  0  0
 26 27  1  0  0  0  0
 28 26  1  0  0  0  0
 29 28  2  0  0  0  0
 30 24  2  0  0  0  0
 30 29  1  0  0  0  0
M  END
>  <minimizedAffinity>
-4.34519911

$$$$

 OpenBabel03252508333D

 30 32  0  0  1  0  0  0  0  0999 V2000
   37.0400   28.5440   40.5950 N   0  0  0  0  0  0  0  0  0  0  0  0
   36.9760   29.5410   41.6000 C   0  0  1  0  0  0  0  0  0  0  0  0
   37.6300   29.2150   42.8860 C   0  0  0  0  0  0  0  0  0  0  0  0
   37.6760   27.8730   43.2850 N   0  0  0  0  0  0  0  0  0  0  0  0
   37.6050   26.8800   42.3000 C   0  0  0  0  0  0  0  0  0  0  0  0
   37.8870   27.4420   40.9250 C   0  0  0  0  0  0  0  0  0  0  0  0
   35.8970   29.7720   41.7890 H   0  0  0  0  0  0  0  0  0  0  0  0
   38.6930   29.6040   42.8630 H   0  0  0  0  0  0  0  0  0  0  0  0
   37.1580   29.8280   43.7000 H   0  0  0  0  0  0  0  0  0  0  0  0
   38.4980   27.7140   43.9130 H   0  0  0  0  0  0  0  0  0  0  0  0
   36.5870   26.4160   42.3390 H   0  0  0  0  0  0  0  0  0  0  0  0
   38.3350   26.0470   42.4700 H   0  0  0  0  0  0  0  0  0  0  0  0
   37.9730   26.6430   40.1870 H   0  0  0  0  0  0  0  0  0  0  0  0
   38.9450   27.8470   41.0160 H   0  0  0  0  0  0  0  0  0  0  0  0
   34.9390   28.8340   39.5060 C   0  0  0  0  0  0  0  0  0  0  0  0
   36.3210   28.7130   39.4020 C   0  0  0  0  0  0  0  0  0  0  0  0
   36.8890   28.7450   38.1220 C   0  0  0  0  0  0  0  0  0  0  0  0
   36.1000   28.8890   37.0220 N   0  0  0  0  0  0  0  0  0  0  0  0
   34.7490   29.0040   37.1670 C   0  0  0  0  0  0  0  0  0  0  0  0
   34.1800   28.9770   38.3870 N   0  0  0  0  0  0  0  0  0  0  0  0
   34.3140   28.8350   40.3830 H   0  0  0  0  0  0  0  0  0  0  0  0
   37.9390   28.6610   38.0200 H   0  0  0  0  0  0  0  0  0  0  0  0
   34.1750   29.1160   36.2470 H   0  0  0  0  0  0  0  0  0  0  0  0
   37.5900   30.8450   41.1440 C   0  0  0  0  0  0  0  0  0  0  0  0
   37.0560   31.8960   40.4290 C   0  0  0  0  0  3  0  0  0  0  0  0
   37.8620   32.9700   40.1530 C   0  0  0  0  0  0  0  0  0  0  0  0
   37.3620   33.7500   39.5880 H   0  0  0  0  0  0  0  0  0  0  0  0
   39.1400   32.9910   40.5750 N   0  0  0  0  0  0  0  0  0  0  0  0
   39.6410   31.9740   41.2620 C   0  0  0  0  0  3  0  0  0  0  0  0
   38.8880   30.8890   41.5600 N   0  0  0  0  0  0  0  0  0  0  0  0
  1  6  1  0  0  0  0
  1  2  1  0  0  0  0
  2  7  1  1  0  0  0
  2  3  1  0  0  0  0
  3  4  1  0  0  0  0
  3  9  1  0  0  0  0
  4 10  1  0  0  0  0
  5 11  1  0  0  0  0
  5 12  1  0  0  0  0
  5  4  1  0  0  0  0
  6 14  1  0  0  0  0
  6  5  1  0  0  0  0
  8  3  1  0  0  0  0
 13  6  1  0  0  0  0
 15 21  1  0  0  0  0
 16 15  1  0  0  0  0
 16  1  1  0  0  0  0
 17 16  2  0  0  0  0
 18 19  2  0  0  0  0
 18 17  1  0  0  0  0
 19 20  1  0  0  0  0
 20 15  2  0  0  0  0
 22 17  1  0  0  0  0
 23 19  1  0  0  0  0
 24 30  1  0  0  0  0
 24  2  1  0  0  0  0
 25 24  2  0  0  0  0
 26 25  1  0  0  0  0
 26 28  2  0  0  0  0
 27 26  1  0  0  0  0
 28 29  1  0  0  0  0
 29 30  2  0  0  0  0
M  END
>  <minimizedAffinity>
-4.30802393

$$$$
