
     RDKit          3D

 45 48  0  0  0  0  0  0  0  0999 V2000
   47.8732   32.9233   41.8251 C   0  0  1  0  0  0  0  0  0  0  0  0
   47.5724   32.1844   40.5987 C   0  0  0  0  0  0  0  0  0  0  0  0
   48.5923   32.6387   39.5608 C   0  0  0  0  0  0  0  0  0  0  0  0
   48.2426   34.0597   39.2052 C   0  0  0  0  0  0  0  0  0  0  0  0
   48.1587   34.9788   40.3851 C   0  0  0  0  0  0  0  0  0  0  0  0
   47.6577   34.4305   41.6538 C   0  0  1  0  0  0  0  0  0  0  0  0
   45.4800   31.0987   44.1048 C   0  0  0  0  0  0  0  0  0  0  0  0
   46.1576   31.5701   42.9777 C   0  0  0  0  0  0  0  0  0  0  0  0
   47.2201   32.4752   43.0369 C   0  0  0  0  0  0  0  0  0  0  0  0
   47.5653   32.8797   44.2595 N   0  0  0  0  0  0  0  0  0  0  0  0
   46.9143   32.4291   45.3633 C   0  0  0  0  0  0  0  0  0  0  0  0
   45.9003   31.5640   45.2995 N   0  0  0  0  0  0  0  0  0  0  0  0
   46.2683   34.8090   41.9208 C   0  0  0  0  0  0  0  0  0  0  0  0
   45.8060   35.4966   43.0464 C   0  0  0  0  0  0  0  0  0  0  0  0
   44.4351   35.7649   43.0823 C   0  0  0  0  0  0  0  0  0  0  0  0
   43.6630   35.3329   42.0156 C   0  0  0  0  0  0  0  0  0  0  0  0
   44.1382   34.6513   40.9057 C   0  0  0  0  0  0  0  0  0  0  0  0
   45.4802   34.4044   40.9001 N   0  0  0  0  0  0  0  0  0  0  0  0
   43.2314   34.2484   39.8391 C   0  0  0  0  0  0  0  0  0  0  0  0
   42.3713   35.1052   39.4595 O   0  0  0  0  0  0  0  0  0  0  0  0
   48.9895   32.8644   42.0136 H   0  0  0  0  0  0  0  0  0  0  0  0
   46.5750   32.3390   40.1956 H   0  0  0  0  0  0  0  0  0  0  0  0
   47.6968   31.0891   40.8159 H   0  0  0  0  0  0  0  0  0  0  0  0
   49.6296   32.5555   39.9212 H   0  0  0  0  0  0  0  0  0  0  0  0
   48.3854   32.0411   38.6364 H   0  0  0  0  0  0  0  0  0  0  0  0
   47.2938   34.0549   38.5992 H   0  0  0  0  0  0  0  0  0  0  0  0
   49.0340   34.4085   38.5048 H   0  0  0  0  0  0  0  0  0  0  0  0
   49.1788   35.4446   40.5047 H   0  0  0  0  0  0  0  0  0  0  0  0
   47.5198   35.8428   40.0775 H   0  0  0  0  0  0  0  0  0  0  0  0
   48.2425   34.8954   42.4955 H   0  0  0  0  0  0  0  0  0  0  0  0
   44.6766   30.4096   44.0142 H   0  0  0  0  0  0  0  0  0  0  0  0
   45.8338   31.2063   41.9916 H   0  0  0  0  0  0  0  0  0  0  0  0
   47.2551   32.8055   46.3185 H   0  0  0  0  0  0  0  0  0  0  0  0
   46.5305   35.7587   43.7805 H   0  0  0  0  0  0  0  0  0  0  0  0
   44.0665   36.2865   43.9299 H   0  0  0  0  0  0  0  0  0  0  0  0
   42.6042   35.5667   42.0930 H   0  0  0  0  0  0  0  0  0  0  0  0
   43.1826   32.9686   39.1408 C   0  0  0  0  0  0  0  0  0  0  0  0
   42.7706   32.9684   37.8276 C   0  0  0  0  0  0  0  0  0  0  0  0
   42.7077   31.7592   37.1263 C   0  0  0  0  0  0  0  0  0  0  0  0
   42.3870   31.7305   36.0921 H   0  0  0  0  0  0  0  0  0  0  0  0
   43.0561   30.6050   37.7587 N   0  0  0  0  0  0  0  0  0  0  0  0
   43.4530   30.6047   39.0238 C   0  0  0  0  0  0  0  0  0  0  0  0
   43.4984   31.7680   39.6501 N   0  0  0  0  0  0  0  0  0  0  0  0
   42.4742   33.8528   37.2491 H   0  0  0  0  0  0  0  0  0  0  0  0
   43.7544   29.7781   39.6421 H   0  0  0  0  0  0  0  0  0  0  0  0
  1  9  1  0
  2  1  1  0
  3  2  1  0
  4  3  1  0
  4  5  1  0
  5  6  1  0
  6  1  1  0
  6 13  1  0
  7 12  2  0
  8  9  2  0
  8  7  1  0
  9 10  1  0
 10 11  2  0
 12 11  1  0
 13 14  2  0
 14 15  1  0
 16 15  2  0
 17 16  1  0
 18 17  2  0
 18 13  1  0
 19 17  1  0
 20 19  2  0
  1 21  1  1
  2 22  1  0
  2 23  1  0
  3 24  1  0
  3 25  1  0
  4 26  1  0
  4 27  1  0
  5 28  1  0
  5 29  1  0
  6 30  1  1
  7 31  1  0
  8 32  1  0
 11 33  1  0
 14 34  1  0
 15 35  1  0
 16 36  1  0
 37 38  2  0
 38 39  1  0
 39 40  1  0
 39 41  2  0
 41 42  1  0
 42 43  2  0
 43 37  1  0
 38 44  1  0
 42 45  1  0
 19 37  1  0
M  ISO  8  21  13  22  13  23  13  24  13  25  13  26  13  27  13  28  13
M  ISO  8  29  13  30  13  31  14  32  14  33  14  34  14  35  14  36  14
M  ISO  1  40  14
M  END
>  <DihAtoms>  (1) 
16,18,36,37

>  <DihDeg>  (1) 
-178.99697693125526

$$$$
