REMARK  Name = 
REMARK  4 active torsions:
REMARK  status: ('A' for Active; 'I' for Inactive)
REMARK    1  A    between atoms: C_1  and  C_9
REMARK    2  A    between atoms: C_6  and  C_13
REMARK    3  A    between atoms: C_17  and  C_19
REMARK    4  A    between atoms: C_19  and  C_37
REMARK                            x       y       z     vdW  Elec       q    Type
REMARK                         _______ _______ _______ _____ _____    ______ ____
ROOT
ATOM      1  C   UNL     1      47.873  32.923  41.825  0.00  0.00    +0.000 C 
ATOM      2  C   UNL     1      47.572  32.184  40.599  0.00  0.00    +0.000 C 
ATOM      3  C   UNL     1      48.592  32.639  39.561  0.00  0.00    +0.000 C 
ATOM      4  C   UNL     1      48.243  34.060  39.205  0.00  0.00    +0.000 C 
ATOM      5  C   UNL     1      48.159  34.979  40.385  0.00  0.00    +0.000 C 
ATOM      6  C   UNL     1      47.658  34.431  41.654  0.00  0.00    +0.000 C 
ATOM      7  H   UNL     1      48.989  32.864  42.014  0.00  0.00    +0.000 HD
ATOM      8  H   UNL     1      46.575  32.339  40.196  0.00  0.00    +0.000 HD
ATOM      9  H   UNL     1      47.697  31.089  40.816  0.00  0.00    +0.000 HD
ATOM     10  H   UNL     1      49.630  32.556  39.921  0.00  0.00    +0.000 HD
ATOM     11  H   UNL     1      48.385  32.041  38.636  0.00  0.00    +0.000 HD
ATOM     12  H   UNL     1      47.294  34.055  38.599  0.00  0.00    +0.000 HD
ATOM     13  H   UNL     1      49.034  34.408  38.505  0.00  0.00    +0.000 HD
ATOM     14  H   UNL     1      49.179  35.445  40.505  0.00  0.00    +0.000 HD
ATOM     15  H   UNL     1      47.520  35.843  40.078  0.00  0.00    +0.000 HD
ATOM     16  H   UNL     1      48.242  34.895  42.495  0.00  0.00    +0.000 HD
ENDROOT
BRANCH   1  19
ATOM     17  C   UNL     1      45.480  31.099  44.105  0.00  0.00    +0.000 A 
ATOM     18  C   UNL     1      46.158  31.570  42.978  0.00  0.00    +0.000 A 
ATOM     19  C   UNL     1      47.220  32.475  43.037  0.00  0.00    +0.000 A 
ATOM     20  N   UNL     1      47.565  32.880  44.260  0.00  0.00    +0.000 NA
ATOM     21  C   UNL     1      46.914  32.429  45.363  0.00  0.00    +0.000 A 
ATOM     22  N   UNL     1      45.900  31.564  45.300  0.00  0.00    +0.000 NA
ATOM     23  H   UNL     1      44.677  30.410  44.014  0.00  0.00    +0.000 HD
ATOM     24  H   UNL     1      45.834  31.206  41.992  0.00  0.00    +0.000 HD
ATOM     25  H   UNL     1      47.255  32.806  46.319  0.00  0.00    +0.000 HD
ENDBRANCH   1  19
BRANCH   6  26
ATOM     26  C   UNL     1      46.268  34.809  41.921  0.00  0.00    +0.000 A 
ATOM     27  C   UNL     1      45.806  35.497  43.046  0.00  0.00    +0.000 A 
ATOM     28  C   UNL     1      44.435  35.765  43.082  0.00  0.00    +0.000 A 
ATOM     29  C   UNL     1      43.663  35.333  42.016  0.00  0.00    +0.000 A 
ATOM     30  C   UNL     1      44.138  34.651  40.906  0.00  0.00    +0.000 A 
ATOM     31  N   UNL     1      45.480  34.404  40.900  0.00  0.00    +0.000 NA
ATOM     32  H   UNL     1      46.531  35.759  43.781  0.00  0.00    +0.000 HD
ATOM     33  H   UNL     1      44.066  36.286  43.930  0.00  0.00    +0.000 HD
ATOM     34  H   UNL     1      42.604  35.567  42.093  0.00  0.00    +0.000 HD
BRANCH  30  35
ATOM     35  C   UNL     1      43.231  34.248  39.839  0.00  0.00    +0.000 C 
ATOM     36  O   UNL     1      42.371  35.105  39.459  0.00  0.00    +0.000 OA
BRANCH  35  37
ATOM     37  C   UNL     1      43.183  32.969  39.141  0.00  0.00    +0.000 A 
ATOM     38  C   UNL     1      43.399  32.969  37.782  0.00  0.00    +0.000 A 
ATOM     39  C   UNL     1      43.356  31.761  37.077  0.00  0.00    +0.000 A 
ATOM     40  H   UNL     1      43.523  31.733  36.007  0.00  0.00    +0.000 HD
ATOM     41  N   UNL     1      43.101  30.607  37.752  0.00  0.00    +0.000 NA
ATOM     42  C   UNL     1      42.893  30.605  39.062  0.00  0.00    +0.000 A 
ATOM     43  N   UNL     1      42.942  31.768  39.689  0.00  0.00    +0.000 NA
ENDBRANCH  35  37
ENDBRANCH  30  35
ENDBRANCH   6  26
TORSDOF 4
