
 OpenBabel03242516523D

 43 46  0  0  1  0  0  0  0  0999 V2000
   47.8160   32.8690   41.8080 C   0  0  1  0  0  0  0  0  0  0  0  0
   47.4850   32.2140   40.5430 C   0  0  0  0  0  0  0  0  0  0  0  0
   48.4900   32.7270   39.5170 C   0  0  0  0  0  0  0  0  0  0  0  0
   48.1490   34.1710   39.2610 C   0  0  0  0  0  0  0  0  0  0  0  0
   48.0950   35.0120   40.5000 C   0  0  0  0  0  0  0  0  0  0  0  0
   47.6120   34.3870   41.7400 C   0  0  1  0  0  0  0  0  0  0  0  0
   48.9340   32.7890   41.9720 H   0  0  0  0  0  0  0  0  0  0  0  0
   46.4820   32.4040   40.1700 H   0  0  0  0  0  0  0  0  0  0  0  0
   47.6040   31.1060   40.6860 H   0  0  0  0  0  0  0  0  0  0  0  0
   49.5340   32.6120   39.8510 H   0  0  0  0  0  0  0  0  0  0  0  0
   48.2610   32.1930   38.5590 H   0  0  0  0  0  0  0  0  0  0  0  0
   47.1890   34.2140   38.6740 H   0  0  0  0  0  0  0  0  0  0  0  0
   48.9300   34.5580   38.5700 H   0  0  0  0  0  0  0  0  0  0  0  0
   49.1220   35.4610   40.6310 H   0  0  0  0  0  0  0  0  0  0  0  0
   47.4590   35.9000   40.2620 H   0  0  0  0  0  0  0  0  0  0  0  0
   48.2160   34.7900   42.5980 H   0  0  0  0  0  0  0  0  0  0  0  0
   45.4150   30.9610   44.0100 C   0  0  0  0  0  0  0  0  0  0  0  0
   46.0790   31.4970   42.9030 C   0  0  0  0  0  0  0  0  0  0  0  0
   47.1810   32.3490   43.0010 C   0  0  0  0  0  0  0  0  0  0  0  0
   47.5800   32.6350   44.2400 N   0  0  0  0  0  0  0  0  0  0  0  0
   46.9440   32.1210   45.3240 C   0  0  0  0  0  0  0  0  0  0  0  0
   45.8910   31.3070   45.2250 N   0  0  0  0  0  0  0  0  0  0  0  0
   44.5800   30.3160   43.8900 H   0  0  0  0  0  0  0  0  0  0  0  0
   45.7090   31.2300   41.9020 H   0  0  0  0  0  0  0  0  0  0  0  0
   47.3300   32.4020   46.2960 H   0  0  0  0  0  0  0  0  0  0  0  0
   46.2310   34.7580   42.0570 C   0  0  0  0  0  0  0  0  0  0  0  0
   45.7910   35.3420   43.2480 C   0  0  0  0  0  0  0  0  0  0  0  0
   44.4250   35.6260   43.3250 C   0  0  0  0  0  0  0  0  0  0  0  0
   43.6360   35.3100   42.2310 C   0  0  0  0  0  0  0  0  0  0  0  0
   44.0890   34.7320   41.0550 C   0  0  0  0  0  0  0  0  0  0  0  0
   45.4270   34.4660   41.0100 N   0  0  0  0  0  0  0  0  0  0  0  0
   46.5270   35.5200   43.9970 H   0  0  0  0  0  0  0  0  0  0  0  0
   44.0720   36.0680   44.2230 H   0  0  0  0  0  0  0  0  0  0  0  0
   42.5820   35.5520   42.3410 H   0  0  0  0  0  0  0  0  0  0  0  0
   43.1660   34.4470   39.9640 C   0  0  0  0  0  0  0  0  0  0  0  0
   42.6300   35.4460   39.3870 O   0  0  0  0  0  0  0  0  0  0  0  0
   42.7720   33.1440   39.4420 C   0  0  0  0  0  0  0  0  0  0  0  0
   43.1620   32.0250   40.1420 C   0  0  0  0  0  3  0  0  0  0  0  0
   42.8060   30.7580   39.6700 C   0  0  0  0  0  0  0  0  0  0  0  0
   43.1000   29.8610   40.2010 H   0  0  0  0  0  0  0  0  0  0  0  0
   42.0770   30.6570   38.5240 N   0  0  0  0  0  0  0  0  0  0  0  0
   41.7000   31.7340   37.8490 C   0  0  0  0  0  3  0  0  0  0  0  0
   42.0590   32.9120   38.3300 N   0  0  0  0  0  0  0  0  0  0  0  0
  1  7  1  1  0  0  0
  1 19  1  0  0  0  0
  2  9  1  0  0  0  0
  2  1  1  0  0  0  0
  3 10  1  0  0  0  0
  3  2  1  0  0  0  0
  4  3  1  0  0  0  0
  4  5  1  0  0  0  0
  5 14  1  0  0  0  0
  5  6  1  0  0  0  0
  6  1  1  0  0  0  0
  6 26  1  0  0  0  0
  6 16  1  1  0  0  0
  8  2  1  0  0  0  0
 11  3  1  0  0  0  0
 12  4  1  0  0  0  0
 13  4  1  0  0  0  0
 15  5  1  0  0  0  0
 17 22  1  0  0  0  0
 18 19  1  0  0  0  0
 18 17  2  0  0  0  0
 19 20  2  0  0  0  0
 20 21  1  0  0  0  0
 21 25  1  0  0  0  0
 22 21  2  0  0  0  0
 23 17  1  0  0  0  0
 24 18  1  0  0  0  0
 26 27  1  0  0  0  0
 27 28  2  0  0  0  0
 27 32  1  0  0  0  0
 28 33  1  0  0  0  0
 29 34  1  0  0  0  0
 29 28  1  0  0  0  0
 30 29  2  0  0  0  0
 31 30  1  0  0  0  0
 31 26  2  0  0  0  0
 35 30  1  0  0  0  0
 36 35  2  0  0  0  0
 37 35  1  0  0  0  0
 37 38  1  0  0  0  0
 39 38  2  0  0  0  0
 39 40  1  0  0  0  0
 41 39  1  0  0  0  0
 42 43  1  0  0  0  0
 42 41  2  0  0  0  0
 43 37  2  0  0  0  0
M  END
>  <minimizedAffinity>
-5.20673609

>  <minimizedRMSD>
0.517785668

$$$$
