
 OpenBabel03242516553D

 43 46  0  0  1  0  0  0  0  0999 V2000
   38.9260   24.8720   40.8790 C   0  0  1  0  0  0  0  0  0  0  0  0
   38.2570   23.7440   41.5280 C   0  0  0  0  0  0  0  0  0  0  0  0
   37.3310   23.1340   40.4810 C   0  0  0  0  0  0  0  0  0  0  0  0
   36.2150   24.1210   40.2630 C   0  0  0  0  0  0  0  0  0  0  0  0
   36.6830   25.4970   39.8990 C   0  0  0  0  0  0  0  0  0  0  0  0
   37.9390   25.9790   40.4910 C   0  0  1  0  0  0  0  0  0  0  0  0
   39.3060   24.5300   39.8680 H   0  0  0  0  0  0  0  0  0  0  0  0
   37.6700   23.9950   42.4060 H   0  0  0  0  0  0  0  0  0  0  0  0
   39.0450   23.0040   41.8320 H   0  0  0  0  0  0  0  0  0  0  0  0
   37.8520   22.8980   39.5400 H   0  0  0  0  0  0  0  0  0  0  0  0
   36.8520   22.2450   40.9680 H   0  0  0  0  0  0  0  0  0  0  0  0
   35.5530   24.1220   41.1740 H   0  0  0  0  0  0  0  0  0  0  0  0
   35.5860   23.7030   39.4470 H   0  0  0  0  0  0  0  0  0  0  0  0
   36.7070   25.5420   38.7730 H   0  0  0  0  0  0  0  0  0  0  0  0
   35.8560   26.2010   40.1630 H   0  0  0  0  0  0  0  0  0  0  0  0
   38.4860   26.5840   39.7180 H   0  0  0  0  0  0  0  0  0  0  0  0
   41.2930   25.7720   43.6790 C   0  0  0  0  0  0  0  0  0  0  0  0
   40.2310   25.2400   42.9440 C   0  0  0  0  0  0  0  0  0  0  0  0
   40.0550   25.4520   41.5750 C   0  0  0  0  0  0  0  0  0  0  0  0
   40.9800   26.2110   40.9860 N   0  0  0  0  0  0  0  0  0  0  0  0
   42.0180   26.7330   41.6900 C   0  0  0  0  0  0  0  0  0  0  0  0
   42.1800   26.5260   42.9980 N   0  0  0  0  0  0  0  0  0  0  0  0
   41.3880   25.5840   44.7200 H   0  0  0  0  0  0  0  0  0  0  0  0
   39.4940   24.6210   43.4770 H   0  0  0  0  0  0  0  0  0  0  0  0
   42.7260   27.3380   41.1380 H   0  0  0  0  0  0  0  0  0  0  0  0
   37.7180   26.9130   41.5980 C   0  0  0  0  0  0  0  0  0  0  0  0
   36.9520   26.6660   42.7400 C   0  0  0  0  0  0  0  0  0  0  0  0
   36.8930   27.7020   43.6770 C   0  0  0  0  0  0  0  0  0  0  0  0
   37.5890   28.8670   43.3970 C   0  0  0  0  0  0  0  0  0  0  0  0
   38.3450   29.0960   42.2580 C   0  0  0  0  0  0  0  0  0  0  0  0
   38.3830   28.0660   41.3630 N   0  0  0  0  0  0  0  0  0  0  0  0
   36.4760   25.7150   42.8040 H   0  0  0  0  0  0  0  0  0  0  0  0
   36.3150   27.5320   44.5500 H   0  0  0  0  0  0  0  0  0  0  0  0
   37.5110   29.6400   44.1580 H   0  0  0  0  0  0  0  0  0  0  0  0
   39.0410   30.3630   42.0720 C   0  0  0  0  0  0  0  0  0  0  0  0
   40.1520   30.5040   42.6740 O   0  0  0  0  0  0  0  0  0  0  0  0
   38.6190   31.5050   41.2700 C   0  0  0  0  0  0  0  0  0  0  0  0
   37.5050   31.3560   40.4750 C   0  0  0  0  0  3  0  0  0  0  0  0
   37.0710   32.4300   39.6900 C   0  0  0  0  0  0  0  0  0  0  0  0
   36.1980   32.3390   39.0550 H   0  0  0  0  0  0  0  0  0  0  0  0
   37.7610   33.6030   39.7290 N   0  0  0  0  0  0  0  0  0  0  0  0
   38.8340   33.7480   40.4940 C   0  0  0  0  0  3  0  0  0  0  0  0
   39.2100   32.7080   41.2200 N   0  0  0  0  0  0  0  0  0  0  0  0
  1  7  1  6  0  0  0
  1  2  1  0  0  0  0
  1 19  1  0  0  0  0
  2  9  1  0  0  0  0
  2  8  1  0  0  0  0
  3 11  1  0  0  0  0
  3  2  1  0  0  0  0
  4  3  1  0  0  0  0
  4 12  1  0  0  0  0
  5 15  1  0  0  0  0
  5  4  1  0  0  0  0
  5  6  1  0  0  0  0
  6 16  1  6  0  0  0
  6  1  1  0  0  0  0
  6 26  1  0  0  0  0
 10  3  1  0  0  0  0
 13  4  1  0  0  0  0
 14  5  1  0  0  0  0
 17 23  1  0  0  0  0
 18 24  1  0  0  0  0
 18 17  2  0  0  0  0
 19 18  1  0  0  0  0
 20 19  2  0  0  0  0
 20 21  1  0  0  0  0
 21 22  2  0  0  0  0
 22 17  1  0  0  0  0
 25 21  1  0  0  0  0
 26 27  1  0  0  0  0
 27 32  1  0  0  0  0
 27 28  2  0  0  0  0
 28 33  1  0  0  0  0
 29 28  1  0  0  0  0
 29 34  1  0  0  0  0
 30 29  2  0  0  0  0
 31 26  2  0  0  0  0
 31 30  1  0  0  0  0
 35 30  1  0  0  0  0
 35 36  2  0  0  0  0
 37 35  1  0  0  0  0
 38 37  2  0  0  0  0
 39 41  2  0  0  0  0
 39 38  1  0  0  0  0
 40 39  1  0  0  0  0
 41 42  1  0  0  0  0
 42 43  2  0  0  0  0
 43 37  1  0  0  0  0
M  END
>  <minimizedAffinity>
-6.22143745

$$$$

 OpenBabel03242516553D

 43 46  0  0  1  0  0  0  0  0999 V2000
   36.7760   30.4470   39.2930 C   0  0  1  0  0  0  0  0  0  0  0  0
   36.9180   29.4770   38.2080 C   0  0  0  0  0  0  0  0  0  0  0  0
   35.5250   29.2820   37.6190 C   0  0  0  0  0  0  0  0  0  0  0  0
   34.7200   28.5360   38.6500 C   0  0  0  0  0  0  0  0  0  0  0  0
   34.6990   29.1920   39.9960 C   0  0  0  0  0  0  0  0  0  0  0  0
   35.9060   29.9090   40.4340 C   0  0  1  0  0  0  0  0  0  0  0  0
   36.1570   31.3190   38.9150 H   0  0  0  0  0  0  0  0  0  0  0  0
   37.3090   28.5060   38.5010 H   0  0  0  0  0  0  0  0  0  0  0  0
   37.6100   29.9160   37.4400 H   0  0  0  0  0  0  0  0  0  0  0  0
   35.0450   30.2350   37.3420 H   0  0  0  0  0  0  0  0  0  0  0  0
   35.6450   28.5700   36.7620 H   0  0  0  0  0  0  0  0  0  0  0  0
   35.0930   27.4750   38.6970 H   0  0  0  0  0  0  0  0  0  0  0  0
   33.6870   28.4650   38.2440 H   0  0  0  0  0  0  0  0  0  0  0  0
   33.7880   29.8550   40.0190 H   0  0  0  0  0  0  0  0  0  0  0  0
   34.4520   28.3960   40.7410 H   0  0  0  0  0  0  0  0  0  0  0  0
   35.5860   30.8270   41.0000 H   0  0  0  0  0  0  0  0  0  0  0  0
   39.1270   32.8560   41.0020 C   0  0  0  0  0  0  0  0  0  0  0  0
   37.9880   32.2550   40.4610 C   0  0  0  0  0  0  0  0  0  0  0  0
   37.9960   31.0060   39.8360 C   0  0  0  0  0  0  0  0  0  0  0  0
   39.1810   30.3970   39.7810 N   0  0  0  0  0  0  0  0  0  0  0  0
   40.2950   30.9710   40.3050 C   0  0  0  0  0  0  0  0  0  0  0  0
   40.2810   32.1650   40.9000 N   0  0  0  0  0  0  0  0  0  0  0  0
   39.0750   33.8090   41.4690 H   0  0  0  0  0  0  0  0  0  0  0  0
   37.0350   32.8000   40.5310 H   0  0  0  0  0  0  0  0  0  0  0  0
   41.2180   30.4110   40.2190 H   0  0  0  0  0  0  0  0  0  0  0  0
   36.6980   29.1420   41.3980 C   0  0  0  0  0  0  0  0  0  0  0  0
   37.3640   29.6610   42.5120 C   0  0  0  0  0  0  0  0  0  0  0  0
   38.0480   28.7360   43.3050 C   0  0  0  0  0  0  0  0  0  0  0  0
   38.0090   27.4040   42.9260 C   0  0  0  0  0  0  0  0  0  0  0  0
   37.3430   26.9060   41.8170 C   0  0  0  0  0  0  0  0  0  0  0  0
   36.6840   27.8330   41.0620 N   0  0  0  0  0  0  0  0  0  0  0  0
   37.2970   30.7130   42.6650 H   0  0  0  0  0  0  0  0  0  0  0  0
   38.5610   29.1130   44.1550 H   0  0  0  0  0  0  0  0  0  0  0  0
   38.5570   26.7270   43.5760 H   0  0  0  0  0  0  0  0  0  0  0  0
   37.3670   25.4800   41.5160 C   0  0  0  0  0  0  0  0  0  0  0  0
   36.5740   24.7380   42.1800 O   0  0  0  0  0  0  0  0  0  0  0  0
   38.1950   24.7850   40.5380 C   0  0  0  0  0  0  0  0  0  0  0  0
   38.0400   23.4220   40.4170 C   0  0  0  0  0  3  0  0  0  0  0  0
   38.8190   22.7200   39.4900 C   0  0  0  0  0  0  0  0  0  0  0  0
   38.7170   21.6480   39.3750 H   0  0  0  0  0  0  0  0  0  0  0  0
   39.7170   23.4020   38.7260 N   0  0  0  0  0  0  0  0  0  0  0  0
   39.8670   24.7140   38.8420 C   0  0  0  0  0  3  0  0  0  0  0  0
   39.1110   25.3390   39.7290 N   0  0  0  0  0  0  0  0  0  0  0  0
  1  7  1  6  0  0  0
  1 19  1  0  0  0  0
  1  6  1  0  0  0  0
  2  8  1  0  0  0  0
  2  1  1  0  0  0  0
  3  2  1  0  0  0  0
  3  4  1  0  0  0  0
  4 12  1  0  0  0  0
  4  5  1  0  0  0  0
  5 14  1  0  0  0  0
  5  6  1  0  0  0  0
  5 15  1  0  0  0  0
  6 16  1  1  0  0  0
  6 26  1  0  0  0  0
  9  2  1  0  0  0  0
 10  3  1  0  0  0  0
 11  3  1  0  0  0  0
 13  4  1  0  0  0  0
 17 23  1  0  0  0  0
 18 24  1  0  0  0  0
 18 17  2  0  0  0  0
 19 18  1  0  0  0  0
 20 19  2  0  0  0  0
 20 21  1  0  0  0  0
 21 22  2  0  0  0  0
 22 17  1  0  0  0  0
 25 21  1  0  0  0  0
 26 27  1  0  0  0  0
 27 32  1  0  0  0  0
 27 28  2  0  0  0  0
 28 33  1  0  0  0  0
 29 28  1  0  0  0  0
 29 34  1  0  0  0  0
 30 29  2  0  0  0  0
 31 26  2  0  0  0  0
 31 30  1  0  0  0  0
 35 30  1  0  0  0  0
 35 36  2  0  0  0  0
 37 35  1  0  0  0  0
 38 37  1  0  0  0  0
 39 38  2  0  0  0  0
 40 39  1  0  0  0  0
 41 42  2  0  0  0  0
 41 39  1  0  0  0  0
 42 43  1  0  0  0  0
 43 37  2  0  0  0  0
M  END
>  <minimizedAffinity>
-5.9308176

$$$$

 OpenBabel03242516553D

 43 46  0  0  1  0  0  0  0  0999 V2000
   36.5320   30.7620   38.9570 C   0  0  1  0  0  0  0  0  0  0  0  0
   36.7130   29.8490   37.8290 C   0  0  0  0  0  0  0  0  0  0  0  0
   35.3180   29.3910   37.4180 C   0  0  0  0  0  0  0  0  0  0  0  0
   34.8170   28.4910   38.5170 C   0  0  0  0  0  0  0  0  0  0  0  0
   34.8500   29.1170   39.8780 C   0  0  0  0  0  0  0  0  0  0  0  0
   35.9430   30.0530   40.1820 C   0  0  1  0  0  0  0  0  0  0  0  0
   35.7110   31.4990   38.6940 H   0  0  0  0  0  0  0  0  0  0  0  0
   37.3190   28.9710   38.0340 H   0  0  0  0  0  0  0  0  0  0  0  0
   37.1970   30.4230   36.9940 H   0  0  0  0  0  0  0  0  0  0  0  0
   34.6300   30.2330   37.2400 H   0  0  0  0  0  0  0  0  0  0  0  0
   35.4570   28.7240   36.5280 H   0  0  0  0  0  0  0  0  0  0  0  0
   35.3910   27.5230   38.4780 H   0  0  0  0  0  0  0  0  0  0  0  0
   33.7720   28.2220   38.2460 H   0  0  0  0  0  0  0  0  0  0  0  0
   33.8390   29.5880   40.0420 H   0  0  0  0  0  0  0  0  0  0  0  0
   34.8640   28.2800   40.6190 H   0  0  0  0  0  0  0  0  0  0  0  0
   35.5300   30.8840   40.8160 H   0  0  0  0  0  0  0  0  0  0  0  0
   38.5790   33.5770   40.4190 C   0  0  0  0  0  0  0  0  0  0  0  0
   37.5160   32.7690   40.0090 C   0  0  0  0  0  0  0  0  0  0  0  0
   37.6820   31.5440   39.3580 C   0  0  0  0  0  0  0  0  0  0  0  0
   38.9450   31.1740   39.1410 N   0  0  0  0  0  0  0  0  0  0  0  0
   39.9870   31.9500   39.5350 C   0  0  0  0  0  0  0  0  0  0  0  0
   39.8210   33.1190   40.1570 N   0  0  0  0  0  0  0  0  0  0  0  0
   38.4070   34.5020   40.9120 H   0  0  0  0  0  0  0  0  0  0  0  0
   36.4940   33.1200   40.2110 H   0  0  0  0  0  0  0  0  0  0  0  0
   40.9810   31.5780   39.3220 H   0  0  0  0  0  0  0  0  0  0  0  0
   36.9900   29.4470   41.0070 C   0  0  0  0  0  0  0  0  0  0  0  0
   37.4350   29.9170   42.2450 C   0  0  0  0  0  0  0  0  0  0  0  0
   38.4380   29.1660   42.8640 C   0  0  0  0  0  0  0  0  0  0  0  0
   38.9000   28.0380   42.2060 C   0  0  0  0  0  0  0  0  0  0  0  0
   38.4470   27.5840   40.9770 C   0  0  0  0  0  0  0  0  0  0  0  0
   37.4680   28.3380   40.3980 N   0  0  0  0  0  0  0  0  0  0  0  0
   36.9760   30.8050   42.6150 H   0  0  0  0  0  0  0  0  0  0  0  0
   38.7890   29.5100   43.8050 H   0  0  0  0  0  0  0  0  0  0  0  0
   39.6790   27.4900   42.7300 H   0  0  0  0  0  0  0  0  0  0  0  0
   39.0050   26.3770   40.3800 C   0  0  0  0  0  0  0  0  0  0  0  0
   40.1680   26.4680   39.8740 O   0  0  0  0  0  0  0  0  0  0  0  0
   38.3900   25.0580   40.2900 C   0  0  0  0  0  0  0  0  0  0  0  0
   37.0240   24.9740   40.4370 C   0  0  0  0  0  3  0  0  0  0  0  0
   36.3980   23.7250   40.3590 C   0  0  0  0  0  0  0  0  0  0  0  0
   35.3250   23.6310   40.4710 H   0  0  0  0  0  0  0  0  0  0  0  0
   37.1550   22.6150   40.1380 N   0  0  0  0  0  0  0  0  0  0  0  0
   38.4710   22.6950   39.9970 C   0  0  0  0  0  3  0  0  0  0  0  0
   39.0220   23.8940   40.0770 N   0  0  0  0  0  0  0  0  0  0  0  0
  1  7  1  6  0  0  0
  1 19  1  0  0  0  0
  1  6  1  0  0  0  0
  2  8  1  0  0  0  0
  2  1  1  0  0  0  0
  3  2  1  0  0  0  0
  3  4  1  0  0  0  0
  4  5  1  0  0  0  0
  5 14  1  0  0  0  0
  5  6  1  0  0  0  0
  5 15  1  0  0  0  0
  6 16  1  1  0  0  0
  6 26  1  0  0  0  0
  9  2  1  0  0  0  0
 10  3  1  0  0  0  0
 11  3  1  0  0  0  0
 12  4  1  0  0  0  0
 13  4  1  0  0  0  0
 17 23  1  0  0  0  0
 18 24  1  0  0  0  0
 18 17  2  0  0  0  0
 19 18  1  0  0  0  0
 20 19  2  0  0  0  0
 20 21  1  0  0  0  0
 21 22  2  0  0  0  0
 22 17  1  0  0  0  0
 25 21  1  0  0  0  0
 26 27  1  0  0  0  0
 27 32  1  0  0  0  0
 27 28  2  0  0  0  0
 28 33  1  0  0  0  0
 29 34  1  0  0  0  0
 29 28  1  0  0  0  0
 30 29  2  0  0  0  0
 31 30  1  0  0  0  0
 31 26  2  0  0  0  0
 35 30  1  0  0  0  0
 36 35  2  0  0  0  0
 37 35  1  0  0  0  0
 37 38  1  0  0  0  0
 39 38  2  0  0  0  0
 39 40  1  0  0  0  0
 41 39  1  0  0  0  0
 42 43  1  0  0  0  0
 42 41  2  0  0  0  0
 43 37  2  0  0  0  0
M  END
>  <minimizedAffinity>
-5.92293787

$$$$

 OpenBabel03242516553D

 43 46  0  0  1  0  0  0  0  0999 V2000
   38.9520   24.8670   40.8110 C   0  0  1  0  0  0  0  0  0  0  0  0
   38.4440   23.6950   41.5240 C   0  0  0  0  0  0  0  0  0  0  0  0
   37.6060   22.9110   40.5200 C   0  0  0  0  0  0  0  0  0  0  0  0
   36.3660   23.7260   40.2610 C   0  0  0  0  0  0  0  0  0  0  0  0
   36.6430   25.1310   39.8220 C   0  0  0  0  0  0  0  0  0  0  0  0
   37.8240   25.8090   40.3760 C   0  0  1  0  0  0  0  0  0  0  0  0
   39.3720   24.5260   39.8150 H   0  0  0  0  0  0  0  0  0  0  0  0
   37.8300   23.9110   42.3940 H   0  0  0  0  0  0  0  0  0  0  0  0
   39.3250   23.0850   41.8580 H   0  0  0  0  0  0  0  0  0  0  0  0
   38.1510   22.6980   39.5860 H   0  0  0  0  0  0  0  0  0  0  0  0
   37.2520   21.9930   41.0570 H   0  0  0  0  0  0  0  0  0  0  0  0
   35.7130   23.6860   41.1770 H   0  0  0  0  0  0  0  0  0  0  0  0
   35.7970   23.1840   39.4740 H   0  0  0  0  0  0  0  0  0  0  0  0
   36.6580   25.1200   38.6940 H   0  0  0  0  0  0  0  0  0  0  0  0
   35.7290   25.7300   40.0570 H   0  0  0  0  0  0  0  0  0  0  0  0
   38.2820   26.4400   39.5660 H   0  0  0  0  0  0  0  0  0  0  0  0
   41.4100   25.9920   43.4460 C   0  0  0  0  0  0  0  0  0  0  0  0
   40.4140   25.2980   42.7550 C   0  0  0  0  0  0  0  0  0  0  0  0
   39.9950   25.6300   41.4650 C   0  0  0  0  0  0  0  0  0  0  0  0
   40.6110   26.6740   40.9090 N   0  0  0  0  0  0  0  0  0  0  0  0
   41.5800   27.3560   41.5710 C   0  0  0  0  0  0  0  0  0  0  0  0
   41.9770   27.0340   42.8040 N   0  0  0  0  0  0  0  0  0  0  0  0
   41.6990   25.7040   44.4270 H   0  0  0  0  0  0  0  0  0  0  0  0
   39.9370   24.4440   43.2580 H   0  0  0  0  0  0  0  0  0  0  0  0
   42.0310   28.1920   41.0510 H   0  0  0  0  0  0  0  0  0  0  0  0
   37.4810   26.7620   41.4340 C   0  0  0  0  0  0  0  0  0  0  0  0
   37.1540   26.4400   42.7540 C   0  0  0  0  0  0  0  0  0  0  0  0
   36.8760   27.5180   43.5980 C   0  0  0  0  0  0  0  0  0  0  0  0
   36.9490   28.7940   43.0640 C   0  0  0  0  0  0  0  0  0  0  0  0
   37.2770   29.0960   41.7510 C   0  0  0  0  0  0  0  0  0  0  0  0
   37.5420   28.0230   40.9510 N   0  0  0  0  0  0  0  0  0  0  0  0
   37.1410   25.4060   43.0080 H   0  0  0  0  0  0  0  0  0  0  0  0
   36.6240   27.2930   44.6050 H   0  0  0  0  0  0  0  0  0  0  0  0
   36.7250   29.5970   43.7620 H   0  0  0  0  0  0  0  0  0  0  0  0
   37.3270   30.4810   41.2990 C   0  0  0  0  0  0  0  0  0  0  0  0
   36.2150   31.0480   41.0550 O   0  0  0  0  0  0  0  0  0  0  0  0
   38.5070   31.3110   41.0870 C   0  0  0  0  0  0  0  0  0  0  0  0
   38.3130   32.6110   40.6790 C   0  0  0  0  0  3  0  0  0  0  0  0
   39.4210   33.4380   40.4630 C   0  0  0  0  0  0  0  0  0  0  0  0
   39.2970   34.4640   40.1410 H   0  0  0  0  0  0  0  0  0  0  0  0
   40.6720   32.9370   40.6620 N   0  0  0  0  0  0  0  0  0  0  0  0
   40.8600   31.6850   41.0550 C   0  0  0  0  0  3  0  0  0  0  0  0
   39.7850   30.9380   41.2480 N   0  0  0  0  0  0  0  0  0  0  0  0
  1  7  1  6  0  0  0
  1 19  1  0  0  0  0
  1  2  1  0  0  0  0
  2  9  1  0  0  0  0
  2  8  1  0  0  0  0
  3 11  1  0  0  0  0
  3  2  1  0  0  0  0
  4  3  1  0  0  0  0
  4 12  1  0  0  0  0
  5 15  1  0  0  0  0
  5  4  1  0  0  0  0
  5  6  1  0  0  0  0
  6 16  1  6  0  0  0
  6  1  1  0  0  0  0
  6 26  1  0  0  0  0
 10  3  1  0  0  0  0
 13  4  1  0  0  0  0
 14  5  1  0  0  0  0
 17 23  1  0  0  0  0
 18 24  1  0  0  0  0
 18 17  2  0  0  0  0
 19 18  1  0  0  0  0
 20 19  2  0  0  0  0
 20 21  1  0  0  0  0
 21 22  2  0  0  0  0
 22 17  1  0  0  0  0
 25 21  1  0  0  0  0
 26 27  1  0  0  0  0
 27 32  1  0  0  0  0
 27 28  2  0  0  0  0
 28 33  1  0  0  0  0
 29 28  1  0  0  0  0
 29 34  1  0  0  0  0
 30 29  2  0  0  0  0
 31 26  2  0  0  0  0
 31 30  1  0  0  0  0
 35 30  1  0  0  0  0
 36 35  2  0  0  0  0
 37 43  1  0  0  0  0
 37 35  1  0  0  0  0
 38 37  2  0  0  0  0
 39 41  2  0  0  0  0
 39 38  1  0  0  0  0
 40 39  1  0  0  0  0
 41 42  1  0  0  0  0
 42 43  2  0  0  0  0
M  END
>  <minimizedAffinity>
-5.89254522

$$$$

 OpenBabel03242516553D

 43 46  0  0  1  0  0  0  0  0999 V2000
   37.1060   27.8320   40.7780 C   0  0  1  0  0  0  0  0  0  0  0  0
   38.4190   27.2110   40.9480 C   0  0  0  0  0  0  0  0  0  0  0  0
   38.3900   26.5050   42.3000 C   0  0  0  0  0  0  0  0  0  0  0  0
   38.3760   27.5840   43.3510 C   0  0  0  0  0  0  0  0  0  0  0  0
   37.2690   28.5790   43.1860 C   0  0  0  0  0  0  0  0  0  0  0  0
   36.8490   28.9260   41.8200 C   0  0  1  0  0  0  0  0  0  0  0  0
   36.3110   27.0670   41.0380 H   0  0  0  0  0  0  0  0  0  0  0  0
   39.2630   27.8960   40.9340 H   0  0  0  0  0  0  0  0  0  0  0  0
   38.5580   26.4640   40.1210 H   0  0  0  0  0  0  0  0  0  0  0  0
   37.5280   25.8270   42.4050 H   0  0  0  0  0  0  0  0  0  0  0  0
   39.3820   25.9960   42.4080 H   0  0  0  0  0  0  0  0  0  0  0  0
   39.3900   28.0720   43.3760 H   0  0  0  0  0  0  0  0  0  0  0  0
   38.2790   27.0630   44.3290 H   0  0  0  0  0  0  0  0  0  0  0  0
   36.4050   28.2070   43.8070 H   0  0  0  0  0  0  0  0  0  0  0  0
   37.5860   29.5080   43.7220 H   0  0  0  0  0  0  0  0  0  0  0  0
   35.7330   29.0610   41.8170 H   0  0  0  0  0  0  0  0  0  0  0  0
   35.0740   28.9370   37.7940 C   0  0  0  0  0  0  0  0  0  0  0  0
   35.4560   28.4640   39.0520 C   0  0  0  0  0  0  0  0  0  0  0  0
   36.7860   28.3350   39.4590 C   0  0  0  0  0  0  0  0  0  0  0  0
   37.7010   28.6970   38.5590 N   0  0  0  0  0  0  0  0  0  0  0  0
   37.3420   29.1590   37.3330 C   0  0  0  0  0  0  0  0  0  0  0  0
   36.0700   29.2800   36.9510 N   0  0  0  0  0  0  0  0  0  0  0  0
   34.0490   29.0190   37.5270 H   0  0  0  0  0  0  0  0  0  0  0  0
   34.6620   28.1770   39.7580 H   0  0  0  0  0  0  0  0  0  0  0  0
   38.1460   29.4330   36.6610 H   0  0  0  0  0  0  0  0  0  0  0  0
   37.3750   30.2210   41.3810 C   0  0  0  0  0  0  0  0  0  0  0  0
   36.6530   31.2210   40.7250 C   0  0  0  0  0  0  0  0  0  0  0  0
   37.3590   32.3860   40.4140 C   0  0  0  0  0  0  0  0  0  0  0  0
   38.6950   32.4490   40.7760 C   0  0  0  0  0  0  0  0  0  0  0  0
   39.3970   31.4460   41.4270 C   0  0  0  0  0  0  0  0  0  0  0  0
   38.6810   30.3220   41.7180 N   0  0  0  0  0  0  0  0  0  0  0  0
   35.6290   31.0160   40.5160 H   0  0  0  0  0  0  0  0  0  0  0  0
   36.8260   33.1560   39.9140 H   0  0  0  0  0  0  0  0  0  0  0  0
   39.1980   33.3760   40.5110 H   0  0  0  0  0  0  0  0  0  0  0  0
   40.8040   31.6250   41.7640 C   0  0  0  0  0  0  0  0  0  0  0  0
   41.1980   31.1400   42.8720 O   0  0  0  0  0  0  0  0  0  0  0  0
   41.8330   32.2990   40.9810 C   0  0  0  0  0  0  0  0  0  0  0  0
   42.1640   31.7620   39.7570 C   0  0  0  0  0  3  0  0  0  0  0  0
   43.1480   32.3790   38.9780 C   0  0  0  0  0  0  0  0  0  0  0  0
   43.4270   31.9780   38.0110 H   0  0  0  0  0  0  0  0  0  0  0  0
   43.7610   33.5010   39.4480 N   0  0  0  0  0  0  0  0  0  0  0  0
   43.4430   34.0180   40.6260 C   0  0  0  0  0  3  0  0  0  0  0  0
   42.5070   33.4040   41.3300 N   0  0  0  0  0  0  0  0  0  0  0  0
  1  2  1  0  0  0  0
  1  7  1  1  0  0  0
  1  6  1  0  0  0  0
  2  3  1  0  0  0  0
  3 10  1  0  0  0  0
  3 11  1  0  0  0  0
  3  4  1  0  0  0  0
  4 12  1  0  0  0  0
  4 13  1  0  0  0  0
  5  4  1  0  0  0  0
  5 15  1  0  0  0  0
  5 14  1  0  0  0  0
  6 16  1  1  0  0  0
  6  5  1  0  0  0  0
  8  2  1  0  0  0  0
  9  2  1  0  0  0  0
 17 18  1  0  0  0  0
 18 19  2  0  0  0  0
 18 24  1  0  0  0  0
 19  1  1  0  0  0  0
 20 19  1  0  0  0  0
 21 20  2  0  0  0  0
 22 21  1  0  0  0  0
 22 17  2  0  0  0  0
 23 17  1  0  0  0  0
 25 21  1  0  0  0  0
 26 31  1  0  0  0  0
 26  6  1  0  0  0  0
 27 26  2  0  0  0  0
 28 27  1  0  0  0  0
 28 29  2  0  0  0  0
 29 30  1  0  0  0  0
 30 31  2  0  0  0  0
 30 35  1  0  0  0  0
 32 27  1  0  0  0  0
 33 28  1  0  0  0  0
 34 29  1  0  0  0  0
 35 36  2  0  0  0  0
 37 43  1  0  0  0  0
 37 35  1  0  0  0  0
 38 37  2  0  0  0  0
 39 41  2  0  0  0  0
 39 38  1  0  0  0  0
 40 39  1  0  0  0  0
 41 42  1  0  0  0  0
 42 43  2  0  0  0  0
M  END
>  <minimizedAffinity>
-5.68695211

$$$$

 OpenBabel03242516553D

 43 46  0  0  1  0  0  0  0  0999 V2000
   37.9670   26.2050   41.2070 C   0  0  1  0  0  0  0  0  0  0  0  0
   39.4040   26.4320   41.3640 C   0  0  0  0  0  0  0  0  0  0  0  0
   39.7430   26.0620   42.8040 C   0  0  0  0  0  0  0  0  0  0  0  0
   39.1260   27.1210   43.6790 C   0  0  0  0  0  0  0  0  0  0  0  0
   37.6580   27.3150   43.4550 C   0  0  0  0  0  0  0  0  0  0  0  0
   37.1380   27.1440   42.0910 C   0  0  1  0  0  0  0  0  0  0  0  0
   37.7150   25.1890   41.6410 H   0  0  0  0  0  0  0  0  0  0  0  0
   39.7360   27.4500   41.1800 H   0  0  0  0  0  0  0  0  0  0  0  0
   39.9410   25.7520   40.6490 H   0  0  0  0  0  0  0  0  0  0  0  0
   39.3900   25.0550   43.0780 H   0  0  0  0  0  0  0  0  0  0  0  0
   40.8500   26.1970   42.9090 H   0  0  0  0  0  0  0  0  0  0  0  0
   39.7080   28.0760   43.5510 H   0  0  0  0  0  0  0  0  0  0  0  0
   39.3140   26.8050   44.7290 H   0  0  0  0  0  0  0  0  0  0  0  0
   37.1270   26.6460   44.1920 H   0  0  0  0  0  0  0  0  0  0  0  0
   37.4070   28.3420   43.8200 H   0  0  0  0  0  0  0  0  0  0  0  0
   36.1300   26.6500   42.1560 H   0  0  0  0  0  0  0  0  0  0  0  0
   37.7220   26.8850   37.5020 C   0  0  0  0  0  0  0  0  0  0  0  0
   38.1660   26.8270   38.8250 C   0  0  0  0  0  0  0  0  0  0  0  0
   37.4450   26.2240   39.8570 C   0  0  0  0  0  0  0  0  0  0  0  0
   36.2740   25.6900   39.5060 N   0  0  0  0  0  0  0  0  0  0  0  0
   35.8310   25.7400   38.2240 C   0  0  0  0  0  0  0  0  0  0  0  0
   36.5250   26.3180   37.2420 N   0  0  0  0  0  0  0  0  0  0  0  0
   38.3040   27.3540   36.7480 H   0  0  0  0  0  0  0  0  0  0  0  0
   39.1390   27.2830   39.0630 H   0  0  0  0  0  0  0  0  0  0  0  0
   34.8700   25.2840   38.0210 H   0  0  0  0  0  0  0  0  0  0  0  0
   36.8780   28.4210   41.4220 C   0  0  0  0  0  0  0  0  0  0  0  0
   35.6760   28.8030   40.8200 C   0  0  0  0  0  0  0  0  0  0  0  0
   35.6520   30.0810   40.2540 C   0  0  0  0  0  0  0  0  0  0  0  0
   36.8030   30.8480   40.3370 C   0  0  0  0  0  0  0  0  0  0  0  0
   37.9880   30.4530   40.9390 C   0  0  0  0  0  0  0  0  0  0  0  0
   37.9810   29.2010   41.4820 N   0  0  0  0  0  0  0  0  0  0  0  0
   34.8820   28.0950   40.8400 H   0  0  0  0  0  0  0  0  0  0  0  0
   34.7470   30.3880   39.7920 H   0  0  0  0  0  0  0  0  0  0  0  0
   36.7300   31.8320   39.8820 H   0  0  0  0  0  0  0  0  0  0  0  0
   39.1370   31.3480   40.9710 C   0  0  0  0  0  0  0  0  0  0  0  0
   39.6020   31.6480   42.1160 O   0  0  0  0  0  0  0  0  0  0  0  0
   39.8330   31.9510   39.8410 C   0  0  0  0  0  0  0  0  0  0  0  0
   40.5180   33.1250   40.0600 C   0  0  0  0  0  3  0  0  0  0  0  0
   41.1960   33.7350   38.9990 C   0  0  0  0  0  0  0  0  0  0  0  0
   41.7430   34.6590   39.1440 H   0  0  0  0  0  0  0  0  0  0  0  0
   41.1640   33.1540   37.7680 N   0  0  0  0  0  0  0  0  0  0  0  0
   40.5040   32.0240   37.5560 C   0  0  0  0  0  3  0  0  0  0  0  0
   39.8770   31.4800   38.5850 N   0  0  0  0  0  0  0  0  0  0  0  0
  1  2  1  0  0  0  0
  1  7  1  1  0  0  0
  1  6  1  0  0  0  0
  2  3  1  0  0  0  0
  3 11  1  0  0  0  0
  3 10  1  0  0  0  0
  3  4  1  0  0  0  0
  4 13  1  0  0  0  0
  5  4  1  0  0  0  0
  5 15  1  0  0  0  0
  5 14  1  0  0  0  0
  6 16  1  1  0  0  0
  6  5  1  0  0  0  0
  8  2  1  0  0  0  0
  9  2  1  0  0  0  0
 12  4  1  0  0  0  0
 17 18  1  0  0  0  0
 18 24  1  0  0  0  0
 18 19  2  0  0  0  0
 19  1  1  0  0  0  0
 20 19  1  0  0  0  0
 21 20  2  0  0  0  0
 22 17  2  0  0  0  0
 22 21  1  0  0  0  0
 23 17  1  0  0  0  0
 25 21  1  0  0  0  0
 26 31  1  0  0  0  0
 26  6  1  0  0  0  0
 27 32  1  0  0  0  0
 27 26  2  0  0  0  0
 28 29  2  0  0  0  0
 28 27  1  0  0  0  0
 29 30  1  0  0  0  0
 30 35  1  0  0  0  0
 30 31  2  0  0  0  0
 33 28  1  0  0  0  0
 34 29  1  0  0  0  0
 35 36  2  0  0  0  0
 37 38  1  0  0  0  0
 37 35  1  0  0  0  0
 39 40  1  0  0  0  0
 39 38  2  0  0  0  0
 41 39  1  0  0  0  0
 42 41  2  0  0  0  0
 42 43  1  0  0  0  0
 43 37  2  0  0  0  0
M  END
>  <minimizedAffinity>
-5.63225842

$$$$

 OpenBabel03242516553D

 43 46  0  0  1  0  0  0  0  0999 V2000
   35.9190   28.1810   40.5070 C   0  0  1  0  0  0  0  0  0  0  0  0
   35.3220   29.5020   40.3060 C   0  0  0  0  0  0  0  0  0  0  0  0
   34.0760   29.2860   39.4550 C   0  0  0  0  0  0  0  0  0  0  0  0
   34.5520   28.9070   38.0780 C   0  0  0  0  0  0  0  0  0  0  0  0
   35.4840   27.7350   38.0580 C   0  0  0  0  0  0  0  0  0  0  0  0
   36.4070   27.5660   39.1900 C   0  0  1  0  0  0  0  0  0  0  0  0
   35.0990   27.4610   40.8140 H   0  0  0  0  0  0  0  0  0  0  0  0
   35.9590   30.2290   39.8100 H   0  0  0  0  0  0  0  0  0  0  0  0
   35.0410   29.9100   41.3140 H   0  0  0  0  0  0  0  0  0  0  0  0
   33.4020   28.5210   39.8740 H   0  0  0  0  0  0  0  0  0  0  0  0
   33.5980   30.2930   39.3390 H   0  0  0  0  0  0  0  0  0  0  0  0
   35.0010   29.8180   37.5910 H   0  0  0  0  0  0  0  0  0  0  0  0
   33.6390   28.6800   37.4850 H   0  0  0  0  0  0  0  0  0  0  0  0
   34.8470   26.8180   37.8990 H   0  0  0  0  0  0  0  0  0  0  0  0
   36.0720   27.8040   37.1100 H   0  0  0  0  0  0  0  0  0  0  0  0
   36.5000   26.4680   39.4110 H   0  0  0  0  0  0  0  0  0  0  0  0
   38.3140   26.6620   42.9980 C   0  0  0  0  0  0  0  0  0  0  0  0
   37.3220   26.8350   42.0300 C   0  0  0  0  0  0  0  0  0  0  0  0
   36.9610   28.0780   41.5060 C   0  0  0  0  0  0  0  0  0  0  0  0
   37.6320   29.1240   41.9900 N   0  0  0  0  0  0  0  0  0  0  0  0
   38.5990   28.9690   42.9310 C   0  0  0  0  0  0  0  0  0  0  0  0
   38.9390   27.7780   43.4280 N   0  0  0  0  0  0  0  0  0  0  0  0
   38.5560   25.6960   43.3690 H   0  0  0  0  0  0  0  0  0  0  0  0
   36.7970   25.9400   41.6640 H   0  0  0  0  0  0  0  0  0  0  0  0
   39.0970   29.8680   43.2720 H   0  0  0  0  0  0  0  0  0  0  0  0
   37.7720   27.9920   38.8720 C   0  0  0  0  0  0  0  0  0  0  0  0
   38.9150   27.1900   38.9230 C   0  0  0  0  0  0  0  0  0  0  0  0
   40.1150   27.8070   38.5610 C   0  0  0  0  0  0  0  0  0  0  0  0
   40.0700   29.1400   38.1870 C   0  0  0  0  0  0  0  0  0  0  0  0
   38.9260   29.9220   38.1420 C   0  0  0  0  0  0  0  0  0  0  0  0
   37.7710   29.2920   38.5020 N   0  0  0  0  0  0  0  0  0  0  0  0
   38.7810   26.1800   39.2330 H   0  0  0  0  0  0  0  0  0  0  0  0
   40.9940   27.2130   38.5940 H   0  0  0  0  0  0  0  0  0  0  0  0
   41.0300   29.5720   37.9140 H   0  0  0  0  0  0  0  0  0  0  0  0
   38.9980   31.3180   37.7280 C   0  0  0  0  0  0  0  0  0  0  0  0
   38.0580   31.7480   36.9860 O   0  0  0  0  0  0  0  0  0  0  0  0
   40.0240   32.2980   38.0600 C   0  0  0  0  0  0  0  0  0  0  0  0
   39.9190   32.9550   39.2660 C   0  0  0  0  0  3  0  0  0  0  0  0
   40.8840   33.9050   39.6190 C   0  0  0  0  0  0  0  0  0  0  0  0
   40.8250   34.4360   40.5610 H   0  0  0  0  0  0  0  0  0  0  0  0
   41.9100   34.1610   38.7600 N   0  0  0  0  0  0  0  0  0  0  0  0
   42.0120   33.5290   37.5990 C   0  0  0  0  0  3  0  0  0  0  0  0
   41.0790   32.6390   37.3050 N   0  0  0  0  0  0  0  0  0  0  0  0
  1  7  1  1  0  0  0
  1 19  1  0  0  0  0
  2  1  1  0  0  0  0
  2  9  1  0  0  0  0
  3 10  1  0  0  0  0
  3  2  1  0  0  0  0
  4  3  1  0  0  0  0
  5  4  1  0  0  0  0
  5  6  1  0  0  0  0
  6 16  1  1  0  0  0
  6  1  1  0  0  0  0
  8  2  1  0  0  0  0
 11  3  1  0  0  0  0
 12  4  1  0  0  0  0
 13  4  1  0  0  0  0
 14  5  1  0  0  0  0
 15  5  1  0  0  0  0
 17 23  1  0  0  0  0
 17 22  1  0  0  0  0
 18 17  2  0  0  0  0
 19 20  2  0  0  0  0
 19 18  1  0  0  0  0
 20 21  1  0  0  0  0
 21 25  1  0  0  0  0
 21 22  2  0  0  0  0
 24 18  1  0  0  0  0
 26 27  1  0  0  0  0
 26  6  1  0  0  0  0
 27 32  1  0  0  0  0
 28 33  1  0  0  0  0
 28 27  2  0  0  0  0
 29 28  1  0  0  0  0
 30 29  2  0  0  0  0
 30 31  1  0  0  0  0
 31 26  2  0  0  0  0
 34 29  1  0  0  0  0
 35 37  1  0  0  0  0
 35 30  1  0  0  0  0
 36 35  2  0  0  0  0
 37 38  1  0  0  0  0
 38 39  2  0  0  0  0
 39 40  1  0  0  0  0
 41 39  1  0  0  0  0
 42 41  2  0  0  0  0
 43 42  1  0  0  0  0
 43 37  2  0  0  0  0
M  END
>  <minimizedAffinity>
-5.59957504

$$$$

 OpenBabel03242516553D

 43 46  0  0  1  0  0  0  0  0999 V2000
   37.7720   31.3370   39.4810 C   0  0  1  0  0  0  0  0  0  0  0  0
   37.5470   32.5360   40.2880 C   0  0  0  0  0  0  0  0  0  0  0  0
   38.7580   33.4350   40.0700 C   0  0  0  0  0  0  0  0  0  0  0  0
   39.9210   32.7680   40.7560 C   0  0  0  0  0  0  0  0  0  0  0  0
   40.1560   31.3550   40.3180 C   0  0  0  0  0  0  0  0  0  0  0  0
   38.9850   30.5360   39.9680 C   0  0  1  0  0  0  0  0  0  0  0  0
   38.1020   31.6590   38.4460 H   0  0  0  0  0  0  0  0  0  0  0  0
   37.4310   32.3630   41.3550 H   0  0  0  0  0  0  0  0  0  0  0  0
   36.6150   33.0360   39.9100 H   0  0  0  0  0  0  0  0  0  0  0  0
   38.9670   33.6150   39.0030 H   0  0  0  0  0  0  0  0  0  0  0  0
   38.5630   34.3700   40.6570 H   0  0  0  0  0  0  0  0  0  0  0  0
   39.7780   32.8520   41.8690 H   0  0  0  0  0  0  0  0  0  0  0  0
   40.8140   33.3910   40.5290 H   0  0  0  0  0  0  0  0  0  0  0  0
   40.9030   31.3970   39.4750 H   0  0  0  0  0  0  0  0  0  0  0  0
   40.7260   30.8520   41.1380 H   0  0  0  0  0  0  0  0  0  0  0  0
   39.2590   29.8830   39.0950 H   0  0  0  0  0  0  0  0  0  0  0  0
   35.3590   28.9480   37.8310 C   0  0  0  0  0  0  0  0  0  0  0  0
   36.4270   29.8150   38.0750 C   0  0  0  0  0  0  0  0  0  0  0  0
   36.6450   30.4460   39.3020 C   0  0  0  0  0  0  0  0  0  0  0  0
   35.7550   30.1720   40.2570 N   0  0  0  0  0  0  0  0  0  0  0  0
   34.7130   29.3310   40.0310 C   0  0  0  0  0  0  0  0  0  0  0  0
   34.5110   28.7310   38.8570 N   0  0  0  0  0  0  0  0  0  0  0  0
   35.2320   28.4880   36.8820 H   0  0  0  0  0  0  0  0  0  0  0  0
   37.1330   30.0080   37.2540 H   0  0  0  0  0  0  0  0  0  0  0  0
   34.0350   29.1610   40.8580 H   0  0  0  0  0  0  0  0  0  0  0  0
   38.6180   29.5960   41.0290 C   0  0  0  0  0  0  0  0  0  0  0  0
   38.3340   29.9260   42.3570 C   0  0  0  0  0  0  0  0  0  0  0  0
   37.9890   28.8620   43.1950 C   0  0  0  0  0  0  0  0  0  0  0  0
   37.9580   27.5900   42.6460 C   0  0  0  0  0  0  0  0  0  0  0  0
   38.2420   27.2800   41.3250 C   0  0  0  0  0  0  0  0  0  0  0  0
   38.5760   28.3390   40.5320 N   0  0  0  0  0  0  0  0  0  0  0  0
   38.4040   30.9550   42.6220 H   0  0  0  0  0  0  0  0  0  0  0  0
   37.7720   29.0940   44.2070 H   0  0  0  0  0  0  0  0  0  0  0  0
   37.6840   26.7990   43.3390 H   0  0  0  0  0  0  0  0  0  0  0  0
   38.1730   25.9020   40.8560 C   0  0  0  0  0  0  0  0  0  0  0  0
   39.1340   25.1340   41.1790 O   0  0  0  0  0  0  0  0  0  0  0  0
   37.1270   25.2820   40.0510 C   0  0  0  0  0  0  0  0  0  0  0  0
   36.5880   24.0980   40.5000 C   0  0  0  0  0  3  0  0  0  0  0  0
   35.5830   23.4710   39.7530 C   0  0  0  0  0  0  0  0  0  0  0  0
   35.1420   22.5390   40.0830 H   0  0  0  0  0  0  0  0  0  0  0  0
   35.1590   24.0480   38.5950 N   0  0  0  0  0  0  0  0  0  0  0  0
   35.6780   25.1890   38.1620 C   0  0  0  0  0  3  0  0  0  0  0  0
   36.6250   25.7480   38.8970 N   0  0  0  0  0  0  0  0  0  0  0  0
  1  7  1  6  0  0  0
  1  6  1  0  0  0  0
  1  2  1  0  0  0  0
  2  8  1  0  0  0  0
  3  2  1  0  0  0  0
  3 11  1  0  0  0  0
  3  4  1  0  0  0  0
  4 12  1  0  0  0  0
  5  4  1  0  0  0  0
  5 15  1  0  0  0  0
  6 16  1  6  0  0  0
  6  5  1  0  0  0  0
  6 26  1  0  0  0  0
  9  2  1  0  0  0  0
 10  3  1  0  0  0  0
 13  4  1  0  0  0  0
 14  5  1  0  0  0  0
 17 18  2  0  0  0  0
 17 22  1  0  0  0  0
 18 19  1  0  0  0  0
 19  1  1  0  0  0  0
 19 20  2  0  0  0  0
 21 20  1  0  0  0  0
 21 25  1  0  0  0  0
 22 21  2  0  0  0  0
 23 17  1  0  0  0  0
 24 18  1  0  0  0  0
 26 27  1  0  0  0  0
 27 32  1  0  0  0  0
 27 28  2  0  0  0  0
 28 33  1  0  0  0  0
 29 28  1  0  0  0  0
 29 34  1  0  0  0  0
 30 29  2  0  0  0  0
 31 26  2  0  0  0  0
 31 30  1  0  0  0  0
 35 36  2  0  0  0  0
 35 30  1  0  0  0  0
 37 38  1  0  0  0  0
 37 35  1  0  0  0  0
 39 40  1  0  0  0  0
 39 38  2  0  0  0  0
 41 39  1  0  0  0  0
 42 41  2  0  0  0  0
 42 43  1  0  0  0  0
 43 37  2  0  0  0  0
M  END
>  <minimizedAffinity>
-5.59227657

$$$$

 OpenBabel03242516553D

 43 46  0  0  1  0  0  0  0  0999 V2000
   38.1680   25.4970   39.7840 C   0  0  1  0  0  0  0  0  0  0  0  0
   36.9060   24.7730   39.9410 C   0  0  0  0  0  0  0  0  0  0  0  0
   36.1730   24.8920   38.6100 C   0  0  0  0  0  0  0  0  0  0  0  0
   35.7360   26.3280   38.4830 C   0  0  0  0  0  0  0  0  0  0  0  0
   36.8520   27.3170   38.6280 C   0  0  0  0  0  0  0  0  0  0  0  0
   37.9450   26.9960   39.5580 C   0  0  1  0  0  0  0  0  0  0  0  0
   38.6440   25.1790   38.8060 H   0  0  0  0  0  0  0  0  0  0  0  0
   36.2550   25.1390   40.7290 H   0  0  0  0  0  0  0  0  0  0  0  0
   37.1500   23.6980   40.1580 H   0  0  0  0  0  0  0  0  0  0  0  0
   36.7940   24.5820   37.7540 H   0  0  0  0  0  0  0  0  0  0  0  0
   35.2270   24.3020   38.7200 H   0  0  0  0  0  0  0  0  0  0  0  0
   34.9020   26.5140   39.2160 H   0  0  0  0  0  0  0  0  0  0  0  0
   35.2690   26.4230   37.4790 H   0  0  0  0  0  0  0  0  0  0  0  0
   37.2350   27.5260   37.5880 H   0  0  0  0  0  0  0  0  0  0  0  0
   36.3860   28.2890   38.9260 H   0  0  0  0  0  0  0  0  0  0  0  0
   38.9090   27.3590   39.1090 H   0  0  0  0  0  0  0  0  0  0  0  0
   39.7670   24.3800   43.0160 C   0  0  0  0  0  0  0  0  0  0  0  0
   38.8570   24.5980   41.9790 C   0  0  0  0  0  0  0  0  0  0  0  0
   39.1660   25.3060   40.8150 C   0  0  0  0  0  0  0  0  0  0  0  0
   40.4110   25.7770   40.7410 N   0  0  0  0  0  0  0  0  0  0  0  0
   41.3050   25.5710   41.7410 C   0  0  0  0  0  0  0  0  0  0  0  0
   41.0040   24.8940   42.8510 N   0  0  0  0  0  0  0  0  0  0  0  0
   39.4900   23.8350   43.8840 H   0  0  0  0  0  0  0  0  0  0  0  0
   37.8420   24.1900   42.0900 H   0  0  0  0  0  0  0  0  0  0  0  0
   42.2960   25.9870   41.6040 H   0  0  0  0  0  0  0  0  0  0  0  0
   37.8360   27.7210   40.8260 C   0  0  0  0  0  0  0  0  0  0  0  0
   36.9610   27.4170   41.8720 C   0  0  0  0  0  0  0  0  0  0  0  0
   37.0430   28.2390   43.0000 C   0  0  0  0  0  0  0  0  0  0  0  0
   37.9700   29.2680   42.9850 C   0  0  0  0  0  0  0  0  0  0  0  0
   38.8320   29.5550   41.9370 C   0  0  0  0  0  0  0  0  0  0  0  0
   38.7280   28.7360   40.8510 N   0  0  0  0  0  0  0  0  0  0  0  0
   36.3050   26.5910   41.7270 H   0  0  0  0  0  0  0  0  0  0  0  0
   36.3840   28.0240   43.8040 H   0  0  0  0  0  0  0  0  0  0  0  0
   37.9940   29.8760   43.8850 H   0  0  0  0  0  0  0  0  0  0  0  0
   39.7730   30.6640   42.0340 C   0  0  0  0  0  0  0  0  0  0  0  0
   40.6780   30.5760   42.9240 O   0  0  0  0  0  0  0  0  0  0  0  0
   39.8110   31.8780   41.2280 C   0  0  0  0  0  0  0  0  0  0  0  0
   40.9210   32.0960   40.4450 C   0  0  0  0  0  3  0  0  0  0  0  0
   40.9950   33.2520   39.6590 C   0  0  0  0  0  0  0  0  0  0  0  0
   41.8570   33.4470   39.0340 H   0  0  0  0  0  0  0  0  0  0  0  0
   39.9630   34.1400   39.6870 N   0  0  0  0  0  0  0  0  0  0  0  0
   38.8930   33.9320   40.4420 C   0  0  0  0  0  3  0  0  0  0  0  0
   38.8640   32.8270   41.1680 N   0  0  0  0  0  0  0  0  0  0  0  0
  1  7  1  6  0  0  0
  1  2  1  0  0  0  0
  1 19  1  0  0  0  0
  2  9  1  0  0  0  0
  2  8  1  0  0  0  0
  3 11  1  0  0  0  0
  3  2  1  0  0  0  0
  4  3  1  0  0  0  0
  4  5  1  0  0  0  0
  4 12  1  0  0  0  0
  5 15  1  0  0  0  0
  5  6  1  0  0  0  0
  6 16  1  6  0  0  0
  6  1  1  0  0  0  0
  6 26  1  0  0  0  0
 10  3  1  0  0  0  0
 13  4  1  0  0  0  0
 14  5  1  0  0  0  0
 17 23  1  0  0  0  0
 18 24  1  0  0  0  0
 18 17  2  0  0  0  0
 19 18  1  0  0  0  0
 20 19  2  0  0  0  0
 20 21  1  0  0  0  0
 21 22  2  0  0  0  0
 22 17  1  0  0  0  0
 25 21  1  0  0  0  0
 26 31  2  0  0  0  0
 26 27  1  0  0  0  0
 27 28  2  0  0  0  0
 28 33  1  0  0  0  0
 29 28  1  0  0  0  0
 29 34  1  0  0  0  0
 30 35  1  0  0  0  0
 30 29  2  0  0  0  0
 31 30  1  0  0  0  0
 32 27  1  0  0  0  0
 35 36  2  0  0  0  0
 37 35  1  0  0  0  0
 38 37  2  0  0  0  0
 39 41  2  0  0  0  0
 39 38  1  0  0  0  0
 40 39  1  0  0  0  0
 41 42  1  0  0  0  0
 42 43  2  0  0  0  0
 43 37  1  0  0  0  0
M  END
>  <minimizedAffinity>
-5.54132843

$$$$
