
 OpenBabel03242513323D

 35 38  0  0  0  0  0  0  0  0999 V2000
   37.7530   26.7430   41.5190 C   0  0  0  0  0  0  0  0  0  0  0  0
   38.5890   25.6870   41.8240 C   0  0  0  0  0  0  0  0  0  0  0  0
   39.3030   25.7730   42.9760 C   0  0  0  0  0  0  0  0  0  0  0  0
   39.2080   26.8650   43.8180 C   0  0  0  0  0  0  0  0  0  0  0  0
   38.3740   27.9090   43.5020 C   0  0  0  0  0  0  0  0  0  0  0  0
   37.6220   27.8680   42.3340 C   0  0  0  0  0  0  0  0  0  0  0  0
   39.9650   24.9550   43.2350 H   0  0  0  0  0  0  0  0  0  0  0  0
   39.7840   26.9080   44.7230 H   0  0  0  0  0  0  0  0  0  0  0  0
   38.2940   28.7690   44.1590 H   0  0  0  0  0  0  0  0  0  0  0  0
   38.0780   22.3170   40.2050 C   0  0  0  0  0  0  0  0  0  0  0  0
   38.0130   23.3770   41.1100 C   0  0  0  0  0  0  0  0  0  0  0  0
   38.6420   24.5730   40.8990 C   0  0  0  0  0  0  0  0  0  0  0  0
   39.3410   24.6460   39.7270 N   0  0  0  0  0  0  0  0  0  0  0  0
   39.4160   23.6420   38.8470 C   0  0  0  0  0  0  0  0  0  0  0  0
   38.7840   22.4700   39.0810 N   0  0  0  0  0  0  0  0  0  0  0  0
   37.5720   21.3880   40.3990 H   0  0  0  0  0  0  0  0  0  0  0  0
   37.4340   23.2290   42.0140 H   0  0  0  0  0  0  0  0  0  0  0  0
   40.0240   23.9210   37.9880 H   0  0  0  0  0  0  0  0  0  0  0  0
   37.0030   26.7050   40.3560 O   0  0  0  0  0  0  0  0  0  0  0  0
   36.0130   26.8280   40.3310 H   0  0  0  0  0  0  0  0  0  0  0  0
   36.7750   28.8790   41.9720 O   0  0  0  0  0  0  0  0  0  0  0  0
   37.1350   30.0570   41.4270 C   0  0  0  0  0  0  0  0  0  0  0  0
   36.3920   30.9660   40.7020 C   0  0  0  0  0  0  0  0  0  0  0  0
   36.9800   32.1020   40.2480 C   0  0  0  0  0  0  0  0  0  0  0  0
   38.3570   32.2720   40.5640 C   0  0  0  0  0  0  0  0  0  0  0  0
   38.7730   30.7840   41.5130 S   0  0  0  0  0  0  0  0  0  0  0  0
   35.3500   30.7480   40.5120 H   0  0  0  0  0  0  0  0  0  0  0  0
   36.5180   32.8720   39.6840 H   0  0  0  0  0  0  0  0  0  0  0  0
   39.2310   33.4080   40.1950 C   0  0  0  0  0  0  0  0  0  0  0  0
   40.4180   33.2680   39.5120 C   0  0  0  0  0  3  0  0  0  0  0  0
   41.0910   34.4430   39.2610 C   0  0  0  0  0  0  0  0  0  0  0  0
   42.0350   34.2920   38.7130 H   0  0  0  0  0  0  0  0  0  0  0  0
   40.6530   35.6550   39.6370 N   0  0  0  0  0  0  0  0  0  0  0  0
   39.4880   35.7500   40.3030 C   0  0  0  0  0  3  0  0  0  0  0  0
   38.7920   34.6060   40.5710 N   0  0  0  0  0  0  0  0  0  0  0  0
  1  2  2  0  0  0  0
  1  6  1  0  0  0  0
  2  3  1  0  0  0  0
  3  7  1  0  0  0  0
  3  4  2  0  0  0  0
  4  8  1  0  0  0  0
  5  4  1  0  0  0  0
  5  9  1  0  0  0  0
  6  5  2  0  0  0  0
 10 16  1  0  0  0  0
 10 11  1  0  0  0  0
 11 17  1  0  0  0  0
 12 11  2  0  0  0  0
 12  2  1  0  0  0  0
 13 12  1  0  0  0  0
 14 15  1  0  0  0  0
 14 13  2  0  0  0  0
 15 10  2  0  0  0  0
 18 14  1  0  0  0  0
 19  1  1  0  0  0  0
 20 19  1  0  0  0  0
 21  6  1  0  0  0  0
 22 26  1  0  0  0  0
 22 21  1  0  0  0  0
 23 22  2  0  0  0  0
 24 25  2  0  0  0  0
 24 23  1  0  0  0  0
 25 26  1  0  0  0  0
 27 23  1  0  0  0  0
 28 24  1  0  0  0  0
 29 25  1  0  0  0  0
 29 35  1  0  0  0  0
 30 29  2  0  0  0  0
 31 30  1  0  0  0  0
 31 33  2  0  0  0  0
 32 31  1  0  0  0  0
 33 34  1  0  0  0  0
 34 35  2  0  0  0  0
M  END
>  <minimizedAffinity>
-6.38451576

$$$$

 OpenBabel03242513323D

 35 38  0  0  0  0  0  0  0  0999 V2000
   38.8890   31.3470   41.4290 C   0  0  0  0  0  0  0  0  0  0  0  0
   38.3240   32.3360   40.6480 C   0  0  0  0  0  0  0  0  0  0  0  0
   37.0300   32.1660   40.2710 C   0  0  0  0  0  0  0  0  0  0  0  0
   36.2970   31.0540   40.6430 C   0  0  0  0  0  0  0  0  0  0  0  0
   36.8720   30.0780   41.4180 C   0  0  0  0  0  0  0  0  0  0  0  0
   38.1930   30.2060   41.8310 C   0  0  0  0  0  0  0  0  0  0  0  0
   36.5660   32.9300   39.6590 H   0  0  0  0  0  0  0  0  0  0  0  0
   35.2760   30.9440   40.3310 H   0  0  0  0  0  0  0  0  0  0  0  0
   36.3030   29.2030   41.7150 H   0  0  0  0  0  0  0  0  0  0  0  0
   39.6490   35.8480   40.2710 C   0  0  0  0  0  0  0  0  0  0  0  0
   38.8420   34.7670   40.6240 C   0  0  0  0  0  0  0  0  0  0  0  0
   39.1450   33.4750   40.2930 C   0  0  0  0  0  0  0  0  0  0  0  0
   40.3070   33.3290   39.5870 N   0  0  0  0  0  0  0  0  0  0  0  0
   41.0940   34.3530   39.2380 C   0  0  0  0  0  0  0  0  0  0  0  0
   40.7700   35.6200   39.5790 N   0  0  0  0  0  0  0  0  0  0  0  0
   39.3850   36.8530   40.5460 H   0  0  0  0  0  0  0  0  0  0  0  0
   37.9400   34.9780   41.1850 H   0  0  0  0  0  0  0  0  0  0  0  0
   41.9620   34.0050   38.6810 H   0  0  0  0  0  0  0  0  0  0  0  0
   40.2040   31.4720   41.8410 O   0  0  0  0  0  0  0  0  0  0  0  0
   40.4940   31.4140   42.7940 H   0  0  0  0  0  0  0  0  0  0  0  0
   38.8140   29.2640   42.6040 O   0  0  0  0  0  0  0  0  0  0  0  0
   38.8250   27.9360   42.3800 C   0  0  0  0  0  0  0  0  0  0  0  0
   38.9300   26.8850   43.2660 C   0  0  0  0  0  0  0  0  0  0  0  0
   38.9180   25.6100   42.8000 C   0  0  0  0  0  0  0  0  0  0  0  0
   38.7950   25.4540   41.3900 C   0  0  0  0  0  0  0  0  0  0  0  0
   38.6990   27.1540   40.7700 S   0  0  0  0  0  0  0  0  0  0  0  0
   39.0190   27.1050   44.3210 H   0  0  0  0  0  0  0  0  0  0  0  0
   38.9910   24.7240   43.3760 H   0  0  0  0  0  0  0  0  0  0  0  0
   38.7570   24.1870   40.6270 C   0  0  0  0  0  0  0  0  0  0  0  0
   37.9760   23.1080   40.9770 C   0  0  0  0  0  3  0  0  0  0  0  0
   38.0770   22.0170   40.1420 C   0  0  0  0  0  0  0  0  0  0  0  0
   37.4380   21.1740   40.4530 H   0  0  0  0  0  0  0  0  0  0  0  0
   38.8670   21.9710   39.0570 N   0  0  0  0  0  0  0  0  0  0  0  0
   39.6150   23.0460   38.7490 C   0  0  0  0  0  3  0  0  0  0  0  0
   39.5420   24.1470   39.5530 N   0  0  0  0  0  0  0  0  0  0  0  0
  1  6  1  0  0  0  0
  1 19  1  0  0  0  0
  2  1  2  0  0  0  0
  3  4  2  0  0  0  0
  3  2  1  0  0  0  0
  4  5  1  0  0  0  0
  5  9  1  0  0  0  0
  5  6  2  0  0  0  0
  6 21  1  0  0  0  0
  7  3  1  0  0  0  0
  8  4  1  0  0  0  0
 10 16  1  0  0  0  0
 10 11  1  0  0  0  0
 11 17  1  0  0  0  0
 12 11  2  0  0  0  0
 12  2  1  0  0  0  0
 13 12  1  0  0  0  0
 14 15  1  0  0  0  0
 14 13  2  0  0  0  0
 15 10  2  0  0  0  0
 18 14  1  0  0  0  0
 19 20  1  0  0  0  0
 22 21  1  0  0  0  0
 22 23  2  0  0  0  0
 23 27  1  0  0  0  0
 24 23  1  0  0  0  0
 24 28  1  0  0  0  0
 25 24  2  0  0  0  0
 26 25  1  0  0  0  0
 26 22  1  0  0  0  0
 29 30  1  0  0  0  0
 29 25  1  0  0  0  0
 31 32  1  0  0  0  0
 31 30  2  0  0  0  0
 33 31  1  0  0  0  0
 34 33  2  0  0  0  0
 34 35  1  0  0  0  0
 35 29  2  0  0  0  0
M  END
>  <minimizedAffinity>
-6.04961967

$$$$

 OpenBabel03242513323D

 35 38  0  0  0  0  0  0  0  0999 V2000
   36.9680   26.5780   40.1470 C   0  0  0  0  0  0  0  0  0  0  0  0
   36.9930   25.5250   41.0400 C   0  0  0  0  0  0  0  0  0  0  0  0
   36.9710   25.8330   42.3630 C   0  0  0  0  0  0  0  0  0  0  0  0
   36.9290   27.1390   42.8130 C   0  0  0  0  0  0  0  0  0  0  0  0
   36.9060   28.1770   41.9140 C   0  0  0  0  0  0  0  0  0  0  0  0
   36.9250   27.9140   40.5490 C   0  0  0  0  0  0  0  0  0  0  0  0
   36.9890   25.0210   43.0820 H   0  0  0  0  0  0  0  0  0  0  0  0
   36.9130   27.3540   43.8640 H   0  0  0  0  0  0  0  0  0  0  0  0
   36.8710   29.2050   42.2590 H   0  0  0  0  0  0  0  0  0  0  0  0
   38.0600   21.9950   40.2440 C   0  0  0  0  0  0  0  0  0  0  0  0
   38.0380   23.2860   40.7720 C   0  0  0  0  0  0  0  0  0  0  0  0
   37.0380   24.1810   40.5050 C   0  0  0  0  0  0  0  0  0  0  0  0
   36.0600   23.7050   39.6770 N   0  0  0  0  0  0  0  0  0  0  0  0
   36.0630   22.4710   39.1600 C   0  0  0  0  0  0  0  0  0  0  0  0
   37.0640   21.6080   39.4410 N   0  0  0  0  0  0  0  0  0  0  0  0
   38.8600   21.3140   40.4720 H   0  0  0  0  0  0  0  0  0  0  0  0
   38.8560   23.5760   41.4200 H   0  0  0  0  0  0  0  0  0  0  0  0
   35.1900   22.3100   38.5300 H   0  0  0  0  0  0  0  0  0  0  0  0
   36.9880   26.3200   38.7880 O   0  0  0  0  0  0  0  0  0  0  0  0
   36.3120   26.6770   38.1460 H   0  0  0  0  0  0  0  0  0  0  0  0
   36.9030   28.9090   39.6110 O   0  0  0  0  0  0  0  0  0  0  0  0
   37.3190   30.1780   39.7910 C   0  0  0  0  0  0  0  0  0  0  0  0
   36.5980   31.3540   39.8260 C   0  0  0  0  0  0  0  0  0  0  0  0
   37.2440   32.5310   40.0240 C   0  0  0  0  0  0  0  0  0  0  0  0
   38.6570   32.4580   40.1840 C   0  0  0  0  0  0  0  0  0  0  0  0
   39.0200   30.6870   40.0460 S   0  0  0  0  0  0  0  0  0  0  0  0
   35.5260   31.3070   39.6940 H   0  0  0  0  0  0  0  0  0  0  0  0
   36.8050   33.4940   40.0710 H   0  0  0  0  0  0  0  0  0  0  0  0
   39.5950   33.5800   40.4120 C   0  0  0  0  0  0  0  0  0  0  0  0
   39.2030   34.8980   40.4910 C   0  0  0  0  0  3  0  0  0  0  0  0
   40.2220   35.7990   40.7060 C   0  0  0  0  0  0  0  0  0  0  0  0
   39.8720   36.8420   40.7650 H   0  0  0  0  0  0  0  0  0  0  0  0
   41.5140   35.4560   40.8340 N   0  0  0  0  0  0  0  0  0  0  0  0
   41.8560   34.1580   40.7500 C   0  0  0  0  0  3  0  0  0  0  0  0
   40.8730   33.2340   40.5370 N   0  0  0  0  0  0  0  0  0  0  0  0
  1  6  2  0  0  0  0
  1  2  1  0  0  0  0
  2  3  2  0  0  0  0
  3  4  1  0  0  0  0
  3  7  1  0  0  0  0
  4  8  1  0  0  0  0
  5  9  1  0  0  0  0
  5  4  2  0  0  0  0
  6  5  1  0  0  0  0
 10 16  1  0  0  0  0
 10 11  1  0  0  0  0
 11 17  1  0  0  0  0
 12 11  2  0  0  0  0
 12  2  1  0  0  0  0
 13 12  1  0  0  0  0
 14 15  1  0  0  0  0
 14 13  2  0  0  0  0
 15 10  2  0  0  0  0
 18 14  1  0  0  0  0
 19  1  1  0  0  0  0
 20 19  1  0  0  0  0
 21 22  1  0  0  0  0
 21  6  1  0  0  0  0
 22 23  2  0  0  0  0
 22 26  1  0  0  0  0
 23 24  1  0  0  0  0
 24 28  1  0  0  0  0
 24 25  2  0  0  0  0
 25 29  1  0  0  0  0
 26 25  1  0  0  0  0
 27 23  1  0  0  0  0
 29 30  2  0  0  0  0
 29 35  1  0  0  0  0
 30 31  1  0  0  0  0
 31 32  1  0  0  0  0
 31 33  2  0  0  0  0
 34 33  1  0  0  0  0
 35 34  2  0  0  0  0
M  END
>  <minimizedAffinity>
-6.00965929

$$$$

 OpenBabel03242513323D

 35 38  0  0  0  0  0  0  0  0999 V2000
   38.6010   31.5630   41.3850 C   0  0  0  0  0  0  0  0  0  0  0  0
   38.6050   32.5960   40.4680 C   0  0  0  0  0  0  0  0  0  0  0  0
   37.6020   32.6160   39.5520 C   0  0  0  0  0  0  0  0  0  0  0  0
   36.6120   31.6510   39.5250 C   0  0  0  0  0  0  0  0  0  0  0  0
   36.6210   30.6290   40.4430 C   0  0  0  0  0  0  0  0  0  0  0  0
   37.6260   30.5650   41.4010 C   0  0  0  0  0  0  0  0  0  0  0  0
   37.5850   33.4170   38.8230 H   0  0  0  0  0  0  0  0  0  0  0  0
   35.8320   31.6900   38.7900 H   0  0  0  0  0  0  0  0  0  0  0  0
   35.8480   29.8680   40.4280 H   0  0  0  0  0  0  0  0  0  0  0  0
   40.5020   35.8480   40.6990 C   0  0  0  0  0  0  0  0  0  0  0  0
   39.4600   34.9240   40.6200 C   0  0  0  0  0  0  0  0  0  0  0  0
   39.6690   33.5740   40.5500 C   0  0  0  0  0  0  0  0  0  0  0  0
   40.9850   33.2040   40.5640 N   0  0  0  0  0  0  0  0  0  0  0  0
   41.9970   34.0740   40.6390 C   0  0  0  0  0  0  0  0  0  0  0  0
   41.7620   35.4030   40.7070 N   0  0  0  0  0  0  0  0  0  0  0  0
   40.3060   36.9040   40.7530 H   0  0  0  0  0  0  0  0  0  0  0  0
   38.4480   35.3100   40.6160 H   0  0  0  0  0  0  0  0  0  0  0  0
   42.9560   33.5580   40.6350 H   0  0  0  0  0  0  0  0  0  0  0  0
   39.6000   31.4960   42.3410 O   0  0  0  0  0  0  0  0  0  0  0  0
   39.4250   31.4340   43.3210 H   0  0  0  0  0  0  0  0  0  0  0  0
   37.6820   29.5700   42.3380 O   0  0  0  0  0  0  0  0  0  0  0  0
   37.6980   28.2460   42.0890 C   0  0  0  0  0  0  0  0  0  0  0  0
   37.1150   27.2040   42.7790 C   0  0  0  0  0  0  0  0  0  0  0  0
   37.2710   25.9320   42.3310 C   0  0  0  0  0  0  0  0  0  0  0  0
   38.0490   25.7690   41.1490 C   0  0  0  0  0  0  0  0  0  0  0  0
   38.5360   27.4590   40.7120 S   0  0  0  0  0  0  0  0  0  0  0  0
   36.5410   27.4280   43.6670 H   0  0  0  0  0  0  0  0  0  0  0  0
   36.8750   25.0530   42.7690 H   0  0  0  0  0  0  0  0  0  0  0  0
   38.3730   24.5030   40.4540 C   0  0  0  0  0  0  0  0  0  0  0  0
   39.3700   24.3830   39.5120 C   0  0  0  0  0  3  0  0  0  0  0  0
   39.5200   23.1230   38.9760 C   0  0  0  0  0  0  0  0  0  0  0  0
   40.3260   23.0650   38.2270 H   0  0  0  0  0  0  0  0  0  0  0  0
   38.7680   22.0650   39.3220 N   0  0  0  0  0  0  0  0  0  0  0  0
   37.8040   22.2240   40.2460 C   0  0  0  0  0  3  0  0  0  0  0  0
   37.6250   23.4590   40.8000 N   0  0  0  0  0  0  0  0  0  0  0  0
  1  6  1  0  0  0  0
  1 19  1  0  0  0  0
  2 12  1  0  0  0  0
  2  1  2  0  0  0  0
  3  2  1  0  0  0  0
  4  3  2  0  0  0  0
  4  5  1  0  0  0  0
  5  6  2  0  0  0  0
  6 21  1  0  0  0  0
  7  3  1  0  0  0  0
  8  4  1  0  0  0  0
  9  5  1  0  0  0  0
 10 15  1  0  0  0  0
 10 16  1  0  0  0  0
 11 10  2  0  0  0  0
 12 13  2  0  0  0  0
 12 11  1  0  0  0  0
 13 14  1  0  0  0  0
 14 15  2  0  0  0  0
 17 11  1  0  0  0  0
 18 14  1  0  0  0  0
 19 20  1  0  0  0  0
 22 21  1  0  0  0  0
 22 23  2  0  0  0  0
 23 27  1  0  0  0  0
 24 28  1  0  0  0  0
 24 23  1  0  0  0  0
 25 24  2  0  0  0  0
 26 25  1  0  0  0  0
 26 22  1  0  0  0  0
 29 35  1  0  0  0  0
 29 25  1  0  0  0  0
 30 29  2  0  0  0  0
 31 33  2  0  0  0  0
 31 30  1  0  0  0  0
 32 31  1  0  0  0  0
 33 34  1  0  0  0  0
 34 35  2  0  0  0  0
M  END
>  <minimizedAffinity>
-5.904562

$$$$

 OpenBabel03242513323D

 35 38  0  0  0  0  0  0  0  0999 V2000
   38.7420   26.6780   42.0660 C   0  0  0  0  0  0  0  0  0  0  0  0
   37.5040   26.0670   42.0390 C   0  0  0  0  0  0  0  0  0  0  0  0
   36.5440   26.5740   42.8550 C   0  0  0  0  0  0  0  0  0  0  0  0
   36.7820   27.6530   43.6860 C   0  0  0  0  0  0  0  0  0  0  0  0
   38.0180   28.2500   43.7030 C   0  0  0  0  0  0  0  0  0  0  0  0
   39.0340   27.7690   42.8850 C   0  0  0  0  0  0  0  0  0  0  0  0
   35.5650   26.1100   42.8500 H   0  0  0  0  0  0  0  0  0  0  0  0
   36.0050   28.0340   44.3220 H   0  0  0  0  0  0  0  0  0  0  0  0
   38.2120   29.0980   44.3520 H   0  0  0  0  0  0  0  0  0  0  0  0
   36.3590   23.8710   39.1930 C   0  0  0  0  0  0  0  0  0  0  0  0
   36.5200   24.9680   40.0380 C   0  0  0  0  0  0  0  0  0  0  0  0
   37.3200   24.9410   41.1470 C   0  0  0  0  0  0  0  0  0  0  0  0
   37.9510   23.7470   41.3600 N   0  0  0  0  0  0  0  0  0  0  0  0
   37.8090   22.6830   40.5620 C   0  0  0  0  0  0  0  0  0  0  0  0
   37.0120   22.7380   39.4730 N   0  0  0  0  0  0  0  0  0  0  0  0
   35.7220   23.9230   38.3280 H   0  0  0  0  0  0  0  0  0  0  0  0
   35.9810   25.8750   39.7900 H   0  0  0  0  0  0  0  0  0  0  0  0
   38.4020   21.8430   40.9230 H   0  0  0  0  0  0  0  0  0  0  0  0
   39.7550   26.2000   41.2520 O   0  0  0  0  0  0  0  0  0  0  0  0
   40.2680   26.7710   40.6130 H   0  0  0  0  0  0  0  0  0  0  0  0
   40.2820   28.3260   42.8630 O   0  0  0  0  0  0  0  0  0  0  0  0
   40.5870   29.5740   42.4560 C   0  0  0  0  0  0  0  0  0  0  0  0
   41.7450   30.3050   42.6200 C   0  0  0  0  0  0  0  0  0  0  0  0
   41.8210   31.5630   42.1150 C   0  0  0  0  0  0  0  0  0  0  0  0
   40.6650   32.0420   41.4350 C   0  0  0  0  0  0  0  0  0  0  0  0
   39.4940   30.6630   41.5410 S   0  0  0  0  0  0  0  0  0  0  0  0
   42.5710   29.8540   43.1530 H   0  0  0  0  0  0  0  0  0  0  0  0
   42.6500   32.2200   42.1750 H   0  0  0  0  0  0  0  0  0  0  0  0
   40.4830   33.3640   40.7960 C   0  0  0  0  0  0  0  0  0  0  0  0
   41.4970   34.0560   40.1720 C   0  0  0  0  0  3  0  0  0  0  0  0
   41.1320   35.2720   39.6370 C   0  0  0  0  0  0  0  0  0  0  0  0
   41.9680   35.7970   39.1460 H   0  0  0  0  0  0  0  0  0  0  0  0
   39.8900   35.7780   39.6980 N   0  0  0  0  0  0  0  0  0  0  0  0
   38.9270   35.0710   40.3160 C   0  0  0  0  0  3  0  0  0  0  0  0
   39.2510   33.8600   40.8600 N   0  0  0  0  0  0  0  0  0  0  0  0
  1  6  1  0  0  0  0
  2  1  2  0  0  0  0
  2  3  1  0  0  0  0
  3  4  2  0  0  0  0
  4  5  1  0  0  0  0
  4  8  1  0  0  0  0
  5  9  1  0  0  0  0
  6  5  2  0  0  0  0
  7  3  1  0  0  0  0
 10 15  2  0  0  0  0
 10 11  1  0  0  0  0
 11 12  2  0  0  0  0
 12 13  1  0  0  0  0
 12  2  1  0  0  0  0
 14 18  1  0  0  0  0
 14 13  2  0  0  0  0
 15 14  1  0  0  0  0
 16 10  1  0  0  0  0
 17 11  1  0  0  0  0
 19  1  1  0  0  0  0
 20 19  1  0  0  0  0
 21  6  1  0  0  0  0
 22 23  2  0  0  0  0
 22 21  1  0  0  0  0
 23 27  1  0  0  0  0
 24 28  1  0  0  0  0
 24 23  1  0  0  0  0
 25 26  1  0  0  0  0
 25 24  2  0  0  0  0
 26 22  1  0  0  0  0
 29 35  1  0  0  0  0
 29 25  1  0  0  0  0
 30 29  2  0  0  0  0
 31 33  2  0  0  0  0
 31 30  1  0  0  0  0
 32 31  1  0  0  0  0
 33 34  1  0  0  0  0
 34 35  2  0  0  0  0
M  END
>  <minimizedAffinity>
-5.85552835

$$$$

 OpenBabel03242513323D

 35 38  0  0  0  0  0  0  0  0999 V2000
   37.7600   31.7930   40.9060 C   0  0  0  0  0  0  0  0  0  0  0  0
   39.0690   32.1400   41.1810 C   0  0  0  0  0  0  0  0  0  0  0  0
   39.7980   31.2670   41.9230 C   0  0  0  0  0  0  0  0  0  0  0  0
   39.2680   30.0790   42.3920 C   0  0  0  0  0  0  0  0  0  0  0  0
   37.9660   29.7480   42.1110 C   0  0  0  0  0  0  0  0  0  0  0  0
   37.1780   30.6080   41.3550 C   0  0  0  0  0  0  0  0  0  0  0  0
   40.8280   31.5180   42.1510 H   0  0  0  0  0  0  0  0  0  0  0  0
   39.8670   29.4080   42.9770 H   0  0  0  0  0  0  0  0  0  0  0  0
   37.5420   28.8170   42.4750 H   0  0  0  0  0  0  0  0  0  0  0  0
   41.1810   34.7480   39.4590 C   0  0  0  0  0  0  0  0  0  0  0  0
   40.7250   33.5250   39.9500 C   0  0  0  0  0  0  0  0  0  0  0  0
   39.5630   33.3970   40.6610 C   0  0  0  0  0  0  0  0  0  0  0  0
   38.8850   34.5690   40.8510 N   0  0  0  0  0  0  0  0  0  0  0  0
   39.3060   35.7510   40.3890 C   0  0  0  0  0  0  0  0  0  0  0  0
   40.4580   35.8480   39.6890 N   0  0  0  0  0  0  0  0  0  0  0  0
   42.0990   34.8160   38.9030 H   0  0  0  0  0  0  0  0  0  0  0  0
   41.3290   32.6480   39.7510 H   0  0  0  0  0  0  0  0  0  0  0  0
   38.6100   36.5450   40.6570 H   0  0  0  0  0  0  0  0  0  0  0  0
   36.9730   32.6480   40.1530 O   0  0  0  0  0  0  0  0  0  0  0  0
   36.4830   32.3680   39.3300 H   0  0  0  0  0  0  0  0  0  0  0  0
   35.8750   30.3270   41.0460 O   0  0  0  0  0  0  0  0  0  0  0  0
   35.4360   29.7520   39.9090 C   0  0  0  0  0  0  0  0  0  0  0  0
   34.2260   29.1540   39.6250 C   0  0  0  0  0  0  0  0  0  0  0  0
   34.0080   28.6370   38.3890 C   0  0  0  0  0  0  0  0  0  0  0  0
   35.0770   28.7560   37.4560 C   0  0  0  0  0  0  0  0  0  0  0  0
   36.3740   29.6140   38.3870 S   0  0  0  0  0  0  0  0  0  0  0  0
   33.4740   29.1120   40.4010 H   0  0  0  0  0  0  0  0  0  0  0  0
   33.1260   28.1560   38.0500 H   0  0  0  0  0  0  0  0  0  0  0  0
   35.1030   28.2820   36.0540 C   0  0  0  0  0  0  0  0  0  0  0  0
   35.9320   28.8050   35.0870 C   0  0  0  0  0  3  0  0  0  0  0  0
   35.8090   28.2330   33.8400 C   0  0  0  0  0  0  0  0  0  0  0  0
   36.4870   28.6760   33.0920 H   0  0  0  0  0  0  0  0  0  0  0  0
   34.9570   27.2370   33.5500 N   0  0  0  0  0  0  0  0  0  0  0  0
   34.1640   26.7530   34.5230 C   0  0  0  0  0  3  0  0  0  0  0  0
   34.2560   27.2950   35.7730 N   0  0  0  0  0  0  0  0  0  0  0  0
  1  2  2  0  0  0  0
  1  6  1  0  0  0  0
  2  3  1  0  0  0  0
  3  7  1  0  0  0  0
  3  4  2  0  0  0  0
  4  8  1  0  0  0  0
  5  4  1  0  0  0  0
  5  9  1  0  0  0  0
  6  5  2  0  0  0  0
 10 15  2  0  0  0  0
 10 11  1  0  0  0  0
 11 12  2  0  0  0  0
 12 13  1  0  0  0  0
 12  2  1  0  0  0  0
 14 18  1  0  0  0  0
 14 13  2  0  0  0  0
 15 14  1  0  0  0  0
 16 10  1  0  0  0  0
 17 11  1  0  0  0  0
 19  1  1  0  0  0  0
 20 19  1  0  0  0  0
 21  6  1  0  0  0  0
 22 21  1  0  0  0  0
 23 22  2  0  0  0  0
 23 27  1  0  0  0  0
 24 23  1  0  0  0  0
 25 26  1  0  0  0  0
 25 24  2  0  0  0  0
 26 22  1  0  0  0  0
 28 24  1  0  0  0  0
 29 25  1  0  0  0  0
 30 29  2  0  0  0  0
 31 30  1  0  0  0  0
 32 31  1  0  0  0  0
 33 31  2  0  0  0  0
 33 34  1  0  0  0  0
 34 35  2  0  0  0  0
 35 29  1  0  0  0  0
M  END
>  <minimizedAffinity>
-5.82537031

$$$$

 OpenBabel03242513323D

 35 38  0  0  0  0  0  0  0  0999 V2000
   36.6960   27.0710   40.4470 C   0  0  0  0  0  0  0  0  0  0  0  0
   36.9300   25.7130   40.3490 C   0  0  0  0  0  0  0  0  0  0  0  0
   37.2700   25.0580   41.4890 C   0  0  0  0  0  0  0  0  0  0  0  0
   37.3810   25.7080   42.7040 C   0  0  0  0  0  0  0  0  0  0  0  0
   37.1460   27.0580   42.7870 C   0  0  0  0  0  0  0  0  0  0  0  0
   36.7950   27.7740   41.6480 C   0  0  0  0  0  0  0  0  0  0  0  0
   37.4580   23.9920   41.4350 H   0  0  0  0  0  0  0  0  0  0  0  0
   37.6520   25.1660   43.5900 H   0  0  0  0  0  0  0  0  0  0  0  0
   37.2310   27.5760   43.7370 H   0  0  0  0  0  0  0  0  0  0  0  0
   35.7360   23.5740   37.4800 C   0  0  0  0  0  0  0  0  0  0  0  0
   35.8450   24.1580   38.7410 C   0  0  0  0  0  0  0  0  0  0  0  0
   36.7970   25.0930   39.0470 C   0  0  0  0  0  0  0  0  0  0  0  0
   37.6330   25.4080   38.0120 N   0  0  0  0  0  0  0  0  0  0  0  0
   37.5450   24.8590   36.7960 C   0  0  0  0  0  0  0  0  0  0  0  0
   36.5940   23.9380   36.5220 N   0  0  0  0  0  0  0  0  0  0  0  0
   34.9770   22.8420   37.2700 H   0  0  0  0  0  0  0  0  0  0  0  0
   35.1380   23.8480   39.5010 H   0  0  0  0  0  0  0  0  0  0  0  0
   38.3100   25.2570   36.1320 H   0  0  0  0  0  0  0  0  0  0  0  0
   36.3460   27.7860   39.3140 O   0  0  0  0  0  0  0  0  0  0  0  0
   35.5330   28.3610   39.2520 H   0  0  0  0  0  0  0  0  0  0  0  0
   36.5490   29.1190   41.6750 O   0  0  0  0  0  0  0  0  0  0  0  0
   37.4660   30.0960   41.5310 C   0  0  0  0  0  0  0  0  0  0  0  0
   38.7440   30.1990   42.0400 C   0  0  0  0  0  0  0  0  0  0  0  0
   39.4930   31.2940   41.7550 C   0  0  0  0  0  0  0  0  0  0  0  0
   38.8820   32.2800   40.9290 C   0  0  0  0  0  0  0  0  0  0  0  0
   37.2390   31.6010   40.5820 S   0  0  0  0  0  0  0  0  0  0  0  0
   39.1200   29.3960   42.6590 H   0  0  0  0  0  0  0  0  0  0  0  0
   40.4810   31.4890   42.0840 H   0  0  0  0  0  0  0  0  0  0  0  0
   39.4720   33.5580   40.4700 C   0  0  0  0  0  0  0  0  0  0  0  0
   38.8240   34.7710   40.5550 C   0  0  0  0  0  3  0  0  0  0  0  0
   39.5360   35.8480   40.0750 C   0  0  0  0  0  0  0  0  0  0  0  0
   38.9880   36.8000   40.1590 H   0  0  0  0  0  0  0  0  0  0  0  0
   40.7720   35.7620   39.5560 N   0  0  0  0  0  0  0  0  0  0  0  0
   41.3700   34.5590   39.4910 C   0  0  0  0  0  3  0  0  0  0  0  0
   40.6950   33.4660   39.9570 N   0  0  0  0  0  0  0  0  0  0  0  0
  1  6  1  0  0  0  0
  2  1  2  0  0  0  0
  2  3  1  0  0  0  0
  3  4  2  0  0  0  0
  4  5  1  0  0  0  0
  4  8  1  0  0  0  0
  5  9  1  0  0  0  0
  6 21  1  0  0  0  0
  6  5  2  0  0  0  0
  7  3  1  0  0  0  0
 10 11  1  0  0  0  0
 11 12  2  0  0  0  0
 11 17  1  0  0  0  0
 12  2  1  0  0  0  0
 13 12  1  0  0  0  0
 14 13  2  0  0  0  0
 15 14  1  0  0  0  0
 15 10  2  0  0  0  0
 16 10  1  0  0  0  0
 18 14  1  0  0  0  0
 19  1  1  0  0  0  0
 20 19  1  0  0  0  0
 22 21  1  0  0  0  0
 22 23  2  0  0  0  0
 23 27  1  0  0  0  0
 24 23  1  0  0  0  0
 24 28  1  0  0  0  0
 25 24  2  0  0  0  0
 26 25  1  0  0  0  0
 26 22  1  0  0  0  0
 29 30  1  0  0  0  0
 29 25  1  0  0  0  0
 31 32  1  0  0  0  0
 31 30  2  0  0  0  0
 33 31  1  0  0  0  0
 34 33  2  0  0  0  0
 34 35  1  0  0  0  0
 35 29  2  0  0  0  0
M  END
>  <minimizedAffinity>
-5.80373335

$$$$

 OpenBabel03242513323D

 35 38  0  0  0  0  0  0  0  0999 V2000
   40.6620   33.2950   40.2870 C   0  0  0  0  0  0  0  0  0  0  0  0
   41.3720   34.3530   39.7530 C   0  0  0  0  0  0  0  0  0  0  0  0
   40.7260   35.5430   39.6470 C   0  0  0  0  0  0  0  0  0  0  0  0
   39.4140   35.7040   40.0500 C   0  0  0  0  0  0  0  0  0  0  0  0
   38.7200   34.6440   40.5780 C   0  0  0  0  0  0  0  0  0  0  0  0
   39.3370   33.4050   40.7080 C   0  0  0  0  0  0  0  0  0  0  0  0
   41.2640   36.3860   39.2310 H   0  0  0  0  0  0  0  0  0  0  0  0
   38.9270   36.6560   39.9540 H   0  0  0  0  0  0  0  0  0  0  0  0
   37.6890   34.7630   40.8980 H   0  0  0  0  0  0  0  0  0  0  0  0
   44.4650   33.7280   37.6850 C   0  0  0  0  0  0  0  0  0  0  0  0
   43.1390   33.9550   38.0500 C   0  0  0  0  0  0  0  0  0  0  0  0
   42.7430   34.1170   39.3500 C   0  0  0  0  0  0  0  0  0  0  0  0
   43.7560   34.0390   40.2630 N   0  0  0  0  0  0  0  0  0  0  0  0
   45.0340   33.8220   39.9340 C   0  0  0  0  0  0  0  0  0  0  0  0
   45.3970   33.6660   38.6420 N   0  0  0  0  0  0  0  0  0  0  0  0
   44.7460   33.6050   36.6540 H   0  0  0  0  0  0  0  0  0  0  0  0
   42.4020   34.0020   37.2570 H   0  0  0  0  0  0  0  0  0  0  0  0
   45.6670   33.7980   40.8200 H   0  0  0  0  0  0  0  0  0  0  0  0
   41.2740   32.0600   40.4170 O   0  0  0  0  0  0  0  0  0  0  0  0
   41.3170   31.5510   41.2750 H   0  0  0  0  0  0  0  0  0  0  0  0
   38.6920   32.3170   41.2280 O   0  0  0  0  0  0  0  0  0  0  0  0
   37.7650   31.5680   40.5980 C   0  0  0  0  0  0  0  0  0  0  0  0
   36.6300   30.9590   41.0900 C   0  0  0  0  0  0  0  0  0  0  0  0
   35.8360   30.2450   40.2520 C   0  0  0  0  0  0  0  0  0  0  0  0
   36.2510   30.1780   38.8910 C   0  0  0  0  0  0  0  0  0  0  0  0
   37.7790   31.1510   38.8540 S   0  0  0  0  0  0  0  0  0  0  0  0
   36.3980   31.0670   42.1400 H   0  0  0  0  0  0  0  0  0  0  0  0
   34.9430   29.7340   40.5070 H   0  0  0  0  0  0  0  0  0  0  0  0
   35.5750   29.4720   37.7800 C   0  0  0  0  0  0  0  0  0  0  0  0
   34.3860   28.7900   37.9190 C   0  0  0  0  0  3  0  0  0  0  0  0
   33.9140   28.1960   36.7700 C   0  0  0  0  0  0  0  0  0  0  0  0
   32.9630   27.6610   36.9190 H   0  0  0  0  0  0  0  0  0  0  0  0
   34.5380   28.2570   35.5820 N   0  0  0  0  0  0  0  0  0  0  0  0
   35.6970   28.9330   35.4870 C   0  0  0  0  0  3  0  0  0  0  0  0
   36.1980   29.5350   36.6060 N   0  0  0  0  0  0  0  0  0  0  0  0
  1 19  1  0  0  0  0
  1  6  1  0  0  0  0
  2  1  2  0  0  0  0
  3  2  1  0  0  0  0
  3  4  2  0  0  0  0
  4  5  1  0  0  0  0
  5  6  2  0  0  0  0
  5  9  1  0  0  0  0
  6 21  1  0  0  0  0
  7  3  1  0  0  0  0
  8  4  1  0  0  0  0
 10 11  2  0  0  0  0
 10 15  1  0  0  0  0
 11 12  1  0  0  0  0
 12  2  1  0  0  0  0
 12 13  2  0  0  0  0
 14 13  1  0  0  0  0
 14 18  1  0  0  0  0
 15 14  2  0  0  0  0
 16 10  1  0  0  0  0
 17 11  1  0  0  0  0
 19 20  1  0  0  0  0
 22 23  2  0  0  0  0
 22 21  1  0  0  0  0
 23 27  1  0  0  0  0
 24 28  1  0  0  0  0
 24 23  1  0  0  0  0
 25 24  2  0  0  0  0
 26 25  1  0  0  0  0
 26 22  1  0  0  0  0
 29 30  1  0  0  0  0
 29 25  1  0  0  0  0
 31 32  1  0  0  0  0
 31 30  2  0  0  0  0
 33 31  1  0  0  0  0
 34 33  2  0  0  0  0
 34 35  1  0  0  0  0
 35 29  2  0  0  0  0
M  END
>  <minimizedAffinity>
-5.72786808

$$$$

 OpenBabel03242513323D

 35 38  0  0  0  0  0  0  0  0999 V2000
   38.6900   30.7410   41.3330 C   0  0  0  0  0  0  0  0  0  0  0  0
   39.8540   31.4750   41.4530 C   0  0  0  0  0  0  0  0  0  0  0  0
   40.8810   30.9020   42.1310 C   0  0  0  0  0  0  0  0  0  0  0  0
   40.7830   29.6390   42.6850 C   0  0  0  0  0  0  0  0  0  0  0  0
   39.6190   28.9210   42.5590 C   0  0  0  0  0  0  0  0  0  0  0  0
   38.5380   29.4630   41.8740 C   0  0  0  0  0  0  0  0  0  0  0  0
   41.8040   31.4600   42.2360 H   0  0  0  0  0  0  0  0  0  0  0  0
   41.6110   29.2100   43.2160 H   0  0  0  0  0  0  0  0  0  0  0  0
   39.5340   27.9290   42.9910 H   0  0  0  0  0  0  0  0  0  0  0  0
   40.8960   34.4860   39.4330 C   0  0  0  0  0  0  0  0  0  0  0  0
   40.8790   33.2130   40.0020 C   0  0  0  0  0  0  0  0  0  0  0  0
   39.8920   32.7910   40.8500 C   0  0  0  0  0  0  0  0  0  0  0  0
   38.9200   33.7210   41.0930 N   0  0  0  0  0  0  0  0  0  0  0  0
   38.9180   34.9460   40.5580 C   0  0  0  0  0  0  0  0  0  0  0  0
   39.9060   35.3370   39.7240 N   0  0  0  0  0  0  0  0  0  0  0  0
   41.6860   34.7890   38.7700 H   0  0  0  0  0  0  0  0  0  0  0  0
   41.6920   32.5420   39.7520 H   0  0  0  0  0  0  0  0  0  0  0  0
   38.0500   35.5150   40.8900 H   0  0  0  0  0  0  0  0  0  0  0  0
   37.6120   31.2780   40.6520 O   0  0  0  0  0  0  0  0  0  0  0  0
   37.1500   30.8190   39.8950 H   0  0  0  0  0  0  0  0  0  0  0  0
   37.3570   28.7910   41.7190 O   0  0  0  0  0  0  0  0  0  0  0  0
   37.2120   27.4550   41.6230 C   0  0  0  0  0  0  0  0  0  0  0  0
   37.0690   26.5020   42.6090 C   0  0  0  0  0  0  0  0  0  0  0  0
   36.9360   25.1960   42.2660 C   0  0  0  0  0  0  0  0  0  0  0  0
   36.9550   24.9030   40.8720 C   0  0  0  0  0  0  0  0  0  0  0  0
   37.1650   26.5240   40.0900 S   0  0  0  0  0  0  0  0  0  0  0  0
   37.0660   26.8230   43.6420 H   0  0  0  0  0  0  0  0  0  0  0  0
   36.8190   24.3760   42.9270 H   0  0  0  0  0  0  0  0  0  0  0  0
   36.8310   23.5750   40.2320 C   0  0  0  0  0  0  0  0  0  0  0  0
   35.7930   23.2240   39.3970 C   0  0  0  0  0  3  0  0  0  0  0  0
   35.8520   21.9410   38.8980 C   0  0  0  0  0  0  0  0  0  0  0  0
   35.0070   21.6970   38.2350 H   0  0  0  0  0  0  0  0  0  0  0  0
   36.8330   21.0690   39.1810 N   0  0  0  0  0  0  0  0  0  0  0  0
   37.8280   21.4500   40.0010 C   0  0  0  0  0  3  0  0  0  0  0  0
   37.8050   22.7150   40.5160 N   0  0  0  0  0  0  0  0  0  0  0  0
  1  2  2  0  0  0  0
  1  6  1  0  0  0  0
  2  3  1  0  0  0  0
  3  7  1  0  0  0  0
  3  4  2  0  0  0  0
  4  8  1  0  0  0  0
  5  4  1  0  0  0  0
  5  9  1  0  0  0  0
  6  5  2  0  0  0  0
 10 15  2  0  0  0  0
 10 11  1  0  0  0  0
 11 12  2  0  0  0  0
 12 13  1  0  0  0  0
 12  2  1  0  0  0  0
 14 18  1  0  0  0  0
 14 13  2  0  0  0  0
 15 14  1  0  0  0  0
 16 10  1  0  0  0  0
 17 11  1  0  0  0  0
 19  1  1  0  0  0  0
 20 19  1  0  0  0  0
 21  6  1  0  0  0  0
 22 21  1  0  0  0  0
 22 23  2  0  0  0  0
 23 27  1  0  0  0  0
 24 23  1  0  0  0  0
 24 28  1  0  0  0  0
 25 24  2  0  0  0  0
 26 25  1  0  0  0  0
 26 22  1  0  0  0  0
 29 35  1  0  0  0  0
 29 25  1  0  0  0  0
 30 29  2  0  0  0  0
 31 33  2  0  0  0  0
 31 30  1  0  0  0  0
 32 31  1  0  0  0  0
 33 34  1  0  0  0  0
 34 35  2  0  0  0  0
M  END
>  <minimizedAffinity>
-5.71435738

$$$$
