
 OpenBabel03242519213D

 32 34  0  0  0  0  0  0  0  0999 V2000
   46.4470   33.8690   43.2350 C   0  0  0  0  0  0  0  0  0  0  0  0
   45.7600   34.8900   42.4240 C   0  0  0  0  0  0  0  0  0  0  0  0
   45.3530   36.1010   43.2050 C   0  0  0  0  0  0  0  0  0  0  0  0
   44.5100   35.7630   44.4180 C   0  0  0  0  0  0  0  0  0  0  0  0
   44.9890   34.5330   45.1580 C   0  0  0  0  0  0  0  0  0  0  0  0
   46.3810   34.1220   44.7360 C   0  0  0  0  0  0  0  0  0  0  0  0
   45.9960   32.8460   43.0630 H   0  0  0  0  0  0  0  0  0  0  0  0
   46.3030   35.2330   41.5320 H   0  0  0  0  0  0  0  0  0  0  0  0
   44.8050   34.4480   42.0150 H   0  0  0  0  0  0  0  0  0  0  0  0
   46.1340   36.7870   43.5050 H   0  0  0  0  0  0  0  0  0  0  0  0
   44.6510   36.6720   42.5270 H   0  0  0  0  0  0  0  0  0  0  0  0
   44.5630   36.6270   45.1130 H   0  0  0  0  0  0  0  0  0  0  0  0
   43.4330   35.6570   44.1370 H   0  0  0  0  0  0  0  0  0  0  0  0
   45.0080   34.6770   46.2460 H   0  0  0  0  0  0  0  0  0  0  0  0
   44.3150   33.6800   44.9190 H   0  0  0  0  0  0  0  0  0  0  0  0
   46.5760   33.1390   45.2170 H   0  0  0  0  0  0  0  0  0  0  0  0
   47.1730   34.7970   45.0860 H   0  0  0  0  0  0  0  0  0  0  0  0
   47.8770   33.7290   42.8890 C   0  0  0  0  0  0  0  0  0  0  0  0
   48.5860   34.9380   42.6940 C   0  0  0  0  0  0  0  0  0  0  0  0
   49.9460   34.8940   42.3690 C   0  0  0  0  0  0  0  0  0  0  0  0
   50.5140   33.6500   42.2590 N   0  0  0  0  0  0  0  0  0  0  0  0
   49.8080   32.5050   42.4520 C   0  0  0  0  0  0  0  0  0  0  0  0
   48.5090   32.5550   42.7620 N   0  0  0  0  0  0  0  0  0  0  0  0
   48.2160   35.9250   42.7620 H   0  0  0  0  0  0  0  0  0  0  0  0
   50.5460   35.7780   42.2070 H   0  0  0  0  0  0  0  0  0  0  0  0
   50.4990   31.2250   42.3140 C   0  0  0  0  0  0  0  0  0  0  0  0
   50.0250   30.1210   42.9910 C   0  0  0  0  0  0  0  0  0  0  0  0
   50.7580   28.9570   42.7890 C   0  0  0  0  0  0  0  0  0  0  0  0
   50.3790   28.0780   43.3290 H   0  0  0  0  0  0  0  0  0  0  0  0
   51.8430   28.8900   42.0000 N   0  0  0  0  0  0  0  0  0  0  0  0
   52.2710   29.9910   41.3570 C   0  0  0  0  0  0  0  0  0  0  0  0
   51.5880   31.1320   41.5300 N   0  0  0  0  0  0  0  0  0  0  0  0
  1  6  1  0  0  0  0
  2  3  1  0  0  0  0
  2  1  1  0  0  0  0
  3 10  1  0  0  0  0
  3  4  1  0  0  0  0
  4 12  1  0  0  0  0
  4  5  1  0  0  0  0
  5 14  1  0  0  0  0
  6 17  1  0  0  0  0
  6  5  1  0  0  0  0
  6 16  1  0  0  0  0
  7  1  1  0  0  0  0
  8  2  1  0  0  0  0
  9  2  1  0  0  0  0
 11  3  1  0  0  0  0
 13  4  1  0  0  0  0
 15  5  1  0  0  0  0
 18  1  1  0  0  0  0
 19 24  1  0  0  0  0
 19 18  2  0  0  0  0
 20 19  1  0  0  0  0
 21 20  2  0  0  0  0
 21 22  1  0  0  0  0
 22 23  2  0  0  0  0
 23 18  1  0  0  0  0
 25 20  1  0  0  0  0
 26 22  1  0  0  0  0
 26 27  1  0  0  0  0
 28 27  2  0  0  0  0
 28 29  1  0  0  0  0
 30 28  1  0  0  0  0
 31 32  1  0  0  0  0
 31 30  2  0  0  0  0
 32 26  2  0  0  0  0
M  END
>  <minimizedAffinity>
-4.37971735

>  <minimizedRMSD>
2.52142525

$$$$
