
 OpenBabel03242510093D

 26 28  0  0  0  0  0  0  0  0999 V2000
   44.7790   32.9820   41.1910 Br  0  0  0  0  0  0  0  0  0  0  0  0
   46.4270   33.9430   40.9330 C   0  0  0  0  0  0  0  0  0  0  0  0
   46.8930   34.7540   41.9360 C   0  0  0  0  0  0  0  0  0  0  0  0
   48.0920   35.4610   41.7650 C   0  0  0  0  0  0  0  0  0  0  0  0
   48.7730   35.3210   40.5890 C   0  0  0  0  0  0  0  0  0  0  0  0
   48.2620   34.4980   39.6230 C   0  0  0  0  0  0  0  0  0  0  0  0
   47.1140   33.8040   39.7540 C   0  0  0  0  0  0  0  0  0  0  0  0
   48.4160   36.0950   42.6000 H   0  0  0  0  0  0  0  0  0  0  0  0
   49.6990   35.8630   40.4470 H   0  0  0  0  0  0  0  0  0  0  0  0
   48.8310   34.4170   38.7100 H   0  0  0  0  0  0  0  0  0  0  0  0
   45.6410   34.0450   45.2880 C   0  0  0  0  0  0  0  0  0  0  0  0
   44.7110   35.0780   45.5260 C   0  0  0  0  0  0  0  0  0  0  0  0
   44.5300   36.0200   44.5020 C   0  0  0  0  0  0  0  0  0  0  0  0
   45.2510   35.8800   43.3630 N   0  0  0  0  0  0  0  0  0  0  0  0
   46.1390   34.8730   43.1670 C   0  0  0  0  0  0  0  0  0  0  0  0
   46.3260   33.9530   44.1480 N   0  0  0  0  0  0  0  0  0  0  0  0
   45.7990   33.3130   46.0520 H   0  0  0  0  0  0  0  0  0  0  0  0
   44.1800   35.1100   46.4650 H   0  0  0  0  0  0  0  0  0  0  0  0
   43.8240   36.8190   44.6580 H   0  0  0  0  0  0  0  0  0  0  0  0
   46.5480   32.9200   38.7370 C   0  0  0  0  0  0  0  0  0  0  0  0
   46.9130   31.5980   38.5980 C   0  0  0  0  0  3  0  0  0  0  0  0
   46.3600   30.7960   37.6300 C   0  0  0  0  0  0  0  0  0  0  0  0
   46.6380   29.7630   37.5130 H   0  0  0  0  0  0  0  0  0  0  0  0
   45.4490   31.2540   36.7830 N   0  0  0  0  0  0  0  0  0  0  0  0
   45.0790   32.5500   36.9050 C   0  0  0  0  0  3  0  0  0  0  0  0
   45.6190   33.3410   37.8530 N   0  0  0  0  0  0  0  0  0  0  0  0
  2  1  1  0  0  0  0
  2  3  1  0  0  0  0
  3 15  1  0  0  0  0
  4  3  2  0  0  0  0
  4  8  1  0  0  0  0
  5  4  1  0  0  0  0
  6  7  1  0  0  0  0
  6  5  2  0  0  0  0
  7  2  2  0  0  0  0
  9  5  1  0  0  0  0
 10  6  1  0  0  0  0
 11 12  1  0  0  0  0
 11 17  1  0  0  0  0
 12 18  1  0  0  0  0
 13 19  1  0  0  0  0
 13 12  2  0  0  0  0
 14 13  1  0  0  0  0
 15 14  2  0  0  0  0
 15 16  1  0  0  0  0
 16 11  2  0  0  0  0
 20  7  1  0  0  0  0
 21 20  1  0  0  0  0
 22 21  2  0  0  0  0
 23 22  1  0  0  0  0
 24 25  2  0  0  0  0
 24 22  1  0  0  0  0
 25 26  1  0  0  0  0
 26 20  2  0  0  0  0
M  END
>  <minimizedAffinity>
-5.38546801

>  <minimizedRMSD>
0.637521029

$$$$
