
 OpenBabel03252507083D

 22 23  0  0  0  0  0  0  0  0999 V2000
   44.6270   35.6230   44.8090 C   0  0  0  0  0  0  0  0  0  0  0  0
   45.2060   35.7940   43.5390 C   0  0  0  0  0  0  0  0  0  0  0  0
   46.1820   34.8680   43.1500 C   0  0  0  0  0  0  0  0  0  0  0  0
   46.5190   33.8650   43.9990 N   0  0  0  0  0  0  0  0  0  0  0  0
   45.9430   33.7270   45.2160 C   0  0  0  0  0  0  0  0  0  0  0  0
   45.0090   34.5990   45.6120 N   0  0  0  0  0  0  0  0  0  0  0  0
   43.8720   36.3790   45.0530 H   0  0  0  0  0  0  0  0  0  0  0  0
   44.9280   36.5980   42.8730 H   0  0  0  0  0  0  0  0  0  0  0  0
   46.3480   32.6270   46.0870 C   0  0  0  0  0  0  0  0  0  0  0  0
   46.0760   31.3320   45.7190 C   0  0  0  0  0  3  0  0  0  0  0  0
   46.4880   30.3560   46.5910 C   0  0  0  0  0  0  0  0  0  0  0  0
   46.3350   29.2910   46.4210 H   0  0  0  0  0  0  0  0  0  0  0  0
   47.1200   30.5940   47.7420 N   0  0  0  0  0  0  0  0  0  0  0  0
   47.3760   31.8910   48.0800 C   0  0  0  0  0  3  0  0  0  0  0  0
   46.9830   32.8720   47.2430 N   0  0  0  0  0  0  0  0  0  0  0  0
   46.7440   35.0530   41.8910 O   0  0  0  0  0  0  0  0  0  0  0  0
   48.5260   33.2910   41.0460 O   0  0  0  0  0  0  0  0  0  0  0  0
   48.4000   34.6730   41.6590 P   0  0  0  0  0  0  0  0  0  0  0  0
   49.0750   35.8550   40.6850 O   0  0  0  0  0  0  0  0  0  0  0  0
   49.9710   35.5390   40.3810 H   0  0  0  0  0  0  0  0  0  0  0  0
   49.1280   34.6330   43.2010 O   0  0  0  0  0  0  0  0  0  0  0  0
   48.9960   35.5570   43.5720 H   0  0  0  0  0  0  0  0  0  0  0  0
  1  7  1  0  0  0  0
  1  6  1  0  0  0  0
  2  1  2  0  0  0  0
  3  2  1  0  0  0  0
  3  4  2  0  0  0  0
  4  5  1  0  0  0  0
  5  6  2  0  0  0  0
  5  9  1  0  0  0  0
  8  2  1  0  0  0  0
  9 15  1  0  0  0  0
 10  9  2  0  0  0  0
 10 11  1  0  0  0  0
 11 13  2  0  0  0  0
 12 11  1  0  0  0  0
 13 14  1  0  0  0  0
 15 14  2  0  0  0  0
 16  3  1  0  0  0  0
 17 18  2  0  0  0  0
 18 16  1  0  0  0  0
 18 21  1  0  0  0  0
 19 18  1  0  0  0  0
 20 19  1  0  0  0  0
 21 22  1  0  0  0  0
M  END
>  <minimizedAffinity>
-5.41016531

>  <minimizedRMSD>
0.61677897

$$$$
