
 OpenBabel03242510093D

 26 28  0  0  0  0  0  0  0  0999 V2000
   44.7520   33.0060   41.1640 Br  0  0  0  0  0  0  0  0  0  0  0  0
   46.4130   33.9470   40.9100 C   0  0  0  0  0  0  0  0  0  0  0  0
   46.8890   34.7480   41.9160 C   0  0  0  0  0  0  0  0  0  0  0  0
   48.0980   35.4390   41.7470 C   0  0  0  0  0  0  0  0  0  0  0  0
   48.7760   35.2950   40.5710 C   0  0  0  0  0  0  0  0  0  0  0  0
   48.2550   34.4830   39.6010 C   0  0  0  0  0  0  0  0  0  0  0  0
   47.0970   33.8040   39.7290 C   0  0  0  0  0  0  0  0  0  0  0  0
   48.4300   36.0660   42.5850 H   0  0  0  0  0  0  0  0  0  0  0  0
   49.7100   35.8260   40.4310 H   0  0  0  0  0  0  0  0  0  0  0  0
   48.8230   34.3980   38.6880 H   0  0  0  0  0  0  0  0  0  0  0  0
   45.6360   34.0470   45.2700 C   0  0  0  0  0  0  0  0  0  0  0  0
   44.7120   35.0850   45.5080 C   0  0  0  0  0  0  0  0  0  0  0  0
   44.5350   36.0270   44.4820 C   0  0  0  0  0  0  0  0  0  0  0  0
   45.2550   35.8830   43.3430 N   0  0  0  0  0  0  0  0  0  0  0  0
   46.1370   34.8710   43.1480 C   0  0  0  0  0  0  0  0  0  0  0  0
   46.3200   33.9510   44.1290 N   0  0  0  0  0  0  0  0  0  0  0  0
   45.7910   33.3160   46.0340 H   0  0  0  0  0  0  0  0  0  0  0  0
   44.1820   35.1210   46.4470 H   0  0  0  0  0  0  0  0  0  0  0  0
   43.8340   36.8300   44.6390 H   0  0  0  0  0  0  0  0  0  0  0  0
   46.5210   32.9320   38.7090 C   0  0  0  0  0  0  0  0  0  0  0  0
   45.7610   33.3990   37.6580 C   0  0  0  0  0  3  0  0  0  0  0  0
   45.2340   32.5490   36.7160 C   0  0  0  0  0  0  0  0  0  0  0  0
   44.6410   32.9030   35.8920 H   0  0  0  0  0  0  0  0  0  0  0  0
   45.4300   31.2390   36.7740 N   0  0  0  0  0  0  0  0  0  0  0  0
   46.1730   30.7630   37.7990 C   0  0  0  0  0  3  0  0  0  0  0  0
   46.6920   31.5930   38.7260 N   0  0  0  0  0  0  0  0  0  0  0  0
  2  1  1  0  0  0  0
  2  3  1  0  0  0  0
  3 15  1  0  0  0  0
  4  3  2  0  0  0  0
  4  8  1  0  0  0  0
  5  4  1  0  0  0  0
  6  7  1  0  0  0  0
  6  5  2  0  0  0  0
  7  2  2  0  0  0  0
  9  5  1  0  0  0  0
 10  6  1  0  0  0  0
 11 12  1  0  0  0  0
 11 17  1  0  0  0  0
 12 18  1  0  0  0  0
 13 19  1  0  0  0  0
 13 12  2  0  0  0  0
 14 13  1  0  0  0  0
 15 14  2  0  0  0  0
 15 16  1  0  0  0  0
 16 11  2  0  0  0  0
 20 26  1  0  0  0  0
 20  7  1  0  0  0  0
 21 20  2  0  0  0  0
 22 24  2  0  0  0  0
 22 21  1  0  0  0  0
 23 22  1  0  0  0  0
 24 25  1  0  0  0  0
 25 26  2  0  0  0  0
M  END
>  <minimizedAffinity>
-5.36369848

>  <minimizedRMSD>
0.281026721

$$$$
