
 OpenBabel03242523473D

 17 18  0  0  0  0  0  0  0  0999 V2000
   45.1680   35.6790   43.3830 C   0  0  0  0  0  0  0  0  0  0  0  0
   46.3620   35.1740   42.8370 C   0  0  0  0  0  0  0  0  0  0  0  0
   47.0220   34.1670   43.5510 C   0  0  0  0  0  0  0  0  0  0  0  0
   46.4900   33.7350   44.7110 N   0  0  0  0  0  0  0  0  0  0  0  0
   45.3450   34.2410   45.2030 C   0  0  0  0  0  0  0  0  0  0  0  0
   44.6900   35.2000   44.5500 N   0  0  0  0  0  0  0  0  0  0  0  0
   46.7570   35.5480   41.9020 H   0  0  0  0  0  0  0  0  0  0  0  0
   44.8960   33.9050   46.1420 H   0  0  0  0  0  0  0  0  0  0  0  0
   48.2580   33.6130   43.0300 C   0  0  0  0  0  0  0  0  0  0  0  0
   49.3260   34.4590   42.8150 C   0  0  0  0  0  0  0  0  0  0  0  0
   50.4840   33.8810   42.3160 C   0  0  0  0  0  0  0  0  0  0  0  0
   51.4050   34.4180   42.0960 H   0  0  0  0  0  0  0  0  0  0  0  0
   50.5340   32.5530   42.0650 N   0  0  0  0  0  0  0  0  0  0  0  0
   49.4680   31.7550   42.2870 C   0  0  0  0  0  0  0  0  0  0  0  0
   48.3130   32.2890   42.7770 N   0  0  0  0  0  0  0  0  0  0  0  0
   44.5240   36.6590   42.6870 O   0  0  0  0  0  0  0  0  0  0  0  0
   44.4810   37.6230   42.9400 H   0  0  0  0  0  0  0  0  0  0  0  0
  1  6  1  0  0  0  0
  2  1  2  0  0  0  0
  2  3  1  0  0  0  0
  3  4  2  0  0  0  0
  4  5  1  0  0  0  0
  5  8  1  0  0  0  0
  6  5  2  0  0  0  0
  7  2  1  0  0  0  0
  9  3  1  0  0  0  0
 10  9  1  0  0  0  0
 11 10  2  0  0  0  0
 12 11  1  0  0  0  0
 13 14  2  0  0  0  0
 13 11  1  0  0  0  0
 14 15  1  0  0  0  0
 15  9  2  0  0  0  0
 16 17  1  0  0  0  0
 16  1  1  0  0  0  0
M  END
>  <minimizedAffinity>
-4.31132221

>  <minimizedRMSD>
0.874722421

$$$$
