
 OpenBabel03252507083D

 22 23  0  0  0  0  0  0  0  0999 V2000
   44.6450   35.6830   44.7780 C   0  0  0  0  0  0  0  0  0  0  0  0
   45.2390   35.8360   43.5120 C   0  0  0  0  0  0  0  0  0  0  0  0
   46.1730   34.8690   43.1210 C   0  0  0  0  0  0  0  0  0  0  0  0
   46.4610   33.8470   43.9650 N   0  0  0  0  0  0  0  0  0  0  0  0
   45.8730   33.7260   45.1780 C   0  0  0  0  0  0  0  0  0  0  0  0
   44.9760   34.6370   45.5760 N   0  0  0  0  0  0  0  0  0  0  0  0
   43.9240   36.4700   45.0240 H   0  0  0  0  0  0  0  0  0  0  0  0
   45.0000   36.6560   42.8500 H   0  0  0  0  0  0  0  0  0  0  0  0
   46.2230   32.6040   46.0430 C   0  0  0  0  0  0  0  0  0  0  0  0
   46.8660   32.8350   47.2350 C   0  0  0  0  0  3  0  0  0  0  0  0
   47.1600   31.7280   47.9900 C   0  0  0  0  0  0  0  0  0  0  0  0
   47.6660   31.7710   48.9530 H   0  0  0  0  0  0  0  0  0  0  0  0
   46.8610   30.4760   47.6350 N   0  0  0  0  0  0  0  0  0  0  0  0
   46.2220   30.2770   46.4460 C   0  0  0  0  0  3  0  0  0  0  0  0
   45.9210   31.3470   45.6830 N   0  0  0  0  0  0  0  0  0  0  0  0
   46.7500   35.0380   41.8660 O   0  0  0  0  0  0  0  0  0  0  0  0
   48.5690   33.3180   41.0140 O   0  0  0  0  0  0  0  0  0  0  0  0
   48.4150   34.6800   41.6650 P   0  0  0  0  0  0  0  0  0  0  0  0
   49.1020   35.8970   40.7450 O   0  0  0  0  0  0  0  0  0  0  0  0
   50.0090   35.5980   40.4540 H   0  0  0  0  0  0  0  0  0  0  0  0
   49.1050   34.5990   43.2230 O   0  0  0  0  0  0  0  0  0  0  0  0
   48.9540   35.5110   43.6180 H   0  0  0  0  0  0  0  0  0  0  0  0
  1  7  1  0  0  0  0
  1  6  1  0  0  0  0
  2  1  2  0  0  0  0
  3  2  1  0  0  0  0
  3  4  2  0  0  0  0
  4  5  1  0  0  0  0
  5  6  2  0  0  0  0
  5  9  1  0  0  0  0
  8  2  1  0  0  0  0
  9 10  1  0  0  0  0
 10 11  2  0  0  0  0
 11 12  1  0  0  0  0
 13 11  1  0  0  0  0
 14 13  2  0  0  0  0
 15  9  2  0  0  0  0
 15 14  1  0  0  0  0
 16  3  1  0  0  0  0
 17 18  2  0  0  0  0
 18 16  1  0  0  0  0
 18 21  1  0  0  0  0
 19 18  1  0  0  0  0
 20 19  1  0  0  0  0
 21 22  1  0  0  0  0
M  END
>  <minimizedAffinity>
-5.40132427

>  <minimizedRMSD>
0.568175316

$$$$
