
 OpenBabel03252508323D

 30 32  0  0  1  0  0  0  0  0999 V2000
   44.3330   34.4620   41.8980 N   0  0  0  0  0  0  0  0  0  0  0  0
   44.7390   33.5210   40.9200 C   0  0  1  0  0  0  0  0  0  0  0  0
   44.1810   33.7060   39.5630 C   0  0  0  0  0  0  0  0  0  0  0  0
   42.9100   34.2820   39.4410 N   0  0  0  0  0  0  0  0  0  0  0  0
   42.4500   35.1100   40.4720 C   0  0  0  0  0  0  0  0  0  0  0  0
   43.5810   35.5570   41.3700 C   0  0  0  0  0  0  0  0  0  0  0  0
   44.4660   32.4990   41.2890 H   0  0  0  0  0  0  0  0  0  0  0  0
   44.9030   34.3330   38.9550 H   0  0  0  0  0  0  0  0  0  0  0  0
   44.1960   32.7200   39.0260 H   0  0  0  0  0  0  0  0  0  0  0  0
   42.8210   34.7580   38.5140 H   0  0  0  0  0  0  0  0  0  0  0  0
   41.6760   34.5500   41.0550 H   0  0  0  0  0  0  0  0  0  0  0  0
   41.9460   36.0360   40.0930 H   0  0  0  0  0  0  0  0  0  0  0  0
   43.2400   36.3130   42.0800 H   0  0  0  0  0  0  0  0  0  0  0  0
   44.2670   36.1290   40.6680 H   0  0  0  0  0  0  0  0  0  0  0  0
   44.4860   35.3360   44.1110 C   0  0  0  0  0  0  0  0  0  0  0  0
   44.6970   34.2720   43.2390 C   0  0  0  0  0  0  0  0  0  0  0  0
   45.2760   33.1050   43.7550 C   0  0  0  0  0  0  0  0  0  0  0  0
   45.6170   33.0290   45.0700 N   0  0  0  0  0  0  0  0  0  0  0  0
   45.3930   34.0940   45.8920 C   0  0  0  0  0  0  0  0  0  0  0  0
   44.8370   35.2260   45.4190 N   0  0  0  0  0  0  0  0  0  0  0  0
   44.0590   36.3050   43.9200 H   0  0  0  0  0  0  0  0  0  0  0  0
   45.4400   32.2820   43.1100 H   0  0  0  0  0  0  0  0  0  0  0  0
   45.6900   33.9680   46.9340 H   0  0  0  0  0  0  0  0  0  0  0  0
   46.2410   33.4940   40.7500 C   0  0  0  0  0  0  0  0  0  0  0  0
   47.1760   34.5060   40.7920 C   0  0  0  0  0  3  0  0  0  0  0  0
   48.4940   34.1820   40.5980 C   0  0  0  0  0  0  0  0  0  0  0  0
   49.1600   35.0370   40.6490 H   0  0  0  0  0  0  0  0  0  0  0  0
   48.8580   32.9060   40.3710 N   0  0  0  0  0  0  0  0  0  0  0  0
   47.9480   31.9420   40.3310 C   0  0  0  0  0  3  0  0  0  0  0  0
   46.6340   32.2090   40.5180 N   0  0  0  0  0  0  0  0  0  0  0  0
  1 16  1  0  0  0  0
  2  7  1  1  0  0  0
  2  1  1  0  0  0  0
  3  2  1  0  0  0  0
  4  3  1  0  0  0  0
  4  5  1  0  0  0  0
  5 11  1  0  0  0  0
  5  6  1  0  0  0  0
  6  1  1  0  0  0  0
  6 13  1  0  0  0  0
  8  3  1  0  0  0  0
  9  3  1  0  0  0  0
 10  4  1  0  0  0  0
 12  5  1  0  0  0  0
 14  6  1  0  0  0  0
 15 20  1  0  0  0  0
 16 17  1  0  0  0  0
 16 15  2  0  0  0  0
 17 18  2  0  0  0  0
 18 19  1  0  0  0  0
 19 23  1  0  0  0  0
 20 19  2  0  0  0  0
 21 15  1  0  0  0  0
 22 17  1  0  0  0  0
 24 25  1  0  0  0  0
 24  2  1  0  0  0  0
 26 27  1  0  0  0  0
 26 25  2  0  0  0  0
 28 26  1  0  0  0  0
 29 28  2  0  0  0  0
 29 30  1  0  0  0  0
 30 24  2  0  0  0  0
M  END
>  <minimizedAffinity>
-4.3137722

>  <minimizedRMSD>
0.563248396

$$$$
