
 OpenBabel03252500533D

 22 23  0  0  0  0  0  0  0  0999 V2000
   47.3510   31.7030   44.5050 C   0  0  0  0  0  0  0  0  0  0  0  0
   47.1180   33.0100   44.1510 C   0  0  0  0  0  0  0  0  0  0  0  0
   46.2970   33.7600   45.0330 C   0  0  0  0  0  0  0  0  0  0  0  0
   45.8010   33.1620   46.1350 N   0  0  0  0  0  0  0  0  0  0  0  0
   46.0500   31.8820   46.4390 C   0  0  0  0  0  0  0  0  0  0  0  0
   46.8190   31.1850   45.6170 N   0  0  0  0  0  0  0  0  0  0  0  0
   46.0190   34.8040   44.9020 H   0  0  0  0  0  0  0  0  0  0  0  0
   45.6560   31.3980   47.3180 H   0  0  0  0  0  0  0  0  0  0  0  0
   47.5880   33.7720   43.0260 C   0  0  0  0  0  0  0  0  0  0  0  0
   48.7090   34.5310   42.8400 C   0  0  0  0  0  0  0  0  0  0  0  0
   49.0860   35.1750   41.6940 C   0  0  0  0  0  0  0  0  0  0  0  0
   49.9930   35.7580   41.6280 H   0  0  0  0  0  0  0  0  0  0  0  0
   48.2990   35.0720   40.6170 N   0  0  0  0  0  0  0  0  0  0  0  0
   47.1810   34.3370   40.7400 C   0  0  0  0  0  0  0  0  0  0  0  0
   46.8650   33.7300   41.8920 N   0  0  0  0  0  0  0  0  0  0  0  0
   48.2380   30.8520   43.7050 C   0  0  0  0  0  0  0  0  0  0  0  0
   47.6470   30.3710   42.8820 H   0  0  0  0  0  0  0  0  0  0  0  0
   49.0800   31.3700   43.2320 H   0  0  0  0  0  0  0  0  0  0  0  0
   48.7620   29.7280   44.5610 C   0  0  0  0  0  0  0  0  0  0  0  0
   48.4470   29.7850   45.6240 H   0  0  0  0  0  0  0  0  0  0  0  0
   49.8410   29.5380   44.4460 H   0  0  0  0  0  0  0  0  0  0  0  0
   48.2710   28.7740   44.2000 H   0  0  0  0  0  0  0  0  0  0  0  0
  1  6  1  0  0  0  0
  2  1  2  0  0  0  0
  2  3  1  0  0  0  0
  3  4  2  0  0  0  0
  4  5  1  0  0  0  0
  5  8  1  0  0  0  0
  6  5  2  0  0  0  0
  7  3  1  0  0  0  0
  9  2  1  0  0  0  0
 10  9  1  0  0  0  0
 11 10  2  0  0  0  0
 12 11  1  0  0  0  0
 13 14  2  0  0  0  0
 13 11  1  0  0  0  0
 14 15  1  0  0  0  0
 15  9  2  0  0  0  0
 16  1  1  0  0  0  0
 16 19  1  0  0  0  0
 17 16  1  0  0  0  0
 18 16  1  0  0  0  0
 19 20  1  0  0  0  0
 21 19  1  0  0  0  0
 22 19  1  0  0  0  0
M  END
>  <minimizedAffinity>
-3.45517612

>  <minimizedRMSD>
3.0573225

$$$$
