
     RDKit          3D

 25 26  0  0  0  0  0  0  0  0999 V2000
   44.6922   35.5186   43.6009 C   0  0  0  0  0  0  0  0  0  0  0  0
   43.9436   35.4338   42.4110 C   0  0  0  0  0  0  0  0  0  0  0  0
   43.7787   34.1651   41.8258 C   0  0  0  0  0  0  0  0  0  0  0  0
   44.3501   33.0986   42.4416 N   0  0  0  0  0  0  0  0  0  0  0  0
   45.0715   33.2168   43.5975 C   0  0  0  0  0  0  0  0  0  0  0  0
   45.2266   34.4376   44.1550 N   0  0  0  0  0  0  0  0  0  0  0  0
   44.8594   36.8330   44.2039 C   0  0  0  0  0  0  0  0  0  0  0  0
   45.2337   37.8486   43.4560 C   0  0  0  0  0  0  0  0  0  0  0  0
   45.4251   39.2139   43.9942 C   0  0  0  0  0  0  0  0  0  0  0  0
   43.5075   36.3193   41.9596 H   0  0  0  0  0  0  0  0  0  0  0  0
   43.2146   34.0528   40.9168 H   0  0  0  0  0  0  0  0  0  0  0  0
   44.6787   36.9800   45.2593 H   0  0  0  0  0  0  0  0  0  0  0  0
   45.3925   37.6214   42.4219 H   0  0  0  0  0  0  0  0  0  0  0  0
   45.5996   39.2083   45.0768 H   0  0  0  0  0  0  0  0  0  0  0  0
   44.5067   39.7870   43.8171 H   0  0  0  0  0  0  0  0  0  0  0  0
   46.3241   39.6950   43.5352 H   0  0  0  0  0  0  0  0  0  0  0  0
   45.6762   32.0557   44.2405 C   0  0  0  0  0  0  0  0  0  0  0  0
   46.9675   31.6957   43.8818 C   0  0  0  0  0  0  0  0  0  0  0  0
   47.5466   30.5892   44.4930 C   0  0  0  0  0  0  0  0  0  0  0  0
   48.5539   30.2978   44.2220 H   0  0  0  0  0  0  0  0  0  0  0  0
   46.8010   29.9423   45.3984 N   0  0  0  0  0  0  0  0  0  0  0  0
   45.5643   30.2624   45.7619 C   0  0  0  0  0  0  0  0  0  0  0  0
   44.9855   31.3458   45.1695 N   0  0  0  0  0  0  0  0  0  0  0  0
   47.5490   32.2351   43.1472 H   0  0  0  0  0  0  0  0  0  0  0  0
   44.9979   29.7108   46.4990 H   0  0  0  0  0  0  0  0  0  0  0  0
  1  6  2  0
  1  7  1  0
  2  1  1  0
  3  2  2  0
  3  4  1  0
  4  5  2  0
  5  6  1  0
  8  9  1  0
  8  7  2  0
  2 10  1  0
  3 11  1  0
  7 12  1  0
  8 13  1  0
  9 14  1  0
  9 15  1  0
  9 16  1  0
 17 18  2  0
 18 19  1  0
 19 20  1  0
 19 21  2  0
 21 22  1  0
 22 23  2  0
 23 17  1  0
 18 24  1  0
 22 25  1  0
  5 17  1  0
M  ISO  6  10  14  11  14  14   8  15   8  16   8  20  14
M  END
>  <DihAtoms>  (1) 
3,4,16,17

>  <DihDeg>  (1) 
0.00046203348298845754

$$$$
