
 OpenBabel03252506283D

 45 49  0  0  0  0  0  0  0  0999 V2000
   47.2690   30.3620   47.8580 C   0  0  0  0  0  0  0  0  0  0  0  0
   47.8280   29.4280   47.9510 H   0  0  0  0  0  0  0  0  0  0  0  0
   47.7060   31.1450   48.5390 H   0  0  0  0  0  0  0  0  0  0  0  0
   46.9670   32.1340   44.7670 C   0  0  0  0  0  0  0  0  0  0  0  0
   47.7320   31.0230   44.3820 C   0  0  0  0  0  0  0  0  0  0  0  0
   47.9310   30.2470   45.4700 C   0  0  0  0  0  0  0  0  0  0  0  0
   47.3110   30.8540   46.4920 N   0  0  0  0  0  0  0  0  0  0  0  0
   46.7310   31.9830   46.0880 N   0  0  0  0  0  0  0  0  0  0  0  0
   48.0850   30.8460   43.3910 H   0  0  0  0  0  0  0  0  0  0  0  0
   48.4810   29.3130   45.5220 H   0  0  0  0  0  0  0  0  0  0  0  0
   45.4780   35.2590   43.5680 C   0  0  0  0  0  0  0  0  0  0  0  0
   45.7390   35.2270   42.1960 C   0  0  0  0  0  0  0  0  0  0  0  0
   46.4300   34.1200   41.7120 C   0  0  0  0  0  0  0  0  0  0  0  0
   46.7940   33.1670   42.5820 N   0  0  0  0  0  0  0  0  0  0  0  0
   46.5450   33.1990   43.8820 C   0  0  0  0  0  0  0  0  0  0  0  0
   45.8800   34.2590   44.3690 N   0  0  0  0  0  0  0  0  0  0  0  0
   44.9400   36.1170   43.9580 H   0  0  0  0  0  0  0  0  0  0  0  0
   45.4460   35.9880   41.5170 H   0  0  0  0  0  0  0  0  0  0  0  0
   46.7820   33.9320   40.3080 C   0  0  0  0  0  0  0  0  0  0  0  0
   47.9430   34.4190   39.7440 C   0  0  0  0  0  0  0  0  0  0  0  0
   48.2860   34.2490   38.4190 C   0  0  0  0  0  0  0  0  0  0  0  0
   49.2050   34.6430   38.0040 H   0  0  0  0  0  0  0  0  0  0  0  0
   47.4530   33.5680   37.6070 N   0  0  0  0  0  0  0  0  0  0  0  0
   46.3020   33.0840   38.1600 C   0  0  0  0  0  0  0  0  0  0  0  0
   45.9750   33.2540   39.4530 N   0  0  0  0  0  0  0  0  0  0  0  0
   45.8630   30.1680   48.2960 C   0  0  0  0  0  0  0  0  0  0  0  0
   45.3200   31.1220   48.1310 H   0  0  0  0  0  0  0  0  0  0  0  0
   45.8770   30.0470   49.4170 H   0  0  0  0  0  0  0  0  0  0  0  0
   45.0950   27.7290   48.1890 C   0  0  0  0  0  0  0  0  0  0  0  0
   45.1430   29.0350   47.7460 C   0  0  0  0  0  0  0  0  0  0  0  0
   44.4070   29.3260   46.6120 C   0  0  0  0  0  0  0  0  0  0  0  0
   43.6630   28.3630   45.9610 C   0  0  0  0  0  0  0  0  0  0  0  0
   42.8700   28.3480   44.8720 N   0  0  0  0  0  0  0  0  0  0  0  0
   42.3640   27.1320   44.6470 C   0  0  0  0  0  0  0  0  0  0  0  0
   42.8360   26.2660   45.6380 C   0  0  0  0  0  0  0  0  0  0  0  0
   43.6200   27.0700   46.4080 C   0  0  0  0  0  0  0  0  0  0  0  0
   44.3560   26.7760   47.5400 C   0  0  0  0  0  0  0  0  0  0  0  0
   45.6920   27.5450   49.0860 H   0  0  0  0  0  0  0  0  0  0  0  0
   44.3450   30.3090   46.1430 H   0  0  0  0  0  0  0  0  0  0  0  0
   42.6710   29.1890   44.2670 H   0  0  0  0  0  0  0  0  0  0  0  0
   41.6960   26.8700   43.8270 H   0  0  0  0  0  0  0  0  0  0  0  0
   42.5940   25.2130   45.7150 H   0  0  0  0  0  0  0  0  0  0  0  0
   44.3570   25.4160   48.0730 C   0  0  0  0  0  0  0  0  0  0  0  0
   45.0150   25.1070   49.1010 O   0  0  0  0  0  0  0  0  0  0  0  0
   43.7840   24.6150   47.5950 H   0  0  0  0  0  0  0  0  0  0  0  0
  1  2  1  0  0  0  0
  1 26  1  0  0  0  0
  1  3  1  0  0  0  0
  4  8  2  0  0  0  0
  5  4  1  0  0  0  0
  5  6  2  0  0  0  0
  6 10  1  0  0  0  0
  6  7  1  0  0  0  0
  7  1  1  0  0  0  0
  8  7  1  0  0  0  0
  9  5  1  0  0  0  0
 11 17  1  0  0  0  0
 11 16  1  0  0  0  0
 12 11  2  0  0  0  0
 13 12  1  0  0  0  0
 13 14  2  0  0  0  0
 14 15  1  0  0  0  0
 15 16  2  0  0  0  0
 15  4  1  0  0  0  0
 18 12  1  0  0  0  0
 19 13  1  0  0  0  0
 20 19  1  0  0  0  0
 21 20  2  0  0  0  0
 22 21  1  0  0  0  0
 23 24  2  0  0  0  0
 23 21  1  0  0  0  0
 24 25  1  0  0  0  0
 25 19  2  0  0  0  0
 26 28  1  0  0  0  0
 27 26  1  0  0  0  0
 29 38  1  0  0  0  0
 30 29  1  0  0  0  0
 30 26  1  0  0  0  0
 31 30  2  0  0  0  0
 32 36  2  0  0  0  0
 32 31  1  0  0  0  0
 33 32  1  0  0  0  0
 34 33  1  0  0  0  0
 34 35  2  0  0  0  0
 35 42  1  0  0  0  0
 35 36  1  0  0  0  0
 36 37  1  0  0  0  0
 37 43  1  0  0  0  0
 37 29  2  0  0  0  0
 39 31  1  0  0  0  0
 40 33  1  0  0  0  0
 41 34  1  0  0  0  0
 43 44  2  0  0  0  0
 45 43  1  0  0  0  0
M  END
>  <minimizedAffinity>
-5.51095247

>  <minimizedRMSD>
1.4383142

$$$$
