
 OpenBabel03242510093D

 26 28  0  0  0  0  0  0  0  0999 V2000
   44.7510   33.0070   41.1640 Br  0  0  0  0  0  0  0  0  0  0  0  0
   46.4120   33.9470   40.9100 C   0  0  0  0  0  0  0  0  0  0  0  0
   46.8890   34.7480   41.9160 C   0  0  0  0  0  0  0  0  0  0  0  0
   48.0980   35.4390   41.7480 C   0  0  0  0  0  0  0  0  0  0  0  0
   48.7760   35.2950   40.5720 C   0  0  0  0  0  0  0  0  0  0  0  0
   48.2550   34.4820   39.6020 C   0  0  0  0  0  0  0  0  0  0  0  0
   47.0970   33.8040   39.7300 C   0  0  0  0  0  0  0  0  0  0  0  0
   48.4300   36.0650   42.5860 H   0  0  0  0  0  0  0  0  0  0  0  0
   49.7100   35.8250   40.4310 H   0  0  0  0  0  0  0  0  0  0  0  0
   48.8230   34.3970   38.6880 H   0  0  0  0  0  0  0  0  0  0  0  0
   45.6360   34.0480   45.2700 C   0  0  0  0  0  0  0  0  0  0  0  0
   44.7110   35.0850   45.5080 C   0  0  0  0  0  0  0  0  0  0  0  0
   44.5340   36.0270   44.4820 C   0  0  0  0  0  0  0  0  0  0  0  0
   45.2540   35.8830   43.3430 N   0  0  0  0  0  0  0  0  0  0  0  0
   46.1370   34.8710   43.1480 C   0  0  0  0  0  0  0  0  0  0  0  0
   46.3200   33.9510   44.1290 N   0  0  0  0  0  0  0  0  0  0  0  0
   45.7910   33.3160   46.0350 H   0  0  0  0  0  0  0  0  0  0  0  0
   44.1820   35.1210   46.4470 H   0  0  0  0  0  0  0  0  0  0  0  0
   43.8330   36.8300   44.6380 H   0  0  0  0  0  0  0  0  0  0  0  0
   46.5200   32.9320   38.7100 C   0  0  0  0  0  0  0  0  0  0  0  0
   45.7610   33.4000   37.6570 C   0  0  0  0  0  3  0  0  0  0  0  0
   45.2350   32.5500   36.7160 C   0  0  0  0  0  0  0  0  0  0  0  0
   44.6410   32.9050   35.8910 H   0  0  0  0  0  0  0  0  0  0  0  0
   45.4290   31.2400   36.7740 N   0  0  0  0  0  0  0  0  0  0  0  0
   46.1710   30.7640   37.8000 C   0  0  0  0  0  3  0  0  0  0  0  0
   46.6910   31.5930   38.7260 N   0  0  0  0  0  0  0  0  0  0  0  0
  2  1  1  0  0  0  0
  2  3  1  0  0  0  0
  3 15  1  0  0  0  0
  4  3  2  0  0  0  0
  4  8  1  0  0  0  0
  5  4  1  0  0  0  0
  6  7  1  0  0  0  0
  6  5  2  0  0  0  0
  7  2  2  0  0  0  0
  9  5  1  0  0  0  0
 10  6  1  0  0  0  0
 11 12  1  0  0  0  0
 11 17  1  0  0  0  0
 12 18  1  0  0  0  0
 13 19  1  0  0  0  0
 13 12  2  0  0  0  0
 14 13  1  0  0  0  0
 15 14  2  0  0  0  0
 15 16  1  0  0  0  0
 16 11  2  0  0  0  0
 20 26  1  0  0  0  0
 20  7  1  0  0  0  0
 21 20  2  0  0  0  0
 22 24  2  0  0  0  0
 22 21  1  0  0  0  0
 23 22  1  0  0  0  0
 24 25  1  0  0  0  0
 25 26  2  0  0  0  0
M  END
>  <minimizedAffinity>
-5.36373854

>  <minimizedRMSD>
0.608855307

$$$$
