
 OpenBabel03252500533D

 22 23  0  0  0  0  0  0  0  0999 V2000
   36.7130   28.5980   41.1790 C   0  0  0  0  0  0  0  0  0  0  0  0
   37.5360   29.6380   41.5430 C   0  0  0  0  0  0  0  0  0  0  0  0
   38.1360   29.5400   42.8250 C   0  0  0  0  0  0  0  0  0  0  0  0
   37.8690   28.4650   43.5940 N   0  0  0  0  0  0  0  0  0  0  0  0
   37.0560   27.4760   43.2010 C   0  0  0  0  0  0  0  0  0  0  0  0
   36.4990   27.5670   42.0030 N   0  0  0  0  0  0  0  0  0  0  0  0
   38.8140   30.2710   43.2620 H   0  0  0  0  0  0  0  0  0  0  0  0
   36.8370   26.6150   43.8120 H   0  0  0  0  0  0  0  0  0  0  0  0
   37.9150   30.8250   40.8270 C   0  0  0  0  0  0  0  0  0  0  0  0
   37.2250   31.9620   40.5120 C   0  0  0  0  0  3  0  0  0  0  0  0
   37.7100   33.0660   39.8660 C   0  0  0  0  0  0  0  0  0  0  0  0
   37.0970   33.9290   39.6540 H   0  0  0  0  0  0  0  0  0  0  0  0
   38.9930   33.0710   39.4890 N   0  0  0  0  0  0  0  0  0  0  0  0
   39.7230   31.9790   39.7730 C   0  0  0  0  0  3  0  0  0  0  0  0
   39.1900   30.9270   40.4080 N   0  0  0  0  0  0  0  0  0  0  0  0
   36.0910   28.5590   39.8510 C   0  0  0  0  0  0  0  0  0  0  0  0
   36.6800   29.2040   39.1480 H   0  0  0  0  0  0  0  0  0  0  0  0
   36.0260   27.5650   39.3950 H   0  0  0  0  0  0  0  0  0  0  0  0
   34.7130   29.1650   39.9240 C   0  0  0  0  0  0  0  0  0  0  0  0
   34.4020   29.4570   40.9490 H   0  0  0  0  0  0  0  0  0  0  0  0
   33.9380   28.5900   39.3920 H   0  0  0  0  0  0  0  0  0  0  0  0
   34.7510   30.1550   39.3770 H   0  0  0  0  0  0  0  0  0  0  0  0
  1  2  2  0  0  0  0
  1  6  1  0  0  0  0
  2  3  1  0  0  0  0
  3  7  1  0  0  0  0
  3  4  2  0  0  0  0
  5  4  1  0  0  0  0
  5  8  1  0  0  0  0
  6  5  2  0  0  0  0
  9  2  1  0  0  0  0
 10  9  1  0  0  0  0
 11 10  2  0  0  0  0
 12 11  1  0  0  0  0
 13 14  2  0  0  0  0
 13 11  1  0  0  0  0
 14 15  1  0  0  0  0
 15  9  2  0  0  0  0
 16 19  1  0  0  0  0
 16  1  1  0  0  0  0
 17 16  1  0  0  0  0
 18 16  1  0  0  0  0
 19 20  1  0  0  0  0
 21 19  1  0  0  0  0
 22 19  1  0  0  0  0
M  END
>  <minimizedAffinity>
-4.03164768

$$$$

 OpenBabel03252500533D

 22 23  0  0  0  0  0  0  0  0999 V2000
   38.4910   31.7610   40.8640 C   0  0  0  0  0  0  0  0  0  0  0  0
   37.4440   31.8240   39.9740 C   0  0  0  0  0  0  0  0  0  0  0  0
   37.1560   33.1060   39.4370 C   0  0  0  0  0  0  0  0  0  0  0  0
   37.9020   34.1610   39.8230 N   0  0  0  0  0  0  0  0  0  0  0  0
   38.9110   34.0550   40.6970 C   0  0  0  0  0  0  0  0  0  0  0  0
   39.1810   32.8580   41.1950 N   0  0  0  0  0  0  0  0  0  0  0  0
   36.3670   33.3270   38.7210 H   0  0  0  0  0  0  0  0  0  0  0  0
   39.5100   34.8950   41.0100 H   0  0  0  0  0  0  0  0  0  0  0  0
   36.5830   30.7900   39.4700 C   0  0  0  0  0  0  0  0  0  0  0  0
   36.4950   30.1920   38.2430 C   0  0  0  0  0  3  0  0  0  0  0  0
   35.6640   29.1660   37.8870 C   0  0  0  0  0  0  0  0  0  0  0  0
   35.6540   28.7470   36.8920 H   0  0  0  0  0  0  0  0  0  0  0  0
   34.8350   28.6670   38.8110 N   0  0  0  0  0  0  0  0  0  0  0  0
   34.8780   29.2140   40.0370 C   0  0  0  0  0  3  0  0  0  0  0  0
   35.7150   30.2200   40.3250 N   0  0  0  0  0  0  0  0  0  0  0  0
   38.9220   30.4790   41.4310 C   0  0  0  0  0  0  0  0  0  0  0  0
   38.0390   29.9630   41.8910 H   0  0  0  0  0  0  0  0  0  0  0  0
   39.3650   29.7770   40.7150 H   0  0  0  0  0  0  0  0  0  0  0  0
   39.8960   30.7290   42.5530 C   0  0  0  0  0  0  0  0  0  0  0  0
   40.1560   31.7990   42.6960 H   0  0  0  0  0  0  0  0  0  0  0  0
   40.7820   30.0740   42.5360 H   0  0  0  0  0  0  0  0  0  0  0  0
   39.3710   30.4620   43.5190 H   0  0  0  0  0  0  0  0  0  0  0  0
  1  6  1  0  0  0  0
  1 16  1  0  0  0  0
  2  1  2  0  0  0  0
  3  4  2  0  0  0  0
  3  2  1  0  0  0  0
  4  5  1  0  0  0  0
  5  8  1  0  0  0  0
  5  6  2  0  0  0  0
  7  3  1  0  0  0  0
  9  2  1  0  0  0  0
  9 15  1  0  0  0  0
 10  9  2  0  0  0  0
 11 10  1  0  0  0  0
 11 13  2  0  0  0  0
 12 11  1  0  0  0  0
 13 14  1  0  0  0  0
 14 15  2  0  0  0  0
 16 17  1  0  0  0  0
 16 19  1  0  0  0  0
 18 16  1  0  0  0  0
 19 20  1  0  0  0  0
 19 22  1  0  0  0  0
 21 19  1  0  0  0  0
M  END
>  <minimizedAffinity>
-3.96296549

$$$$

 OpenBabel03252500533D

 22 23  0  0  0  0  0  0  0  0999 V2000
   37.0560   31.1270   40.5100 C   0  0  0  0  0  0  0  0  0  0  0  0
   38.1000   30.6770   41.2820 C   0  0  0  0  0  0  0  0  0  0  0  0
   39.1690   31.5910   41.4810 C   0  0  0  0  0  0  0  0  0  0  0  0
   39.1010   32.8120   40.9150 N   0  0  0  0  0  0  0  0  0  0  0  0
   38.0640   33.2080   40.1650 C   0  0  0  0  0  0  0  0  0  0  0  0
   37.0670   32.3560   39.9820 N   0  0  0  0  0  0  0  0  0  0  0  0
   40.0650   31.3950   42.0660 H   0  0  0  0  0  0  0  0  0  0  0  0
   38.0050   34.1820   39.7090 H   0  0  0  0  0  0  0  0  0  0  0  0
   38.2960   29.4200   41.9500 C   0  0  0  0  0  0  0  0  0  0  0  0
   37.8670   28.9540   43.1620 C   0  0  0  0  0  3  0  0  0  0  0  0
   38.0680   27.7040   43.6790 C   0  0  0  0  0  0  0  0  0  0  0  0
   37.6950   27.4110   44.6490 H   0  0  0  0  0  0  0  0  0  0  0  0
   38.7520   26.8150   42.9500 N   0  0  0  0  0  0  0  0  0  0  0  0
   39.1980   27.2170   41.7480 C   0  0  0  0  0  3  0  0  0  0  0  0
   38.9690   28.4570   41.2960 N   0  0  0  0  0  0  0  0  0  0  0  0
   35.8680   30.2950   40.2910 C   0  0  0  0  0  0  0  0  0  0  0  0
   35.8450   29.4750   41.0560 H   0  0  0  0  0  0  0  0  0  0  0  0
   34.9090   30.8220   40.3590 H   0  0  0  0  0  0  0  0  0  0  0  0
   35.9710   29.6160   38.9500 C   0  0  0  0  0  0  0  0  0  0  0  0
   36.8640   29.9140   38.3600 H   0  0  0  0  0  0  0  0  0  0  0  0
   35.0420   29.6430   38.3580 H   0  0  0  0  0  0  0  0  0  0  0  0
   36.1480   28.5160   39.1420 H   0  0  0  0  0  0  0  0  0  0  0  0
  1  2  1  0  0  0  0
  2  3  2  0  0  0  0
  2  9  1  0  0  0  0
  3  7  1  0  0  0  0
  4  3  1  0  0  0  0
  5  4  2  0  0  0  0
  6  5  1  0  0  0  0
  6  1  2  0  0  0  0
  8  5  1  0  0  0  0
  9 10  1  0  0  0  0
 10 11  2  0  0  0  0
 11 12  1  0  0  0  0
 13 11  1  0  0  0  0
 14 13  2  0  0  0  0
 15 14  1  0  0  0  0
 15  9  2  0  0  0  0
 16 18  1  0  0  0  0
 16  1  1  0  0  0  0
 16 17  1  0  0  0  0
 19 22  1  0  0  0  0
 19 16  1  0  0  0  0
 20 19  1  0  0  0  0
 21 19  1  0  0  0  0
M  END
>  <minimizedAffinity>
-3.95174241

$$$$

 OpenBabel03252500533D

 22 23  0  0  0  0  0  0  0  0999 V2000
   39.2330   31.3550   41.6780 C   0  0  0  0  0  0  0  0  0  0  0  0
   38.0850   30.6140   41.5310 C   0  0  0  0  0  0  0  0  0  0  0  0
   37.0620   31.1960   40.7370 C   0  0  0  0  0  0  0  0  0  0  0  0
   37.2670   32.4120   40.1910 N   0  0  0  0  0  0  0  0  0  0  0  0
   38.4020   33.1020   40.3640 C   0  0  0  0  0  0  0  0  0  0  0  0
   39.3560   32.5560   41.1030 N   0  0  0  0  0  0  0  0  0  0  0  0
   36.0970   30.7420   40.5180 H   0  0  0  0  0  0  0  0  0  0  0  0
   38.5710   34.0740   39.9320 H   0  0  0  0  0  0  0  0  0  0  0  0
   37.7390   29.3140   42.0390 C   0  0  0  0  0  0  0  0  0  0  0  0
   37.5410   28.8540   43.3110 C   0  0  0  0  0  3  0  0  0  0  0  0
   37.1550   27.5950   43.6790 C   0  0  0  0  0  0  0  0  0  0  0  0
   37.0190   27.3080   44.7110 H   0  0  0  0  0  0  0  0  0  0  0  0
   36.9380   26.6890   42.7180 N   0  0  0  0  0  0  0  0  0  0  0  0
   37.1160   27.0850   41.4470 C   0  0  0  0  0  3  0  0  0  0  0  0
   37.4970   28.3350   41.1500 N   0  0  0  0  0  0  0  0  0  0  0  0
   40.3810   30.8260   42.4210 C   0  0  0  0  0  0  0  0  0  0  0  0
   40.2390   31.0260   43.5150 H   0  0  0  0  0  0  0  0  0  0  0  0
   40.5510   29.7490   42.3130 H   0  0  0  0  0  0  0  0  0  0  0  0
   41.6270   31.5700   42.0150 C   0  0  0  0  0  0  0  0  0  0  0  0
   41.4670   32.3110   41.2040 H   0  0  0  0  0  0  0  0  0  0  0  0
   42.5010   30.9230   41.8340 H   0  0  0  0  0  0  0  0  0  0  0  0
   41.9350   32.2140   42.8930 H   0  0  0  0  0  0  0  0  0  0  0  0
  1 16  1  0  0  0  0
  2  1  1  0  0  0  0
  2  9  1  0  0  0  0
  3  2  2  0  0  0  0
  4  5  2  0  0  0  0
  4  3  1  0  0  0  0
  5  6  1  0  0  0  0
  6  1  2  0  0  0  0
  7  3  1  0  0  0  0
  8  5  1  0  0  0  0
  9 10  1  0  0  0  0
 10 11  2  0  0  0  0
 11 12  1  0  0  0  0
 13 11  1  0  0  0  0
 14 13  2  0  0  0  0
 15 14  1  0  0  0  0
 15  9  2  0  0  0  0
 16 17  1  0  0  0  0
 18 16  1  0  0  0  0
 19 16  1  0  0  0  0
 19 22  1  0  0  0  0
 20 19  1  0  0  0  0
 21 19  1  0  0  0  0
M  END
>  <minimizedAffinity>
-3.92554569

$$$$

 OpenBabel03252500533D

 22 23  0  0  0  0  0  0  0  0999 V2000
   37.5460   29.7040   41.7660 C   0  0  0  0  0  0  0  0  0  0  0  0
   37.6380   30.7000   40.8240 C   0  0  0  0  0  0  0  0  0  0  0  0
   36.6110   30.7310   39.8450 C   0  0  0  0  0  0  0  0  0  0  0  0
   35.6320   29.8050   39.8910 N   0  0  0  0  0  0  0  0  0  0  0  0
   35.5840   28.8480   40.8270 C   0  0  0  0  0  0  0  0  0  0  0  0
   36.5410   28.8220   41.7410 N   0  0  0  0  0  0  0  0  0  0  0  0
   36.5330   31.4540   39.0350 H   0  0  0  0  0  0  0  0  0  0  0  0
   34.8050   28.1040   40.8680 H   0  0  0  0  0  0  0  0  0  0  0  0
   38.6070   31.7500   40.6640 C   0  0  0  0  0  0  0  0  0  0  0  0
   39.9490   31.7220   40.4010 C   0  0  0  0  0  3  0  0  0  0  0  0
   40.7710   32.7980   40.2120 C   0  0  0  0  0  0  0  0  0  0  0  0
   41.8260   32.6920   40.0070 H   0  0  0  0  0  0  0  0  0  0  0  0
   40.2430   34.0250   40.2840 N   0  0  0  0  0  0  0  0  0  0  0  0
   38.9270   34.1140   40.5390 C   0  0  0  0  0  3  0  0  0  0  0  0
   38.1720   33.0220   40.7160 N   0  0  0  0  0  0  0  0  0  0  0  0
   38.5140   29.6150   42.8650 C   0  0  0  0  0  0  0  0  0  0  0  0
   39.4760   30.0970   42.5510 H   0  0  0  0  0  0  0  0  0  0  0  0
   38.2050   30.0960   43.8000 H   0  0  0  0  0  0  0  0  0  0  0  0
   38.8370   28.1670   43.1330 C   0  0  0  0  0  0  0  0  0  0  0  0
   38.2500   27.4520   42.5180 H   0  0  0  0  0  0  0  0  0  0  0  0
   38.8510   27.8980   44.2010 H   0  0  0  0  0  0  0  0  0  0  0  0
   39.8990   27.9900   42.7870 H   0  0  0  0  0  0  0  0  0  0  0  0
  1 16  1  0  0  0  0
  2  1  2  0  0  0  0
  3  4  2  0  0  0  0
  3  2  1  0  0  0  0
  4  5  1  0  0  0  0
  5  8  1  0  0  0  0
  5  6  2  0  0  0  0
  6  1  1  0  0  0  0
  7  3  1  0  0  0  0
  9 15  1  0  0  0  0
  9  2  1  0  0  0  0
 10  9  2  0  0  0  0
 11 13  2  0  0  0  0
 11 10  1  0  0  0  0
 12 11  1  0  0  0  0
 13 14  1  0  0  0  0
 14 15  2  0  0  0  0
 16 19  1  0  0  0  0
 16 18  1  0  0  0  0
 17 16  1  0  0  0  0
 19 21  1  0  0  0  0
 20 19  1  0  0  0  0
 22 19  1  0  0  0  0
M  END
>  <minimizedAffinity>
-3.91273761

$$$$

 OpenBabel03252500533D

 22 23  0  0  0  0  0  0  0  0999 V2000
   36.3780   30.1980   38.2600 C   0  0  0  0  0  0  0  0  0  0  0  0
   36.6110   30.8050   39.4710 C   0  0  0  0  0  0  0  0  0  0  0  0
   35.8610   30.3120   40.5710 C   0  0  0  0  0  0  0  0  0  0  0  0
   34.9840   29.3080   40.3700 N   0  0  0  0  0  0  0  0  0  0  0  0
   34.7860   28.7480   39.1700 C   0  0  0  0  0  0  0  0  0  0  0  0
   35.4880   29.2070   38.1450 N   0  0  0  0  0  0  0  0  0  0  0  0
   35.9280   30.6770   41.5940 H   0  0  0  0  0  0  0  0  0  0  0  0
   34.0850   27.9460   39.0020 H   0  0  0  0  0  0  0  0  0  0  0  0
   37.5150   31.8640   39.8280 C   0  0  0  0  0  0  0  0  0  0  0  0
   37.4510   33.2180   39.6510 C   0  0  0  0  0  3  0  0  0  0  0  0
   38.3540   34.1470   40.0870 C   0  0  0  0  0  0  0  0  0  0  0  0
   38.2310   35.2050   39.9060 H   0  0  0  0  0  0  0  0  0  0  0  0
   39.4280   33.7240   40.7630 N   0  0  0  0  0  0  0  0  0  0  0  0
   39.5440   32.4010   40.9690 C   0  0  0  0  0  3  0  0  0  0  0  0
   38.6250   31.5390   40.5160 N   0  0  0  0  0  0  0  0  0  0  0  0
   37.1430   30.5780   37.0670 C   0  0  0  0  0  0  0  0  0  0  0  0
   36.8090   31.5910   36.7210 H   0  0  0  0  0  0  0  0  0  0  0  0
   38.2290   30.6300   37.2060 H   0  0  0  0  0  0  0  0  0  0  0  0
   36.8280   29.6250   35.9440 C   0  0  0  0  0  0  0  0  0  0  0  0
   36.1510   28.7930   36.2330 H   0  0  0  0  0  0  0  0  0  0  0  0
   37.7120   29.2780   35.3850 H   0  0  0  0  0  0  0  0  0  0  0  0
   36.2200   30.1950   35.1790 H   0  0  0  0  0  0  0  0  0  0  0  0
  1  2  1  0  0  0  0
  2  9  1  0  0  0  0
  2  3  2  0  0  0  0
  3  7  1  0  0  0  0
  4  3  1  0  0  0  0
  5  4  2  0  0  0  0
  6  1  2  0  0  0  0
  6  5  1  0  0  0  0
  8  5  1  0  0  0  0
  9 15  1  0  0  0  0
 10  9  2  0  0  0  0
 10 11  1  0  0  0  0
 11 13  2  0  0  0  0
 12 11  1  0  0  0  0
 13 14  1  0  0  0  0
 15 14  2  0  0  0  0
 16 18  1  0  0  0  0
 16  1  1  0  0  0  0
 17 16  1  0  0  0  0
 19 20  1  0  0  0  0
 19 16  1  0  0  0  0
 21 19  1  0  0  0  0
 22 19  1  0  0  0  0
M  END
>  <minimizedAffinity>
-3.91050482

$$$$

 OpenBabel03252500533D

 22 23  0  0  0  0  0  0  0  0999 V2000
   37.3100   26.4210   42.2120 C   0  0  0  0  0  0  0  0  0  0  0  0
   37.0330   27.1770   41.0980 C   0  0  0  0  0  0  0  0  0  0  0  0
   36.6510   26.4580   39.9340 C   0  0  0  0  0  0  0  0  0  0  0  0
   36.5880   25.1120   39.9860 N   0  0  0  0  0  0  0  0  0  0  0  0
   36.8710   24.4150   41.0940 C   0  0  0  0  0  0  0  0  0  0  0  0
   37.2240   25.0870   42.1790 N   0  0  0  0  0  0  0  0  0  0  0  0
   36.3960   26.9020   38.9740 H   0  0  0  0  0  0  0  0  0  0  0  0
   36.8240   23.3400   41.1410 H   0  0  0  0  0  0  0  0  0  0  0  0
   37.0460   28.6010   40.9070 C   0  0  0  0  0  0  0  0  0  0  0  0
   36.0590   29.5440   40.9900 C   0  0  0  0  0  3  0  0  0  0  0  0
   36.1990   30.8960   40.8410 C   0  0  0  0  0  0  0  0  0  0  0  0
   35.3660   31.5770   40.9230 H   0  0  0  0  0  0  0  0  0  0  0  0
   37.4180   31.3860   40.5870 N   0  0  0  0  0  0  0  0  0  0  0  0
   38.4290   30.5070   40.4950 C   0  0  0  0  0  3  0  0  0  0  0  0
   38.2280   29.1910   40.6500 N   0  0  0  0  0  0  0  0  0  0  0  0
   37.6490   27.0580   43.4890 C   0  0  0  0  0  0  0  0  0  0  0  0
   37.3540   28.1400   43.4520 H   0  0  0  0  0  0  0  0  0  0  0  0
   37.1640   26.6250   44.3710 H   0  0  0  0  0  0  0  0  0  0  0  0
   39.1430   27.0360   43.6800 C   0  0  0  0  0  0  0  0  0  0  0  0
   39.6930   26.4960   42.8790 H   0  0  0  0  0  0  0  0  0  0  0  0
   39.4650   26.7390   44.6910 H   0  0  0  0  0  0  0  0  0  0  0  0
   39.5130   28.0990   43.5710 H   0  0  0  0  0  0  0  0  0  0  0  0
  1 16  1  0  0  0  0
  2  1  2  0  0  0  0
  3  4  2  0  0  0  0
  3  2  1  0  0  0  0
  4  5  1  0  0  0  0
  5  8  1  0  0  0  0
  5  6  2  0  0  0  0
  6  1  1  0  0  0  0
  7  3  1  0  0  0  0
  9 10  1  0  0  0  0
  9  2  1  0  0  0  0
 11 12  1  0  0  0  0
 11 10  2  0  0  0  0
 13 11  1  0  0  0  0
 14 13  2  0  0  0  0
 14 15  1  0  0  0  0
 15  9  2  0  0  0  0
 16 19  1  0  0  0  0
 16 18  1  0  0  0  0
 17 16  1  0  0  0  0
 19 21  1  0  0  0  0
 20 19  1  0  0  0  0
 22 19  1  0  0  0  0
M  END
>  <minimizedAffinity>
-3.89803457

$$$$

 OpenBabel03252500533D

 22 23  0  0  0  0  0  0  0  0999 V2000
   37.3130   29.0170   41.9890 C   0  0  0  0  0  0  0  0  0  0  0  0
   37.0710   27.8750   41.2640 C   0  0  0  0  0  0  0  0  0  0  0  0
   36.1910   28.0110   40.1590 C   0  0  0  0  0  0  0  0  0  0  0  0
   35.6520   29.2180   39.8940 N   0  0  0  0  0  0  0  0  0  0  0  0
   35.9120   30.3050   40.6310 C   0  0  0  0  0  0  0  0  0  0  0  0
   36.7360   30.1780   41.6600 N   0  0  0  0  0  0  0  0  0  0  0  0
   35.8980   27.2090   39.4830 H   0  0  0  0  0  0  0  0  0  0  0  0
   35.4840   31.2730   40.4250 H   0  0  0  0  0  0  0  0  0  0  0  0
   37.5810   26.5400   41.4240 C   0  0  0  0  0  0  0  0  0  0  0  0
   37.1060   25.4580   42.1110 C   0  0  0  0  0  3  0  0  0  0  0  0
   37.6520   24.2040   42.1480 C   0  0  0  0  0  0  0  0  0  0  0  0
   37.2140   23.3980   42.7170 H   0  0  0  0  0  0  0  0  0  0  0  0
   38.7690   23.9750   41.4490 N   0  0  0  0  0  0  0  0  0  0  0  0
   39.2820   25.0030   40.7520 C   0  0  0  0  0  3  0  0  0  0  0  0
   38.7010   26.2100   40.7560 N   0  0  0  0  0  0  0  0  0  0  0  0
   38.2570   29.0110   43.1110 C   0  0  0  0  0  0  0  0  0  0  0  0
   37.9180   29.7490   43.8850 H   0  0  0  0  0  0  0  0  0  0  0  0
   38.3740   28.0470   43.6190 H   0  0  0  0  0  0  0  0  0  0  0  0
   39.6040   29.4910   42.6360 C   0  0  0  0  0  0  0  0  0  0  0  0
   39.6540   29.6880   41.5440 H   0  0  0  0  0  0  0  0  0  0  0  0
   40.4520   28.8870   42.9980 H   0  0  0  0  0  0  0  0  0  0  0  0
   39.7760   30.5130   43.0880 H   0  0  0  0  0  0  0  0  0  0  0  0
  1 16  1  0  0  0  0
  2  9  1  0  0  0  0
  2  1  2  0  0  0  0
  3  2  1  0  0  0  0
  4  3  2  0  0  0  0
  4  5  1  0  0  0  0
  5  6  2  0  0  0  0
  6  1  1  0  0  0  0
  7  3  1  0  0  0  0
  8  5  1  0  0  0  0
  9 10  1  0  0  0  0
 10 11  2  0  0  0  0
 11 12  1  0  0  0  0
 13 11  1  0  0  0  0
 14 15  1  0  0  0  0
 14 13  2  0  0  0  0
 15  9  2  0  0  0  0
 16 18  1  0  0  0  0
 16 17  1  0  0  0  0
 19 21  1  0  0  0  0
 19 22  1  0  0  0  0
 19 16  1  0  0  0  0
 20 19  1  0  0  0  0
M  END
>  <minimizedAffinity>
-3.8976481

$$$$

 OpenBabel03252500533D

 22 23  0  0  0  0  0  0  0  0999 V2000
   38.8060   31.6880   40.7010 C   0  0  0  0  0  0  0  0  0  0  0  0
   37.6020   31.7820   40.0460 C   0  0  0  0  0  0  0  0  0  0  0  0
   37.2020   33.0870   39.6570 C   0  0  0  0  0  0  0  0  0  0  0  0
   38.0020   34.1320   39.9480 N   0  0  0  0  0  0  0  0  0  0  0  0
   39.1670   33.9950   40.5940 C   0  0  0  0  0  0  0  0  0  0  0  0
   39.5400   32.7770   40.9540 N   0  0  0  0  0  0  0  0  0  0  0  0
   36.2830   33.3340   39.1280 H   0  0  0  0  0  0  0  0  0  0  0  0
   39.8100   34.8270   40.8310 H   0  0  0  0  0  0  0  0  0  0  0  0
   36.6640   30.7620   39.6620 C   0  0  0  0  0  0  0  0  0  0  0  0
   35.7310   30.0640   40.3770 C   0  0  0  0  0  3  0  0  0  0  0  0
   34.8420   29.1440   39.8910 C   0  0  0  0  0  0  0  0  0  0  0  0
   34.1330   28.6330   40.5250 H   0  0  0  0  0  0  0  0  0  0  0  0
   34.8570   28.8750   38.5810 N   0  0  0  0  0  0  0  0  0  0  0  0
   35.7530   29.5330   37.8270 C   0  0  0  0  0  3  0  0  0  0  0  0
   36.5990   30.4230   38.3620 N   0  0  0  0  0  0  0  0  0  0  0  0
   39.3520   30.3840   41.0920 C   0  0  0  0  0  0  0  0  0  0  0  0
   38.7400   29.5710   40.6200 H   0  0  0  0  0  0  0  0  0  0  0  0
   40.3940   30.2080   40.8020 H   0  0  0  0  0  0  0  0  0  0  0  0
   39.2110   30.2060   42.5810 C   0  0  0  0  0  0  0  0  0  0  0  0
   38.7970   31.0940   43.1050 H   0  0  0  0  0  0  0  0  0  0  0  0
   40.1090   29.8010   43.0750 H   0  0  0  0  0  0  0  0  0  0  0  0
   38.4180   29.4170   42.7520 H   0  0  0  0  0  0  0  0  0  0  0  0
  1  6  1  0  0  0  0
  1 16  1  0  0  0  0
  2  1  2  0  0  0  0
  3  4  2  0  0  0  0
  3  2  1  0  0  0  0
  4  5  1  0  0  0  0
  5  8  1  0  0  0  0
  5  6  2  0  0  0  0
  7  3  1  0  0  0  0
  9  2  1  0  0  0  0
  9 10  1  0  0  0  0
 11 10  2  0  0  0  0
 11 12  1  0  0  0  0
 13 11  1  0  0  0  0
 14 15  1  0  0  0  0
 14 13  2  0  0  0  0
 15  9  2  0  0  0  0
 16 19  1  0  0  0  0
 17 16  1  0  0  0  0
 18 16  1  0  0  0  0
 19 22  1  0  0  0  0
 19 21  1  0  0  0  0
 19 20  1  0  0  0  0
M  END
>  <minimizedAffinity>
-3.89761233

$$$$
