
 OpenBabel03252506183D

 21 22  0  0  0  0  0  0  0  0999 V2000
   44.8700   35.5360   43.9670 C   0  0  0  0  0  0  0  0  0  0  0  0
   44.3820   35.1320   42.7090 C   0  0  0  0  0  0  0  0  0  0  0  0
   44.4590   33.7660   42.3810 C   0  0  0  0  0  0  0  0  0  0  0  0
   44.9980   32.9190   43.2940 N   0  0  0  0  0  0  0  0  0  0  0  0
   45.4640   33.3450   44.5070 C   0  0  0  0  0  0  0  0  0  0  0  0
   45.3870   34.6580   44.8180 N   0  0  0  0  0  0  0  0  0  0  0  0
   43.9600   35.8510   42.0160 H   0  0  0  0  0  0  0  0  0  0  0  0
   44.0990   33.4120   41.4310 H   0  0  0  0  0  0  0  0  0  0  0  0
   46.0390   32.4150   45.4720 C   0  0  0  0  0  0  0  0  0  0  0  0
   46.6490   32.9300   46.6080 C   0  0  0  0  0  3  0  0  0  0  0  0
   47.1980   32.0450   47.5290 C   0  0  0  0  0  0  0  0  0  0  0  0
   47.6770   32.4340   48.4200 H   0  0  0  0  0  0  0  0  0  0  0  0
   47.0960   30.7400   47.2470 N   0  0  0  0  0  0  0  0  0  0  0  0
   46.5200   30.2190   46.1690 C   0  0  0  0  0  3  0  0  0  0  0  0
   45.9770   31.0750   45.2580 N   0  0  0  0  0  0  0  0  0  0  0  0
   44.7870   36.9490   44.3030 C   0  0  0  0  0  3  0  0  0  0  0  0
   45.4000   37.8350   43.5470 C   0  0  0  0  0  3  0  0  0  0  0  0
   45.3620   39.2880   43.8220 C   0  0  0  0  0  0  0  0  0  0  0  0
   45.1250   39.5010   44.8720 H   0  0  0  0  0  0  0  0  0  0  0  0
   44.5680   39.7350   43.2130 H   0  0  0  0  0  0  0  0  0  0  0  0
   46.3620   39.7510   43.6280 H   0  0  0  0  0  0  0  0  0  0  0  0
  1 16  1  0  0  0  0
  1  6  1  0  0  0  0
  2  1  2  0  0  0  0
  3  2  1  0  0  0  0
  3  4  2  0  0  0  0
  4  5  1  0  0  0  0
  5  6  2  0  0  0  0
  5  9  1  0  0  0  0
  7  2  1  0  0  0  0
  8  3  1  0  0  0  0
  9 10  1  0  0  0  0
 10 11  2  0  0  0  0
 11 12  1  0  0  0  0
 13 11  1  0  0  0  0
 14 13  2  0  0  0  0
 15  9  2  0  0  0  0
 15 14  1  0  0  0  0
 17 18  1  0  0  0  0
 17 16  2  0  0  0  0
 18 19  1  0  0  0  0
 20 18  1  0  0  0  0
 21 18  1  0  0  0  0
M  END
>  <minimizedAffinity>
-3.61812425

>  <minimizedRMSD>
1.49317694

$$$$
