
 OpenBabel03252504503D

 22 23  0  0  0  0  0  0  0  0999 V2000
   38.2320   28.5530   42.7490 C   0  0  0  0  0  0  0  0  0  0  0  0
   37.0940   27.8470   42.3710 C   0  0  0  0  0  0  0  0  0  0  0  0
   36.2310   28.4590   41.4620 C   0  0  0  0  0  0  0  0  0  0  0  0
   36.5630   29.7050   41.0050 N   0  0  0  0  0  0  0  0  0  0  0  0
   37.6640   30.3580   41.3860 C   0  0  0  0  0  0  0  0  0  0  0  0
   38.5090   29.7830   42.2660 N   0  0  0  0  0  0  0  0  0  0  0  0
   38.9430   28.1360   43.4520 H   0  0  0  0  0  0  0  0  0  0  0  0
   35.3350   27.9390   41.1460 H   0  0  0  0  0  0  0  0  0  0  0  0
   37.9630   31.6840   40.8640 C   0  0  0  0  0  0  0  0  0  0  0  0
   37.0720   32.3220   40.0270 C   0  0  0  0  0  3  0  0  0  0  0  0
   37.3590   33.5770   39.5350 C   0  0  0  0  0  0  0  0  0  0  0  0
   36.6450   34.0650   38.8760 H   0  0  0  0  0  0  0  0  0  0  0  0
   38.5300   34.1260   39.9120 N   0  0  0  0  0  0  0  0  0  0  0  0
   39.4020   33.5180   40.7230 C   0  0  0  0  0  3  0  0  0  0  0  0
   39.1130   32.2970   41.1960 N   0  0  0  0  0  0  0  0  0  0  0  0
   36.8700   26.5370   42.9300 C   0  0  0  0  0  0  0  0  0  0  0  0
   35.8290   26.4080   43.2550 H   0  0  0  0  0  0  0  0  0  0  0  0
   37.5180   26.3100   43.8230 H   0  0  0  0  0  0  0  0  0  0  0  0
   37.2030   25.4940   41.8780 C   0  0  0  0  0  0  0  0  0  0  0  0
   36.7010   24.5400   42.2140 H   0  0  0  0  0  0  0  0  0  0  0  0
   36.6830   25.7730   40.9530 H   0  0  0  0  0  0  0  0  0  0  0  0
   38.2990   25.3520   41.7760 H   0  0  0  0  0  0  0  0  0  0  0  0
  1  7  1  0  0  0  0
  2  1  1  0  0  0  0
  2 16  1  0  0  0  0
  3  2  2  0  0  0  0
  4  5  2  0  0  0  0
  4  3  1  0  0  0  0
  5  6  1  0  0  0  0
  6  1  2  0  0  0  0
  8  3  1  0  0  0  0
  9 15  1  0  0  0  0
  9  5  1  0  0  0  0
 10  9  2  0  0  0  0
 11 13  2  0  0  0  0
 11 10  1  0  0  0  0
 12 11  1  0  0  0  0
 13 14  1  0  0  0  0
 14 15  2  0  0  0  0
 16 17  1  0  0  0  0
 16 18  1  0  0  0  0
 19 20  1  0  0  0  0
 19 16  1  0  0  0  0
 21 19  1  0  0  0  0
 22 19  1  0  0  0  0
M  END
>  <minimizedAffinity>
-4.30465126

$$$$

 OpenBabel03252504503D

 22 23  0  0  0  0  0  0  0  0999 V2000
   36.4830   28.1990   41.2850 C   0  0  0  0  0  0  0  0  0  0  0  0
   37.0690   27.7260   42.4550 C   0  0  0  0  0  0  0  0  0  0  0  0
   37.9750   28.5660   43.1040 C   0  0  0  0  0  0  0  0  0  0  0  0
   38.2210   29.7910   42.5490 N   0  0  0  0  0  0  0  0  0  0  0  0
   37.6430   30.2180   41.4230 C   0  0  0  0  0  0  0  0  0  0  0  0
   36.7650   29.4190   40.7810 N   0  0  0  0  0  0  0  0  0  0  0  0
   35.7720   27.5970   40.7310 H   0  0  0  0  0  0  0  0  0  0  0  0
   38.4510   28.2300   44.0170 H   0  0  0  0  0  0  0  0  0  0  0  0
   37.9460   31.5340   40.8810 C   0  0  0  0  0  0  0  0  0  0  0  0
   39.1460   32.1480   41.1700 C   0  0  0  0  0  3  0  0  0  0  0  0
   39.4300   33.3950   40.6540 C   0  0  0  0  0  0  0  0  0  0  0  0
   40.3820   33.8640   40.8930 H   0  0  0  0  0  0  0  0  0  0  0  0
   38.4900   33.9590   39.8720 N   0  0  0  0  0  0  0  0  0  0  0  0
   37.3230   33.3740   39.5850 C   0  0  0  0  0  3  0  0  0  0  0  0
   37.0570   32.1610   40.0910 N   0  0  0  0  0  0  0  0  0  0  0  0
   36.7130   26.4130   42.9310 C   0  0  0  0  0  0  0  0  0  0  0  0
   35.6330   26.3250   43.1060 H   0  0  0  0  0  0  0  0  0  0  0  0
   37.2220   26.1280   43.8950 H   0  0  0  0  0  0  0  0  0  0  0  0
   37.1420   25.3860   41.8970 C   0  0  0  0  0  0  0  0  0  0  0  0
   36.5570   24.4480   42.1280 H   0  0  0  0  0  0  0  0  0  0  0  0
   36.7670   25.7160   40.9210 H   0  0  0  0  0  0  0  0  0  0  0  0
   38.2340   25.1940   41.9400 H   0  0  0  0  0  0  0  0  0  0  0  0
  1  2  1  0  0  0  0
  2 16  1  0  0  0  0
  2  3  2  0  0  0  0
  3  8  1  0  0  0  0
  4  3  1  0  0  0  0
  5  4  2  0  0  0  0
  6  1  2  0  0  0  0
  6  5  1  0  0  0  0
  7  1  1  0  0  0  0
  9 10  1  0  0  0  0
  9  5  1  0  0  0  0
 11 12  1  0  0  0  0
 11 10  2  0  0  0  0
 13 11  1  0  0  0  0
 14 13  2  0  0  0  0
 14 15  1  0  0  0  0
 15  9  2  0  0  0  0
 16 17  1  0  0  0  0
 16 18  1  0  0  0  0
 19 22  1  0  0  0  0
 19 20  1  0  0  0  0
 19 16  1  0  0  0  0
 21 19  1  0  0  0  0
M  END
>  <minimizedAffinity>
-4.1953311

$$$$

 OpenBabel03252504503D

 22 23  0  0  0  0  0  0  0  0999 V2000
   38.3930   30.8010   39.5170 C   0  0  0  0  0  0  0  0  0  0  0  0
   37.3180   31.5890   39.9170 C   0  0  0  0  0  0  0  0  0  0  0  0
   36.4620   31.0630   40.8860 C   0  0  0  0  0  0  0  0  0  0  0  0
   36.7410   29.8160   41.3750 N   0  0  0  0  0  0  0  0  0  0  0  0
   37.7820   29.0840   40.9710 C   0  0  0  0  0  0  0  0  0  0  0  0
   38.6190   29.5750   40.0340 N   0  0  0  0  0  0  0  0  0  0  0  0
   39.0950   31.1490   38.7670 H   0  0  0  0  0  0  0  0  0  0  0  0
   35.6150   31.6480   41.2210 H   0  0  0  0  0  0  0  0  0  0  0  0
   38.0260   27.7620   41.5290 C   0  0  0  0  0  0  0  0  0  0  0  0
   37.0550   26.7850   41.4610 C   0  0  0  0  0  3  0  0  0  0  0  0
   37.2890   25.5350   41.9910 C   0  0  0  0  0  0  0  0  0  0  0  0
   36.5120   24.7770   41.9280 H   0  0  0  0  0  0  0  0  0  0  0  0
   38.4920   25.3310   42.5630 N   0  0  0  0  0  0  0  0  0  0  0  0
   39.4410   26.2690   42.6350 C   0  0  0  0  0  3  0  0  0  0  0  0
   39.2030   27.4820   42.1160 N   0  0  0  0  0  0  0  0  0  0  0  0
   37.1460   32.8890   39.3200 C   0  0  0  0  0  0  0  0  0  0  0  0
   36.1130   33.2480   39.4200 H   0  0  0  0  0  0  0  0  0  0  0  0
   37.3940   32.9180   38.2210 H   0  0  0  0  0  0  0  0  0  0  0  0
   38.0880   33.8670   40.0000 C   0  0  0  0  0  0  0  0  0  0  0  0
   37.6920   34.8980   39.7620 H   0  0  0  0  0  0  0  0  0  0  0  0
   37.9580   33.7600   41.0830 H   0  0  0  0  0  0  0  0  0  0  0  0
   39.1300   33.7490   39.6380 H   0  0  0  0  0  0  0  0  0  0  0  0
  1  2  2  0  0  0  0
  1  6  1  0  0  0  0
  2  3  1  0  0  0  0
  3  8  1  0  0  0  0
  3  4  2  0  0  0  0
  5  4  1  0  0  0  0
  5  9  1  0  0  0  0
  6  5  2  0  0  0  0
  7  1  1  0  0  0  0
  9 15  1  0  0  0  0
 10  9  2  0  0  0  0
 10 11  1  0  0  0  0
 11 13  2  0  0  0  0
 12 11  1  0  0  0  0
 13 14  1  0  0  0  0
 15 14  2  0  0  0  0
 16 17  1  0  0  0  0
 16  2  1  0  0  0  0
 16 19  1  0  0  0  0
 18 16  1  0  0  0  0
 19 21  1  0  0  0  0
 20 19  1  0  0  0  0
 22 19  1  0  0  0  0
M  END
>  <minimizedAffinity>
-3.88901401

$$$$

 OpenBabel03252504503D

 22 23  0  0  0  0  0  0  0  0999 V2000
   38.4180   27.4430   41.0950 C   0  0  0  0  0  0  0  0  0  0  0  0
   38.6290   27.1830   42.4460 C   0  0  0  0  0  0  0  0  0  0  0  0
   38.7060   28.2780   43.3070 C   0  0  0  0  0  0  0  0  0  0  0  0
   38.5660   29.5270   42.7660 N   0  0  0  0  0  0  0  0  0  0  0  0
   38.3640   29.7450   41.4640 C   0  0  0  0  0  0  0  0  0  0  0  0
   38.2880   28.6980   40.6160 N   0  0  0  0  0  0  0  0  0  0  0  0
   38.3490   26.6380   40.3730 H   0  0  0  0  0  0  0  0  0  0  0  0
   38.8690   28.1130   44.3640 H   0  0  0  0  0  0  0  0  0  0  0  0
   38.2240   31.0990   40.9470 C   0  0  0  0  0  0  0  0  0  0  0  0
   37.2220   31.4050   40.0510 C   0  0  0  0  0  3  0  0  0  0  0  0
   37.0930   32.6880   39.5650 C   0  0  0  0  0  0  0  0  0  0  0  0
   36.2960   32.9100   38.8580 H   0  0  0  0  0  0  0  0  0  0  0  0
   37.9810   33.5990   40.0070 N   0  0  0  0  0  0  0  0  0  0  0  0
   38.9570   33.3150   40.8750 C   0  0  0  0  0  3  0  0  0  0  0  0
   39.0740   32.0640   41.3420 N   0  0  0  0  0  0  0  0  0  0  0  0
   38.7530   25.8140   42.8800 C   0  0  0  0  0  0  0  0  0  0  0  0
   38.7610   25.1190   42.0300 H   0  0  0  0  0  0  0  0  0  0  0  0
   37.9220   25.4790   43.5630 H   0  0  0  0  0  0  0  0  0  0  0  0
   40.0440   25.6650   43.6650 C   0  0  0  0  0  0  0  0  0  0  0  0
   40.2730   24.5590   43.6840 H   0  0  0  0  0  0  0  0  0  0  0  0
   40.8510   26.1080   43.0700 H   0  0  0  0  0  0  0  0  0  0  0  0
   39.9440   26.0670   44.6950 H   0  0  0  0  0  0  0  0  0  0  0  0
  1  2  1  0  0  0  0
  2 16  1  0  0  0  0
  2  3  2  0  0  0  0
  3  8  1  0  0  0  0
  4  3  1  0  0  0  0
  5  4  2  0  0  0  0
  6  1  2  0  0  0  0
  6  5  1  0  0  0  0
  7  1  1  0  0  0  0
  9 15  1  0  0  0  0
  9  5  1  0  0  0  0
 10  9  2  0  0  0  0
 11 13  2  0  0  0  0
 11 10  1  0  0  0  0
 12 11  1  0  0  0  0
 13 14  1  0  0  0  0
 14 15  2  0  0  0  0
 16 18  1  0  0  0  0
 16 19  1  0  0  0  0
 17 16  1  0  0  0  0
 19 20  1  0  0  0  0
 19 22  1  0  0  0  0
 21 19  1  0  0  0  0
M  END
>  <minimizedAffinity>
-3.85266089

$$$$

 OpenBabel03252504503D

 22 23  0  0  0  0  0  0  0  0999 V2000
   36.4660   30.1270   38.5090 C   0  0  0  0  0  0  0  0  0  0  0  0
   35.8820   30.0780   39.7710 C   0  0  0  0  0  0  0  0  0  0  0  0
   36.4810   30.8280   40.7850 C   0  0  0  0  0  0  0  0  0  0  0  0
   37.5930   31.5570   40.4680 N   0  0  0  0  0  0  0  0  0  0  0  0
   38.1310   31.5840   39.2450 C   0  0  0  0  0  0  0  0  0  0  0  0
   37.5670   30.8650   38.2530 N   0  0  0  0  0  0  0  0  0  0  0  0
   36.0520   29.5680   37.6770 H   0  0  0  0  0  0  0  0  0  0  0  0
   36.0540   30.8130   41.7790 H   0  0  0  0  0  0  0  0  0  0  0  0
   39.3180   32.3800   38.9700 C   0  0  0  0  0  0  0  0  0  0  0  0
   40.1210   32.0860   37.8880 C   0  0  0  0  0  3  0  0  0  0  0  0
   41.2440   32.8420   37.6310 C   0  0  0  0  0  0  0  0  0  0  0  0
   41.8660   32.5950   36.7730 H   0  0  0  0  0  0  0  0  0  0  0  0
   41.5010   33.8580   38.4770 N   0  0  0  0  0  0  0  0  0  0  0  0
   40.7310   34.1540   39.5290 C   0  0  0  0  0  3  0  0  0  0  0  0
   39.6410   33.4120   39.7700 N   0  0  0  0  0  0  0  0  0  0  0  0
   34.7050   29.2690   39.9630 C   0  0  0  0  0  0  0  0  0  0  0  0
   33.9190   29.8180   40.4990 H   0  0  0  0  0  0  0  0  0  0  0  0
   34.8960   28.3250   40.5470 H   0  0  0  0  0  0  0  0  0  0  0  0
   34.1810   28.8380   38.6050 C   0  0  0  0  0  0  0  0  0  0  0  0
   33.1100   28.5200   38.7690 H   0  0  0  0  0  0  0  0  0  0  0  0
   34.1140   29.7320   37.9720 H   0  0  0  0  0  0  0  0  0  0  0  0
   34.7820   28.0070   38.1800 H   0  0  0  0  0  0  0  0  0  0  0  0
  1  2  1  0  0  0  0
  2 16  1  0  0  0  0
  2  3  2  0  0  0  0
  3  8  1  0  0  0  0
  4  3  1  0  0  0  0
  5  4  2  0  0  0  0
  6  1  2  0  0  0  0
  6  5  1  0  0  0  0
  7  1  1  0  0  0  0
  9  5  1  0  0  0  0
  9 15  1  0  0  0  0
 10  9  2  0  0  0  0
 11 10  1  0  0  0  0
 11 13  2  0  0  0  0
 12 11  1  0  0  0  0
 13 14  1  0  0  0  0
 14 15  2  0  0  0  0
 16 17  1  0  0  0  0
 16 18  1  0  0  0  0
 19 20  1  0  0  0  0
 19 16  1  0  0  0  0
 21 19  1  0  0  0  0
 22 19  1  0  0  0  0
M  END
>  <minimizedAffinity>
-3.83117938

$$$$

 OpenBabel03252504503D

 22 23  0  0  0  0  0  0  0  0999 V2000
   37.9220   29.2390   39.4680 C   0  0  0  0  0  0  0  0  0  0  0  0
   37.2590   30.2340   40.1800 C   0  0  0  0  0  0  0  0  0  0  0  0
   37.0860   30.0360   41.5510 C   0  0  0  0  0  0  0  0  0  0  0  0
   37.5800   28.8830   42.0970 N   0  0  0  0  0  0  0  0  0  0  0  0
   38.2120   27.9450   41.3860 C   0  0  0  0  0  0  0  0  0  0  0  0
   38.3870   28.1190   40.0600 N   0  0  0  0  0  0  0  0  0  0  0  0
   38.0890   29.3300   38.4010 H   0  0  0  0  0  0  0  0  0  0  0  0
   36.5750   30.7890   42.1360 H   0  0  0  0  0  0  0  0  0  0  0  0
   38.7140   26.7370   42.0250 C   0  0  0  0  0  0  0  0  0  0  0  0
   39.6040   26.8210   43.0750 C   0  0  0  0  0  3  0  0  0  0  0  0
   40.0780   25.6760   43.6770 C   0  0  0  0  0  0  0  0  0  0  0  0
   40.7790   25.7610   44.5040 H   0  0  0  0  0  0  0  0  0  0  0  0
   39.6290   24.5020   43.1900 N   0  0  0  0  0  0  0  0  0  0  0  0
   38.7680   24.4070   42.1730 C   0  0  0  0  0  3  0  0  0  0  0  0
   38.3130   25.5280   41.5950 N   0  0  0  0  0  0  0  0  0  0  0  0
   36.7950   31.4030   39.4760 C   0  0  0  0  0  0  0  0  0  0  0  0
   35.7030   31.5030   39.5330 H   0  0  0  0  0  0  0  0  0  0  0  0
   37.0640   31.4080   38.3820 H   0  0  0  0  0  0  0  0  0  0  0  0
   37.4460   32.6320   40.0860 C   0  0  0  0  0  0  0  0  0  0  0  0
   36.8180   33.5120   39.7600 H   0  0  0  0  0  0  0  0  0  0  0  0
   37.3100   32.5780   41.1730 H   0  0  0  0  0  0  0  0  0  0  0  0
   38.4970   32.7470   39.7490 H   0  0  0  0  0  0  0  0  0  0  0  0
  1  6  2  0  0  0  0
  1  2  1  0  0  0  0
  2  3  2  0  0  0  0
  3  4  1  0  0  0  0
  3  8  1  0  0  0  0
  5  9  1  0  0  0  0
  5  4  2  0  0  0  0
  6  5  1  0  0  0  0
  7  1  1  0  0  0  0
  9 10  1  0  0  0  0
 10 11  2  0  0  0  0
 11 12  1  0  0  0  0
 13 11  1  0  0  0  0
 14 13  2  0  0  0  0
 15  9  2  0  0  0  0
 15 14  1  0  0  0  0
 16 17  1  0  0  0  0
 16 19  1  0  0  0  0
 16  2  1  0  0  0  0
 18 16  1  0  0  0  0
 19 21  1  0  0  0  0
 20 19  1  0  0  0  0
 22 19  1  0  0  0  0
M  END
>  <minimizedAffinity>
-3.78090739

$$$$

 OpenBabel03252504503D

 22 23  0  0  0  0  0  0  0  0999 V2000
   38.5920   30.0920   40.5420 C   0  0  0  0  0  0  0  0  0  0  0  0
   37.5250   30.9850   40.5710 C   0  0  0  0  0  0  0  0  0  0  0  0
   36.2430   30.4490   40.6950 C   0  0  0  0  0  0  0  0  0  0  0  0
   36.1250   29.0890   40.7810 N   0  0  0  0  0  0  0  0  0  0  0  0
   37.1690   28.2570   40.7500 C   0  0  0  0  0  0  0  0  0  0  0  0
   38.4160   28.7570   40.6300 N   0  0  0  0  0  0  0  0  0  0  0  0
   39.6140   30.4420   40.4470 H   0  0  0  0  0  0  0  0  0  0  0  0
   35.3890   31.1140   40.7210 H   0  0  0  0  0  0  0  0  0  0  0  0
   36.9790   26.8170   40.8460 C   0  0  0  0  0  0  0  0  0  0  0  0
   37.1920   26.1620   42.0400 C   0  0  0  0  0  3  0  0  0  0  0  0
   37.0110   24.7980   42.1260 C   0  0  0  0  0  0  0  0  0  0  0  0
   37.1830   24.2990   43.0770 H   0  0  0  0  0  0  0  0  0  0  0  0
   36.6220   24.1640   41.0030 N   0  0  0  0  0  0  0  0  0  0  0  0
   36.4130   24.7870   39.8400 C   0  0  0  0  0  3  0  0  0  0  0  0
   36.5920   26.1130   39.7670 N   0  0  0  0  0  0  0  0  0  0  0  0
   37.7960   32.3980   40.4760 C   0  0  0  0  0  0  0  0  0  0  0  0
   38.8750   32.6010   40.4320 H   0  0  0  0  0  0  0  0  0  0  0  0
   37.3890   32.9950   41.3390 H   0  0  0  0  0  0  0  0  0  0  0  0
   37.1300   32.9390   39.2230 C   0  0  0  0  0  0  0  0  0  0  0  0
   37.6360   33.9250   39.0030 H   0  0  0  0  0  0  0  0  0  0  0  0
   37.4090   32.2880   38.3870 H   0  0  0  0  0  0  0  0  0  0  0  0
   36.0390   33.0760   39.3680 H   0  0  0  0  0  0  0  0  0  0  0  0
  1  2  2  0  0  0  0
  1  6  1  0  0  0  0
  2  3  1  0  0  0  0
  3  8  1  0  0  0  0
  3  4  2  0  0  0  0
  5  4  1  0  0  0  0
  5  9  1  0  0  0  0
  6  5  2  0  0  0  0
  7  1  1  0  0  0  0
  9 10  1  0  0  0  0
 10 11  2  0  0  0  0
 11 12  1  0  0  0  0
 13 11  1  0  0  0  0
 14 13  2  0  0  0  0
 15 14  1  0  0  0  0
 15  9  2  0  0  0  0
 16  2  1  0  0  0  0
 16 18  1  0  0  0  0
 17 16  1  0  0  0  0
 19 22  1  0  0  0  0
 19 16  1  0  0  0  0
 20 19  1  0  0  0  0
 21 19  1  0  0  0  0
M  END
>  <minimizedAffinity>
-3.77759099

$$$$

 OpenBabel03252504503D

 22 23  0  0  0  0  0  0  0  0999 V2000
   35.4680   27.7480   38.0990 C   0  0  0  0  0  0  0  0  0  0  0  0
   34.3520   28.5780   38.1450 C   0  0  0  0  0  0  0  0  0  0  0  0
   34.0870   29.2320   39.3490 C   0  0  0  0  0  0  0  0  0  0  0  0
   34.9410   29.0130   40.3960 N   0  0  0  0  0  0  0  0  0  0  0  0
   36.0050   28.2090   40.3210 C   0  0  0  0  0  0  0  0  0  0  0  0
   36.2760   27.5680   39.1650 N   0  0  0  0  0  0  0  0  0  0  0  0
   35.7300   27.2100   37.1950 H   0  0  0  0  0  0  0  0  0  0  0  0
   33.2270   29.8850   39.4220 H   0  0  0  0  0  0  0  0  0  0  0  0
   36.8760   28.0170   41.4710 C   0  0  0  0  0  0  0  0  0  0  0  0
   37.3920   26.7700   41.7540 C   0  0  0  0  0  3  0  0  0  0  0  0
   38.2170   26.5910   42.8440 C   0  0  0  0  0  0  0  0  0  0  0  0
   38.6150   25.6010   43.0520 H   0  0  0  0  0  0  0  0  0  0  0  0
   38.4810   27.6800   43.5930 N   0  0  0  0  0  0  0  0  0  0  0  0
   37.9870   28.8930   43.3290 C   0  0  0  0  0  3  0  0  0  0  0  0
   37.1860   29.0560   42.2660 N   0  0  0  0  0  0  0  0  0  0  0  0
   33.5400   28.7200   36.9620 C   0  0  0  0  0  0  0  0  0  0  0  0
   34.0650   29.2800   36.1760 H   0  0  0  0  0  0  0  0  0  0  0  0
   32.5660   29.2550   37.1450 H   0  0  0  0  0  0  0  0  0  0  0  0
   33.1850   27.3380   36.4450 C   0  0  0  0  0  0  0  0  0  0  0  0
   32.8640   27.4800   35.3710 H   0  0  0  0  0  0  0  0  0  0  0  0
   34.1100   26.7530   36.3860 H   0  0  0  0  0  0  0  0  0  0  0  0
   32.3740   26.8740   37.0440 H   0  0  0  0  0  0  0  0  0  0  0  0
  1  2  2  0  0  0  0
  1  6  1  0  0  0  0
  2  3  1  0  0  0  0
  3  8  1  0  0  0  0
  3  4  2  0  0  0  0
  5  4  1  0  0  0  0
  5  9  1  0  0  0  0
  6  5  2  0  0  0  0
  7  1  1  0  0  0  0
  9 10  2  0  0  0  0
  9 15  1  0  0  0  0
 10 11  1  0  0  0  0
 11 12  1  0  0  0  0
 11 13  2  0  0  0  0
 14 13  1  0  0  0  0
 15 14  2  0  0  0  0
 16 18  1  0  0  0  0
 16  2  1  0  0  0  0
 17 16  1  0  0  0  0
 19 16  1  0  0  0  0
 19 22  1  0  0  0  0
 20 19  1  0  0  0  0
 21 19  1  0  0  0  0
M  END
>  <minimizedAffinity>
-3.68973994

$$$$

 OpenBabel03252504503D

 22 23  0  0  0  0  0  0  0  0999 V2000
   40.2060   28.0740   43.0590 C   0  0  0  0  0  0  0  0  0  0  0  0
   38.8200   28.1760   42.9990 C   0  0  0  0  0  0  0  0  0  0  0  0
   38.2820   29.4060   42.6160 C   0  0  0  0  0  0  0  0  0  0  0  0
   39.1520   30.4200   42.3250 N   0  0  0  0  0  0  0  0  0  0  0  0
   40.4800   30.2920   42.3930 C   0  0  0  0  0  0  0  0  0  0  0  0
   41.0180   29.1110   42.7630 N   0  0  0  0  0  0  0  0  0  0  0  0
   40.6880   27.1480   43.3500 H   0  0  0  0  0  0  0  0  0  0  0  0
   37.2070   29.5210   42.5580 H   0  0  0  0  0  0  0  0  0  0  0  0
   41.3550   31.4110   42.0720 C   0  0  0  0  0  0  0  0  0  0  0  0
   42.5680   31.5540   42.7120 C   0  0  0  0  0  3  0  0  0  0  0  0
   43.3930   32.6150   42.4060 C   0  0  0  0  0  0  0  0  0  0  0  0
   44.3460   32.7120   42.9210 H   0  0  0  0  0  0  0  0  0  0  0  0
   42.9540   33.4770   41.4680 N   0  0  0  0  0  0  0  0  0  0  0  0
   41.7810   33.3490   40.8410 C   0  0  0  0  0  3  0  0  0  0  0  0
   40.9860   32.3140   41.1470 N   0  0  0  0  0  0  0  0  0  0  0  0
   38.0220   27.0220   43.3280 C   0  0  0  0  0  0  0  0  0  0  0  0
   38.3470   26.5590   44.2690 H   0  0  0  0  0  0  0  0  0  0  0  0
   38.0510   26.2140   42.5430 H   0  0  0  0  0  0  0  0  0  0  0  0
   36.5700   27.4500   43.4520 C   0  0  0  0  0  0  0  0  0  0  0  0
   36.0510   26.6310   44.0310 H   0  0  0  0  0  0  0  0  0  0  0  0
   36.5340   28.3250   44.1110 H   0  0  0  0  0  0  0  0  0  0  0  0
   36.1000   27.5920   42.4570 H   0  0  0  0  0  0  0  0  0  0  0  0
  1  7  1  0  0  0  0
  2  1  1  0  0  0  0
  2 16  1  0  0  0  0
  3  2  2  0  0  0  0
  4  5  2  0  0  0  0
  4  3  1  0  0  0  0
  5  6  1  0  0  0  0
  6  1  2  0  0  0  0
  8  3  1  0  0  0  0
  9  5  1  0  0  0  0
  9 10  1  0  0  0  0
 11 10  2  0  0  0  0
 11 12  1  0  0  0  0
 13 11  1  0  0  0  0
 14 15  1  0  0  0  0
 14 13  2  0  0  0  0
 15  9  2  0  0  0  0
 16 19  1  0  0  0  0
 16 17  1  0  0  0  0
 18 16  1  0  0  0  0
 19 20  1  0  0  0  0
 19 21  1  0  0  0  0
 22 19  1  0  0  0  0
M  END
>  <minimizedAffinity>
-3.68734884

$$$$
