
 OpenBabel03242516513D

 43 46  0  0  1  0  0  0  0  0999 V2000
   47.8440   32.9060   41.8370 C   0  0  1  0  0  0  0  0  0  0  0  0
   47.5420   32.2840   40.5480 C   0  0  0  0  0  0  0  0  0  0  0  0
   48.5670   32.8260   39.5580 C   0  0  0  0  0  0  0  0  0  0  0  0
   48.2270   34.2760   39.3330 C   0  0  0  0  0  0  0  0  0  0  0  0
   48.1460   35.0830   40.5920 C   0  0  0  0  0  0  0  0  0  0  0  0
   47.6380   34.4240   41.8050 C   0  0  1  0  0  0  0  0  0  0  0  0
   48.9590   32.8230   42.0220 H   0  0  0  0  0  0  0  0  0  0  0  0
   46.5470   32.4820   40.1590 H   0  0  0  0  0  0  0  0  0  0  0  0
   47.6600   31.1730   40.6630 H   0  0  0  0  0  0  0  0  0  0  0  0
   49.6040   32.7040   39.9110 H   0  0  0  0  0  0  0  0  0  0  0  0
   48.3590   32.3170   38.5810 H   0  0  0  0  0  0  0  0  0  0  0  0
   47.2800   34.3330   38.7270 H   0  0  0  0  0  0  0  0  0  0  0  0
   49.0220   34.6820   38.6700 H   0  0  0  0  0  0  0  0  0  0  0  0
   49.1680   35.5300   40.7570 H   0  0  0  0  0  0  0  0  0  0  0  0
   47.5130   35.9760   40.3650 H   0  0  0  0  0  0  0  0  0  0  0  0
   48.2230   34.8050   42.6860 H   0  0  0  0  0  0  0  0  0  0  0  0
   45.4020   30.9350   43.9360 C   0  0  0  0  0  0  0  0  0  0  0  0
   46.0880   31.5010   42.8580 C   0  0  0  0  0  0  0  0  0  0  0  0
   47.1860   32.3520   43.0010 C   0  0  0  0  0  0  0  0  0  0  0  0
   47.5580   32.6060   44.2560 N   0  0  0  0  0  0  0  0  0  0  0  0
   46.9010   32.0610   45.3120 C   0  0  0  0  0  0  0  0  0  0  0  0
   45.8520   31.2490   45.1690 N   0  0  0  0  0  0  0  0  0  0  0  0
   44.5710   30.2920   43.7810 H   0  0  0  0  0  0  0  0  0  0  0  0
   45.7400   31.2610   41.8430 H   0  0  0  0  0  0  0  0  0  0  0  0
   47.2660   32.3170   46.2990 H   0  0  0  0  0  0  0  0  0  0  0  0
   46.2500   34.7840   42.1030 C   0  0  0  0  0  0  0  0  0  0  0  0
   45.7830   35.3330   43.3000 C   0  0  0  0  0  0  0  0  0  0  0  0
   44.4150   35.6130   43.3550 C   0  0  0  0  0  0  0  0  0  0  0  0
   43.6500   35.3270   42.2360 C   0  0  0  0  0  0  0  0  0  0  0  0
   44.1300   34.7820   41.0540 C   0  0  0  0  0  0  0  0  0  0  0  0
   45.4690   34.5200   41.0310 N   0  0  0  0  0  0  0  0  0  0  0  0
   46.5030   35.4920   44.0690 H   0  0  0  0  0  0  0  0  0  0  0  0
   44.0420   36.0290   44.2570 H   0  0  0  0  0  0  0  0  0  0  0  0
   42.5940   35.5640   42.3300 H   0  0  0  0  0  0  0  0  0  0  0  0
   43.2310   34.5270   39.9360 C   0  0  0  0  0  0  0  0  0  0  0  0
   42.2500   35.3240   39.7910 O   0  0  0  0  0  0  0  0  0  0  0  0
   43.3130   33.4580   38.9480 C   0  0  0  0  0  0  0  0  0  0  0  0
   42.1790   32.7150   38.7080 C   0  0  0  0  0  3  0  0  0  0  0  0
   42.2200   31.6800   37.7680 C   0  0  0  0  0  0  0  0  0  0  0  0
   41.3420   31.0800   37.5610 H   0  0  0  0  0  0  0  0  0  0  0  0
   43.3840   31.4270   37.1080 N   0  0  0  0  0  0  0  0  0  0  0  0
   44.4770   32.1410   37.3380 C   0  0  0  0  0  3  0  0  0  0  0  0
   44.3950   33.1110   38.2340 N   0  0  0  0  0  0  0  0  0  0  0  0
  1  7  1  1  0  0  0
  1 19  1  0  0  0  0
  2  9  1  0  0  0  0
  2  1  1  0  0  0  0
  3 10  1  0  0  0  0
  3  2  1  0  0  0  0
  4  3  1  0  0  0  0
  4  5  1  0  0  0  0
  5 14  1  0  0  0  0
  5  6  1  0  0  0  0
  6  1  1  0  0  0  0
  6 26  1  0  0  0  0
  6 16  1  1  0  0  0
  8  2  1  0  0  0  0
 11  3  1  0  0  0  0
 12  4  1  0  0  0  0
 13  4  1  0  0  0  0
 15  5  1  0  0  0  0
 17 22  1  0  0  0  0
 18 19  1  0  0  0  0
 18 17  2  0  0  0  0
 19 20  2  0  0  0  0
 20 21  1  0  0  0  0
 21 25  1  0  0  0  0
 22 21  2  0  0  0  0
 23 17  1  0  0  0  0
 24 18  1  0  0  0  0
 26 27  1  0  0  0  0
 27 28  2  0  0  0  0
 27 32  1  0  0  0  0
 28 33  1  0  0  0  0
 29 34  1  0  0  0  0
 29 28  1  0  0  0  0
 30 29  2  0  0  0  0
 31 30  1  0  0  0  0
 31 26  2  0  0  0  0
 35 30  1  0  0  0  0
 36 35  2  0  0  0  0
 37 35  1  0  0  0  0
 38 37  1  0  0  0  0
 39 38  2  0  0  0  0
 40 39  1  0  0  0  0
 41 42  2  0  0  0  0
 41 39  1  0  0  0  0
 42 43  1  0  0  0  0
 43 37  2  0  0  0  0
M  END
>  <minimizedAffinity>
-5.46260834

>  <minimizedRMSD>
0.56552434

$$$$
