
 OpenBabel03252506183D

 21 22  0  0  0  0  0  0  0  0999 V2000
   44.8770   35.6680   44.0000 C   0  0  0  0  0  0  0  0  0  0  0  0
   44.3740   35.2480   42.7540 C   0  0  0  0  0  0  0  0  0  0  0  0
   44.4520   33.8790   42.4400 C   0  0  0  0  0  0  0  0  0  0  0  0
   45.0060   33.0440   43.3550 N   0  0  0  0  0  0  0  0  0  0  0  0
   45.4870   33.4850   44.5560 C   0  0  0  0  0  0  0  0  0  0  0  0
   45.4100   34.8020   44.8530 N   0  0  0  0  0  0  0  0  0  0  0  0
   43.9400   35.9580   42.0580 H   0  0  0  0  0  0  0  0  0  0  0  0
   44.0790   33.5140   41.4990 H   0  0  0  0  0  0  0  0  0  0  0  0
   46.0790   32.5680   45.5230 C   0  0  0  0  0  0  0  0  0  0  0  0
   46.0620   31.2080   45.2460 C   0  0  0  0  0  3  0  0  0  0  0  0
   46.6260   30.3320   46.1660 C   0  0  0  0  0  0  0  0  0  0  0  0
   46.6200   29.2690   45.9610 H   0  0  0  0  0  0  0  0  0  0  0  0
   47.1530   30.8760   47.2720 N   0  0  0  0  0  0  0  0  0  0  0  0
   47.1820   32.1700   47.5650 C   0  0  0  0  0  3  0  0  0  0  0  0
   46.6330   33.0400   46.6700 N   0  0  0  0  0  0  0  0  0  0  0  0
   44.7940   37.0850   44.3220 C   0  0  0  0  0  3  0  0  0  0  0  0
   45.4220   37.9610   43.5680 C   0  0  0  0  0  3  0  0  0  0  0  0
   45.3860   39.4170   43.8290 C   0  0  0  0  0  0  0  0  0  0  0  0
   45.1320   39.6410   44.8730 H   0  0  0  0  0  0  0  0  0  0  0  0
   44.6030   39.8610   43.2030 H   0  0  0  0  0  0  0  0  0  0  0  0
   46.3900   39.8740   43.6470 H   0  0  0  0  0  0  0  0  0  0  0  0
  1 16  1  0  0  0  0
  1  6  1  0  0  0  0
  2  1  2  0  0  0  0
  3  2  1  0  0  0  0
  3  4  2  0  0  0  0
  4  5  1  0  0  0  0
  5  6  2  0  0  0  0
  5  9  1  0  0  0  0
  7  2  1  0  0  0  0
  8  3  1  0  0  0  0
  9 15  1  0  0  0  0
 10  9  2  0  0  0  0
 10 11  1  0  0  0  0
 11 13  2  0  0  0  0
 12 11  1  0  0  0  0
 13 14  1  0  0  0  0
 15 14  2  0  0  0  0
 17 18  1  0  0  0  0
 17 16  2  0  0  0  0
 18 19  1  0  0  0  0
 20 18  1  0  0  0  0
 21 18  1  0  0  0  0
M  END
>  <minimizedAffinity>
-3.61677551

>  <minimizedRMSD>
1.28725851

$$$$
