
 OpenBabel03242516523D

 43 46  0  0  1  0  0  0  0  0999 V2000
   47.8520   32.9060   41.8350 C   0  0  1  0  0  0  0  0  0  0  0  0
   47.5570   32.2960   40.5380 C   0  0  0  0  0  0  0  0  0  0  0  0
   48.5900   32.8440   39.5600 C   0  0  0  0  0  0  0  0  0  0  0  0
   48.2550   34.2960   39.3450 C   0  0  0  0  0  0  0  0  0  0  0  0
   48.1670   35.0930   40.6110 C   0  0  0  0  0  0  0  0  0  0  0  0
   47.6500   34.4250   41.8140 C   0  0  1  0  0  0  0  0  0  0  0  0
   48.9660   32.8190   42.0270 H   0  0  0  0  0  0  0  0  0  0  0  0
   46.5650   32.4980   40.1440 H   0  0  0  0  0  0  0  0  0  0  0  0
   47.6720   31.1830   40.6460 H   0  0  0  0  0  0  0  0  0  0  0  0
   49.6240   32.7170   39.9190 H   0  0  0  0  0  0  0  0  0  0  0  0
   48.3880   32.3430   38.5780 H   0  0  0  0  0  0  0  0  0  0  0  0
   47.3120   34.3600   38.7340 H   0  0  0  0  0  0  0  0  0  0  0  0
   49.0550   34.7060   38.6910 H   0  0  0  0  0  0  0  0  0  0  0  0
   49.1890   35.5360   40.7860 H   0  0  0  0  0  0  0  0  0  0  0  0
   47.5370   35.9890   40.3870 H   0  0  0  0  0  0  0  0  0  0  0  0
   48.2290   34.7980   42.7020 H   0  0  0  0  0  0  0  0  0  0  0  0
   45.4040   30.9070   43.9000 C   0  0  0  0  0  0  0  0  0  0  0  0
   46.0980   31.4810   42.8320 C   0  0  0  0  0  0  0  0  0  0  0  0
   47.1840   32.3440   42.9900 C   0  0  0  0  0  0  0  0  0  0  0  0
   47.5380   32.6000   44.2500 N   0  0  0  0  0  0  0  0  0  0  0  0
   46.8730   32.0470   45.2970 C   0  0  0  0  0  0  0  0  0  0  0  0
   45.8350   31.2240   45.1390 N   0  0  0  0  0  0  0  0  0  0  0  0
   44.5830   30.2550   43.7340 H   0  0  0  0  0  0  0  0  0  0  0  0
   45.7650   31.2380   41.8120 H   0  0  0  0  0  0  0  0  0  0  0  0
   47.2220   32.3060   46.2890 H   0  0  0  0  0  0  0  0  0  0  0  0
   46.2600   34.7860   42.1060 C   0  0  0  0  0  0  0  0  0  0  0  0
   45.7930   35.3670   43.2870 C   0  0  0  0  0  0  0  0  0  0  0  0
   44.4240   35.6400   43.3390 C   0  0  0  0  0  0  0  0  0  0  0  0
   43.6580   35.3170   42.2310 C   0  0  0  0  0  0  0  0  0  0  0  0
   44.1370   34.7400   41.0650 C   0  0  0  0  0  0  0  0  0  0  0  0
   45.4780   34.4850   41.0450 N   0  0  0  0  0  0  0  0  0  0  0  0
   46.5140   35.5530   44.0490 H   0  0  0  0  0  0  0  0  0  0  0  0
   44.0510   36.0810   44.2300 H   0  0  0  0  0  0  0  0  0  0  0  0
   42.5990   35.5500   42.3220 H   0  0  0  0  0  0  0  0  0  0  0  0
   43.2360   34.4460   39.9570 C   0  0  0  0  0  0  0  0  0  0  0  0
   42.4960   35.3970   39.5490 O   0  0  0  0  0  0  0  0  0  0  0  0
   43.0720   33.1830   39.2480 C   0  0  0  0  0  0  0  0  0  0  0  0
   43.9330   32.9130   38.2090 C   0  0  0  0  0  3  0  0  0  0  0  0
   43.8030   31.7130   37.5010 C   0  0  0  0  0  0  0  0  0  0  0  0
   44.4670   31.4750   36.6790 H   0  0  0  0  0  0  0  0  0  0  0  0
   42.8260   30.8330   37.8570 N   0  0  0  0  0  0  0  0  0  0  0  0
   41.9960   31.0940   38.8570 C   0  0  0  0  0  3  0  0  0  0  0  0
   42.1530   32.2390   39.5000 N   0  0  0  0  0  0  0  0  0  0  0  0
  1  7  1  1  0  0  0
  1 19  1  0  0  0  0
  2  9  1  0  0  0  0
  2  1  1  0  0  0  0
  3 10  1  0  0  0  0
  3  2  1  0  0  0  0
  4  3  1  0  0  0  0
  4  5  1  0  0  0  0
  5 14  1  0  0  0  0
  5  6  1  0  0  0  0
  6  1  1  0  0  0  0
  6 26  1  0  0  0  0
  6 16  1  1  0  0  0
  8  2  1  0  0  0  0
 11  3  1  0  0  0  0
 12  4  1  0  0  0  0
 13  4  1  0  0  0  0
 15  5  1  0  0  0  0
 17 22  1  0  0  0  0
 18 19  1  0  0  0  0
 18 17  2  0  0  0  0
 19 20  2  0  0  0  0
 20 21  1  0  0  0  0
 21 25  1  0  0  0  0
 22 21  2  0  0  0  0
 23 17  1  0  0  0  0
 24 18  1  0  0  0  0
 26 27  1  0  0  0  0
 27 28  2  0  0  0  0
 27 32  1  0  0  0  0
 28 33  1  0  0  0  0
 29 34  1  0  0  0  0
 29 28  1  0  0  0  0
 30 29  2  0  0  0  0
 31 30  1  0  0  0  0
 31 26  2  0  0  0  0
 35 30  1  0  0  0  0
 36 35  2  0  0  0  0
 37 43  1  0  0  0  0
 37 35  1  0  0  0  0
 38 37  2  0  0  0  0
 39 41  2  0  0  0  0
 39 38  1  0  0  0  0
 40 39  1  0  0  0  0
 41 42  1  0  0  0  0
 42 43  2  0  0  0  0
M  END
>  <minimizedAffinity>
-5.25324345

>  <minimizedRMSD>
0.32744202

$$$$
