
 OpenBabel03242516523D

 43 46  0  0  1  0  0  0  0  0999 V2000
   47.8510   32.8910   41.8420 C   0  0  1  0  0  0  0  0  0  0  0  0
   47.5420   32.2370   40.5700 C   0  0  0  0  0  0  0  0  0  0  0  0
   48.5570   32.7580   39.5600 C   0  0  0  0  0  0  0  0  0  0  0  0
   48.2110   34.2010   39.3020 C   0  0  0  0  0  0  0  0  0  0  0  0
   48.1350   35.0390   40.5410 C   0  0  0  0  0  0  0  0  0  0  0  0
   47.6400   34.4080   41.7740 C   0  0  1  0  0  0  0  0  0  0  0  0
   48.9680   32.8170   42.0200 H   0  0  0  0  0  0  0  0  0  0  0  0
   46.5430   32.4220   40.1840 H   0  0  0  0  0  0  0  0  0  0  0  0
   47.6650   31.1300   40.7130 H   0  0  0  0  0  0  0  0  0  0  0  0
   49.5970   32.6490   39.9080 H   0  0  0  0  0  0  0  0  0  0  0  0
   48.3440   32.2240   38.5980 H   0  0  0  0  0  0  0  0  0  0  0  0
   47.2580   34.2390   38.7020 H   0  0  0  0  0  0  0  0  0  0  0  0
   48.9990   34.5930   38.6230 H   0  0  0  0  0  0  0  0  0  0  0  0
   49.1570   35.4930   40.6870 H   0  0  0  0  0  0  0  0  0  0  0  0
   47.4970   35.9230   40.2970 H   0  0  0  0  0  0  0  0  0  0  0  0
   48.2300   34.8130   42.6410 H   0  0  0  0  0  0  0  0  0  0  0  0
   45.4350   30.9620   44.0070 C   0  0  0  0  0  0  0  0  0  0  0  0
   46.1100   31.5030   42.9110 C   0  0  0  0  0  0  0  0  0  0  0  0
   47.2030   32.3650   43.0240 C   0  0  0  0  0  0  0  0  0  0  0  0
   47.5820   32.6540   44.2700 N   0  0  0  0  0  0  0  0  0  0  0  0
   46.9350   32.1330   45.3440 C   0  0  0  0  0  0  0  0  0  0  0  0
   45.8910   31.3100   45.2290 N   0  0  0  0  0  0  0  0  0  0  0  0
   44.6070   30.3100   43.8750 H   0  0  0  0  0  0  0  0  0  0  0  0
   45.7570   31.2350   41.9040 H   0  0  0  0  0  0  0  0  0  0  0  0
   47.3040   32.4170   46.3210 H   0  0  0  0  0  0  0  0  0  0  0  0
   46.2520   34.7710   42.0730 C   0  0  0  0  0  0  0  0  0  0  0  0
   45.7950   35.3600   43.2540 C   0  0  0  0  0  0  0  0  0  0  0  0
   44.4250   35.6340   43.3140 C   0  0  0  0  0  0  0  0  0  0  0  0
   43.6510   35.3030   42.2140 C   0  0  0  0  0  0  0  0  0  0  0  0
   44.1220   34.7180   41.0480 C   0  0  0  0  0  0  0  0  0  0  0  0
   45.4620   34.4630   41.0200 N   0  0  0  0  0  0  0  0  0  0  0  0
   46.5210   35.5510   44.0090 H   0  0  0  0  0  0  0  0  0  0  0  0
   44.0600   36.0800   44.2050 H   0  0  0  0  0  0  0  0  0  0  0  0
   42.5940   35.5360   42.3120 H   0  0  0  0  0  0  0  0  0  0  0  0
   43.2120   34.4170   39.9500 C   0  0  0  0  0  0  0  0  0  0  0  0
   42.5720   35.3940   39.4470 O   0  0  0  0  0  0  0  0  0  0  0  0
   42.9390   33.1190   39.3450 C   0  0  0  0  0  0  0  0  0  0  0  0
   42.1840   32.2210   40.0650 C   0  0  0  0  0  3  0  0  0  0  0  0
   41.9030   30.9630   39.5190 C   0  0  0  0  0  0  0  0  0  0  0  0
   41.3110   30.2380   40.0640 H   0  0  0  0  0  0  0  0  0  0  0  0
   42.3830   30.6540   38.2830 N   0  0  0  0  0  0  0  0  0  0  0  0
   43.1100   31.5180   37.5890 C   0  0  0  0  0  3  0  0  0  0  0  0
   43.3530   32.6940   38.1410 N   0  0  0  0  0  0  0  0  0  0  0  0
  1  7  1  1  0  0  0
  1 19  1  0  0  0  0
  2  9  1  0  0  0  0
  2  1  1  0  0  0  0
  3 10  1  0  0  0  0
  3  2  1  0  0  0  0
  4  3  1  0  0  0  0
  4  5  1  0  0  0  0
  5 14  1  0  0  0  0
  5  6  1  0  0  0  0
  6  1  1  0  0  0  0
  6 26  1  0  0  0  0
  6 16  1  1  0  0  0
  8  2  1  0  0  0  0
 11  3  1  0  0  0  0
 12  4  1  0  0  0  0
 13  4  1  0  0  0  0
 15  5  1  0  0  0  0
 17 22  1  0  0  0  0
 18 19  1  0  0  0  0
 18 17  2  0  0  0  0
 19 20  2  0  0  0  0
 20 21  1  0  0  0  0
 21 25  1  0  0  0  0
 22 21  2  0  0  0  0
 23 17  1  0  0  0  0
 24 18  1  0  0  0  0
 26 27  1  0  0  0  0
 27 28  2  0  0  0  0
 27 32  1  0  0  0  0
 28 33  1  0  0  0  0
 29 34  1  0  0  0  0
 29 28  1  0  0  0  0
 30 29  2  0  0  0  0
 31 30  1  0  0  0  0
 31 26  2  0  0  0  0
 35 30  1  0  0  0  0
 36 35  2  0  0  0  0
 37 35  1  0  0  0  0
 37 38  1  0  0  0  0
 39 40  1  0  0  0  0
 39 38  2  0  0  0  0
 41 39  1  0  0  0  0
 42 43  1  0  0  0  0
 42 41  2  0  0  0  0
 43 37  2  0  0  0  0
M  END
>  <minimizedAffinity>
-5.20920038

>  <minimizedRMSD>
0.340452373

$$$$
