
 OpenBabel03242510143D

 40 43  0  0  1  0  0  0  0  0999 V2000
   38.6550   30.3190   40.4320 N   0  0  0  0  0  0  0  0  0  0  0  0
   39.9980   30.7750   40.0590 C   0  0  0  0  0  0  0  0  0  0  0  0
   40.0330   32.2600   39.8150 C   0  0  0  0  0  0  0  0  0  0  0  0
   39.2200   32.6150   38.6660 N   0  0  0  0  0  0  0  0  0  0  0  0
   38.2810   31.5200   38.4130 C   0  0  0  0  0  0  0  0  0  0  0  0
   37.6530   31.1210   39.7570 C   0  0  1  0  0  0  0  0  0  0  0  0
   40.6970   30.5320   40.8820 H   0  0  0  0  0  0  0  0  0  0  0  0
   40.3390   30.2270   39.1750 H   0  0  0  0  0  0  0  0  0  0  0  0
   41.0530   32.6260   39.7930 H   0  0  0  0  0  0  0  0  0  0  0  0
   39.5240   32.7410   40.6940 H   0  0  0  0  0  0  0  0  0  0  0  0
   38.7490   33.5210   38.7250 H   0  0  0  0  0  0  0  0  0  0  0  0
   38.7510   30.6490   37.9640 H   0  0  0  0  0  0  0  0  0  0  0  0
   37.4440   31.8400   37.7570 H   0  0  0  0  0  0  0  0  0  0  0  0
   37.4320   32.0450   40.3470 H   0  0  0  0  0  0  0  0  0  0  0  0
   38.6260   27.4530   39.1500 Br  0  0  0  0  0  0  0  0  0  0  0  0
   38.2750   27.9370   40.9700 C   0  0  0  0  0  0  0  0  0  0  0  0
   37.9720   26.9620   41.8750 C   0  0  0  0  0  0  0  0  0  0  0  0
   37.6960   27.2940   43.2090 C   0  0  0  0  0  0  0  0  0  0  0  0
   37.7410   28.6180   43.5620 C   0  0  0  0  0  0  0  0  0  0  0  0
   38.0510   29.5620   42.6140 C   0  0  0  0  0  0  0  0  0  0  0  0
   38.3210   29.2640   41.3300 C   0  0  0  0  0  0  0  0  0  0  0  0
   37.4640   26.4570   43.8610 H   0  0  0  0  0  0  0  0  0  0  0  0
   37.5160   28.7910   44.6050 H   0  0  0  0  0  0  0  0  0  0  0  0
   38.0180   30.5490   43.0660 H   0  0  0  0  0  0  0  0  0  0  0  0
   38.9980   23.5430   41.1190 C   0  0  0  0  0  0  0  0  0  0  0  0
   37.8060   22.9360   40.6280 C   0  0  0  0  0  0  0  0  0  0  0  0
   36.6740   23.7370   40.5750 C   0  0  0  0  0  0  0  0  0  0  0  0
   36.7590   25.0210   40.9800 N   0  0  0  0  0  0  0  0  0  0  0  0
   37.9310   25.5730   41.4490 C   0  0  0  0  0  0  0  0  0  0  0  0
   39.0270   24.8080   41.5040 N   0  0  0  0  0  0  0  0  0  0  0  0
   39.8750   22.9160   41.1580 H   0  0  0  0  0  0  0  0  0  0  0  0
   37.7750   21.8970   40.3090 H   0  0  0  0  0  0  0  0  0  0  0  0
   35.7680   23.3090   40.2110 H   0  0  0  0  0  0  0  0  0  0  0  0
   36.4410   30.3640   39.4340 C   0  0  0  0  0  0  0  0  0  0  0  0
   36.3070   30.0180   38.0790 C   0  0  0  0  0  3  0  0  0  0  0  0
   35.2680   29.2970   37.5320 C   0  0  0  0  0  0  0  0  0  0  0  0
   35.2050   29.0540   36.4880 H   0  0  0  0  0  0  0  0  0  0  0  0
   34.2710   28.8670   38.3250 N   0  0  0  0  0  0  0  0  0  0  0  0
   34.3790   29.1880   39.6270 C   0  0  0  0  0  3  0  0  0  0  0  0
   35.4050   29.8910   40.1230 N   0  0  0  0  0  0  0  0  0  0  0  0
  1 21  1  0  0  0  0
  2  1  1  0  0  0  0
  2  7  1  0  0  0  0
  3  2  1  0  0  0  0
  3 10  1  0  0  0  0
  4 11  1  0  0  0  0
  4  3  1  0  0  0  0
  5  4  1  0  0  0  0
  5  6  1  0  0  0  0
  6 14  1  1  0  0  0
  6  1  1  0  0  0  0
  8  2  1  0  0  0  0
  9  3  1  0  0  0  0
 12  5  1  0  0  0  0
 13  5  1  0  0  0  0
 15 16  1  0  0  0  0
 16 21  2  0  0  0  0
 16 17  1  0  0  0  0
 17 18  2  0  0  0  0
 18 19  1  0  0  0  0
 18 22  1  0  0  0  0
 19 23  1  0  0  0  0
 20 24  1  0  0  0  0
 20 19  2  0  0  0  0
 21 20  1  0  0  0  0
 25 31  1  0  0  0  0
 25 30  1  0  0  0  0
 26 25  2  0  0  0  0
 27 26  1  0  0  0  0
 27 28  2  0  0  0  0
 28 29  1  0  0  0  0
 29 30  2  0  0  0  0
 29 17  1  0  0  0  0
 32 26  1  0  0  0  0
 33 27  1  0  0  0  0
 34  6  1  0  0  0  0
 34 40  1  0  0  0  0
 35 34  2  0  0  0  0
 36 35  1  0  0  0  0
 36 38  2  0  0  0  0
 37 36  1  0  0  0  0
 38 39  1  0  0  0  0
 39 40  2  0  0  0  0
M  END
>  <minimizedAffinity>
-5.80378914

$$$$

 OpenBabel03242510143D

 40 43  0  0  1  0  0  0  0  0999 V2000
   38.0130   29.6950   41.3420 N   0  0  0  0  0  0  0  0  0  0  0  0
   38.1040   29.3940   42.7750 C   0  0  0  0  0  0  0  0  0  0  0  0
   38.6650   28.0180   43.0180 C   0  0  0  0  0  0  0  0  0  0  0  0
   37.7670   26.9960   42.5100 N   0  0  0  0  0  0  0  0  0  0  0  0
   36.8690   27.6190   41.5350 C   0  0  0  0  0  0  0  0  0  0  0  0
   37.7240   28.4850   40.5980 C   0  0  1  0  0  0  0  0  0  0  0  0
   38.7680   30.1390   43.2530 H   0  0  0  0  0  0  0  0  0  0  0  0
   37.1170   29.5000   43.2360 H   0  0  0  0  0  0  0  0  0  0  0  0
   38.9650   27.8990   44.0530 H   0  0  0  0  0  0  0  0  0  0  0  0
   39.5920   27.9330   42.3890 H   0  0  0  0  0  0  0  0  0  0  0  0
   38.2220   26.1600   42.1370 H   0  0  0  0  0  0  0  0  0  0  0  0
   36.1020   28.2360   41.9950 H   0  0  0  0  0  0  0  0  0  0  0  0
   36.3690   26.8610   40.8950 H   0  0  0  0  0  0  0  0  0  0  0  0
   38.6690   27.9400   40.3560 H   0  0  0  0  0  0  0  0  0  0  0  0
   40.9430   30.3010   40.3940 Br  0  0  0  0  0  0  0  0  0  0  0  0
   39.3900   31.4060   40.2100 C   0  0  0  0  0  0  0  0  0  0  0  0
   39.5020   32.6200   39.5970 C   0  0  0  0  0  0  0  0  0  0  0  0
   38.3820   33.4540   39.4660 C   0  0  0  0  0  0  0  0  0  0  0  0
   37.1880   33.0070   39.9710 C   0  0  0  0  0  0  0  0  0  0  0  0
   37.1280   31.7780   40.5800 C   0  0  0  0  0  0  0  0  0  0  0  0
   38.1900   30.9630   40.7140 C   0  0  0  0  0  0  0  0  0  0  0  0
   38.5600   34.4010   38.9650 H   0  0  0  0  0  0  0  0  0  0  0  0
   36.3760   33.7050   39.8310 H   0  0  0  0  0  0  0  0  0  0  0  0
   36.1170   31.6020   40.9360 H   0  0  0  0  0  0  0  0  0  0  0  0
   42.8410   34.0810   39.4110 C   0  0  0  0  0  0  0  0  0  0  0  0
   43.2310   33.8530   38.0600 C   0  0  0  0  0  0  0  0  0  0  0  0
   42.3180   33.1960   37.2490 C   0  0  0  0  0  0  0  0  0  0  0  0
   41.1330   32.8130   37.7690 N   0  0  0  0  0  0  0  0  0  0  0  0
   40.7910   33.0510   39.0830 C   0  0  0  0  0  0  0  0  0  0  0  0
   41.6650   33.6840   39.8720 N   0  0  0  0  0  0  0  0  0  0  0  0
   43.5550   34.5930   40.0380 H   0  0  0  0  0  0  0  0  0  0  0  0
   44.1950   34.1760   37.6750 H   0  0  0  0  0  0  0  0  0  0  0  0
   42.5830   33.0130   36.2320 H   0  0  0  0  0  0  0  0  0  0  0  0
   36.9040   28.7310   39.4080 C   0  0  0  0  0  0  0  0  0  0  0  0
   35.5180   28.6500   39.6210 C   0  0  0  0  0  3  0  0  0  0  0  0
   34.5440   28.8550   38.6680 C   0  0  0  0  0  0  0  0  0  0  0  0
   33.4930   28.7830   38.8750 H   0  0  0  0  0  0  0  0  0  0  0  0
   34.9040   29.1620   37.4100 N   0  0  0  0  0  0  0  0  0  0  0  0
   36.2270   29.2450   37.1840 C   0  0  0  0  0  3  0  0  0  0  0  0
   37.1460   29.0380   38.1360 N   0  0  0  0  0  0  0  0  0  0  0  0
  1  2  1  0  0  0  0
  2  3  1  0  0  0  0
  2  8  1  0  0  0  0
  2  7  1  0  0  0  0
  3  9  1  0  0  0  0
  4  3  1  0  0  0  0
  5 12  1  0  0  0  0
  5  4  1  0  0  0  0
  6 14  1  6  0  0  0
  6  1  1  0  0  0  0
  6  5  1  0  0  0  0
 10  3  1  0  0  0  0
 11  4  1  0  0  0  0
 13  5  1  0  0  0  0
 16 15  1  0  0  0  0
 16 21  1  0  0  0  0
 17 16  2  0  0  0  0
 18 17  1  0  0  0  0
 18 19  2  0  0  0  0
 19 20  1  0  0  0  0
 20 21  2  0  0  0  0
 20 24  1  0  0  0  0
 21  1  1  0  0  0  0
 22 18  1  0  0  0  0
 23 19  1  0  0  0  0
 25 30  1  0  0  0  0
 25 31  1  0  0  0  0
 26 25  2  0  0  0  0
 27 28  2  0  0  0  0
 27 26  1  0  0  0  0
 28 29  1  0  0  0  0
 29 17  1  0  0  0  0
 29 30  2  0  0  0  0
 32 26  1  0  0  0  0
 33 27  1  0  0  0  0
 34 35  1  0  0  0  0
 34  6  1  0  0  0  0
 36 37  1  0  0  0  0
 36 35  2  0  0  0  0
 38 36  1  0  0  0  0
 39 38  2  0  0  0  0
 39 40  1  0  0  0  0
 40 34  2  0  0  0  0
M  END
>  <minimizedAffinity>
-5.53273726

$$$$

 OpenBabel03242510143D

 40 43  0  0  1  0  0  0  0  0999 V2000
   39.1240   31.2860   39.8210 N   0  0  0  0  0  0  0  0  0  0  0  0
   40.1570   32.1590   40.3880 C   0  0  0  0  0  0  0  0  0  0  0  0
   40.1890   33.5000   39.7020 C   0  0  0  0  0  0  0  0  0  0  0  0
   40.5830   33.3600   38.3120 N   0  0  0  0  0  0  0  0  0  0  0  0
   40.3660   31.9690   37.9110 C   0  0  0  0  0  0  0  0  0  0  0  0
   38.9720   31.5520   38.4040 C   0  0  1  0  0  0  0  0  0  0  0  0
   39.9430   32.3130   41.4620 H   0  0  0  0  0  0  0  0  0  0  0  0
   41.1320   31.6640   40.3220 H   0  0  0  0  0  0  0  0  0  0  0  0
   40.7650   34.2160   40.2780 H   0  0  0  0  0  0  0  0  0  0  0  0
   39.1290   33.8690   39.6720 H   0  0  0  0  0  0  0  0  0  0  0  0
   40.1470   34.0210   37.6650 H   0  0  0  0  0  0  0  0  0  0  0  0
   41.1090   31.2870   38.3160 H   0  0  0  0  0  0  0  0  0  0  0  0
   40.3560   31.8570   36.8060 H   0  0  0  0  0  0  0  0  0  0  0  0
   38.2580   32.3950   38.2390 H   0  0  0  0  0  0  0  0  0  0  0  0
   40.6650   28.6740   40.6310 Br  0  0  0  0  0  0  0  0  0  0  0  0
   38.8330   29.1190   40.9710 C   0  0  0  0  0  0  0  0  0  0  0  0
   38.0450   28.2340   41.6480 C   0  0  0  0  0  0  0  0  0  0  0  0
   36.6970   28.5310   41.8950 C   0  0  0  0  0  0  0  0  0  0  0  0
   36.2090   29.7260   41.4340 C   0  0  0  0  0  0  0  0  0  0  0  0
   37.0430   30.5820   40.7570 C   0  0  0  0  0  0  0  0  0  0  0  0
   38.3390   30.3170   40.5120 C   0  0  0  0  0  0  0  0  0  0  0  0
   36.1430   27.7720   42.4400 H   0  0  0  0  0  0  0  0  0  0  0  0
   35.1650   29.8800   41.6630 H   0  0  0  0  0  0  0  0  0  0  0  0
   36.4840   31.4610   40.4510 H   0  0  0  0  0  0  0  0  0  0  0  0
   39.8230   25.7770   43.6780 C   0  0  0  0  0  0  0  0  0  0  0  0
   39.6600   24.5620   42.9510 C   0  0  0  0  0  0  0  0  0  0  0  0
   38.9350   24.6330   41.7710 C   0  0  0  0  0  0  0  0  0  0  0  0
   38.4300   25.8220   41.3800 N   0  0  0  0  0  0  0  0  0  0  0  0
   38.6080   26.9760   42.1110 C   0  0  0  0  0  0  0  0  0  0  0  0
   39.3070   26.9180   43.2500 N   0  0  0  0  0  0  0  0  0  0  0  0
   40.3890   25.7170   44.5950 H   0  0  0  0  0  0  0  0  0  0  0  0
   40.0820   23.6210   43.2970 H   0  0  0  0  0  0  0  0  0  0  0  0
   38.7980   23.7390   41.2060 H   0  0  0  0  0  0  0  0  0  0  0  0
   38.6080   30.3570   37.6370 C   0  0  0  0  0  0  0  0  0  0  0  0
   37.3270   30.3950   37.0610 C   0  0  0  0  0  3  0  0  0  0  0  0
   36.7640   29.4050   36.2860 C   0  0  0  0  0  0  0  0  0  0  0  0
   35.7790   29.4750   35.8640 H   0  0  0  0  0  0  0  0  0  0  0  0
   37.4640   28.2860   36.0310 N   0  0  0  0  0  0  0  0  0  0  0  0
   38.6930   28.2280   36.5740 C   0  0  0  0  0  3  0  0  0  0  0  0
   39.2080   29.2110   37.3230 N   0  0  0  0  0  0  0  0  0  0  0  0
  1  2  1  0  0  0  0
  1 21  1  0  0  0  0
  2  7  1  0  0  0  0
  3  9  1  0  0  0  0
  3  2  1  0  0  0  0
  4  3  1  0  0  0  0
  5  4  1  0  0  0  0
  5 12  1  0  0  0  0
  5  6  1  0  0  0  0
  6 14  1  6  0  0  0
  6  1  1  0  0  0  0
  8  2  1  0  0  0  0
 10  3  1  0  0  0  0
 11  4  1  0  0  0  0
 13  5  1  0  0  0  0
 15 16  1  0  0  0  0
 16 17  1  0  0  0  0
 17 18  2  0  0  0  0
 17 29  1  0  0  0  0
 18 22  1  0  0  0  0
 19 23  1  0  0  0  0
 19 18  1  0  0  0  0
 20 19  2  0  0  0  0
 21 20  1  0  0  0  0
 21 16  2  0  0  0  0
 24 20  1  0  0  0  0
 25 31  1  0  0  0  0
 26 32  1  0  0  0  0
 26 25  2  0  0  0  0
 27 26  1  0  0  0  0
 28 27  2  0  0  0  0
 28 29  1  0  0  0  0
 29 30  2  0  0  0  0
 30 25  1  0  0  0  0
 33 27  1  0  0  0  0
 34  6  1  0  0  0  0
 35 34  2  0  0  0  0
 36 35  1  0  0  0  0
 37 36  1  0  0  0  0
 38 36  2  0  0  0  0
 38 39  1  0  0  0  0
 39 40  2  0  0  0  0
 40 34  1  0  0  0  0
M  END
>  <minimizedAffinity>
-5.50513458

$$$$

 OpenBabel03242510143D

 40 43  0  0  1  0  0  0  0  0999 V2000
   37.9660   30.3020   40.6850 N   0  0  0  0  0  0  0  0  0  0  0  0
   36.9460   31.2710   40.2710 C   0  0  0  0  0  0  0  0  0  0  0  0
   37.2270   31.8220   38.8980 C   0  0  0  0  0  0  0  0  0  0  0  0
   38.4560   32.5960   38.8940 N   0  0  0  0  0  0  0  0  0  0  0  0
   39.2460   32.2080   40.0640 C   0  0  0  0  0  0  0  0  0  0  0  0
   39.2550   30.6740   40.1350 C   0  0  1  0  0  0  0  0  0  0  0  0
   35.9610   30.7660   40.2580 H   0  0  0  0  0  0  0  0  0  0  0  0
   36.8840   32.0770   41.0100 H   0  0  0  0  0  0  0  0  0  0  0  0
   36.3570   32.3310   38.4990 H   0  0  0  0  0  0  0  0  0  0  0  0
   37.4330   30.9400   38.2350 H   0  0  0  0  0  0  0  0  0  0  0  0
   38.9990   32.5500   38.0280 H   0  0  0  0  0  0  0  0  0  0  0  0
   38.8550   32.6090   40.9950 H   0  0  0  0  0  0  0  0  0  0  0  0
   40.3060   32.5250   39.9660 H   0  0  0  0  0  0  0  0  0  0  0  0
   39.3740   30.2600   39.1040 H   0  0  0  0  0  0  0  0  0  0  0  0
   37.9800   27.5880   39.1080 Br  0  0  0  0  0  0  0  0  0  0  0  0
   37.7730   27.8580   40.9930 C   0  0  0  0  0  0  0  0  0  0  0  0
   37.6110   26.7770   41.8090 C   0  0  0  0  0  0  0  0  0  0  0  0
   37.4420   26.9510   43.1900 C   0  0  0  0  0  0  0  0  0  0  0  0
   37.4450   28.2310   43.6800 C   0  0  0  0  0  0  0  0  0  0  0  0
   37.6120   29.2860   42.8160 C   0  0  0  0  0  0  0  0  0  0  0  0
   37.7770   29.1400   41.4890 C   0  0  0  0  0  0  0  0  0  0  0  0
   37.3200   26.0370   43.7660 H   0  0  0  0  0  0  0  0  0  0  0  0
   37.3090   28.2810   44.7500 H   0  0  0  0  0  0  0  0  0  0  0  0
   37.5650   30.2170   43.3730 H   0  0  0  0  0  0  0  0  0  0  0  0
   36.4630   23.6640   40.2900 C   0  0  0  0  0  0  0  0  0  0  0  0
   37.6530   22.8910   40.1690 C   0  0  0  0  0  0  0  0  0  0  0  0
   38.8270   23.4770   40.6220 C   0  0  0  0  0  0  0  0  0  0  0  0
   38.7810   24.7220   41.1410 N   0  0  0  0  0  0  0  0  0  0  0  0
   37.6090   25.4390   41.2410 C   0  0  0  0  0  0  0  0  0  0  0  0
   36.4730   24.8820   40.8070 N   0  0  0  0  0  0  0  0  0  0  0  0
   35.5530   23.2040   39.9370 H   0  0  0  0  0  0  0  0  0  0  0  0
   37.6520   21.8900   39.7450 H   0  0  0  0  0  0  0  0  0  0  0  0
   39.7330   22.9210   40.5450 H   0  0  0  0  0  0  0  0  0  0  0  0
   40.3730   30.3120   41.0110 C   0  0  0  0  0  0  0  0  0  0  0  0
   40.6950   31.2740   41.9820 C   0  0  0  0  0  3  0  0  0  0  0  0
   41.6910   31.1610   42.9280 C   0  0  0  0  0  0  0  0  0  0  0  0
   41.9040   31.9230   43.6540 H   0  0  0  0  0  0  0  0  0  0  0  0
   42.4470   30.0500   42.9630 N   0  0  0  0  0  0  0  0  0  0  0  0
   42.1560   29.1150   42.0410 C   0  0  0  0  0  3  0  0  0  0  0  0
   41.1790   29.2600   41.1360 N   0  0  0  0  0  0  0  0  0  0  0  0
  1 21  1  0  0  0  0
  2  1  1  0  0  0  0
  2  8  1  0  0  0  0
  3  2  1  0  0  0  0
  4  3  1  0  0  0  0
  4  5  1  0  0  0  0
  5  6  1  0  0  0  0
  5 12  1  0  0  0  0
  6 14  1  6  0  0  0
  6  1  1  0  0  0  0
  6 34  1  0  0  0  0
  7  2  1  0  0  0  0
  9  3  1  0  0  0  0
 10  3  1  0  0  0  0
 11  4  1  0  0  0  0
 13  5  1  0  0  0  0
 15 16  1  0  0  0  0
 16 21  2  0  0  0  0
 16 17  1  0  0  0  0
 17 18  2  0  0  0  0
 18 19  1  0  0  0  0
 18 22  1  0  0  0  0
 19 23  1  0  0  0  0
 20 24  1  0  0  0  0
 20 19  2  0  0  0  0
 21 20  1  0  0  0  0
 25 30  1  0  0  0  0
 26 25  2  0  0  0  0
 26 27  1  0  0  0  0
 27 28  2  0  0  0  0
 28 29  1  0  0  0  0
 29 17  1  0  0  0  0
 30 29  2  0  0  0  0
 31 25  1  0  0  0  0
 32 26  1  0  0  0  0
 33 27  1  0  0  0  0
 34 40  2  0  0  0  0
 34 35  1  0  0  0  0
 35 36  2  0  0  0  0
 36 38  1  0  0  0  0
 36 37  1  0  0  0  0
 39 38  2  0  0  0  0
 40 39  1  0  0  0  0
M  END
>  <minimizedAffinity>
-5.46832561

$$$$

 OpenBabel03242510143D

 40 43  0  0  1  0  0  0  0  0999 V2000
   40.5790   26.9800   42.7790 N   0  0  0  0  0  0  0  0  0  0  0  0
   41.7230   27.1580   43.6790 C   0  0  0  0  0  0  0  0  0  0  0  0
   43.0220   26.8020   43.0040 C   0  0  0  0  0  0  0  0  0  0  0  0
   43.0630   25.3890   42.6740 N   0  0  0  0  0  0  0  0  0  0  0  0
   41.6900   24.8790   42.6690 C   0  0  0  0  0  0  0  0  0  0  0  0
   40.8250   25.8710   41.8770 C   0  0  1  0  0  0  0  0  0  0  0  0
   41.7650   28.2180   43.9950 H   0  0  0  0  0  0  0  0  0  0  0  0
   41.5760   26.5580   44.5830 H   0  0  0  0  0  0  0  0  0  0  0  0
   43.8680   27.1710   43.5720 H   0  0  0  0  0  0  0  0  0  0  0  0
   43.0260   27.3350   42.0150 H   0  0  0  0  0  0  0  0  0  0  0  0
   43.5650   25.1540   41.8150 H   0  0  0  0  0  0  0  0  0  0  0  0
   41.2760   24.7580   43.6670 H   0  0  0  0  0  0  0  0  0  0  0  0
   41.6160   23.9050   42.1410 H   0  0  0  0  0  0  0  0  0  0  0  0
   41.3940   26.2170   40.9790 H   0  0  0  0  0  0  0  0  0  0  0  0
   40.4850   29.1270   40.4910 Br  0  0  0  0  0  0  0  0  0  0  0  0
   39.1410   28.7330   41.7970 C   0  0  0  0  0  0  0  0  0  0  0  0
   37.9710   29.4360   41.7860 C   0  0  0  0  0  0  0  0  0  0  0  0
   36.9800   29.1760   42.7430 C   0  0  0  0  0  0  0  0  0  0  0  0
   37.2290   28.2040   43.6770 C   0  0  0  0  0  0  0  0  0  0  0  0
   38.4230   27.5260   43.6460 C   0  0  0  0  0  0  0  0  0  0  0  0
   39.3860   27.7590   42.7360 C   0  0  0  0  0  0  0  0  0  0  0  0
   36.0800   29.7800   42.6610 H   0  0  0  0  0  0  0  0  0  0  0  0
   36.4190   28.0650   44.3770 H   0  0  0  0  0  0  0  0  0  0  0  0
   38.4540   26.8160   44.4670 H   0  0  0  0  0  0  0  0  0  0  0  0
   36.9810   31.0880   38.6870 C   0  0  0  0  0  0  0  0  0  0  0  0
   37.3700   32.4440   38.8910 C   0  0  0  0  0  0  0  0  0  0  0  0
   37.9690   32.7450   40.1060 C   0  0  0  0  0  0  0  0  0  0  0  0
   38.1470   31.7610   41.0120 N   0  0  0  0  0  0  0  0  0  0  0  0
   37.7570   30.4610   40.7780 C   0  0  0  0  0  0  0  0  0  0  0  0
   37.1790   30.1610   39.6100 N   0  0  0  0  0  0  0  0  0  0  0  0
   36.5160   30.8580   37.7400 H   0  0  0  0  0  0  0  0  0  0  0  0
   37.2100   33.2110   38.1370 H   0  0  0  0  0  0  0  0  0  0  0  0
   38.2710   33.7520   40.2850 H   0  0  0  0  0  0  0  0  0  0  0  0
   39.6020   25.1500   41.5160 C   0  0  0  0  0  0  0  0  0  0  0  0
   39.1650   25.3550   40.1970 C   0  0  0  0  0  3  0  0  0  0  0  0
   38.0550   24.7780   39.6180 C   0  0  0  0  0  0  0  0  0  0  0  0
   37.7570   24.9630   38.6030 H   0  0  0  0  0  0  0  0  0  0  0  0
   37.2930   23.9400   40.3400 N   0  0  0  0  0  0  0  0  0  0  0  0
   37.6930   23.7290   41.6070 C   0  0  0  0  0  3  0  0  0  0  0  0
   38.7780   24.3080   42.1360 N   0  0  0  0  0  0  0  0  0  0  0  0
  1  2  1  0  0  0  0
  2  7  1  0  0  0  0
  2  8  1  0  0  0  0
  3  9  1  0  0  0  0
  3  2  1  0  0  0  0
  4  3  1  0  0  0  0
  5  4  1  0  0  0  0
  5 12  1  0  0  0  0
  6 14  1  6  0  0  0
  6  5  1  0  0  0  0
  6  1  1  0  0  0  0
 10  3  1  0  0  0  0
 11  4  1  0  0  0  0
 13  5  1  0  0  0  0
 15 16  1  0  0  0  0
 16 21  1  0  0  0  0
 17 16  2  0  0  0  0
 17 18  1  0  0  0  0
 18 19  2  0  0  0  0
 19 23  1  0  0  0  0
 20 19  1  0  0  0  0
 20 24  1  0  0  0  0
 21  1  1  0  0  0  0
 21 20  2  0  0  0  0
 22 18  1  0  0  0  0
 25 26  2  0  0  0  0
 25 30  1  0  0  0  0
 26 27  1  0  0  0  0
 27 33  1  0  0  0  0
 27 28  2  0  0  0  0
 29 28  1  0  0  0  0
 29 17  1  0  0  0  0
 30 29  2  0  0  0  0
 31 25  1  0  0  0  0
 32 26  1  0  0  0  0
 34  6  1  0  0  0  0
 34 40  1  0  0  0  0
 35 34  2  0  0  0  0
 36 35  1  0  0  0  0
 36 38  2  0  0  0  0
 37 36  1  0  0  0  0
 38 39  1  0  0  0  0
 39 40  2  0  0  0  0
M  END
>  <minimizedAffinity>
-5.43848372

$$$$

 OpenBabel03242510143D

 40 43  0  0  1  0  0  0  0  0999 V2000
   40.2390   31.0960   39.2090 N   0  0  0  0  0  0  0  0  0  0  0  0
   41.1440   31.0760   38.0540 C   0  0  0  0  0  0  0  0  0  0  0  0
   41.0000   32.3170   37.2140 C   0  0  0  0  0  0  0  0  0  0  0  0
   39.6800   32.3860   36.6140 N   0  0  0  0  0  0  0  0  0  0  0  0
   38.7850   31.5090   37.3710 C   0  0  0  0  0  0  0  0  0  0  0  0
   39.0120   31.7870   38.8650 C   0  0  1  0  0  0  0  0  0  0  0  0
   42.1860   31.0110   38.4200 H   0  0  0  0  0  0  0  0  0  0  0  0
   40.9560   30.1770   37.4570 H   0  0  0  0  0  0  0  0  0  0  0  0
   41.8300   32.4160   36.5230 H   0  0  0  0  0  0  0  0  0  0  0  0
   41.0470   33.1900   37.9210 H   0  0  0  0  0  0  0  0  0  0  0  0
   39.2970   33.3280   36.5050 H   0  0  0  0  0  0  0  0  0  0  0  0
   38.9530   30.4540   37.1730 H   0  0  0  0  0  0  0  0  0  0  0  0
   37.7180   31.7360   37.1670 H   0  0  0  0  0  0  0  0  0  0  0  0
   39.1270   32.8880   39.0190 H   0  0  0  0  0  0  0  0  0  0  0  0
   39.7770   28.0010   39.4480 Br  0  0  0  0  0  0  0  0  0  0  0  0
   40.3580   29.2180   40.8090 C   0  0  0  0  0  0  0  0  0  0  0  0
   40.6240   28.7430   42.0600 C   0  0  0  0  0  0  0  0  0  0  0  0
   41.0350   29.6180   43.0770 C   0  0  0  0  0  0  0  0  0  0  0  0
   41.1550   30.9480   42.7680 C   0  0  0  0  0  0  0  0  0  0  0  0
   40.8750   31.3750   41.4930 C   0  0  0  0  0  0  0  0  0  0  0  0
   40.4820   30.5530   40.5040 C   0  0  0  0  0  0  0  0  0  0  0  0
   41.2260   29.1570   44.0420 H   0  0  0  0  0  0  0  0  0  0  0  0
   41.4750   31.5550   43.6020 H   0  0  0  0  0  0  0  0  0  0  0  0
   41.0020   32.4520   41.4390 H   0  0  0  0  0  0  0  0  0  0  0  0
   39.1420   25.5240   42.9280 C   0  0  0  0  0  0  0  0  0  0  0  0
   40.2420   24.6200   42.8650 C   0  0  0  0  0  0  0  0  0  0  0  0
   41.4730   25.1600   42.5210 C   0  0  0  0  0  0  0  0  0  0  0  0
   41.5640   26.4820   42.2690 N   0  0  0  0  0  0  0  0  0  0  0  0
   40.4760   27.3250   42.3400 C   0  0  0  0  0  0  0  0  0  0  0  0
   39.2850   26.8140   42.6710 N   0  0  0  0  0  0  0  0  0  0  0  0
   38.1860   25.1000   43.1960 H   0  0  0  0  0  0  0  0  0  0  0  0
   40.1320   23.5590   43.0740 H   0  0  0  0  0  0  0  0  0  0  0  0
   42.3150   24.5070   42.4670 H   0  0  0  0  0  0  0  0  0  0  0  0
   37.8410   31.2480   39.5630 C   0  0  0  0  0  0  0  0  0  0  0  0
   37.0650   30.3550   38.8070 C   0  0  0  0  0  3  0  0  0  0  0  0
   35.9300   29.7070   39.2440 C   0  0  0  0  0  0  0  0  0  0  0  0
   35.3650   29.0300   38.6310 H   0  0  0  0  0  0  0  0  0  0  0  0
   35.4880   29.9170   40.4960 N   0  0  0  0  0  0  0  0  0  0  0  0
   36.2170   30.7700   41.2380 C   0  0  0  0  0  3  0  0  0  0  0  0
   37.3160   31.3820   40.7790 N   0  0  0  0  0  0  0  0  0  0  0  0
  1 21  1  0  0  0  0
  2  7  1  0  0  0  0
  2  1  1  0  0  0  0
  3 10  1  0  0  0  0
  3  2  1  0  0  0  0
  4  3  1  0  0  0  0
  4  5  1  0  0  0  0
  5  6  1  0  0  0  0
  6 14  1  1  0  0  0
  6  1  1  0  0  0  0
  6 34  1  0  0  0  0
  8  2  1  0  0  0  0
  9  3  1  0  0  0  0
 11  4  1  0  0  0  0
 12  5  1  0  0  0  0
 13  5  1  0  0  0  0
 15 16  1  0  0  0  0
 16 17  1  0  0  0  0
 17 29  1  0  0  0  0
 17 18  2  0  0  0  0
 18 22  1  0  0  0  0
 19 18  1  0  0  0  0
 19 23  1  0  0  0  0
 20 19  2  0  0  0  0
 21 16  2  0  0  0  0
 21 20  1  0  0  0  0
 24 20  1  0  0  0  0
 25 31  1  0  0  0  0
 26 25  1  0  0  0  0
 26 32  1  0  0  0  0
 27 26  2  0  0  0  0
 28 29  2  0  0  0  0
 28 27  1  0  0  0  0
 29 30  1  0  0  0  0
 30 25  2  0  0  0  0
 33 27  1  0  0  0  0
 34 40  1  0  0  0  0
 35 36  1  0  0  0  0
 35 34  2  0  0  0  0
 36 38  2  0  0  0  0
 37 36  1  0  0  0  0
 38 39  1  0  0  0  0
 40 39  2  0  0  0  0
M  END
>  <minimizedAffinity>
-5.42449045

$$$$

 OpenBabel03242510143D

 40 43  0  0  1  0  0  0  0  0999 V2000
   37.9600   30.9750   40.4650 N   0  0  0  0  0  0  0  0  0  0  0  0
   38.0710   32.4260   40.6480 C   0  0  0  0  0  0  0  0  0  0  0  0
   39.4890   32.9020   40.4710 C   0  0  0  0  0  0  0  0  0  0  0  0
   40.3500   32.3590   41.5060 N   0  0  0  0  0  0  0  0  0  0  0  0
   39.6880   31.1880   42.0850 C   0  0  0  0  0  0  0  0  0  0  0  0
   39.1690   30.3230   40.9270 C   0  0  1  0  0  0  0  0  0  0  0  0
   37.4300   32.9300   39.9000 H   0  0  0  0  0  0  0  0  0  0  0  0
   37.6880   32.7010   41.6370 H   0  0  0  0  0  0  0  0  0  0  0  0
   39.5250   33.9790   40.3550 H   0  0  0  0  0  0  0  0  0  0  0  0
   39.8610   32.4500   39.5120 H   0  0  0  0  0  0  0  0  0  0  0  0
   41.3090   32.1560   41.2160 H   0  0  0  0  0  0  0  0  0  0  0  0
   38.8600   31.4460   42.7400 H   0  0  0  0  0  0  0  0  0  0  0  0
   40.4000   30.5550   42.6570 H   0  0  0  0  0  0  0  0  0  0  0  0
   39.9360   30.3010   40.1140 H   0  0  0  0  0  0  0  0  0  0  0  0
   38.3180   30.1490   37.4580 Br  0  0  0  0  0  0  0  0  0  0  0  0
   36.8340   29.7890   38.6130 C   0  0  0  0  0  0  0  0  0  0  0  0
   35.7670   29.0870   38.1320 C   0  0  0  0  0  0  0  0  0  0  0  0
   34.6620   28.8260   38.9550 C   0  0  0  0  0  0  0  0  0  0  0  0
   34.6950   29.2970   40.2410 C   0  0  0  0  0  0  0  0  0  0  0  0
   35.7920   29.9990   40.6780 C   0  0  0  0  0  0  0  0  0  0  0  0
   36.8620   30.2590   39.9050 C   0  0  0  0  0  0  0  0  0  0  0  0
   33.8570   28.2610   38.4920 H   0  0  0  0  0  0  0  0  0  0  0  0
   33.8080   29.0550   40.8090 H   0  0  0  0  0  0  0  0  0  0  0  0
   35.6340   30.3090   41.7060 H   0  0  0  0  0  0  0  0  0  0  0  0
   36.2320   26.9490   35.2120 C   0  0  0  0  0  0  0  0  0  0  0  0
   35.7790   27.7560   34.1300 C   0  0  0  0  0  0  0  0  0  0  0  0
   35.3220   29.0280   34.4480 C   0  0  0  0  0  0  0  0  0  0  0  0
   35.3300   29.4250   35.7370 N   0  0  0  0  0  0  0  0  0  0  0  0
   35.7770   28.6140   36.7580 C   0  0  0  0  0  0  0  0  0  0  0  0
   36.2190   27.3870   36.4610 N   0  0  0  0  0  0  0  0  0  0  0  0
   36.5870   25.9610   34.9590 H   0  0  0  0  0  0  0  0  0  0  0  0
   35.7870   27.4030   33.1010 H   0  0  0  0  0  0  0  0  0  0  0  0
   34.9770   29.6540   33.6570 H   0  0  0  0  0  0  0  0  0  0  0  0
   38.9180   28.9930   41.4900 C   0  0  0  0  0  0  0  0  0  0  0  0
   38.5550   28.9880   42.8470 C   0  0  0  0  0  3  0  0  0  0  0  0
   38.2550   27.8700   43.5950 C   0  0  0  0  0  0  0  0  0  0  0  0
   37.9800   27.9120   44.6320 H   0  0  0  0  0  0  0  0  0  0  0  0
   38.3000   26.6570   43.0190 N   0  0  0  0  0  0  0  0  0  0  0  0
   38.6470   26.6390   41.7190 C   0  0  0  0  0  3  0  0  0  0  0  0
   38.9320   27.7460   41.0240 N   0  0  0  0  0  0  0  0  0  0  0  0
  1  2  1  0  0  0  0
  1  6  1  0  0  0  0
  2  8  1  0  0  0  0
  3  2  1  0  0  0  0
  3  4  1  0  0  0  0
  4  5  1  0  0  0  0
  5 13  1  0  0  0  0
  5 12  1  0  0  0  0
  6 14  1  6  0  0  0
  6 34  1  0  0  0  0
  6  5  1  0  0  0  0
  7  2  1  0  0  0  0
  9  3  1  0  0  0  0
 10  3  1  0  0  0  0
 11  4  1  0  0  0  0
 15 16  1  0  0  0  0
 16 21  1  0  0  0  0
 17 16  2  0  0  0  0
 17 18  1  0  0  0  0
 18 19  2  0  0  0  0
 19 20  1  0  0  0  0
 19 23  1  0  0  0  0
 20 24  1  0  0  0  0
 21  1  1  0  0  0  0
 21 20  2  0  0  0  0
 22 18  1  0  0  0  0
 25 30  1  0  0  0  0
 26 27  1  0  0  0  0
 26 25  2  0  0  0  0
 27 28  2  0  0  0  0
 28 29  1  0  0  0  0
 29 17  1  0  0  0  0
 30 29  2  0  0  0  0
 31 25  1  0  0  0  0
 32 26  1  0  0  0  0
 33 27  1  0  0  0  0
 34 35  1  0  0  0  0
 35 36  2  0  0  0  0
 36 37  1  0  0  0  0
 38 36  1  0  0  0  0
 39 38  2  0  0  0  0
 40 34  2  0  0  0  0
 40 39  1  0  0  0  0
M  END
>  <minimizedAffinity>
-5.40066242

$$$$

 OpenBabel03242510143D

 40 43  0  0  1  0  0  0  0  0999 V2000
   37.7420   29.2370   39.0020 N   0  0  0  0  0  0  0  0  0  0  0  0
   36.8220   28.5210   38.1120 C   0  0  0  0  0  0  0  0  0  0  0  0
   37.3270   28.4980   36.6940 C   0  0  0  0  0  0  0  0  0  0  0  0
   37.3670   29.8380   36.1380 N   0  0  0  0  0  0  0  0  0  0  0  0
   37.3610   30.7950   37.2460 C   0  0  0  0  0  0  0  0  0  0  0  0
   38.3890   30.3170   38.2830 C   0  0  1  0  0  0  0  0  0  0  0  0
   36.7190   27.4790   38.4710 H   0  0  0  0  0  0  0  0  0  0  0  0
   35.8290   28.9800   38.1660 H   0  0  0  0  0  0  0  0  0  0  0  0
   36.7880   27.7660   36.1020 H   0  0  0  0  0  0  0  0  0  0  0  0
   38.3990   28.1670   36.7400 H   0  0  0  0  0  0  0  0  0  0  0  0
   38.1290   30.0160   35.4780 H   0  0  0  0  0  0  0  0  0  0  0  0
   36.3890   30.8920   37.7220 H   0  0  0  0  0  0  0  0  0  0  0  0
   37.6910   31.8040   36.9190 H   0  0  0  0  0  0  0  0  0  0  0  0
   39.2980   29.9420   37.7520 H   0  0  0  0  0  0  0  0  0  0  0  0
   40.2550   27.4210   39.4940 Br  0  0  0  0  0  0  0  0  0  0  0  0
   39.0810   28.1920   40.7970 C   0  0  0  0  0  0  0  0  0  0  0  0
   39.3130   27.9660   42.1220 C   0  0  0  0  0  0  0  0  0  0  0  0
   38.4580   28.5070   43.0940 C   0  0  0  0  0  0  0  0  0  0  0  0
   37.3960   29.2600   42.6640 C   0  0  0  0  0  0  0  0  0  0  0  0
   37.2060   29.4590   41.3180 C   0  0  0  0  0  0  0  0  0  0  0  0
   38.0150   28.9500   40.3720 C   0  0  0  0  0  0  0  0  0  0  0  0
   38.7150   28.2770   44.1240 H   0  0  0  0  0  0  0  0  0  0  0  0
   36.7860   29.6400   43.4710 H   0  0  0  0  0  0  0  0  0  0  0  0
   36.3120   30.0550   41.1660 H   0  0  0  0  0  0  0  0  0  0  0  0
   41.3840   25.0770   42.9460 C   0  0  0  0  0  0  0  0  0  0  0  0
   42.6370   25.6530   43.3040 C   0  0  0  0  0  0  0  0  0  0  0  0
   42.7250   27.0370   43.2490 C   0  0  0  0  0  0  0  0  0  0  0  0
   41.6450   27.7500   42.8670 N   0  0  0  0  0  0  0  0  0  0  0  0
   40.4490   27.1550   42.5270 C   0  0  0  0  0  0  0  0  0  0  0  0
   40.3550   25.8220   42.5780 N   0  0  0  0  0  0  0  0  0  0  0  0
   41.3200   24.0000   42.9910 H   0  0  0  0  0  0  0  0  0  0  0  0
   43.4870   25.0480   43.6070 H   0  0  0  0  0  0  0  0  0  0  0  0
   43.6510   27.4960   43.5120 H   0  0  0  0  0  0  0  0  0  0  0  0
   38.6800   31.4730   39.1350 C   0  0  0  0  0  0  0  0  0  0  0  0
   37.6750   32.4550   39.1570 C   0  0  0  0  0  3  0  0  0  0  0  0
   37.7070   33.6220   39.8890 C   0  0  0  0  0  0  0  0  0  0  0  0
   36.9140   34.3460   39.8780 H   0  0  0  0  0  0  0  0  0  0  0  0
   38.7720   33.8880   40.6650 N   0  0  0  0  0  0  0  0  0  0  0  0
   39.7470   32.9610   40.6580 C   0  0  0  0  0  3  0  0  0  0  0  0
   39.6810   31.8370   39.9330 N   0  0  0  0  0  0  0  0  0  0  0  0
  1 21  1  0  0  0  0
  2  8  1  0  0  0  0
  2  7  1  0  0  0  0
  2  1  1  0  0  0  0
  3 10  1  0  0  0  0
  3  2  1  0  0  0  0
  4  3  1  0  0  0  0
  4  5  1  0  0  0  0
  5 12  1  0  0  0  0
  5  6  1  0  0  0  0
  6 14  1  6  0  0  0
  6  1  1  0  0  0  0
  6 34  1  0  0  0  0
  9  3  1  0  0  0  0
 11  4  1  0  0  0  0
 13  5  1  0  0  0  0
 15 16  1  0  0  0  0
 16 17  1  0  0  0  0
 17 29  1  0  0  0  0
 17 18  2  0  0  0  0
 18 22  1  0  0  0  0
 19 18  1  0  0  0  0
 19 23  1  0  0  0  0
 20 19  2  0  0  0  0
 21 16  2  0  0  0  0
 21 20  1  0  0  0  0
 24 20  1  0  0  0  0
 25 31  1  0  0  0  0
 25 26  1  0  0  0  0
 26 32  1  0  0  0  0
 27 26  2  0  0  0  0
 27 33  1  0  0  0  0
 28 27  1  0  0  0  0
 29 30  1  0  0  0  0
 29 28  2  0  0  0  0
 30 25  2  0  0  0  0
 34 35  2  0  0  0  0
 34 40  1  0  0  0  0
 35 36  1  0  0  0  0
 36 38  2  0  0  0  0
 37 36  1  0  0  0  0
 39 38  1  0  0  0  0
 40 39  2  0  0  0  0
M  END
>  <minimizedAffinity>
-5.39665127

$$$$

 OpenBabel03242510143D

 40 43  0  0  1  0  0  0  0  0999 V2000
   37.4550   30.4750   38.4720 N   0  0  0  0  0  0  0  0  0  0  0  0
   37.2610   30.0890   37.0710 C   0  0  0  0  0  0  0  0  0  0  0  0
   36.0000   29.2870   36.8850 C   0  0  0  0  0  0  0  0  0  0  0  0
   36.0880   28.0160   37.5810 N   0  0  0  0  0  0  0  0  0  0  0  0
   37.1390   28.1210   38.5960 C   0  0  0  0  0  0  0  0  0  0  0  0
   36.9330   29.4440   39.3480 C   0  0  1  0  0  0  0  0  0  0  0  0
   37.1950   31.0060   36.4550 H   0  0  0  0  0  0  0  0  0  0  0  0
   38.1350   29.5290   36.7210 H   0  0  0  0  0  0  0  0  0  0  0  0
   35.7320   29.2240   35.8360 H   0  0  0  0  0  0  0  0  0  0  0  0
   35.1810   29.8520   37.4070 H   0  0  0  0  0  0  0  0  0  0  0  0
   35.2090   27.6680   37.9710 H   0  0  0  0  0  0  0  0  0  0  0  0
   38.1410   28.0980   38.1770 H   0  0  0  0  0  0  0  0  0  0  0  0
   37.0600   27.3130   39.3540 H   0  0  0  0  0  0  0  0  0  0  0  0
   35.8400   29.5990   39.5250 H   0  0  0  0  0  0  0  0  0  0  0  0
   40.5790   30.6210   38.2000 Br  0  0  0  0  0  0  0  0  0  0  0  0
   39.3920   31.9440   38.9130 C   0  0  0  0  0  0  0  0  0  0  0  0
   39.9040   33.1220   39.3750 C   0  0  0  0  0  0  0  0  0  0  0  0
   39.0560   34.0990   39.9170 C   0  0  0  0  0  0  0  0  0  0  0  0
   37.7140   33.8270   39.9640 C   0  0  0  0  0  0  0  0  0  0  0  0
   37.2480   32.6270   39.4860 C   0  0  0  0  0  0  0  0  0  0  0  0
   38.0440   31.6770   38.9620 C   0  0  0  0  0  0  0  0  0  0  0  0
   39.5470   35.0060   40.2600 H   0  0  0  0  0  0  0  0  0  0  0  0
   37.1290   34.6280   40.3940 H   0  0  0  0  0  0  0  0  0  0  0  0
   36.1720   32.5780   39.6240 H   0  0  0  0  0  0  0  0  0  0  0  0
   43.4360   33.2550   40.2840 C   0  0  0  0  0  0  0  0  0  0  0  0
   44.0550   33.8330   39.1380 C   0  0  0  0  0  0  0  0  0  0  0  0
   43.2220   34.1610   38.0770 C   0  0  0  0  0  0  0  0  0  0  0  0
   41.8980   33.9210   38.1830 N   0  0  0  0  0  0  0  0  0  0  0  0
   41.3360   33.3600   39.3090 C   0  0  0  0  0  0  0  0  0  0  0  0
   42.1310   33.0410   40.3360 N   0  0  0  0  0  0  0  0  0  0  0  0
   44.0870   33.0020   41.1060 H   0  0  0  0  0  0  0  0  0  0  0  0
   45.1260   34.0120   39.0880 H   0  0  0  0  0  0  0  0  0  0  0  0
   43.6590   34.5960   37.2070 H   0  0  0  0  0  0  0  0  0  0  0  0
   37.6870   29.3250   40.5990 C   0  0  0  0  0  0  0  0  0  0  0  0
   38.7460   28.4040   40.5620 C   0  0  0  0  0  3  0  0  0  0  0  0
   39.6070   28.1260   41.6020 C   0  0  0  0  0  0  0  0  0  0  0  0
   40.4060   27.4120   41.5310 H   0  0  0  0  0  0  0  0  0  0  0  0
   39.4580   28.7680   42.7740 N   0  0  0  0  0  0  0  0  0  0  0  0
   38.4490   29.6550   42.8310 C   0  0  0  0  0  3  0  0  0  0  0  0
   37.6320   29.8990   41.7990 N   0  0  0  0  0  0  0  0  0  0  0  0
  1 21  1  0  0  0  0
  1  6  1  0  0  0  0
  2  1  1  0  0  0  0
  3  2  1  0  0  0  0
  3 10  1  0  0  0  0
  3  4  1  0  0  0  0
  4 11  1  0  0  0  0
  4  5  1  0  0  0  0
  5  6  1  0  0  0  0
  5 13  1  0  0  0  0
  6 14  1  1  0  0  0
  6 34  1  0  0  0  0
  7  2  1  0  0  0  0
  8  2  1  0  0  0  0
  9  3  1  0  0  0  0
 12  5  1  0  0  0  0
 15 16  1  0  0  0  0
 16 21  2  0  0  0  0
 16 17  1  0  0  0  0
 17 18  2  0  0  0  0
 18 19  1  0  0  0  0
 18 22  1  0  0  0  0
 19 23  1  0  0  0  0
 20 24  1  0  0  0  0
 20 19  2  0  0  0  0
 21 20  1  0  0  0  0
 25 30  1  0  0  0  0
 25 31  1  0  0  0  0
 26 25  2  0  0  0  0
 27 28  2  0  0  0  0
 27 26  1  0  0  0  0
 28 29  1  0  0  0  0
 29 17  1  0  0  0  0
 29 30  2  0  0  0  0
 32 26  1  0  0  0  0
 33 27  1  0  0  0  0
 34 40  1  0  0  0  0
 35 34  2  0  0  0  0
 35 36  1  0  0  0  0
 36 38  2  0  0  0  0
 37 36  1  0  0  0  0
 38 39  1  0  0  0  0
 40 39  2  0  0  0  0
M  END
>  <minimizedAffinity>
-5.30851173

$$$$
