
 OpenBabel03252507083D

 22 23  0  0  0  0  0  0  0  0999 V2000
   44.5470   36.0070   44.4710 C   0  0  0  0  0  0  0  0  0  0  0  0
   45.1820   35.9670   43.2170 C   0  0  0  0  0  0  0  0  0  0  0  0
   46.0920   34.9260   42.9920 C   0  0  0  0  0  0  0  0  0  0  0  0
   46.3170   34.0200   43.9750 N   0  0  0  0  0  0  0  0  0  0  0  0
   45.6900   34.0840   45.1740 C   0  0  0  0  0  0  0  0  0  0  0  0
   44.8160   35.0690   45.4140 N   0  0  0  0  0  0  0  0  0  0  0  0
   43.8470   36.8430   44.5840 H   0  0  0  0  0  0  0  0  0  0  0  0
   44.9930   36.6960   42.4430 H   0  0  0  0  0  0  0  0  0  0  0  0
   45.9730   33.0790   46.1930 C   0  0  0  0  0  0  0  0  0  0  0  0
   46.9650   32.1530   45.9800 C   0  0  0  0  0  3  0  0  0  0  0  0
   47.1690   31.2420   46.9870 C   0  0  0  0  0  0  0  0  0  0  0  0
   47.9220   30.4570   46.9470 H   0  0  0  0  0  0  0  0  0  0  0  0
   46.4740   31.2130   48.1260 N   0  0  0  0  0  0  0  0  0  0  0  0
   45.4940   32.1460   48.3090 C   0  0  0  0  0  3  0  0  0  0  0  0
   45.2720   33.0520   47.3380 N   0  0  0  0  0  0  0  0  0  0  0  0
   46.7100   34.9040   41.7460 O   0  0  0  0  0  0  0  0  0  0  0  0
   48.6730   33.2780   41.0390 O   0  0  0  0  0  0  0  0  0  0  0  0
   48.4010   34.6330   41.6670 P   0  0  0  0  0  0  0  0  0  0  0  0
   49.0880   35.8800   40.7870 O   0  0  0  0  0  0  0  0  0  0  0  0
   50.0270   35.6290   40.5640 H   0  0  0  0  0  0  0  0  0  0  0  0
   48.9820   34.5960   43.2700 O   0  0  0  0  0  0  0  0  0  0  0  0
   48.7570   35.5000   43.6460 H   0  0  0  0  0  0  0  0  0  0  0  0
  1  7  1  0  0  0  0
  1  6  1  0  0  0  0
  2  1  2  0  0  0  0
  3  2  1  0  0  0  0
  3  4  2  0  0  0  0
  4  5  1  0  0  0  0
  5  6  2  0  0  0  0
  5  9  1  0  0  0  0
  8  2  1  0  0  0  0
  9 15  1  0  0  0  0
 10  9  2  0  0  0  0
 10 11  1  0  0  0  0
 11 13  2  0  0  0  0
 12 11  1  0  0  0  0
 13 14  1  0  0  0  0
 15 14  2  0  0  0  0
 16  3  1  0  0  0  0
 17 18  2  0  0  0  0
 18 16  1  0  0  0  0
 18 21  1  0  0  0  0
 19 18  1  0  0  0  0
 20 19  1  0  0  0  0
 21 22  1  0  0  0  0
M  END
>  <minimizedAffinity>
-5.66970825

>  <minimizedRMSD>
0.283463627

$$$$
