
 OpenBabel03242518433D

 17 18  0  0  0  0  0  0  0  0999 V2000
   44.8720   35.0580   44.5660 C   0  0  0  0  0  0  0  0  0  0  0  0
   45.7550   34.9680   43.4740 C   0  0  0  0  0  0  0  0  0  0  0  0
   46.8290   34.0740   43.5960 C   0  0  0  0  0  0  0  0  0  0  0  0
   46.9590   33.3500   44.7500 N   0  0  0  0  0  0  0  0  0  0  0  0
   46.0790   33.4810   45.7630 C   0  0  0  0  0  0  0  0  0  0  0  0
   45.0520   34.3270   45.6640 N   0  0  0  0  0  0  0  0  0  0  0  0
   45.6050   35.5660   42.5810 H   0  0  0  0  0  0  0  0  0  0  0  0
   47.5290   33.9740   42.7820 H   0  0  0  0  0  0  0  0  0  0  0  0
   46.2840   32.6740   46.9620 C   0  0  0  0  0  0  0  0  0  0  0  0
   45.2800   32.6150   47.9060 C   0  0  0  0  0  0  0  0  0  0  0  0
   45.5810   31.8170   49.0080 C   0  0  0  0  0  0  0  0  0  0  0  0
   44.7870   31.7610   49.7690 H   0  0  0  0  0  0  0  0  0  0  0  0
   46.7280   31.1420   49.1940 N   0  0  0  0  0  0  0  0  0  0  0  0
   47.6660   31.2440   48.2340 C   0  0  0  0  0  0  0  0  0  0  0  0
   47.4390   32.0060   47.1300 N   0  0  0  0  0  0  0  0  0  0  0  0
   43.8200   35.9300   44.4550 O   0  0  0  0  0  0  0  0  0  0  0  0
   42.8840   35.6090   44.1990 H   0  0  0  0  0  0  0  0  0  0  0  0
  1  6  1  0  0  0  0
  2  3  1  0  0  0  0
  2  1  2  0  0  0  0
  3  4  2  0  0  0  0
  4  5  1  0  0  0  0
  5  9  1  0  0  0  0
  6  5  2  0  0  0  0
  7  2  1  0  0  0  0
  8  3  1  0  0  0  0
  9 15  2  0  0  0  0
  9 10  1  0  0  0  0
 10 11  2  0  0  0  0
 11 13  1  0  0  0  0
 11 12  1  0  0  0  0
 14 13  2  0  0  0  0
 15 14  1  0  0  0  0
 16  1  1  0  0  0  0
 17 16  1  0  0  0  0
M  END
>  <minimizedAffinity>
-4.97132301

>  <minimizedRMSD>
1.50731015

$$$$
