
 OpenBabel03242510133D

 40 43  0  0  1  0  0  0  0  0999 V2000
   47.0200   33.0250   38.7310 N   0  0  0  0  0  0  0  0  0  0  0  0
   46.1250   33.3130   37.6040 C   0  0  0  0  0  0  0  0  0  0  0  0
   45.3760   32.0840   37.1610 C   0  0  0  0  0  0  0  0  0  0  0  0
   46.2870   31.0870   36.6290 N   0  0  0  0  0  0  0  0  0  0  0  0
   47.6350   31.3900   37.1160 C   0  0  0  0  0  0  0  0  0  0  0  0
   47.5350   31.6740   38.6220 C   0  0  1  0  0  0  0  0  0  0  0  0
   45.3940   34.0820   37.9180 H   0  0  0  0  0  0  0  0  0  0  0  0
   46.7030   33.7370   36.7760 H   0  0  0  0  0  0  0  0  0  0  0  0
   44.5470   32.3480   36.5140 H   0  0  0  0  0  0  0  0  0  0  0  0
   44.9430   31.6210   38.0890 H   0  0  0  0  0  0  0  0  0  0  0  0
   46.0230   30.1150   36.8030 H   0  0  0  0  0  0  0  0  0  0  0  0
   48.0870   32.2440   36.6180 H   0  0  0  0  0  0  0  0  0  0  0  0
   48.3170   30.5210   37.0040 H   0  0  0  0  0  0  0  0  0  0  0  0
   46.8240   30.9470   39.0860 H   0  0  0  0  0  0  0  0  0  0  0  0
   45.1020   32.8540   41.2100 Br  0  0  0  0  0  0  0  0  0  0  0  0
   46.6550   33.9530   40.9910 C   0  0  0  0  0  0  0  0  0  0  0  0
   47.0320   34.7870   42.0030 C   0  0  0  0  0  0  0  0  0  0  0  0
   48.1560   35.6130   41.8600 C   0  0  0  0  0  0  0  0  0  0  0  0
   48.8500   35.5520   40.6790 C   0  0  0  0  0  0  0  0  0  0  0  0
   48.4300   34.6960   39.6900 C   0  0  0  0  0  0  0  0  0  0  0  0
   47.3560   33.8940   39.8090 C   0  0  0  0  0  0  0  0  0  0  0  0
   48.3850   36.2450   42.7130 H   0  0  0  0  0  0  0  0  0  0  0  0
   49.7000   36.2170   40.6460 H   0  0  0  0  0  0  0  0  0  0  0  0
   49.0800   34.7970   38.8270 H   0  0  0  0  0  0  0  0  0  0  0  0
   45.7750   33.9450   45.3240 C   0  0  0  0  0  0  0  0  0  0  0  0
   44.7650   34.9230   45.5580 C   0  0  0  0  0  0  0  0  0  0  0  0
   44.5500   35.8510   44.5490 C   0  0  0  0  0  0  0  0  0  0  0  0
   45.2910   35.7820   43.4240 N   0  0  0  0  0  0  0  0  0  0  0  0
   46.2600   34.8210   43.2340 C   0  0  0  0  0  0  0  0  0  0  0  0
   46.4740   33.9220   44.2010 N   0  0  0  0  0  0  0  0  0  0  0  0
   45.9380   33.2250   46.1110 H   0  0  0  0  0  0  0  0  0  0  0  0
   44.1870   34.9480   46.4780 H   0  0  0  0  0  0  0  0  0  0  0  0
   43.8000   36.5940   44.6970 H   0  0  0  0  0  0  0  0  0  0  0  0
   48.8930   31.5390   39.1550 C   0  0  0  0  0  0  0  0  0  0  0  0
   49.9140   31.6370   38.1940 C   0  0  0  0  0  0  0  0  0  0  0  0
   51.2670   31.5580   38.4470 C   0  0  0  0  0  0  0  0  0  0  0  0
   52.0150   31.6390   37.6810 H   0  0  0  0  0  0  0  0  0  0  0  0
   51.6940   31.3720   39.7080 N   0  0  0  0  0  0  0  0  0  0  0  0
   50.7330   31.2760   40.6440 C   0  0  0  0  0  0  0  0  0  0  0  0
   49.4270   31.3570   40.3600 N   0  0  0  0  0  0  0  0  0  0  0  0
  1 21  1  0  0  0  0
  2  7  1  0  0  0  0
  2  1  1  0  0  0  0
  3  2  1  0  0  0  0
  3 10  1  0  0  0  0
  4 11  1  0  0  0  0
  4  5  1  0  0  0  0
  4  3  1  0  0  0  0
  5  6  1  0  0  0  0
  6  1  1  0  0  0  0
  6 14  1  1  0  0  0
  6 34  1  0  0  0  0
  8  2  1  0  0  0  0
  9  3  1  0  0  0  0
 12  5  1  0  0  0  0
 13  5  1  0  0  0  0
 16 15  1  0  0  0  0
 16 17  1  0  0  0  0
 17 29  1  0  0  0  0
 18 17  2  0  0  0  0
 18 22  1  0  0  0  0
 19 18  1  0  0  0  0
 20 21  1  0  0  0  0
 20 19  2  0  0  0  0
 21 16  2  0  0  0  0
 23 19  1  0  0  0  0
 24 20  1  0  0  0  0
 25 26  1  0  0  0  0
 25 31  1  0  0  0  0
 26 32  1  0  0  0  0
 27 33  1  0  0  0  0
 27 26  2  0  0  0  0
 28 27  1  0  0  0  0
 29 28  2  0  0  0  0
 29 30  1  0  0  0  0
 30 25  2  0  0  0  0
 34 40  1  0  0  0  0
 35 36  1  0  0  0  0
 35 34  2  0  0  0  0
 36 38  2  0  0  0  0
 37 36  1  0  0  0  0
 38 39  1  0  0  0  0
 40 39  2  0  0  0  0
M  END
>  <minimizedAffinity>
-5.88660049

>  <minimizedRMSD>
0.788504541

$$$$
