
 OpenBabel03242516523D

 43 46  0  0  1  0  0  0  0  0999 V2000
   47.8590   32.9130   41.8410 C   0  0  1  0  0  0  0  0  0  0  0  0
   47.5560   32.2840   40.5550 C   0  0  0  0  0  0  0  0  0  0  0  0
   48.5780   32.8250   39.5600 C   0  0  0  0  0  0  0  0  0  0  0  0
   48.2330   34.2720   39.3290 C   0  0  0  0  0  0  0  0  0  0  0  0
   48.1510   35.0860   40.5850 C   0  0  0  0  0  0  0  0  0  0  0  0
   47.6480   34.4310   41.8010 C   0  0  1  0  0  0  0  0  0  0  0  0
   48.9750   32.8350   42.0240 H   0  0  0  0  0  0  0  0  0  0  0  0
   46.5600   32.4770   40.1670 H   0  0  0  0  0  0  0  0  0  0  0  0
   47.6780   31.1740   40.6760 H   0  0  0  0  0  0  0  0  0  0  0  0
   49.6150   32.7080   39.9120 H   0  0  0  0  0  0  0  0  0  0  0  0
   48.3690   32.3100   38.5870 H   0  0  0  0  0  0  0  0  0  0  0  0
   47.2840   34.3230   38.7250 H   0  0  0  0  0  0  0  0  0  0  0  0
   49.0250   34.6780   38.6620 H   0  0  0  0  0  0  0  0  0  0  0  0
   49.1730   35.5360   40.7450 H   0  0  0  0  0  0  0  0  0  0  0  0
   47.5150   35.9750   40.3540 H   0  0  0  0  0  0  0  0  0  0  0  0
   48.2340   34.8180   42.6790 H   0  0  0  0  0  0  0  0  0  0  0  0
   45.4380   30.9320   43.9540 C   0  0  0  0  0  0  0  0  0  0  0  0
   46.1190   31.4950   42.8720 C   0  0  0  0  0  0  0  0  0  0  0  0
   47.2050   32.3630   43.0090 C   0  0  0  0  0  0  0  0  0  0  0  0
   47.5700   32.6360   44.2630 N   0  0  0  0  0  0  0  0  0  0  0  0
   46.9170   32.0940   45.3220 C   0  0  0  0  0  0  0  0  0  0  0  0
   45.8800   31.2650   45.1850 N   0  0  0  0  0  0  0  0  0  0  0  0
   44.6170   30.2750   43.8040 H   0  0  0  0  0  0  0  0  0  0  0  0
   45.7780   31.2390   41.8580 H   0  0  0  0  0  0  0  0  0  0  0  0
   47.2750   32.3660   46.3070 H   0  0  0  0  0  0  0  0  0  0  0  0
   46.2600   34.7880   42.1000 C   0  0  0  0  0  0  0  0  0  0  0  0
   45.8010   35.3850   43.2770 C   0  0  0  0  0  0  0  0  0  0  0  0
   44.4300   35.6510   43.3370 C   0  0  0  0  0  0  0  0  0  0  0  0
   43.6550   35.3060   42.2420 C   0  0  0  0  0  0  0  0  0  0  0  0
   44.1270   34.7140   41.0800 C   0  0  0  0  0  0  0  0  0  0  0  0
   45.4690   34.4660   41.0520 N   0  0  0  0  0  0  0  0  0  0  0  0
   46.5270   35.5870   44.0290 H   0  0  0  0  0  0  0  0  0  0  0  0
   44.0640   36.1040   44.2250 H   0  0  0  0  0  0  0  0  0  0  0  0
   42.5970   35.5350   42.3390 H   0  0  0  0  0  0  0  0  0  0  0  0
   43.2180   34.3980   39.9870 C   0  0  0  0  0  0  0  0  0  0  0  0
   42.5890   35.3710   39.4610 O   0  0  0  0  0  0  0  0  0  0  0  0
   42.9330   33.0900   39.4100 C   0  0  0  0  0  0  0  0  0  0  0  0
   42.0120   33.0250   38.3880 C   0  0  0  0  0  3  0  0  0  0  0  0
   41.7090   31.7860   37.8120 C   0  0  0  0  0  0  0  0  0  0  0  0
   40.9890   31.7070   37.0070 H   0  0  0  0  0  0  0  0  0  0  0  0
   42.3320   30.6680   38.2740 N   0  0  0  0  0  0  0  0  0  0  0  0
   43.2190   30.7300   39.2580 C   0  0  0  0  0  3  0  0  0  0  0  0
   43.4760   31.9190   39.7750 N   0  0  0  0  0  0  0  0  0  0  0  0
  1  7  1  1  0  0  0
  1 19  1  0  0  0  0
  2  9  1  0  0  0  0
  2  1  1  0  0  0  0
  3 10  1  0  0  0  0
  3  2  1  0  0  0  0
  4  3  1  0  0  0  0
  4  5  1  0  0  0  0
  5 14  1  0  0  0  0
  5  6  1  0  0  0  0
  6  1  1  0  0  0  0
  6 26  1  0  0  0  0
  6 16  1  1  0  0  0
  8  2  1  0  0  0  0
 11  3  1  0  0  0  0
 12  4  1  0  0  0  0
 13  4  1  0  0  0  0
 15  5  1  0  0  0  0
 17 22  1  0  0  0  0
 18 19  1  0  0  0  0
 18 17  2  0  0  0  0
 19 20  2  0  0  0  0
 20 21  1  0  0  0  0
 21 25  1  0  0  0  0
 22 21  2  0  0  0  0
 23 17  1  0  0  0  0
 24 18  1  0  0  0  0
 26 27  1  0  0  0  0
 27 28  2  0  0  0  0
 27 32  1  0  0  0  0
 28 33  1  0  0  0  0
 29 34  1  0  0  0  0
 29 28  1  0  0  0  0
 30 29  2  0  0  0  0
 31 30  1  0  0  0  0
 31 26  2  0  0  0  0
 35 30  1  0  0  0  0
 36 35  2  0  0  0  0
 37 43  1  0  0  0  0
 37 35  1  0  0  0  0
 38 37  2  0  0  0  0
 39 41  2  0  0  0  0
 39 38  1  0  0  0  0
 40 39  1  0  0  0  0
 41 42  1  0  0  0  0
 42 43  2  0  0  0  0
M  END
>  <minimizedAffinity>
-5.27223825

>  <minimizedRMSD>
0.369586468

$$$$
