
 OpenBabel03242516523D

 43 46  0  0  1  0  0  0  0  0999 V2000
   47.8310   32.8840   41.8250 C   0  0  1  0  0  0  0  0  0  0  0  0
   47.5070   32.2340   40.5550 C   0  0  0  0  0  0  0  0  0  0  0  0
   48.5170   32.7530   39.5370 C   0  0  0  0  0  0  0  0  0  0  0  0
   48.1750   34.1980   39.2860 C   0  0  0  0  0  0  0  0  0  0  0  0
   48.1140   35.0330   40.5280 C   0  0  0  0  0  0  0  0  0  0  0  0
   47.6260   34.4020   41.7630 C   0  0  1  0  0  0  0  0  0  0  0  0
   48.9490   32.8040   41.9940 H   0  0  0  0  0  0  0  0  0  0  0  0
   46.5060   32.4250   40.1780 H   0  0  0  0  0  0  0  0  0  0  0  0
   47.6260   31.1260   40.6930 H   0  0  0  0  0  0  0  0  0  0  0  0
   49.5590   32.6380   39.8760 H   0  0  0  0  0  0  0  0  0  0  0  0
   48.2920   32.2230   38.5750 H   0  0  0  0  0  0  0  0  0  0  0  0
   47.2180   34.2420   38.6940 H   0  0  0  0  0  0  0  0  0  0  0  0
   48.9590   34.5880   38.6010 H   0  0  0  0  0  0  0  0  0  0  0  0
   49.1400   35.4820   40.6660 H   0  0  0  0  0  0  0  0  0  0  0  0
   47.4790   35.9210   40.2910 H   0  0  0  0  0  0  0  0  0  0  0  0
   48.2250   34.8020   42.6260 H   0  0  0  0  0  0  0  0  0  0  0  0
   45.4280   30.9540   44.0060 C   0  0  0  0  0  0  0  0  0  0  0  0
   46.0960   31.4960   42.9050 C   0  0  0  0  0  0  0  0  0  0  0  0
   47.1900   32.3570   43.0120 C   0  0  0  0  0  0  0  0  0  0  0  0
   47.5770   32.6460   44.2550 N   0  0  0  0  0  0  0  0  0  0  0  0
   46.9360   32.1260   45.3330 C   0  0  0  0  0  0  0  0  0  0  0  0
   45.8920   31.3030   45.2240 N   0  0  0  0  0  0  0  0  0  0  0  0
   44.6000   30.3020   43.8790 H   0  0  0  0  0  0  0  0  0  0  0  0
   45.7370   31.2270   41.9010 H   0  0  0  0  0  0  0  0  0  0  0  0
   47.3120   32.4100   46.3080 H   0  0  0  0  0  0  0  0  0  0  0  0
   46.2430   34.7700   42.0750 C   0  0  0  0  0  0  0  0  0  0  0  0
   45.8010   35.3730   43.2550 C   0  0  0  0  0  0  0  0  0  0  0  0
   44.4330   35.6500   43.3280 C   0  0  0  0  0  0  0  0  0  0  0  0
   43.6450   35.3090   42.2410 C   0  0  0  0  0  0  0  0  0  0  0  0
   44.1000   34.7110   41.0760 C   0  0  0  0  0  0  0  0  0  0  0  0
   45.4400   34.4530   41.0350 N   0  0  0  0  0  0  0  0  0  0  0  0
   46.5360   35.5710   43.9990 H   0  0  0  0  0  0  0  0  0  0  0  0
   44.0790   36.1070   44.2190 H   0  0  0  0  0  0  0  0  0  0  0  0
   42.5890   35.5460   42.3490 H   0  0  0  0  0  0  0  0  0  0  0  0
   43.1770   34.4000   39.9920 C   0  0  0  0  0  0  0  0  0  0  0  0
   42.6260   35.3850   39.4040 O   0  0  0  0  0  0  0  0  0  0  0  0
   42.7990   33.0860   39.4880 C   0  0  0  0  0  0  0  0  0  0  0  0
   42.7140   32.0510   40.3920 C   0  0  0  0  0  3  0  0  0  0  0  0
   42.3570   30.7740   39.9450 C   0  0  0  0  0  0  0  0  0  0  0  0
   42.2830   29.9420   40.6350 H   0  0  0  0  0  0  0  0  0  0  0  0
   42.1000   30.5800   38.6220 N   0  0  0  0  0  0  0  0  0  0  0  0
   42.1820   31.5770   37.7500 C   0  0  0  0  0  3  0  0  0  0  0  0
   42.5220   32.7670   38.2140 N   0  0  0  0  0  0  0  0  0  0  0  0
  1  7  1  1  0  0  0
  1 19  1  0  0  0  0
  2  9  1  0  0  0  0
  2  1  1  0  0  0  0
  3 10  1  0  0  0  0
  3  2  1  0  0  0  0
  4  3  1  0  0  0  0
  4  5  1  0  0  0  0
  5 14  1  0  0  0  0
  5  6  1  0  0  0  0
  6  1  1  0  0  0  0
  6 26  1  0  0  0  0
  6 16  1  1  0  0  0
  8  2  1  0  0  0  0
 11  3  1  0  0  0  0
 12  4  1  0  0  0  0
 13  4  1  0  0  0  0
 15  5  1  0  0  0  0
 17 22  1  0  0  0  0
 18 19  1  0  0  0  0
 18 17  2  0  0  0  0
 19 20  2  0  0  0  0
 20 21  1  0  0  0  0
 21 25  1  0  0  0  0
 22 21  2  0  0  0  0
 23 17  1  0  0  0  0
 24 18  1  0  0  0  0
 26 27  1  0  0  0  0
 27 28  2  0  0  0  0
 27 32  1  0  0  0  0
 28 33  1  0  0  0  0
 29 34  1  0  0  0  0
 29 28  1  0  0  0  0
 30 29  2  0  0  0  0
 31 30  1  0  0  0  0
 31 26  2  0  0  0  0
 35 30  1  0  0  0  0
 36 35  2  0  0  0  0
 37 35  1  0  0  0  0
 37 38  1  0  0  0  0
 39 38  2  0  0  0  0
 39 40  1  0  0  0  0
 41 39  1  0  0  0  0
 42 43  1  0  0  0  0
 42 41  2  0  0  0  0
 43 37  2  0  0  0  0
M  END
>  <minimizedAffinity>
-5.1825223

>  <minimizedRMSD>
0.489852667

$$$$
