
     RDKit          3D

 32 34  0  0  0  0  0  0  0  0999 V2000
   44.6165   35.1309   44.2181 C   0  0  0  0  0  0  0  0  0  0  0  0
   44.7367   34.1102   43.2812 C   0  0  0  0  0  0  0  0  0  0  0  0
   45.3276   32.9067   43.6912 C   0  0  0  0  0  0  0  0  0  0  0  0
   45.7665   32.7585   44.9709 N   0  0  0  0  0  0  0  0  0  0  0  0
   45.6312   33.7831   45.8590 C   0  0  0  0  0  0  0  0  0  0  0  0
   45.0658   34.9479   45.4878 N   0  0  0  0  0  0  0  0  0  0  0  0
   44.2752   34.3752   41.9827 N   0  0  0  0  0  0  0  0  0  0  0  0
   44.4452   33.4043   40.9663 C   0  0  1  0  0  0  0  0  0  0  0  0
   43.7904   33.6916   39.6713 C   0  0  0  0  0  0  0  0  0  0  0  0
   42.6090   34.4454   39.6775 N   0  0  0  0  0  0  0  0  0  0  0  0
   42.3752   35.3110   40.7536 C   0  0  0  0  0  0  0  0  0  0  0  0
   43.6397   35.5750   41.5384 C   0  0  0  0  0  0  0  0  0  0  0  0
   44.1994   36.1166   44.1087 H   0  0  0  0  0  0  0  0  0  0  0  0
   45.4227   32.1154   42.9960 H   0  0  0  0  0  0  0  0  0  0  0  0
   46.0037   33.5987   46.8668 H   0  0  0  0  0  0  0  0  0  0  0  0
   44.0649   32.4248   41.3549 H   0  0  0  0  0  0  0  0  0  0  0  0
   44.5323   34.2210   38.9977 H   0  0  0  0  0  0  0  0  0  0  0  0
   43.6112   32.7238   39.1307 H   0  0  0  0  0  0  0  0  0  0  0  0
   42.4990   34.9470   38.7670 H   0  0  0  0  0  0  0  0  0  0  0  0
   41.5891   34.8565   41.4080 H   0  0  0  0  0  0  0  0  0  0  0  0
   41.9755   36.3059   40.4305 H   0  0  0  0  0  0  0  0  0  0  0  0
   43.4818   36.3593   42.2811 H   0  0  0  0  0  0  0  0  0  0  0  0
   44.3302   36.0571   40.7740 H   0  0  0  0  0  0  0  0  0  0  0  0
   45.9041   33.1671   40.6465 C   0  0  0  0  0  0  0  0  0  0  0  0
   46.8275   33.9551   39.9958 C   0  0  0  0  0  0  0  0  0  0  0  0
   48.1032   33.4738   39.8472 C   0  0  0  0  0  0  0  0  0  0  0  0
   48.7638   34.1580   39.3240 H   0  0  0  0  0  0  0  0  0  0  0  0
   48.4359   32.2619   40.3275 N   0  0  0  0  0  0  0  0  0  0  0  0
   47.5372   31.5132   40.9520 C   0  0  0  0  0  0  0  0  0  0  0  0
   46.2650   31.9419   41.1249 N   0  0  0  0  0  0  0  0  0  0  0  0
   46.3744   34.8850   39.6860 H   0  0  0  0  0  0  0  0  0  0  0  0
   47.9376   30.5639   41.2869 H   0  0  0  0  0  0  0  0  0  0  0  0
  1  6  2  0
  2  3  2  0
  2  1  1  0
  3  4  1  0
  4  5  2  0
  6  5  1  0
  7  2  1  0
  8  7  1  0
  9 10  1  0
  9  8  1  0
 10 11  1  0
 11 12  1  0
 12  7  1  0
  1 13  1  0
  3 14  1  0
  5 15  1  0
  8 16  1  1
  9 17  1  0
  9 18  1  0
 10 19  1  0
 11 20  1  0
 11 21  1  0
 12 22  1  0
 12 23  1  0
 24 25  2  0
 25 26  1  0
 26 27  1  0
 26 28  2  0
 28 29  1  0
 29 30  2  0
 30 24  1  0
 25 31  1  0
 29 32  1  0
  8 24  1  0
M  ISO  8  13  14  14  14  15  14  16  13  17  13  18  13  19   5  20  13
M  ISO  4  21  13  22  13  23  13  27  14
M  END
>  <DihAtoms>  (1) 
6,7,23,24

>  <DihDeg>  (1) 
138.27554620596578

$$$$
