
 OpenBabel03252508323D

 30 32  0  0  1  0  0  0  0  0999 V2000
   44.3760   34.4280   41.6920 N   0  0  0  0  0  0  0  0  0  0  0  0
   44.9180   33.4160   40.8620 C   0  0  1  0  0  0  0  0  0  0  0  0
   44.4690   33.4160   39.4530 C   0  0  0  0  0  0  0  0  0  0  0  0
   43.1810   33.8870   39.1670 N   0  0  0  0  0  0  0  0  0  0  0  0
   42.5870   34.7890   40.0600 C   0  0  0  0  0  0  0  0  0  0  0  0
   43.6090   35.4050   40.9880 C   0  0  0  0  0  0  0  0  0  0  0  0
   44.6750   32.4240   41.3210 H   0  0  0  0  0  0  0  0  0  0  0  0
   45.2020   34.0210   38.8370 H   0  0  0  0  0  0  0  0  0  0  0  0
   44.5870   32.3810   39.0340 H   0  0  0  0  0  0  0  0  0  0  0  0
   43.1430   34.2540   38.1890 H   0  0  0  0  0  0  0  0  0  0  0  0
   41.8000   34.2440   40.6400 H   0  0  0  0  0  0  0  0  0  0  0  0
   42.0640   35.6330   39.5400 H   0  0  0  0  0  0  0  0  0  0  0  0
   43.1650   36.2090   41.5780 H   0  0  0  0  0  0  0  0  0  0  0  0
   44.3180   35.9440   40.2810 H   0  0  0  0  0  0  0  0  0  0  0  0
   44.3430   35.5640   43.7880 C   0  0  0  0  0  0  0  0  0  0  0  0
   44.6350   34.4080   43.0710 C   0  0  0  0  0  0  0  0  0  0  0  0
   45.1850   33.3240   43.7680 C   0  0  0  0  0  0  0  0  0  0  0  0
   45.4210   33.4150   45.1060 N   0  0  0  0  0  0  0  0  0  0  0  0
   45.1200   34.5650   45.7710 C   0  0  0  0  0  0  0  0  0  0  0  0
   44.5910   35.6200   45.1230 N   0  0  0  0  0  0  0  0  0  0  0  0
   43.9220   36.4950   43.4470 H   0  0  0  0  0  0  0  0  0  0  0  0
   45.4080   32.4330   43.2430 H   0  0  0  0  0  0  0  0  0  0  0  0
   45.3350   34.5730   46.8400 H   0  0  0  0  0  0  0  0  0  0  0  0
   46.4290   33.4730   40.8140 C   0  0  0  0  0  0  0  0  0  0  0  0
   47.2960   34.5430   40.8300 C   0  0  0  0  0  3  0  0  0  0  0  0
   48.6420   34.2900   40.7730 C   0  0  0  0  0  0  0  0  0  0  0  0
   49.2510   35.1880   40.7910 H   0  0  0  0  0  0  0  0  0  0  0  0
   49.0970   33.0250   40.7030 N   0  0  0  0  0  0  0  0  0  0  0  0
   48.2520   32.0040   40.6870 C   0  0  0  0  0  3  0  0  0  0  0  0
   46.9140   32.1990   40.7420 N   0  0  0  0  0  0  0  0  0  0  0  0
  1 16  1  0  0  0  0
  2  7  1  1  0  0  0
  2  1  1  0  0  0  0
  3  2  1  0  0  0  0
  4  3  1  0  0  0  0
  4  5  1  0  0  0  0
  5 11  1  0  0  0  0
  5  6  1  0  0  0  0
  6 13  1  0  0  0  0
  6  1  1  0  0  0  0
  8  3  1  0  0  0  0
  9  3  1  0  0  0  0
 10  4  1  0  0  0  0
 12  5  1  0  0  0  0
 14  6  1  0  0  0  0
 15 20  1  0  0  0  0
 16 17  1  0  0  0  0
 16 15  2  0  0  0  0
 17 18  2  0  0  0  0
 18 19  1  0  0  0  0
 19 23  1  0  0  0  0
 20 19  2  0  0  0  0
 21 15  1  0  0  0  0
 22 17  1  0  0  0  0
 24 25  1  0  0  0  0
 24  2  1  0  0  0  0
 26 27  1  0  0  0  0
 26 25  2  0  0  0  0
 28 26  1  0  0  0  0
 29 28  2  0  0  0  0
 29 30  1  0  0  0  0
 30 24  2  0  0  0  0
M  END
>  <minimizedAffinity>
-4.32458735

>  <minimizedRMSD>
0.945940912

$$$$
