
 OpenBabel03242516493D

 41 44  0  0  1  0  0  0  0  0999 V2000
   47.8060   32.8460   41.6830 C   0  0  1  0  0  0  0  0  0  0  0  0
   47.3990   32.1480   40.4460 C   0  0  0  0  0  0  0  0  0  0  0  0
   48.4000   32.5850   39.3760 C   0  0  0  0  0  0  0  0  0  0  0  0
   48.1210   34.0480   39.0880 C   0  0  0  0  0  0  0  0  0  0  0  0
   48.1420   34.9240   40.3010 C   0  0  0  0  0  0  0  0  0  0  0  0
   47.6700   34.3500   41.5660 C   0  0  1  0  0  0  0  0  0  0  0  0
   48.9190   32.6950   41.8250 H   0  0  0  0  0  0  0  0  0  0  0  0
   46.3800   32.4170   40.1260 H   0  0  0  0  0  0  0  0  0  0  0  0
   47.4490   31.0540   40.6250 H   0  0  0  0  0  0  0  0  0  0  0  0
   49.4190   32.3910   39.7090 H   0  0  0  0  0  0  0  0  0  0  0  0
   48.1140   32.0400   38.4460 H   0  0  0  0  0  0  0  0  0  0  0  0
   47.1580   34.0880   38.5340 H   0  0  0  0  0  0  0  0  0  0  0  0
   48.9030   34.3770   38.3630 H   0  0  0  0  0  0  0  0  0  0  0  0
   49.1820   35.3250   40.4000 H   0  0  0  0  0  0  0  0  0  0  0  0
   47.5290   35.8340   40.0660 H   0  0  0  0  0  0  0  0  0  0  0  0
   48.3160   34.7550   42.4050 H   0  0  0  0  0  0  0  0  0  0  0  0
   45.4400   31.0480   44.0160 C   0  0  0  0  0  0  0  0  0  0  0  0
   46.0840   31.5250   42.8760 C   0  0  0  0  0  0  0  0  0  0  0  0
   47.1800   32.3750   42.9120 C   0  0  0  0  0  0  0  0  0  0  0  0
   47.6010   32.7280   44.1380 N   0  0  0  0  0  0  0  0  0  0  0  0
   46.9860   32.2740   45.2570 C   0  0  0  0  0  0  0  0  0  0  0  0
   45.9390   31.4610   45.2140 N   0  0  0  0  0  0  0  0  0  0  0  0
   44.5950   30.3910   43.9420 H   0  0  0  0  0  0  0  0  0  0  0  0
   45.6690   31.1830   41.9440 H   0  0  0  0  0  0  0  0  0  0  0  0
   47.4440   32.6490   46.1780 H   0  0  0  0  0  0  0  0  0  0  0  0
   46.3110   34.7940   41.9300 C   0  0  0  0  0  0  0  0  0  0  0  0
   45.9410   35.5080   43.0750 C   0  0  0  0  0  0  0  0  0  0  0  0
   44.5820   35.8330   43.1780 C   0  0  0  0  0  0  0  0  0  0  0  0
   43.7390   35.4310   42.1660 C   0  0  0  0  0  0  0  0  0  0  0  0
   44.1190   34.7310   41.0490 C   0  0  0  0  0  0  0  0  0  0  0  0
   45.4330   34.4180   40.9520 N   0  0  0  0  0  0  0  0  0  0  0  0
   46.7350   35.7290   43.7470 H   0  0  0  0  0  0  0  0  0  0  0  0
   44.3170   36.3740   44.0510 H   0  0  0  0  0  0  0  0  0  0  0  0
   42.7050   35.7400   42.3540 H   0  0  0  0  0  0  0  0  0  0  0  0
   43.1250   34.3590   40.0380 C   0  0  0  0  0  0  0  0  0  0  0  0
   43.1710   33.1650   39.3810 C   0  0  0  0  0  0  0  0  0  0  0  0
   42.1600   32.9770   38.4630 C   0  0  0  0  0  0  0  0  0  0  0  0
   42.1010   32.0640   37.8850 H   0  0  0  0  0  0  0  0  0  0  0  0
   41.1850   33.8640   38.1970 N   0  0  0  0  0  0  0  0  0  0  0  0
   41.1840   35.0410   38.8800 C   0  0  0  0  0  0  0  0  0  0  0  0
   42.1630   35.2680   39.7960 N   0  0  0  0  0  0  0  0  0  0  0  0
  1  7  1  1  0  0  0
  1 19  1  0  0  0  0
  2  9  1  0  0  0  0
  2  1  1  0  0  0  0
  3 10  1  0  0  0  0
  3  2  1  0  0  0  0
  4  3  1  0  0  0  0
  4  5  1  0  0  0  0
  5 14  1  0  0  0  0
  5  6  1  0  0  0  0
  6  1  1  0  0  0  0
  6 26  1  0  0  0  0
  6 16  1  1  0  0  0
  8  2  1  0  0  0  0
 11  3  1  0  0  0  0
 12  4  1  0  0  0  0
 13  4  1  0  0  0  0
 15  5  1  0  0  0  0
 17 22  1  0  0  0  0
 18 19  1  0  0  0  0
 18 17  2  0  0  0  0
 19 20  2  0  0  0  0
 20 21  1  0  0  0  0
 21 25  1  0  0  0  0
 22 21  2  0  0  0  0
 23 17  1  0  0  0  0
 24 18  1  0  0  0  0
 26 27  1  0  0  0  0
 27 28  2  0  0  0  0
 27 32  1  0  0  0  0
 28 33  1  0  0  0  0
 29 34  1  0  0  0  0
 29 28  1  0  0  0  0
 30 29  2  0  0  0  0
 31 30  1  0  0  0  0
 31 26  2  0  0  0  0
 35 30  1  0  0  0  0
 36 35  2  0  0  0  0
 37 36  1  0  0  0  0
 38 37  1  0  0  0  0
 39 37  2  0  0  0  0
 39 40  1  0  0  0  0
 40 41  2  0  0  0  0
 41 35  1  0  0  0  0
M  END
>  <minimizedAffinity>
-5.61158752

>  <minimizedRMSD>
0.382414252

$$$$
