
 OpenBabel03252500573D

 36 38  0  0  0  0  0  0  0  0999 V2000
   43.7740   34.8490   40.1420 O   0  0  0  0  0  0  0  0  0  0  0  0
   43.3150   34.7070   41.5910 P   0  0  1  0  0  0  0  0  0  0  0  0
   43.2120   33.0600   41.9550 O   0  0  0  0  0  0  0  0  0  0  0  0
   43.4300   32.9460   42.9210 H   0  0  0  0  0  0  0  0  0  0  0  0
   44.4720   35.3980   42.6160 O   0  0  0  0  0  0  0  0  0  0  0  0
   46.5390   34.3500   43.0330 C   0  0  0  0  0  0  0  0  0  0  0  0
   45.3050   34.7230   43.4990 C   0  0  0  0  0  0  0  0  0  0  0  0
   44.9730   34.3980   44.8270 C   0  0  0  0  0  0  0  0  0  0  0  0
   45.8960   33.7390   45.5510 N   0  0  0  0  0  0  0  0  0  0  0  0
   47.0910   33.3880   45.0750 C   0  0  0  0  0  0  0  0  0  0  0  0
   47.4090   33.6960   43.8100 N   0  0  0  0  0  0  0  0  0  0  0  0
   43.9990   34.7030   45.1660 H   0  0  0  0  0  0  0  0  0  0  0  0
   47.7910   32.8570   45.7120 H   0  0  0  0  0  0  0  0  0  0  0  0
   46.9490   34.6550   41.6640 C   0  0  0  0  0  0  0  0  0  0  0  0
   46.2570   35.2960   41.0980 H   0  0  0  0  0  0  0  0  0  0  0  0
   47.0850   33.6790   41.1430 H   0  0  0  0  0  0  0  0  0  0  0  0
   48.2900   35.3390   41.6850 C   0  0  0  0  0  0  0  0  0  0  0  0
   48.4270   36.0050   40.8050 H   0  0  0  0  0  0  0  0  0  0  0  0
   49.1380   34.6390   41.8070 H   0  0  0  0  0  0  0  0  0  0  0  0
   48.3200   36.0030   42.5770 H   0  0  0  0  0  0  0  0  0  0  0  0
   41.7720   35.3880   41.7810 O   0  0  0  0  0  0  0  0  0  0  0  0
   40.6850   34.6890   41.2690 C   0  0  0  0  0  0  0  0  0  0  0  0
   39.9020   35.3440   40.3240 C   0  0  0  0  0  0  0  0  0  0  0  0
   38.7950   34.7560   39.7400 C   0  0  0  0  0  0  0  0  0  0  0  0
   38.4880   33.4830   40.1330 N   0  0  0  0  0  0  0  0  0  0  0  0
   39.2320   32.8510   41.0370 C   0  0  0  0  0  0  0  0  0  0  0  0
   40.3000   33.4490   41.5830 N   0  0  0  0  0  0  0  0  0  0  0  0
   40.1690   36.3590   40.0280 H   0  0  0  0  0  0  0  0  0  0  0  0
   38.1880   35.2560   39.0100 H   0  0  0  0  0  0  0  0  0  0  0  0
   38.8940   31.4730   41.4550 C   0  0  0  0  0  0  0  0  0  0  0  0
   37.6540   30.9560   41.1370 C   0  0  0  0  0  0  0  0  0  0  0  0
   37.3860   29.6490   41.5580 C   0  0  0  0  0  0  0  0  0  0  0  0
   36.4120   29.2570   41.3030 H   0  0  0  0  0  0  0  0  0  0  0  0
   38.3270   28.9690   42.2370 N   0  0  0  0  0  0  0  0  0  0  0  0
   39.5340   29.4720   42.5470 C   0  0  0  0  0  0  0  0  0  0  0  0
   39.7860   30.7340   42.1380 N   0  0  0  0  0  0  0  0  0  0  0  0
  2  1  2  6  0  0  0
  2 21  1  0  0  0  0
  2  3  1  0  0  0  0
  2  5  1  0  0  0  0
  3  4  1  0  0  0  0
  5  7  1  0  0  0  0
  6  7  2  0  0  0  0
  6 11  1  0  0  0  0
  7  8  1  0  0  0  0
  8 12  1  0  0  0  0
  8  9  2  0  0  0  0
 10  9  1  0  0  0  0
 10 13  1  0  0  0  0
 11 10  2  0  0  0  0
 14 17  1  0  0  0  0
 14  6  1  0  0  0  0
 15 14  1  0  0  0  0
 16 14  1  0  0  0  0
 17 19  1  0  0  0  0
 17 20  1  0  0  0  0
 18 17  1  0  0  0  0
 22 27  1  0  0  0  0
 22 21  1  0  0  0  0
 23 22  2  0  0  0  0
 24 25  2  0  0  0  0
 24 23  1  0  0  0  0
 25 26  1  0  0  0  0
 26 30  1  0  0  0  0
 26 27  2  0  0  0  0
 28 23  1  0  0  0  0
 29 24  1  0  0  0  0
 30 36  1  0  0  0  0
 31 30  2  0  0  0  0
 31 32  1  0  0  0  0
 32 34  2  0  0  0  0
 33 32  1  0  0  0  0
 34 35  1  0  0  0  0
 36 35  2  0  0  0  0
M  END
>  <minimizedAffinity>
-5.92916012

>  <minimizedRMSD>
0.441073656

$$$$
