
 OpenBabel03252508323D

 30 32  0  0  1  0  0  0  0  0999 V2000
   44.6890   33.9880   42.6110 N   0  0  0  0  0  0  0  0  0  0  0  0
   44.8790   33.3450   41.3630 C   0  0  1  0  0  0  0  0  0  0  0  0
   44.2110   33.9660   40.1990 C   0  0  0  0  0  0  0  0  0  0  0  0
   43.0120   34.6570   40.4120 N   0  0  0  0  0  0  0  0  0  0  0  0
   42.7610   35.1820   41.6870 C   0  0  0  0  0  0  0  0  0  0  0  0
   44.0220   35.2480   42.5170 C   0  0  0  0  0  0  0  0  0  0  0  0
   44.5250   32.2870   41.4630 H   0  0  0  0  0  0  0  0  0  0  0  0
   44.9370   34.6810   39.7020 H   0  0  0  0  0  0  0  0  0  0  0  0
   44.0540   33.1830   39.4090 H   0  0  0  0  0  0  0  0  0  0  0  0
   42.8850   35.3910   39.6770 H   0  0  0  0  0  0  0  0  0  0  0  0
   41.9890   34.5430   42.1850 H   0  0  0  0  0  0  0  0  0  0  0  0
   42.3350   36.2170   41.6530 H   0  0  0  0  0  0  0  0  0  0  0  0
   43.8480   35.7900   43.4490 H   0  0  0  0  0  0  0  0  0  0  0  0
   44.6970   35.9420   41.9200 H   0  0  0  0  0  0  0  0  0  0  0  0
   45.4380   34.2180   44.8620 C   0  0  0  0  0  0  0  0  0  0  0  0
   45.1630   33.3830   43.7840 C   0  0  0  0  0  0  0  0  0  0  0  0
   45.4000   32.0100   43.9380 C   0  0  0  0  0  0  0  0  0  0  0  0
   45.8860   31.5240   45.1140 N   0  0  0  0  0  0  0  0  0  0  0  0
   46.1420   32.3760   46.1460 C   0  0  0  0  0  0  0  0  0  0  0  0
   45.9210   33.6990   46.0220 N   0  0  0  0  0  0  0  0  0  0  0  0
   45.3260   35.2850   44.9500 H   0  0  0  0  0  0  0  0  0  0  0  0
   45.1920   31.3570   43.1330 H   0  0  0  0  0  0  0  0  0  0  0  0
   46.5300   31.9230   47.0590 H   0  0  0  0  0  0  0  0  0  0  0  0
   46.3420   33.2430   40.9950 C   0  0  0  0  0  0  0  0  0  0  0  0
   47.1460   32.1450   40.7760 C   0  0  0  0  0  3  0  0  0  0  0  0
   48.4610   32.3570   40.4490 C   0  0  0  0  0  0  0  0  0  0  0  0
   49.0190   31.4400   40.2950 H   0  0  0  0  0  0  0  0  0  0  0  0
   48.9460   33.6080   40.3490 N   0  0  0  0  0  0  0  0  0  0  0  0
   48.1620   34.6560   40.5630 C   0  0  0  0  0  3  0  0  0  0  0  0
   46.8570   34.5000   40.8870 N   0  0  0  0  0  0  0  0  0  0  0  0
  1 16  1  0  0  0  0
  2  7  1  1  0  0  0
  2  1  1  0  0  0  0
  3  4  1  0  0  0  0
  3  2  1  0  0  0  0
  4  5  1  0  0  0  0
  5 11  1  0  0  0  0
  5  6  1  0  0  0  0
  6  1  1  0  0  0  0
  6 13  1  0  0  0  0
  8  3  1  0  0  0  0
  9  3  1  0  0  0  0
 10  4  1  0  0  0  0
 12  5  1  0  0  0  0
 14  6  1  0  0  0  0
 15 21  1  0  0  0  0
 15 20  1  0  0  0  0
 16 17  1  0  0  0  0
 16 15  2  0  0  0  0
 17 18  2  0  0  0  0
 18 19  1  0  0  0  0
 19 23  1  0  0  0  0
 20 19  2  0  0  0  0
 22 17  1  0  0  0  0
 24  2  1  0  0  0  0
 25 24  2  0  0  0  0
 26 25  1  0  0  0  0
 27 26  1  0  0  0  0
 28 26  2  0  0  0  0
 28 29  1  0  0  0  0
 29 30  2  0  0  0  0
 30 24  1  0  0  0  0
M  END
>  <minimizedAffinity>
-4.01150465

>  <minimizedRMSD>
1.19802761

$$$$
