
 OpenBabel03252506183D

 21 22  0  0  0  0  0  0  0  0999 V2000
   45.0490   34.8700   44.4190 C   0  0  0  0  0  0  0  0  0  0  0  0
   44.9600   34.1470   43.2150 C   0  0  0  0  0  0  0  0  0  0  0  0
   45.2540   32.7710   43.2490 C   0  0  0  0  0  0  0  0  0  0  0  0
   45.6060   32.2230   44.4400 N   0  0  0  0  0  0  0  0  0  0  0  0
   45.6840   32.9560   45.5920 C   0  0  0  0  0  0  0  0  0  0  0  0
   45.4000   34.2760   45.5530 N   0  0  0  0  0  0  0  0  0  0  0  0
   44.6730   34.6340   42.2890 H   0  0  0  0  0  0  0  0  0  0  0  0
   45.1980   32.1790   42.3530 H   0  0  0  0  0  0  0  0  0  0  0  0
   46.0650   32.3440   46.8600 C   0  0  0  0  0  0  0  0  0  0  0  0
   47.2380   31.6040   46.9150 C   0  0  0  0  0  3  0  0  0  0  0  0
   47.6040   31.0190   48.1210 C   0  0  0  0  0  0  0  0  0  0  0  0
   48.5170   30.4400   48.1770 H   0  0  0  0  0  0  0  0  0  0  0  0
   46.7820   31.2180   49.1600 N   0  0  0  0  0  0  0  0  0  0  0  0
   45.6540   31.9190   49.1390 C   0  0  0  0  0  3  0  0  0  0  0  0
   45.2840   32.4980   47.9610 N   0  0  0  0  0  0  0  0  0  0  0  0
   44.7420   36.2920   44.3800 C   0  0  0  0  0  3  0  0  0  0  0  0
   45.3670   37.0690   43.5190 C   0  0  0  0  0  3  0  0  0  0  0  0
   45.1110   38.5220   43.4180 C   0  0  0  0  0  0  0  0  0  0  0  0
   44.6730   38.9280   44.3380 H   0  0  0  0  0  0  0  0  0  0  0  0
   44.3850   38.6900   42.6130 H   0  0  0  0  0  0  0  0  0  0  0  0
   46.0670   39.0790   43.2550 H   0  0  0  0  0  0  0  0  0  0  0  0
  1  6  1  0  0  0  0
  2  3  1  0  0  0  0
  2  1  2  0  0  0  0
  3  4  2  0  0  0  0
  4  5  1  0  0  0  0
  5  9  1  0  0  0  0
  6  5  2  0  0  0  0
  7  2  1  0  0  0  0
  8  3  1  0  0  0  0
  9 10  2  0  0  0  0
  9 15  1  0  0  0  0
 10 11  1  0  0  0  0
 11 12  1  0  0  0  0
 11 13  2  0  0  0  0
 14 13  1  0  0  0  0
 15 14  2  0  0  0  0
 16  1  1  0  0  0  0
 17 16  2  0  0  0  0
 18 17  1  0  0  0  0
 18 19  1  0  0  0  0
 20 18  1  0  0  0  0
 21 18  1  0  0  0  0
M  END
>  <minimizedAffinity>
-3.92009258

>  <minimizedRMSD>
2.5041697

$$$$
