REMARK  Name = 
REMARK  2 active torsions:
REMARK  status: ('A' for Active; 'I' for Inactive)
REMARK    1  A    between atoms: C_5  and  C_9
REMARK    2  A    between atoms: C_13  and  C_20
REMARK                            x       y       z     vdW  Elec       q    Type
REMARK                         _______ _______ _______ _____ _____    ______ ____
ROOT
ATOM      1 BR   UNL     1      44.577  33.137  41.193  0.00  0.00    +0.000 Br
ATOM      2  C   UNL     1      46.283  33.993  40.941  0.00  0.00    +0.000 A 
ATOM      3  C   UNL     1      46.815  34.739  41.962  0.00  0.00    +0.000 A 
ATOM      4  C   UNL     1      48.057  35.369  41.795  0.00  0.00    +0.000 A 
ATOM      5  C   UNL     1      48.712  35.221  40.606  0.00  0.00    +0.000 A 
ATOM      6  C   UNL     1      48.135  34.465  39.622  0.00  0.00    +0.000 A 
ATOM      7  C   UNL     1      46.944  33.846  39.748  0.00  0.00    +0.000 A 
ATOM      8  H   UNL     1      48.433  35.953  42.645  0.00  0.00    +0.000 HD
ATOM      9  H   UNL     1      49.671  35.704  40.467  0.00  0.00    +0.000 HD
ATOM     10  H   UNL     1      48.686  34.375  38.699  0.00  0.00    +0.000 HD
ENDROOT
BRANCH   3  15
ATOM     11  C   UNL     1      45.603  34.039  45.331  0.00  0.00    +0.000 A 
ATOM     12  C   UNL     1      44.705  35.094  45.592  0.00  0.00    +0.000 A 
ATOM     13  C   UNL     1      44.531  36.048  44.577  0.00  0.00    +0.000 A 
ATOM     14  N   UNL     1      45.229  35.897  43.425  0.00  0.00    +0.000 NA
ATOM     15  C   UNL     1      46.086  34.869  43.207  0.00  0.00    +0.000 A 
ATOM     16  N   UNL     1      46.266  33.937  44.178  0.00  0.00    +0.000 NA
ATOM     17  H   UNL     1      45.755  33.298  46.087  0.00  0.00    +0.000 HD
ATOM     18  H   UNL     1      44.192  35.134  46.540  0.00  0.00    +0.000 HD
ATOM     19  H   UNL     1      43.850  36.864  44.751  0.00  0.00    +0.000 HD
ENDBRANCH   3  15
BRANCH   7  20
ATOM     20  C   UNL     1      46.308  33.035  38.713  0.00  0.00    +0.000 A 
ATOM     21  C   UNL     1      46.986  32.092  37.969  0.00  0.00    +0.000 A 
ATOM     22  C   UNL     1      46.354  31.347  37.004  0.00  0.00    +0.000 A 
ATOM     23  H   UNL     1      46.873  30.608  36.418  0.00  0.00    +0.000 HD
ATOM     24  N   UNL     1      45.064  31.498  36.740  0.00  0.00    +0.000 NA
ATOM     25  C   UNL     1      44.383  32.420  37.460  0.00  0.00    +0.000 A 
ATOM     26  N   UNL     1      44.998  33.154  38.409  0.00  0.00    +0.000 NA
ENDBRANCH   7  20
TORSDOF 2
