REMARK  Name = 
REMARK  4 active torsions:
REMARK  status: ('A' for Active; 'I' for Inactive)
REMARK    1  A    between atoms: C_1  and  C_10
REMARK    2  A    between atoms: C_6  and  C_18
REMARK    3  A    between atoms: C_7  and  C_16
REMARK    4  A    between atoms: C_18  and  C_35
REMARK                            x       y       z     vdW  Elec       q    Type
REMARK                         _______ _______ _______ _____ _____    ______ ____
ROOT
ATOM      1  C   UNL     1      47.559  29.978  48.271  0.00  0.00    +0.000 C 
ATOM      2  C   UNL     1      47.449  28.785  47.373  0.00  0.00    +0.000 C 
ATOM      3  C   UNL     1      48.737  28.033  47.177  0.00  0.00    +0.000 C 
ATOM      4  C   UNL     1      49.503  27.847  48.457  0.00  0.00    +0.000 C 
ATOM      5  C   UNL     1      49.584  29.107  49.263  0.00  0.00    +0.000 C 
ATOM      6  C   UNL     1      49.059  30.311  48.451  0.00  0.00    +0.000 C 
ATOM      7  H   UNL     1      47.185  29.755  49.272  0.00  0.00    +0.000 HD
ATOM      8  H   UNL     1      46.699  28.072  47.812  0.00  0.00    +0.000 HD
ATOM      9  H   UNL     1      47.048  29.088  46.394  0.00  0.00    +0.000 HD
ATOM     10  H   UNL     1      49.364  28.595  46.442  0.00  0.00    +0.000 HD
ATOM     11  H   UNL     1      48.486  27.061  46.754  0.00  0.00    +0.000 HD
ATOM     12  H   UNL     1      48.886  27.131  49.073  0.00  0.00    +0.000 HD
ATOM     13  H   UNL     1      50.467  27.382  48.234  0.00  0.00    +0.000 HD
ATOM     14  H   UNL     1      49.074  29.079  50.232  0.00  0.00    +0.000 HD
ATOM     15  H   UNL     1      50.672  29.327  49.391  0.00  0.00    +0.000 HD
ATOM     16  H   UNL     1      49.583  30.341  47.475  0.00  0.00    +0.000 HD
ENDROOT
BRANCH   1  20
ATOM     17  C   UNL     1      45.930  33.145  46.243  0.00  0.00    +0.000 A 
ATOM     18  C   UNL     1      45.331  32.934  47.489  0.00  0.00    +0.000 A 
ATOM     19  C   UNL     1      45.785  31.922  48.233  0.00  0.00    +0.000 A 
ATOM     20  C   UNL     1      46.839  31.106  47.758  0.00  0.00    +0.000 A 
ATOM     21  S   UNL     1      47.216  31.825  46.122  0.00  0.00    +0.000 S 
ATOM     22  H   UNL     1      44.529  33.568  47.838  0.00  0.00    +0.000 HD
ATOM     23  H   UNL     1      45.444  31.615  49.208  0.00  0.00    +0.000 HD
BRANCH  17  28
ATOM     24  C   UNL     1      44.436  36.111  44.543  0.00  0.00    +0.000 A 
ATOM     25  C   UNL     1      45.036  36.007  43.285  0.00  0.00    +0.000 A 
ATOM     26  C   UNL     1      45.925  34.946  43.082  0.00  0.00    +0.000 A 
ATOM     27  N   UNL     1      46.158  34.072  44.116  0.00  0.00    +0.000 NA
ATOM     28  C   UNL     1      45.556  34.214  45.307  0.00  0.00    +0.000 A 
ATOM     29  N   UNL     1      44.690  35.240  45.523  0.00  0.00    +0.000 NA
ATOM     30  H   UNL     1      43.737  36.918  44.754  0.00  0.00    +0.000 HD
ATOM     31  H   UNL     1      44.831  36.704  42.502  0.00  0.00    +0.000 HD
ATOM     32  H   UNL     1      46.414  34.816  42.138  0.00  0.00    +0.000 HD
ENDBRANCH  17  28
ENDBRANCH   1  20
BRANCH   6  33
ATOM     33  C   UNL     1      49.212  31.522  49.242  0.00  0.00    +0.000 C 
ATOM     34  O   UNL     1      49.953  31.562  50.220  0.00  0.00    +0.000 OA
BRANCH  33  35
ATOM     35  C   UNL     1      48.748  32.874  49.290  0.00  0.00    +0.000 A 
ATOM     36  C   UNL     1      49.555  34.023  49.152  0.00  0.00    +0.000 A 
ATOM     37  C   UNL     1      49.187  35.345  49.248  0.00  0.00    +0.000 A 
ATOM     38  H   UNL     1      49.917  36.117  49.118  0.00  0.00    +0.000 HD
ATOM     39  N   UNL     1      47.894  35.553  49.505  0.00  0.00    +0.000 NA
ATOM     40  C   UNL     1      47.053  34.536  49.652  0.00  0.00    +0.000 A 
ATOM     41  N   UNL     1      47.513  33.308  49.540  0.00  0.00    +0.000 NA
ENDBRANCH  33  35
ENDBRANCH   6  33
TORSDOF 4
