
 OpenBabel03252509193D

 41 44  0  0  1  0  0  0  0  0999 V2000
   47.7470   29.0280   47.8710 C   0  0  1  0  0  0  0  0  0  0  0  0
   47.4900   28.0180   46.7960 C   0  0  0  0  0  0  0  0  0  0  0  0
   48.6860   27.1830   46.4280 C   0  0  0  0  0  0  0  0  0  0  0  0
   49.4570   26.7100   47.6290 C   0  0  0  0  0  0  0  0  0  0  0  0
   49.6890   27.8030   48.6260 C   0  0  0  0  0  0  0  0  0  0  0  0
   49.2770   29.1730   48.0440 C   0  0  2  0  0  0  0  0  0  0  0  0
   47.3740   28.6800   48.8370 H   0  0  0  0  0  0  0  0  0  0  0  0
   46.6790   27.3220   47.1420 H   0  0  0  0  0  0  0  0  0  0  0  0
   47.1020   28.5190   45.8960 H   0  0  0  0  0  0  0  0  0  0  0  0
   49.3530   27.7930   45.7710 H   0  0  0  0  0  0  0  0  0  0  0  0
   48.3240   26.3260   45.8620 H   0  0  0  0  0  0  0  0  0  0  0  0
   48.7810   25.9670   48.1440 H   0  0  0  0  0  0  0  0  0  0  0  0
   50.3600   26.1930   47.2950 H   0  0  0  0  0  0  0  0  0  0  0  0
   49.2010   27.6660   49.5970 H   0  0  0  0  0  0  0  0  0  0  0  0
   50.7970   27.8870   48.7450 H   0  0  0  0  0  0  0  0  0  0  0  0
   49.7800   29.3120   47.0650 H   0  0  0  0  0  0  0  0  0  0  0  0
   46.2270   32.5250   46.3700 C   0  0  0  0  0  0  0  0  0  0  0  0
   46.0110   32.3870   47.7440 C   0  0  0  0  0  0  0  0  0  0  0  0
   46.4640   31.2790   48.3360 C   0  0  0  0  0  0  0  0  0  0  0  0
   47.1400   30.2930   47.5790 C   0  0  0  0  0  0  0  0  0  0  0  0
   47.1280   30.9860   45.8890 S   0  0  0  0  0  0  0  0  0  0  0  0
   45.4960   33.1510   48.3090 H   0  0  0  0  0  0  0  0  0  0  0  0
   46.3860   31.0070   49.3760 H   0  0  0  0  0  0  0  0  0  0  0  0
   44.5890   35.6010   45.0380 C   0  0  0  0  0  0  0  0  0  0  0  0
   45.1900   35.6800   43.7780 C   0  0  0  0  0  0  0  0  0  0  0  0
   46.1280   34.6950   43.4510 C   0  0  0  0  0  0  0  0  0  0  0  0
   46.4050   33.7130   44.3720 N   0  0  0  0  0  0  0  0  0  0  0  0
   45.8000   33.6810   45.5690 C   0  0  0  0  0  0  0  0  0  0  0  0
   44.8870   34.6310   45.9060 N   0  0  0  0  0  0  0  0  0  0  0  0
   43.8530   36.3430   45.3430 H   0  0  0  0  0  0  0  0  0  0  0  0
   44.9510   36.4560   43.0850 H   0  0  0  0  0  0  0  0  0  0  0  0
   46.6200   34.7040   42.5000 H   0  0  0  0  0  0  0  0  0  0  0  0
   49.5760   30.2130   49.0150 C   0  0  0  0  0  0  0  0  0  0  0  0
   48.8350   30.4350   49.9680 O   0  0  0  0  0  0  0  0  0  0  0  0
   50.5670   31.2040   49.3000 C   0  0  0  0  0  0  0  0  0  0  0  0
   51.9450   31.0890   49.0200 C   0  0  0  0  0  3  0  0  0  0  0  0
   52.9570   31.9720   49.3200 C   0  0  0  0  0  0  0  0  0  0  0  0
   53.9660   31.7480   49.0410 H   0  0  0  0  0  0  0  0  0  0  0  0
   52.5700   33.0760   49.9610 N   0  0  0  0  0  0  0  0  0  0  0  0
   51.2940   33.2770   50.2710 C   0  0  0  0  0  3  0  0  0  0  0  0
   50.4070   32.3650   49.9350 N   0  0  0  0  0  0  0  0  0  0  0  0
  1  6  1  0  0  0  0
  1  7  1  1  0  0  0
  2  8  1  0  0  0  0
  2  1  1  0  0  0  0
  3  2  1  0  0  0  0
  3  4  1  0  0  0  0
  4 12  1  0  0  0  0
  4  5  1  0  0  0  0
  5 15  1  0  0  0  0
  5 14  1  0  0  0  0
  6 16  1  6  0  0  0
  6  5  1  0  0  0  0
  6 33  1  0  0  0  0
  9  2  1  0  0  0  0
 10  3  1  0  0  0  0
 11  3  1  0  0  0  0
 13  4  1  0  0  0  0
 17 18  2  0  0  0  0
 18 22  1  0  0  0  0
 18 19  1  0  0  0  0
 19 23  1  0  0  0  0
 20  1  1  0  0  0  0
 20 19  2  0  0  0  0
 21 17  1  0  0  0  0
 21 20  1  0  0  0  0
 24 30  1  0  0  0  0
 24 29  1  0  0  0  0
 25 24  2  0  0  0  0
 26 25  1  0  0  0  0
 26 27  2  0  0  0  0
 27 28  1  0  0  0  0
 28 29  2  0  0  0  0
 28 17  1  0  0  0  0
 31 25  1  0  0  0  0
 32 26  1  0  0  0  0
 33 35  1  0  0  0  0
 33 34  2  0  0  0  0
 35 41  1  0  0  0  0
 36 35  2  0  0  0  0
 36 37  1  0  0  0  0
 37 39  2  0  0  0  0
 38 37  1  0  0  0  0
 39 40  1  0  0  0  0
 41 40  2  0  0  0  0
M  END
>  <minimizedAffinity>
-5.43871832

>  <minimizedRMSD>
2.21919751

$$$$
