
 OpenBabel03252507593D

 27 29  0  0  1  0  0  0  0  0999 V2000
   46.8200   32.2940   43.8300 C   0  0  0  0  0  0  0  0  0  0  0  0
   45.7210   31.8820   43.0170 C   0  0  0  0  0  0  0  0  0  0  0  0
   45.4100   32.7000   41.9230 C   0  0  0  0  0  0  0  0  0  0  0  0
   46.1600   33.8100   41.7140 N   0  0  0  0  0  0  0  0  0  0  0  0
   47.2020   34.1420   42.5400 C   0  0  0  0  0  0  0  0  0  0  0  0
   47.5500   33.4160   43.5880 N   0  0  0  0  0  0  0  0  0  0  0  0
   45.1780   30.9980   43.2400 H   0  0  0  0  0  0  0  0  0  0  0  0
   44.5960   32.4520   41.2670 H   0  0  0  0  0  0  0  0  0  0  0  0
   47.9880   35.3750   42.2320 C   0  0  1  0  0  0  0  0  0  0  0  0
   49.4940   35.2840   42.1340 C   0  0  0  0  0  0  0  0  0  0  0  0
   48.6360   35.3780   40.9040 C   0  0  1  0  0  0  0  0  0  0  0  0
   47.5530   36.3190   42.6040 H   0  0  0  0  0  0  0  0  0  0  0  0
   49.8870   34.2950   42.4800 H   0  0  0  0  0  0  0  0  0  0  0  0
   50.0150   36.1720   42.5420 H   0  0  0  0  0  0  0  0  0  0  0  0
   48.7940   36.3160   40.3290 H   0  0  0  0  0  0  0  0  0  0  0  0
   48.6750   34.1330   40.1240 N   0  0  0  0  0  0  0  0  0  0  0  0
   48.3440   34.2840   39.1430 H   0  0  0  0  0  0  0  0  0  0  0  0
   49.6400   33.7490   40.1730 H   0  0  0  0  0  0  0  0  0  0  0  0
   47.1100   31.4190   44.9360 C   0  0  0  0  0  0  0  0  0  0  0  0
   48.0680   30.5710   44.9310 O   0  0  0  0  0  0  0  0  0  0  0  0
   46.2990   31.4630   46.1500 C   0  0  0  0  0  0  0  0  0  0  0  0
   46.0270   32.6590   46.7770 C   0  0  0  0  0  3  0  0  0  0  0  0
   45.2610   32.6520   47.9130 C   0  0  0  0  0  0  0  0  0  0  0  0
   45.0420   33.5840   48.4130 H   0  0  0  0  0  0  0  0  0  0  0  0
   44.8030   31.4830   48.3730 N   0  0  0  0  0  0  0  0  0  0  0  0
   45.0470   30.3000   47.7890 C   0  0  0  0  0  3  0  0  0  0  0  0
   45.8010   30.3280   46.6750 N   0  0  0  0  0  0  0  0  0  0  0  0
  1 19  1  0  0  0  0
  2  7  1  0  0  0  0
  2  1  2  0  0  0  0
  3  2  1  0  0  0  0
  4  3  2  0  0  0  0
  4  5  1  0  0  0  0
  5  6  2  0  0  0  0
  6  1  1  0  0  0  0
  8  3  1  0  0  0  0
  9  5  1  0  0  0  0
  9 12  1  1  0  0  0
 10  9  1  0  0  0  0
 10 13  1  0  0  0  0
 10 14  1  0  0  0  0
 11 15  1  6  0  0  0
 11 10  1  0  0  0  0
 11  9  1  0  0  0  0
 16 18  1  0  0  0  0
 16 11  1  0  0  0  0
 17 16  1  0  0  0  0
 19 21  1  0  0  0  0
 20 19  2  0  0  0  0
 21 27  2  0  0  0  0
 21 22  1  0  0  0  0
 22 23  2  0  0  0  0
 23 25  1  0  0  0  0
 23 24  1  0  0  0  0
 26 25  2  0  0  0  0
 27 26  1  0  0  0  0
M  END
>  <minimizedAffinity>
-4.52753401

>  <minimizedRMSD>
6.41297865

$$$$
