
 OpenBabel03242510213D

 36 39  0  0  1  0  0  0  0  0999 V2000
   48.0590   33.2130   43.2310 N   0  0  0  0  0  0  0  0  0  0  0  0
   49.2210   33.2390   42.4620 C   0  0  0  0  0  0  0  0  0  0  0  0
   50.3650   32.7700   42.6890 O   0  0  0  0  0  0  0  0  0  0  0  0
   47.5600   34.1480   43.2030 H   0  0  0  0  0  0  0  0  0  0  0  0
   46.2490   32.0780   44.4700 C   0  0  1  0  0  0  0  0  0  0  0  0
   46.4150   31.3550   43.2830 C   0  0  0  0  0  0  0  0  0  0  0  0
   47.6350   32.0610   43.9460 C   0  0  1  0  0  0  0  0  0  0  0  0
   46.0580   31.6020   45.4550 H   0  0  0  0  0  0  0  0  0  0  0  0
   46.1840   31.6490   42.2400 H   0  0  0  0  0  0  0  0  0  0  0  0
   46.4500   30.2240   43.3500 H   0  0  0  0  0  0  0  0  0  0  0  0
   48.4160   31.3360   44.2300 H   0  0  0  0  0  0  0  0  0  0  0  0
   45.0400   33.9740   43.1590 C   0  0  0  0  0  0  0  0  0  0  0  0
   45.5270   33.4310   44.3950 C   0  0  0  0  0  0  0  0  0  0  0  0
   45.3420   34.1810   45.5390 C   0  0  0  0  0  0  0  0  0  0  0  0
   44.7180   35.3770   45.4370 N   0  0  0  0  0  0  0  0  0  0  0  0
   44.2660   35.8790   44.2710 C   0  0  0  0  0  0  0  0  0  0  0  0
   44.4360   35.1450   43.0880 N   0  0  0  0  0  0  0  0  0  0  0  0
   45.1690   33.3750   42.2790 H   0  0  0  0  0  0  0  0  0  0  0  0
   45.6960   33.7950   46.4710 H   0  0  0  0  0  0  0  0  0  0  0  0
   43.7700   36.8400   44.2180 H   0  0  0  0  0  0  0  0  0  0  0  0
   49.1930   33.9230   41.1070 C   0  0  2  0  0  0  0  0  0  0  0  0
   48.6880   35.4160   41.0910 C   0  0  0  0  0  0  0  0  0  0  0  0
   47.9300   34.2920   40.4620 C   0  0  1  0  0  0  0  0  0  0  0  0
   50.1040   33.8390   40.4800 H   0  0  0  0  0  0  0  0  0  0  0  0
   48.3190   35.7340   42.0920 H   0  0  0  0  0  0  0  0  0  0  0  0
   49.2480   36.1320   40.4970 H   0  0  0  0  0  0  0  0  0  0  0  0
   47.0490   33.8170   40.9490 H   0  0  0  0  0  0  0  0  0  0  0  0
   47.8880   34.2380   38.9490 C   0  0  0  0  0  0  0  0  0  0  0  0
   48.7010   34.8770   38.2940 O   0  0  0  0  0  0  0  0  0  0  0  0
   46.8720   33.4210   38.2840 C   0  0  0  0  0  0  0  0  0  0  0  0
   45.8840   32.8330   39.0010 C   0  0  0  0  0  0  0  0  0  0  0  0
   44.9620   32.0760   38.2960 C   0  0  0  0  0  0  0  0  0  0  0  0
   44.1630   31.5980   38.8690 H   0  0  0  0  0  0  0  0  0  0  0  0
   45.0540   31.9390   36.9620 N   0  0  0  0  0  0  0  0  0  0  0  0
   46.0410   32.5270   36.2450 C   0  0  0  0  0  0  0  0  0  0  0  0
   46.9250   33.2570   36.9480 N   0  0  0  0  0  0  0  0  0  0  0  0
  1  7  1  0  0  0  0
  2  3  2  0  0  0  0
  2  1  1  0  0  0  0
  4  1  1  0  0  0  0
  5  8  1  1  0  0  0
  6 10  1  0  0  0  0
  6  7  1  0  0  0  0
  6  5  1  0  0  0  0
  7 11  1  1  0  0  0
  7  5  1  0  0  0  0
  9  6  1  0  0  0  0
 12 13  1  0  0  0  0
 13  5  1  0  0  0  0
 13 14  2  0  0  0  0
 14 19  1  0  0  0  0
 15 14  1  0  0  0  0
 16 15  2  0  0  0  0
 17 12  2  0  0  0  0
 17 16  1  0  0  0  0
 18 12  1  0  0  0  0
 20 16  1  0  0  0  0
 21 24  1  6  0  0  0
 21  2  1  0  0  0  0
 22 21  1  0  0  0  0
 22 25  1  0  0  0  0
 23 27  1  1  0  0  0
 23 22  1  0  0  0  0
 23 21  1  0  0  0  0
 26 22  1  0  0  0  0
 28 23  1  0  0  0  0
 29 28  2  0  0  0  0
 30 28  1  0  0  0  0
 30 31  1  0  0  0  0
 32 33  1  0  0  0  0
 32 31  2  0  0  0  0
 34 32  1  0  0  0  0
 35 36  1  0  0  0  0
 35 34  2  0  0  0  0
 36 30  2  0  0  0  0
M  END
>  <minimizedAffinity>
-4.87456894

>  <minimizedRMSD>
0.602924347

$$$$
