
 OpenBabel03252502263D

 33 35  0  0  0  0  0  0  0  0999 V2000
   45.0250   34.4830   41.2040 C   0  0  0  0  0  0  0  0  0  0  0  0
   45.2390   35.1720   42.3940 C   0  0  0  0  0  0  0  0  0  0  0  0
   46.5510   35.4620   42.7640 C   0  0  0  0  0  0  0  0  0  0  0  0
   47.5910   35.0610   41.9450 C   0  0  0  0  0  0  0  0  0  0  0  0
   47.3960   34.3810   40.7670 C   0  0  0  0  0  0  0  0  0  0  0  0
   46.0700   34.1060   40.4260 C   0  0  0  0  0  0  0  0  0  0  0  0
   44.4220   35.4810   43.0280 H   0  0  0  0  0  0  0  0  0  0  0  0
   46.6680   36.0000   43.6960 H   0  0  0  0  0  0  0  0  0  0  0  0
   48.5920   35.3170   42.2850 H   0  0  0  0  0  0  0  0  0  0  0  0
   48.2020   34.0700   40.1320 H   0  0  0  0  0  0  0  0  0  0  0  0
   41.3930   34.7660   40.2360 C   0  0  0  0  0  0  0  0  0  0  0  0
   42.7120   35.1620   40.5190 C   0  0  0  0  0  0  0  0  0  0  0  0
   43.6270   34.2140   40.8820 C   0  0  0  0  0  0  0  0  0  0  0  0
   43.2010   32.9250   40.9490 N   0  0  0  0  0  0  0  0  0  0  0  0
   41.9340   32.5460   40.6770 C   0  0  0  0  0  0  0  0  0  0  0  0
   41.0240   33.4760   40.3170 N   0  0  0  0  0  0  0  0  0  0  0  0
   43.0250   36.1840   40.4600 H   0  0  0  0  0  0  0  0  0  0  0  0
   41.6680   31.5000   40.7510 H   0  0  0  0  0  0  0  0  0  0  0  0
   40.3870   35.7710   39.8410 C   0  0  0  0  0  0  0  0  0  0  0  0
   39.2140   35.0860   39.4840 F   0  0  0  0  0  0  0  0  0  0  0  0
   40.8350   36.3360   38.6450 F   0  0  0  0  0  0  0  0  0  0  0  0
   40.1300   36.7050   40.7950 F   0  0  0  0  0  0  0  0  0  0  0  0
   45.8700   32.0870   38.7610 C   0  0  0  0  0  0  0  0  0  0  0  0
   46.3970   31.1590   39.4020 O   0  0  0  0  0  0  0  0  0  0  0  0
   45.7280   33.4240   39.2390 N   0  0  0  0  0  0  0  0  0  0  0  0
   45.2670   34.1710   38.6290 H   0  0  0  0  0  0  0  0  0  0  0  0
   45.3390   31.8560   37.4170 C   0  0  0  0  0  0  0  0  0  0  0  0
   45.9600   32.4640   36.3470 C   0  0  0  0  0  3  0  0  0  0  0  0
   45.4830   32.2680   35.0500 C   0  0  0  0  0  0  0  0  0  0  0  0
   45.9750   32.7470   34.2160 H   0  0  0  0  0  0  0  0  0  0  0  0
   44.4000   31.4770   34.8040 N   0  0  0  0  0  0  0  0  0  0  0  0
   43.8250   30.9040   35.8770 C   0  0  0  0  0  3  0  0  0  0  0  0
   44.2750   31.0860   37.1290 N   0  0  0  0  0  0  0  0  0  0  0  0
  1  2  1  0  0  0  0
  2  3  2  0  0  0  0
  2  7  1  0  0  0  0
  3  8  1  0  0  0  0
  4  9  1  0  0  0  0
  4  3  1  0  0  0  0
  5  4  2  0  0  0  0
  6  5  1  0  0  0  0
  6  1  2  0  0  0  0
 10  5  1  0  0  0  0
 11 16  2  0  0  0  0
 11 12  1  0  0  0  0
 12 13  2  0  0  0  0
 13 14  1  0  0  0  0
 13  1  1  0  0  0  0
 15 18  1  0  0  0  0
 15 14  2  0  0  0  0
 16 15  1  0  0  0  0
 17 12  1  0  0  0  0
 19 11  1  0  0  0  0
 19 22  1  0  0  0  0
 20 19  1  0  0  0  0
 21 19  1  0  0  0  0
 23 25  1  0  0  0  0
 23 24  2  0  0  0  0
 25  6  1  0  0  0  0
 26 25  1  0  0  0  0
 27 23  1  0  0  0  0
 28 27  2  0  0  0  0
 29 28  1  0  0  0  0
 30 29  1  0  0  0  0
 31 29  2  0  0  0  0
 31 32  1  0  0  0  0
 32 33  2  0  0  0  0
 33 27  1  0  0  0  0
M  END
>  <minimizedAffinity>
-5.90543509

>  <minimizedRMSD>
0.676169813

$$$$
