REMARK  Name = 
REMARK  4 active torsions:
REMARK  status: ('A' for Active; 'I' for Inactive)
REMARK    1  A    between atoms: C_1  and  C_11
REMARK    2  A    between atoms: C_5  and  C_7
REMARK    3  A    between atoms: C_9  and  N_10
REMARK    4  A    between atoms: C_11  and  C_21
REMARK                            x       y       z     vdW  Elec       q    Type
REMARK                         _______ _______ _______ _____ _____    ______ ____
ROOT
ATOM      1  C   UNL     1      46.271  34.746  43.240  0.00  0.00    +0.000 A 
ATOM      2  C   UNL     1      45.307  35.740  43.589  0.00  0.00    +0.000 A 
ATOM      3  C   UNL     1      44.655  35.574  44.818  0.00  0.00    +0.000 A 
ATOM      4  N   UNL     1      44.976  34.500  45.580  0.00  0.00    +0.000 NA
ATOM      5  C   UNL     1      45.914  33.585  45.176  0.00  0.00    +0.000 A 
ATOM      6  N   UNL     1      46.567  33.680  44.031  0.00  0.00    +0.000 NA
ATOM      7  H   UNL     1      45.106  36.557  42.943  0.00  0.00    +0.000 HD
ATOM      8  H   UNL     1      43.917  36.283  45.147  0.00  0.00    +0.000 HD
ENDROOT
BRANCH   5   9
ATOM      9  C   UNL     1      46.221  32.436  46.081  0.00  0.00    +0.000 C 
ATOM     10  C   UNL     1      47.032  32.681  47.333  0.00  0.00    +0.000 C 
ATOM     11  C   UNL     1      45.543  32.485  47.393  0.00  0.00    +0.000 C 
ATOM     12  H   UNL     1      46.327  31.457  45.583  0.00  0.00    +0.000 HD
ATOM     13  H   UNL     1      47.473  33.708  47.365  0.00  0.00    +0.000 HD
ATOM     14  H   UNL     1      47.731  31.855  47.572  0.00  0.00    +0.000 HD
ATOM     15  H   UNL     1      45.243  31.562  47.934  0.00  0.00    +0.000 HD
BRANCH  11  16
ATOM     16  N   UNL     1      44.854  33.719  47.797  0.00  0.00    +0.000 NA
ATOM     17  H   UNL     1      43.882  33.524  48.132  0.00  0.00    +0.000 HD
ATOM     18  H   UNL     1      45.440  34.201  48.508  0.00  0.00    +0.000 HD
ENDBRANCH  11  16
ENDBRANCH   5   9
BRANCH   1  19
ATOM     19  C   UNL     1      46.923  34.961  41.974  0.00  0.00    +0.000 C 
ATOM     20  O   UNL     1      48.072  35.512  41.858  0.00  0.00    +0.000 OA
BRANCH  19  21
ATOM     21  C   UNL     1      46.282  34.547  40.729  0.00  0.00    +0.000 A 
ATOM     22  C   UNL     1      45.712  35.474  39.884  0.00  0.00    +0.000 A 
ATOM     23  C   UNL     1      45.120  35.040  38.726  0.00  0.00    +0.000 A 
ATOM     24  H   UNL     1      44.670  35.758  38.056  0.00  0.00    +0.000 HD
ATOM     25  N   UNL     1      45.118  33.730  38.458  0.00  0.00    +0.000 NA
ATOM     26  C   UNL     1      45.663  32.799  39.256  0.00  0.00    +0.000 A 
ATOM     27  N   UNL     1      46.238  33.246  40.387  0.00  0.00    +0.000 NA
ENDBRANCH  19  21
ENDBRANCH   1  19
TORSDOF 4
