
 OpenBabel03252508013D

 27 29  0  0  1  0  0  0  0  0999 V2000
   37.8350   28.5420   42.2070 C   0  0  0  0  0  0  0  0  0  0  0  0
   38.6790   29.2380   43.1250 C   0  0  0  0  0  0  0  0  0  0  0  0
   39.2740   30.4170   42.6580 C   0  0  0  0  0  0  0  0  0  0  0  0
   39.0140   30.8130   41.3880 N   0  0  0  0  0  0  0  0  0  0  0  0
   38.1910   30.0900   40.5630 C   0  0  0  0  0  0  0  0  0  0  0  0
   37.5980   28.9700   40.9380 N   0  0  0  0  0  0  0  0  0  0  0  0
   38.8380   28.8700   44.1080 H   0  0  0  0  0  0  0  0  0  0  0  0
   39.9210   30.9940   43.2940 H   0  0  0  0  0  0  0  0  0  0  0  0
   37.9450   30.6010   39.1800 C   0  0  1  0  0  0  0  0  0  0  0  0
   36.5210   30.7420   38.6900 C   0  0  0  0  0  0  0  0  0  0  0  0
   37.3210   31.9400   39.1200 C   0  0  1  0  0  0  0  0  0  0  0  0
   38.7220   30.3520   38.4380 H   0  0  0  0  0  0  0  0  0  0  0  0
   35.7800   30.2730   39.3840 H   0  0  0  0  0  0  0  0  0  0  0  0
   36.3990   30.4860   37.6190 H   0  0  0  0  0  0  0  0  0  0  0  0
   37.5310   32.6480   38.2900 H   0  0  0  0  0  0  0  0  0  0  0  0
   36.7810   32.5340   40.3510 N   0  0  0  0  0  0  0  0  0  0  0  0
   37.1230   33.5140   40.4860 H   0  0  0  0  0  0  0  0  0  0  0  0
   35.7440   32.4670   40.3160 H   0  0  0  0  0  0  0  0  0  0  0  0
   37.2380   27.3410   42.7310 C   0  0  0  0  0  0  0  0  0  0  0  0
   36.2540   27.3430   43.5480 O   0  0  0  0  0  0  0  0  0  0  0  0
   37.7460   26.0290   42.3420 C   0  0  0  0  0  0  0  0  0  0  0  0
   36.9830   25.1750   41.5750 C   0  0  0  0  0  3  0  0  0  0  0  0
   37.4990   23.9520   41.2320 C   0  0  0  0  0  0  0  0  0  0  0  0
   36.9100   23.2750   40.6310 H   0  0  0  0  0  0  0  0  0  0  0  0
   38.7270   23.6310   41.6550 N   0  0  0  0  0  0  0  0  0  0  0  0
   39.4980   24.4360   42.4030 C   0  0  0  0  0  3  0  0  0  0  0  0
   38.9730   25.6310   42.7280 N   0  0  0  0  0  0  0  0  0  0  0  0
  1 19  1  0  0  0  0
  1  2  1  0  0  0  0
  2  7  1  0  0  0  0
  3  2  2  0  0  0  0
  3  8  1  0  0  0  0
  4  3  1  0  0  0  0
  5  6  1  0  0  0  0
  5  4  2  0  0  0  0
  6  1  2  0  0  0  0
  9 12  1  6  0  0  0
  9  5  1  0  0  0  0
 10 11  1  0  0  0  0
 10  9  1  0  0  0  0
 10 13  1  0  0  0  0
 11 15  1  6  0  0  0
 11  9  1  0  0  0  0
 11 16  1  0  0  0  0
 14 10  1  0  0  0  0
 16 17  1  0  0  0  0
 18 16  1  0  0  0  0
 19 20  2  0  0  0  0
 21 27  1  0  0  0  0
 21 19  1  0  0  0  0
 22 21  2  0  0  0  0
 23 22  1  0  0  0  0
 23 25  2  0  0  0  0
 24 23  1  0  0  0  0
 25 26  1  0  0  0  0
 26 27  2  0  0  0  0
M  END
>  <minimizedAffinity>
-5.05565405

$$$$

 OpenBabel03252508013D

 27 29  0  0  1  0  0  0  0  0999 V2000
   37.5280   30.5930   40.3820 C   0  0  0  0  0  0  0  0  0  0  0  0
   36.8730   31.8610   40.4450 C   0  0  0  0  0  0  0  0  0  0  0  0
   37.5850   32.9580   39.9430 C   0  0  0  0  0  0  0  0  0  0  0  0
   38.8270   32.7480   39.4410 N   0  0  0  0  0  0  0  0  0  0  0  0
   39.3910   31.4990   39.4160 C   0  0  0  0  0  0  0  0  0  0  0  0
   38.7770   30.4210   39.8710 N   0  0  0  0  0  0  0  0  0  0  0  0
   35.8980   31.9520   40.8510 H   0  0  0  0  0  0  0  0  0  0  0  0
   37.1560   33.9430   39.9580 H   0  0  0  0  0  0  0  0  0  0  0  0
   40.7590   31.3490   38.8320 C   0  0  1  0  0  0  0  0  0  0  0  0
   40.9640   30.4050   37.6700 C   0  0  0  0  0  0  0  0  0  0  0  0
   40.9100   31.8930   37.4660 C   0  0  1  0  0  0  0  0  0  0  0  0
   41.5930   31.4790   39.5430 H   0  0  0  0  0  0  0  0  0  0  0  0
   40.0660   29.7700   37.4680 H   0  0  0  0  0  0  0  0  0  0  0  0
   41.9310   29.8640   37.7090 H   0  0  0  0  0  0  0  0  0  0  0  0
   41.8710   32.3220   37.1080 H   0  0  0  0  0  0  0  0  0  0  0  0
   39.7100   32.2900   36.7170 N   0  0  0  0  0  0  0  0  0  0  0  0
   39.8100   33.2500   36.3130 H   0  0  0  0  0  0  0  0  0  0  0  0
   39.5210   31.5640   35.9970 H   0  0  0  0  0  0  0  0  0  0  0  0
   36.7570   29.4930   40.8990 C   0  0  0  0  0  0  0  0  0  0  0  0
   35.4890   29.3920   40.7550 O   0  0  0  0  0  0  0  0  0  0  0  0
   37.4070   28.4110   41.6340 C   0  0  0  0  0  0  0  0  0  0  0  0
   37.7860   28.5780   42.9480 C   0  0  0  0  0  3  0  0  0  0  0  0
   38.3930   27.5360   43.6000 C   0  0  0  0  0  0  0  0  0  0  0  0
   38.6940   27.6550   44.6310 H   0  0  0  0  0  0  0  0  0  0  0  0
   38.5950   26.3930   42.9360 N   0  0  0  0  0  0  0  0  0  0  0  0
   38.2390   26.1940   41.6570 C   0  0  0  0  0  3  0  0  0  0  0  0
   37.6460   27.2290   41.0360 N   0  0  0  0  0  0  0  0  0  0  0  0
  1  2  1  0  0  0  0
  1 19  1  0  0  0  0
  2  7  1  0  0  0  0
  3  8  1  0  0  0  0
  3  2  2  0  0  0  0
  4  3  1  0  0  0  0
  5  4  2  0  0  0  0
  5  6  1  0  0  0  0
  6  1  2  0  0  0  0
  9  5  1  0  0  0  0
  9 12  1  1  0  0  0
 10 14  1  0  0  0  0
 10  9  1  0  0  0  0
 11 15  1  6  0  0  0
 11 10  1  0  0  0  0
 11  9  1  0  0  0  0
 13 10  1  0  0  0  0
 16 11  1  0  0  0  0
 17 16  1  0  0  0  0
 18 16  1  0  0  0  0
 19 21  1  0  0  0  0
 20 19  2  0  0  0  0
 21 22  1  0  0  0  0
 22 23  2  0  0  0  0
 23 24  1  0  0  0  0
 25 23  1  0  0  0  0
 26 25  2  0  0  0  0
 27 21  2  0  0  0  0
 27 26  1  0  0  0  0
M  END
>  <minimizedAffinity>
-4.8103919

$$$$

 OpenBabel03252508013D

 27 29  0  0  1  0  0  0  0  0999 V2000
   36.9860   28.8030   41.6950 C   0  0  0  0  0  0  0  0  0  0  0  0
   38.0920   29.2610   42.4740 C   0  0  0  0  0  0  0  0  0  0  0  0
   38.7800   28.2900   43.2140 C   0  0  0  0  0  0  0  0  0  0  0  0
   38.3590   27.0040   43.1420 N   0  0  0  0  0  0  0  0  0  0  0  0
   37.2850   26.6400   42.3700 C   0  0  0  0  0  0  0  0  0  0  0  0
   36.5920   27.5020   41.6470 N   0  0  0  0  0  0  0  0  0  0  0  0
   38.3670   30.2850   42.4830 H   0  0  0  0  0  0  0  0  0  0  0  0
   39.6230   28.5610   43.8240 H   0  0  0  0  0  0  0  0  0  0  0  0
   36.8930   25.1980   42.3340 C   0  0  1  0  0  0  0  0  0  0  0  0
   36.8470   24.4800   41.0040 C   0  0  0  0  0  0  0  0  0  0  0  0
   37.9830   24.2700   41.9660 C   0  0  1  0  0  0  0  0  0  0  0  0
   36.1780   24.8830   43.1130 H   0  0  0  0  0  0  0  0  0  0  0  0
   36.9570   25.1770   40.1360 H   0  0  0  0  0  0  0  0  0  0  0  0
   36.0160   23.7510   40.9270 H   0  0  0  0  0  0  0  0  0  0  0  0
   38.0330   23.2350   42.3660 H   0  0  0  0  0  0  0  0  0  0  0  0
   39.2410   24.8180   41.4400 N   0  0  0  0  0  0  0  0  0  0  0  0
   40.0710   24.4210   41.9390 H   0  0  0  0  0  0  0  0  0  0  0  0
   39.2650   24.6500   40.4140 H   0  0  0  0  0  0  0  0  0  0  0  0
   36.3140   29.8320   40.9440 C   0  0  0  0  0  0  0  0  0  0  0  0
   36.1770   31.0330   41.3630 O   0  0  0  0  0  0  0  0  0  0  0  0
   35.7430   29.5410   39.6320 C   0  0  0  0  0  0  0  0  0  0  0  0
   36.4980   29.6730   38.4870 C   0  0  0  0  0  3  0  0  0  0  0  0
   35.9210   29.3890   37.2770 C   0  0  0  0  0  0  0  0  0  0  0  0
   36.5040   29.4890   36.3720 H   0  0  0  0  0  0  0  0  0  0  0  0
   34.6440   28.9920   37.2500 N   0  0  0  0  0  0  0  0  0  0  0  0
   33.8790   28.8520   38.3440 C   0  0  0  0  0  3  0  0  0  0  0  0
   34.4640   29.1360   39.5210 N   0  0  0  0  0  0  0  0  0  0  0  0
  1  2  1  0  0  0  0
  2  7  1  0  0  0  0
  2  3  2  0  0  0  0
  3  8  1  0  0  0  0
  4  3  1  0  0  0  0
  5  4  2  0  0  0  0
  6  1  2  0  0  0  0
  6  5  1  0  0  0  0
  9  5  1  0  0  0  0
  9 12  1  1  0  0  0
 10 11  1  0  0  0  0
 10  9  1  0  0  0  0
 11  9  1  0  0  0  0
 11 15  1  1  0  0  0
 13 10  1  0  0  0  0
 14 10  1  0  0  0  0
 16 17  1  0  0  0  0
 16 11  1  0  0  0  0
 18 16  1  0  0  0  0
 19 20  2  0  0  0  0
 19  1  1  0  0  0  0
 21 19  1  0  0  0  0
 22 21  2  0  0  0  0
 23 22  1  0  0  0  0
 24 23  1  0  0  0  0
 25 23  2  0  0  0  0
 25 26  1  0  0  0  0
 26 27  2  0  0  0  0
 27 21  1  0  0  0  0
M  END
>  <minimizedAffinity>
-4.80074167

$$$$

 OpenBabel03252508013D

 27 29  0  0  1  0  0  0  0  0999 V2000
   37.1850   28.0140   40.9400 C   0  0  0  0  0  0  0  0  0  0  0  0
   36.5420   27.2000   39.9590 C   0  0  0  0  0  0  0  0  0  0  0  0
   36.4650   27.7270   38.6630 C   0  0  0  0  0  0  0  0  0  0  0  0
   36.9950   28.9520   38.4300 N   0  0  0  0  0  0  0  0  0  0  0  0
   37.5970   29.6770   39.4260 C   0  0  0  0  0  0  0  0  0  0  0  0
   37.7060   29.2410   40.6690 N   0  0  0  0  0  0  0  0  0  0  0  0
   36.1500   26.2470   40.2110 H   0  0  0  0  0  0  0  0  0  0  0  0
   35.9950   27.1700   37.8720 H   0  0  0  0  0  0  0  0  0  0  0  0
   38.1700   31.0140   39.0850 C   0  0  1  0  0  0  0  0  0  0  0  0
   37.2840   32.0490   38.4280 C   0  0  0  0  0  0  0  0  0  0  0  0
   37.6390   32.1360   39.8860 C   0  0  1  0  0  0  0  0  0  0  0  0
   39.2430   31.0170   38.8260 H   0  0  0  0  0  0  0  0  0  0  0  0
   36.2990   31.6290   38.1070 H   0  0  0  0  0  0  0  0  0  0  0  0
   37.8110   32.6610   37.6700 H   0  0  0  0  0  0  0  0  0  0  0  0
   38.2580   33.0250   40.1350 H   0  0  0  0  0  0  0  0  0  0  0  0
   36.4640   31.9130   40.7410 N   0  0  0  0  0  0  0  0  0  0  0  0
   36.6240   32.2640   41.7130 H   0  0  0  0  0  0  0  0  0  0  0  0
   35.6400   32.3500   40.2810 H   0  0  0  0  0  0  0  0  0  0  0  0
   37.2510   27.4310   42.2550 C   0  0  0  0  0  0  0  0  0  0  0  0
   36.3040   27.5160   43.1110 O   0  0  0  0  0  0  0  0  0  0  0  0
   38.4370   26.6930   42.6810 C   0  0  0  0  0  0  0  0  0  0  0  0
   39.4890   27.3400   43.2920 C   0  0  0  0  0  3  0  0  0  0  0  0
   40.5830   26.6090   43.6770 C   0  0  0  0  0  0  0  0  0  0  0  0
   41.4140   27.1050   44.1570 H   0  0  0  0  0  0  0  0  0  0  0  0
   40.5900   25.2920   43.4460 N   0  0  0  0  0  0  0  0  0  0  0  0
   39.5840   24.6280   42.8540 C   0  0  0  0  0  3  0  0  0  0  0  0
   38.5200   25.3650   42.4840 N   0  0  0  0  0  0  0  0  0  0  0  0
  1 19  1  0  0  0  0
  2  7  1  0  0  0  0
  2  1  2  0  0  0  0
  3  2  1  0  0  0  0
  4  3  2  0  0  0  0
  4  5  1  0  0  0  0
  5  6  2  0  0  0  0
  6  1  1  0  0  0  0
  8  3  1  0  0  0  0
  9 12  1  6  0  0  0
  9  5  1  0  0  0  0
  9 11  1  0  0  0  0
 10  9  1  0  0  0  0
 10 11  1  0  0  0  0
 11 15  1  1  0  0  0
 11 16  1  0  0  0  0
 13 10  1  0  0  0  0
 14 10  1  0  0  0  0
 16 17  1  0  0  0  0
 18 16  1  0  0  0  0
 19 21  1  0  0  0  0
 19 20  2  0  0  0  0
 21 22  1  0  0  0  0
 22 23  2  0  0  0  0
 23 24  1  0  0  0  0
 25 23  1  0  0  0  0
 26 25  2  0  0  0  0
 27 21  2  0  0  0  0
 27 26  1  0  0  0  0
M  END
>  <minimizedAffinity>
-4.79645824

$$$$

 OpenBabel03252508013D

 27 29  0  0  1  0  0  0  0  0999 V2000
   36.6010   28.4680   41.4350 C   0  0  0  0  0  0  0  0  0  0  0  0
   37.3650   29.2080   42.3880 C   0  0  0  0  0  0  0  0  0  0  0  0
   38.1170   28.4600   43.3030 C   0  0  0  0  0  0  0  0  0  0  0  0
   38.0700   27.1080   43.2250 N   0  0  0  0  0  0  0  0  0  0  0  0
   37.3110   26.4670   42.2810 C   0  0  0  0  0  0  0  0  0  0  0  0
   36.5780   27.1090   41.3880 N   0  0  0  0  0  0  0  0  0  0  0  0
   37.3550   30.2690   42.3900 H   0  0  0  0  0  0  0  0  0  0  0  0
   38.7170   28.9500   44.0490 H   0  0  0  0  0  0  0  0  0  0  0  0
   37.3250   24.9720   42.2530 C   0  0  1  0  0  0  0  0  0  0  0  0
   37.7360   24.2630   40.9830 C   0  0  0  0  0  0  0  0  0  0  0  0
   38.6700   24.3690   42.1550 C   0  0  1  0  0  0  0  0  0  0  0  0
   36.5760   24.4800   42.8970 H   0  0  0  0  0  0  0  0  0  0  0  0
   37.8320   24.9600   40.1140 H   0  0  0  0  0  0  0  0  0  0  0  0
   37.1580   23.3380   40.7900 H   0  0  0  0  0  0  0  0  0  0  0  0
   38.9080   23.3870   42.6170 H   0  0  0  0  0  0  0  0  0  0  0  0
   39.8210   25.2320   41.8500 N   0  0  0  0  0  0  0  0  0  0  0  0
   40.6080   25.0730   42.5210 H   0  0  0  0  0  0  0  0  0  0  0  0
   40.0930   25.0720   40.8590 H   0  0  0  0  0  0  0  0  0  0  0  0
   35.8510   29.2760   40.5090 C   0  0  0  0  0  0  0  0  0  0  0  0
   34.5810   29.1960   40.3710 O   0  0  0  0  0  0  0  0  0  0  0  0
   36.5270   30.2530   39.6590 C   0  0  0  0  0  0  0  0  0  0  0  0
   37.0810   29.8780   38.4540 C   0  0  0  0  0  3  0  0  0  0  0  0
   37.7060   30.8280   37.6890 C   0  0  0  0  0  0  0  0  0  0  0  0
   38.1450   30.5450   36.7420 H   0  0  0  0  0  0  0  0  0  0  0  0
   37.7560   32.0860   38.1390 N   0  0  0  0  0  0  0  0  0  0  0  0
   37.2270   32.4870   39.3060 C   0  0  0  0  0  3  0  0  0  0  0  0
   36.6190   31.5400   40.0410 N   0  0  0  0  0  0  0  0  0  0  0  0
  1  2  1  0  0  0  0
  2  7  1  0  0  0  0
  2  3  2  0  0  0  0
  3  8  1  0  0  0  0
  4  3  1  0  0  0  0
  5  4  2  0  0  0  0
  6  1  2  0  0  0  0
  6  5  1  0  0  0  0
  9  5  1  0  0  0  0
  9 12  1  1  0  0  0
 10 11  1  0  0  0  0
 10  9  1  0  0  0  0
 11  9  1  0  0  0  0
 11 15  1  1  0  0  0
 13 10  1  0  0  0  0
 14 10  1  0  0  0  0
 16 11  1  0  0  0  0
 16 17  1  0  0  0  0
 18 16  1  0  0  0  0
 19  1  1  0  0  0  0
 20 19  2  0  0  0  0
 21 27  1  0  0  0  0
 21 19  1  0  0  0  0
 22 21  2  0  0  0  0
 23 25  2  0  0  0  0
 23 22  1  0  0  0  0
 24 23  1  0  0  0  0
 25 26  1  0  0  0  0
 26 27  2  0  0  0  0
M  END
>  <minimizedAffinity>
-4.72078991

$$$$

 OpenBabel03252508013D

 27 29  0  0  1  0  0  0  0  0999 V2000
   36.4720   30.2950   39.6590 C   0  0  0  0  0  0  0  0  0  0  0  0
   36.6770   29.9090   38.2990 C   0  0  0  0  0  0  0  0  0  0  0  0
   37.3060   30.8480   37.4710 C   0  0  0  0  0  0  0  0  0  0  0  0
   37.6710   32.0390   38.0060 N   0  0  0  0  0  0  0  0  0  0  0  0
   37.4400   32.3380   39.3240 C   0  0  0  0  0  0  0  0  0  0  0  0
   36.8520   31.5000   40.1600 N   0  0  0  0  0  0  0  0  0  0  0  0
   36.3650   28.9580   37.9480 H   0  0  0  0  0  0  0  0  0  0  0  0
   37.4930   30.6280   36.4360 H   0  0  0  0  0  0  0  0  0  0  0  0
   37.8860   33.6680   39.8400 C   0  0  1  0  0  0  0  0  0  0  0  0
   38.8230   33.7210   41.0250 C   0  0  0  0  0  0  0  0  0  0  0  0
   39.3180   33.9640   39.6270 C   0  0  1  0  0  0  0  0  0  0  0  0
   37.1590   34.4890   39.7210 H   0  0  0  0  0  0  0  0  0  0  0  0
   38.9570   32.7240   41.5120 H   0  0  0  0  0  0  0  0  0  0  0  0
   38.6110   34.5630   41.7140 H   0  0  0  0  0  0  0  0  0  0  0  0
   39.6860   34.9990   39.4640 H   0  0  0  0  0  0  0  0  0  0  0  0
   40.2130   32.8860   39.1790 N   0  0  0  0  0  0  0  0  0  0  0  0
   40.7900   33.1830   38.3580 H   0  0  0  0  0  0  0  0  0  0  0  0
   40.7870   32.5820   39.9900 H   0  0  0  0  0  0  0  0  0  0  0  0
   35.8310   29.2960   40.4750 C   0  0  0  0  0  0  0  0  0  0  0  0
   34.5730   29.0670   40.4490 O   0  0  0  0  0  0  0  0  0  0  0  0
   36.6130   28.4770   41.3970 C   0  0  0  0  0  0  0  0  0  0  0  0
   37.1800   29.0290   42.5250 C   0  0  0  0  0  3  0  0  0  0  0  0
   37.9060   28.2230   43.3640 C   0  0  0  0  0  0  0  0  0  0  0  0
   38.3550   28.6450   44.2510 H   0  0  0  0  0  0  0  0  0  0  0  0
   38.0380   26.9280   43.0570 N   0  0  0  0  0  0  0  0  0  0  0  0
   37.4990   26.3570   41.9680 C   0  0  0  0  0  3  0  0  0  0  0  0
   36.7920   27.1650   41.1580 N   0  0  0  0  0  0  0  0  0  0  0  0
  1  6  1  0  0  0  0
  1 19  1  0  0  0  0
  2  1  2  0  0  0  0
  3  4  2  0  0  0  0
  3  2  1  0  0  0  0
  4  5  1  0  0  0  0
  5  9  1  0  0  0  0
  5  6  2  0  0  0  0
  7  2  1  0  0  0  0
  8  3  1  0  0  0  0
  9 12  1  6  0  0  0
  9 10  1  0  0  0  0
 10 13  1  0  0  0  0
 10 14  1  0  0  0  0
 11 15  1  6  0  0  0
 11  9  1  0  0  0  0
 11 10  1  0  0  0  0
 16 11  1  0  0  0  0
 16 18  1  0  0  0  0
 17 16  1  0  0  0  0
 19 21  1  0  0  0  0
 20 19  2  0  0  0  0
 21 22  1  0  0  0  0
 22 23  2  0  0  0  0
 23 24  1  0  0  0  0
 25 23  1  0  0  0  0
 26 25  2  0  0  0  0
 27 21  2  0  0  0  0
 27 26  1  0  0  0  0
M  END
>  <minimizedAffinity>
-4.70550394

$$$$

 OpenBabel03252508013D

 27 29  0  0  1  0  0  0  0  0999 V2000
   38.1330   28.8210   40.9900 C   0  0  0  0  0  0  0  0  0  0  0  0
   38.2260   28.2870   39.6680 C   0  0  0  0  0  0  0  0  0  0  0  0
   38.7800   29.1260   38.6930 C   0  0  0  0  0  0  0  0  0  0  0  0
   39.1830   30.3670   39.0610 N   0  0  0  0  0  0  0  0  0  0  0  0
   39.0600   30.8100   40.3530 C   0  0  0  0  0  0  0  0  0  0  0  0
   38.5480   30.0720   41.3220 N   0  0  0  0  0  0  0  0  0  0  0  0
   37.8900   27.3040   39.4510 H   0  0  0  0  0  0  0  0  0  0  0  0
   38.8820   28.7920   37.6760 H   0  0  0  0  0  0  0  0  0  0  0  0
   39.5420   32.1860   40.6800 C   0  0  1  0  0  0  0  0  0  0  0  0
   39.4370   33.2720   39.6330 C   0  0  0  0  0  0  0  0  0  0  0  0
   38.4760   33.2050   40.7870 C   0  0  1  0  0  0  0  0  0  0  0  0
   40.3860   32.2360   41.3890 H   0  0  0  0  0  0  0  0  0  0  0  0
   39.1490   32.8730   38.6290 H   0  0  0  0  0  0  0  0  0  0  0  0
   40.2950   33.9720   39.6390 H   0  0  0  0  0  0  0  0  0  0  0  0
   38.5580   34.0710   41.4780 H   0  0  0  0  0  0  0  0  0  0  0  0
   37.1180   32.8690   40.3370 N   0  0  0  0  0  0  0  0  0  0  0  0
   36.4020   33.1140   41.0600 H   0  0  0  0  0  0  0  0  0  0  0  0
   36.9510   33.3400   39.4250 H   0  0  0  0  0  0  0  0  0  0  0  0
   37.5660   27.9210   41.9610 C   0  0  0  0  0  0  0  0  0  0  0  0
   36.4050   28.0800   42.4750 O   0  0  0  0  0  0  0  0  0  0  0  0
   38.3140   26.7530   42.4170 C   0  0  0  0  0  0  0  0  0  0  0  0
   39.3840   26.8900   43.2750 C   0  0  0  0  0  3  0  0  0  0  0  0
   40.0580   25.7670   43.6780 C   0  0  0  0  0  0  0  0  0  0  0  0
   40.8980   25.8620   44.3510 H   0  0  0  0  0  0  0  0  0  0  0  0
   39.6530   24.5760   43.2240 N   0  0  0  0  0  0  0  0  0  0  0  0
   38.6160   24.4050   42.3890 C   0  0  0  0  0  3  0  0  0  0  0  0
   37.9690   25.5200   42.0050 N   0  0  0  0  0  0  0  0  0  0  0  0
  1  6  1  0  0  0  0
  1 19  1  0  0  0  0
  2  1  2  0  0  0  0
  3  4  2  0  0  0  0
  3  2  1  0  0  0  0
  4  5  1  0  0  0  0
  5  9  1  0  0  0  0
  5  6  2  0  0  0  0
  7  2  1  0  0  0  0
  8  3  1  0  0  0  0
  9 11  1  0  0  0  0
  9 12  1  1  0  0  0
 10 14  1  0  0  0  0
 10  9  1  0  0  0  0
 10 11  1  0  0  0  0
 11 15  1  1  0  0  0
 13 10  1  0  0  0  0
 16 11  1  0  0  0  0
 16 17  1  0  0  0  0
 18 16  1  0  0  0  0
 19 21  1  0  0  0  0
 19 20  2  0  0  0  0
 21 22  1  0  0  0  0
 22 23  2  0  0  0  0
 23 24  1  0  0  0  0
 25 23  1  0  0  0  0
 26 25  2  0  0  0  0
 27 26  1  0  0  0  0
 27 21  2  0  0  0  0
M  END
>  <minimizedAffinity>
-4.69649458

$$$$

 OpenBabel03252508013D

 27 29  0  0  1  0  0  0  0  0999 V2000
   38.1790   31.7900   40.7530 C   0  0  0  0  0  0  0  0  0  0  0  0
   36.8260   31.5600   40.3570 C   0  0  0  0  0  0  0  0  0  0  0  0
   36.2030   30.4240   40.8900 C   0  0  0  0  0  0  0  0  0  0  0  0
   36.9130   29.6320   41.7310 N   0  0  0  0  0  0  0  0  0  0  0  0
   38.2120   29.9190   42.0650 C   0  0  0  0  0  0  0  0  0  0  0  0
   38.8600   30.9720   41.6000 N   0  0  0  0  0  0  0  0  0  0  0  0
   36.3310   32.2240   39.6940 H   0  0  0  0  0  0  0  0  0  0  0  0
   35.1860   30.1870   40.6360 H   0  0  0  0  0  0  0  0  0  0  0  0
   38.9200   29.0030   43.0100 C   0  0  1  0  0  0  0  0  0  0  0  0
   38.4890   27.5570   43.0960 C   0  0  0  0  0  0  0  0  0  0  0  0
   39.7380   27.9570   42.3610 C   0  0  1  0  0  0  0  0  0  0  0  0
   39.3110   29.4790   43.9260 H   0  0  0  0  0  0  0  0  0  0  0  0
   37.5400   27.3570   42.5400 H   0  0  0  0  0  0  0  0  0  0  0  0
   38.5340   27.1450   44.1240 H   0  0  0  0  0  0  0  0  0  0  0  0
   40.6670   27.5640   42.8260 H   0  0  0  0  0  0  0  0  0  0  0  0
   39.6020   27.7390   40.9130 N   0  0  0  0  0  0  0  0  0  0  0  0
   40.5350   27.7210   40.4390 H   0  0  0  0  0  0  0  0  0  0  0  0
   39.0540   26.8680   40.7650 H   0  0  0  0  0  0  0  0  0  0  0  0
   38.7760   32.9730   40.1900 C   0  0  0  0  0  0  0  0  0  0  0  0
   38.4590   34.1600   40.5460 O   0  0  0  0  0  0  0  0  0  0  0  0
   39.8020   32.8660   39.1550 C   0  0  0  0  0  0  0  0  0  0  0  0
   39.7680   31.8450   38.2300 C   0  0  0  0  0  3  0  0  0  0  0  0
   40.7500   31.7830   37.2760 C   0  0  0  0  0  0  0  0  0  0  0  0
   40.7340   30.9870   36.5460 H   0  0  0  0  0  0  0  0  0  0  0  0
   41.7080   32.7170   37.2770 N   0  0  0  0  0  0  0  0  0  0  0  0
   41.7720   33.7250   38.1620 C   0  0  0  0  0  3  0  0  0  0  0  0
   40.7990   33.7670   39.0890 N   0  0  0  0  0  0  0  0  0  0  0  0
  1  6  1  0  0  0  0
  2  1  2  0  0  0  0
  2  3  1  0  0  0  0
  3  4  2  0  0  0  0
  4  5  1  0  0  0  0
  5  9  1  0  0  0  0
  6  5  2  0  0  0  0
  7  2  1  0  0  0  0
  8  3  1  0  0  0  0
  9 10  1  0  0  0  0
  9 12  1  1  0  0  0
 10 14  1  0  0  0  0
 11 15  1  1  0  0  0
 11  9  1  0  0  0  0
 11 10  1  0  0  0  0
 13 10  1  0  0  0  0
 16 11  1  0  0  0  0
 17 16  1  0  0  0  0
 18 16  1  0  0  0  0
 19 20  2  0  0  0  0
 19  1  1  0  0  0  0
 21 19  1  0  0  0  0
 22 21  2  0  0  0  0
 23 25  2  0  0  0  0
 23 22  1  0  0  0  0
 24 23  1  0  0  0  0
 25 26  1  0  0  0  0
 26 27  2  0  0  0  0
 27 21  1  0  0  0  0
M  END
>  <minimizedAffinity>
-4.67030907

$$$$

 OpenBabel03252508013D

 27 29  0  0  1  0  0  0  0  0999 V2000
   37.2370   29.8140   39.1760 C   0  0  0  0  0  0  0  0  0  0  0  0
   35.8190   29.9690   39.2540 C   0  0  0  0  0  0  0  0  0  0  0  0
   35.1660   29.2380   40.2550 C   0  0  0  0  0  0  0  0  0  0  0  0
   35.9080   28.4460   41.0660 N   0  0  0  0  0  0  0  0  0  0  0  0
   37.2690   28.3480   40.9280 C   0  0  0  0  0  0  0  0  0  0  0  0
   37.9490   29.0090   40.0080 N   0  0  0  0  0  0  0  0  0  0  0  0
   35.3010   30.6080   38.5850 H   0  0  0  0  0  0  0  0  0  0  0  0
   34.0990   29.3040   40.3740 H   0  0  0  0  0  0  0  0  0  0  0  0
   38.0170   27.4630   41.8720 C   0  0  1  0  0  0  0  0  0  0  0  0
   39.1320   28.0520   42.7060 C   0  0  0  0  0  0  0  0  0  0  0  0
   37.7860   27.7520   43.3030 C   0  0  1  0  0  0  0  0  0  0  0  0
   38.1100   26.4090   41.5600 H   0  0  0  0  0  0  0  0  0  0  0  0
   39.3980   29.0920   42.3950 H   0  0  0  0  0  0  0  0  0  0  0  0
   39.9890   27.3620   42.8430 H   0  0  0  0  0  0  0  0  0  0  0  0
   37.8160   26.9540   44.0760 H   0  0  0  0  0  0  0  0  0  0  0  0
   37.0780   28.9840   43.6800 N   0  0  0  0  0  0  0  0  0  0  0  0
   36.3020   28.7890   44.3540 H   0  0  0  0  0  0  0  0  0  0  0  0
   37.7760   29.6610   44.0470 H   0  0  0  0  0  0  0  0  0  0  0  0
   37.8680   30.5910   38.1400 C   0  0  0  0  0  0  0  0  0  0  0  0
   37.6530   30.4070   36.8920 O   0  0  0  0  0  0  0  0  0  0  0  0
   38.8100   31.6540   38.4790 C   0  0  0  0  0  0  0  0  0  0  0  0
   38.5510   32.5240   39.5160 C   0  0  0  0  0  3  0  0  0  0  0  0
   39.4620   33.5070   39.8000 C   0  0  0  0  0  0  0  0  0  0  0  0
   39.2690   34.1950   40.6100 H   0  0  0  0  0  0  0  0  0  0  0  0
   40.5730   33.5870   39.0590 N   0  0  0  0  0  0  0  0  0  0  0  0
   40.8590   32.7580   38.0430 C   0  0  0  0  0  3  0  0  0  0  0  0
   39.9510   31.8010   37.7810 N   0  0  0  0  0  0  0  0  0  0  0  0
  1  2  2  0  0  0  0
  1  6  1  0  0  0  0
  2  3  1  0  0  0  0
  3  8  1  0  0  0  0
  3  4  2  0  0  0  0
  5  4  1  0  0  0  0
  5  9  1  0  0  0  0
  6  5  2  0  0  0  0
  7  2  1  0  0  0  0
  9 12  1  6  0  0  0
  9 10  1  0  0  0  0
  9 11  1  0  0  0  0
 10 14  1  0  0  0  0
 10 11  1  0  0  0  0
 11 16  1  0  0  0  0
 11 15  1  1  0  0  0
 13 10  1  0  0  0  0
 16 18  1  0  0  0  0
 16 17  1  0  0  0  0
 19 21  1  0  0  0  0
 19  1  1  0  0  0  0
 20 19  2  0  0  0  0
 21 22  1  0  0  0  0
 22 23  2  0  0  0  0
 23 24  1  0  0  0  0
 25 23  1  0  0  0  0
 26 25  2  0  0  0  0
 27 26  1  0  0  0  0
 27 21  2  0  0  0  0
M  END
>  <minimizedAffinity>
-4.63977814

$$$$
