
 OpenBabel03252503313D

 39 41  0  0  1  0  0  0  0  0999 V2000
   45.7550   34.3390   42.3800 C   0  0  0  0  0  0  0  0  0  0  0  0
   46.7760   35.1610   41.8250 C   0  0  0  0  0  0  0  0  0  0  0  0
   48.0870   34.9070   42.2660 C   0  0  0  0  0  0  0  0  0  0  0  0
   48.2730   33.9230   43.1630 N   0  0  0  0  0  0  0  0  0  0  0  0
   47.2670   33.1690   43.6600 C   0  0  0  0  0  0  0  0  0  0  0  0
   45.9990   33.3860   43.2590 N   0  0  0  0  0  0  0  0  0  0  0  0
   44.1540   34.0220   40.6910 C   0  0  0  0  0  0  0  0  0  0  0  0
   45.1290   33.5080   40.0450 O   0  0  0  0  0  0  0  0  0  0  0  0
   44.3920   34.5350   41.9800 N   0  0  0  0  0  0  0  0  0  0  0  0
   42.8910   34.0360   40.0530 N   0  0  0  0  0  0  0  0  0  0  0  0
   42.8000   33.7690   38.6060 C   0  0  0  0  0  0  0  0  0  0  0  0
   41.6140   34.5890   38.2060 C   0  0  0  0  0  0  0  0  0  0  0  0
   41.0550   35.1670   39.4710 C   0  0  0  0  0  0  0  0  0  0  0  0
   41.5630   34.2470   40.5540 C   0  0  1  0  0  0  0  0  0  0  0  0
   46.4410   35.8940   41.1260 H   0  0  0  0  0  0  0  0  0  0  0  0
   47.4790   32.3860   44.3840 H   0  0  0  0  0  0  0  0  0  0  0  0
   43.5990   34.9810   42.4850 H   0  0  0  0  0  0  0  0  0  0  0  0
   43.7170   34.0380   38.0690 H   0  0  0  0  0  0  0  0  0  0  0  0
   42.5550   32.6870   38.4490 H   0  0  0  0  0  0  0  0  0  0  0  0
   40.8560   33.9860   37.6340 H   0  0  0  0  0  0  0  0  0  0  0  0
   41.9390   35.3700   37.4860 H   0  0  0  0  0  0  0  0  0  0  0  0
   41.7540   36.0630   39.6320 H   0  0  0  0  0  0  0  0  0  0  0  0
   40.1170   35.6160   39.4870 H   0  0  0  0  0  0  0  0  0  0  0  0
   41.4100   34.8070   41.4690 H   0  0  0  0  0  0  0  0  0  0  0  0
   39.4790   32.8050   41.0110 C   0  0  0  0  0  0  0  0  0  0  0  0
   38.9010   33.9120   40.9790 O   0  0  0  0  0  0  0  0  0  0  0  0
   40.8710   32.9680   40.6350 N   0  0  0  0  0  0  0  0  0  0  0  0
   41.4330   32.0900   40.4000 H   0  0  0  0  0  0  0  0  0  0  0  0
   38.9020   31.5370   41.3590 C   0  0  0  0  0  0  0  0  0  0  0  0
   39.7520   30.6350   41.9690 C   0  0  0  0  0  3  0  0  0  0  0  0
   39.2360   29.3940   42.3240 C   0  0  0  0  0  0  0  0  0  0  0  0
   39.8600   28.6510   42.8070 H   0  0  0  0  0  0  0  0  0  0  0  0
   37.9760   29.0180   42.1140 N   0  0  0  0  0  0  0  0  0  0  0  0
   37.1660   29.9350   41.5080 C   0  0  0  0  0  3  0  0  0  0  0  0
   37.6240   31.1670   41.1400 N   0  0  0  0  0  0  0  0  0  0  0  0
   49.1120   35.7640   41.6830 C   0  0  0  0  0  0  0  0  0  0  0  0
   50.3620   35.3250   42.1010 F   0  0  0  0  0  0  0  0  0  0  0  0
   48.9540   37.0390   42.2560 F   0  0  0  0  0  0  0  0  0  0  0  0
   49.0920   35.8030   40.3160 F   0  0  0  0  0  0  0  0  0  0  0  0
  1  6  1  0  0  0  0
  2  3  1  0  0  0  0
  2  1  2  0  0  0  0
  3  4  2  0  0  0  0
  4  5  1  0  0  0  0
  5 16  1  0  0  0  0
  6  5  2  0  0  0  0
  7  9  1  0  0  0  0
  8  7  2  0  0  0  0
  9  1  1  0  0  0  0
  9 17  1  0  0  0  0
 10 14  1  0  0  0  0
 10  7  1  0  0  0  0
 11 10  1  0  0  0  0
 12 11  1  0  0  0  0
 12 13  1  0  0  0  0
 13 23  1  0  0  0  0
 13 22  1  0  0  0  0
 13 14  1  0  0  0  0
 14 27  1  0  0  0  0
 14 24  1  1  0  0  0
 15  2  1  0  0  0  0
 18 11  1  0  0  0  0
 19 11  1  0  0  0  0
 20 12  1  0  0  0  0
 21 12  1  0  0  0  0
 25 29  1  0  0  0  0
 26 25  2  0  0  0  0
 27 25  1  0  0  0  0
 28 27  1  0  0  0  0
 29 30  1  0  0  0  0
 30 31  2  0  0  0  0
 31 32  1  0  0  0  0
 33 31  1  0  0  0  0
 34 33  2  0  0  0  0
 35 29  2  0  0  0  0
 35 34  1  0  0  0  0
 36 37  1  0  0  0  0
 36 38  1  0  0  0  0
 36  3  1  0  0  0  0
 39 36  1  0  0  0  0
M  END
>  <minimizedAffinity>
-6.73902178

>  <minimizedRMSD>
0.991805673

$$$$
