
     RDKit          3D

 25 26  0  0  0  0  0  0  0  0999 V2000
   45.4214   35.1997   43.0999 C   0  0  0  0  0  0  0  0  0  0  0  0
   46.4586   35.5571   42.2120 C   0  0  0  0  0  0  0  0  0  0  0  0
   47.6819   34.8854   42.3757 C   0  0  0  0  0  0  0  0  0  0  0  0
   47.7739   33.9566   43.3607 N   0  0  0  0  0  0  0  0  0  0  0  0
   46.7370   33.6544   44.1873 C   0  0  0  0  0  0  0  0  0  0  0  0
   45.5669   34.2785   44.0511 N   0  0  0  0  0  0  0  0  0  0  0  0
   43.3994   35.3423   41.8913 C   0  0  0  0  0  0  0  0  0  0  0  0
   43.9559   34.4617   41.1499 O   0  0  0  0  0  0  0  0  0  0  0  0
   44.1472   35.8361   42.9994 N   0  0  0  0  0  0  0  0  0  0  0  0
   48.7403   35.2642   41.4541 C   0  0  0  0  0  0  0  0  0  0  0  0
   49.8486   34.4439   41.6624 F   0  0  0  0  0  0  0  0  0  0  0  0
   49.1532   36.5382   41.8163 F   0  0  0  0  0  0  0  0  0  0  0  0
   48.3877   35.1539   40.1358 F   0  0  0  0  0  0  0  0  0  0  0  0
   46.3170   36.3061   41.4497 H   0  0  0  0  0  0  0  0  0  0  0  0
   46.8451   32.9080   44.9626 H   0  0  0  0  0  0  0  0  0  0  0  0
   43.7654   36.5696   43.6260 H   0  0  0  0  0  0  0  0  0  0  0  0
   42.0442   35.8459   41.6378 C   0  0  0  0  0  0  0  0  0  0  0  0
   41.8839   37.1979   41.4023 C   0  0  0  0  0  0  0  0  0  0  0  0
   40.5665   37.6126   41.1677 C   0  0  0  0  0  0  0  0  0  0  0  0
   40.4122   38.6593   40.9816 H   0  0  0  0  0  0  0  0  0  0  0  0
   39.5458   36.7364   41.1764 N   0  0  0  0  0  0  0  0  0  0  0  0
   39.7371   35.4276   41.4090 C   0  0  0  0  0  0  0  0  0  0  0  0
   41.0077   34.9869   41.6416 N   0  0  0  0  0  0  0  0  0  0  0  0
   42.6918   37.9098   41.3925 H   0  0  0  0  0  0  0  0  0  0  0  0
   38.9022   34.7588   41.4084 H   0  0  0  0  0  0  0  0  0  0  0  0
  1  6  2  0
  2  3  2  0
  2  1  1  0
  3  4  1  0
  4  5  2  0
  6  5  1  0
  7  9  1  0
  8  7  2  0
  9  1  1  0
 10 11  1  0
 10 12  1  0
 10  3  1  0
 13 10  1  0
  2 14  1  0
  5 15  1  0
  9 16  1  0
 17 18  2  0
 18 19  1  0
 19 20  1  0
 19 21  2  0
 21 22  1  0
 22 23  2  0
 23 17  1  0
 18 24  1  0
 22 25  1  0
  7 17  1  0
M  ISO  3  14  14  15  14  20  14
M  END
>  <DihAtoms>  (1) 
8,6,16,17

>  <DihDeg>  (1) 
179.99796426398453

$$$$
