
 OpenBabel03242518513D

 21 22  0  0  0  0  0  0  0  0999 V2000
   37.9310   28.5610   43.3480 C   0  0  0  0  0  0  0  0  0  0  0  0
   38.1160   27.1630   43.2640 C   0  0  0  0  0  0  0  0  0  0  0  0
   37.4790   26.5110   42.1980 C   0  0  0  0  0  0  0  0  0  0  0  0
   36.7460   27.2410   41.3350 N   0  0  0  0  0  0  0  0  0  0  0  0
   36.5920   28.5860   41.4500 C   0  0  0  0  0  0  0  0  0  0  0  0
   37.1950   29.2460   42.4700 N   0  0  0  0  0  0  0  0  0  0  0  0
   38.3930   29.1280   44.1440 H   0  0  0  0  0  0  0  0  0  0  0  0
   38.7360   26.6780   44.0260 H   0  0  0  0  0  0  0  0  0  0  0  0
   37.6930   25.0670   42.1410 C   0  0  0  0  0  0  0  0  0  0  0  0
   38.0080   24.7140   40.8210 F   0  0  0  0  0  0  0  0  0  0  0  0
   36.4740   24.4710   42.4100 F   0  0  0  0  0  0  0  0  0  0  0  0
   38.6970   24.6250   42.9520 F   0  0  0  0  0  0  0  0  0  0  0  0
   35.7930   29.3500   40.5020 C   0  0  0  0  0  0  0  0  0  0  0  0
   34.5670   29.1780   40.3730 O   0  0  0  0  0  0  0  0  0  0  0  0
   36.4110   30.3610   39.6570 C   0  0  0  0  0  0  0  0  0  0  0  0
   36.7880   30.0300   38.3710 C   0  0  0  0  0  3  0  0  0  0  0  0
   37.3800   30.9280   37.5040 C   0  0  0  0  0  0  0  0  0  0  0  0
   37.6800   30.6900   36.5010 H   0  0  0  0  0  0  0  0  0  0  0  0
   37.5900   32.1930   37.9650 N   0  0  0  0  0  0  0  0  0  0  0  0
   37.2250   32.5340   39.2290 C   0  0  0  0  0  3  0  0  0  0  0  0
   36.6500   31.6350   40.0480 N   0  0  0  0  0  0  0  0  0  0  0  0
  1  7  1  0  0  0  0
  2  1  1  0  0  0  0
  2  8  1  0  0  0  0
  3  2  2  0  0  0  0
  4  5  2  0  0  0  0
  4  3  1  0  0  0  0
  5  6  1  0  0  0  0
  6  1  2  0  0  0  0
  9  3  1  0  0  0  0
  9 11  1  0  0  0  0
  9 12  1  0  0  0  0
 10  9  1  0  0  0  0
 13  5  1  0  0  0  0
 14 13  2  0  0  0  0
 15 21  1  0  0  0  0
 15 13  1  0  0  0  0
 16 15  2  0  0  0  0
 17 19  2  0  0  0  0
 17 16  1  0  0  0  0
 18 17  1  0  0  0  0
 19 20  1  0  0  0  0
 20 21  2  0  0  0  0
M  END
>  <minimizedAffinity>
-5.04167843

$$$$

 OpenBabel03242518513D

 21 22  0  0  0  0  0  0  0  0999 V2000
   39.3900   30.2590   42.6980 C   0  0  0  0  0  0  0  0  0  0  0  0
   38.4100   29.2410   42.6910 C   0  0  0  0  0  0  0  0  0  0  0  0
   37.3910   29.3610   41.7350 C   0  0  0  0  0  0  0  0  0  0  0  0
   37.4070   30.4150   40.8970 N   0  0  0  0  0  0  0  0  0  0  0  0
   38.3690   31.3750   40.9350 C   0  0  0  0  0  0  0  0  0  0  0  0
   39.3680   31.2870   41.8480 N   0  0  0  0  0  0  0  0  0  0  0  0
   40.2050   30.2300   43.4080 H   0  0  0  0  0  0  0  0  0  0  0  0
   38.5030   28.4310   43.4230 H   0  0  0  0  0  0  0  0  0  0  0  0
   36.3960   28.2910   41.7550 C   0  0  0  0  0  0  0  0  0  0  0  0
   36.8460   27.2470   40.9350 F   0  0  0  0  0  0  0  0  0  0  0  0
   35.2600   28.7890   41.1430 F   0  0  0  0  0  0  0  0  0  0  0  0
   36.1570   27.7830   42.9990 F   0  0  0  0  0  0  0  0  0  0  0  0
   38.3620   32.5040   40.0160 C   0  0  0  0  0  0  0  0  0  0  0  0
   37.3740   33.2500   39.8850 O   0  0  0  0  0  0  0  0  0  0  0  0
   39.5310   32.8070   39.2030 C   0  0  0  0  0  0  0  0  0  0  0  0
   39.8160   32.0170   38.1080 C   0  0  0  0  0  3  0  0  0  0  0  0
   40.9050   32.2340   37.2860 C   0  0  0  0  0  0  0  0  0  0  0  0
   41.1440   31.6320   36.4290 H   0  0  0  0  0  0  0  0  0  0  0  0
   41.7180   33.2850   37.5920 N   0  0  0  0  0  0  0  0  0  0  0  0
   41.4490   34.0710   38.6670 C   0  0  0  0  0  3  0  0  0  0  0  0
   40.3810   33.8310   39.4480 N   0  0  0  0  0  0  0  0  0  0  0  0
  1  7  1  0  0  0  0
  2  1  1  0  0  0  0
  2  8  1  0  0  0  0
  3  9  1  0  0  0  0
  3  2  2  0  0  0  0
  4  5  2  0  0  0  0
  4  3  1  0  0  0  0
  5  6  1  0  0  0  0
  6  1  2  0  0  0  0
  9 12  1  0  0  0  0
 10  9  1  0  0  0  0
 11  9  1  0  0  0  0
 13  5  1  0  0  0  0
 14 13  2  0  0  0  0
 15 21  1  0  0  0  0
 15 13  1  0  0  0  0
 16 15  2  0  0  0  0
 17 19  2  0  0  0  0
 17 16  1  0  0  0  0
 18 17  1  0  0  0  0
 19 20  1  0  0  0  0
 20 21  2  0  0  0  0
M  END
>  <minimizedAffinity>
-4.90188313

$$$$

 OpenBabel03242518513D

 21 22  0  0  0  0  0  0  0  0999 V2000
   37.8370   28.3730   43.6060 C   0  0  0  0  0  0  0  0  0  0  0  0
   37.8380   26.9970   43.2890 C   0  0  0  0  0  0  0  0  0  0  0  0
   37.2560   26.6370   42.0640 C   0  0  0  0  0  0  0  0  0  0  0  0
   36.7430   27.6050   41.2800 N   0  0  0  0  0  0  0  0  0  0  0  0
   36.7610   28.9200   41.6200 C   0  0  0  0  0  0  0  0  0  0  0  0
   37.3170   29.3000   42.7980 N   0  0  0  0  0  0  0  0  0  0  0  0
   38.2680   28.7220   44.5330 H   0  0  0  0  0  0  0  0  0  0  0  0
   38.2850   26.3020   44.0070 H   0  0  0  0  0  0  0  0  0  0  0  0
   37.2760   25.2070   41.7670 C   0  0  0  0  0  0  0  0  0  0  0  0
   36.7560   25.0110   40.4800 F   0  0  0  0  0  0  0  0  0  0  0  0
   36.3780   24.6060   42.6320 F   0  0  0  0  0  0  0  0  0  0  0  0
   38.5200   24.6500   41.8140 F   0  0  0  0  0  0  0  0  0  0  0  0
   36.1990   29.9450   40.7530 C   0  0  0  0  0  0  0  0  0  0  0  0
   36.2010   31.1510   41.0580 O   0  0  0  0  0  0  0  0  0  0  0  0
   35.6050   29.5880   39.4720 C   0  0  0  0  0  0  0  0  0  0  0  0
   36.3420   29.7480   38.3160 C   0  0  0  0  0  3  0  0  0  0  0  0
   35.8530   29.4350   37.0630 C   0  0  0  0  0  0  0  0  0  0  0  0
   36.4100   29.5510   36.1520 H   0  0  0  0  0  0  0  0  0  0  0  0
   34.5830   28.9470   36.9920 N   0  0  0  0  0  0  0  0  0  0  0  0
   33.8450   28.7840   38.1220 C   0  0  0  0  0  3  0  0  0  0  0  0
   34.3510   29.0990   39.3280 N   0  0  0  0  0  0  0  0  0  0  0  0
  1  7  1  0  0  0  0
  2  1  1  0  0  0  0
  2  8  1  0  0  0  0
  3  2  2  0  0  0  0
  4  5  2  0  0  0  0
  4  3  1  0  0  0  0
  5  6  1  0  0  0  0
  6  1  2  0  0  0  0
  9 12  1  0  0  0  0
  9  3  1  0  0  0  0
  9 11  1  0  0  0  0
 10  9  1  0  0  0  0
 13 14  2  0  0  0  0
 13  5  1  0  0  0  0
 15 13  1  0  0  0  0
 16 15  2  0  0  0  0
 17 16  1  0  0  0  0
 18 17  1  0  0  0  0
 19 17  2  0  0  0  0
 19 20  1  0  0  0  0
 20 21  2  0  0  0  0
 21 15  1  0  0  0  0
M  END
>  <minimizedAffinity>
-4.87549448

$$$$

 OpenBabel03242518513D

 21 22  0  0  0  0  0  0  0  0999 V2000
   35.8180   29.9870   40.3090 C   0  0  0  0  0  0  0  0  0  0  0  0
   36.8350   30.9660   40.2620 C   0  0  0  0  0  0  0  0  0  0  0  0
   37.9100   30.7940   41.1470 C   0  0  0  0  0  0  0  0  0  0  0  0
   37.9090   29.7280   41.9710 N   0  0  0  0  0  0  0  0  0  0  0  0
   36.9100   28.8070   41.9860 C   0  0  0  0  0  0  0  0  0  0  0  0
   35.8580   28.9450   41.1420 N   0  0  0  0  0  0  0  0  0  0  0  0
   34.9610   30.0560   39.6550 H   0  0  0  0  0  0  0  0  0  0  0  0
   36.7260   31.7900   39.5480 H   0  0  0  0  0  0  0  0  0  0  0  0
   38.9430   31.8240   41.0710 C   0  0  0  0  0  0  0  0  0  0  0  0
   39.7060   31.6060   39.9140 F   0  0  0  0  0  0  0  0  0  0  0  0
   39.8020   31.6090   42.1350 F   0  0  0  0  0  0  0  0  0  0  0  0
   38.4540   33.0970   41.0250 F   0  0  0  0  0  0  0  0  0  0  0  0
   36.9360   27.6640   42.8870 C   0  0  0  0  0  0  0  0  0  0  0  0
   35.9950   27.4030   43.6590 O   0  0  0  0  0  0  0  0  0  0  0  0
   38.0840   26.7690   42.9180 C   0  0  0  0  0  0  0  0  0  0  0  0
   38.0780   25.6340   42.1330 C   0  0  0  0  0  3  0  0  0  0  0  0
   39.1250   24.7330   42.1040 C   0  0  0  0  0  0  0  0  0  0  0  0
   39.1400   23.8450   41.5000 H   0  0  0  0  0  0  0  0  0  0  0  0
   40.2010   25.0020   42.8960 N   0  0  0  0  0  0  0  0  0  0  0  0
   40.2210   26.1160   43.6740 C   0  0  0  0  0  3  0  0  0  0  0  0
   39.1840   26.9720   43.6800 N   0  0  0  0  0  0  0  0  0  0  0  0
  1  6  1  0  0  0  0
  2  1  2  0  0  0  0
  2  3  1  0  0  0  0
  3  4  2  0  0  0  0
  4  5  1  0  0  0  0
  5 13  1  0  0  0  0
  6  5  2  0  0  0  0
  7  1  1  0  0  0  0
  8  2  1  0  0  0  0
  9  3  1  0  0  0  0
  9 11  1  0  0  0  0
 10  9  1  0  0  0  0
 12  9  1  0  0  0  0
 13 15  1  0  0  0  0
 13 14  2  0  0  0  0
 15 21  1  0  0  0  0
 16 15  2  0  0  0  0
 17 16  1  0  0  0  0
 17 19  2  0  0  0  0
 18 17  1  0  0  0  0
 19 20  1  0  0  0  0
 20 21  2  0  0  0  0
M  END
>  <minimizedAffinity>
-4.78597593

$$$$

 OpenBabel03242518513D

 21 22  0  0  0  0  0  0  0  0999 V2000
   36.8700   26.7020   39.5840 C   0  0  0  0  0  0  0  0  0  0  0  0
   36.9280   26.6700   40.9960 C   0  0  0  0  0  0  0  0  0  0  0  0
   37.0440   27.9080   41.6440 C   0  0  0  0  0  0  0  0  0  0  0  0
   37.0910   29.0300   40.9000 N   0  0  0  0  0  0  0  0  0  0  0  0
   37.0310   29.0190   39.5420 C   0  0  0  0  0  0  0  0  0  0  0  0
   36.9190   27.8380   38.8860 N   0  0  0  0  0  0  0  0  0  0  0  0
   36.7800   25.7850   39.0190 H   0  0  0  0  0  0  0  0  0  0  0  0
   36.8820   25.6950   41.4920 H   0  0  0  0  0  0  0  0  0  0  0  0
   37.1010   27.8390   43.1020 C   0  0  0  0  0  0  0  0  0  0  0  0
   37.3650   29.1230   43.6010 F   0  0  0  0  0  0  0  0  0  0  0  0
   38.2090   27.0740   43.4250 F   0  0  0  0  0  0  0  0  0  0  0  0
   35.9500   27.3860   43.6790 F   0  0  0  0  0  0  0  0  0  0  0  0
   37.0830   30.2480   38.7630 C   0  0  0  0  0  0  0  0  0  0  0  0
   36.4780   30.3780   37.6830 O   0  0  0  0  0  0  0  0  0  0  0  0
   37.8580   31.3890   39.2270 C   0  0  0  0  0  0  0  0  0  0  0  0
   37.2090   32.5650   39.5440 C   0  0  0  0  0  3  0  0  0  0  0  0
   37.8690   33.6930   39.9910 C   0  0  0  0  0  0  0  0  0  0  0  0
   37.3830   34.6160   40.2430 H   0  0  0  0  0  0  0  0  0  0  0  0
   39.2240   33.6140   40.1160 N   0  0  0  0  0  0  0  0  0  0  0  0
   39.8770   32.4630   39.8080 C   0  0  0  0  0  3  0  0  0  0  0  0
   39.2040   31.3820   39.3750 N   0  0  0  0  0  0  0  0  0  0  0  0
  1  2  1  0  0  0  0
  2  8  1  0  0  0  0
  2  3  2  0  0  0  0
  3  9  1  0  0  0  0
  4  3  1  0  0  0  0
  5  4  2  0  0  0  0
  6  5  1  0  0  0  0
  6  1  2  0  0  0  0
  7  1  1  0  0  0  0
  9 11  1  0  0  0  0
  9 10  1  0  0  0  0
  9 12  1  0  0  0  0
 13 15  1  0  0  0  0
 13  5  1  0  0  0  0
 14 13  2  0  0  0  0
 15 21  2  0  0  0  0
 15 16  1  0  0  0  0
 16 17  2  0  0  0  0
 17 19  1  0  0  0  0
 17 18  1  0  0  0  0
 20 19  2  0  0  0  0
 21 20  1  0  0  0  0
M  END
>  <minimizedAffinity>
-4.74756002

$$$$

 OpenBabel03242518513D

 21 22  0  0  0  0  0  0  0  0999 V2000
   39.9080   28.8590   42.9310 C   0  0  0  0  0  0  0  0  0  0  0  0
   39.1830   27.6470   42.9540 C   0  0  0  0  0  0  0  0  0  0  0  0
   37.9670   27.6330   42.2550 C   0  0  0  0  0  0  0  0  0  0  0  0
   37.5720   28.7510   41.6150 N   0  0  0  0  0  0  0  0  0  0  0  0
   38.3000   29.8990   41.6170 C   0  0  0  0  0  0  0  0  0  0  0  0
   39.4800   29.9450   42.2840 N   0  0  0  0  0  0  0  0  0  0  0  0
   40.8530   28.9420   43.4490 H   0  0  0  0  0  0  0  0  0  0  0  0
   39.6060   26.8030   43.5090 H   0  0  0  0  0  0  0  0  0  0  0  0
   37.2440   26.3640   42.2980 C   0  0  0  0  0  0  0  0  0  0  0  0
   36.2400   26.4550   43.2730 F   0  0  0  0  0  0  0  0  0  0  0  0
   38.1350   25.4110   42.7610 F   0  0  0  0  0  0  0  0  0  0  0  0
   36.6590   26.0210   41.1150 F   0  0  0  0  0  0  0  0  0  0  0  0
   37.8490   31.0930   40.9170 C   0  0  0  0  0  0  0  0  0  0  0  0
   36.6480   31.4170   40.8550 O   0  0  0  0  0  0  0  0  0  0  0  0
   38.8030   31.9670   40.2500 C   0  0  0  0  0  0  0  0  0  0  0  0
   38.9540   33.2660   40.6930 C   0  0  0  0  0  3  0  0  0  0  0  0
   39.8360   34.1600   40.1170 C   0  0  0  0  0  0  0  0  0  0  0  0
   39.9690   35.1730   40.4460 H   0  0  0  0  0  0  0  0  0  0  0  0
   40.5800   33.7130   39.0660 N   0  0  0  0  0  0  0  0  0  0  0  0
   40.4420   32.4370   38.6200 C   0  0  0  0  0  3  0  0  0  0  0  0
   39.5740   31.5920   39.2030 N   0  0  0  0  0  0  0  0  0  0  0  0
  1  2  1  0  0  0  0
  1  7  1  0  0  0  0
  2  8  1  0  0  0  0
  3  9  1  0  0  0  0
  3  2  2  0  0  0  0
  4  5  2  0  0  0  0
  4  3  1  0  0  0  0
  5  6  1  0  0  0  0
  6  1  2  0  0  0  0
  9 11  1  0  0  0  0
  9 10  1  0  0  0  0
 12  9  1  0  0  0  0
 13  5  1  0  0  0  0
 14 13  2  0  0  0  0
 15 16  1  0  0  0  0
 15 13  1  0  0  0  0
 17 18  1  0  0  0  0
 17 16  2  0  0  0  0
 19 17  1  0  0  0  0
 20 19  2  0  0  0  0
 20 21  1  0  0  0  0
 21 15  2  0  0  0  0
M  END
>  <minimizedAffinity>
-4.59180117

$$$$

 OpenBabel03242518513D

 21 22  0  0  0  0  0  0  0  0999 V2000
   40.6200   32.6630   40.8770 C   0  0  0  0  0  0  0  0  0  0  0  0
   39.4720   32.9470   40.1050 C   0  0  0  0  0  0  0  0  0  0  0  0
   38.4620   31.9730   40.1050 C   0  0  0  0  0  0  0  0  0  0  0  0
   38.6430   30.8500   40.8260 N   0  0  0  0  0  0  0  0  0  0  0  0
   39.7630   30.6130   41.5570 C   0  0  0  0  0  0  0  0  0  0  0  0
   40.7580   31.5350   41.5780 N   0  0  0  0  0  0  0  0  0  0  0  0
   41.4380   33.3680   40.9230 H   0  0  0  0  0  0  0  0  0  0  0  0
   39.4390   33.8960   39.5590 H   0  0  0  0  0  0  0  0  0  0  0  0
   37.2890   32.3000   39.2970 C   0  0  0  0  0  0  0  0  0  0  0  0
   36.9280   33.6310   39.5530 F   0  0  0  0  0  0  0  0  0  0  0  0
   36.2460   31.5270   39.7760 F   0  0  0  0  0  0  0  0  0  0  0  0
   37.4870   32.1630   37.9540 F   0  0  0  0  0  0  0  0  0  0  0  0
   39.9320   29.3900   42.3280 C   0  0  0  0  0  0  0  0  0  0  0  0
   40.9970   29.1070   42.9060 O   0  0  0  0  0  0  0  0  0  0  0  0
   38.8390   28.4360   42.4530 C   0  0  0  0  0  0  0  0  0  0  0  0
   37.9360   28.5730   43.4880 C   0  0  0  0  0  3  0  0  0  0  0  0
   36.8730   27.7130   43.6790 C   0  0  0  0  0  0  0  0  0  0  0  0
   36.1600   27.8020   44.4770 H   0  0  0  0  0  0  0  0  0  0  0  0
   36.7310   26.6890   42.7900 N   0  0  0  0  0  0  0  0  0  0  0  0
   37.6120   26.5420   41.7660 C   0  0  0  0  0  3  0  0  0  0  0  0
   38.6370   27.3980   41.6090 N   0  0  0  0  0  0  0  0  0  0  0  0
  1  7  1  0  0  0  0
  1  6  1  0  0  0  0
  2  3  1  0  0  0  0
  2  1  2  0  0  0  0
  3  4  2  0  0  0  0
  4  5  1  0  0  0  0
  5  6  2  0  0  0  0
  5 13  1  0  0  0  0
  8  2  1  0  0  0  0
  9 10  1  0  0  0  0
  9 11  1  0  0  0  0
  9  3  1  0  0  0  0
 12  9  1  0  0  0  0
 13 15  1  0  0  0  0
 13 14  2  0  0  0  0
 15 16  1  0  0  0  0
 16 17  2  0  0  0  0
 17 18  1  0  0  0  0
 19 17  1  0  0  0  0
 20 19  2  0  0  0  0
 21 20  1  0  0  0  0
 21 15  2  0  0  0  0
M  END
>  <minimizedAffinity>
-4.52151299

$$$$

 OpenBabel03242518513D

 21 22  0  0  0  0  0  0  0  0999 V2000
   40.4040   27.0330   43.5860 C   0  0  0  0  0  0  0  0  0  0  0  0
   39.0670   26.6360   43.3600 C   0  0  0  0  0  0  0  0  0  0  0  0
   38.2230   27.5890   42.7720 C   0  0  0  0  0  0  0  0  0  0  0  0
   38.7260   28.8000   42.4630 N   0  0  0  0  0  0  0  0  0  0  0  0
   40.0200   29.1440   42.6960 C   0  0  0  0  0  0  0  0  0  0  0  0
   40.8610   28.2450   43.2630 N   0  0  0  0  0  0  0  0  0  0  0  0
   41.1100   26.3490   44.0360 H   0  0  0  0  0  0  0  0  0  0  0  0
   38.7730   25.6230   43.6540 H   0  0  0  0  0  0  0  0  0  0  0  0
   36.8480   27.1450   42.5520 C   0  0  0  0  0  0  0  0  0  0  0  0
   36.0840   27.4820   43.6790 F   0  0  0  0  0  0  0  0  0  0  0  0
   36.8750   25.7620   42.5140 F   0  0  0  0  0  0  0  0  0  0  0  0
   36.2570   27.7000   41.4550 F   0  0  0  0  0  0  0  0  0  0  0  0
   40.5370   30.4610   42.3510 C   0  0  0  0  0  0  0  0  0  0  0  0
   41.4640   30.9990   42.9830 O   0  0  0  0  0  0  0  0  0  0  0  0
   39.9780   31.2080   41.2340 C   0  0  0  0  0  0  0  0  0  0  0  0
   40.3610   30.8890   39.9460 C   0  0  0  0  0  3  0  0  0  0  0  0
   39.8790   31.5470   38.8320 C   0  0  0  0  0  0  0  0  0  0  0  0
   40.1640   31.3150   37.8240 H   0  0  0  0  0  0  0  0  0  0  0  0
   38.9850   32.5550   39.0410 N   0  0  0  0  0  0  0  0  0  0  0  0
   38.5980   32.8800   40.3020 C   0  0  0  0  0  3  0  0  0  0  0  0
   39.0870   32.2180   41.3660 N   0  0  0  0  0  0  0  0  0  0  0  0
  1  7  1  0  0  0  0
  2  1  1  0  0  0  0
  2  8  1  0  0  0  0
  3  2  2  0  0  0  0
  4  5  2  0  0  0  0
  4  3  1  0  0  0  0
  5  6  1  0  0  0  0
  6  1  2  0  0  0  0
  9  3  1  0  0  0  0
  9 10  1  0  0  0  0
 11  9  1  0  0  0  0
 12  9  1  0  0  0  0
 13  5  1  0  0  0  0
 13 14  2  0  0  0  0
 15 21  1  0  0  0  0
 15 13  1  0  0  0  0
 16 15  2  0  0  0  0
 17 19  2  0  0  0  0
 17 16  1  0  0  0  0
 18 17  1  0  0  0  0
 19 20  1  0  0  0  0
 20 21  2  0  0  0  0
M  END
>  <minimizedAffinity>
-4.51980495

$$$$

 OpenBabel03242518513D

 21 22  0  0  0  0  0  0  0  0999 V2000
   38.8500   26.9170   39.4480 C   0  0  0  0  0  0  0  0  0  0  0  0
   38.2320   25.7100   39.8450 C   0  0  0  0  0  0  0  0  0  0  0  0
   37.5490   25.7310   41.0690 C   0  0  0  0  0  0  0  0  0  0  0  0
   37.5220   26.8760   41.7790 N   0  0  0  0  0  0  0  0  0  0  0  0
   38.1290   28.0180   41.3620 C   0  0  0  0  0  0  0  0  0  0  0  0
   38.7970   28.0300   40.1820 N   0  0  0  0  0  0  0  0  0  0  0  0
   39.3930   26.9730   38.5150 H   0  0  0  0  0  0  0  0  0  0  0  0
   38.3220   24.8420   39.1830 H   0  0  0  0  0  0  0  0  0  0  0  0
   36.9210   24.4670   41.4480 C   0  0  0  0  0  0  0  0  0  0  0  0
   36.3070   24.6310   42.6980 F   0  0  0  0  0  0  0  0  0  0  0  0
   37.9440   23.5550   41.6470 F   0  0  0  0  0  0  0  0  0  0  0  0
   35.9780   24.0310   40.5640 F   0  0  0  0  0  0  0  0  0  0  0  0
   38.0830   29.2410   42.1490 C   0  0  0  0  0  0  0  0  0  0  0  0
   37.9500   29.2340   43.3870 O   0  0  0  0  0  0  0  0  0  0  0  0
   38.1930   30.5420   41.5050 C   0  0  0  0  0  0  0  0  0  0  0  0
   37.1120   31.0490   40.8140 C   0  0  0  0  0  3  0  0  0  0  0  0
   37.1330   32.2730   40.1740 C   0  0  0  0  0  0  0  0  0  0  0  0
   36.3030   32.6850   39.6320 H   0  0  0  0  0  0  0  0  0  0  0  0
   38.2870   32.9950   40.2460 N   0  0  0  0  0  0  0  0  0  0  0  0
   39.3600   32.5090   40.9230 C   0  0  0  0  0  3  0  0  0  0  0  0
   39.3070   31.3120   41.5350 N   0  0  0  0  0  0  0  0  0  0  0  0
  1  2  2  0  0  0  0
  1  6  1  0  0  0  0
  2  3  1  0  0  0  0
  3  9  1  0  0  0  0
  3  4  2  0  0  0  0
  5  4  1  0  0  0  0
  5 13  1  0  0  0  0
  6  5  2  0  0  0  0
  7  1  1  0  0  0  0
  8  2  1  0  0  0  0
  9 11  1  0  0  0  0
  9 10  1  0  0  0  0
 12  9  1  0  0  0  0
 13 14  2  0  0  0  0
 15 21  1  0  0  0  0
 15 13  1  0  0  0  0
 16 15  2  0  0  0  0
 17 19  2  0  0  0  0
 17 16  1  0  0  0  0
 18 17  1  0  0  0  0
 19 20  1  0  0  0  0
 20 21  2  0  0  0  0
M  END
>  <minimizedAffinity>
-4.51377487

$$$$
