
 OpenBabel03252503313D

 39 41  0  0  1  0  0  0  0  0999 V2000
   45.3990   33.8670   41.8630 C   0  0  0  0  0  0  0  0  0  0  0  0
   46.4210   34.7980   41.5250 C   0  0  0  0  0  0  0  0  0  0  0  0
   47.7400   34.4040   41.8090 C   0  0  0  0  0  0  0  0  0  0  0  0
   47.9320   33.1970   42.3690 N   0  0  0  0  0  0  0  0  0  0  0  0
   46.9260   32.3480   42.6720 C   0  0  0  0  0  0  0  0  0  0  0  0
   45.6500   32.6940   42.4130 N   0  0  0  0  0  0  0  0  0  0  0  0
   43.7210   34.0870   40.2350 C   0  0  0  0  0  0  0  0  0  0  0  0
   44.6520   33.7680   39.4210 O   0  0  0  0  0  0  0  0  0  0  0  0
   44.0270   34.1960   41.6050 N   0  0  0  0  0  0  0  0  0  0  0  0
   42.4330   34.3090   39.6910 N   0  0  0  0  0  0  0  0  0  0  0  0
   42.2760   34.4790   38.2340 C   0  0  0  0  0  0  0  0  0  0  0  0
   41.0990   35.4010   38.1490 C   0  0  0  0  0  0  0  0  0  0  0  0
   40.6100   35.5920   39.5540 C   0  0  0  0  0  0  0  0  0  0  0  0
   41.1350   34.3860   40.2950 C   0  0  1  0  0  0  0  0  0  0  0  0
   46.0800   35.7090   41.0870 H   0  0  0  0  0  0  0  0  0  0  0  0
   47.1430   31.3830   43.1240 H   0  0  0  0  0  0  0  0  0  0  0  0
   43.2690   34.4870   42.2560 H   0  0  0  0  0  0  0  0  0  0  0  0
   43.1780   34.8790   37.7560 H   0  0  0  0  0  0  0  0  0  0  0  0
   41.9920   33.4960   37.7800 H   0  0  0  0  0  0  0  0  0  0  0  0
   40.3000   35.0050   37.4630 H   0  0  0  0  0  0  0  0  0  0  0  0
   41.4180   36.3530   37.6740 H   0  0  0  0  0  0  0  0  0  0  0  0
   41.3420   36.3890   39.9350 H   0  0  0  0  0  0  0  0  0  0  0  0
   39.6880   36.0330   39.7450 H   0  0  0  0  0  0  0  0  0  0  0  0
   41.0360   34.6560   41.3400 H   0  0  0  0  0  0  0  0  0  0  0  0
   38.9880   32.9640   40.2640 C   0  0  0  0  0  0  0  0  0  0  0  0
   38.4400   34.0720   40.4490 O   0  0  0  0  0  0  0  0  0  0  0  0
   40.4070   33.1520   40.0320 N   0  0  0  0  0  0  0  0  0  0  0  0
   40.9650   32.3280   39.6400 H   0  0  0  0  0  0  0  0  0  0  0  0
   38.3560   31.6750   40.2700 C   0  0  0  0  0  0  0  0  0  0  0  0
   38.4500   30.9520   39.0980 C   0  0  0  0  0  3  0  0  0  0  0  0
   37.8520   29.6970   39.0590 C   0  0  0  0  0  0  0  0  0  0  0  0
   37.8970   29.0890   38.1620 H   0  0  0  0  0  0  0  0  0  0  0  0
   37.1960   29.1470   40.0770 N   0  0  0  0  0  0  0  0  0  0  0  0
   37.1250   29.8900   41.2200 C   0  0  0  0  0  3  0  0  0  0  0  0
   37.6950   31.1280   41.3100 N   0  0  0  0  0  0  0  0  0  0  0  0
   48.7660   35.3770   41.4530 C   0  0  0  0  0  0  0  0  0  0  0  0
   50.0020   34.9110   41.8840 F   0  0  0  0  0  0  0  0  0  0  0  0
   48.5170   36.5320   42.2160 F   0  0  0  0  0  0  0  0  0  0  0  0
   48.8370   35.6450   40.1140 F   0  0  0  0  0  0  0  0  0  0  0  0
  1  6  1  0  0  0  0
  2  3  1  0  0  0  0
  2  1  2  0  0  0  0
  3  4  2  0  0  0  0
  4  5  1  0  0  0  0
  5 16  1  0  0  0  0
  6  5  2  0  0  0  0
  7  9  1  0  0  0  0
  8  7  2  0  0  0  0
  9  1  1  0  0  0  0
  9 17  1  0  0  0  0
 10  7  1  0  0  0  0
 10 14  1  0  0  0  0
 11 10  1  0  0  0  0
 12 11  1  0  0  0  0
 12 13  1  0  0  0  0
 13 23  1  0  0  0  0
 13 22  1  0  0  0  0
 13 14  1  0  0  0  0
 14 24  1  1  0  0  0
 15  2  1  0  0  0  0
 18 11  1  0  0  0  0
 19 11  1  0  0  0  0
 20 12  1  0  0  0  0
 21 12  1  0  0  0  0
 25 29  1  0  0  0  0
 25 26  2  0  0  0  0
 27 25  1  0  0  0  0
 27 14  1  0  0  0  0
 28 27  1  0  0  0  0
 29 35  1  0  0  0  0
 30 29  2  0  0  0  0
 31 30  1  0  0  0  0
 31 33  2  0  0  0  0
 32 31  1  0  0  0  0
 33 34  1  0  0  0  0
 34 35  2  0  0  0  0
 36  3  1  0  0  0  0
 36 37  1  0  0  0  0
 36 38  1  0  0  0  0
 39 36  1  0  0  0  0
M  END
>  <minimizedAffinity>
-6.60472155

>  <minimizedRMSD>
1.31114495

$$$$
