
 OpenBabel03242518493D

 21 22  0  0  0  0  0  0  0  0999 V2000
   44.5550   36.1340   44.2860 C   0  0  0  0  0  0  0  0  0  0  0  0
   45.3740   35.9480   43.1500 C   0  0  0  0  0  0  0  0  0  0  0  0
   46.2470   34.8510   43.1820 C   0  0  0  0  0  0  0  0  0  0  0  0
   46.2520   34.0560   44.2700 N   0  0  0  0  0  0  0  0  0  0  0  0
   45.4470   34.2680   45.3440 C   0  0  0  0  0  0  0  0  0  0  0  0
   44.5920   35.3210   45.3430 N   0  0  0  0  0  0  0  0  0  0  0  0
   43.8590   36.9600   44.3290 H   0  0  0  0  0  0  0  0  0  0  0  0
   45.2820   36.6610   42.3240 H   0  0  0  0  0  0  0  0  0  0  0  0
   47.0780   34.6870   41.9920 C   0  0  0  0  0  0  0  0  0  0  0  0
   47.8830   33.5510   42.1620 F   0  0  0  0  0  0  0  0  0  0  0  0
   47.9480   35.7630   41.9590 F   0  0  0  0  0  0  0  0  0  0  0  0
   46.3670   34.5370   40.8370 F   0  0  0  0  0  0  0  0  0  0  0  0
   45.4730   33.3930   46.5070 C   0  0  0  0  0  0  0  0  0  0  0  0
   44.7800   33.6080   47.5190 O   0  0  0  0  0  0  0  0  0  0  0  0
   46.3250   32.2130   46.5280 C   0  0  0  0  0  0  0  0  0  0  0  0
   47.2390   32.0560   47.5500 C   0  0  0  0  0  0  0  0  0  0  0  0
   48.0840   30.9680   47.6440 C   0  0  0  0  0  0  0  0  0  0  0  0
   48.8010   30.8270   48.4310 H   0  0  0  0  0  0  0  0  0  0  0  0
   47.9900   30.0190   46.6700 N   0  0  0  0  0  0  0  0  0  0  0  0
   47.0950   30.1590   45.6580 C   0  0  0  0  0  0  0  0  0  0  0  0
   46.2860   31.2320   45.5950 N   0  0  0  0  0  0  0  0  0  0  0  0
  1  7  1  0  0  0  0
  1  6  1  0  0  0  0
  2  3  1  0  0  0  0
  2  1  2  0  0  0  0
  3  4  2  0  0  0  0
  4  5  1  0  0  0  0
  5 13  1  0  0  0  0
  6  5  2  0  0  0  0
  8  2  1  0  0  0  0
  9 10  1  0  0  0  0
  9  3  1  0  0  0  0
 11  9  1  0  0  0  0
 12  9  1  0  0  0  0
 13 15  1  0  0  0  0
 13 14  2  0  0  0  0
 15 16  1  0  0  0  0
 16 17  2  0  0  0  0
 17 18  1  0  0  0  0
 19 17  1  0  0  0  0
 20 19  2  0  0  0  0
 21 20  1  0  0  0  0
 21 15  2  0  0  0  0
M  END
>  <minimizedAffinity>
-5.0809021

>  <minimizedRMSD>
0.473621726

$$$$
