
 OpenBabel03252508053D

 40 43  0  0  1  0  0  0  0  0999 V2000
   36.2730   29.8640   40.9230 C   0  0  0  0  0  0  0  0  0  0  0  0
   36.0330   30.9820   41.4990 O   0  0  0  0  0  0  0  0  0  0  0  0
   36.6530   29.7390   38.4760 C   0  0  0  0  0  0  0  0  0  0  0  0
   35.8590   29.5290   39.5660 C   0  0  0  0  0  0  0  0  0  0  0  0
   34.5850   28.9700   39.3500 C   0  0  0  0  0  0  0  0  0  0  0  0
   34.1100   28.6310   38.1100 C   0  0  0  0  0  0  0  0  0  0  0  0
   34.9150   28.8440   37.0200 C   0  0  0  0  0  0  0  0  0  0  0  0
   36.1500   29.3850   37.2190 C   0  0  0  0  0  0  0  0  0  0  0  0
   33.8850   28.7750   40.1500 H   0  0  0  0  0  0  0  0  0  0  0  0
   33.1370   28.2050   37.9520 H   0  0  0  0  0  0  0  0  0  0  0  0
   34.6200   28.6090   36.0260 H   0  0  0  0  0  0  0  0  0  0  0  0
   36.7970   29.5570   36.3410 H   0  0  0  0  0  0  0  0  0  0  0  0
   38.2210   30.3550   38.6020 S   0  0  0  0  0  0  0  0  0  0  0  0
   38.4040   31.0410   37.2280 O   0  0  0  0  0  0  0  0  0  0  0  0
   39.2480   29.2760   38.6960 O   0  0  0  0  0  0  0  0  0  0  0  0
   38.7740   31.7590   39.3440 C   0  0  0  0  0  0  0  0  0  0  0  0
   37.8560   32.8400   39.3540 C   0  0  0  0  0  3  0  0  0  0  0  0
   38.0900   34.0390   39.9740 C   0  0  0  0  0  0  0  0  0  0  0  0
   37.3910   34.8430   39.9760 H   0  0  0  0  0  0  0  0  0  0  0  0
   39.2620   34.1610   40.5930 N   0  0  0  0  0  0  0  0  0  0  0  0
   40.1730   33.2100   40.6340 C   0  0  0  0  0  3  0  0  0  0  0  0
   39.8980   32.0700   40.0200 N   0  0  0  0  0  0  0  0  0  0  0  0
   36.9870   28.8030   41.5700 C   0  0  0  0  0  0  0  0  0  0  0  0
   38.1670   29.1930   42.2860 C   0  0  0  0  0  0  0  0  0  0  0  0
   38.8650   28.1830   42.9240 C   0  0  0  0  0  0  0  0  0  0  0  0
   38.4000   26.9110   42.8370 N   0  0  0  0  0  0  0  0  0  0  0  0
   37.2650   26.5860   42.1400 C   0  0  0  0  0  0  0  0  0  0  0  0
   36.6160   27.5250   41.5450 N   0  0  0  0  0  0  0  0  0  0  0  0
   38.5970   30.1530   42.4030 H   0  0  0  0  0  0  0  0  0  0  0  0
   39.7790   28.3630   43.5010 H   0  0  0  0  0  0  0  0  0  0  0  0
   36.8330   25.1790   42.1100 C   0  0  1  0  0  0  0  0  0  0  0  0
   36.7030   24.4780   40.7740 C   0  0  0  0  0  0  0  0  0  0  0  0
   37.8740   24.2090   41.6750 C   0  0  1  0  0  0  0  0  0  0  0  0
   36.1870   24.8450   42.9340 H   0  0  0  0  0  0  0  0  0  0  0  0
   36.7990   25.0980   39.8650 H   0  0  0  0  0  0  0  0  0  0  0  0
   35.9530   23.6630   40.7710 H   0  0  0  0  0  0  0  0  0  0  0  0
   37.9760   23.2100   42.1440 H   0  0  0  0  0  0  0  0  0  0  0  0
   39.1160   24.6980   41.0960 N   0  0  0  0  0  0  0  0  0  0  0  0
   39.9490   24.2910   41.5460 H   0  0  0  0  0  0  0  0  0  0  0  0
   39.1410   24.6440   40.0660 H   0  0  0  0  0  0  0  0  0  0  0  0
  1  2  2  0  0  0  0
  1 23  1  0  0  0  0
  3 13  1  0  0  0  0
  3  4  1  0  0  0  0
  4  1  1  0  0  0  0
  5  4  2  0  0  0  0
  5  9  1  0  0  0  0
  6  5  1  0  0  0  0
  7  8  1  0  0  0  0
  7  6  2  0  0  0  0
  8  3  2  0  0  0  0
 10  6  1  0  0  0  0
 11  7  1  0  0  0  0
 12  8  1  0  0  0  0
 13 15  2  0  0  0  0
 13 16  1  0  0  0  0
 14 13  2  0  0  0  0
 16 17  2  0  0  0  0
 16 22  1  0  0  0  0
 17 18  1  0  0  0  0
 18 19  1  0  0  0  0
 18 20  2  0  0  0  0
 20 21  1  0  0  0  0
 22 21  2  0  0  0  0
 23 24  1  0  0  0  0
 24 29  1  0  0  0  0
 24 25  2  0  0  0  0
 25 30  1  0  0  0  0
 26 25  1  0  0  0  0
 27 26  2  0  0  0  0
 28 23  2  0  0  0  0
 28 27  1  0  0  0  0
 31 27  1  0  0  0  0
 31 34  1  1  0  0  0
 32 33  1  0  0  0  0
 32 31  1  0  0  0  0
 33 31  1  0  0  0  0
 33 37  1  1  0  0  0
 35 32  1  0  0  0  0
 36 32  1  0  0  0  0
 38 39  1  0  0  0  0
 38 33  1  0  0  0  0
 40 38  1  0  0  0  0
M  END
>  <minimizedAffinity>
-6.23786831

$$$$

 OpenBabel03252508053D

 40 43  0  0  1  0  0  0  0  0999 V2000
   36.9600   28.4800   41.9060 C   0  0  0  0  0  0  0  0  0  0  0  0
   36.5660   28.0730   43.0540 O   0  0  0  0  0  0  0  0  0  0  0  0
   36.8670   26.6650   40.2210 C   0  0  0  0  0  0  0  0  0  0  0  0
   36.5210   27.9180   40.6340 C   0  0  0  0  0  0  0  0  0  0  0  0
   35.7120   28.6900   39.7800 C   0  0  0  0  0  0  0  0  0  0  0  0
   35.2590   28.2460   38.5650 C   0  0  0  0  0  0  0  0  0  0  0  0
   35.6120   26.9850   38.1560 C   0  0  0  0  0  0  0  0  0  0  0  0
   36.3950   26.2300   38.9770 C   0  0  0  0  0  0  0  0  0  0  0  0
   35.3940   29.6950   40.0200 H   0  0  0  0  0  0  0  0  0  0  0  0
   34.6430   28.8400   37.9180 H   0  0  0  0  0  0  0  0  0  0  0  0
   35.3030   26.5680   37.2280 H   0  0  0  0  0  0  0  0  0  0  0  0
   36.6780   25.2150   38.6470 H   0  0  0  0  0  0  0  0  0  0  0  0
   37.7920   25.6190   41.1710 S   0  0  0  0  0  0  0  0  0  0  0  0
   38.2240   24.5500   40.1410 O   0  0  0  0  0  0  0  0  0  0  0  0
   36.9730   24.9240   42.2090 O   0  0  0  0  0  0  0  0  0  0  0  0
   39.3930   25.7420   41.6720 C   0  0  0  0  0  0  0  0  0  0  0  0
   39.5780   25.9000   43.0690 C   0  0  0  0  0  3  0  0  0  0  0  0
   40.8050   25.9440   43.6800 C   0  0  0  0  0  0  0  0  0  0  0  0
   40.9310   26.0620   44.7310 H   0  0  0  0  0  0  0  0  0  0  0  0
   41.8630   25.8300   42.8800 N   0  0  0  0  0  0  0  0  0  0  0  0
   41.7830   25.6810   41.5740 C   0  0  0  0  0  3  0  0  0  0  0  0
   40.5750   25.6440   41.0330 N   0  0  0  0  0  0  0  0  0  0  0  0
   37.8960   29.5550   41.7510 C   0  0  0  0  0  0  0  0  0  0  0  0
   38.9700   29.5860   42.7010 C   0  0  0  0  0  0  0  0  0  0  0  0
   39.8890   30.6120   42.5610 C   0  0  0  0  0  0  0  0  0  0  0  0
   39.7220   31.5070   41.5550 N   0  0  0  0  0  0  0  0  0  0  0  0
   38.6780   31.4360   40.6690 C   0  0  0  0  0  0  0  0  0  0  0  0
   37.8220   30.4830   40.7990 N   0  0  0  0  0  0  0  0  0  0  0  0
   39.1730   28.9350   43.5100 H   0  0  0  0  0  0  0  0  0  0  0  0
   40.7500   30.7360   43.2280 H   0  0  0  0  0  0  0  0  0  0  0  0
   38.5850   32.4470   39.6030 C   0  0  1  0  0  0  0  0  0  0  0  0
   37.4020   33.3920   39.5870 C   0  0  0  0  0  0  0  0  0  0  0  0
   38.7520   33.8550   40.0540 C   0  0  1  0  0  0  0  0  0  0  0  0
   39.0590   32.1950   38.6440 H   0  0  0  0  0  0  0  0  0  0  0  0
   36.5800   33.1870   40.2950 H   0  0  0  0  0  0  0  0  0  0  0  0
   37.1370   33.7550   38.5740 H   0  0  0  0  0  0  0  0  0  0  0  0
   39.3050   34.6010   39.4490 H   0  0  0  0  0  0  0  0  0  0  0  0
   38.7480   34.1610   41.4760 N   0  0  0  0  0  0  0  0  0  0  0  0
   39.5580   34.7310   41.7590 H   0  0  0  0  0  0  0  0  0  0  0  0
   37.8480   34.5310   41.8160 H   0  0  0  0  0  0  0  0  0  0  0  0
  1  2  2  0  0  0  0
  3  4  1  0  0  0  0
  3 13  1  0  0  0  0
  4  1  1  0  0  0  0
  5  9  1  0  0  0  0
  5  4  2  0  0  0  0
  6  5  1  0  0  0  0
  7  6  2  0  0  0  0
  7  8  1  0  0  0  0
  8  3  2  0  0  0  0
 10  6  1  0  0  0  0
 11  7  1  0  0  0  0
 12  8  1  0  0  0  0
 13 16  1  0  0  0  0
 13 15  2  0  0  0  0
 14 13  2  0  0  0  0
 16 17  1  0  0  0  0
 17 18  2  0  0  0  0
 18 19  1  0  0  0  0
 20 18  1  0  0  0  0
 21 20  2  0  0  0  0
 22 21  1  0  0  0  0
 22 16  2  0  0  0  0
 23  1  1  0  0  0  0
 23 24  1  0  0  0  0
 24 29  1  0  0  0  0
 25 24  2  0  0  0  0
 25 30  1  0  0  0  0
 26 25  1  0  0  0  0
 27 28  1  0  0  0  0
 27 26  2  0  0  0  0
 28 23  2  0  0  0  0
 31 34  1  6  0  0  0
 31 33  1  0  0  0  0
 31 27  1  0  0  0  0
 32 31  1  0  0  0  0
 32 33  1  0  0  0  0
 32 35  1  0  0  0  0
 33 37  1  6  0  0  0
 33 38  1  0  0  0  0
 36 32  1  0  0  0  0
 38 39  1  0  0  0  0
 38 40  1  0  0  0  0
M  END
>  <minimizedAffinity>
-6.19724178

$$$$

 OpenBabel03252508053D

 40 43  0  0  1  0  0  0  0  0999 V2000
   39.4750   29.4720   39.3580 C   0  0  0  0  0  0  0  0  0  0  0  0
   40.2160   28.4580   39.6060 O   0  0  0  0  0  0  0  0  0  0  0  0
   37.1200   29.0790   40.0240 C   0  0  0  0  0  0  0  0  0  0  0  0
   38.0460   29.4020   39.0760 C   0  0  0  0  0  0  0  0  0  0  0  0
   37.5850   29.6680   37.7730 C   0  0  0  0  0  0  0  0  0  0  0  0
   36.2630   29.6190   37.4160 C   0  0  0  0  0  0  0  0  0  0  0  0
   35.3380   29.2940   38.3750 C   0  0  0  0  0  0  0  0  0  0  0  0
   35.7740   29.0350   39.6390 C   0  0  0  0  0  0  0  0  0  0  0  0
   38.2460   29.9230   36.9560 H   0  0  0  0  0  0  0  0  0  0  0  0
   35.9180   29.8230   36.4200 H   0  0  0  0  0  0  0  0  0  0  0  0
   34.2950   29.2340   38.1780 H   0  0  0  0  0  0  0  0  0  0  0  0
   35.0290   28.7740   40.4110 H   0  0  0  0  0  0  0  0  0  0  0  0
   37.5340   28.7870   41.6350 S   0  0  0  0  0  0  0  0  0  0  0  0
   36.2110   28.2280   42.2080 O   0  0  0  0  0  0  0  0  0  0  0  0
   37.8390   30.0450   42.3790 O   0  0  0  0  0  0  0  0  0  0  0  0
   38.3480   27.4850   42.3230 C   0  0  0  0  0  0  0  0  0  0  0  0
   38.0810   26.2250   41.7330 C   0  0  0  0  0  3  0  0  0  0  0  0
   38.7000   25.0580   42.1000 C   0  0  0  0  0  0  0  0  0  0  0  0
   38.4910   24.1170   41.6470 H   0  0  0  0  0  0  0  0  0  0  0  0
   39.6000   25.1540   43.0760 N   0  0  0  0  0  0  0  0  0  0  0  0
   39.9100   26.2830   43.6790 C   0  0  0  0  0  3  0  0  0  0  0  0
   39.2840   27.3810   43.2870 N   0  0  0  0  0  0  0  0  0  0  0  0
   39.9880   30.8110   39.3300 C   0  0  0  0  0  0  0  0  0  0  0  0
   39.0320   31.8480   39.5900 C   0  0  0  0  0  0  0  0  0  0  0  0
   39.5110   33.1460   39.5750 C   0  0  0  0  0  0  0  0  0  0  0  0
   40.8270   33.3550   39.3210 N   0  0  0  0  0  0  0  0  0  0  0  0
   41.7050   32.3290   39.0780 C   0  0  0  0  0  0  0  0  0  0  0  0
   41.2600   31.1220   39.0910 N   0  0  0  0  0  0  0  0  0  0  0  0
   37.9970   31.7740   39.7940 H   0  0  0  0  0  0  0  0  0  0  0  0
   38.8740   34.0180   39.7600 H   0  0  0  0  0  0  0  0  0  0  0  0
   43.1170   32.6530   38.8230 C   0  0  1  0  0  0  0  0  0  0  0  0
   43.7450   32.2250   37.5130 C   0  0  0  0  0  0  0  0  0  0  0  0
   43.3490   33.6550   37.7470 C   0  0  1  0  0  0  0  0  0  0  0  0
   43.7690   32.7420   39.7030 H   0  0  0  0  0  0  0  0  0  0  0  0
   43.1530   31.5580   36.8620 H   0  0  0  0  0  0  0  0  0  0  0  0
   44.8370   32.0530   37.5780 H   0  0  0  0  0  0  0  0  0  0  0  0
   44.1410   34.4260   37.8270 H   0  0  0  0  0  0  0  0  0  0  0  0
   42.2480   34.0530   36.8830 N   0  0  0  0  0  0  0  0  0  0  0  0
   42.1440   35.0760   36.8230 H   0  0  0  0  0  0  0  0  0  0  0  0
   42.2560   33.5870   35.9630 H   0  0  0  0  0  0  0  0  0  0  0  0
  1  2  2  0  0  0  0
  3 13  1  0  0  0  0
  4  1  1  0  0  0  0
  4  3  2  0  0  0  0
  5  4  1  0  0  0  0
  6  5  2  0  0  0  0
  6  7  1  0  0  0  0
  7  8  2  0  0  0  0
  8  3  1  0  0  0  0
  8 12  1  0  0  0  0
  9  5  1  0  0  0  0
 10  6  1  0  0  0  0
 11  7  1  0  0  0  0
 13 14  2  0  0  0  0
 13 16  1  0  0  0  0
 13 15  2  0  0  0  0
 16 22  1  0  0  0  0
 17 18  1  0  0  0  0
 17 16  2  0  0  0  0
 18 20  2  0  0  0  0
 19 18  1  0  0  0  0
 20 21  1  0  0  0  0
 22 21  2  0  0  0  0
 23  1  1  0  0  0  0
 23 24  1  0  0  0  0
 24 29  1  0  0  0  0
 25 24  2  0  0  0  0
 25 30  1  0  0  0  0
 26 25  1  0  0  0  0
 27 28  1  0  0  0  0
 27 26  2  0  0  0  0
 28 23  2  0  0  0  0
 31 27  1  0  0  0  0
 31 34  1  1  0  0  0
 32 36  1  0  0  0  0
 32 33  1  0  0  0  0
 32 31  1  0  0  0  0
 33 37  1  1  0  0  0
 33 31  1  0  0  0  0
 35 32  1  0  0  0  0
 38 33  1  0  0  0  0
 39 38  1  0  0  0  0
 40 38  1  0  0  0  0
M  END
>  <minimizedAffinity>
-5.74546814

$$$$

 OpenBabel03252508053D

 40 43  0  0  1  0  0  0  0  0999 V2000
   38.8490   28.4420   39.2670 C   0  0  0  0  0  0  0  0  0  0  0  0
   39.4110   27.2940   39.3350 O   0  0  0  0  0  0  0  0  0  0  0  0
   36.8170   28.6750   40.6690 C   0  0  0  0  0  0  0  0  0  0  0  0
   37.4210   28.6750   39.4450 C   0  0  0  0  0  0  0  0  0  0  0  0
   36.6120   28.9050   38.3160 C   0  0  0  0  0  0  0  0  0  0  0  0
   35.2620   29.1260   38.3880 C   0  0  0  0  0  0  0  0  0  0  0  0
   34.6630   29.1250   39.6220 C   0  0  0  0  0  0  0  0  0  0  0  0
   35.4370   28.9030   40.7210 C   0  0  0  0  0  0  0  0  0  0  0  0
   37.0000   28.9160   37.3070 H   0  0  0  0  0  0  0  0  0  0  0  0
   34.6500   29.3010   37.5230 H   0  0  0  0  0  0  0  0  0  0  0  0
   33.6210   29.2870   39.7620 H   0  0  0  0  0  0  0  0  0  0  0  0
   34.9550   28.9010   41.7140 H   0  0  0  0  0  0  0  0  0  0  0  0
   37.6800   28.4610   42.1050 S   0  0  0  0  0  0  0  0  0  0  0  0
   36.5550   28.0970   43.1020 O   0  0  0  0  0  0  0  0  0  0  0  0
   38.3010   29.7310   42.5870 O   0  0  0  0  0  0  0  0  0  0  0  0
   38.5560   27.1340   42.6540 C   0  0  0  0  0  0  0  0  0  0  0  0
   38.0840   25.8740   42.2090 C   0  0  0  0  0  3  0  0  0  0  0  0
   38.7030   24.6820   42.4840 C   0  0  0  0  0  0  0  0  0  0  0  0
   38.3400   23.7410   42.1430 H   0  0  0  0  0  0  0  0  0  0  0  0
   39.8120   24.7530   43.2190 N   0  0  0  0  0  0  0  0  0  0  0  0
   40.3200   25.8800   43.6730 C   0  0  0  0  0  3  0  0  0  0  0  0
   39.6840   27.0030   43.3790 N   0  0  0  0  0  0  0  0  0  0  0  0
   39.5840   29.6440   39.0000 C   0  0  0  0  0  0  0  0  0  0  0  0
   40.3500   29.6470   37.7880 C   0  0  0  0  0  0  0  0  0  0  0  0
   41.0600   30.8020   37.5090 C   0  0  0  0  0  0  0  0  0  0  0  0
   40.9890   31.8400   38.3810 N   0  0  0  0  0  0  0  0  0  0  0  0
   40.2410   31.7900   39.5290 C   0  0  0  0  0  0  0  0  0  0  0  0
   39.5820   30.7160   39.7890 N   0  0  0  0  0  0  0  0  0  0  0  0
   40.4620   28.8890   37.0590 H   0  0  0  0  0  0  0  0  0  0  0  0
   41.6790   30.9190   36.6120 H   0  0  0  0  0  0  0  0  0  0  0  0
   40.2180   32.9700   40.4090 C   0  0  1  0  0  0  0  0  0  0  0  0
   39.3690   34.1610   40.0180 C   0  0  0  0  0  0  0  0  0  0  0  0
   38.9220   33.2170   41.0960 C   0  0  1  0  0  0  0  0  0  0  0  0
   41.1180   33.1530   41.0110 H   0  0  0  0  0  0  0  0  0  0  0  0
   38.9140   34.1510   39.0110 H   0  0  0  0  0  0  0  0  0  0  0  0
   39.7500   35.1260   40.4060 H   0  0  0  0  0  0  0  0  0  0  0  0
   38.8750   33.5790   42.1430 H   0  0  0  0  0  0  0  0  0  0  0  0
   37.7390   32.4700   40.6960 N   0  0  0  0  0  0  0  0  0  0  0  0
   37.2580   32.0340   41.4960 H   0  0  0  0  0  0  0  0  0  0  0  0
   37.1070   32.9990   40.0770 H   0  0  0  0  0  0  0  0  0  0  0  0
  1  2  2  0  0  0  0
  1  4  1  0  0  0  0
  3  8  1  0  0  0  0
  3 13  1  0  0  0  0
  4  3  2  0  0  0  0
  5  6  2  0  0  0  0
  5  4  1  0  0  0  0
  6  7  1  0  0  0  0
  7 11  1  0  0  0  0
  7  8  2  0  0  0  0
  8 12  1  0  0  0  0
  9  5  1  0  0  0  0
 10  6  1  0  0  0  0
 13 15  2  0  0  0  0
 13 16  1  0  0  0  0
 13 14  2  0  0  0  0
 16 22  1  0  0  0  0
 17 18  1  0  0  0  0
 17 16  2  0  0  0  0
 18 20  2  0  0  0  0
 19 18  1  0  0  0  0
 20 21  1  0  0  0  0
 22 21  2  0  0  0  0
 23  1  1  0  0  0  0
 23 28  1  0  0  0  0
 24 23  2  0  0  0  0
 25 24  1  0  0  0  0
 25 26  2  0  0  0  0
 26 27  1  0  0  0  0
 27 28  2  0  0  0  0
 27 31  1  0  0  0  0
 29 24  1  0  0  0  0
 30 25  1  0  0  0  0
 31 34  1  1  0  0  0
 31 33  1  0  0  0  0
 32 36  1  0  0  0  0
 32 31  1  0  0  0  0
 32 33  1  0  0  0  0
 33 37  1  1  0  0  0
 35 32  1  0  0  0  0
 38 33  1  0  0  0  0
 38 39  1  0  0  0  0
 40 38  1  0  0  0  0
M  END
>  <minimizedAffinity>
-5.7448678

$$$$

 OpenBabel03252508053D

 40 43  0  0  1  0  0  0  0  0999 V2000
   36.4470   29.4040   40.6290 C   0  0  0  0  0  0  0  0  0  0  0  0
   35.2030   29.3530   40.3340 O   0  0  0  0  0  0  0  0  0  0  0  0
   37.6010   27.2230   40.8630 C   0  0  0  0  0  0  0  0  0  0  0  0
   37.1560   28.3930   41.4040 C   0  0  0  0  0  0  0  0  0  0  0  0
   37.3930   28.6130   42.7740 C   0  0  0  0  0  0  0  0  0  0  0  0
   38.0430   27.7160   43.5810 C   0  0  0  0  0  0  0  0  0  0  0  0
   38.4880   26.5420   43.0280 C   0  0  0  0  0  0  0  0  0  0  0  0
   38.2630   26.3200   41.7030 C   0  0  0  0  0  0  0  0  0  0  0  0
   37.0700   29.5060   43.2910 H   0  0  0  0  0  0  0  0  0  0  0  0
   38.2200   27.8900   44.6250 H   0  0  0  0  0  0  0  0  0  0  0  0
   38.9990   25.7950   43.5860 H   0  0  0  0  0  0  0  0  0  0  0  0
   38.6210   25.3750   41.2590 H   0  0  0  0  0  0  0  0  0  0  0  0
   37.4250   26.8570   39.2230 S   0  0  0  0  0  0  0  0  0  0  0  0
   37.7760   25.3510   39.1920 O   0  0  0  0  0  0  0  0  0  0  0  0
   38.4330   27.5610   38.3750 O   0  0  0  0  0  0  0  0  0  0  0  0
   36.0380   26.5230   38.3320 C   0  0  0  0  0  0  0  0  0  0  0  0
   35.6830   25.1520   38.2600 C   0  0  0  0  0  3  0  0  0  0  0  0
   34.5490   24.6850   37.6460 C   0  0  0  0  0  0  0  0  0  0  0  0
   34.2920   23.6530   37.6000 H   0  0  0  0  0  0  0  0  0  0  0  0
   33.7600   25.6040   37.0940 N   0  0  0  0  0  0  0  0  0  0  0  0
   34.0140   26.8960   37.1130 C   0  0  0  0  0  3  0  0  0  0  0  0
   35.1210   27.2960   37.7190 N   0  0  0  0  0  0  0  0  0  0  0  0
   37.2910   30.4890   40.2190 C   0  0  0  0  0  0  0  0  0  0  0  0
   36.7230   31.8000   40.3480 C   0  0  0  0  0  0  0  0  0  0  0  0
   37.5260   32.8610   39.9650 C   0  0  0  0  0  0  0  0  0  0  0  0
   38.7750   32.6020   39.5020 N   0  0  0  0  0  0  0  0  0  0  0  0
   39.2750   31.3290   39.3980 C   0  0  0  0  0  0  0  0  0  0  0  0
   38.5290   30.3420   39.7530 N   0  0  0  0  0  0  0  0  0  0  0  0
   35.7660   32.0890   40.6940 H   0  0  0  0  0  0  0  0  0  0  0  0
   37.1990   33.9050   40.0190 H   0  0  0  0  0  0  0  0  0  0  0  0
   40.6460   31.1470   38.8950 C   0  0  1  0  0  0  0  0  0  0  0  0
   40.8710   30.2870   37.6690 C   0  0  0  0  0  0  0  0  0  0  0  0
   40.9230   31.7840   37.5790 C   0  0  1  0  0  0  0  0  0  0  0  0
   41.4550   31.2140   39.6350 H   0  0  0  0  0  0  0  0  0  0  0  0
   40.0090   29.7110   37.2890 H   0  0  0  0  0  0  0  0  0  0  0  0
   41.8700   29.8070   37.6390 H   0  0  0  0  0  0  0  0  0  0  0  0
   41.8910   32.2770   37.3600 H   0  0  0  0  0  0  0  0  0  0  0  0
   39.8220   32.3100   36.7870 N   0  0  0  0  0  0  0  0  0  0  0  0
   39.9840   33.2800   36.4810 H   0  0  0  0  0  0  0  0  0  0  0  0
   39.5280   31.6840   36.0220 H   0  0  0  0  0  0  0  0  0  0  0  0
  1  4  1  0  0  0  0
  2  1  2  0  0  0  0
  3  4  2  0  0  0  0
  3  8  1  0  0  0  0
  4  5  1  0  0  0  0
  5  9  1  0  0  0  0
  5  6  2  0  0  0  0
  6 10  1  0  0  0  0
  7  6  1  0  0  0  0
  7 11  1  0  0  0  0
  8  7  2  0  0  0  0
 12  8  1  0  0  0  0
 13  3  1  0  0  0  0
 14 13  2  0  0  0  0
 15 13  2  0  0  0  0
 16 13  1  0  0  0  0
 17 16  1  0  0  0  0
 18 17  2  0  0  0  0
 19 18  1  0  0  0  0
 20 21  2  0  0  0  0
 20 18  1  0  0  0  0
 21 22  1  0  0  0  0
 22 16  2  0  0  0  0
 23 24  1  0  0  0  0
 23  1  1  0  0  0  0
 24 29  1  0  0  0  0
 25 30  1  0  0  0  0
 25 24  2  0  0  0  0
 26 25  1  0  0  0  0
 27 26  2  0  0  0  0
 27 28  1  0  0  0  0
 28 23  2  0  0  0  0
 31 27  1  0  0  0  0
 31 34  1  1  0  0  0
 32 31  1  0  0  0  0
 33 37  1  6  0  0  0
 33 32  1  0  0  0  0
 33 31  1  0  0  0  0
 35 32  1  0  0  0  0
 36 32  1  0  0  0  0
 38 33  1  0  0  0  0
 39 38  1  0  0  0  0
 40 38  1  0  0  0  0
M  END
>  <minimizedAffinity>
-5.73831844

$$$$

 OpenBabel03252508053D

 40 43  0  0  1  0  0  0  0  0999 V2000
   36.3160   29.7770   40.8410 C   0  0  0  0  0  0  0  0  0  0  0  0
   36.0620   30.8230   41.5340 O   0  0  0  0  0  0  0  0  0  0  0  0
   36.5310   29.8460   38.3720 C   0  0  0  0  0  0  0  0  0  0  0  0
   35.8160   29.5370   39.4930 C   0  0  0  0  0  0  0  0  0  0  0  0
   34.5390   28.9700   39.3200 C   0  0  0  0  0  0  0  0  0  0  0  0
   33.9870   28.7160   38.0920 C   0  0  0  0  0  0  0  0  0  0  0  0
   34.7120   29.0290   36.9700 C   0  0  0  0  0  0  0  0  0  0  0  0
   35.9490   29.5790   37.1280 C   0  0  0  0  0  0  0  0  0  0  0  0
   33.8980   28.7000   40.1480 H   0  0  0  0  0  0  0  0  0  0  0  0
   33.0120   28.2830   37.9670 H   0  0  0  0  0  0  0  0  0  0  0  0
   34.3540   28.8640   35.9830 H   0  0  0  0  0  0  0  0  0  0  0  0
   36.5320   29.8300   36.2250 H   0  0  0  0  0  0  0  0  0  0  0  0
   38.0930   30.4840   38.4400 S   0  0  0  0  0  0  0  0  0  0  0  0
   38.1710   31.2790   37.1160 O   0  0  0  0  0  0  0  0  0  0  0  0
   39.1410   29.4220   38.3780 O   0  0  0  0  0  0  0  0  0  0  0  0
   38.6740   31.8370   39.2530 C   0  0  0  0  0  0  0  0  0  0  0  0
   37.7670   32.9230   39.3440 C   0  0  0  0  0  3  0  0  0  0  0  0
   38.0240   34.0820   40.0290 C   0  0  0  0  0  0  0  0  0  0  0  0
   37.3340   34.8900   40.0910 H   0  0  0  0  0  0  0  0  0  0  0  0
   39.2100   34.1570   40.6310 N   0  0  0  0  0  0  0  0  0  0  0  0
   40.1110   33.1980   40.5980 C   0  0  0  0  0  3  0  0  0  0  0  0
   39.8130   32.0980   39.9230 N   0  0  0  0  0  0  0  0  0  0  0  0
   37.1360   28.7090   41.3340 C   0  0  0  0  0  0  0  0  0  0  0  0
   36.5970   27.3890   41.1780 C   0  0  0  0  0  0  0  0  0  0  0  0
   37.3780   26.3440   41.6400 C   0  0  0  0  0  0  0  0  0  0  0  0
   38.5830   26.6260   42.2000 N   0  0  0  0  0  0  0  0  0  0  0  0
   39.0570   27.9070   42.3260 C   0  0  0  0  0  0  0  0  0  0  0  0
   38.3300   28.8780   41.8980 N   0  0  0  0  0  0  0  0  0  0  0  0
   35.6750   27.0830   40.7590 H   0  0  0  0  0  0  0  0  0  0  0  0
   37.0700   25.2950   41.5750 H   0  0  0  0  0  0  0  0  0  0  0  0
   40.3800   28.1130   42.9370 C   0  0  1  0  0  0  0  0  0  0  0  0
   41.5980   27.5050   42.2740 C   0  0  0  0  0  0  0  0  0  0  0  0
   41.3080   28.9730   42.1550 C   0  0  1  0  0  0  0  0  0  0  0  0
   40.4020   28.2560   44.0260 H   0  0  0  0  0  0  0  0  0  0  0  0
   41.4240   26.8080   41.4350 H   0  0  0  0  0  0  0  0  0  0  0  0
   42.4200   27.2730   42.9800 H   0  0  0  0  0  0  0  0  0  0  0  0
   41.9870   29.6980   42.6460 H   0  0  0  0  0  0  0  0  0  0  0  0
   40.9700   29.3420   40.7890 N   0  0  0  0  0  0  0  0  0  0  0  0
   41.0390   30.3560   40.6250 H   0  0  0  0  0  0  0  0  0  0  0  0
   41.4590   28.7780   40.0770 H   0  0  0  0  0  0  0  0  0  0  0  0
  1 23  1  0  0  0  0
  1  2  2  0  0  0  0
  3 13  1  0  0  0  0
  3  4  1  0  0  0  0
  4  1  1  0  0  0  0
  5  4  2  0  0  0  0
  5  9  1  0  0  0  0
  6  5  1  0  0  0  0
  7  8  1  0  0  0  0
  7  6  2  0  0  0  0
  8  3  2  0  0  0  0
 10  6  1  0  0  0  0
 11  7  1  0  0  0  0
 12  8  1  0  0  0  0
 13 16  1  0  0  0  0
 14 13  2  0  0  0  0
 15 13  2  0  0  0  0
 16 17  2  0  0  0  0
 16 22  1  0  0  0  0
 17 18  1  0  0  0  0
 18 19  1  0  0  0  0
 18 20  2  0  0  0  0
 21 20  1  0  0  0  0
 22 21  2  0  0  0  0
 23 28  1  0  0  0  0
 24 23  2  0  0  0  0
 24 25  1  0  0  0  0
 25 26  2  0  0  0  0
 26 27  1  0  0  0  0
 27 31  1  0  0  0  0
 28 27  2  0  0  0  0
 29 24  1  0  0  0  0
 30 25  1  0  0  0  0
 31 34  1  1  0  0  0
 32 31  1  0  0  0  0
 32 36  1  0  0  0  0
 33 32  1  0  0  0  0
 33 37  1  1  0  0  0
 33 31  1  0  0  0  0
 35 32  1  0  0  0  0
 38 33  1  0  0  0  0
 39 38  1  0  0  0  0
 40 38  1  0  0  0  0
M  END
>  <minimizedAffinity>
-5.67167664

$$$$

 OpenBabel03252508053D

 40 43  0  0  1  0  0  0  0  0999 V2000
   37.3430   29.2470   41.2940 C   0  0  0  0  0  0  0  0  0  0  0  0
   36.1010   29.0380   41.5270 O   0  0  0  0  0  0  0  0  0  0  0  0
   38.7320   27.2220   40.9570 C   0  0  0  0  0  0  0  0  0  0  0  0
   38.4190   28.3400   41.6740 C   0  0  0  0  0  0  0  0  0  0  0  0
   39.1730   28.6080   42.8320 C   0  0  0  0  0  0  0  0  0  0  0  0
   40.1960   27.8090   43.2680 C   0  0  0  0  0  0  0  0  0  0  0  0
   40.5060   26.6870   42.5420 C   0  0  0  0  0  0  0  0  0  0  0  0
   39.7810   26.4180   41.4190 C   0  0  0  0  0  0  0  0  0  0  0  0
   38.9920   29.4650   43.4660 H   0  0  0  0  0  0  0  0  0  0  0  0
   40.7670   28.0190   44.1520 H   0  0  0  0  0  0  0  0  0  0  0  0
   41.2840   26.0160   42.8140 H   0  0  0  0  0  0  0  0  0  0  0  0
   40.0310   25.5150   40.8350 H   0  0  0  0  0  0  0  0  0  0  0  0
   37.9400   26.8120   39.5230 S   0  0  0  0  0  0  0  0  0  0  0  0
   36.6180   26.2080   40.0510 O   0  0  0  0  0  0  0  0  0  0  0  0
   38.6490   25.7320   38.7730 O   0  0  0  0  0  0  0  0  0  0  0  0
   37.0470   27.7710   38.4680 C   0  0  0  0  0  0  0  0  0  0  0  0
   35.6470   27.5490   38.4880 C   0  0  0  0  0  3  0  0  0  0  0  0
   34.7440   28.2780   37.7600 C   0  0  0  0  0  0  0  0  0  0  0  0
   33.6940   28.1020   37.7840 H   0  0  0  0  0  0  0  0  0  0  0  0
   35.2500   29.2450   36.9970 N   0  0  0  0  0  0  0  0  0  0  0  0
   36.5350   29.5200   36.9180 C   0  0  0  0  0  3  0  0  0  0  0  0
   37.3660   28.7860   37.6420 N   0  0  0  0  0  0  0  0  0  0  0  0
   37.8120   30.4230   40.6210 C   0  0  0  0  0  0  0  0  0  0  0  0
   36.8950   31.5250   40.5850 C   0  0  0  0  0  0  0  0  0  0  0  0
   37.3340   32.6730   39.9470 C   0  0  0  0  0  0  0  0  0  0  0  0
   38.5800   32.6860   39.4080 N   0  0  0  0  0  0  0  0  0  0  0  0
   39.4220   31.6050   39.4690 C   0  0  0  0  0  0  0  0  0  0  0  0
   39.0130   30.5380   40.0600 N   0  0  0  0  0  0  0  0  0  0  0  0
   35.9150   31.6000   40.9750 H   0  0  0  0  0  0  0  0  0  0  0  0
   36.7210   33.5770   39.8580 H   0  0  0  0  0  0  0  0  0  0  0  0
   40.7590   31.7170   38.8630 C   0  0  1  0  0  0  0  0  0  0  0  0
   41.1480   30.7560   37.7590 C   0  0  0  0  0  0  0  0  0  0  0  0
   40.7730   32.1760   37.4480 C   0  0  1  0  0  0  0  0  0  0  0  0
   41.5570   32.1190   39.5020 H   0  0  0  0  0  0  0  0  0  0  0  0
   40.4620   29.9160   37.5530 H   0  0  0  0  0  0  0  0  0  0  0  0
   42.2370   30.5640   37.7000 H   0  0  0  0  0  0  0  0  0  0  0  0
   41.5500   32.8670   37.0660 H   0  0  0  0  0  0  0  0  0  0  0  0
   39.5260   32.2490   36.7010 N   0  0  0  0  0  0  0  0  0  0  0  0
   39.3930   33.1620   36.2440 H   0  0  0  0  0  0  0  0  0  0  0  0
   39.3780   31.4480   36.0690 H   0  0  0  0  0  0  0  0  0  0  0  0
  1  2  2  0  0  0  0
  1  4  1  0  0  0  0
  3  8  2  0  0  0  0
  3  4  1  0  0  0  0
  4  5  2  0  0  0  0
  5  6  1  0  0  0  0
  5  9  1  0  0  0  0
  6 10  1  0  0  0  0
  7 11  1  0  0  0  0
  7  6  2  0  0  0  0
  8  7  1  0  0  0  0
 12  8  1  0  0  0  0
 13 14  2  0  0  0  0
 13  3  1  0  0  0  0
 15 13  2  0  0  0  0
 16 17  1  0  0  0  0
 16 13  1  0  0  0  0
 18 19  1  0  0  0  0
 18 17  2  0  0  0  0
 20 18  1  0  0  0  0
 21 20  2  0  0  0  0
 21 22  1  0  0  0  0
 22 16  2  0  0  0  0
 23  1  1  0  0  0  0
 24 23  1  0  0  0  0
 24 29  1  0  0  0  0
 25 24  2  0  0  0  0
 26 27  2  0  0  0  0
 26 25  1  0  0  0  0
 27 28  1  0  0  0  0
 28 23  2  0  0  0  0
 30 25  1  0  0  0  0
 31 27  1  0  0  0  0
 31 34  1  1  0  0  0
 32 31  1  0  0  0  0
 33 37  1  6  0  0  0
 33 32  1  0  0  0  0
 33 31  1  0  0  0  0
 35 32  1  0  0  0  0
 36 32  1  0  0  0  0
 38 33  1  0  0  0  0
 39 38  1  0  0  0  0
 40 38  1  0  0  0  0
M  END
>  <minimizedAffinity>
-5.5376482

$$$$

 OpenBabel03252508053D

 40 43  0  0  1  0  0  0  0  0999 V2000
   35.9710   29.0670   40.2590 C   0  0  0  0  0  0  0  0  0  0  0  0
   34.6960   29.1090   40.1490 O   0  0  0  0  0  0  0  0  0  0  0  0
   37.1940   26.9600   40.7160 C   0  0  0  0  0  0  0  0  0  0  0  0
   36.6950   28.1570   41.1380 C   0  0  0  0  0  0  0  0  0  0  0  0
   36.8910   28.5090   42.4870 C   0  0  0  0  0  0  0  0  0  0  0  0
   37.5520   27.7140   43.3860 C   0  0  0  0  0  0  0  0  0  0  0  0
   38.0510   26.5120   42.9530 C   0  0  0  0  0  0  0  0  0  0  0  0
   37.8660   26.1620   41.6490 C   0  0  0  0  0  0  0  0  0  0  0  0
   36.5250   29.4330   42.9130 H   0  0  0  0  0  0  0  0  0  0  0  0
   37.6980   27.9880   44.4130 H   0  0  0  0  0  0  0  0  0  0  0  0
   38.5750   25.8380   43.5880 H   0  0  0  0  0  0  0  0  0  0  0  0
   38.2680   25.1940   41.3010 H   0  0  0  0  0  0  0  0  0  0  0  0
   37.0710   26.4400   39.1130 S   0  0  0  0  0  0  0  0  0  0  0  0
   37.3160   24.9200   39.2510 O   0  0  0  0  0  0  0  0  0  0  0  0
   38.1650   26.9870   38.2560 O   0  0  0  0  0  0  0  0  0  0  0  0
   35.7080   26.1080   38.1850 C   0  0  0  0  0  0  0  0  0  0  0  0
   35.3250   24.7440   38.1410 C   0  0  0  0  0  3  0  0  0  0  0  0
   34.2040   24.2820   37.5030 C   0  0  0  0  0  0  0  0  0  0  0  0
   33.9260   23.2540   37.4790 H   0  0  0  0  0  0  0  0  0  0  0  0
   33.4530   25.2000   36.8970 N   0  0  0  0  0  0  0  0  0  0  0  0
   33.7340   26.4870   36.8880 C   0  0  0  0  0  3  0  0  0  0  0  0
   34.8290   26.8810   37.5190 N   0  0  0  0  0  0  0  0  0  0  0  0
   36.8360   29.9330   39.5120 C   0  0  0  0  0  0  0  0  0  0  0  0
   36.5020   30.1010   38.1280 C   0  0  0  0  0  0  0  0  0  0  0  0
   37.3220   30.9410   37.3930 C   0  0  0  0  0  0  0  0  0  0  0  0
   38.3690   31.5410   38.0140 N   0  0  0  0  0  0  0  0  0  0  0  0
   38.6480   31.3490   39.3430 C   0  0  0  0  0  0  0  0  0  0  0  0
   37.8870   30.5680   40.0260 N   0  0  0  0  0  0  0  0  0  0  0  0
   35.7130   29.6740   37.5680 H   0  0  0  0  0  0  0  0  0  0  0  0
   37.1640   31.1450   36.3280 H   0  0  0  0  0  0  0  0  0  0  0  0
   39.8000   32.0520   39.9310 C   0  0  1  0  0  0  0  0  0  0  0  0
   40.1550   33.4340   39.4240 C   0  0  0  0  0  0  0  0  0  0  0  0
   39.4580   33.2520   40.7420 C   0  0  1  0  0  0  0  0  0  0  0  0
   40.6090   31.4240   40.3290 H   0  0  0  0  0  0  0  0  0  0  0  0
   39.6200   33.7980   38.5300 H   0  0  0  0  0  0  0  0  0  0  0  0
   41.2300   33.6810   39.5240 H   0  0  0  0  0  0  0  0  0  0  0  0
   40.0000   33.5000   41.6760 H   0  0  0  0  0  0  0  0  0  0  0  0
   38.1040   33.7830   40.7080 N   0  0  0  0  0  0  0  0  0  0  0  0
   37.7120   33.9230   41.6500 H   0  0  0  0  0  0  0  0  0  0  0  0
   37.9990   34.6050   40.0950 H   0  0  0  0  0  0  0  0  0  0  0  0
  1  4  1  0  0  0  0
  2  1  2  0  0  0  0
  3  4  2  0  0  0  0
  3  8  1  0  0  0  0
  4  5  1  0  0  0  0
  5  9  1  0  0  0  0
  5  6  2  0  0  0  0
  6 10  1  0  0  0  0
  7  6  1  0  0  0  0
  7 11  1  0  0  0  0
  8  7  2  0  0  0  0
 12  8  1  0  0  0  0
 13 14  2  0  0  0  0
 13  3  1  0  0  0  0
 15 13  2  0  0  0  0
 16 13  1  0  0  0  0
 17 16  1  0  0  0  0
 18 17  2  0  0  0  0
 19 18  1  0  0  0  0
 20 18  1  0  0  0  0
 21 20  2  0  0  0  0
 21 22  1  0  0  0  0
 22 16  2  0  0  0  0
 23 28  1  0  0  0  0
 23  1  1  0  0  0  0
 24 23  2  0  0  0  0
 25 26  2  0  0  0  0
 25 24  1  0  0  0  0
 26 27  1  0  0  0  0
 27 31  1  0  0  0  0
 27 28  2  0  0  0  0
 29 24  1  0  0  0  0
 30 25  1  0  0  0  0
 31 34  1  1  0  0  0
 31 33  1  0  0  0  0
 32 36  1  0  0  0  0
 32 31  1  0  0  0  0
 32 33  1  0  0  0  0
 33 37  1  1  0  0  0
 35 32  1  0  0  0  0
 38 33  1  0  0  0  0
 38 39  1  0  0  0  0
 40 38  1  0  0  0  0
M  END
>  <minimizedAffinity>
-5.53163862

$$$$

 OpenBabel03252508053D

 40 43  0  0  1  0  0  0  0  0999 V2000
   39.2100   29.2960   39.4010 C   0  0  0  0  0  0  0  0  0  0  0  0
   39.8850   28.2800   39.0150 O   0  0  0  0  0  0  0  0  0  0  0  0
   37.2900   29.1100   40.9590 C   0  0  0  0  0  0  0  0  0  0  0  0
   37.7820   29.2760   39.6970 C   0  0  0  0  0  0  0  0  0  0  0  0
   36.8570   29.4270   38.6470 C   0  0  0  0  0  0  0  0  0  0  0  0
   35.4990   29.4140   38.8310 C   0  0  0  0  0  0  0  0  0  0  0  0
   35.0120   29.2460   40.1020 C   0  0  0  0  0  0  0  0  0  0  0  0
   35.9000   29.0990   41.1250 C   0  0  0  0  0  0  0  0  0  0  0  0
   37.1530   29.5560   37.6160 H   0  0  0  0  0  0  0  0  0  0  0  0
   34.7990   29.5280   38.0260 H   0  0  0  0  0  0  0  0  0  0  0  0
   33.9730   29.2230   40.3280 H   0  0  0  0  0  0  0  0  0  0  0  0
   35.5080   28.9640   42.1480 H   0  0  0  0  0  0  0  0  0  0  0  0
   38.2910   28.9680   42.3120 S   0  0  0  0  0  0  0  0  0  0  0  0
   37.2870   28.5450   43.4090 O   0  0  0  0  0  0  0  0  0  0  0  0
   38.8700   30.2800   42.7270 O   0  0  0  0  0  0  0  0  0  0  0  0
   39.2970   27.7060   42.7860 C   0  0  0  0  0  0  0  0  0  0  0  0
   40.6740   28.0300   42.8720 C   0  0  0  0  0  3  0  0  0  0  0  0
   41.6410   27.1640   43.3110 C   0  0  0  0  0  0  0  0  0  0  0  0
   42.6720   27.4200   43.3720 H   0  0  0  0  0  0  0  0  0  0  0  0
   41.2220   25.9510   43.6680 N   0  0  0  0  0  0  0  0  0  0  0  0
   39.9640   25.5650   43.6200 C   0  0  0  0  0  3  0  0  0  0  0  0
   39.0700   26.4400   43.1890 N   0  0  0  0  0  0  0  0  0  0  0  0
   39.8030   30.5890   39.5840 C   0  0  0  0  0  0  0  0  0  0  0  0
   39.0230   31.7010   39.1240 C   0  0  0  0  0  0  0  0  0  0  0  0
   39.5750   32.9580   39.3010 C   0  0  0  0  0  0  0  0  0  0  0  0
   40.7950   33.0600   39.8860 N   0  0  0  0  0  0  0  0  0  0  0  0
   41.5040   31.9650   40.3110 C   0  0  0  0  0  0  0  0  0  0  0  0
   40.9910   30.7970   40.1460 N   0  0  0  0  0  0  0  0  0  0  0  0
   38.0720   31.7120   38.6600 H   0  0  0  0  0  0  0  0  0  0  0  0
   39.0710   33.8800   38.9890 H   0  0  0  0  0  0  0  0  0  0  0  0
   42.8160   32.1760   40.9450 C   0  0  1  0  0  0  0  0  0  0  0  0
   42.9720   33.2920   41.9570 C   0  0  0  0  0  0  0  0  0  0  0  0
   42.8710   31.8600   42.3980 C   0  0  1  0  0  0  0  0  0  0  0  0
   43.6980   31.8810   40.3610 H   0  0  0  0  0  0  0  0  0  0  0  0
   42.1290   33.9960   42.0690 H   0  0  0  0  0  0  0  0  0  0  0  0
   44.0010   33.7000   42.0140 H   0  0  0  0  0  0  0  0  0  0  0  0
   43.7550   31.3750   42.8580 H   0  0  0  0  0  0  0  0  0  0  0  0
   41.6380   31.6130   43.1290 N   0  0  0  0  0  0  0  0  0  0  0  0
   41.6690   30.7370   43.6710 H   0  0  0  0  0  0  0  0  0  0  0  0
   41.3150   32.4230   43.6790 H   0  0  0  0  0  0  0  0  0  0  0  0
  1 23  1  0  0  0  0
  1  4  1  0  0  0  0
  2  1  2  0  0  0  0
  3  8  1  0  0  0  0
  3 13  1  0  0  0  0
  4  3  2  0  0  0  0
  5  6  2  0  0  0  0
  5  4  1  0  0  0  0
  6  7  1  0  0  0  0
  7 11  1  0  0  0  0
  7  8  2  0  0  0  0
  8 12  1  0  0  0  0
  9  5  1  0  0  0  0
 10  6  1  0  0  0  0
 13 15  2  0  0  0  0
 13 16  1  0  0  0  0
 13 14  2  0  0  0  0
 16 17  2  0  0  0  0
 16 22  1  0  0  0  0
 17 18  1  0  0  0  0
 18 19  1  0  0  0  0
 18 20  2  0  0  0  0
 21 20  1  0  0  0  0
 22 21  2  0  0  0  0
 23 28  1  0  0  0  0
 24 25  1  0  0  0  0
 24 23  2  0  0  0  0
 25 26  2  0  0  0  0
 26 27  1  0  0  0  0
 27 31  1  0  0  0  0
 28 27  2  0  0  0  0
 29 24  1  0  0  0  0
 30 25  1  0  0  0  0
 31 34  1  6  0  0  0
 31 32  1  0  0  0  0
 31 33  1  0  0  0  0
 32 36  1  0  0  0  0
 32 35  1  0  0  0  0
 32 33  1  0  0  0  0
 33 37  1  1  0  0  0
 33 38  1  0  0  0  0
 38 39  1  0  0  0  0
 38 40  1  0  0  0  0
M  END
>  <minimizedAffinity>
-5.52507448

$$$$
