
 OpenBabel03252508023D

 40 43  0  0  1  0  0  0  0  0999 V2000
   44.2160   34.3570   41.5350 C   0  0  0  0  0  0  0  0  0  0  0  0
   45.0890   34.2340   40.6070 O   0  0  0  0  0  0  0  0  0  0  0  0
   42.0080   33.3120   41.1150 C   0  0  0  0  0  0  0  0  0  0  0  0
   42.7770   34.4220   41.3130 C   0  0  0  0  0  0  0  0  0  0  0  0
   42.1360   35.6750   41.2920 C   0  0  0  0  0  0  0  0  0  0  0  0
   40.7910   35.8310   41.0830 C   0  0  0  0  0  0  0  0  0  0  0  0
   40.0250   34.7110   40.8850 C   0  0  0  0  0  0  0  0  0  0  0  0
   40.6360   33.4930   40.9040 C   0  0  0  0  0  0  0  0  0  0  0  0
   42.6640   36.6080   41.4310 H   0  0  0  0  0  0  0  0  0  0  0  0
   40.3090   36.7900   41.0680 H   0  0  0  0  0  0  0  0  0  0  0  0
   38.9760   34.7470   40.7160 H   0  0  0  0  0  0  0  0  0  0  0  0
   40.0190   32.5920   40.7440 H   0  0  0  0  0  0  0  0  0  0  0  0
   42.6430   31.7480   41.1660 S   0  0  0  0  0  0  0  0  0  0  0  0
   41.4980   30.9190   40.5390 O   0  0  0  0  0  0  0  0  0  0  0  0
   42.8270   31.2570   42.5640 O   0  0  0  0  0  0  0  0  0  0  0  0
   43.7250   30.9850   40.1280 C   0  0  0  0  0  0  0  0  0  0  0  0
   44.1120   29.6770   40.5160 C   0  0  0  0  0  3  0  0  0  0  0  0
   44.9230   28.8640   39.7680 C   0  0  0  0  0  0  0  0  0  0  0  0
   45.2060   27.8830   40.0700 H   0  0  0  0  0  0  0  0  0  0  0  0
   45.3570   29.3690   38.6150 N   0  0  0  0  0  0  0  0  0  0  0  0
   45.0480   30.5730   38.1790 C   0  0  0  0  0  3  0  0  0  0  0  0
   44.2600   31.3170   38.9380 N   0  0  0  0  0  0  0  0  0  0  0  0
   44.5750   34.4490   42.9210 C   0  0  0  0  0  0  0  0  0  0  0  0
   44.3030   35.7070   43.5510 C   0  0  0  0  0  0  0  0  0  0  0  0
   44.6340   35.8110   44.8910 C   0  0  0  0  0  0  0  0  0  0  0  0
   45.1840   34.7380   45.5140 N   0  0  0  0  0  0  0  0  0  0  0  0
   45.4260   33.5530   44.8680 C   0  0  0  0  0  0  0  0  0  0  0  0
   45.1190   33.4560   43.6220 N   0  0  0  0  0  0  0  0  0  0  0  0
   43.8810   36.5880   43.1440 H   0  0  0  0  0  0  0  0  0  0  0  0
   44.4720   36.7240   45.4760 H   0  0  0  0  0  0  0  0  0  0  0  0
   46.0170   32.4410   45.6300 C   0  0  1  0  0  0  0  0  0  0  0  0
   46.9640   32.7530   46.7690 C   0  0  0  0  0  0  0  0  0  0  0  0
   45.5500   32.3240   47.0380 C   0  0  1  0  0  0  0  0  0  0  0  0
   46.1500   31.4920   45.0920 H   0  0  0  0  0  0  0  0  0  0  0  0
   47.2850   33.8020   46.8890 H   0  0  0  0  0  0  0  0  0  0  0  0
   47.7100   31.9560   46.9580 H   0  0  0  0  0  0  0  0  0  0  0  0
   45.3670   31.3400   47.5130 H   0  0  0  0  0  0  0  0  0  0  0  0
   44.7690   33.4000   47.6300 N   0  0  0  0  0  0  0  0  0  0  0  0
   43.9020   33.0610   48.0710 H   0  0  0  0  0  0  0  0  0  0  0  0
   45.3210   34.0240   48.2370 H   0  0  0  0  0  0  0  0  0  0  0  0
  1 23  1  0  0  0  0
  2  1  2  0  0  0  0
  3 13  1  0  0  0  0
  3  4  1  0  0  0  0
  4  1  1  0  0  0  0
  5  4  2  0  0  0  0
  5  9  1  0  0  0  0
  6  5  1  0  0  0  0
  7  8  1  0  0  0  0
  7  6  2  0  0  0  0
  8  3  2  0  0  0  0
 10  6  1  0  0  0  0
 11  7  1  0  0  0  0
 12  8  1  0  0  0  0
 13 15  2  0  0  0  0
 14 13  2  0  0  0  0
 16 17  1  0  0  0  0
 16 13  1  0  0  0  0
 18 19  1  0  0  0  0
 18 17  2  0  0  0  0
 20 18  1  0  0  0  0
 21 20  2  0  0  0  0
 21 22  1  0  0  0  0
 22 16  2  0  0  0  0
 23 24  2  0  0  0  0
 23 28  1  0  0  0  0
 24 25  1  0  0  0  0
 25 30  1  0  0  0  0
 25 26  2  0  0  0  0
 27 26  1  0  0  0  0
 27 31  1  0  0  0  0
 28 27  2  0  0  0  0
 29 24  1  0  0  0  0
 31 34  1  6  0  0  0
 31 32  1  0  0  0  0
 31 33  1  0  0  0  0
 32 35  1  0  0  0  0
 32 36  1  0  0  0  0
 32 33  1  0  0  0  0
 33 37  1  1  0  0  0
 33 38  1  0  0  0  0
 38 39  1  0  0  0  0
 38 40  1  0  0  0  0
M  END
>  <minimizedAffinity>
-5.71447325

>  <minimizedRMSD>
1.33070993

$$$$
