
 OpenBabel03252508023D

 40 43  0  0  1  0  0  0  0  0999 V2000
   44.2480   34.4060   41.5690 C   0  0  0  0  0  0  0  0  0  0  0  0
   45.1320   34.3520   40.6450 O   0  0  0  0  0  0  0  0  0  0  0  0
   42.0880   33.2570   41.1690 C   0  0  0  0  0  0  0  0  0  0  0  0
   42.8080   34.4030   41.3360 C   0  0  0  0  0  0  0  0  0  0  0  0
   42.1160   35.6270   41.2700 C   0  0  0  0  0  0  0  0  0  0  0  0
   40.7680   35.7210   41.0480 C   0  0  0  0  0  0  0  0  0  0  0  0
   40.0500   34.5630   40.8820 C   0  0  0  0  0  0  0  0  0  0  0  0
   40.7110   33.3730   40.9440 C   0  0  0  0  0  0  0  0  0  0  0  0
   42.6050   36.5860   41.3820 H   0  0  0  0  0  0  0  0  0  0  0  0
   40.2460   36.6580   40.9980 H   0  0  0  0  0  0  0  0  0  0  0  0
   39.0020   34.5510   40.7050 H   0  0  0  0  0  0  0  0  0  0  0  0
   40.1330   32.4420   40.8100 H   0  0  0  0  0  0  0  0  0  0  0  0
   42.7860   31.7230   41.2760 S   0  0  0  0  0  0  0  0  0  0  0  0
   41.8240   30.8740   40.4120 O   0  0  0  0  0  0  0  0  0  0  0  0
   42.7350   31.1720   42.6630 O   0  0  0  0  0  0  0  0  0  0  0  0
   44.0820   31.0630   40.4290 C   0  0  0  0  0  0  0  0  0  0  0  0
   45.2310   30.7760   41.2090 C   0  0  0  0  0  3  0  0  0  0  0  0
   46.3580   30.1690   40.7210 C   0  0  0  0  0  0  0  0  0  0  0  0
   47.2140   29.9580   41.3180 H   0  0  0  0  0  0  0  0  0  0  0  0
   46.3350   29.8430   39.4310 N   0  0  0  0  0  0  0  0  0  0  0  0
   45.3130   30.0730   38.6330 C   0  0  0  0  0  3  0  0  0  0  0  0
   44.2480   30.6610   39.1550 N   0  0  0  0  0  0  0  0  0  0  0  0
   44.5910   34.4780   42.9590 C   0  0  0  0  0  0  0  0  0  0  0  0
   44.3060   35.7260   43.6050 C   0  0  0  0  0  0  0  0  0  0  0  0
   44.6220   35.8120   44.9500 C   0  0  0  0  0  0  0  0  0  0  0  0
   45.1710   34.7320   45.5630 N   0  0  0  0  0  0  0  0  0  0  0  0
   45.4240   33.5580   44.9020 C   0  0  0  0  0  0  0  0  0  0  0  0
   45.1310   33.4780   43.6520 N   0  0  0  0  0  0  0  0  0  0  0  0
   43.8850   36.6110   43.2070 H   0  0  0  0  0  0  0  0  0  0  0  0
   44.4500   36.7150   45.5470 H   0  0  0  0  0  0  0  0  0  0  0  0
   46.0120   32.4370   45.6540 C   0  0  1  0  0  0  0  0  0  0  0  0
   46.9670   32.7350   46.7910 C   0  0  0  0  0  0  0  0  0  0  0  0
   45.5520   32.3140   47.0640 C   0  0  1  0  0  0  0  0  0  0  0  0
   46.1360   31.4910   45.1100 H   0  0  0  0  0  0  0  0  0  0  0  0
   47.2960   33.7820   46.9150 H   0  0  0  0  0  0  0  0  0  0  0  0
   47.7090   31.9320   46.9710 H   0  0  0  0  0  0  0  0  0  0  0  0
   45.3640   31.3280   47.5330 H   0  0  0  0  0  0  0  0  0  0  0  0
   44.7810   33.3910   47.6660 N   0  0  0  0  0  0  0  0  0  0  0  0
   43.9140   33.0550   48.1100 H   0  0  0  0  0  0  0  0  0  0  0  0
   45.3400   34.0070   48.2750 H   0  0  0  0  0  0  0  0  0  0  0  0
  1 23  1  0  0  0  0
  2  1  2  0  0  0  0
  3 13  1  0  0  0  0
  3  4  1  0  0  0  0
  4  1  1  0  0  0  0
  5  4  2  0  0  0  0
  5  9  1  0  0  0  0
  6  5  1  0  0  0  0
  7  8  1  0  0  0  0
  7  6  2  0  0  0  0
  8  3  2  0  0  0  0
 10  6  1  0  0  0  0
 11  7  1  0  0  0  0
 12  8  1  0  0  0  0
 13 15  2  0  0  0  0
 14 13  2  0  0  0  0
 16 17  1  0  0  0  0
 16 13  1  0  0  0  0
 18 17  2  0  0  0  0
 18 19  1  0  0  0  0
 20 18  1  0  0  0  0
 21 22  1  0  0  0  0
 21 20  2  0  0  0  0
 22 16  2  0  0  0  0
 23 24  2  0  0  0  0
 23 28  1  0  0  0  0
 24 25  1  0  0  0  0
 25 30  1  0  0  0  0
 25 26  2  0  0  0  0
 27 26  1  0  0  0  0
 27 31  1  0  0  0  0
 28 27  2  0  0  0  0
 29 24  1  0  0  0  0
 31 34  1  6  0  0  0
 31 32  1  0  0  0  0
 31 33  1  0  0  0  0
 32 35  1  0  0  0  0
 32 36  1  0  0  0  0
 32 33  1  0  0  0  0
 33 37  1  1  0  0  0
 33 38  1  0  0  0  0
 38 39  1  0  0  0  0
 38 40  1  0  0  0  0
M  END
>  <minimizedAffinity>
-5.69364548

>  <minimizedRMSD>
1.13663507

$$$$
