
 OpenBabel03252508023D

 40 43  0  0  1  0  0  0  0  0999 V2000
   44.2570   34.4210   41.5820 C   0  0  0  0  0  0  0  0  0  0  0  0
   45.1450   34.3840   40.6600 O   0  0  0  0  0  0  0  0  0  0  0  0
   42.1110   33.2480   41.1800 C   0  0  0  0  0  0  0  0  0  0  0  0
   42.8190   34.4020   41.3450 C   0  0  0  0  0  0  0  0  0  0  0  0
   42.1140   35.6190   41.2730 C   0  0  0  0  0  0  0  0  0  0  0  0
   40.7650   35.6980   41.0480 C   0  0  0  0  0  0  0  0  0  0  0  0
   40.0600   34.5330   40.8830 C   0  0  0  0  0  0  0  0  0  0  0  0
   40.7330   33.3500   40.9510 C   0  0  0  0  0  0  0  0  0  0  0  0
   42.5920   36.5830   41.3840 H   0  0  0  0  0  0  0  0  0  0  0  0
   40.2350   36.6290   40.9940 H   0  0  0  0  0  0  0  0  0  0  0  0
   39.0130   34.5090   40.7040 H   0  0  0  0  0  0  0  0  0  0  0  0
   40.1650   32.4130   40.8180 H   0  0  0  0  0  0  0  0  0  0  0  0
   42.8250   31.7220   41.2920 S   0  0  0  0  0  0  0  0  0  0  0  0
   41.9410   30.8850   40.3370 O   0  0  0  0  0  0  0  0  0  0  0  0
   42.6820   31.1290   42.6560 O   0  0  0  0  0  0  0  0  0  0  0  0
   44.1880   31.1060   40.5240 C   0  0  0  0  0  0  0  0  0  0  0  0
   44.1240   31.0820   39.1080 C   0  0  0  0  0  3  0  0  0  0  0  0
   45.1580   30.6890   38.2990 C   0  0  0  0  0  0  0  0  0  0  0  0
   45.0970   30.6770   37.2360 H   0  0  0  0  0  0  0  0  0  0  0  0
   46.2750   30.3120   38.9170 N   0  0  0  0  0  0  0  0  0  0  0  0
   46.4220   30.3020   40.2260 C   0  0  0  0  0  3  0  0  0  0  0  0
   45.3930   30.6920   40.9620 N   0  0  0  0  0  0  0  0  0  0  0  0
   44.5960   34.4880   42.9740 C   0  0  0  0  0  0  0  0  0  0  0  0
   44.3060   35.7320   43.6240 C   0  0  0  0  0  0  0  0  0  0  0  0
   44.6180   35.8130   44.9700 C   0  0  0  0  0  0  0  0  0  0  0  0
   45.1680   34.7320   45.5800 N   0  0  0  0  0  0  0  0  0  0  0  0
   45.4270   33.5610   44.9150 C   0  0  0  0  0  0  0  0  0  0  0  0
   45.1380   33.4860   43.6630 N   0  0  0  0  0  0  0  0  0  0  0  0
   43.8840   36.6180   43.2280 H   0  0  0  0  0  0  0  0  0  0  0  0
   44.4410   36.7130   45.5700 H   0  0  0  0  0  0  0  0  0  0  0  0
   46.0150   32.4390   45.6630 C   0  0  1  0  0  0  0  0  0  0  0  0
   46.9670   32.7350   46.8030 C   0  0  0  0  0  0  0  0  0  0  0  0
   45.5520   32.3100   47.0720 C   0  0  1  0  0  0  0  0  0  0  0  0
   46.1420   31.4950   45.1160 H   0  0  0  0  0  0  0  0  0  0  0  0
   47.2940   33.7820   46.9320 H   0  0  0  0  0  0  0  0  0  0  0  0
   47.7110   31.9330   46.9810 H   0  0  0  0  0  0  0  0  0  0  0  0
   45.3660   31.3220   47.5370 H   0  0  0  0  0  0  0  0  0  0  0  0
   44.7780   33.3820   47.6770 N   0  0  0  0  0  0  0  0  0  0  0  0
   43.9110   33.0430   48.1180 H   0  0  0  0  0  0  0  0  0  0  0  0
   45.3350   33.9980   48.2890 H   0  0  0  0  0  0  0  0  0  0  0  0
  1 23  1  0  0  0  0
  2  1  2  0  0  0  0
  3 13  1  0  0  0  0
  3  4  1  0  0  0  0
  4  1  1  0  0  0  0
  5  4  2  0  0  0  0
  5  9  1  0  0  0  0
  6  5  1  0  0  0  0
  7  8  1  0  0  0  0
  7  6  2  0  0  0  0
  8  3  2  0  0  0  0
 10  6  1  0  0  0  0
 11  7  1  0  0  0  0
 12  8  1  0  0  0  0
 13 15  2  0  0  0  0
 14 13  2  0  0  0  0
 16 22  1  0  0  0  0
 16 13  1  0  0  0  0
 17 16  2  0  0  0  0
 18 20  2  0  0  0  0
 18 17  1  0  0  0  0
 19 18  1  0  0  0  0
 20 21  1  0  0  0  0
 21 22  2  0  0  0  0
 23 24  2  0  0  0  0
 23 28  1  0  0  0  0
 24 25  1  0  0  0  0
 25 30  1  0  0  0  0
 25 26  2  0  0  0  0
 27 26  1  0  0  0  0
 27 31  1  0  0  0  0
 28 27  2  0  0  0  0
 29 24  1  0  0  0  0
 31 34  1  6  0  0  0
 31 32  1  0  0  0  0
 31 33  1  0  0  0  0
 32 35  1  0  0  0  0
 32 36  1  0  0  0  0
 32 33  1  0  0  0  0
 33 37  1  1  0  0  0
 33 38  1  0  0  0  0
 38 39  1  0  0  0  0
 38 40  1  0  0  0  0
M  END
>  <minimizedAffinity>
-5.73308802

>  <minimizedRMSD>
1.01108885

$$$$
