
 OpenBabel03252508033D

 40 43  0  0  1  0  0  0  0  0999 V2000
   44.2370   34.3730   41.5530 C   0  0  0  0  0  0  0  0  0  0  0  0
   45.1180   34.2860   40.6280 O   0  0  0  0  0  0  0  0  0  0  0  0
   42.0580   33.2660   41.1390 C   0  0  0  0  0  0  0  0  0  0  0  0
   42.7980   34.3980   41.3240 C   0  0  0  0  0  0  0  0  0  0  0  0
   42.1260   35.6340   41.2820 C   0  0  0  0  0  0  0  0  0  0  0  0
   40.7780   35.7530   41.0660 C   0  0  0  0  0  0  0  0  0  0  0  0
   40.0410   34.6110   40.8810 C   0  0  0  0  0  0  0  0  0  0  0  0
   40.6820   33.4100   40.9200 C   0  0  0  0  0  0  0  0  0  0  0  0
   42.6300   36.5820   41.4100 H   0  0  0  0  0  0  0  0  0  0  0  0
   40.2720   36.6990   41.0340 H   0  0  0  0  0  0  0  0  0  0  0  0
   38.9920   34.6190   40.7070 H   0  0  0  0  0  0  0  0  0  0  0  0
   40.0890   32.4910   40.7710 H   0  0  0  0  0  0  0  0  0  0  0  0
   42.7310   31.7190   41.2160 S   0  0  0  0  0  0  0  0  0  0  0  0
   41.6640   30.8710   40.4860 O   0  0  0  0  0  0  0  0  0  0  0  0
   42.8170   31.2080   42.6170 O   0  0  0  0  0  0  0  0  0  0  0  0
   43.9140   31.0060   40.2570 C   0  0  0  0  0  0  0  0  0  0  0  0
   43.8980   31.3890   38.8910 C   0  0  0  0  0  3  0  0  0  0  0  0
   44.8220   30.9780   37.9680 C   0  0  0  0  0  0  0  0  0  0  0  0
   44.7990   31.2740   36.9450 H   0  0  0  0  0  0  0  0  0  0  0  0
   45.7790   30.1680   38.4170 N   0  0  0  0  0  0  0  0  0  0  0  0
   45.8700   29.7620   39.6660 C   0  0  0  0  0  3  0  0  0  0  0  0
   44.9530   30.1890   40.5190 N   0  0  0  0  0  0  0  0  0  0  0  0
   44.5860   34.4590   42.9410 C   0  0  0  0  0  0  0  0  0  0  0  0
   44.3070   35.7140   43.5750 C   0  0  0  0  0  0  0  0  0  0  0  0
   44.6290   35.8140   44.9180 C   0  0  0  0  0  0  0  0  0  0  0  0
   45.1770   34.7390   45.5400 N   0  0  0  0  0  0  0  0  0  0  0  0
   45.4260   33.5570   44.8900 C   0  0  0  0  0  0  0  0  0  0  0  0
   45.1270   33.4650   43.6420 N   0  0  0  0  0  0  0  0  0  0  0  0
   43.8870   36.5960   43.1690 H   0  0  0  0  0  0  0  0  0  0  0  0
   44.4610   36.7230   45.5060 H   0  0  0  0  0  0  0  0  0  0  0  0
   46.0140   32.4430   45.6520 C   0  0  1  0  0  0  0  0  0  0  0  0
   46.9630   32.7510   46.7900 C   0  0  0  0  0  0  0  0  0  0  0  0
   45.5480   32.3280   47.0600 C   0  0  1  0  0  0  0  0  0  0  0  0
   46.1430   31.4930   45.1140 H   0  0  0  0  0  0  0  0  0  0  0  0
   47.2890   33.8000   46.9090 H   0  0  0  0  0  0  0  0  0  0  0  0
   47.7070   31.9520   46.9780 H   0  0  0  0  0  0  0  0  0  0  0  0
   45.3620   31.3440   47.5360 H   0  0  0  0  0  0  0  0  0  0  0  0
   44.7720   33.4060   47.6530 N   0  0  0  0  0  0  0  0  0  0  0  0
   43.9040   33.0710   48.0960 H   0  0  0  0  0  0  0  0  0  0  0  0
   45.3270   34.0280   48.2600 H   0  0  0  0  0  0  0  0  0  0  0  0
  1 23  1  0  0  0  0
  2  1  2  0  0  0  0
  3 13  1  0  0  0  0
  3  4  1  0  0  0  0
  4  1  1  0  0  0  0
  5  4  2  0  0  0  0
  5  9  1  0  0  0  0
  6  5  1  0  0  0  0
  7  8  1  0  0  0  0
  7  6  2  0  0  0  0
  8  3  2  0  0  0  0
 10  6  1  0  0  0  0
 11  7  1  0  0  0  0
 12  8  1  0  0  0  0
 13 15  2  0  0  0  0
 14 13  2  0  0  0  0
 16 22  1  0  0  0  0
 16 13  1  0  0  0  0
 17 16  2  0  0  0  0
 18 20  2  0  0  0  0
 18 17  1  0  0  0  0
 19 18  1  0  0  0  0
 20 21  1  0  0  0  0
 21 22  2  0  0  0  0
 23 24  2  0  0  0  0
 23 28  1  0  0  0  0
 24 25  1  0  0  0  0
 25 30  1  0  0  0  0
 25 26  2  0  0  0  0
 27 26  1  0  0  0  0
 27 31  1  0  0  0  0
 28 27  2  0  0  0  0
 29 24  1  0  0  0  0
 31 34  1  6  0  0  0
 31 32  1  0  0  0  0
 31 33  1  0  0  0  0
 32 35  1  0  0  0  0
 32 36  1  0  0  0  0
 32 33  1  0  0  0  0
 33 37  1  1  0  0  0
 33 38  1  0  0  0  0
 38 39  1  0  0  0  0
 38 40  1  0  0  0  0
M  END
>  <minimizedAffinity>
-5.7508378

>  <minimizedRMSD>
1.44887531

$$$$
