
 OpenBabel03252508023D

 40 43  0  0  1  0  0  0  0  0999 V2000
   44.2370   34.3720   41.5530 C   0  0  0  0  0  0  0  0  0  0  0  0
   45.1170   34.2850   40.6280 O   0  0  0  0  0  0  0  0  0  0  0  0
   42.0570   33.2680   41.1400 C   0  0  0  0  0  0  0  0  0  0  0  0
   42.7970   34.3980   41.3250 C   0  0  0  0  0  0  0  0  0  0  0  0
   42.1260   35.6350   41.2820 C   0  0  0  0  0  0  0  0  0  0  0  0
   40.7790   35.7560   41.0660 C   0  0  0  0  0  0  0  0  0  0  0  0
   40.0410   34.6140   40.8810 C   0  0  0  0  0  0  0  0  0  0  0  0
   40.6810   33.4120   40.9210 C   0  0  0  0  0  0  0  0  0  0  0  0
   42.6310   36.5830   41.4090 H   0  0  0  0  0  0  0  0  0  0  0  0
   40.2740   36.7020   41.0340 H   0  0  0  0  0  0  0  0  0  0  0  0
   38.9920   34.6230   40.7080 H   0  0  0  0  0  0  0  0  0  0  0  0
   40.0870   32.4940   40.7730 H   0  0  0  0  0  0  0  0  0  0  0  0
   42.7290   31.7200   41.2170 S   0  0  0  0  0  0  0  0  0  0  0  0
   41.6590   30.8710   40.4930 O   0  0  0  0  0  0  0  0  0  0  0  0
   42.8200   31.2120   42.6180 O   0  0  0  0  0  0  0  0  0  0  0  0
   43.9080   31.0040   40.2550 C   0  0  0  0  0  0  0  0  0  0  0  0
   43.8950   31.3950   38.8920 C   0  0  0  0  0  3  0  0  0  0  0  0
   44.8170   30.9830   37.9660 C   0  0  0  0  0  0  0  0  0  0  0  0
   44.7970   31.2840   36.9450 H   0  0  0  0  0  0  0  0  0  0  0  0
   45.7680   30.1650   38.4120 N   0  0  0  0  0  0  0  0  0  0  0  0
   45.8560   29.7500   39.6590 C   0  0  0  0  0  3  0  0  0  0  0  0
   44.9400   30.1790   40.5130 N   0  0  0  0  0  0  0  0  0  0  0  0
   44.5860   34.4590   42.9420 C   0  0  0  0  0  0  0  0  0  0  0  0
   44.3070   35.7140   43.5760 C   0  0  0  0  0  0  0  0  0  0  0  0
   44.6290   35.8140   44.9180 C   0  0  0  0  0  0  0  0  0  0  0  0
   45.1780   34.7390   45.5400 N   0  0  0  0  0  0  0  0  0  0  0  0
   45.4260   33.5570   44.8900 C   0  0  0  0  0  0  0  0  0  0  0  0
   45.1280   33.4650   43.6420 N   0  0  0  0  0  0  0  0  0  0  0  0
   43.8860   36.5960   43.1690 H   0  0  0  0  0  0  0  0  0  0  0  0
   44.4610   36.7230   45.5060 H   0  0  0  0  0  0  0  0  0  0  0  0
   46.0150   32.4430   45.6520 C   0  0  1  0  0  0  0  0  0  0  0  0
   46.9630   32.7520   46.7910 C   0  0  0  0  0  0  0  0  0  0  0  0
   45.5490   32.3270   47.0600 C   0  0  1  0  0  0  0  0  0  0  0  0
   46.1450   31.4940   45.1140 H   0  0  0  0  0  0  0  0  0  0  0  0
   47.2880   33.8010   46.9100 H   0  0  0  0  0  0  0  0  0  0  0  0
   47.7080   31.9530   46.9790 H   0  0  0  0  0  0  0  0  0  0  0  0
   45.3630   31.3440   47.5350 H   0  0  0  0  0  0  0  0  0  0  0  0
   44.7710   33.4050   47.6530 N   0  0  0  0  0  0  0  0  0  0  0  0
   43.9040   33.0680   48.0950 H   0  0  0  0  0  0  0  0  0  0  0  0
   45.3250   34.0270   48.2600 H   0  0  0  0  0  0  0  0  0  0  0  0
  1 23  1  0  0  0  0
  2  1  2  0  0  0  0
  3 13  1  0  0  0  0
  3  4  1  0  0  0  0
  4  1  1  0  0  0  0
  5  4  2  0  0  0  0
  5  9  1  0  0  0  0
  6  5  1  0  0  0  0
  7  8  1  0  0  0  0
  7  6  2  0  0  0  0
  8  3  2  0  0  0  0
 10  6  1  0  0  0  0
 11  7  1  0  0  0  0
 12  8  1  0  0  0  0
 13 15  2  0  0  0  0
 14 13  2  0  0  0  0
 16 22  1  0  0  0  0
 16 13  1  0  0  0  0
 17 16  2  0  0  0  0
 18 20  2  0  0  0  0
 18 17  1  0  0  0  0
 19 18  1  0  0  0  0
 20 21  1  0  0  0  0
 21 22  2  0  0  0  0
 23 24  2  0  0  0  0
 23 28  1  0  0  0  0
 24 25  1  0  0  0  0
 25 30  1  0  0  0  0
 25 26  2  0  0  0  0
 27 26  1  0  0  0  0
 27 31  1  0  0  0  0
 28 27  2  0  0  0  0
 29 24  1  0  0  0  0
 31 34  1  6  0  0  0
 31 32  1  0  0  0  0
 31 33  1  0  0  0  0
 32 35  1  0  0  0  0
 32 36  1  0  0  0  0
 32 33  1  0  0  0  0
 33 37  1  1  0  0  0
 33 38  1  0  0  0  0
 38 39  1  0  0  0  0
 38 40  1  0  0  0  0
M  END
>  <minimizedAffinity>
-5.75206995

>  <minimizedRMSD>
1.49919546

$$$$
