
 OpenBabel03252503153D

 34 37  0  0  0  0  0  0  0  0999 V2000
   45.7460   34.5340   41.5120 C   0  0  0  0  0  0  0  0  0  0  0  0
   46.9640   34.7030   41.2180 O   0  0  0  0  0  0  0  0  0  0  0  0
   44.6860   34.1290   40.5340 C   0  0  0  0  0  0  0  0  0  0  0  0
   43.3290   34.4230   40.6280 C   0  0  0  0  0  0  0  0  0  0  0  0
   42.7610   33.8660   39.5380 N   0  0  0  0  0  0  0  0  0  0  0  0
   43.7260   33.2600   38.8130 C   0  0  0  0  0  0  0  0  0  0  0  0
   44.9230   33.4210   39.4270 N   0  0  0  0  0  0  0  0  0  0  0  0
   43.6520   32.5330   37.5830 N   0  0  0  0  0  0  0  0  0  0  0  0
   42.8440   34.9730   41.4020 H   0  0  0  0  0  0  0  0  0  0  0  0
   43.7580   31.5010   37.5100 H   0  0  0  0  0  0  0  0  0  0  0  0
   43.4790   33.1500   36.7440 H   0  0  0  0  0  0  0  0  0  0  0  0
   41.3890   33.8800   39.1620 C   0  0  0  0  0  0  0  0  0  0  0  0
   40.9310   34.6880   38.1440 C   0  0  0  0  0  3  0  0  0  0  0  0
   39.5640   34.5810   37.9040 C   0  0  0  0  0  0  0  0  0  0  0  0
   39.1110   35.1830   37.1160 H   0  0  0  0  0  0  0  0  0  0  0  0
   38.7240   33.7730   38.5810 N   0  0  0  0  0  0  0  0  0  0  0  0
   39.2220   33.0160   39.5500 C   0  0  0  0  0  3  0  0  0  0  0  0
   40.5330   33.0850   39.8190 N   0  0  0  0  0  0  0  0  0  0  0  0
   44.9410   36.0160   43.2960 C   0  0  0  0  0  0  0  0  0  0  0  0
   45.4070   34.7540   42.8760 C   0  0  0  0  0  0  0  0  0  0  0  0
   45.4920   33.8160   43.8800 C   0  0  0  0  0  0  0  0  0  0  0  0
   45.1570   34.0830   45.1490 N   0  0  0  0  0  0  0  0  0  0  0  0
   44.7130   35.3180   45.5060 C   0  0  0  0  0  0  0  0  0  0  0  0
   44.6090   36.2710   44.5720 N   0  0  0  0  0  0  0  0  0  0  0  0
   44.8550   36.7930   42.5470 H   0  0  0  0  0  0  0  0  0  0  0  0
   44.4570   35.4780   46.5450 H   0  0  0  0  0  0  0  0  0  0  0  0
   45.9530   32.5180   43.5500 C   0  0  0  0  0  0  0  0  0  0  0  0
   47.1700   31.9050   43.5280 C   0  0  0  0  0  0  0  0  0  0  0  0
   47.2940   30.6440   43.1650 C   0  0  0  0  0  0  0  0  0  0  0  0
   46.1830   29.9620   42.8120 C   0  0  0  0  0  0  0  0  0  0  0  0
   44.8750   31.2100   43.0120 S   0  0  0  0  0  0  0  0  0  0  0  0
   48.0120   32.5560   43.8370 H   0  0  0  0  0  0  0  0  0  0  0  0
   48.2210   30.0870   43.1210 H   0  0  0  0  0  0  0  0  0  0  0  0
   45.9890   28.9490   42.4810 H   0  0  0  0  0  0  0  0  0  0  0  0
  1 20  1  0  0  0  0
  2  1  2  0  0  0  0
  3  4  2  0  0  0  0
  3  1  1  0  0  0  0
  4  9  1  0  0  0  0
  5  4  1  0  0  0  0
  6  7  2  0  0  0  0
  6  5  1  0  0  0  0
  7  3  1  0  0  0  0
  8  6  1  0  0  0  0
 10  8  1  0  0  0  0
 11  8  1  0  0  0  0
 12  5  1  0  0  0  0
 12 18  1  0  0  0  0
 13 12  2  0  0  0  0
 14 13  1  0  0  0  0
 14 16  2  0  0  0  0
 15 14  1  0  0  0  0
 16 17  1  0  0  0  0
 17 18  2  0  0  0  0
 19 24  1  0  0  0  0
 20 19  2  0  0  0  0
 20 21  1  0  0  0  0
 21 22  2  0  0  0  0
 22 23  1  0  0  0  0
 23 26  1  0  0  0  0
 24 23  2  0  0  0  0
 25 19  1  0  0  0  0
 27 21  1  0  0  0  0
 28 27  2  0  0  0  0
 28 32  1  0  0  0  0
 29 28  1  0  0  0  0
 30 31  1  0  0  0  0
 30 29  2  0  0  0  0
 31 27  1  0  0  0  0
 33 29  1  0  0  0  0
 34 30  1  0  0  0  0
M  END
>  <minimizedAffinity>
-5.50608301

>  <minimizedRMSD>
1.39049006

$$$$
