
     RDKit          3D

 36 39  0  0  0  0  0  0  0  0999 V2000
   45.2198   36.1711   43.4972 C   0  0  0  0  0  0  0  0  0  0  0  0
   45.8742   34.9684   43.1650 C   0  0  0  0  0  0  0  0  0  0  0  0
   45.8128   33.9992   44.1397 C   0  0  0  0  0  0  0  0  0  0  0  0
   45.1825   34.1862   45.3066 N   0  0  0  0  0  0  0  0  0  0  0  0
   44.5647   35.3656   45.5816 C   0  0  0  0  0  0  0  0  0  0  0  0
   44.5914   36.3457   44.6709 N   0  0  0  0  0  0  0  0  0  0  0  0
   46.4458   32.7563   43.8933 C   0  0  0  0  0  0  0  0  0  0  0  0
   47.7149   32.2776   44.0240 C   0  0  0  0  0  0  0  0  0  0  0  0
   48.0154   31.0350   43.7052 C   0  0  0  0  0  0  0  0  0  0  0  0
   47.0324   30.2326   43.2406 C   0  0  0  0  0  0  0  0  0  0  0  0
   45.5845   31.3330   43.2631 S   0  0  0  0  0  0  0  0  0  0  0  0
   46.5261   34.8318   41.9081 C   0  0  0  0  0  0  0  0  0  0  0  0
   47.7184   35.2521   41.8626 O   0  0  0  0  0  0  0  0  0  0  0  0
   45.7985   34.2223   40.7486 C   0  0  0  0  0  0  0  0  0  0  0  0
   44.4332   34.3205   40.4958 C   0  0  0  0  0  0  0  0  0  0  0  0
   44.2245   33.6261   39.3585 N   0  0  0  0  0  0  0  0  0  0  0  0
   45.4061   33.1275   38.9370 C   0  0  0  0  0  0  0  0  0  0  0  0
   46.3860   33.4952   39.7969 N   0  0  0  0  0  0  0  0  0  0  0  0
   45.7289   32.3278   37.7943 N   0  0  0  0  0  0  0  0  0  0  0  0
   45.2370   36.9686   42.7655 H   0  0  0  0  0  0  0  0  0  0  0  0
   44.0707   35.4618   46.5400 H   0  0  0  0  0  0  0  0  0  0  0  0
   48.4412   33.0201   44.4137 H   0  0  0  0  0  0  0  0  0  0  0  0
   48.9945   30.5816   43.7800 H   0  0  0  0  0  0  0  0  0  0  0  0
   46.9879   29.2022   42.9116 H   0  0  0  0  0  0  0  0  0  0  0  0
   43.7079   34.8381   41.0822 H   0  0  0  0  0  0  0  0  0  0  0  0
   45.9803   31.3197   37.8408 H   0  0  0  0  0  0  0  0  0  0  0  0
   45.6875   32.8646   36.8857 H   0  0  0  0  0  0  0  0  0  0  0  0
   42.9945   33.4185   38.6723 C   0  0  0  0  0  0  0  0  0  0  0  0
   42.9665   32.9533   37.3744 C   0  0  0  0  0  0  0  0  0  0  0  0
   41.6840   32.8060   36.8520 C   0  0  0  0  0  0  0  0  0  0  0  0
   41.5628   32.4434   35.8318 H   0  0  0  0  0  0  0  0  0  0  0  0
   40.5454   33.0807   37.5170 N   0  0  0  0  0  0  0  0  0  0  0  0
   40.6343   33.5258   38.7642 C   0  0  0  0  0  0  0  0  0  0  0  0
   41.8476   33.6841   39.3110 N   0  0  0  0  0  0  0  0  0  0  0  0
   43.8534   32.7313   36.8341 H   0  0  0  0  0  0  0  0  0  0  0  0
   39.8068   33.7894   39.4257 H   0  0  0  0  0  0  0  0  0  0  0  0
  1  6  2  0
  2  1  1  0
  2  3  2  0
  3  4  1  0
  4  5  2  0
  6  5  1  0
  7  8  2  0
  7  3  1  0
  9  8  1  0
 10 11  1  0
 10  9  2  0
 11  7  1  0
 12  2  1  0
 13 12  2  0
 14 12  1  0
 15 14  2  0
 16 15  1  0
 17 16  1  0
 17 18  2  0
 18 14  1  0
 19 17  1  0
  1 20  1  0
  5 21  1  0
  8 22  1  0
  9 23  1  0
 10 24  1  0
 15 25  1  0
 19 26  1  0
 19 27  1  0
 28 29  2  0
 29 30  1  0
 30 31  1  0
 30 32  2  0
 32 33  1  0
 33 34  2  0
 34 28  1  0
 29 35  1  0
 33 36  1  0
 16 28  1  0
M  ISO  7  20  14  21  14  22  14  23  14  24  14  25  14  31  14
M  END
>  <DihAtoms>  (1) 
14,15,27,28

>  <DihDeg>  (1) 
0.001794411979300436

$$$$
