
     RDKit          3D

 22 23  0  0  0  0  0  0  0  0999 V2000
   44.5195   36.0107   44.5352 C   0  0  0  0  0  0  0  0  0  0  0  0
   45.2170   35.8801   43.3300 C   0  0  0  0  0  0  0  0  0  0  0  0
   46.1134   34.8199   43.1727 C   0  0  0  0  0  0  0  0  0  0  0  0
   46.2883   33.9313   44.2051 N   0  0  0  0  0  0  0  0  0  0  0  0
   45.5892   34.0993   45.3554 C   0  0  0  0  0  0  0  0  0  0  0  0
   44.7218   35.1179   45.5190 N   0  0  0  0  0  0  0  0  0  0  0  0
   45.8376   33.1013   46.4141 C   0  0  0  0  0  0  0  0  0  0  0  0
   46.5362   31.6195   45.6135 S   0  0  0  0  0  0  0  0  0  0  0  0
   43.8509   36.8591   44.5625 H   0  0  0  0  0  0  0  0  0  0  0  0
   45.1746   36.4972   42.4547 H   0  0  0  0  0  0  0  0  0  0  0  0
   46.7037   34.6217   42.2888 H   0  0  0  0  0  0  0  0  0  0  0  0
   46.6225   33.5434   47.0789 H   0  0  0  0  0  0  0  0  0  0  0  0
   44.9162   32.8716   46.9597 H   0  0  0  0  0  0  0  0  0  0  0  0
   45.3105   30.8764   44.5503 C   0  0  0  0  0  0  0  0  0  0  0  0
   43.9636   30.6498   44.8487 C   0  0  0  0  0  0  0  0  0  0  0  0
   43.1927   30.0557   43.8719 C   0  0  0  0  0  0  0  0  0  0  0  0
   42.1544   29.9038   44.1591 H   0  0  0  0  0  0  0  0  0  0  0  0
   43.7161   29.7075   42.6769 N   0  0  0  0  0  0  0  0  0  0  0  0
   45.0358   29.9397   42.4096 C   0  0  0  0  0  0  0  0  0  0  0  0
   45.7944   30.5186   43.3573 N   0  0  0  0  0  0  0  0  0  0  0  0
   43.6932   30.9766   45.8293 H   0  0  0  0  0  0  0  0  0  0  0  0
   45.3874   29.6294   41.4201 H   0  0  0  0  0  0  0  0  0  0  0  0
  1  6  2  0
  2  1  1  0
  3  2  2  0
  3  4  1  0
  4  5  2  0
  5  6  1  0
  5  7  1  0
  8  7  1  0
  1  9  1  0
  2 10  1  0
  3 11  1  0
  7 12  1  0
  7 13  1  0
 14 15  2  0
 15 16  1  0
 16 17  1  0
 16 18  2  0
 18 19  1  0
 19 20  2  0
 20 14  1  0
 15 21  1  0
 19 22  1  0
  8 14  1  0
M  ISO  6   9  14  10  14  11  14  12   8  13   8  17  14
M  END
>  <DihAtoms>  (1) 
6,7,13,14

>  <DihDeg>  (1) 
0.2430772152647021

$$$$
