
 OpenBabel03252503153D

 34 37  0  0  0  0  0  0  0  0999 V2000
   46.0970   34.7860   42.0130 C   0  0  0  0  0  0  0  0  0  0  0  0
   47.2900   35.1700   41.8400 O   0  0  0  0  0  0  0  0  0  0  0  0
   45.1890   34.3230   40.9160 C   0  0  0  0  0  0  0  0  0  0  0  0
   43.9180   34.8200   40.6400 C   0  0  0  0  0  0  0  0  0  0  0  0
   43.4760   34.1160   39.5770 N   0  0  0  0  0  0  0  0  0  0  0  0
   44.4320   33.2310   39.2210 C   0  0  0  0  0  0  0  0  0  0  0  0
   45.4970   33.3560   40.0490 N   0  0  0  0  0  0  0  0  0  0  0  0
   44.4620   32.2600   38.1700 N   0  0  0  0  0  0  0  0  0  0  0  0
   43.4060   35.5950   41.1620 H   0  0  0  0  0  0  0  0  0  0  0  0
   44.3850   31.2350   38.3220 H   0  0  0  0  0  0  0  0  0  0  0  0
   44.5710   32.6890   37.2110 H   0  0  0  0  0  0  0  0  0  0  0  0
   42.2290   34.2380   38.9030 C   0  0  0  0  0  0  0  0  0  0  0  0
   41.8270   35.4350   38.3490 C   0  0  0  0  0  3  0  0  0  0  0  0
   40.5810   35.3830   37.7280 C   0  0  0  0  0  0  0  0  0  0  0  0
   40.1810   36.2830   37.2610 H   0  0  0  0  0  0  0  0  0  0  0  0
   39.8040   34.2860   37.6510 N   0  0  0  0  0  0  0  0  0  0  0  0
   40.2430   33.1610   38.2030 C   0  0  0  0  0  3  0  0  0  0  0  0
   41.4370   33.1610   38.8130 N   0  0  0  0  0  0  0  0  0  0  0  0
   44.9670   35.9500   43.8550 C   0  0  0  0  0  0  0  0  0  0  0  0
   45.6330   34.8120   43.3570 C   0  0  0  0  0  0  0  0  0  0  0  0
   45.7730   33.7910   44.2690 C   0  0  0  0  0  0  0  0  0  0  0  0
   45.3130   33.8740   45.5250 N   0  0  0  0  0  0  0  0  0  0  0  0
   44.6760   34.9950   45.9590 C   0  0  0  0  0  0  0  0  0  0  0  0
   44.5100   36.0210   45.1160 N   0  0  0  0  0  0  0  0  0  0  0  0
   44.8290   36.7850   43.1800 H   0  0  0  0  0  0  0  0  0  0  0  0
   44.3250   35.0070   46.9820 H   0  0  0  0  0  0  0  0  0  0  0  0
   46.4330   32.6080   43.8570 C   0  0  0  0  0  0  0  0  0  0  0  0
   47.7300   32.1930   43.8130 C   0  0  0  0  0  0  0  0  0  0  0  0
   48.0520   30.9970   43.3640 C   0  0  0  0  0  0  0  0  0  0  0  0
   47.0630   30.1780   42.9450 C   0  0  0  0  0  0  0  0  0  0  0  0
   45.5760   31.1900   43.2090 S   0  0  0  0  0  0  0  0  0  0  0  0
   48.4590   32.9440   44.1820 H   0  0  0  0  0  0  0  0  0  0  0  0
   49.0550   30.5950   43.2980 H   0  0  0  0  0  0  0  0  0  0  0  0
   47.0320   29.1740   42.5400 H   0  0  0  0  0  0  0  0  0  0  0  0
  1 20  1  0  0  0  0
  2  1  2  0  0  0  0
  3  1  1  0  0  0  0
  4  3  2  0  0  0  0
  4  9  1  0  0  0  0
  5  4  1  0  0  0  0
  6  5  1  0  0  0  0
  6  7  2  0  0  0  0
  7  3  1  0  0  0  0
  8 10  1  0  0  0  0
  8  6  1  0  0  0  0
 11  8  1  0  0  0  0
 12  5  1  0  0  0  0
 13 12  2  0  0  0  0
 14 13  1  0  0  0  0
 15 14  1  0  0  0  0
 16 14  2  0  0  0  0
 16 17  1  0  0  0  0
 17 18  2  0  0  0  0
 18 12  1  0  0  0  0
 19 24  1  0  0  0  0
 20 19  2  0  0  0  0
 20 21  1  0  0  0  0
 21 22  2  0  0  0  0
 22 23  1  0  0  0  0
 23 26  1  0  0  0  0
 24 23  2  0  0  0  0
 25 19  1  0  0  0  0
 27 21  1  0  0  0  0
 28 27  2  0  0  0  0
 28 32  1  0  0  0  0
 29 28  1  0  0  0  0
 30 31  1  0  0  0  0
 30 29  2  0  0  0  0
 31 27  1  0  0  0  0
 33 29  1  0  0  0  0
 34 30  1  0  0  0  0
M  END
>  <minimizedAffinity>
-5.55531979

>  <minimizedRMSD>
1.04458499

$$$$
