
 OpenBabel03242519403D

 25 26  0  0  0  0  0  0  0  0999 V2000
   37.5970   28.9200   38.6120 O   0  0  0  0  0  0  0  0  0  0  0  0
   36.5240   29.9790   38.8040 P   0  0  2  0  0  0  0  0  0  0  0  0
   37.1310   31.4910   38.2200 O   0  0  0  0  0  0  0  0  0  0  0  0
   38.3540   34.1610   40.4040 C   0  0  0  0  0  0  0  0  0  0  0  0
   37.4800   33.4050   39.5810 C   0  0  0  0  0  0  0  0  0  0  0  0
   37.9830   32.2360   39.0270 C   0  0  0  0  0  0  0  0  0  0  0  0
   39.2650   31.8630   39.2870 N   0  0  0  0  0  0  0  0  0  0  0  0
   40.0640   32.6250   40.0850 C   0  0  0  0  0  0  0  0  0  0  0  0
   39.6220   33.7520   40.6360 N   0  0  0  0  0  0  0  0  0  0  0  0
   38.0500   35.0820   40.8750 H   0  0  0  0  0  0  0  0  0  0  0  0
   36.4850   33.7780   39.4320 H   0  0  0  0  0  0  0  0  0  0  0  0
   41.0870   32.3320   40.2960 H   0  0  0  0  0  0  0  0  0  0  0  0
   36.0950   30.1730   40.4030 O   0  0  0  0  0  0  0  0  0  0  0  0
   36.7640   29.4560   41.3920 C   0  0  0  0  0  0  0  0  0  0  0  0
   36.3090   28.2250   41.8150 C   0  0  0  0  0  3  0  0  0  0  0  0
   37.0510   27.6050   42.7980 C   0  0  0  0  0  0  0  0  0  0  0  0
   36.7740   26.6290   43.2010 H   0  0  0  0  0  0  0  0  0  0  0  0
   38.1600   28.1440   43.3360 N   0  0  0  0  0  0  0  0  0  0  0  0
   38.5970   29.3610   42.9070 C   0  0  0  0  0  3  0  0  0  0  0  0
   37.8780   29.9540   41.9590 N   0  0  0  0  0  0  0  0  0  0  0  0
   35.2080   29.5620   37.8380 O   0  0  0  0  0  0  0  0  0  0  0  0
   34.4140   28.6070   38.4260 C   0  0  0  0  0  0  0  0  0  0  0  0
   35.1210   27.4660   38.8010 F   0  0  0  0  0  0  0  0  0  0  0  0
   33.7190   29.1600   39.4800 F   0  0  0  0  0  0  0  0  0  0  0  0
   33.4890   28.2000   37.4780 F   0  0  0  0  0  0  0  0  0  0  0  0
  2  1  2  6  0  0  0
  2 13  1  0  0  0  0
  3  2  1  0  0  0  0
  3  6  1  0  0  0  0
  4  9  1  0  0  0  0
  4 10  1  0  0  0  0
  5  4  2  0  0  0  0
  6  7  2  0  0  0  0
  6  5  1  0  0  0  0
  7  8  1  0  0  0  0
  8 12  1  0  0  0  0
  8  9  2  0  0  0  0
 11  5  1  0  0  0  0
 13 14  1  0  0  0  0
 14 15  2  0  0  0  0
 14 20  1  0  0  0  0
 15 16  1  0  0  0  0
 16 17  1  0  0  0  0
 16 18  2  0  0  0  0
 19 18  1  0  0  0  0
 20 19  2  0  0  0  0
 21 22  1  0  0  0  0
 21  2  1  0  0  0  0
 22 23  1  0  0  0  0
 22 24  1  0  0  0  0
 25 22  1  0  0  0  0
M  END
>  <minimizedAffinity>
-4.75209475

$$$$

 OpenBabel03242519403D

 25 26  0  0  0  0  0  0  0  0999 V2000
   37.7910   29.6820   38.3210 O   0  0  0  0  0  0  0  0  0  0  0  0
   36.4730   29.4750   39.0470 P   0  0  2  0  0  0  0  0  0  0  0  0
   36.2450   30.7800   40.1600 O   0  0  0  0  0  0  0  0  0  0  0  0
   38.2440   33.8400   39.9590 C   0  0  0  0  0  0  0  0  0  0  0  0
   37.1830   32.9230   39.7460 C   0  0  0  0  0  0  0  0  0  0  0  0
   37.2820   31.6830   40.3650 C   0  0  0  0  0  0  0  0  0  0  0  0
   38.3660   31.3980   41.1350 N   0  0  0  0  0  0  0  0  0  0  0  0
   39.3580   32.3160   41.3080 C   0  0  0  0  0  0  0  0  0  0  0  0
   39.3040   33.5140   40.7340 N   0  0  0  0  0  0  0  0  0  0  0  0
   38.2530   34.8240   39.5180 H   0  0  0  0  0  0  0  0  0  0  0  0
   36.3680   33.2350   39.1220 H   0  0  0  0  0  0  0  0  0  0  0  0
   40.2250   32.0940   41.9220 H   0  0  0  0  0  0  0  0  0  0  0  0
   36.4320   28.0460   39.9050 O   0  0  0  0  0  0  0  0  0  0  0  0
   37.1180   27.9440   41.1130 C   0  0  0  0  0  0  0  0  0  0  0  0
   36.4510   27.9700   42.3190 C   0  0  0  0  0  3  0  0  0  0  0  0
   37.2310   27.8610   43.4510 C   0  0  0  0  0  0  0  0  0  0  0  0
   36.7990   27.8710   44.4530 H   0  0  0  0  0  0  0  0  0  0  0  0
   38.5700   27.7360   43.4140 N   0  0  0  0  0  0  0  0  0  0  0  0
   39.2150   27.7120   42.2150 C   0  0  0  0  0  3  0  0  0  0  0  0
   38.4570   27.8170   41.1270 N   0  0  0  0  0  0  0  0  0  0  0  0
   35.2350   29.5680   37.9070 O   0  0  0  0  0  0  0  0  0  0  0  0
   34.1260   28.8520   38.2850 C   0  0  0  0  0  0  0  0  0  0  0  0
   34.2540   27.4840   38.0480 F   0  0  0  0  0  0  0  0  0  0  0  0
   33.8160   29.1270   39.6000 F   0  0  0  0  0  0  0  0  0  0  0  0
   33.0680   29.2880   37.5030 F   0  0  0  0  0  0  0  0  0  0  0  0
  2  1  2  6  0  0  0
  2 13  1  0  0  0  0
  2  3  1  0  0  0  0
  3  6  1  0  0  0  0
  4  9  1  0  0  0  0
  5  4  2  0  0  0  0
  5  6  1  0  0  0  0
  6  7  2  0  0  0  0
  7  8  1  0  0  0  0
  8 12  1  0  0  0  0
  9  8  2  0  0  0  0
 10  4  1  0  0  0  0
 11  5  1  0  0  0  0
 13 14  1  0  0  0  0
 14 20  2  0  0  0  0
 14 15  1  0  0  0  0
 15 16  2  0  0  0  0
 16 17  1  0  0  0  0
 18 16  1  0  0  0  0
 19 18  2  0  0  0  0
 20 19  1  0  0  0  0
 21 22  1  0  0  0  0
 21  2  1  0  0  0  0
 22 24  1  0  0  0  0
 23 22  1  0  0  0  0
 25 22  1  0  0  0  0
M  END
>  <minimizedAffinity>
-4.67435074

$$$$

 OpenBabel03242519403D

 25 26  0  0  0  0  0  0  0  0999 V2000
   38.1760   28.6300   40.3650 O   0  0  0  0  0  0  0  0  0  0  0  0
   37.4100   29.1840   41.5550 P   0  0  2  0  0  0  0  0  0  0  0  0
   38.3300   30.4750   42.2500 O   0  0  0  0  0  0  0  0  0  0  0  0
   40.8300   32.4200   40.4170 C   0  0  0  0  0  0  0  0  0  0  0  0
   40.2680   31.4370   41.2720 C   0  0  0  0  0  0  0  0  0  0  0  0
   38.8870   31.4350   41.4140 C   0  0  0  0  0  0  0  0  0  0  0  0
   38.1380   32.3530   40.7450 N   0  0  0  0  0  0  0  0  0  0  0  0
   38.7280   33.2760   39.9360 C   0  0  0  0  0  0  0  0  0  0  0  0
   40.0480   33.3140   39.7710 N   0  0  0  0  0  0  0  0  0  0  0  0
   41.8930   32.4970   40.2470 H   0  0  0  0  0  0  0  0  0  0  0  0
   40.9380   30.7550   41.7590 H   0  0  0  0  0  0  0  0  0  0  0  0
   38.1360   34.0110   39.3990 H   0  0  0  0  0  0  0  0  0  0  0  0
   37.1460   28.0380   42.7360 O   0  0  0  0  0  0  0  0  0  0  0  0
   38.0190   26.9600   42.8620 C   0  0  0  0  0  0  0  0  0  0  0  0
   39.1620   27.0510   43.6270 C   0  0  0  0  0  3  0  0  0  0  0  0
   39.9530   25.9220   43.6800 C   0  0  0  0  0  0  0  0  0  0  0  0
   40.8790   25.8920   44.2570 H   0  0  0  0  0  0  0  0  0  0  0  0
   39.6530   24.7810   43.0330 N   0  0  0  0  0  0  0  0  0  0  0  0
   38.5200   24.7060   42.2820 C   0  0  0  0  0  3  0  0  0  0  0  0
   37.7610   25.7980   42.2350 N   0  0  0  0  0  0  0  0  0  0  0  0
   35.9720   29.8490   40.9800 O   0  0  0  0  0  0  0  0  0  0  0  0
   35.4370   29.1160   39.9480 C   0  0  0  0  0  0  0  0  0  0  0  0
   35.8500   29.5590   38.6930 F   0  0  0  0  0  0  0  0  0  0  0  0
   35.6990   27.7760   40.1410 F   0  0  0  0  0  0  0  0  0  0  0  0
   34.0630   29.2860   39.9910 F   0  0  0  0  0  0  0  0  0  0  0  0
  2  1  2  6  0  0  0
  2  3  1  0  0  0  0
  2 13  1  0  0  0  0
  4  5  1  0  0  0  0
  5  6  2  0  0  0  0
  5 11  1  0  0  0  0
  6  3  1  0  0  0  0
  7  6  1  0  0  0  0
  8  7  2  0  0  0  0
  9  8  1  0  0  0  0
  9  4  2  0  0  0  0
 10  4  1  0  0  0  0
 12  8  1  0  0  0  0
 13 14  1  0  0  0  0
 14 15  1  0  0  0  0
 15 16  2  0  0  0  0
 16 17  1  0  0  0  0
 18 16  1  0  0  0  0
 19 18  2  0  0  0  0
 20 19  1  0  0  0  0
 20 14  2  0  0  0  0
 21  2  1  0  0  0  0
 22 25  1  0  0  0  0
 22 24  1  0  0  0  0
 22 21  1  0  0  0  0
 23 22  1  0  0  0  0
M  END
>  <minimizedAffinity>
-4.59662485

$$$$

 OpenBabel03242519403D

 25 26  0  0  0  0  0  0  0  0999 V2000
   38.8010   30.0280   39.4310 O   0  0  0  0  0  0  0  0  0  0  0  0
   39.3980   31.1650   40.2430 P   0  0  2  0  0  0  0  0  0  0  0  0
   41.1150   31.1590   40.0220 O   0  0  0  0  0  0  0  0  0  0  0  0
   42.9820   34.1600   39.0740 C   0  0  0  0  0  0  0  0  0  0  0  0
   42.3880   33.1590   39.8830 C   0  0  0  0  0  0  0  0  0  0  0  0
   41.6990   32.1430   39.2340 C   0  0  0  0  0  0  0  0  0  0  0  0
   41.6200   32.1430   37.8760 N   0  0  0  0  0  0  0  0  0  0  0  0
   42.2090   33.1300   37.1440 C   0  0  0  0  0  0  0  0  0  0  0  0
   42.8780   34.1210   37.7260 N   0  0  0  0  0  0  0  0  0  0  0  0
   43.5350   34.9870   39.4910 H   0  0  0  0  0  0  0  0  0  0  0  0
   42.5020   33.2410   40.9470 H   0  0  0  0  0  0  0  0  0  0  0  0
   42.1500   33.1350   36.0600 H   0  0  0  0  0  0  0  0  0  0  0  0
   39.0820   31.0240   41.8730 O   0  0  0  0  0  0  0  0  0  0  0  0
   38.9930   29.7610   42.4540 C   0  0  0  0  0  0  0  0  0  0  0  0
   37.7980   29.2800   42.9440 C   0  0  0  0  0  3  0  0  0  0  0  0
   37.8270   28.0180   43.4970 C   0  0  0  0  0  0  0  0  0  0  0  0
   36.9340   27.5480   43.9120 H   0  0  0  0  0  0  0  0  0  0  0  0
   38.9440   27.2710   43.5700 N   0  0  0  0  0  0  0  0  0  0  0  0
   40.1180   27.7590   43.0810 C   0  0  0  0  0  3  0  0  0  0  0  0
   40.0830   28.9770   42.5490 N   0  0  0  0  0  0  0  0  0  0  0  0
   38.8180   32.6140   39.6050 O   0  0  0  0  0  0  0  0  0  0  0  0
   37.4470   32.6310   39.5200 C   0  0  0  0  0  0  0  0  0  0  0  0
   36.9590   31.9110   38.4310 F   0  0  0  0  0  0  0  0  0  0  0  0
   36.8970   32.2100   40.7120 F   0  0  0  0  0  0  0  0  0  0  0  0
   37.0630   33.9480   39.3220 F   0  0  0  0  0  0  0  0  0  0  0  0
  2  1  2  6  0  0  0
  2 13  1  0  0  0  0
  3  2  1  0  0  0  0
  4 10  1  0  0  0  0
  4  5  1  0  0  0  0
  5 11  1  0  0  0  0
  6  5  2  0  0  0  0
  6  3  1  0  0  0  0
  7  6  1  0  0  0  0
  8  9  1  0  0  0  0
  8  7  2  0  0  0  0
  9  4  2  0  0  0  0
 12  8  1  0  0  0  0
 13 14  1  0  0  0  0
 14 20  2  0  0  0  0
 14 15  1  0  0  0  0
 15 16  2  0  0  0  0
 16 18  1  0  0  0  0
 16 17  1  0  0  0  0
 19 18  2  0  0  0  0
 20 19  1  0  0  0  0
 21  2  1  0  0  0  0
 22 21  1  0  0  0  0
 22 24  1  0  0  0  0
 23 22  1  0  0  0  0
 25 22  1  0  0  0  0
M  END
>  <minimizedAffinity>
-4.47888565

$$$$

 OpenBabel03242519403D

 25 26  0  0  0  0  0  0  0  0999 V2000
   38.6640   28.2770   39.1470 O   0  0  0  0  0  0  0  0  0  0  0  0
   37.7040   29.3460   39.6420 P   0  0  2  0  0  0  0  0  0  0  0  0
   37.9180   30.7690   38.6800 O   0  0  0  0  0  0  0  0  0  0  0  0
   38.2800   34.1060   40.1360 C   0  0  0  0  0  0  0  0  0  0  0  0
   37.6760   32.9640   39.5520 C   0  0  0  0  0  0  0  0  0  0  0  0
   38.5040   31.8900   39.2530 C   0  0  0  0  0  0  0  0  0  0  0  0
   39.8350   31.9680   39.5260 N   0  0  0  0  0  0  0  0  0  0  0  0
   40.3650   33.0900   40.0890 C   0  0  0  0  0  0  0  0  0  0  0  0
   39.6080   34.1400   40.3910 N   0  0  0  0  0  0  0  0  0  0  0  0
   37.7160   34.9860   40.4010 H   0  0  0  0  0  0  0  0  0  0  0  0
   36.6180   32.9940   39.3720 H   0  0  0  0  0  0  0  0  0  0  0  0
   41.4260   33.1570   40.3100 H   0  0  0  0  0  0  0  0  0  0  0  0
   37.9640   29.7510   41.2380 O   0  0  0  0  0  0  0  0  0  0  0  0
   38.8060   28.9670   42.0220 C   0  0  0  0  0  0  0  0  0  0  0  0
   40.1380   29.2830   42.1800 C   0  0  0  0  0  3  0  0  0  0  0  0
   40.8770   28.4360   42.9780 C   0  0  0  0  0  0  0  0  0  0  0  0
   41.9400   28.5990   43.1660 H   0  0  0  0  0  0  0  0  0  0  0  0
   40.3570   27.3540   43.5840 N   0  0  0  0  0  0  0  0  0  0  0  0
   39.0390   27.0540   43.4200 C   0  0  0  0  0  3  0  0  0  0  0  0
   38.3310   27.8740   42.6480 N   0  0  0  0  0  0  0  0  0  0  0  0
   36.1340   28.7930   39.3740 O   0  0  0  0  0  0  0  0  0  0  0  0
   35.2410   29.3060   40.2820 C   0  0  0  0  0  0  0  0  0  0  0  0
   35.5010   30.6350   40.6110 F   0  0  0  0  0  0  0  0  0  0  0  0
   33.9520   29.1240   39.8280 F   0  0  0  0  0  0  0  0  0  0  0  0
   35.3810   28.5790   41.4530 F   0  0  0  0  0  0  0  0  0  0  0  0
  2  1  2  6  0  0  0
  2 13  1  0  0  0  0
  3  6  1  0  0  0  0
  3  2  1  0  0  0  0
  4  9  1  0  0  0  0
  4 10  1  0  0  0  0
  5  4  2  0  0  0  0
  6  7  2  0  0  0  0
  6  5  1  0  0  0  0
  7  8  1  0  0  0  0
  8 12  1  0  0  0  0
  8  9  2  0  0  0  0
 11  5  1  0  0  0  0
 13 14  1  0  0  0  0
 14 15  2  0  0  0  0
 14 20  1  0  0  0  0
 15 16  1  0  0  0  0
 16 17  1  0  0  0  0
 16 18  2  0  0  0  0
 19 18  1  0  0  0  0
 20 19  2  0  0  0  0
 21  2  1  0  0  0  0
 21 22  1  0  0  0  0
 22 23  1  0  0  0  0
 22 25  1  0  0  0  0
 24 22  1  0  0  0  0
M  END
>  <minimizedAffinity>
-4.46915817

$$$$

 OpenBabel03242519403D

 25 26  0  0  0  0  0  0  0  0999 V2000
   36.2540   27.4610   43.1970 O   0  0  0  0  0  0  0  0  0  0  0  0
   37.0020   28.2980   42.1730 P   0  0  2  0  0  0  0  0  0  0  0  0
   35.8480   29.0720   41.1420 O   0  0  0  0  0  0  0  0  0  0  0  0
   37.0130   32.0530   39.3680 C   0  0  0  0  0  0  0  0  0  0  0  0
   36.5510   31.2220   40.4200 C   0  0  0  0  0  0  0  0  0  0  0  0
   36.3000   29.8910   40.1150 C   0  0  0  0  0  0  0  0  0  0  0  0
   36.5010   29.4400   38.8480 N   0  0  0  0  0  0  0  0  0  0  0  0
   36.9460   30.2810   37.8720 C   0  0  0  0  0  0  0  0  0  0  0  0
   37.1990   31.5620   38.1220 N   0  0  0  0  0  0  0  0  0  0  0  0
   37.2330   33.0990   39.5120 H   0  0  0  0  0  0  0  0  0  0  0  0
   36.4210   31.6660   41.3890 H   0  0  0  0  0  0  0  0  0  0  0  0
   37.1090   29.9260   36.8590 H   0  0  0  0  0  0  0  0  0  0  0  0
   38.0210   27.3840   41.2210 O   0  0  0  0  0  0  0  0  0  0  0  0
   37.7920   26.0190   41.0750 C   0  0  0  0  0  0  0  0  0  0  0  0
   38.6150   25.0870   41.6700 C   0  0  0  0  0  3  0  0  0  0  0  0
   38.2940   23.7630   41.4580 C   0  0  0  0  0  0  0  0  0  0  0  0
   38.8830   22.9490   41.8850 H   0  0  0  0  0  0  0  0  0  0  0  0
   37.2420   23.3690   40.7170 N   0  0  0  0  0  0  0  0  0  0  0  0
   36.4370   24.3010   40.1360 C   0  0  0  0  0  3  0  0  0  0  0  0
   36.7520   25.5760   40.3430 N   0  0  0  0  0  0  0  0  0  0  0  0
   37.8260   29.5130   43.0020 O   0  0  0  0  0  0  0  0  0  0  0  0
   39.1670   29.5260   42.7060 C   0  0  0  0  0  0  0  0  0  0  0  0
   39.8160   30.6680   43.1710 F   0  0  0  0  0  0  0  0  0  0  0  0
   39.7600   28.3680   43.1610 F   0  0  0  0  0  0  0  0  0  0  0  0
   39.2830   29.5450   41.3250 F   0  0  0  0  0  0  0  0  0  0  0  0
  2 21  1  0  0  0  0
  2  1  2  1  0  0  0
  3  2  1  0  0  0  0
  4 10  1  0  0  0  0
  4  5  1  0  0  0  0
  5 11  1  0  0  0  0
  6  5  2  0  0  0  0
  6  3  1  0  0  0  0
  7  6  1  0  0  0  0
  8  9  1  0  0  0  0
  8  7  2  0  0  0  0
  9  4  2  0  0  0  0
 12  8  1  0  0  0  0
 13  2  1  0  0  0  0
 14 13  1  0  0  0  0
 14 15  1  0  0  0  0
 16 15  2  0  0  0  0
 16 17  1  0  0  0  0
 18 16  1  0  0  0  0
 19 20  1  0  0  0  0
 19 18  2  0  0  0  0
 20 14  2  0  0  0  0
 22 21  1  0  0  0  0
 22 24  1  0  0  0  0
 22 23  1  0  0  0  0
 25 22  1  0  0  0  0
M  END
>  <minimizedAffinity>
-4.46887636

$$$$

 OpenBabel03242519403D

 25 26  0  0  0  0  0  0  0  0999 V2000
   34.8400   29.0080   40.4550 O   0  0  0  0  0  0  0  0  0  0  0  0
   36.2370   29.5430   40.7220 P   0  0  2  0  0  0  0  0  0  0  0  0
   36.8010   28.8870   42.2220 O   0  0  0  0  0  0  0  0  0  0  0  0
   37.9710   25.4230   42.0720 C   0  0  0  0  0  0  0  0  0  0  0  0
   37.0900   26.5340   42.0920 C   0  0  0  0  0  0  0  0  0  0  0  0
   37.6600   27.7950   42.2020 C   0  0  0  0  0  0  0  0  0  0  0  0
   39.0120   27.9200   42.2840 N   0  0  0  0  0  0  0  0  0  0  0  0
   39.8150   26.8190   42.2610 C   0  0  0  0  0  0  0  0  0  0  0  0
   39.3100   25.5930   42.1570 N   0  0  0  0  0  0  0  0  0  0  0  0
   37.6180   24.4070   41.9900 H   0  0  0  0  0  0  0  0  0  0  0  0
   36.0370   26.3390   42.0220 H   0  0  0  0  0  0  0  0  0  0  0  0
   40.8950   26.9130   42.3260 H   0  0  0  0  0  0  0  0  0  0  0  0
   36.2760   31.2060   40.8330 O   0  0  0  0  0  0  0  0  0  0  0  0
   37.4840   31.8810   40.6710 C   0  0  0  0  0  0  0  0  0  0  0  0
   37.5700   33.0160   39.8940 C   0  0  0  0  0  3  0  0  0  0  0  0
   38.8150   33.6020   39.8050 C   0  0  0  0  0  0  0  0  0  0  0  0
   38.9880   34.5040   39.2140 H   0  0  0  0  0  0  0  0  0  0  0  0
   39.9040   33.1180   40.4290 N   0  0  0  0  0  0  0  0  0  0  0  0
   39.8030   31.9960   41.1940 C   0  0  0  0  0  3  0  0  0  0  0  0
   38.6000   31.4350   41.2760 N   0  0  0  0  0  0  0  0  0  0  0  0
   37.2530   28.9610   39.5090 O   0  0  0  0  0  0  0  0  0  0  0  0
   36.7380   29.1760   38.2540 C   0  0  0  0  0  0  0  0  0  0  0  0
   35.8970   30.2850   38.1930 F   0  0  0  0  0  0  0  0  0  0  0  0
   37.7620   29.2470   37.3330 F   0  0  0  0  0  0  0  0  0  0  0  0
   35.9600   28.0750   37.9340 F   0  0  0  0  0  0  0  0  0  0  0  0
  2  1  2  6  0  0  0
  2 13  1  0  0  0  0
  2  3  1  0  0  0  0
  4  5  2  0  0  0  0
  4  9  1  0  0  0  0
  5  6  1  0  0  0  0
  6  3  1  0  0  0  0
  6  7  2  0  0  0  0
  8  7  1  0  0  0  0
  8 12  1  0  0  0  0
  9  8  2  0  0  0  0
 10  4  1  0  0  0  0
 11  5  1  0  0  0  0
 14 13  1  0  0  0  0
 14 20  1  0  0  0  0
 15 14  2  0  0  0  0
 16 15  1  0  0  0  0
 16 18  2  0  0  0  0
 17 16  1  0  0  0  0
 18 19  1  0  0  0  0
 19 20  2  0  0  0  0
 21  2  1  0  0  0  0
 22 21  1  0  0  0  0
 23 22  1  0  0  0  0
 24 22  1  0  0  0  0
 25 22  1  0  0  0  0
M  END
>  <minimizedAffinity>
-4.43265009

$$$$

 OpenBabel03242519403D

 25 26  0  0  0  0  0  0  0  0999 V2000
   38.7400   29.8900   39.9880 O   0  0  0  0  0  0  0  0  0  0  0  0
   37.5990   30.7500   40.5030 P   0  0  2  0  0  0  0  0  0  0  0  0
   36.9480   30.0090   41.9250 O   0  0  0  0  0  0  0  0  0  0  0  0
   38.6880   27.2380   43.5650 C   0  0  0  0  0  0  0  0  0  0  0  0
   38.2980   28.5620   43.2380 C   0  0  0  0  0  0  0  0  0  0  0  0
   37.3340   28.7140   42.2500 C   0  0  0  0  0  0  0  0  0  0  0  0
   36.8070   27.6150   41.6460 N   0  0  0  0  0  0  0  0  0  0  0  0
   37.2170   26.3640   41.9970 C   0  0  0  0  0  0  0  0  0  0  0  0
   38.1380   26.1730   42.9380 N   0  0  0  0  0  0  0  0  0  0  0  0
   39.4290   27.0240   44.3180 H   0  0  0  0  0  0  0  0  0  0  0  0
   38.7680   29.3680   43.7670 H   0  0  0  0  0  0  0  0  0  0  0  0
   36.8000   25.4830   41.5190 H   0  0  0  0  0  0  0  0  0  0  0  0
   36.3670   30.9140   39.3910 O   0  0  0  0  0  0  0  0  0  0  0  0
   36.3140   30.0660   38.2880 C   0  0  0  0  0  0  0  0  0  0  0  0
   36.9900   30.3630   37.1240 C   0  0  0  0  0  3  0  0  0  0  0  0
   36.8660   29.4520   36.0960 C   0  0  0  0  0  0  0  0  0  0  0  0
   37.3610   29.5960   35.1340 H   0  0  0  0  0  0  0  0  0  0  0  0
   36.1350   28.3270   36.1920 N   0  0  0  0  0  0  0  0  0  0  0  0
   35.4730   28.0470   37.3490 C   0  0  0  0  0  3  0  0  0  0  0  0
   35.5960   28.9290   38.3360 N   0  0  0  0  0  0  0  0  0  0  0  0
   38.2420   32.2390   40.9650 O   0  0  0  0  0  0  0  0  0  0  0  0
   38.3240   33.1180   39.9120 C   0  0  0  0  0  0  0  0  0  0  0  0
   38.9140   32.5580   38.7810 F   0  0  0  0  0  0  0  0  0  0  0  0
   37.0790   33.6460   39.6440 F   0  0  0  0  0  0  0  0  0  0  0  0
   39.1470   34.1600   40.3090 F   0  0  0  0  0  0  0  0  0  0  0  0
  2  1  2  6  0  0  0
  2 21  1  0  0  0  0
  2  3  1  0  0  0  0
  3  6  1  0  0  0  0
  4 10  1  0  0  0  0
  5  4  1  0  0  0  0
  5 11  1  0  0  0  0
  6  5  2  0  0  0  0
  7  8  2  0  0  0  0
  7  6  1  0  0  0  0
  8  9  1  0  0  0  0
  9  4  2  0  0  0  0
 12  8  1  0  0  0  0
 13  2  1  0  0  0  0
 14 20  1  0  0  0  0
 14 13  1  0  0  0  0
 15 14  2  0  0  0  0
 16 18  2  0  0  0  0
 16 15  1  0  0  0  0
 17 16  1  0  0  0  0
 18 19  1  0  0  0  0
 19 20  2  0  0  0  0
 22 25  1  0  0  0  0
 22 21  1  0  0  0  0
 23 22  1  0  0  0  0
 24 22  1  0  0  0  0
M  END
>  <minimizedAffinity>
-4.40207815

$$$$

 OpenBabel03242519403D

 25 26  0  0  0  0  0  0  0  0999 V2000
   38.6790   27.3220   41.0810 O   0  0  0  0  0  0  0  0  0  0  0  0
   37.9730   27.2270   42.4230 P   0  0  2  0  0  0  0  0  0  0  0  0
   37.1910   28.7370   42.7430 O   0  0  0  0  0  0  0  0  0  0  0  0
   37.1430   31.6530   40.5320 C   0  0  0  0  0  0  0  0  0  0  0  0
   36.7040   30.4920   41.2190 C   0  0  0  0  0  0  0  0  0  0  0  0
   37.6140   29.8750   42.0670 C   0  0  0  0  0  0  0  0  0  0  0  0
   38.8640   30.3930   42.2080 N   0  0  0  0  0  0  0  0  0  0  0  0
   39.2350   31.5120   41.5240 C   0  0  0  0  0  0  0  0  0  0  0  0
   38.3950   32.1340   40.7020 N   0  0  0  0  0  0  0  0  0  0  0  0
   36.5050   32.1970   39.8530 H   0  0  0  0  0  0  0  0  0  0  0  0
   35.7000   30.1560   41.0450 H   0  0  0  0  0  0  0  0  0  0  0  0
   40.2310   31.9300   41.6330 H   0  0  0  0  0  0  0  0  0  0  0  0
   39.0230   26.9070   43.6780 O   0  0  0  0  0  0  0  0  0  0  0  0
   40.3850   26.7720   43.4230 C   0  0  0  0  0  0  0  0  0  0  0  0
   40.9740   25.5300   43.3190 C   0  0  0  0  0  3  0  0  0  0  0  0
   42.3290   25.5150   43.0650 C   0  0  0  0  0  0  0  0  0  0  0  0
   42.8880   24.5830   42.9650 H   0  0  0  0  0  0  0  0  0  0  0  0
   43.0640   26.6330   42.9210 N   0  0  0  0  0  0  0  0  0  0  0  0
   42.4680   27.8530   43.0260 C   0  0  0  0  0  3  0  0  0  0  0  0
   41.1610   27.8610   43.2720 N   0  0  0  0  0  0  0  0  0  0  0  0
   36.7660   26.0570   42.2890 O   0  0  0  0  0  0  0  0  0  0  0  0
   37.1100   25.0540   41.4170 C   0  0  0  0  0  0  0  0  0  0  0  0
   37.0310   25.4420   40.0810 F   0  0  0  0  0  0  0  0  0  0  0  0
   38.3540   24.5560   41.7420 F   0  0  0  0  0  0  0  0  0  0  0  0
   36.1910   24.0310   41.5830 F   0  0  0  0  0  0  0  0  0  0  0  0
  2  1  2  6  0  0  0
  2  3  1  0  0  0  0
  2 13  1  0  0  0  0
  4  9  2  0  0  0  0
  4  5  1  0  0  0  0
  5  6  2  0  0  0  0
  6  7  1  0  0  0  0
  6  3  1  0  0  0  0
  8 12  1  0  0  0  0
  8  7  2  0  0  0  0
  9  8  1  0  0  0  0
 10  4  1  0  0  0  0
 11  5  1  0  0  0  0
 14 13  1  0  0  0  0
 15 14  1  0  0  0  0
 16 15  2  0  0  0  0
 17 16  1  0  0  0  0
 18 19  2  0  0  0  0
 18 16  1  0  0  0  0
 19 20  1  0  0  0  0
 20 14  2  0  0  0  0
 21  2  1  0  0  0  0
 22 25  1  0  0  0  0
 22 24  1  0  0  0  0
 22 21  1  0  0  0  0
 23 22  1  0  0  0  0
M  END
>  <minimizedAffinity>
-4.38398504

$$$$
