
 OpenBabel03242523303D

 20 21  0  0  0  0  0  0  0  0999 V2000
   45.8220   33.1660   46.4440 C   0  0  0  0  0  0  0  0  0  0  0  0
   46.5780   33.6370   47.1220 H   0  0  0  0  0  0  0  0  0  0  0  0
   44.8920   32.9230   46.9700 H   0  0  0  0  0  0  0  0  0  0  0  0
   44.5070   36.0320   44.4970 C   0  0  0  0  0  0  0  0  0  0  0  0
   45.2130   35.8790   43.3000 C   0  0  0  0  0  0  0  0  0  0  0  0
   46.1130   34.8190   43.1710 C   0  0  0  0  0  0  0  0  0  0  0  0
   46.2840   33.9520   44.2220 N   0  0  0  0  0  0  0  0  0  0  0  0
   45.5770   34.1410   45.3640 C   0  0  0  0  0  0  0  0  0  0  0  0
   44.7050   35.1600   45.5010 N   0  0  0  0  0  0  0  0  0  0  0  0
   43.8350   36.8780   44.5030 H   0  0  0  0  0  0  0  0  0  0  0  0
   45.1750   36.4780   42.4120 H   0  0  0  0  0  0  0  0  0  0  0  0
   46.7110   34.6050   42.2950 H   0  0  0  0  0  0  0  0  0  0  0  0
   46.5760   31.6890   45.6870 S   0  0  0  0  0  0  0  0  0  0  0  0
   45.7720   30.2190   46.3030 C   0  0  0  0  0  0  0  0  0  0  0  0
   45.7810   29.7440   47.6170 C   0  0  0  0  0  3  0  0  0  0  0  0
   45.0900   28.5780   47.8700 C   0  0  0  0  0  0  0  0  0  0  0  0
   45.1320   28.2560   48.9090 H   0  0  0  0  0  0  0  0  0  0  0  0
   44.4310   27.9230   46.8900 N   0  0  0  0  0  0  0  0  0  0  0  0
   44.4370   28.4100   45.6130 C   0  0  0  0  0  3  0  0  0  0  0  0
   45.1090   29.5460   45.3580 N   0  0  0  0  0  0  0  0  0  0  0  0
  1  3  1  0  0  0  0
  1  2  1  0  0  0  0
  4 10  1  0  0  0  0
  4  9  1  0  0  0  0
  5  4  2  0  0  0  0
  6  5  1  0  0  0  0
  6  7  2  0  0  0  0
  7  8  1  0  0  0  0
  8  9  2  0  0  0  0
  8  1  1  0  0  0  0
 11  5  1  0  0  0  0
 12  6  1  0  0  0  0
 13 14  1  0  0  0  0
 13  1  1  0  0  0  0
 14 15  1  0  0  0  0
 15 16  2  0  0  0  0
 16 17  1  0  0  0  0
 18 16  1  0  0  0  0
 19 18  2  0  0  0  0
 20 19  1  0  0  0  0
 20 14  2  0  0  0  0
M  END
>  <minimizedAffinity>
-3.79141927

>  <minimizedRMSD>
2.35719538

$$$$
