
 OpenBabel03252503153D

 34 37  0  0  0  0  0  0  0  0999 V2000
   46.0970   34.7860   42.0140 C   0  0  0  0  0  0  0  0  0  0  0  0
   47.2900   35.1700   41.8410 O   0  0  0  0  0  0  0  0  0  0  0  0
   45.1880   34.3230   40.9160 C   0  0  0  0  0  0  0  0  0  0  0  0
   43.9180   34.8210   40.6410 C   0  0  0  0  0  0  0  0  0  0  0  0
   43.4750   34.1170   39.5780 N   0  0  0  0  0  0  0  0  0  0  0  0
   44.4310   33.2320   39.2220 C   0  0  0  0  0  0  0  0  0  0  0  0
   45.4960   33.3570   40.0500 N   0  0  0  0  0  0  0  0  0  0  0  0
   44.4610   32.2610   38.1700 N   0  0  0  0  0  0  0  0  0  0  0  0
   43.4060   35.5960   41.1630 H   0  0  0  0  0  0  0  0  0  0  0  0
   44.3830   31.2350   38.3230 H   0  0  0  0  0  0  0  0  0  0  0  0
   44.5700   32.6900   37.2120 H   0  0  0  0  0  0  0  0  0  0  0  0
   42.2280   34.2400   38.9040 C   0  0  0  0  0  0  0  0  0  0  0  0
   41.8270   35.4360   38.3500 C   0  0  0  0  0  3  0  0  0  0  0  0
   40.5810   35.3830   37.7270 C   0  0  0  0  0  0  0  0  0  0  0  0
   40.1810   36.2830   37.2610 H   0  0  0  0  0  0  0  0  0  0  0  0
   39.8040   34.2860   37.6520 N   0  0  0  0  0  0  0  0  0  0  0  0
   40.2430   33.1620   38.2040 C   0  0  0  0  0  3  0  0  0  0  0  0
   41.4360   33.1630   38.8140 N   0  0  0  0  0  0  0  0  0  0  0  0
   44.9660   35.9500   43.8550 C   0  0  0  0  0  0  0  0  0  0  0  0
   45.6320   34.8120   43.3580 C   0  0  0  0  0  0  0  0  0  0  0  0
   45.7730   33.7910   44.2700 C   0  0  0  0  0  0  0  0  0  0  0  0
   45.3120   33.8740   45.5250 N   0  0  0  0  0  0  0  0  0  0  0  0
   44.6760   34.9950   45.9590 C   0  0  0  0  0  0  0  0  0  0  0  0
   44.5100   36.0210   45.1170 N   0  0  0  0  0  0  0  0  0  0  0  0
   44.8280   36.7850   43.1810 H   0  0  0  0  0  0  0  0  0  0  0  0
   44.3250   35.0070   46.9830 H   0  0  0  0  0  0  0  0  0  0  0  0
   46.4330   32.6080   43.8570 C   0  0  0  0  0  0  0  0  0  0  0  0
   47.7300   32.1930   43.8130 C   0  0  0  0  0  0  0  0  0  0  0  0
   48.0510   30.9960   43.3640 C   0  0  0  0  0  0  0  0  0  0  0  0
   47.0620   30.1780   42.9450 C   0  0  0  0  0  0  0  0  0  0  0  0
   45.5750   31.1900   43.2100 S   0  0  0  0  0  0  0  0  0  0  0  0
   48.4580   32.9430   44.1820 H   0  0  0  0  0  0  0  0  0  0  0  0
   49.0540   30.5950   43.2980 H   0  0  0  0  0  0  0  0  0  0  0  0
   47.0310   29.1730   42.5400 H   0  0  0  0  0  0  0  0  0  0  0  0
  1 20  1  0  0  0  0
  2  1  2  0  0  0  0
  3  1  1  0  0  0  0
  4  3  2  0  0  0  0
  4  9  1  0  0  0  0
  5  4  1  0  0  0  0
  6  5  1  0  0  0  0
  6  7  2  0  0  0  0
  7  3  1  0  0  0  0
  8 10  1  0  0  0  0
  8  6  1  0  0  0  0
 11  8  1  0  0  0  0
 12  5  1  0  0  0  0
 13 12  2  0  0  0  0
 14 13  1  0  0  0  0
 15 14  1  0  0  0  0
 16 14  2  0  0  0  0
 16 17  1  0  0  0  0
 17 18  2  0  0  0  0
 18 12  1  0  0  0  0
 19 24  1  0  0  0  0
 20 19  2  0  0  0  0
 20 21  1  0  0  0  0
 21 22  2  0  0  0  0
 22 23  1  0  0  0  0
 23 26  1  0  0  0  0
 24 23  2  0  0  0  0
 25 19  1  0  0  0  0
 27 21  1  0  0  0  0
 28 27  2  0  0  0  0
 28 32  1  0  0  0  0
 29 28  1  0  0  0  0
 30 31  1  0  0  0  0
 30 29  2  0  0  0  0
 31 27  1  0  0  0  0
 33 29  1  0  0  0  0
 34 30  1  0  0  0  0
M  END
>  <minimizedAffinity>
-5.55515432

>  <minimizedRMSD>
0.889506698

$$$$
