
 OpenBabel03252503153D

 34 37  0  0  0  0  0  0  0  0999 V2000
   46.0980   34.7870   42.0140 C   0  0  0  0  0  0  0  0  0  0  0  0
   47.2900   35.1710   41.8410 O   0  0  0  0  0  0  0  0  0  0  0  0
   45.1890   34.3240   40.9160 C   0  0  0  0  0  0  0  0  0  0  0  0
   43.9190   34.8210   40.6410 C   0  0  0  0  0  0  0  0  0  0  0  0
   43.4760   34.1160   39.5780 N   0  0  0  0  0  0  0  0  0  0  0  0
   44.4330   33.2320   39.2210 C   0  0  0  0  0  0  0  0  0  0  0  0
   45.4980   33.3580   40.0490 N   0  0  0  0  0  0  0  0  0  0  0  0
   44.4630   32.2620   38.1690 N   0  0  0  0  0  0  0  0  0  0  0  0
   43.4060   35.5950   41.1640 H   0  0  0  0  0  0  0  0  0  0  0  0
   44.3860   31.2360   38.3210 H   0  0  0  0  0  0  0  0  0  0  0  0
   44.5720   32.6910   37.2100 H   0  0  0  0  0  0  0  0  0  0  0  0
   42.2290   34.2380   38.9040 C   0  0  0  0  0  0  0  0  0  0  0  0
   41.8270   35.4350   38.3500 C   0  0  0  0  0  3  0  0  0  0  0  0
   40.5820   35.3830   37.7280 C   0  0  0  0  0  0  0  0  0  0  0  0
   40.1800   36.2810   37.2610 H   0  0  0  0  0  0  0  0  0  0  0  0
   39.8050   34.2850   37.6530 N   0  0  0  0  0  0  0  0  0  0  0  0
   40.2430   33.1610   38.2050 C   0  0  0  0  0  3  0  0  0  0  0  0
   41.4370   33.1610   38.8150 N   0  0  0  0  0  0  0  0  0  0  0  0
   44.9670   35.9500   43.8550 C   0  0  0  0  0  0  0  0  0  0  0  0
   45.6330   34.8120   43.3580 C   0  0  0  0  0  0  0  0  0  0  0  0
   45.7740   33.7910   44.2700 C   0  0  0  0  0  0  0  0  0  0  0  0
   45.3130   33.8740   45.5250 N   0  0  0  0  0  0  0  0  0  0  0  0
   44.6760   34.9940   45.9590 C   0  0  0  0  0  0  0  0  0  0  0  0
   44.5100   36.0200   45.1160 N   0  0  0  0  0  0  0  0  0  0  0  0
   44.8290   36.7850   43.1800 H   0  0  0  0  0  0  0  0  0  0  0  0
   44.3250   35.0060   46.9830 H   0  0  0  0  0  0  0  0  0  0  0  0
   46.4340   32.6080   43.8570 C   0  0  0  0  0  0  0  0  0  0  0  0
   47.7310   32.1940   43.8130 C   0  0  0  0  0  0  0  0  0  0  0  0
   48.0530   30.9970   43.3640 C   0  0  0  0  0  0  0  0  0  0  0  0
   47.0640   30.1780   42.9440 C   0  0  0  0  0  0  0  0  0  0  0  0
   45.5770   31.1900   43.2090 S   0  0  0  0  0  0  0  0  0  0  0  0
   48.4600   32.9440   44.1820 H   0  0  0  0  0  0  0  0  0  0  0  0
   49.0560   30.5960   43.2970 H   0  0  0  0  0  0  0  0  0  0  0  0
   47.0330   29.1740   42.5400 H   0  0  0  0  0  0  0  0  0  0  0  0
  1 20  1  0  0  0  0
  2  1  2  0  0  0  0
  3  1  1  0  0  0  0
  4  3  2  0  0  0  0
  4  9  1  0  0  0  0
  5  4  1  0  0  0  0
  6  5  1  0  0  0  0
  6  7  2  0  0  0  0
  7  3  1  0  0  0  0
  8 10  1  0  0  0  0
  8  6  1  0  0  0  0
 11  8  1  0  0  0  0
 12  5  1  0  0  0  0
 13 12  2  0  0  0  0
 14 13  1  0  0  0  0
 15 14  1  0  0  0  0
 16 14  2  0  0  0  0
 16 17  1  0  0  0  0
 17 18  2  0  0  0  0
 18 12  1  0  0  0  0
 19 24  1  0  0  0  0
 20 19  2  0  0  0  0
 20 21  1  0  0  0  0
 21 22  2  0  0  0  0
 22 23  1  0  0  0  0
 23 26  1  0  0  0  0
 24 23  2  0  0  0  0
 25 19  1  0  0  0  0
 27 21  1  0  0  0  0
 28 27  2  0  0  0  0
 28 32  1  0  0  0  0
 29 28  1  0  0  0  0
 30 31  1  0  0  0  0
 30 29  2  0  0  0  0
 31 27  1  0  0  0  0
 33 29  1  0  0  0  0
 34 30  1  0  0  0  0
M  END
>  <minimizedAffinity>
-5.55534554

>  <minimizedRMSD>
0.955971479

$$$$
