
 OpenBabel03252503153D

 34 37  0  0  0  0  0  0  0  0999 V2000
   46.1160   34.7280   41.9080 C   0  0  0  0  0  0  0  0  0  0  0  0
   47.3290   35.0450   41.7410 O   0  0  0  0  0  0  0  0  0  0  0  0
   45.1980   34.2840   40.8100 C   0  0  0  0  0  0  0  0  0  0  0  0
   43.8820   34.7000   40.6260 C   0  0  0  0  0  0  0  0  0  0  0  0
   43.4480   34.0510   39.5250 N   0  0  0  0  0  0  0  0  0  0  0  0
   44.4510   33.2760   39.0600 C   0  0  0  0  0  0  0  0  0  0  0  0
   45.5400   33.4180   39.8550 N   0  0  0  0  0  0  0  0  0  0  0  0
   44.5080   32.4000   37.9300 N   0  0  0  0  0  0  0  0  0  0  0  0
   43.3360   35.3870   41.2310 H   0  0  0  0  0  0  0  0  0  0  0  0
   44.5160   31.3620   37.9990 H   0  0  0  0  0  0  0  0  0  0  0  0
   44.5410   32.9120   37.0080 H   0  0  0  0  0  0  0  0  0  0  0  0
   42.1660   34.1280   38.9120 C   0  0  0  0  0  0  0  0  0  0  0  0
   41.2710   33.0820   38.9880 C   0  0  0  0  0  3  0  0  0  0  0  0
   40.0640   33.3200   38.3350 C   0  0  0  0  0  0  0  0  0  0  0  0
   39.2930   32.5500   38.3420 H   0  0  0  0  0  0  0  0  0  0  0  0
   39.7540   34.4550   37.6770 N   0  0  0  0  0  0  0  0  0  0  0  0
   40.6560   35.4280   37.6390 C   0  0  0  0  0  3  0  0  0  0  0  0
   41.8330   35.2460   38.2530 N   0  0  0  0  0  0  0  0  0  0  0  0
   44.9910   35.9810   43.6930 C   0  0  0  0  0  0  0  0  0  0  0  0
   45.6380   34.8120   43.2450 C   0  0  0  0  0  0  0  0  0  0  0  0
   45.7470   33.8230   44.1950 C   0  0  0  0  0  0  0  0  0  0  0  0
   45.2750   33.9610   45.4410 N   0  0  0  0  0  0  0  0  0  0  0  0
   44.6580   35.1090   45.8270 C   0  0  0  0  0  0  0  0  0  0  0  0
   44.5230   36.1080   44.9450 N   0  0  0  0  0  0  0  0  0  0  0  0
   44.8780   36.7940   42.9860 H   0  0  0  0  0  0  0  0  0  0  0  0
   44.2960   35.1670   46.8450 H   0  0  0  0  0  0  0  0  0  0  0  0
   46.3860   32.6110   43.8330 C   0  0  0  0  0  0  0  0  0  0  0  0
   47.6700   32.1560   43.8520 C   0  0  0  0  0  0  0  0  0  0  0  0
   47.9720   30.9410   43.4400 C   0  0  0  0  0  0  0  0  0  0  0  0
   46.9760   30.1450   42.9940 C   0  0  0  0  0  0  0  0  0  0  0  0
   45.5120   31.2080   43.1760 S   0  0  0  0  0  0  0  0  0  0  0  0
   48.4060   32.8910   44.2370 H   0  0  0  0  0  0  0  0  0  0  0  0
   48.9630   30.5070   43.4230 H   0  0  0  0  0  0  0  0  0  0  0  0
   46.9300   29.1340   42.6070 H   0  0  0  0  0  0  0  0  0  0  0  0
  1 20  1  0  0  0  0
  2  1  2  0  0  0  0
  3  1  1  0  0  0  0
  4  3  2  0  0  0  0
  4  9  1  0  0  0  0
  5  4  1  0  0  0  0
  6  5  1  0  0  0  0
  6  7  2  0  0  0  0
  7  3  1  0  0  0  0
  8 10  1  0  0  0  0
  8  6  1  0  0  0  0
 11  8  1  0  0  0  0
 12 13  1  0  0  0  0
 12  5  1  0  0  0  0
 14 15  1  0  0  0  0
 14 13  2  0  0  0  0
 16 14  1  0  0  0  0
 17 16  2  0  0  0  0
 17 18  1  0  0  0  0
 18 12  2  0  0  0  0
 19 24  1  0  0  0  0
 20 19  2  0  0  0  0
 20 21  1  0  0  0  0
 21 22  2  0  0  0  0
 22 23  1  0  0  0  0
 23 26  1  0  0  0  0
 24 23  2  0  0  0  0
 25 19  1  0  0  0  0
 27 28  2  0  0  0  0
 27 21  1  0  0  0  0
 28 32  1  0  0  0  0
 29 28  1  0  0  0  0
 30 31  1  0  0  0  0
 30 29  2  0  0  0  0
 31 27  1  0  0  0  0
 33 29  1  0  0  0  0
 34 30  1  0  0  0  0
M  END
>  <minimizedAffinity>
-5.53665209

>  <minimizedRMSD>
0.961045265

$$$$
