
 OpenBabel03252509083D

 39 42  0  0  0  0  0  0  0  0999 V2000
   48.4540   32.1800   39.5730 C   0  0  0  0  0  0  0  0  0  0  0  0
   47.7050   33.2910   39.3160 C   0  0  0  0  0  0  0  0  0  0  0  0
   47.9570   34.0470   38.1830 C   0  0  0  0  0  0  0  0  0  0  0  0
   48.9590   33.6810   37.3150 C   0  0  0  0  0  0  0  0  0  0  0  0
   49.7470   32.5530   37.5400 C   0  0  0  0  0  0  0  0  0  0  0  0
   49.4720   31.8070   38.6940 C   0  0  0  0  0  0  0  0  0  0  0  0
   47.3910   34.9310   37.9410 H   0  0  0  0  0  0  0  0  0  0  0  0
   49.2440   34.1890   36.4090 H   0  0  0  0  0  0  0  0  0  0  0  0
   50.5360   32.2050   36.9220 H   0  0  0  0  0  0  0  0  0  0  0  0
   50.0680   30.9160   38.9060 H   0  0  0  0  0  0  0  0  0  0  0  0
   42.6770   33.3310   40.4870 Cl  0  0  0  0  0  0  0  0  0  0  0  0
   44.3440   33.7990   40.7170 C   0  0  0  0  0  0  0  0  0  0  0  0
   45.3250   33.3210   39.9110 C   0  0  0  0  0  0  0  0  0  0  0  0
   46.6150   33.7660   40.1670 C   0  0  0  0  0  0  0  0  0  0  0  0
   46.8950   34.6450   41.1850 C   0  0  0  0  0  0  0  0  0  0  0  0
   45.8990   35.1110   41.9800 C   0  0  0  0  0  0  0  0  0  0  0  0
   44.6180   34.6800   41.7370 C   0  0  0  0  0  0  0  0  0  0  0  0
   47.9190   34.9710   41.3560 H   0  0  0  0  0  0  0  0  0  0  0  0
   46.1580   35.8020   42.7710 H   0  0  0  0  0  0  0  0  0  0  0  0
   43.8480   35.0810   42.4010 H   0  0  0  0  0  0  0  0  0  0  0  0
   44.4680   30.1800   38.0040 C   0  0  0  0  0  0  0  0  0  0  0  0
   44.8010   31.0560   39.0460 C   0  0  0  0  0  0  0  0  0  0  0  0
   44.9800   32.4060   38.8420 C   0  0  0  0  0  0  0  0  0  0  0  0
   44.8070   32.8110   37.5550 N   0  0  0  0  0  0  0  0  0  0  0  0
   44.4890   31.9850   36.5580 C   0  0  0  0  0  0  0  0  0  0  0  0
   44.3220   30.6820   36.7860 N   0  0  0  0  0  0  0  0  0  0  0  0
   44.3580   29.1510   38.2990 H   0  0  0  0  0  0  0  0  0  0  0  0
   44.9310   30.6930   40.0550 H   0  0  0  0  0  0  0  0  0  0  0  0
   44.3670   32.3810   35.5600 H   0  0  0  0  0  0  0  0  0  0  0  0
   48.1490   31.2150   40.9160 S   0  0  0  0  0  0  0  0  0  0  0  0
   47.3310   29.9930   40.5490 O   0  0  0  0  0  0  0  0  0  0  0  0
   49.5480   30.5970   41.2700 O   0  0  0  0  0  0  0  0  0  0  0  0
   47.4820   31.7420   42.4040 C   0  0  0  0  0  0  0  0  0  0  0  0
   46.1620   31.3170   42.7270 C   0  0  0  0  0  3  0  0  0  0  0  0
   45.3660   31.5770   43.8500 C   0  0  0  0  0  0  0  0  0  0  0  0
   44.3760   31.1710   43.9340 H   0  0  0  0  0  0  0  0  0  0  0  0
   46.0050   32.3600   44.7330 N   0  0  0  0  0  0  0  0  0  0  0  0
   47.2470   32.8130   44.5230 C   0  0  0  0  0  3  0  0  0  0  0  0
   47.9130   32.5050   43.4200 N   0  0  0  0  0  0  0  0  0  0  0  0
  1 30  1  0  0  0  0
  2  1  1  0  0  0  0
  2 14  1  0  0  0  0
  3  2  2  0  0  0  0
  4  5  2  0  0  0  0
  4  3  1  0  0  0  0
  5  6  1  0  0  0  0
  6 10  1  0  0  0  0
  6  1  2  0  0  0  0
  7  3  1  0  0  0  0
  8  4  1  0  0  0  0
  9  5  1  0  0  0  0
 11 12  1  0  0  0  0
 12 17  1  0  0  0  0
 13 14  1  0  0  0  0
 13 12  2  0  0  0  0
 14 15  2  0  0  0  0
 15 18  1  0  0  0  0
 15 16  1  0  0  0  0
 16 19  1  0  0  0  0
 17 16  2  0  0  0  0
 17 20  1  0  0  0  0
 21 27  1  0  0  0  0
 21 22  1  0  0  0  0
 22 28  1  0  0  0  0
 23 22  2  0  0  0  0
 23 13  1  0  0  0  0
 24 23  1  0  0  0  0
 25 26  1  0  0  0  0
 25 24  2  0  0  0  0
 26 21  2  0  0  0  0
 29 25  1  0  0  0  0
 30 32  2  0  0  0  0
 30 33  1  0  0  0  0
 31 30  2  0  0  0  0
 33 34  2  0  0  0  0
 33 39  1  0  0  0  0
 34 35  1  0  0  0  0
 35 36  1  0  0  0  0
 35 37  2  0  0  0  0
 38 37  1  0  0  0  0
 39 38  2  0  0  0  0
M  END
>  <minimizedAffinity>
-4.31760645

>  <minimizedRMSD>
3.86211562

$$$$
