
 OpenBabel03242519243D

 38 41  0  0  0  0  0  0  0  0999 V2000
   47.9240   33.7840   42.8890 C   0  0  0  0  0  0  0  0  0  0  0  0
   48.5820   34.9970   42.6600 C   0  0  0  0  0  0  0  0  0  0  0  0
   49.9540   34.9990   42.3400 C   0  0  0  0  0  0  0  0  0  0  0  0
   50.5620   33.7720   42.2770 N   0  0  0  0  0  0  0  0  0  0  0  0
   49.8790   32.6070   42.5090 C   0  0  0  0  0  0  0  0  0  0  0  0
   48.5880   32.6320   42.8070 N   0  0  0  0  0  0  0  0  0  0  0  0
   48.1890   36.0030   42.6880 H   0  0  0  0  0  0  0  0  0  0  0  0
   50.5250   35.8960   42.1520 H   0  0  0  0  0  0  0  0  0  0  0  0
   46.4890   33.9060   43.2200 C   0  0  0  0  0  0  0  0  0  0  0  0
   45.7760   34.9030   42.4230 C   0  0  0  0  0  0  0  0  0  0  0  0
   45.3220   36.0920   43.1870 C   0  0  0  0  0  0  0  0  0  0  0  0
   44.5320   35.7420   44.4420 C   0  0  0  0  0  0  0  0  0  0  0  0
   44.9810   34.4850   45.1220 C   0  0  0  0  0  0  0  0  0  0  0  0
   46.4190   34.1620   44.7370 C   0  0  0  0  0  0  0  0  0  0  0  0
   46.0460   32.8810   43.1130 H   0  0  0  0  0  0  0  0  0  0  0  0
   44.8550   34.4340   41.9770 H   0  0  0  0  0  0  0  0  0  0  0  0
   46.4020   35.2410   41.5980 H   0  0  0  0  0  0  0  0  0  0  0  0
   44.5630   36.6150   42.5320 H   0  0  0  0  0  0  0  0  0  0  0  0
   46.0630   36.8560   43.4150 H   0  0  0  0  0  0  0  0  0  0  0  0
   43.4350   35.7000   44.2560 H   0  0  0  0  0  0  0  0  0  0  0  0
   44.6660   36.5680   45.1880 H   0  0  0  0  0  0  0  0  0  0  0  0
   44.9290   34.5140   46.2100 H   0  0  0  0  0  0  0  0  0  0  0  0
   44.3780   33.6430   44.6740 H   0  0  0  0  0  0  0  0  0  0  0  0
   47.0330   35.0630   44.9960 H   0  0  0  0  0  0  0  0  0  0  0  0
   46.7440   33.2700   45.2820 H   0  0  0  0  0  0  0  0  0  0  0  0
   50.6790   31.3940   42.4080 C   0  0  0  0  0  0  0  0  0  0  0  0
   51.4550   31.2490   41.3120 N   0  0  0  0  0  0  0  0  0  0  0  0
   52.1230   30.0840   41.3830 C   0  0  0  0  0  0  0  0  0  0  0  0
   51.7490   29.5010   42.5470 N   0  0  0  0  0  0  0  0  0  0  0  0
   50.8650   30.2970   43.1790 N   0  0  0  0  0  0  0  0  0  0  0  0
   52.8360   29.6490   40.6720 H   0  0  0  0  0  0  0  0  0  0  0  0
   52.1710   28.2540   43.0900 C   0  0  0  0  0  0  0  0  0  0  0  0
   53.4720   27.8230   42.9250 C   0  0  0  0  0  3  0  0  0  0  0  0
   53.9900   26.6410   43.4030 C   0  0  0  0  0  0  0  0  0  0  0  0
   55.0470   26.4380   43.1890 H   0  0  0  0  0  0  0  0  0  0  0  0
   53.1500   25.8460   44.0870 N   0  0  0  0  0  0  0  0  0  0  0  0
   51.8660   26.2420   44.2650 C   0  0  0  0  0  3  0  0  0  0  0  0
   51.3800   27.4130   43.7830 N   0  0  0  0  0  0  0  0  0  0  0  0
  1  9  1  0  0  0  0
  2  7  1  0  0  0  0
  2  1  2  0  0  0  0
  3  2  1  0  0  0  0
  4  3  2  0  0  0  0
  4  5  1  0  0  0  0
  5  6  2  0  0  0  0
  6  1  1  0  0  0  0
  8  3  1  0  0  0  0
  9 14  1  0  0  0  0
 10 11  1  0  0  0  0
 10  9  1  0  0  0  0
 11 19  1  0  0  0  0
 11 12  1  0  0  0  0
 12 13  1  0  0  0  0
 12 21  1  0  0  0  0
 13 22  1  0  0  0  0
 14 24  1  0  0  0  0
 14 13  1  0  0  0  0
 14 25  1  0  0  0  0
 15  9  1  0  0  0  0
 16 10  1  0  0  0  0
 17 10  1  0  0  0  0
 18 11  1  0  0  0  0
 20 12  1  0  0  0  0
 23 13  1  0  0  0  0
 26  5  1  0  0  0  0
 26 30  2  0  0  0  0
 27 28  2  0  0  0  0
 27 26  1  0  0  0  0
 28 29  1  0  0  0  0
 29 32  1  0  0  0  0
 29 30  1  0  0  0  0
 31 28  1  0  0  0  0
 32 38  1  0  0  0  0
 33 32  2  0  0  0  0
 33 34  1  0  0  0  0
 34 36  2  0  0  0  0
 35 34  1  0  0  0  0
 36 37  1  0  0  0  0
 38 37  2  0  0  0  0
M  END
>  <minimizedAffinity>
-4.20008755

>  <minimizedRMSD>
0.674112499

$$$$
