
 OpenBabel03242515483D

 41 44  0  0  1  0  0  0  0  0999 V2000
   40.4520   33.6740   41.3020 C   0  0  0  0  0  0  0  0  0  0  0  0
   41.7920   33.2990   41.3860 C   0  0  0  0  0  0  0  0  0  0  0  0
   42.1490   31.9940   41.6540 C   0  0  0  0  0  0  0  0  0  0  0  0
   41.1970   31.0350   41.8440 C   0  0  0  0  0  0  0  0  0  0  0  0
   39.8640   31.3890   41.7640 C   0  0  0  0  0  0  0  0  0  0  0  0
   39.4790   32.6720   41.5010 C   0  0  0  0  0  0  0  0  0  0  0  0
   39.1150   30.2210   41.9970 O   0  0  0  0  0  0  0  0  0  0  0  0
   39.9780   29.2440   42.4560 C   0  0  1  0  0  0  0  0  0  0  0  0
   41.2810   29.6590   42.1260 O   0  0  0  0  0  0  0  0  0  0  0  0
   40.0800   34.6570   41.1040 H   0  0  0  0  0  0  0  0  0  0  0  0
   43.2010   31.8050   41.7030 H   0  0  0  0  0  0  0  0  0  0  0  0
   38.4250   32.9060   41.4480 H   0  0  0  0  0  0  0  0  0  0  0  0
   39.7590   28.2840   41.9050 H   0  0  0  0  0  0  0  0  0  0  0  0
   39.7830   29.0300   43.8580 N   0  0  0  0  0  0  0  0  0  0  0  0
   39.0050   29.4520   44.4330 H   0  0  0  0  0  0  0  0  0  0  0  0
   40.8210   28.1550   44.3060 C   0  0  0  0  0  0  0  0  0  0  0  0
   41.8170   28.5310   45.1790 C   0  0  0  0  0  0  0  0  0  0  0  0
   42.8430   27.7510   45.6370 C   0  0  0  0  0  0  0  0  0  0  0  0
   43.5850   28.1260   46.3250 H   0  0  0  0  0  0  0  0  0  0  0  0
   42.8190   26.5170   45.1550 N   0  0  0  0  0  0  0  0  0  0  0  0
   41.9060   26.0400   44.3070 C   0  0  0  0  0  0  0  0  0  0  0  0
   40.9040   26.8570   43.8800 N   0  0  0  0  0  0  0  0  0  0  0  0
   42.9130   34.6700   41.1060 S   0  0  0  0  0  0  0  0  0  0  0  0
   44.4820   34.0390   40.4320 C   0  0  0  0  0  0  0  0  0  0  0  0
   44.4000   33.4450   39.2240 C   0  0  0  0  0  0  0  0  0  0  0  0
   45.6200   32.9570   38.7440 C   0  0  0  0  0  0  0  0  0  0  0  0
   46.7680   33.0750   39.4280 N   0  0  0  0  0  0  0  0  0  0  0  0
   46.7870   33.6820   40.6330 C   0  0  0  0  0  0  0  0  0  0  0  0
   45.6310   34.1450   41.0920 N   0  0  0  0  0  0  0  0  0  0  0  0
   45.6540   32.2830   37.4550 N   0  0  0  0  0  0  0  0  0  0  0  0
   46.2720   32.8320   36.8440 H   0  0  0  0  0  0  0  0  0  0  0  0
   45.0300   31.4210   37.5330 H   0  0  0  0  0  0  0  0  0  0  0  0
   43.3130   33.1860   38.2380 C   0  0  0  0  0  0  0  0  0  0  0  0
   42.5360   33.9520   38.4640 H   0  0  0  0  0  0  0  0  0  0  0  0
   42.8220   32.2080   38.4000 H   0  0  0  0  0  0  0  0  0  0  0  0
   43.6320   33.3580   37.2100 H   0  0  0  0  0  0  0  0  0  0  0  0
   47.9130   33.8480   41.4080 O   0  0  0  0  0  0  0  0  0  0  0  0
   48.5530   35.1200   41.3460 C   0  0  0  0  0  0  0  0  0  0  0  0
   49.8060   35.0710   41.8640 F   0  0  0  0  0  0  0  0  0  0  0  0
   48.5490   35.5010   39.9950 F   0  0  0  0  0  0  0  0  0  0  0  0
   47.8110   36.0170   42.1030 F   0  0  0  0  0  0  0  0  0  0  0  0
  1  2  2  0  0  0  0
  1  6  1  0  0  0  0
  2  3  1  0  0  0  0
  3 11  1  0  0  0  0
  3  4  2  0  0  0  0
  4  9  1  0  0  0  0
  5  4  1  0  0  0  0
  5  7  1  0  0  0  0
  6  5  2  0  0  0  0
  7  8  1  0  0  0  0
  8 13  1  6  0  0  0
  8 14  1  0  0  0  0
  9  8  1  0  0  0  0
 10  1  1  0  0  0  0
 12  6  1  0  0  0  0
 14 16  1  0  0  0  0
 14 15  1  0  0  0  0
 16 17  1  0  0  0  0
 17 18  2  0  0  0  0
 18 19  1  0  0  0  0
 20 18  1  0  0  0  0
 21 20  2  0  0  0  0
 22 16  2  0  0  0  0
 22 21  1  0  0  0  0
 23  2  1  0  0  0  0
 24 29  1  0  0  0  0
 24 23  1  0  0  0  0
 25 24  2  0  0  0  0
 26 25  1  0  0  0  0
 26 27  2  0  0  0  0
 27 28  1  0  0  0  0
 28 29  2  0  0  0  0
 28 37  1  0  0  0  0
 30 32  1  0  0  0  0
 30 26  1  0  0  0  0
 31 30  1  0  0  0  0
 33 35  1  0  0  0  0
 33 34  1  0  0  0  0
 33 25  1  0  0  0  0
 36 33  1  0  0  0  0
 38 37  1  0  0  0  0
 38 39  1  0  0  0  0
 38 41  1  0  0  0  0
 40 38  1  0  0  0  0
M  END
>  <minimizedAffinity>
-5.69353962

>  <minimizedRMSD>
2.50949502

$$$$
