
 OpenBabel03242519243D

 38 41  0  0  0  0  0  0  0  0999 V2000
   47.8890   33.7280   42.8780 C   0  0  0  0  0  0  0  0  0  0  0  0
   48.5860   34.9290   42.7130 C   0  0  0  0  0  0  0  0  0  0  0  0
   49.9570   34.9030   42.3870 C   0  0  0  0  0  0  0  0  0  0  0  0
   50.5240   33.6620   42.2530 N   0  0  0  0  0  0  0  0  0  0  0  0
   49.8030   32.5090   42.4240 C   0  0  0  0  0  0  0  0  0  0  0  0
   48.5140   32.5600   42.7290 N   0  0  0  0  0  0  0  0  0  0  0  0
   48.2270   35.9450   42.7990 H   0  0  0  0  0  0  0  0  0  0  0  0
   50.5570   35.7900   42.2450 H   0  0  0  0  0  0  0  0  0  0  0  0
   46.4600   33.8780   43.2230 C   0  0  0  0  0  0  0  0  0  0  0  0
   45.7570   34.8810   42.4250 C   0  0  0  0  0  0  0  0  0  0  0  0
   45.3330   36.0850   43.1830 C   0  0  0  0  0  0  0  0  0  0  0  0
   44.5500   35.7590   44.4490 C   0  0  0  0  0  0  0  0  0  0  0  0
   44.9830   34.4990   45.1350 C   0  0  0  0  0  0  0  0  0  0  0  0
   46.4100   34.1470   44.7370 C   0  0  0  0  0  0  0  0  0  0  0  0
   45.9980   32.8600   43.1280 H   0  0  0  0  0  0  0  0  0  0  0  0
   44.8230   34.4260   41.9910 H   0  0  0  0  0  0  0  0  0  0  0  0
   46.3810   35.2020   41.5900 H   0  0  0  0  0  0  0  0  0  0  0  0
   44.5770   36.6160   42.5320 H   0  0  0  0  0  0  0  0  0  0  0  0
   46.0900   36.8360   43.3980 H   0  0  0  0  0  0  0  0  0  0  0  0
   43.4500   35.7350   44.2740 H   0  0  0  0  0  0  0  0  0  0  0  0
   44.7060   36.5880   45.1870 H   0  0  0  0  0  0  0  0  0  0  0  0
   44.9420   34.5380   46.2230 H   0  0  0  0  0  0  0  0  0  0  0  0
   44.3600   33.6650   44.6990 H   0  0  0  0  0  0  0  0  0  0  0  0
   47.0430   35.0390   44.9830 H   0  0  0  0  0  0  0  0  0  0  0  0
   46.7250   33.2530   45.2870 H   0  0  0  0  0  0  0  0  0  0  0  0
   50.5620   31.2780   42.2530 C   0  0  0  0  0  0  0  0  0  0  0  0
   51.5710   31.2890   41.3550 N   0  0  0  0  0  0  0  0  0  0  0  0
   52.1630   30.0820   41.3270 C   0  0  0  0  0  0  0  0  0  0  0  0
   51.5030   29.3130   42.2260 N   0  0  0  0  0  0  0  0  0  0  0  0
   50.5220   30.0380   42.7960 N   0  0  0  0  0  0  0  0  0  0  0  0
   53.0100   29.7370   40.7200 H   0  0  0  0  0  0  0  0  0  0  0  0
   51.7410   27.9530   42.5740 C   0  0  0  0  0  0  0  0  0  0  0  0
   52.9840   27.3860   42.3730 C   0  0  0  0  0  3  0  0  0  0  0  0
   53.3270   26.0870   42.6710 C   0  0  0  0  0  0  0  0  0  0  0  0
   54.3600   25.7820   42.4530 H   0  0  0  0  0  0  0  0  0  0  0  0
   52.3650   25.3130   43.2000 N   0  0  0  0  0  0  0  0  0  0  0  0
   51.1360   25.8410   43.4080 C   0  0  0  0  0  3  0  0  0  0  0  0
   50.8220   27.1270   43.1070 N   0  0  0  0  0  0  0  0  0  0  0  0
  1  9  1  0  0  0  0
  2  7  1  0  0  0  0
  2  1  2  0  0  0  0
  3  2  1  0  0  0  0
  4  3  2  0  0  0  0
  4  5  1  0  0  0  0
  5  6  2  0  0  0  0
  6  1  1  0  0  0  0
  8  3  1  0  0  0  0
  9 14  1  0  0  0  0
 10 11  1  0  0  0  0
 10  9  1  0  0  0  0
 11 19  1  0  0  0  0
 11 12  1  0  0  0  0
 12 13  1  0  0  0  0
 12 21  1  0  0  0  0
 13 22  1  0  0  0  0
 14 24  1  0  0  0  0
 14 13  1  0  0  0  0
 14 25  1  0  0  0  0
 15  9  1  0  0  0  0
 16 10  1  0  0  0  0
 17 10  1  0  0  0  0
 18 11  1  0  0  0  0
 20 12  1  0  0  0  0
 23 13  1  0  0  0  0
 26  5  1  0  0  0  0
 26 30  2  0  0  0  0
 27 26  1  0  0  0  0
 28 27  2  0  0  0  0
 28 29  1  0  0  0  0
 29 32  1  0  0  0  0
 29 30  1  0  0  0  0
 31 28  1  0  0  0  0
 32 38  1  0  0  0  0
 33 32  2  0  0  0  0
 33 34  1  0  0  0  0
 34 36  2  0  0  0  0
 35 34  1  0  0  0  0
 36 37  1  0  0  0  0
 38 37  2  0  0  0  0
M  END
>  <minimizedAffinity>
-4.16029596

>  <minimizedRMSD>
0.140355349

$$$$
