
 OpenBabel03242519263D

 38 41  0  0  0  0  0  0  0  0999 V2000
   37.1490   28.4070   41.7200 C   0  0  0  0  0  0  0  0  0  0  0  0
   35.8440   28.4980   41.2250 C   0  0  0  0  0  0  0  0  0  0  0  0
   35.4710   29.6030   40.4350 C   0  0  0  0  0  0  0  0  0  0  0  0
   36.4470   30.5380   40.2040 N   0  0  0  0  0  0  0  0  0  0  0  0
   37.7140   30.4100   40.7090 C   0  0  0  0  0  0  0  0  0  0  0  0
   38.0400   29.3600   41.4490 N   0  0  0  0  0  0  0  0  0  0  0  0
   35.0150   27.8170   41.3540 H   0  0  0  0  0  0  0  0  0  0  0  0
   34.4830   29.7400   40.0210 H   0  0  0  0  0  0  0  0  0  0  0  0
   37.4220   27.2070   42.5390 C   0  0  0  0  0  0  0  0  0  0  0  0
   38.2370   27.4680   43.7240 C   0  0  0  0  0  0  0  0  0  0  0  0
   39.5970   26.8730   43.6790 C   0  0  0  0  0  0  0  0  0  0  0  0
   39.5980   25.3870   43.3420 C   0  0  0  0  0  0  0  0  0  0  0  0
   38.5170   24.9700   42.3920 C   0  0  0  0  0  0  0  0  0  0  0  0
   38.0350   26.1670   41.5840 C   0  0  0  0  0  0  0  0  0  0  0  0
   36.4260   26.7620   42.7980 H   0  0  0  0  0  0  0  0  0  0  0  0
   37.7260   27.0380   44.6310 H   0  0  0  0  0  0  0  0  0  0  0  0
   38.3360   28.5410   43.8840 H   0  0  0  0  0  0  0  0  0  0  0  0
   39.9890   26.9060   44.7390 H   0  0  0  0  0  0  0  0  0  0  0  0
   40.3520   27.3890   43.0900 H   0  0  0  0  0  0  0  0  0  0  0  0
   39.5710   24.7440   44.2510 H   0  0  0  0  0  0  0  0  0  0  0  0
   40.5700   25.1370   42.8410 H   0  0  0  0  0  0  0  0  0  0  0  0
   38.8060   24.1900   41.6880 H   0  0  0  0  0  0  0  0  0  0  0  0
   37.6260   24.6860   43.0240 H   0  0  0  0  0  0  0  0  0  0  0  0
   38.9370   26.6020   41.0810 H   0  0  0  0  0  0  0  0  0  0  0  0
   37.2820   25.8330   40.8620 H   0  0  0  0  0  0  0  0  0  0  0  0
   38.6230   31.4970   40.3750 C   0  0  0  0  0  0  0  0  0  0  0  0
   38.1640   32.7590   40.5190 N   0  0  0  0  0  0  0  0  0  0  0  0
   39.1260   33.6320   40.1720 C   0  0  0  0  0  0  0  0  0  0  0  0
   40.1990   32.8910   39.8070 N   0  0  0  0  0  0  0  0  0  0  0  0
   39.8980   31.5840   39.9280 N   0  0  0  0  0  0  0  0  0  0  0  0
   39.1000   34.7290   40.1680 H   0  0  0  0  0  0  0  0  0  0  0  0
   41.4740   33.3370   39.3560 C   0  0  0  0  0  0  0  0  0  0  0  0
   41.6540   33.7340   38.0460 C   0  0  0  0  0  3  0  0  0  0  0  0
   42.8350   34.1820   37.5020 C   0  0  0  0  0  0  0  0  0  0  0  0
   42.8210   34.4630   36.4400 H   0  0  0  0  0  0  0  0  0  0  0  0
   43.8990   34.2340   38.3220 N   0  0  0  0  0  0  0  0  0  0  0  0
   43.7530   33.8510   39.6130 C   0  0  0  0  0  3  0  0  0  0  0  0
   42.5760   33.4120   40.1270 N   0  0  0  0  0  0  0  0  0  0  0  0
  1  9  1  0  0  0  0
  2  7  1  0  0  0  0
  2  1  2  0  0  0  0
  3  2  1  0  0  0  0
  4  3  2  0  0  0  0
  4  5  1  0  0  0  0
  5  6  2  0  0  0  0
  6  1  1  0  0  0  0
  8  3  1  0  0  0  0
  9 15  1  0  0  0  0
  9 10  1  0  0  0  0
 10 17  1  0  0  0  0
 10 16  1  0  0  0  0
 11 10  1  0  0  0  0
 11 18  1  0  0  0  0
 12 11  1  0  0  0  0
 12 20  1  0  0  0  0
 13 23  1  0  0  0  0
 13 12  1  0  0  0  0
 14 13  1  0  0  0  0
 14  9  1  0  0  0  0
 19 11  1  0  0  0  0
 21 12  1  0  0  0  0
 22 13  1  0  0  0  0
 24 14  1  0  0  0  0
 25 14  1  0  0  0  0
 26 27  1  0  0  0  0
 26  5  1  0  0  0  0
 28 27  2  0  0  0  0
 29 30  1  0  0  0  0
 29 28  1  0  0  0  0
 30 26  2  0  0  0  0
 31 28  1  0  0  0  0
 32 29  1  0  0  0  0
 32 38  1  0  0  0  0
 33 32  2  0  0  0  0
 34 33  1  0  0  0  0
 34 36  2  0  0  0  0
 35 34  1  0  0  0  0
 36 37  1  0  0  0  0
 37 38  2  0  0  0  0
M  END
>  <minimizedAffinity>
-5.99431849

$$$$

 OpenBabel03242519263D

 38 41  0  0  0  0  0  0  0  0999 V2000
   37.2560   26.7030   42.1670 C   0  0  0  0  0  0  0  0  0  0  0  0
   37.0650   27.1440   43.4800 C   0  0  0  0  0  0  0  0  0  0  0  0
   37.3210   28.4900   43.8110 C   0  0  0  0  0  0  0  0  0  0  0  0
   37.7530   29.2920   42.7860 N   0  0  0  0  0  0  0  0  0  0  0  0
   37.9270   28.8190   41.5120 C   0  0  0  0  0  0  0  0  0  0  0  0
   37.6780   27.5480   41.2270 N   0  0  0  0  0  0  0  0  0  0  0  0
   36.7310   26.5900   44.3460 H   0  0  0  0  0  0  0  0  0  0  0  0
   37.1960   28.8990   44.8020 H   0  0  0  0  0  0  0  0  0  0  0  0
   36.9610   25.2730   41.9410 C   0  0  0  0  0  0  0  0  0  0  0  0
   38.0250   24.3690   42.3730 C   0  0  0  0  0  0  0  0  0  0  0  0
   38.7230   23.6660   41.2660 C   0  0  0  0  0  0  0  0  0  0  0  0
   37.7750   22.9610   40.3030 C   0  0  0  0  0  0  0  0  0  0  0  0
   36.4680   23.6640   40.0990 C   0  0  0  0  0  0  0  0  0  0  0  0
   36.6030   25.1390   40.4500 C   0  0  0  0  0  0  0  0  0  0  0  0
   35.9880   25.0600   42.4580 H   0  0  0  0  0  0  0  0  0  0  0  0
   37.5910   23.5720   43.0390 H   0  0  0  0  0  0  0  0  0  0  0  0
   38.7670   24.9130   42.9570 H   0  0  0  0  0  0  0  0  0  0  0  0
   39.2960   22.8180   41.7450 H   0  0  0  0  0  0  0  0  0  0  0  0
   39.4710   24.2250   40.7080 H   0  0  0  0  0  0  0  0  0  0  0  0
   37.5930   21.8990   40.5870 H   0  0  0  0  0  0  0  0  0  0  0  0
   38.2650   22.9100   39.2960 H   0  0  0  0  0  0  0  0  0  0  0  0
   36.0710   23.5990   39.0860 H   0  0  0  0  0  0  0  0  0  0  0  0
   35.7590   23.2570   40.8780 H   0  0  0  0  0  0  0  0  0  0  0  0
   37.4390   25.5450   39.8240 H   0  0  0  0  0  0  0  0  0  0  0  0
   35.6520   25.6440   40.2470 H   0  0  0  0  0  0  0  0  0  0  0  0
   38.3990   29.8030   40.5490 C   0  0  0  0  0  0  0  0  0  0  0  0
   37.7960   29.8300   39.3400 N   0  0  0  0  0  0  0  0  0  0  0  0
   38.3480   30.7930   38.5810 C   0  0  0  0  0  0  0  0  0  0  0  0
   39.3110   31.3690   39.3400 N   0  0  0  0  0  0  0  0  0  0  0  0
   39.3480   30.7680   40.5440 N   0  0  0  0  0  0  0  0  0  0  0  0
   38.1060   31.0920   37.5540 H   0  0  0  0  0  0  0  0  0  0  0  0
   40.1870   32.4390   38.9990 C   0  0  0  0  0  0  0  0  0  0  0  0
   40.9600   32.3740   37.8570 C   0  0  0  0  0  3  0  0  0  0  0  0
   41.8370   33.3440   37.4300 C   0  0  0  0  0  0  0  0  0  0  0  0
   42.3830   33.1470   36.4970 H   0  0  0  0  0  0  0  0  0  0  0  0
   41.9440   34.4440   38.1950 N   0  0  0  0  0  0  0  0  0  0  0  0
   41.1990   34.5360   39.3220 C   0  0  0  0  0  3  0  0  0  0  0  0
   40.3400   33.5650   39.7230 N   0  0  0  0  0  0  0  0  0  0  0  0
  1  2  1  0  0  0  0
  2  3  2  0  0  0  0
  2  7  1  0  0  0  0
  3  8  1  0  0  0  0
  4  3  1  0  0  0  0
  5  4  2  0  0  0  0
  6  5  1  0  0  0  0
  6  1  2  0  0  0  0
  9  1  1  0  0  0  0
  9 10  1  0  0  0  0
  9 15  1  0  0  0  0
 10 17  1  0  0  0  0
 10 16  1  0  0  0  0
 11 18  1  0  0  0  0
 11 10  1  0  0  0  0
 12 20  1  0  0  0  0
 12 11  1  0  0  0  0
 13 12  1  0  0  0  0
 13 14  1  0  0  0  0
 13 23  1  0  0  0  0
 14  9  1  0  0  0  0
 19 11  1  0  0  0  0
 21 12  1  0  0  0  0
 22 13  1  0  0  0  0
 24 14  1  0  0  0  0
 25 14  1  0  0  0  0
 26  5  1  0  0  0  0
 27 26  1  0  0  0  0
 28 29  1  0  0  0  0
 28 27  2  0  0  0  0
 29 30  1  0  0  0  0
 30 26  2  0  0  0  0
 31 28  1  0  0  0  0
 32 29  1  0  0  0  0
 32 38  1  0  0  0  0
 33 32  2  0  0  0  0
 34 33  1  0  0  0  0
 34 36  2  0  0  0  0
 35 34  1  0  0  0  0
 36 37  1  0  0  0  0
 37 38  2  0  0  0  0
M  END
>  <minimizedAffinity>
-5.81822538

$$$$

 OpenBabel03242519263D

 38 41  0  0  0  0  0  0  0  0999 V2000
   32.7400   29.2490   36.9280 C   0  0  0  0  0  0  0  0  0  0  0  0
   33.4340   29.2760   35.7150 C   0  0  0  0  0  0  0  0  0  0  0  0
   34.8060   28.9530   35.6850 C   0  0  0  0  0  0  0  0  0  0  0  0
   35.3760   28.6270   36.8890 N   0  0  0  0  0  0  0  0  0  0  0  0
   34.6590   28.6130   38.0560 C   0  0  0  0  0  0  0  0  0  0  0  0
   33.3690   28.9190   38.0570 N   0  0  0  0  0  0  0  0  0  0  0  0
   33.0730   29.5190   34.7260 H   0  0  0  0  0  0  0  0  0  0  0  0
   35.4040   28.9540   34.7860 H   0  0  0  0  0  0  0  0  0  0  0  0
   31.3100   29.6090   36.8370 C   0  0  0  0  0  0  0  0  0  0  0  0
   31.0090   30.5960   35.8010 C   0  0  0  0  0  0  0  0  0  0  0  0
   30.5760   31.9180   36.3190 C   0  0  0  0  0  0  0  0  0  0  0  0
   29.4360   31.8310   37.3260 C   0  0  0  0  0  0  0  0  0  0  0  0
   29.4740   30.6110   38.1960 C   0  0  0  0  0  0  0  0  0  0  0  0
   30.8870   30.0470   38.2500 C   0  0  0  0  0  0  0  0  0  0  0  0
   30.7470   28.6500   36.6860 H   0  0  0  0  0  0  0  0  0  0  0  0
   30.1740   30.2130   35.1520 H   0  0  0  0  0  0  0  0  0  0  0  0
   31.8780   30.7450   35.1600 H   0  0  0  0  0  0  0  0  0  0  0  0
   30.1150   32.4630   35.4420 H   0  0  0  0  0  0  0  0  0  0  0  0
   31.3470   32.5910   36.6880 H   0  0  0  0  0  0  0  0  0  0  0  0
   28.4350   31.9220   36.8460 H   0  0  0  0  0  0  0  0  0  0  0  0
   29.5040   32.7110   38.0180 H   0  0  0  0  0  0  0  0  0  0  0  0
   29.1420   30.7730   39.2210 H   0  0  0  0  0  0  0  0  0  0  0  0
   28.8780   29.8160   37.6600 H   0  0  0  0  0  0  0  0  0  0  0  0
   31.5530   30.8760   38.6030 H   0  0  0  0  0  0  0  0  0  0  0  0
   30.9030   29.1870   38.9290 H   0  0  0  0  0  0  0  0  0  0  0  0
   35.4210   28.2530   39.2430 C   0  0  0  0  0  0  0  0  0  0  0  0
   35.4050   29.1180   40.2790 N   0  0  0  0  0  0  0  0  0  0  0  0
   36.1530   28.6310   41.2860 C   0  0  0  0  0  0  0  0  0  0  0  0
   36.6380   27.4410   40.8580 N   0  0  0  0  0  0  0  0  0  0  0  0
   36.1950   27.2030   39.6090 N   0  0  0  0  0  0  0  0  0  0  0  0
   36.3590   29.0670   42.2720 H   0  0  0  0  0  0  0  0  0  0  0  0
   37.4840   26.5280   41.5490 C   0  0  0  0  0  0  0  0  0  0  0  0
   37.2190   25.1730   41.5260 C   0  0  0  0  0  3  0  0  0  0  0  0
   37.9640   24.2020   42.1540 C   0  0  0  0  0  0  0  0  0  0  0  0
   37.6250   23.1630   42.0430 H   0  0  0  0  0  0  0  0  0  0  0  0
   39.0380   24.6170   42.8480 N   0  0  0  0  0  0  0  0  0  0  0  0
   39.3230   25.9400   42.8900 C   0  0  0  0  0  3  0  0  0  0  0  0
   38.5720   26.8800   42.2610 N   0  0  0  0  0  0  0  0  0  0  0  0
  1  6  1  0  0  0  0
  2  1  2  0  0  0  0
  3  2  1  0  0  0  0
  3  4  2  0  0  0  0
  4  5  1  0  0  0  0
  5  6  2  0  0  0  0
  5 26  1  0  0  0  0
  7  2  1  0  0  0  0
  8  3  1  0  0  0  0
  9  1  1  0  0  0  0
  9 14  1  0  0  0  0
 10 11  1  0  0  0  0
 10  9  1  0  0  0  0
 11 19  1  0  0  0  0
 11 12  1  0  0  0  0
 12 21  1  0  0  0  0
 12 13  1  0  0  0  0
 13 14  1  0  0  0  0
 13 22  1  0  0  0  0
 14 24  1  0  0  0  0
 14 25  1  0  0  0  0
 15  9  1  0  0  0  0
 16 10  1  0  0  0  0
 17 10  1  0  0  0  0
 18 11  1  0  0  0  0
 20 12  1  0  0  0  0
 23 13  1  0  0  0  0
 26 30  2  0  0  0  0
 26 27  1  0  0  0  0
 27 28  2  0  0  0  0
 28 31  1  0  0  0  0
 29 28  1  0  0  0  0
 29 32  1  0  0  0  0
 30 29  1  0  0  0  0
 32 38  1  0  0  0  0
 33 32  2  0  0  0  0
 33 34  1  0  0  0  0
 34 36  2  0  0  0  0
 35 34  1  0  0  0  0
 36 37  1  0  0  0  0
 38 37  2  0  0  0  0
M  END
>  <minimizedAffinity>
-5.62461901

$$$$

 OpenBabel03242519263D

 38 41  0  0  0  0  0  0  0  0999 V2000
   39.7540   33.3740   40.3560 C   0  0  0  0  0  0  0  0  0  0  0  0
   38.6640   34.0670   39.8200 C   0  0  0  0  0  0  0  0  0  0  0  0
   37.3930   33.4580   39.7900 C   0  0  0  0  0  0  0  0  0  0  0  0
   37.3190   32.1900   40.3050 N   0  0  0  0  0  0  0  0  0  0  0  0
   38.4130   31.5470   40.8220 C   0  0  0  0  0  0  0  0  0  0  0  0
   39.5970   32.1420   40.8390 N   0  0  0  0  0  0  0  0  0  0  0  0
   38.6270   35.0600   39.3940 H   0  0  0  0  0  0  0  0  0  0  0  0
   36.5090   33.9320   39.3910 H   0  0  0  0  0  0  0  0  0  0  0  0
   41.0340   34.1110   40.3290 C   0  0  0  0  0  0  0  0  0  0  0  0
   41.4500   34.5360   38.9940 C   0  0  0  0  0  0  0  0  0  0  0  0
   42.6560   33.8430   38.4750 C   0  0  0  0  0  0  0  0  0  0  0  0
   43.8350   33.8740   39.4400 C   0  0  0  0  0  0  0  0  0  0  0  0
   43.4490   33.8200   40.8860 C   0  0  0  0  0  0  0  0  0  0  0  0
   42.0620   33.2110   41.0390 C   0  0  0  0  0  0  0  0  0  0  0  0
   40.9220   34.9760   41.0340 H   0  0  0  0  0  0  0  0  0  0  0  0
   41.6900   35.6360   39.0100 H   0  0  0  0  0  0  0  0  0  0  0  0
   40.6360   34.3910   38.2830 H   0  0  0  0  0  0  0  0  0  0  0  0
   43.0160   34.4570   37.5960 H   0  0  0  0  0  0  0  0  0  0  0  0
   42.5270   32.8390   38.0770 H   0  0  0  0  0  0  0  0  0  0  0  0
   44.5090   34.7420   39.2610 H   0  0  0  0  0  0  0  0  0  0  0  0
   44.4720   32.9700   39.2510 H   0  0  0  0  0  0  0  0  0  0  0  0
   44.1310   33.2520   41.5180 H   0  0  0  0  0  0  0  0  0  0  0  0
   43.3210   34.8890   41.2250 H   0  0  0  0  0  0  0  0  0  0  0  0
   42.0920   32.2080   40.5400 H   0  0  0  0  0  0  0  0  0  0  0  0
   41.8190   33.1340   42.1040 H   0  0  0  0  0  0  0  0  0  0  0  0
   38.1590   30.2020   41.3190 C   0  0  0  0  0  0  0  0  0  0  0  0
   36.8780   29.8720   41.5950 N   0  0  0  0  0  0  0  0  0  0  0  0
   36.8240   28.6030   42.0380 C   0  0  0  0  0  0  0  0  0  0  0  0
   38.0990   28.1440   42.0340 N   0  0  0  0  0  0  0  0  0  0  0  0
   38.9200   29.1170   41.5960 N   0  0  0  0  0  0  0  0  0  0  0  0
   35.9530   28.0130   42.3500 H   0  0  0  0  0  0  0  0  0  0  0  0
   38.5800   26.8590   42.4140 C   0  0  0  0  0  0  0  0  0  0  0  0
   39.7120   26.7380   43.1940 C   0  0  0  0  0  3  0  0  0  0  0  0
   40.2650   25.5530   43.6210 C   0  0  0  0  0  0  0  0  0  0  0  0
   41.1710   25.6200   44.2390 H   0  0  0  0  0  0  0  0  0  0  0  0
   39.6460   24.4230   43.2400 N   0  0  0  0  0  0  0  0  0  0  0  0
   38.5330   24.5100   42.4730 C   0  0  0  0  0  3  0  0  0  0  0  0
   38.0050   25.6920   42.0650 N   0  0  0  0  0  0  0  0  0  0  0  0
  1  6  1  0  0  0  0
  2  1  2  0  0  0  0
  3  2  1  0  0  0  0
  3  4  2  0  0  0  0
  4  5  1  0  0  0  0
  5  6  2  0  0  0  0
  5 26  1  0  0  0  0
  7  2  1  0  0  0  0
  8  3  1  0  0  0  0
  9  1  1  0  0  0  0
  9 15  1  0  0  0  0
  9 14  1  0  0  0  0
 10 16  1  0  0  0  0
 10  9  1  0  0  0  0
 11 10  1  0  0  0  0
 11 12  1  0  0  0  0
 12 13  1  0  0  0  0
 13 14  1  0  0  0  0
 13 23  1  0  0  0  0
 13 22  1  0  0  0  0
 14 25  1  0  0  0  0
 17 10  1  0  0  0  0
 18 11  1  0  0  0  0
 19 11  1  0  0  0  0
 20 12  1  0  0  0  0
 21 12  1  0  0  0  0
 24 14  1  0  0  0  0
 26 27  1  0  0  0  0
 26 30  2  0  0  0  0
 27 28  2  0  0  0  0
 28 31  1  0  0  0  0
 29 28  1  0  0  0  0
 29 32  1  0  0  0  0
 30 29  1  0  0  0  0
 32 33  1  0  0  0  0
 33 34  2  0  0  0  0
 34 35  1  0  0  0  0
 36 34  1  0  0  0  0
 37 36  2  0  0  0  0
 38 32  2  0  0  0  0
 38 37  1  0  0  0  0
M  END
>  <minimizedAffinity>
-5.62404633

$$$$

 OpenBabel03242519263D

 38 41  0  0  0  0  0  0  0  0999 V2000
   38.2470   25.0360   41.9110 C   0  0  0  0  0  0  0  0  0  0  0  0
   39.2250   24.7410   42.8660 C   0  0  0  0  0  0  0  0  0  0  0  0
   39.9650   25.7850   43.4550 C   0  0  0  0  0  0  0  0  0  0  0  0
   39.6620   27.0540   43.0330 N   0  0  0  0  0  0  0  0  0  0  0  0
   38.6950   27.2990   42.0940 C   0  0  0  0  0  0  0  0  0  0  0  0
   38.0120   26.2990   41.5560 N   0  0  0  0  0  0  0  0  0  0  0  0
   39.5310   23.7800   43.2570 H   0  0  0  0  0  0  0  0  0  0  0  0
   40.7350   25.6310   44.1970 H   0  0  0  0  0  0  0  0  0  0  0  0
   37.5390   23.8620   41.3600 C   0  0  0  0  0  0  0  0  0  0  0  0
   38.4090   22.9090   40.6730 C   0  0  0  0  0  0  0  0  0  0  0  0
   38.1990   22.8310   39.2050 C   0  0  0  0  0  0  0  0  0  0  0  0
   36.7430   22.6100   38.8120 C   0  0  0  0  0  0  0  0  0  0  0  0
   35.7520   23.2680   39.7230 C   0  0  0  0  0  0  0  0  0  0  0  0
   36.4100   24.4180   40.4740 C   0  0  0  0  0  0  0  0  0  0  0  0
   36.9850   23.3900   42.2150 H   0  0  0  0  0  0  0  0  0  0  0  0
   38.2280   21.8760   41.0810 H   0  0  0  0  0  0  0  0  0  0  0  0
   39.4550   23.1540   40.8580 H   0  0  0  0  0  0  0  0  0  0  0  0
   38.7130   21.8840   38.8640 H   0  0  0  0  0  0  0  0  0  0  0  0
   38.6340   23.6180   38.5920 H   0  0  0  0  0  0  0  0  0  0  0  0
   36.4930   21.5310   38.6980 H   0  0  0  0  0  0  0  0  0  0  0  0
   36.5780   23.0540   37.7960 H   0  0  0  0  0  0  0  0  0  0  0  0
   34.8680   23.6620   39.2230 H   0  0  0  0  0  0  0  0  0  0  0  0
   35.5060   22.5160   40.5280 H   0  0  0  0  0  0  0  0  0  0  0  0
   36.8410   25.1050   39.7010 H   0  0  0  0  0  0  0  0  0  0  0  0
   35.6580   24.9160   41.0960 H   0  0  0  0  0  0  0  0  0  0  0  0
   38.5080   28.7020   41.7560 C   0  0  0  0  0  0  0  0  0  0  0  0
   37.2390   29.1500   41.6370 N   0  0  0  0  0  0  0  0  0  0  0  0
   37.2480   30.4580   41.3260 C   0  0  0  0  0  0  0  0  0  0  0  0
   38.5510   30.8220   41.2530 N   0  0  0  0  0  0  0  0  0  0  0  0
   39.3270   29.7530   41.5140 N   0  0  0  0  0  0  0  0  0  0  0  0
   36.4040   31.1380   41.1570 H   0  0  0  0  0  0  0  0  0  0  0  0
   39.0990   32.1020   40.9540 C   0  0  0  0  0  0  0  0  0  0  0  0
   40.4650   32.2710   40.8450 C   0  0  0  0  0  3  0  0  0  0  0  0
   41.1040   33.4560   40.5600 C   0  0  0  0  0  0  0  0  0  0  0  0
   42.2000   33.4300   40.5060 H   0  0  0  0  0  0  0  0  0  0  0  0
   40.3240   34.5350   40.3780 N   0  0  0  0  0  0  0  0  0  0  0  0
   38.9810   34.4010   40.4800 C   0  0  0  0  0  3  0  0  0  0  0  0
   38.3740   33.2200   40.7610 N   0  0  0  0  0  0  0  0  0  0  0  0
  1  2  1  0  0  0  0
  2  7  1  0  0  0  0
  2  3  2  0  0  0  0
  3  8  1  0  0  0  0
  4  3  1  0  0  0  0
  5  4  2  0  0  0  0
  6  1  2  0  0  0  0
  6  5  1  0  0  0  0
  9  1  1  0  0  0  0
  9 15  1  0  0  0  0
 10 17  1  0  0  0  0
 10 16  1  0  0  0  0
 10  9  1  0  0  0  0
 11 10  1  0  0  0  0
 12 11  1  0  0  0  0
 12 13  1  0  0  0  0
 13 14  1  0  0  0  0
 13 23  1  0  0  0  0
 14 25  1  0  0  0  0
 14  9  1  0  0  0  0
 18 11  1  0  0  0  0
 19 11  1  0  0  0  0
 20 12  1  0  0  0  0
 21 12  1  0  0  0  0
 22 13  1  0  0  0  0
 24 14  1  0  0  0  0
 26  5  1  0  0  0  0
 27 26  1  0  0  0  0
 28 27  2  0  0  0  0
 29 28  1  0  0  0  0
 29 30  1  0  0  0  0
 30 26  2  0  0  0  0
 31 28  1  0  0  0  0
 32 29  1  0  0  0  0
 33 32  1  0  0  0  0
 34 33  2  0  0  0  0
 35 34  1  0  0  0  0
 36 37  2  0  0  0  0
 36 34  1  0  0  0  0
 37 38  1  0  0  0  0
 38 32  2  0  0  0  0
M  END
>  <minimizedAffinity>
-5.53591347

$$$$

 OpenBabel03242519263D

 38 41  0  0  0  0  0  0  0  0999 V2000
   37.5380   28.1770   41.3560 C   0  0  0  0  0  0  0  0  0  0  0  0
   36.2430   28.7000   41.2890 C   0  0  0  0  0  0  0  0  0  0  0  0
   35.9710   29.7890   40.4370 C   0  0  0  0  0  0  0  0  0  0  0  0
   37.0330   30.2710   39.7150 N   0  0  0  0  0  0  0  0  0  0  0  0
   38.2870   29.7270   39.8110 C   0  0  0  0  0  0  0  0  0  0  0  0
   38.5160   28.7020   40.6190 N   0  0  0  0  0  0  0  0  0  0  0  0
   35.3520   28.3900   41.8160 H   0  0  0  0  0  0  0  0  0  0  0  0
   34.9980   30.2440   40.3340 H   0  0  0  0  0  0  0  0  0  0  0  0
   37.7030   27.0400   42.2860 C   0  0  0  0  0  0  0  0  0  0  0  0
   38.3880   27.3840   43.5310 C   0  0  0  0  0  0  0  0  0  0  0  0
   39.7350   26.7780   43.6800 C   0  0  0  0  0  0  0  0  0  0  0  0
   39.7510   25.2710   43.4550 C   0  0  0  0  0  0  0  0  0  0  0  0
   38.7730   24.7910   42.4260 C   0  0  0  0  0  0  0  0  0  0  0  0
   38.4000   25.9270   41.4830 C   0  0  0  0  0  0  0  0  0  0  0  0
   36.6780   26.6220   42.4670 H   0  0  0  0  0  0  0  0  0  0  0  0
   37.7750   27.0270   44.4050 H   0  0  0  0  0  0  0  0  0  0  0  0
   38.4840   28.4650   43.6210 H   0  0  0  0  0  0  0  0  0  0  0  0
   40.0100   26.8870   44.7710 H   0  0  0  0  0  0  0  0  0  0  0  0
   40.5580   27.2430   43.1400 H   0  0  0  0  0  0  0  0  0  0  0  0
   39.6160   24.6980   44.4010 H   0  0  0  0  0  0  0  0  0  0  0  0
   40.7680   24.9770   43.0830 H   0  0  0  0  0  0  0  0  0  0  0  0
   39.1260   23.9580   41.8180 H   0  0  0  0  0  0  0  0  0  0  0  0
   37.8150   24.5610   42.9760 H   0  0  0  0  0  0  0  0  0  0  0  0
   39.3580   26.3170   41.0520 H   0  0  0  0  0  0  0  0  0  0  0  0
   37.7250   25.5440   40.7110 H   0  0  0  0  0  0  0  0  0  0  0  0
   39.2990   30.3650   38.9810 C   0  0  0  0  0  0  0  0  0  0  0  0
   39.0280   31.6000   38.5060 N   0  0  0  0  0  0  0  0  0  0  0  0
   40.0630   32.0380   37.7680 C   0  0  0  0  0  0  0  0  0  0  0  0
   40.9900   31.0500   37.7890 N   0  0  0  0  0  0  0  0  0  0  0  0
   40.5300   30.0240   38.5290 N   0  0  0  0  0  0  0  0  0  0  0  0
   40.1830   32.9900   37.2360 H   0  0  0  0  0  0  0  0  0  0  0  0
   42.2670   31.0200   37.1610 C   0  0  0  0  0  0  0  0  0  0  0  0
   42.5510   30.0730   36.1970 C   0  0  0  0  0  3  0  0  0  0  0  0
   43.7450   29.9500   35.5250 C   0  0  0  0  0  0  0  0  0  0  0  0
   43.8180   29.1440   34.7820 H   0  0  0  0  0  0  0  0  0  0  0  0
   44.7120   30.8280   35.8420 N   0  0  0  0  0  0  0  0  0  0  0  0
   44.4630   31.7670   36.7850 C   0  0  0  0  0  3  0  0  0  0  0  0
   43.2760   31.8690   37.4340 N   0  0  0  0  0  0  0  0  0  0  0  0
  1  9  1  0  0  0  0
  2  1  1  0  0  0  0
  2  7  1  0  0  0  0
  3  2  2  0  0  0  0
  4  5  2  0  0  0  0
  4  3  1  0  0  0  0
  5  6  1  0  0  0  0
  6  1  2  0  0  0  0
  8  3  1  0  0  0  0
  9 15  1  0  0  0  0
  9 10  1  0  0  0  0
 10 17  1  0  0  0  0
 10 11  1  0  0  0  0
 10 16  1  0  0  0  0
 11 18  1  0  0  0  0
 12 11  1  0  0  0  0
 12 20  1  0  0  0  0
 13 23  1  0  0  0  0
 13 12  1  0  0  0  0
 14  9  1  0  0  0  0
 14 13  1  0  0  0  0
 19 11  1  0  0  0  0
 21 12  1  0  0  0  0
 22 13  1  0  0  0  0
 24 14  1  0  0  0  0
 25 14  1  0  0  0  0
 26  5  1  0  0  0  0
 27 26  1  0  0  0  0
 28 29  1  0  0  0  0
 28 27  2  0  0  0  0
 29 30  1  0  0  0  0
 30 26  2  0  0  0  0
 31 28  1  0  0  0  0
 32 38  1  0  0  0  0
 32 29  1  0  0  0  0
 33 32  2  0  0  0  0
 34 36  2  0  0  0  0
 34 33  1  0  0  0  0
 35 34  1  0  0  0  0
 36 37  1  0  0  0  0
 37 38  2  0  0  0  0
M  END
>  <minimizedAffinity>
-5.52073669

$$$$

 OpenBabel03242519263D

 38 41  0  0  0  0  0  0  0  0999 V2000
   37.3630   28.0050   40.6190 C   0  0  0  0  0  0  0  0  0  0  0  0
   36.0040   28.3060   40.7490 C   0  0  0  0  0  0  0  0  0  0  0  0
   35.5710   29.6440   40.6600 C   0  0  0  0  0  0  0  0  0  0  0  0
   36.5480   30.5820   40.4470 N   0  0  0  0  0  0  0  0  0  0  0  0
   37.8700   30.2440   40.3240 C   0  0  0  0  0  0  0  0  0  0  0  0
   38.2510   28.9770   40.4110 N   0  0  0  0  0  0  0  0  0  0  0  0
   35.1690   27.6400   40.9180 H   0  0  0  0  0  0  0  0  0  0  0  0
   34.5400   29.9500   40.7520 H   0  0  0  0  0  0  0  0  0  0  0  0
   37.6980   26.5710   40.7340 C   0  0  0  0  0  0  0  0  0  0  0  0
   37.4020   25.7920   39.5330 C   0  0  0  0  0  0  0  0  0  0  0  0
   36.2950   24.8150   39.6900 C   0  0  0  0  0  0  0  0  0  0  0  0
   36.4610   23.9000   40.8970 C   0  0  0  0  0  0  0  0  0  0  0  0
   37.1220   24.5480   42.0760 C   0  0  0  0  0  0  0  0  0  0  0  0
   36.9770   26.0620   41.9950 C   0  0  0  0  0  0  0  0  0  0  0  0
   38.7820   26.5160   41.0190 H   0  0  0  0  0  0  0  0  0  0  0  0
   38.3140   25.2020   39.2360 H   0  0  0  0  0  0  0  0  0  0  0  0
   37.1600   26.4560   38.7040 H   0  0  0  0  0  0  0  0  0  0  0  0
   36.3720   24.1100   38.8100 H   0  0  0  0  0  0  0  0  0  0  0  0
   35.2780   25.1970   39.6500 H   0  0  0  0  0  0  0  0  0  0  0  0
   36.9870   22.9510   40.6440 H   0  0  0  0  0  0  0  0  0  0  0  0
   35.4430   23.5810   41.2440 H   0  0  0  0  0  0  0  0  0  0  0  0
   36.7370   24.2300   43.0440 H   0  0  0  0  0  0  0  0  0  0  0  0
   38.2310   24.3690   41.9610 H   0  0  0  0  0  0  0  0  0  0  0  0
   35.8800   26.2770   41.9140 H   0  0  0  0  0  0  0  0  0  0  0  0
   37.4220   26.5120   42.8880 H   0  0  0  0  0  0  0  0  0  0  0  0
   38.7750   31.3640   40.1090 C   0  0  0  0  0  0  0  0  0  0  0  0
   38.3690   32.5820   40.5300 N   0  0  0  0  0  0  0  0  0  0  0  0
   39.3190   33.4940   40.2570 C   0  0  0  0  0  0  0  0  0  0  0  0
   40.3300   32.8210   39.6550 N   0  0  0  0  0  0  0  0  0  0  0  0
   40.0040   31.5180   39.5610 N   0  0  0  0  0  0  0  0  0  0  0  0
   39.3260   34.5720   40.4590 H   0  0  0  0  0  0  0  0  0  0  0  0
   41.5690   33.3300   39.1710 C   0  0  0  0  0  0  0  0  0  0  0  0
   42.6740   33.3850   39.9970 C   0  0  0  0  0  3  0  0  0  0  0  0
   43.9170   33.8540   39.6380 C   0  0  0  0  0  0  0  0  0  0  0  0
   44.6990   33.8340   40.4100 H   0  0  0  0  0  0  0  0  0  0  0  0
   44.0570   34.2960   38.3770 N   0  0  0  0  0  0  0  0  0  0  0  0
   42.9900   34.2550   37.5440 C   0  0  0  0  0  3  0  0  0  0  0  0
   41.7730   33.7870   37.9210 N   0  0  0  0  0  0  0  0  0  0  0  0
  1  9  1  0  0  0  0
  1  2  1  0  0  0  0
  2  7  1  0  0  0  0
  3  2  2  0  0  0  0
  3  8  1  0  0  0  0
  4  3  1  0  0  0  0
  5  6  1  0  0  0  0
  5  4  2  0  0  0  0
  6  1  2  0  0  0  0
  9 15  1  0  0  0  0
  9 14  1  0  0  0  0
 10 11  1  0  0  0  0
 10  9  1  0  0  0  0
 11 12  1  0  0  0  0
 12 21  1  0  0  0  0
 12 13  1  0  0  0  0
 13 22  1  0  0  0  0
 14 13  1  0  0  0  0
 14 25  1  0  0  0  0
 16 10  1  0  0  0  0
 17 10  1  0  0  0  0
 18 11  1  0  0  0  0
 19 11  1  0  0  0  0
 20 12  1  0  0  0  0
 23 13  1  0  0  0  0
 24 14  1  0  0  0  0
 26  5  1  0  0  0  0
 26 27  1  0  0  0  0
 28 31  1  0  0  0  0
 28 27  2  0  0  0  0
 29 28  1  0  0  0  0
 30 29  1  0  0  0  0
 30 26  2  0  0  0  0
 32 29  1  0  0  0  0
 32 33  1  0  0  0  0
 34 33  2  0  0  0  0
 34 35  1  0  0  0  0
 36 34  1  0  0  0  0
 37 38  1  0  0  0  0
 37 36  2  0  0  0  0
 38 32  2  0  0  0  0
M  END
>  <minimizedAffinity>
-5.44426823

$$$$

 OpenBabel03242519263D

 38 41  0  0  0  0  0  0  0  0999 V2000
   36.3760   24.8640   39.7900 C   0  0  0  0  0  0  0  0  0  0  0  0
   36.5760   23.9700   40.8460 C   0  0  0  0  0  0  0  0  0  0  0  0
   37.0910   24.4370   42.0710 C   0  0  0  0  0  0  0  0  0  0  0  0
   37.3680   25.7780   42.1380 N   0  0  0  0  0  0  0  0  0  0  0  0
   37.1570   26.6210   41.0780 C   0  0  0  0  0  0  0  0  0  0  0  0
   36.6700   26.1560   39.9360 N   0  0  0  0  0  0  0  0  0  0  0  0
   36.3890   22.9060   40.8860 H   0  0  0  0  0  0  0  0  0  0  0  0
   37.2720   23.8050   42.9280 H   0  0  0  0  0  0  0  0  0  0  0  0
   35.8360   24.2590   38.5550 C   0  0  0  0  0  0  0  0  0  0  0  0
   35.4260   25.2320   37.5440 C   0  0  0  0  0  0  0  0  0  0  0  0
   33.9610   25.2930   37.3060 C   0  0  0  0  0  0  0  0  0  0  0  0
   33.3360   23.9310   37.0260 C   0  0  0  0  0  0  0  0  0  0  0  0
   33.9740   22.7960   37.7670 C   0  0  0  0  0  0  0  0  0  0  0  0
   34.7040   23.3150   38.9990 C   0  0  0  0  0  0  0  0  0  0  0  0
   36.6210   23.5550   38.1720 H   0  0  0  0  0  0  0  0  0  0  0  0
   35.9030   24.9720   36.5590 H   0  0  0  0  0  0  0  0  0  0  0  0
   35.7710   26.2290   37.8200 H   0  0  0  0  0  0  0  0  0  0  0  0
   33.8250   25.8530   36.3330 H   0  0  0  0  0  0  0  0  0  0  0  0
   33.3570   25.8380   38.0260 H   0  0  0  0  0  0  0  0  0  0  0  0
   33.2950   23.6970   35.9380 H   0  0  0  0  0  0  0  0  0  0  0  0
   32.2640   23.9580   37.3550 H   0  0  0  0  0  0  0  0  0  0  0  0
   33.2820   22.0210   38.0940 H   0  0  0  0  0  0  0  0  0  0  0  0
   34.7970   22.4010   37.1030 H   0  0  0  0  0  0  0  0  0  0  0  0
   33.9530   23.8860   39.6030 H   0  0  0  0  0  0  0  0  0  0  0  0
   35.1200   22.4660   39.5520 H   0  0  0  0  0  0  0  0  0  0  0  0
   37.5120   28.0120   41.3160 C   0  0  0  0  0  0  0  0  0  0  0  0
   37.9580   28.3380   42.5490 N   0  0  0  0  0  0  0  0  0  0  0  0
   38.2420   29.6520   42.5940 C   0  0  0  0  0  0  0  0  0  0  0  0
   37.9640   30.1430   41.3620 N   0  0  0  0  0  0  0  0  0  0  0  0
   37.5170   29.1460   40.5760 N   0  0  0  0  0  0  0  0  0  0  0  0
   38.6230   30.2520   43.4300 H   0  0  0  0  0  0  0  0  0  0  0  0
   38.0940   31.4810   40.8920 C   0  0  0  0  0  0  0  0  0  0  0  0
   37.1770   32.0010   40.0000 C   0  0  0  0  0  3  0  0  0  0  0  0
   37.2030   33.2750   39.4800 C   0  0  0  0  0  0  0  0  0  0  0  0
   36.4000   33.5430   38.7800 H   0  0  0  0  0  0  0  0  0  0  0  0
   38.2090   34.0720   39.8780 N   0  0  0  0  0  0  0  0  0  0  0  0
   39.1240   33.5890   40.7520 C   0  0  0  0  0  3  0  0  0  0  0  0
   39.0780   32.3280   41.2510 N   0  0  0  0  0  0  0  0  0  0  0  0
  1  6  2  0  0  0  0
  1  2  1  0  0  0  0
  2  7  1  0  0  0  0
  2  3  2  0  0  0  0
  3  4  1  0  0  0  0
  3  8  1  0  0  0  0
  5 26  1  0  0  0  0
  5  4  2  0  0  0  0
  6  5  1  0  0  0  0
  9 14  1  0  0  0  0
  9  1  1  0  0  0  0
 10 17  1  0  0  0  0
 10  9  1  0  0  0  0
 11 10  1  0  0  0  0
 11 19  1  0  0  0  0
 12 11  1  0  0  0  0
 12 21  1  0  0  0  0
 12 13  1  0  0  0  0
 13 22  1  0  0  0  0
 13 14  1  0  0  0  0
 14 25  1  0  0  0  0
 14 24  1  0  0  0  0
 15  9  1  0  0  0  0
 16 10  1  0  0  0  0
 18 11  1  0  0  0  0
 20 12  1  0  0  0  0
 23 13  1  0  0  0  0
 26 27  1  0  0  0  0
 27 28  2  0  0  0  0
 28 31  1  0  0  0  0
 29 28  1  0  0  0  0
 30 26  2  0  0  0  0
 30 29  1  0  0  0  0
 32 38  1  0  0  0  0
 32 29  1  0  0  0  0
 33 32  2  0  0  0  0
 34 36  2  0  0  0  0
 34 33  1  0  0  0  0
 35 34  1  0  0  0  0
 36 37  1  0  0  0  0
 37 38  2  0  0  0  0
M  END
>  <minimizedAffinity>
-5.40233707

$$$$

 OpenBabel03242519263D

 38 41  0  0  0  0  0  0  0  0999 V2000
   36.8480   27.9920   41.8250 C   0  0  0  0  0  0  0  0  0  0  0  0
   37.2960   29.2330   42.2890 C   0  0  0  0  0  0  0  0  0  0  0  0
   36.9530   30.4070   41.5890 C   0  0  0  0  0  0  0  0  0  0  0  0
   36.1820   30.2390   40.4680 N   0  0  0  0  0  0  0  0  0  0  0  0
   35.7640   29.0030   40.0480 C   0  0  0  0  0  0  0  0  0  0  0  0
   36.0990   27.9140   40.7250 N   0  0  0  0  0  0  0  0  0  0  0  0
   37.9030   29.4610   43.1540 H   0  0  0  0  0  0  0  0  0  0  0  0
   37.2630   31.3970   41.8880 H   0  0  0  0  0  0  0  0  0  0  0  0
   37.2730   26.8320   42.6360 C   0  0  0  0  0  0  0  0  0  0  0  0
   38.4120   27.1030   43.5120 C   0  0  0  0  0  0  0  0  0  0  0  0
   39.6600   26.3930   43.1360 C   0  0  0  0  0  0  0  0  0  0  0  0
   39.4710   24.8930   42.9480 C   0  0  0  0  0  0  0  0  0  0  0  0
   38.1370   24.5050   42.3880 C   0  0  0  0  0  0  0  0  0  0  0  0
   37.5160   25.6800   41.6450 C   0  0  0  0  0  0  0  0  0  0  0  0
   36.3690   26.4920   43.2080 H   0  0  0  0  0  0  0  0  0  0  0  0
   38.1600   26.7830   44.5620 H   0  0  0  0  0  0  0  0  0  0  0  0
   38.6190   28.1730   43.5400 H   0  0  0  0  0  0  0  0  0  0  0  0
   40.3440   26.4640   44.0330 H   0  0  0  0  0  0  0  0  0  0  0  0
   40.2420   26.8000   42.3120 H   0  0  0  0  0  0  0  0  0  0  0  0
   39.6700   24.3180   43.8820 H   0  0  0  0  0  0  0  0  0  0  0  0
   40.2370   24.5260   42.2160 H   0  0  0  0  0  0  0  0  0  0  0  0
   38.1600   23.6560   41.7040 H   0  0  0  0  0  0  0  0  0  0  0  0
   37.4520   24.3420   43.2700 H   0  0  0  0  0  0  0  0  0  0  0  0
   38.2580   26.0010   40.8690 H   0  0  0  0  0  0  0  0  0  0  0  0
   36.5660   25.3620   41.2010 H   0  0  0  0  0  0  0  0  0  0  0  0
   34.9590   29.0050   38.8350 C   0  0  0  0  0  0  0  0  0  0  0  0
   35.6130   29.0370   37.6540 N   0  0  0  0  0  0  0  0  0  0  0  0
   34.7250   29.0300   36.6450 C   0  0  0  0  0  0  0  0  0  0  0  0
   33.4980   28.9940   37.2180 N   0  0  0  0  0  0  0  0  0  0  0  0
   33.6340   28.9790   38.5580 N   0  0  0  0  0  0  0  0  0  0  0  0
   34.9030   29.0490   35.5620 H   0  0  0  0  0  0  0  0  0  0  0  0
   32.2230   28.9740   36.5850 C   0  0  0  0  0  0  0  0  0  0  0  0
   31.4470   30.1150   36.5360 C   0  0  0  0  0  3  0  0  0  0  0  0
   30.2050   30.2120   35.9520 C   0  0  0  0  0  0  0  0  0  0  0  0
   29.7100   31.1920   35.9940 H   0  0  0  0  0  0  0  0  0  0  0  0
   29.7130   29.0970   35.3860 N   0  0  0  0  0  0  0  0  0  0  0  0
   30.4510   27.9620   35.4190 C   0  0  0  0  0  3  0  0  0  0  0  0
   31.6750   27.8910   36.0010 N   0  0  0  0  0  0  0  0  0  0  0  0
  1  2  1  0  0  0  0
  1  9  1  0  0  0  0
  2  7  1  0  0  0  0
  3  8  1  0  0  0  0
  3  2  2  0  0  0  0
  4  3  1  0  0  0  0
  5  4  2  0  0  0  0
  5  6  1  0  0  0  0
  6  1  2  0  0  0  0
  9 15  1  0  0  0  0
  9 10  1  0  0  0  0
 10 17  1  0  0  0  0
 10 16  1  0  0  0  0
 11 10  1  0  0  0  0
 11 18  1  0  0  0  0
 12 11  1  0  0  0  0
 12 20  1  0  0  0  0
 13 12  1  0  0  0  0
 13 23  1  0  0  0  0
 14 13  1  0  0  0  0
 14  9  1  0  0  0  0
 19 11  1  0  0  0  0
 21 12  1  0  0  0  0
 22 13  1  0  0  0  0
 24 14  1  0  0  0  0
 25 14  1  0  0  0  0
 26  5  1  0  0  0  0
 27 26  1  0  0  0  0
 28 29  1  0  0  0  0
 28 27  2  0  0  0  0
 29 30  1  0  0  0  0
 30 26  2  0  0  0  0
 31 28  1  0  0  0  0
 32 29  1  0  0  0  0
 33 32  1  0  0  0  0
 34 35  1  0  0  0  0
 34 33  2  0  0  0  0
 36 37  2  0  0  0  0
 36 34  1  0  0  0  0
 37 38  1  0  0  0  0
 38 32  2  0  0  0  0
M  END
>  <minimizedAffinity>
-5.38448286

$$$$
