REMARK  Name = 
REMARK  4 active torsions:
REMARK  status: ('A' for Active; 'I' for Inactive)
REMARK    1  A    between atoms: C_3  and  C_10
REMARK    2  A    between atoms: C_4  and  C_15
REMARK    3  A    between atoms: C_14  and  S_20
REMARK    4  A    between atoms: S_20  and  C_33
REMARK                            x       y       z     vdW  Elec       q    Type
REMARK                         _______ _______ _______ _____ _____    ______ ____
ROOT
ATOM      1  C   UNL     1      47.802  31.873  38.992  0.00  0.00    +0.000 A 
ATOM      2  C   UNL     1      47.234  33.108  38.875  0.00  0.00    +0.000 A 
ATOM      3  C   UNL     1      47.760  34.028  37.983  0.00  0.00    +0.000 A 
ATOM      4  C   UNL     1      48.852  33.701  37.214  0.00  0.00    +0.000 A 
ATOM      5  C   UNL     1      49.462  32.451  37.302  0.00  0.00    +0.000 A 
ATOM      6  C   UNL     1      48.911  31.539  38.212  0.00  0.00    +0.000 A 
ATOM      7  H   UNL     1      47.343  35.014  37.859  0.00  0.00    +0.000 HD
ATOM      8  H   UNL     1      49.343  34.332  36.492  0.00  0.00    +0.000 HD
ATOM      9  H   UNL     1      50.304  32.123  36.746  0.00  0.00    +0.000 HD
ATOM     10  H   UNL     1      49.361  30.548  38.311  0.00  0.00    +0.000 HD
ENDROOT
BRANCH   2  14
ATOM     11 CL   UNL     1      45.285  35.294  43.126  0.00  0.00    +0.000 Cl
ATOM     12  C   UNL     1      45.165  34.544  41.554  0.00  0.00    +0.000 A 
ATOM     13  C   UNL     1      46.274  34.157  40.874  0.00  0.00    +0.000 A 
ATOM     14  C   UNL     1      46.071  33.556  39.639  0.00  0.00    +0.000 A 
ATOM     15  C   UNL     1      44.814  33.360  39.121  0.00  0.00    +0.000 A 
ATOM     16  C   UNL     1      43.718  33.754  39.817  0.00  0.00    +0.000 A 
ATOM     17  C   UNL     1      43.904  34.349  41.041  0.00  0.00    +0.000 A 
ATOM     18  H   UNL     1      44.694  32.886  38.149  0.00  0.00    +0.000 HD
ATOM     19  H   UNL     1      42.745  33.583  39.377  0.00  0.00    +0.000 HD
ATOM     20  H   UNL     1      42.995  34.650  41.566  0.00  0.00    +0.000 HD
BRANCH  13  23
ATOM     21  C   UNL     1      49.544  35.744  41.888  0.00  0.00    +0.000 A 
ATOM     22  C   UNL     1      48.282  35.547  41.311  0.00  0.00    +0.000 A 
ATOM     23  C   UNL     1      47.579  34.373  41.466  0.00  0.00    +0.000 A 
ATOM     24  N   UNL     1      48.208  33.432  42.220  0.00  0.00    +0.000 NA
ATOM     25  C   UNL     1      49.408  33.611  42.774  0.00  0.00    +0.000 A 
ATOM     26  N   UNL     1      50.066  34.759  42.606  0.00  0.00    +0.000 NA
ATOM     27  H   UNL     1      49.984  36.705  41.690  0.00  0.00    +0.000 HD
ATOM     28  H   UNL     1      47.817  36.320  40.718  0.00  0.00    +0.000 HD
ATOM     29  H   UNL     1      49.845  32.816  43.361  0.00  0.00    +0.000 HD
ENDBRANCH  13  23
ENDBRANCH   2  14
BRANCH   1  30
ATOM     30  S   UNL     1      47.166  30.715  40.033  0.00  0.00    +0.000 S 
ATOM     31  O   UNL     1      46.806  29.441  39.295  0.00  0.00    +0.000 OA
ATOM     32  O   UNL     1      48.391  30.270  40.907  0.00  0.00    +0.000 OA
BRANCH  30  33
ATOM     33  C   UNL     1      45.871  30.952  41.130  0.00  0.00    +0.000 A 
ATOM     34  C   UNL     1      45.225  29.797  41.653  0.00  0.00    +0.000 A 
ATOM     35  C   UNL     1      44.158  29.672  42.553  0.00  0.00    +0.000 A 
ATOM     36  H   UNL     1      43.788  28.708  42.847  0.00  0.00    +0.000 HD
ATOM     37  N   UNL     1      43.714  30.873  42.954  0.00  0.00    +0.000 NA
ATOM     38  C   UNL     1      44.253  32.018  42.521  0.00  0.00    +0.000 A 
ATOM     39  N   UNL     1      45.263  32.022  41.665  0.00  0.00    +0.000 NA
ENDBRANCH  30  33
ENDBRANCH   1  30
TORSDOF 4
