
 OpenBabel03252506123D

 34 36  0  0  0  0  0  0  0  0999 V2000
   45.1920   33.4610   41.1530 F   0  0  0  0  0  0  0  0  0  0  0  0
   46.3720   34.0660   41.0360 C   0  0  0  0  0  0  0  0  0  0  0  0
   46.8500   34.7980   42.0980 C   0  0  0  0  0  0  0  0  0  0  0  0
   48.0790   35.4650   42.0620 C   0  0  0  0  0  0  0  0  0  0  0  0
   48.8600   35.3930   40.9130 C   0  0  0  0  0  0  0  0  0  0  0  0
   48.3400   34.6470   39.8720 C   0  0  0  0  0  0  0  0  0  0  0  0
   47.1480   33.9930   39.8860 C   0  0  0  0  0  0  0  0  0  0  0  0
   48.4090   36.0340   42.9430 H   0  0  0  0  0  0  0  0  0  0  0  0
   49.7890   35.9200   40.9400 H   0  0  0  0  0  0  0  0  0  0  0  0
   49.0480   34.6680   39.0460 H   0  0  0  0  0  0  0  0  0  0  0  0
   45.4740   33.9950   45.4040 C   0  0  0  0  0  0  0  0  0  0  0  0
   44.6240   35.0930   45.6400 C   0  0  0  0  0  0  0  0  0  0  0  0
   44.5230   36.1240   44.6520 C   0  0  0  0  0  0  0  0  0  0  0  0
   45.2760   35.9670   43.5190 N   0  0  0  0  0  0  0  0  0  0  0  0
   46.0710   34.9030   43.3380 C   0  0  0  0  0  0  0  0  0  0  0  0
   46.1620   33.9400   44.2670 N   0  0  0  0  0  0  0  0  0  0  0  0
   44.0200   35.2410   46.5240 H   0  0  0  0  0  0  0  0  0  0  0  0
   43.8980   36.9750   44.7800 H   0  0  0  0  0  0  0  0  0  0  0  0
   45.5460   33.0070   46.4000 N   0  0  0  0  0  0  0  0  0  0  0  0
   46.5410   33.0860   46.7570 H   0  0  0  0  0  0  0  0  0  0  0  0
   44.8060   32.3420   46.7270 H   0  0  0  0  0  0  0  0  0  0  0  0
   46.7280   33.2840   38.7960 O   0  0  0  0  0  0  0  0  0  0  0  0
   48.1320   34.6640   37.0160 O   0  0  0  0  0  0  0  0  0  0  0  0
   47.3600   33.3880   37.2440 P   0  0  2  0  0  0  0  0  0  0  0  0
   46.0520   33.2900   36.1320 O   0  0  0  0  0  0  0  0  0  0  0  0
   45.8690   34.1600   35.7050 H   0  0  0  0  0  0  0  0  0  0  0  0
   48.3530   32.0820   36.8350 O   0  0  0  0  0  0  0  0  0  0  0  0
   48.9760   31.9690   35.6020 C   0  0  0  0  0  0  0  0  0  0  0  0
   50.0220   31.0940   35.3990 C   0  0  0  0  0  0  0  0  0  0  0  0
   50.5540   31.0810   34.1140 C   0  0  0  0  0  0  0  0  0  0  0  0
   51.3740   30.4300   33.8610 H   0  0  0  0  0  0  0  0  0  0  0  0
   50.0720   31.8820   33.1230 N   0  0  0  0  0  0  0  0  0  0  0  0
   49.0520   32.7220   33.3570 C   0  0  0  0  0  0  0  0  0  0  0  0
   48.5390   32.7400   34.5770 N   0  0  0  0  0  0  0  0  0  0  0  0
  2  1  1  0  0  0  0
  2  3  1  0  0  0  0
  3 15  1  0  0  0  0
  4  3  2  0  0  0  0
  4  8  1  0  0  0  0
  5  9  1  0  0  0  0
  5  4  1  0  0  0  0
  6  7  1  0  0  0  0
  6  5  2  0  0  0  0
  7  2  2  0  0  0  0
 10  6  1  0  0  0  0
 11 12  1  0  0  0  0
 11 19  1  0  0  0  0
 12 17  1  0  0  0  0
 13 18  1  0  0  0  0
 13 12  2  0  0  0  0
 14 13  1  0  0  0  0
 15 14  2  0  0  0  0
 15 16  1  0  0  0  0
 16 11  2  0  0  0  0
 19 21  1  0  0  0  0
 19 20  1  0  0  0  0
 22  7  1  0  0  0  0
 24 23  2  6  0  0  0
 24 22  1  0  0  0  0
 25 24  1  0  0  0  0
 26 25  1  0  0  0  0
 27 24  1  0  0  0  0
 28 27  1  0  0  0  0
 29 28  1  0  0  0  0
 30 29  2  0  0  0  0
 31 30  1  0  0  0  0
 32 33  2  0  0  0  0
 32 30  1  0  0  0  0
 33 34  1  0  0  0  0
 34 28  2  0  0  0  0
M  END
>  <minimizedAffinity>
-6.66000509

>  <minimizedRMSD>
0.963542938

$$$$
