REMARK  Name = 
REMARK  8 active torsions:
REMARK  status: ('A' for Active; 'I' for Inactive)
REMARK    1  A    between atoms: C_1  and  O_7
REMARK    2  A    between atoms: C_2  and  O_9
REMARK    3  A    between atoms: C_5  and  O_8
REMARK    4  A    between atoms: C_6  and  O_19
REMARK    5  A    between atoms: O_9  and  C_10
REMARK    6  A    between atoms: C_12  and  C_16
REMARK    7  A    between atoms: O_19  and  C_20
REMARK    8  A    between atoms: C_20  and  O_37
REMARK                            x       y       z     vdW  Elec       q    Type
REMARK                         _______ _______ _______ _____ _____    ______ ____
ROOT
ATOM      1  C   UNL     1      42.827  34.488  38.778  0.00  0.00    +0.000 C 
ATOM      2  C   UNL     1      42.951  35.169  40.133  0.00  0.00    +0.000 C 
ATOM      3  O   UNL     1      41.654  35.375  40.645  0.00  0.00    +0.000 OA
ATOM      4  C   UNL     1      40.730  35.695  39.648  0.00  0.00    +0.000 C 
ATOM      5  C   UNL     1      40.445  34.517  38.739  0.00  0.00    +0.000 C 
ATOM      6  C   UNL     1      41.673  33.545  38.879  0.00  0.00    +0.000 C 
ATOM      7  H   UNL     1      43.767  33.936  38.558  0.00  0.00    +0.000 HD
ATOM      8  H   UNL     1      43.526  36.102  40.107  0.00  0.00    +0.000 HD
ATOM      9  H   UNL     1      40.992  36.619  39.106  0.00  0.00    +0.000 HD
ATOM     10  H   UNL     1      39.788  35.898  40.194  0.00  0.00    +0.000 HD
ATOM     11  H   UNL     1      39.531  33.975  39.015  0.00  0.00    +0.000 HD
ATOM     12  H   UNL     1      41.456  33.255  39.956  0.00  0.00    +0.000 HD
ENDROOT
BRANCH   1  13
ATOM     13  O   UNL     1      42.605  35.438  37.770  0.00  0.00    +0.000 OA
ATOM     14  H   UNL     1      43.392  36.008  37.719  0.00  0.00    +0.000 HD
ENDBRANCH   1  13
BRANCH   5  15
ATOM     15  O   UNL     1      40.461  34.937  37.417  0.00  0.00    +0.000 OA
ATOM     16  H   UNL     1      39.899  35.724  37.252  0.00  0.00    +0.000 HD
ENDBRANCH   5  15
BRANCH   2  17
ATOM     17  O   UNL     1      43.489  34.188  40.988  0.00  0.00    +0.000 OA
BRANCH  17  18
ATOM     18  C   UNL     1      44.598  34.338  41.718  0.00  0.00    +0.000 A 
ATOM     19  C   UNL     1      45.857  34.446  41.110  0.00  0.00    +0.000 A 
ATOM     20  C   UNL     1      46.975  34.602  41.910  0.00  0.00    +0.000 A 
ATOM     21  N   UNL     1      46.820  34.647  43.283  0.00  0.00    +0.000 NA
ATOM     22  C   UNL     1      45.591  34.540  43.839  0.00  0.00    +0.000 A 
ATOM     23  N   UNL     1      44.488  34.386  43.060  0.00  0.00    +0.000 NA
ATOM     24  H   UNL     1      45.952  34.408  40.028  0.00  0.00    +0.000 HD
ATOM     25  H   UNL     1      45.480  34.576  44.907  0.00  0.00    +0.000 HD
BRANCH  20  26
ATOM     26  C   UNL     1      48.349  34.704  41.328  0.00  0.00    +0.000 C 
ATOM     27  C   UNL     1      49.075  36.034  41.510  0.00  0.00    +0.000 C 
ATOM     28  C   UNL     1      49.505  34.706  42.167  0.00  0.00    +0.000 C 
ATOM     29  H   UNL     1      48.373  34.358  40.261  0.00  0.00    +0.000 HD
ATOM     30  H   UNL     1      49.723  36.401  40.698  0.00  0.00    +0.000 HD
ATOM     31  H   UNL     1      48.625  36.755  42.209  0.00  0.00    +0.000 HD
ATOM     32  H   UNL     1      49.406  34.623  43.263  0.00  0.00    +0.000 HD
ATOM     33  H   UNL     1      50.456  34.263  41.789  0.00  0.00    +0.000 HD
ENDBRANCH  20  26
ENDBRANCH  17  18
ENDBRANCH   2  17
BRANCH   6  34
ATOM     34  O   UNL     1      41.560  32.615  37.913  0.00  0.00    +0.000 OA
BRANCH  34  35
ATOM     35  C   UNL     1      40.922  31.421  37.973  0.00  0.00    +0.000 C 
ATOM     36  O   UNL     1      39.687  31.265  37.582  0.00  0.00    +0.000 OA
BRANCH  35  37
ATOM     37  O   UNL     1      40.924  30.060  38.293  0.00  0.00    +0.000 OA
ATOM     38  H   UNL     1      41.225  29.351  37.637  0.00  0.00    +0.000 HD
ENDBRANCH  35  37
ENDBRANCH  34  35
ENDBRANCH   6  34
TORSDOF 8
