
     RDKit          3D

 38 40  0  0  0  0  0  0  0  0999 V2000
   42.8270   34.4881   38.7780 C   0  0  1  0  0  0  0  0  0  0  0  0
   42.9511   35.1688   40.1329 C   0  0  1  0  0  0  0  0  0  0  0  0
   41.6544   35.3746   40.6447 O   0  0  0  0  0  0  0  0  0  0  0  0
   40.7300   35.6952   39.6485 C   0  0  0  0  0  0  0  0  0  0  0  0
   40.4453   34.5171   38.7385 C   0  0  2  0  0  0  0  0  0  0  0  0
   41.6733   33.5454   38.8794 C   0  0  1  0  0  0  0  0  0  0  0  0
   42.6050   35.4379   37.7701 O   0  0  0  0  0  0  0  0  0  0  0  0
   40.4612   34.9369   37.4168 O   0  0  0  0  0  0  0  0  0  0  0  0
   43.4894   34.1876   40.9877 O   0  0  0  0  0  0  0  0  0  0  0  0
   44.5983   34.3382   41.7183 C   0  0  0  0  0  0  0  0  0  0  0  0
   45.8570   34.4461   41.1099 C   0  0  0  0  0  0  0  0  0  0  0  0
   46.9754   34.6021   41.9102 C   0  0  0  0  0  0  0  0  0  0  0  0
   46.8198   34.6473   43.2830 N   0  0  0  0  0  0  0  0  0  0  0  0
   45.5908   34.5399   43.8390 C   0  0  0  0  0  0  0  0  0  0  0  0
   44.4884   34.3863   43.0602 N   0  0  0  0  0  0  0  0  0  0  0  0
   48.3492   34.7039   41.3282 C   0  0  0  0  0  0  0  0  0  0  0  0
   49.0750   36.0344   41.5100 C   0  0  0  0  0  0  0  0  0  0  0  0
   49.5055   34.7055   42.1669 C   0  0  0  0  0  0  0  0  0  0  0  0
   41.5603   32.6149   37.9128 O   0  0  0  0  0  0  0  0  0  0  0  0
   40.9222   31.4207   37.9734 C   0  0  0  0  0  0  0  0  0  0  0  0
   39.6872   31.2652   37.5816 O   0  0  0  0  0  0  0  0  0  0  0  0
   43.7671   33.9356   38.5582 H   0  0  0  0  0  0  0  0  0  0  0  0
   43.5265   36.1017   40.1068 H   0  0  0  0  0  0  0  0  0  0  0  0
   40.9917   36.6188   39.1061 H   0  0  0  0  0  0  0  0  0  0  0  0
   39.7885   35.8985   40.1938 H   0  0  0  0  0  0  0  0  0  0  0  0
   39.5311   33.9749   39.0146 H   0  0  0  0  0  0  0  0  0  0  0  0
   41.4556   33.2549   39.9560 H   0  0  0  0  0  0  0  0  0  0  0  0
   43.3915   36.0081   37.7195 H   0  0  0  0  0  0  0  0  0  0  0  0
   39.8989   35.7243   37.2521 H   0  0  0  0  0  0  0  0  0  0  0  0
   45.9520   34.4076   40.0279 H   0  0  0  0  0  0  0  0  0  0  0  0
   45.4804   34.5758   44.9068 H   0  0  0  0  0  0  0  0  0  0  0  0
   48.3735   34.3581   40.2605 H   0  0  0  0  0  0  0  0  0  0  0  0
   49.7233   36.4005   40.6980 H   0  0  0  0  0  0  0  0  0  0  0  0
   48.6252   36.7549   42.2090 H   0  0  0  0  0  0  0  0  0  0  0  0
   49.4058   34.6228   43.2630 H   0  0  0  0  0  0  0  0  0  0  0  0
   50.4560   34.2627   41.7889 H   0  0  0  0  0  0  0  0  0  0  0  0
   40.9237   30.0602   38.2928 O   0  0  0  0  0  0  0  0  0  0  0  0
   40.1453   29.6133   38.7608 H   0  0  0  0  0  0  0  0  0  0  0  0
  1  6  1  0
  1  2  1  0
  2  3  1  0
  2  9  1  0
  4  3  1  0
  5  6  1  0
  5  4  1  0
  7  1  1  0
  8  5  1  0
  9 10  1  0
 10 15  1  0
 11 10  2  0
 11 12  1  0
 12 13  2  0
 13 14  1  0
 15 14  2  0
 16 17  1  0
 16 12  1  0
 16 18  1  0
 17 18  1  0
 19 20  1  0
 19  6  1  0
 21 20  2  0
  1 22  1  6
  2 23  1  6
  4 24  1  0
  4 25  1  0
  5 26  1  1
  6 27  1  1
  7 28  1  0
  8 29  1  0
 11 30  1  0
 14 31  1  0
 16 32  1  0
 17 33  1  0
 17 34  1  0
 18 35  1  0
 18 36  1  0
 37 38  1  0
 20 37  1  0
M  ISO  8  22  13  23  13  24  13  25  13  26  13  27  13  28   3  29   3
M  ISO  8  30  14  31  14  32  13  33  13  34  13  35  13  36  13  38   3
M  END
>  <DihAtoms>  (1) 
18,19,36,37

>  <DihDeg>  (1) 
-87.90821123336079

$$$$
