
 OpenBabel03242513513D

 27 28  0  0  1  0  0  0  0  0999 V2000
   46.5450   35.0470   41.8270 C   0  0  2  0  0  0  0  0  0  0  0  0
   46.4930   33.6720   41.1750 C   0  0  0  0  0  0  0  0  0  0  0  0
   47.3510   33.9590   39.9560 C   0  0  0  0  0  0  0  0  0  0  0  0
   48.4040   34.8730   40.4420 C   0  0  0  0  0  0  0  0  0  0  0  0
   48.0130   35.2890   41.9430 C   0  0  2  0  0  0  0  0  0  0  0  0
   46.1270   35.8360   41.2000 H   0  0  0  0  0  0  0  0  0  0  0  0
   47.0460   33.0030   41.8420 H   0  0  0  0  0  0  0  0  0  0  0  0
   45.4840   33.3310   40.9330 H   0  0  0  0  0  0  0  0  0  0  0  0
   47.7420   32.9780   39.5740 H   0  0  0  0  0  0  0  0  0  0  0  0
   46.7140   34.3970   39.1460 H   0  0  0  0  0  0  0  0  0  0  0  0
   49.3740   34.3840   40.5140 H   0  0  0  0  0  0  0  0  0  0  0  0
   48.4350   35.8010   39.8390 H   0  0  0  0  0  0  0  0  0  0  0  0
   48.5290   36.2030   41.8990 H   0  0  0  0  0  0  0  0  0  0  0  0
   44.5010   36.0410   44.8250 C   0  0  0  0  0  0  0  0  0  0  0  0
   45.0700   36.1260   43.5430 C   0  0  0  0  0  0  0  0  0  0  0  0
   45.8700   35.0910   43.1440 C   0  0  0  0  0  0  0  0  0  0  0  0
   46.0610   34.0400   44.0280 N   0  0  0  0  0  0  0  0  0  0  0  0
   45.5090   33.9860   45.2370 C   0  0  0  0  0  0  0  0  0  0  0  0
   44.7320   34.9780   45.6410 N   0  0  0  0  0  0  0  0  0  0  0  0
   43.8640   36.8370   45.1770 H   0  0  0  0  0  0  0  0  0  0  0  0
   44.8920   36.9680   42.8870 H   0  0  0  0  0  0  0  0  0  0  0  0
   45.7730   33.0860   45.7820 H   0  0  0  0  0  0  0  0  0  0  0  0
   48.6450   34.3420   42.7680 O   0  0  0  0  0  0  0  0  0  0  0  0
   49.9290   33.9000   42.6380 C   0  0  0  0  0  0  0  0  0  0  0  0
   49.8740   32.6280   42.5230 O   0  0  0  0  0  0  0  0  0  0  0  0
   51.2990   33.8270   42.5350 O   0  0  0  0  0  0  0  0  0  0  0  0
   51.9400   33.9520   43.3010 H   0  0  0  0  0  0  0  0  0  0  0  0
  1  6  1  6  0  0  0
  1  5  1  0  0  0  0
  1 16  1  0  0  0  0
  2  1  1  0  0  0  0
  2  7  1  0  0  0  0
  3  4  1  0  0  0  0
  3  2  1  0  0  0  0
  4 11  1  0  0  0  0
  4  5  1  0  0  0  0
  5 13  1  1  0  0  0
  5 23  1  0  0  0  0
  8  2  1  0  0  0  0
  9  3  1  0  0  0  0
 10  3  1  0  0  0  0
 12  4  1  0  0  0  0
 14 20  1  0  0  0  0
 14 19  1  0  0  0  0
 15 14  2  0  0  0  0
 16 15  1  0  0  0  0
 16 17  2  0  0  0  0
 17 18  1  0  0  0  0
 18 19  2  0  0  0  0
 18 22  1  0  0  0  0
 21 15  1  0  0  0  0
 24 23  1  0  0  0  0
 25 24  2  0  0  0  0
 26 24  1  0  0  0  0
 26 27  1  0  0  0  0
M  END
>  <minimizedAffinity>
-5.16834784

>  <minimizedRMSD>
0.566699684

$$$$
