
 OpenBabel03242520543D

 24 24  0  0  0  0  0  0  0  0999 V2000
   44.7820   33.4040   42.8010 C   0  0  0  0  0  0  0  0  0  0  0  0
   45.5280   34.3920   42.1500 C   0  0  0  0  0  0  0  0  0  0  0  0
   46.7720   34.7260   42.6460 C   0  0  0  0  0  0  0  0  0  0  0  0
   47.1810   34.0680   43.7340 N   0  0  0  0  0  0  0  0  0  0  0  0
   46.4750   33.1290   44.3550 C   0  0  0  0  0  0  0  0  0  0  0  0
   45.2640   32.7860   43.8940 N   0  0  0  0  0  0  0  0  0  0  0  0
   43.8100   33.1320   42.4260 H   0  0  0  0  0  0  0  0  0  0  0  0
   45.1680   34.9040   41.2720 H   0  0  0  0  0  0  0  0  0  0  0  0
   46.9910   32.4480   45.5470 C   0  0  0  0  0  0  0  0  0  0  0  0
   46.7540   32.8720   46.7650 C   0  0  0  0  0  0  0  0  0  0  0  0
   47.2820   32.1710   47.9490 C   0  0  0  0  0  0  0  0  0  0  0  0
   48.3950   32.0740   47.7810 H   0  0  0  0  0  0  0  0  0  0  0  0
   47.1960   32.7390   48.8820 H   0  0  0  0  0  0  0  0  0  0  0  0
   45.7370   30.6680   48.9300 C   0  0  0  0  0  0  0  0  0  0  0  0
   45.2170   31.4940   49.7430 O   0  0  0  0  0  0  0  0  0  0  0  0
   46.8130   30.8150   48.0340 N   0  0  0  0  0  0  0  0  0  0  0  0
   47.1510   29.9930   47.5460 H   0  0  0  0  0  0  0  0  0  0  0  0
   45.0390   29.4410   49.0340 O   0  0  0  0  0  0  0  0  0  0  0  0
   44.8020   28.9800   49.9040 H   0  0  0  0  0  0  0  0  0  0  0  0
   47.5930   35.6780   42.0930 O   0  0  0  0  0  0  0  0  0  0  0  0
   48.5160   35.2390   41.0990 C   0  0  0  0  0  0  0  0  0  0  0  0
   47.8010   34.7440   40.0090 F   0  0  0  0  0  0  0  0  0  0  0  0
   49.2550   36.3620   40.6870 F   0  0  0  0  0  0  0  0  0  0  0  0
   49.4100   34.2850   41.5920 F   0  0  0  0  0  0  0  0  0  0  0  0
  1  6  1  0  0  0  0
  2  3  1  0  0  0  0
  2  1  2  0  0  0  0
  3  4  2  0  0  0  0
  4  5  1  0  0  0  0
  5  9  1  0  0  0  0
  6  5  2  0  0  0  0
  7  1  1  0  0  0  0
  8  2  1  0  0  0  0
  9 10  2  0  0  0  0
 10 11  1  0  0  0  0
 11 16  1  0  0  0  0
 11 13  1  0  0  0  0
 12 11  1  0  0  0  0
 14 18  1  0  0  0  0
 14 15  2  0  0  0  0
 16 14  1  0  0  0  0
 17 16  1  0  0  0  0
 18 19  1  0  0  0  0
 20  3  1  0  0  0  0
 21 24  1  0  0  0  0
 21 20  1  0  0  0  0
 22 21  1  0  0  0  0
 23 21  1  0  0  0  0
M  END
>  <minimizedAffinity>
-5.21103048

>  <minimizedRMSD>
0.84510988

$$$$
