REMARK  Name = 
REMARK  3 active torsions:
REMARK  status: ('A' for Active; 'I' for Inactive)
REMARK    1  A    between atoms: C_1  and  N_9
REMARK    2  A    between atoms: C_2  and  N_10
REMARK    3  A    between atoms: C_7  and  O_16
REMARK                            x       y       z     vdW  Elec       q    Type
REMARK                         _______ _______ _______ _____ _____    ______ ____
ROOT
ATOM      1  C   UNL     1      45.309  34.557  45.029  0.00  0.00    +0.000 A 
ATOM      2  C   UNL     1      45.265  33.940  46.267  0.00  0.00    +0.000 A 
ATOM      3  C   UNL     1      46.163  32.908  46.477  0.00  0.00    +0.000 A 
ATOM      4  N   UNL     1      47.000  32.582  45.480  0.00  0.00    +0.000 NA
ATOM      5  C   UNL     1      47.021  33.200  44.284  0.00  0.00    +0.000 A 
ATOM      6  N   UNL     1      46.158  34.215  44.040  0.00  0.00    +0.000 NA
ATOM      7  H   UNL     1      46.122  32.435  47.441  0.00  0.00    +0.000 HD
ATOM      8  H   UNL     1      47.747  32.823  43.599  0.00  0.00    +0.000 HD
ENDROOT
BRANCH   1  11
ATOM      9  C   UNL     1      43.968  35.382  43.301  0.00  0.00    +0.000 C 
ATOM     10  O   UNL     1      44.408  34.286  42.840  0.00  0.00    +0.000 OA
ATOM     11  N   UNL     1      44.454  35.655  44.615  0.00  0.00    +0.000 N 
ATOM     12  H   UNL     1      44.195  36.512  45.121  0.00  0.00    +0.000 HD
BRANCH   9  13
ATOM     13  O   UNL     1      43.101  36.272  42.648  0.00  0.00    +0.000 OA
ATOM     14  H   UNL     1      43.050  37.207  43.084  0.00  0.00    +0.000 HD
ENDBRANCH   9  13
ENDBRANCH   1  11
BRANCH   2  15
ATOM     15  N   UNL     1      44.308  34.425  47.196  0.00  0.00    +0.000 N 
ATOM     16  H   UNL     1      43.308  34.172  47.304  0.00  0.00    +0.000 HD
ATOM     17  H   UNL     1      44.745  35.138  47.835  0.00  0.00    +0.000 HD
ENDBRANCH   2  15
TORSDOF 3
