
 OpenBabel03252508523D

 21 22  0  0  0  0  0  0  0  0999 V2000
   38.5360   31.2830   40.8330 C   0  0  0  0  0  0  0  0  0  0  0  0
   37.3750   31.6380   40.1500 C   0  0  0  0  0  0  0  0  0  0  0  0
   37.2550   32.9740   39.7560 C   0  0  0  0  0  0  0  0  0  0  0  0
   38.2620   33.8320   40.0590 N   0  0  0  0  0  0  0  0  0  0  0  0
   39.3550   33.4450   40.7160 C   0  0  0  0  0  0  0  0  0  0  0  0
   39.5040   32.1610   41.1110 N   0  0  0  0  0  0  0  0  0  0  0  0
   36.3510   33.2790   39.2170 H   0  0  0  0  0  0  0  0  0  0  0  0
   40.1650   34.1180   40.9650 H   0  0  0  0  0  0  0  0  0  0  0  0
   36.3520   30.6370   39.8740 C   0  0  0  0  0  0  0  0  0  0  0  0
   36.2330   30.0060   38.6470 C   0  0  0  0  0  0  0  0  0  0  0  0
   35.1630   29.1550   38.8120 C   0  0  0  0  0  0  0  0  0  0  0  0
   34.6630   29.2640   40.0710 N   0  0  0  0  0  0  0  0  0  0  0  0
   35.3960   30.1600   40.6830 N   0  0  0  0  0  0  0  0  0  0  0  0
   36.8380   30.1490   37.7640 H   0  0  0  0  0  0  0  0  0  0  0  0
   34.8310   28.5130   37.9850 H   0  0  0  0  0  0  0  0  0  0  0  0
   33.8460   28.6780   40.3450 H   0  0  0  0  0  0  0  0  0  0  0  0
   38.6570   29.9550   41.2250 O   0  0  0  0  0  0  0  0  0  0  0  0
   38.2500   29.4530   42.4420 C   0  0  0  0  0  0  0  0  0  0  0  0
   38.9320   28.7840   43.2810 O   0  0  0  0  0  0  0  0  0  0  0  0
   37.1180   29.3930   43.2770 O   0  0  0  0  0  0  0  0  0  0  0  0
   36.4250   28.6520   43.2130 H   0  0  0  0  0  0  0  0  0  0  0  0
  1  6  1  0  0  0  0
  1 17  1  0  0  0  0
  2  1  2  0  0  0  0
  3  4  2  0  0  0  0
  3  2  1  0  0  0  0
  4  5  1  0  0  0  0
  5  8  1  0  0  0  0
  5  6  2  0  0  0  0
  7  3  1  0  0  0  0
  9  2  1  0  0  0  0
  9 13  2  0  0  0  0
 10 11  2  0  0  0  0
 10  9  1  0  0  0  0
 11 12  1  0  0  0  0
 12 16  1  0  0  0  0
 12 13  1  0  0  0  0
 14 10  1  0  0  0  0
 15 11  1  0  0  0  0
 17 18  1  0  0  0  0
 18 20  1  0  0  0  0
 18 19  2  0  0  0  0
 21 20  1  0  0  0  0
M  END
>  <minimizedAffinity>
-4.39011765

$$$$

 OpenBabel03252508523D

 21 22  0  0  0  0  0  0  0  0999 V2000
   37.3020   28.0970   40.3700 C   0  0  0  0  0  0  0  0  0  0  0  0
   36.6130   28.9650   39.5260 C   0  0  0  0  0  0  0  0  0  0  0  0
   35.7910   28.3860   38.5560 C   0  0  0  0  0  0  0  0  0  0  0  0
   35.7140   27.0320   38.4950 N   0  0  0  0  0  0  0  0  0  0  0  0
   36.3940   26.2420   39.3260 C   0  0  0  0  0  0  0  0  0  0  0  0
   37.1970   26.7680   40.2760 N   0  0  0  0  0  0  0  0  0  0  0  0
   35.2380   29.0460   37.8790 H   0  0  0  0  0  0  0  0  0  0  0  0
   36.3420   25.1610   39.2880 H   0  0  0  0  0  0  0  0  0  0  0  0
   36.7660   30.4070   39.6750 C   0  0  0  0  0  0  0  0  0  0  0  0
   37.3850   31.1980   38.7210 C   0  0  0  0  0  0  0  0  0  0  0  0
   37.3170   32.4680   39.2470 C   0  0  0  0  0  0  0  0  0  0  0  0
   36.6900   32.4480   40.4520 N   0  0  0  0  0  0  0  0  0  0  0  0
   36.3720   31.1990   40.6810 N   0  0  0  0  0  0  0  0  0  0  0  0
   37.8210   30.8890   37.7840 H   0  0  0  0  0  0  0  0  0  0  0  0
   37.7380   33.3210   38.6960 H   0  0  0  0  0  0  0  0  0  0  0  0
   36.5630   33.3420   40.9730 H   0  0  0  0  0  0  0  0  0  0  0  0
   38.1200   28.6720   41.3350 O   0  0  0  0  0  0  0  0  0  0  0  0
   37.8930   28.6180   42.6940 C   0  0  0  0  0  0  0  0  0  0  0  0
   38.5380   27.9590   43.5700 O   0  0  0  0  0  0  0  0  0  0  0  0
   37.0270   29.1290   43.6790 O   0  0  0  0  0  0  0  0  0  0  0  0
   36.1580   28.6720   43.9400 H   0  0  0  0  0  0  0  0  0  0  0  0
  1 17  1  0  0  0  0
  2  9  1  0  0  0  0
  2  1  2  0  0  0  0
  3  2  1  0  0  0  0
  4  3  2  0  0  0  0
  4  5  1  0  0  0  0
  5  6  2  0  0  0  0
  6  1  1  0  0  0  0
  7  3  1  0  0  0  0
  8  5  1  0  0  0  0
  9 13  2  0  0  0  0
 10 11  2  0  0  0  0
 10  9  1  0  0  0  0
 11 12  1  0  0  0  0
 12 13  1  0  0  0  0
 12 16  1  0  0  0  0
 14 10  1  0  0  0  0
 15 11  1  0  0  0  0
 17 18  1  0  0  0  0
 18 19  2  0  0  0  0
 18 20  1  0  0  0  0
 20 21  1  0  0  0  0
M  END
>  <minimizedAffinity>
-4.33739662

$$$$

 OpenBabel03252508523D

 21 22  0  0  0  0  0  0  0  0999 V2000
   36.6550   30.4560   39.5310 C   0  0  0  0  0  0  0  0  0  0  0  0
   37.5540   31.3300   38.9270 C   0  0  0  0  0  0  0  0  0  0  0  0
   37.7000   31.2330   37.5410 C   0  0  0  0  0  0  0  0  0  0  0  0
   36.9660   30.3040   36.8750 N   0  0  0  0  0  0  0  0  0  0  0  0
   36.1170   29.4880   37.4980 C   0  0  0  0  0  0  0  0  0  0  0  0
   35.9510   29.5560   38.8380 N   0  0  0  0  0  0  0  0  0  0  0  0
   38.4020   31.9100   37.0410 H   0  0  0  0  0  0  0  0  0  0  0  0
   35.5260   28.7420   36.9810 H   0  0  0  0  0  0  0  0  0  0  0  0
   38.2950   32.2930   39.7340 C   0  0  0  0  0  0  0  0  0  0  0  0
   37.9000   33.6130   39.8750 C   0  0  0  0  0  0  0  0  0  0  0  0
   38.8570   34.1600   40.7000 C   0  0  0  0  0  0  0  0  0  0  0  0
   39.7790   33.2220   41.0420 N   0  0  0  0  0  0  0  0  0  0  0  0
   39.4150   32.1140   40.4470 N   0  0  0  0  0  0  0  0  0  0  0  0
   37.0430   34.1010   39.4380 H   0  0  0  0  0  0  0  0  0  0  0  0
   38.8010   35.2180   40.9910 H   0  0  0  0  0  0  0  0  0  0  0  0
   40.5680   33.4910   41.6670 H   0  0  0  0  0  0  0  0  0  0  0  0
   36.5090   30.5520   40.9100 O   0  0  0  0  0  0  0  0  0  0  0  0
   36.9690   29.6220   41.8170 C   0  0  0  0  0  0  0  0  0  0  0  0
   37.6640   28.5820   41.5880 O   0  0  0  0  0  0  0  0  0  0  0  0
   36.9490   29.3360   43.1950 O   0  0  0  0  0  0  0  0  0  0  0  0
   36.2180   28.7810   43.6330 H   0  0  0  0  0  0  0  0  0  0  0  0
  1 17  1  0  0  0  0
  2  1  1  0  0  0  0
  2  9  1  0  0  0  0
  3  2  2  0  0  0  0
  4  5  2  0  0  0  0
  4  3  1  0  0  0  0
  5  6  1  0  0  0  0
  6  1  2  0  0  0  0
  7  3  1  0  0  0  0
  8  5  1  0  0  0  0
  9 10  1  0  0  0  0
  9 13  2  0  0  0  0
 10 11  2  0  0  0  0
 11 15  1  0  0  0  0
 11 12  1  0  0  0  0
 12 16  1  0  0  0  0
 13 12  1  0  0  0  0
 14 10  1  0  0  0  0
 17 18  1  0  0  0  0
 18 20  1  0  0  0  0
 19 18  2  0  0  0  0
 20 21  1  0  0  0  0
M  END
>  <minimizedAffinity>
-4.28904057

$$$$

 OpenBabel03252508523D

 21 22  0  0  0  0  0  0  0  0999 V2000
   39.0230   25.2760   42.3740 C   0  0  0  0  0  0  0  0  0  0  0  0
   37.9110   26.0110   41.9720 C   0  0  0  0  0  0  0  0  0  0  0  0
   37.0170   25.3850   41.1000 C   0  0  0  0  0  0  0  0  0  0  0  0
   37.2830   24.1140   40.7020 N   0  0  0  0  0  0  0  0  0  0  0  0
   38.3620   23.4500   41.1140 C   0  0  0  0  0  0  0  0  0  0  0  0
   39.2470   24.0260   41.9580 N   0  0  0  0  0  0  0  0  0  0  0  0
   36.1330   25.9420   40.7690 H   0  0  0  0  0  0  0  0  0  0  0  0
   38.5870   22.4370   40.8040 H   0  0  0  0  0  0  0  0  0  0  0  0
   37.7180   27.3720   42.4590 C   0  0  0  0  0  0  0  0  0  0  0  0
   38.1390   28.4870   41.7530 C   0  0  0  0  0  0  0  0  0  0  0  0
   37.7700   29.5460   42.5520 C   0  0  0  0  0  0  0  0  0  0  0  0
   37.1580   29.0970   43.6790 N   0  0  0  0  0  0  0  0  0  0  0  0
   37.1430   27.7910   43.5940 N   0  0  0  0  0  0  0  0  0  0  0  0
   38.6410   28.5190   40.7980 H   0  0  0  0  0  0  0  0  0  0  0  0
   37.9810   30.5780   42.2390 H   0  0  0  0  0  0  0  0  0  0  0  0
   36.8220   29.7880   44.3830 H   0  0  0  0  0  0  0  0  0  0  0  0
   39.9130   25.8980   43.2410 O   0  0  0  0  0  0  0  0  0  0  0  0
   41.2650   25.6400   43.3010 C   0  0  0  0  0  0  0  0  0  0  0  0
   42.1960   26.4200   43.6800 O   0  0  0  0  0  0  0  0  0  0  0  0
   42.1940   24.6150   43.0430 O   0  0  0  0  0  0  0  0  0  0  0  0
   42.6370   24.4870   42.1370 H   0  0  0  0  0  0  0  0  0  0  0  0
  1 17  1  0  0  0  0
  2  1  1  0  0  0  0
  2  9  1  0  0  0  0
  3  2  2  0  0  0  0
  4  3  1  0  0  0  0
  4  5  2  0  0  0  0
  5  6  1  0  0  0  0
  6  1  2  0  0  0  0
  7  3  1  0  0  0  0
  8  5  1  0  0  0  0
  9 13  2  0  0  0  0
 10  9  1  0  0  0  0
 10 11  2  0  0  0  0
 11 12  1  0  0  0  0
 12 16  1  0  0  0  0
 13 12  1  0  0  0  0
 14 10  1  0  0  0  0
 15 11  1  0  0  0  0
 17 18  1  0  0  0  0
 18 19  2  0  0  0  0
 20 18  1  0  0  0  0
 21 20  1  0  0  0  0
M  END
>  <minimizedAffinity>
-4.26956987

$$$$

 OpenBabel03252508523D

 21 22  0  0  0  0  0  0  0  0999 V2000
   39.4300   31.0990   39.7590 C   0  0  0  0  0  0  0  0  0  0  0  0
   38.8390   30.7800   40.9790 C   0  0  0  0  0  0  0  0  0  0  0  0
   39.5950   31.0150   42.1300 C   0  0  0  0  0  0  0  0  0  0  0  0
   40.8430   31.5320   41.9920 N   0  0  0  0  0  0  0  0  0  0  0  0
   41.3660   31.8210   40.8020 C   0  0  0  0  0  0  0  0  0  0  0  0
   40.6630   31.6070   39.6680 N   0  0  0  0  0  0  0  0  0  0  0  0
   39.1530   30.7720   43.1030 H   0  0  0  0  0  0  0  0  0  0  0  0
   42.3600   32.2330   40.6770 H   0  0  0  0  0  0  0  0  0  0  0  0
   37.4900   30.2270   41.0160 C   0  0  0  0  0  0  0  0  0  0  0  0
   37.2400   28.8680   41.1100 C   0  0  0  0  0  0  0  0  0  0  0  0
   35.8660   28.7820   41.1150 C   0  0  0  0  0  0  0  0  0  0  0  0
   35.3150   30.0220   41.0300 N   0  0  0  0  0  0  0  0  0  0  0  0
   36.3140   30.8660   40.9720 N   0  0  0  0  0  0  0  0  0  0  0  0
   37.9560   28.0620   41.1660 H   0  0  0  0  0  0  0  0  0  0  0  0
   35.3700   27.8040   41.1830 H   0  0  0  0  0  0  0  0  0  0  0  0
   34.2760   30.1150   41.0230 H   0  0  0  0  0  0  0  0  0  0  0  0
   38.6790   30.8650   38.6130 O   0  0  0  0  0  0  0  0  0  0  0  0
   38.7270   31.6340   37.4700 C   0  0  0  0  0  0  0  0  0  0  0  0
   37.7790   31.9040   36.6670 O   0  0  0  0  0  0  0  0  0  0  0  0
   39.6290   32.3900   36.6980 O   0  0  0  0  0  0  0  0  0  0  0  0
   40.1830   31.9890   35.9460 H   0  0  0  0  0  0  0  0  0  0  0  0
  1  2  1  0  0  0  0
  2  9  1  0  0  0  0
  2  3  2  0  0  0  0
  3  7  1  0  0  0  0
  4  3  1  0  0  0  0
  5  4  2  0  0  0  0
  6  1  2  0  0  0  0
  6  5  1  0  0  0  0
  8  5  1  0  0  0  0
  9 10  1  0  0  0  0
 10 11  2  0  0  0  0
 10 14  1  0  0  0  0
 11 15  1  0  0  0  0
 12 11  1  0  0  0  0
 13  9  2  0  0  0  0
 13 12  1  0  0  0  0
 16 12  1  0  0  0  0
 17  1  1  0  0  0  0
 18 17  1  0  0  0  0
 19 18  2  0  0  0  0
 20 18  1  0  0  0  0
 21 20  1  0  0  0  0
M  END
>  <minimizedAffinity>
-4.23077202

$$$$

 OpenBabel03252508523D

 21 22  0  0  0  0  0  0  0  0999 V2000
   39.4550   25.7570   42.8180 C   0  0  0  0  0  0  0  0  0  0  0  0
   39.7000   27.1240   42.9230 C   0  0  0  0  0  0  0  0  0  0  0  0
   41.0170   27.5150   43.1750 C   0  0  0  0  0  0  0  0  0  0  0  0
   41.9670   26.5530   43.3000 N   0  0  0  0  0  0  0  0  0  0  0  0
   41.6840   25.2550   43.1930 C   0  0  0  0  0  0  0  0  0  0  0  0
   40.4210   24.8420   42.9490 N   0  0  0  0  0  0  0  0  0  0  0  0
   41.2360   28.5850   43.2620 H   0  0  0  0  0  0  0  0  0  0  0  0
   42.4300   24.4770   43.2910 H   0  0  0  0  0  0  0  0  0  0  0  0
   38.6070   28.0770   42.7710 C   0  0  0  0  0  0  0  0  0  0  0  0
   38.3370   28.7230   41.5760 C   0  0  0  0  0  0  0  0  0  0  0  0
   37.2500   29.5160   41.8650 C   0  0  0  0  0  0  0  0  0  0  0  0
   36.8800   29.3580   43.1630 N   0  0  0  0  0  0  0  0  0  0  0  0
   37.7130   28.4900   43.6790 N   0  0  0  0  0  0  0  0  0  0  0  0
   38.8590   28.6280   40.6360 H   0  0  0  0  0  0  0  0  0  0  0  0
   36.8070   30.1560   41.0890 H   0  0  0  0  0  0  0  0  0  0  0  0
   36.0670   29.8980   43.5280 H   0  0  0  0  0  0  0  0  0  0  0  0
   38.1450   25.3670   42.5680 O   0  0  0  0  0  0  0  0  0  0  0  0
   37.7800   24.2430   41.8580 C   0  0  0  0  0  0  0  0  0  0  0  0
   36.6880   24.0250   41.2440 O   0  0  0  0  0  0  0  0  0  0  0  0
   38.2720   22.9800   41.4820 O   0  0  0  0  0  0  0  0  0  0  0  0
   38.1470   22.1470   42.0510 H   0  0  0  0  0  0  0  0  0  0  0  0
  1  2  2  0  0  0  0
  1  6  1  0  0  0  0
  2  3  1  0  0  0  0
  3  7  1  0  0  0  0
  3  4  2  0  0  0  0
  5  8  1  0  0  0  0
  5  4  1  0  0  0  0
  6  5  2  0  0  0  0
  9  2  1  0  0  0  0
  9 13  2  0  0  0  0
 10 11  2  0  0  0  0
 10  9  1  0  0  0  0
 11 12  1  0  0  0  0
 12 16  1  0  0  0  0
 12 13  1  0  0  0  0
 14 10  1  0  0  0  0
 15 11  1  0  0  0  0
 17  1  1  0  0  0  0
 18 17  1  0  0  0  0
 19 18  2  0  0  0  0
 20 18  1  0  0  0  0
 20 21  1  0  0  0  0
M  END
>  <minimizedAffinity>
-4.21744204

$$$$

 OpenBabel03252508523D

 21 22  0  0  0  0  0  0  0  0999 V2000
   37.1430   25.3670   41.0510 C   0  0  0  0  0  0  0  0  0  0  0  0
   36.9410   26.7280   40.8370 C   0  0  0  0  0  0  0  0  0  0  0  0
   36.4240   27.1050   39.5950 C   0  0  0  0  0  0  0  0  0  0  0  0
   36.1540   26.1350   38.6840 N   0  0  0  0  0  0  0  0  0  0  0  0
   36.3650   24.8430   38.9350 C   0  0  0  0  0  0  0  0  0  0  0  0
   36.8630   24.4440   40.1260 N   0  0  0  0  0  0  0  0  0  0  0  0
   36.2560   28.1700   39.4010 H   0  0  0  0  0  0  0  0  0  0  0  0
   36.1550   24.0600   38.2180 H   0  0  0  0  0  0  0  0  0  0  0  0
   37.2650   27.6900   41.8840 C   0  0  0  0  0  0  0  0  0  0  0  0
   38.4460   28.4140   41.8970 C   0  0  0  0  0  0  0  0  0  0  0  0
   38.3500   29.1860   43.0320 C   0  0  0  0  0  0  0  0  0  0  0  0
   37.1760   28.9440   43.6710 N   0  0  0  0  0  0  0  0  0  0  0  0
   36.5480   28.0430   42.9590 N   0  0  0  0  0  0  0  0  0  0  0  0
   39.2540   28.3800   41.1830 H   0  0  0  0  0  0  0  0  0  0  0  0
   39.1610   29.8760   43.3050 H   0  0  0  0  0  0  0  0  0  0  0  0
   36.9620   29.4590   44.5520 H   0  0  0  0  0  0  0  0  0  0  0  0
   37.6570   24.9910   42.2860 O   0  0  0  0  0  0  0  0  0  0  0  0
   38.9440   24.5460   42.5020 C   0  0  0  0  0  0  0  0  0  0  0  0
   40.0110   24.9240   41.9220 O   0  0  0  0  0  0  0  0  0  0  0  0
   39.6670   23.6330   43.2910 O   0  0  0  0  0  0  0  0  0  0  0  0
   39.8280   22.6690   43.0120 H   0  0  0  0  0  0  0  0  0  0  0  0
  1 17  1  0  0  0  0
  2  1  1  0  0  0  0
  2  9  1  0  0  0  0
  3  2  2  0  0  0  0
  4  5  2  0  0  0  0
  4  3  1  0  0  0  0
  5  6  1  0  0  0  0
  6  1  2  0  0  0  0
  7  3  1  0  0  0  0
  8  5  1  0  0  0  0
  9 10  1  0  0  0  0
  9 13  2  0  0  0  0
 10 11  2  0  0  0  0
 11 15  1  0  0  0  0
 11 12  1  0  0  0  0
 12 16  1  0  0  0  0
 13 12  1  0  0  0  0
 14 10  1  0  0  0  0
 17 18  1  0  0  0  0
 18 20  1  0  0  0  0
 19 18  2  0  0  0  0
 21 20  1  0  0  0  0
M  END
>  <minimizedAffinity>
-4.18550396

$$$$

 OpenBabel03252508523D

 21 22  0  0  0  0  0  0  0  0999 V2000
   36.5820   26.5310   40.0000 C   0  0  0  0  0  0  0  0  0  0  0  0
   37.0000   26.2510   41.2980 C   0  0  0  0  0  0  0  0  0  0  0  0
   37.0440   24.9060   41.6740 C   0  0  0  0  0  0  0  0  0  0  0  0
   36.6800   23.9660   40.7630 N   0  0  0  0  0  0  0  0  0  0  0  0
   36.2860   24.2840   39.5310 C   0  0  0  0  0  0  0  0  0  0  0  0
   36.2330   25.5750   39.1340 N   0  0  0  0  0  0  0  0  0  0  0  0
   37.3690   24.6580   42.6900 H   0  0  0  0  0  0  0  0  0  0  0  0
   35.9930   23.5460   38.7950 H   0  0  0  0  0  0  0  0  0  0  0  0
   37.3700   27.3360   42.1990 C   0  0  0  0  0  0  0  0  0  0  0  0
   38.6690   27.8020   42.3170 C   0  0  0  0  0  0  0  0  0  0  0  0
   38.5780   28.8070   43.2540 C   0  0  0  0  0  0  0  0  0  0  0  0
   37.2940   28.9430   43.6780 N   0  0  0  0  0  0  0  0  0  0  0  0
   36.5950   28.0470   43.0280 N   0  0  0  0  0  0  0  0  0  0  0  0
   39.5490   27.4560   41.7970 H   0  0  0  0  0  0  0  0  0  0  0  0
   39.4730   29.3690   43.5550 H   0  0  0  0  0  0  0  0  0  0  0  0
   37.0710   29.6690   44.3920 H   0  0  0  0  0  0  0  0  0  0  0  0
   36.5390   27.8690   39.6250 O   0  0  0  0  0  0  0  0  0  0  0  0
   35.4570   28.7030   39.8080 C   0  0  0  0  0  0  0  0  0  0  0  0
   34.4720   28.8920   39.0260 O   0  0  0  0  0  0  0  0  0  0  0  0
   34.9280   29.6190   40.7350 O   0  0  0  0  0  0  0  0  0  0  0  0
   35.1570   30.6100   40.7250 H   0  0  0  0  0  0  0  0  0  0  0  0
  1  2  1  0  0  0  0
  2  3  2  0  0  0  0
  2  9  1  0  0  0  0
  3  7  1  0  0  0  0
  4  3  1  0  0  0  0
  5  4  2  0  0  0  0
  6  5  1  0  0  0  0
  6  1  2  0  0  0  0
  8  5  1  0  0  0  0
  9 10  1  0  0  0  0
  9 13  2  0  0  0  0
 10 11  2  0  0  0  0
 11 15  1  0  0  0  0
 11 12  1  0  0  0  0
 12 16  1  0  0  0  0
 13 12  1  0  0  0  0
 14 10  1  0  0  0  0
 17 18  1  0  0  0  0
 17  1  1  0  0  0  0
 18 20  1  0  0  0  0
 19 18  2  0  0  0  0
 21 20  1  0  0  0  0
M  END
>  <minimizedAffinity>
-4.14281034

$$$$

 OpenBabel03252508523D

 21 22  0  0  0  0  0  0  0  0999 V2000
   37.2420   27.8090   41.6850 C   0  0  0  0  0  0  0  0  0  0  0  0
   37.8910   26.5790   41.7540 C   0  0  0  0  0  0  0  0  0  0  0  0
   38.9620   26.4770   42.6450 C   0  0  0  0  0  0  0  0  0  0  0  0
   39.3010   27.5670   43.3800 N   0  0  0  0  0  0  0  0  0  0  0  0
   38.6490   28.7250   43.2780 C   0  0  0  0  0  0  0  0  0  0  0  0
   37.6080   28.8590   42.4270 N   0  0  0  0  0  0  0  0  0  0  0  0
   39.4900   25.5190   42.7180 H   0  0  0  0  0  0  0  0  0  0  0  0
   38.9090   29.6020   43.8570 H   0  0  0  0  0  0  0  0  0  0  0  0
   37.4470   25.4690   40.9200 C   0  0  0  0  0  0  0  0  0  0  0  0
   36.6790   24.4240   41.4090 C   0  0  0  0  0  0  0  0  0  0  0  0
   36.4870   23.6110   40.3150 C   0  0  0  0  0  0  0  0  0  0  0  0
   37.1030   24.1350   39.2230 N   0  0  0  0  0  0  0  0  0  0  0  0
   37.6700   25.2480   39.6180 N   0  0  0  0  0  0  0  0  0  0  0  0
   36.3170   24.2810   42.4160 H   0  0  0  0  0  0  0  0  0  0  0  0
   35.9020   22.6860   40.4060 H   0  0  0  0  0  0  0  0  0  0  0  0
   37.0440   23.6270   38.3150 H   0  0  0  0  0  0  0  0  0  0  0  0
   36.1760   27.9120   40.7990 O   0  0  0  0  0  0  0  0  0  0  0  0
   35.4140   29.0460   40.6120 C   0  0  0  0  0  0  0  0  0  0  0  0
   34.3770   29.1820   39.8880 O   0  0  0  0  0  0  0  0  0  0  0  0
   35.3450   30.3940   41.0090 O   0  0  0  0  0  0  0  0  0  0  0  0
   35.8210   31.1410   40.5100 H   0  0  0  0  0  0  0  0  0  0  0  0
  1  2  2  0  0  0  0
  1  6  1  0  0  0  0
  2  3  1  0  0  0  0
  3  7  1  0  0  0  0
  3  4  2  0  0  0  0
  5  4  1  0  0  0  0
  5  8  1  0  0  0  0
  6  5  2  0  0  0  0
  9 10  1  0  0  0  0
  9  2  1  0  0  0  0
 10 14  1  0  0  0  0
 11 15  1  0  0  0  0
 11 10  2  0  0  0  0
 12 13  1  0  0  0  0
 12 11  1  0  0  0  0
 13  9  2  0  0  0  0
 16 12  1  0  0  0  0
 17  1  1  0  0  0  0
 18 17  1  0  0  0  0
 18 20  1  0  0  0  0
 19 18  2  0  0  0  0
 21 20  1  0  0  0  0
M  END
>  <minimizedAffinity>
-4.14171171

$$$$
