
 OpenBabel03242515143D

 20 20  0  0  0  0  0  0  0  0999 V2000
   38.2390   28.4110   43.4120 C   0  0  0  0  0  0  0  0  0  0  0  0
   38.5030   27.0240   43.2920 C   0  0  0  0  0  0  0  0  0  0  0  0
   37.7830   26.3350   42.3110 C   0  0  0  0  0  0  0  0  0  0  0  0
   36.8870   27.0160   41.5370 N   0  0  0  0  0  0  0  0  0  0  0  0
   36.6850   28.3530   41.7100 C   0  0  0  0  0  0  0  0  0  0  0  0
   37.3480   29.0460   42.6300 N   0  0  0  0  0  0  0  0  0  0  0  0
   38.7680   28.9760   44.1500 H   0  0  0  0  0  0  0  0  0  0  0  0
   39.2310   26.5580   43.9470 H   0  0  0  0  0  0  0  0  0  0  0  0
   38.0760   24.9050   42.2110 C   0  0  0  0  0  0  0  0  0  0  0  0
   38.4980   24.6250   40.9130 F   0  0  0  0  0  0  0  0  0  0  0  0
   36.8380   24.2550   42.3360 F   0  0  0  0  0  0  0  0  0  0  0  0
   39.0030   24.4670   43.0770 F   0  0  0  0  0  0  0  0  0  0  0  0
   35.6480   28.8280   40.7560 C   0  0  0  0  0  0  0  0  0  0  0  0
   34.6900   28.8070   41.3490 H   0  0  0  0  0  0  0  0  0  0  0  0
   35.6130   28.2000   39.8480 H   0  0  0  0  0  0  0  0  0  0  0  0
   35.8540   30.2330   40.3160 C   0  0  0  0  0  0  0  0  0  0  0  0
   35.2320   30.5510   39.4710 H   0  0  0  0  0  0  0  0  0  0  0  0
   36.9310   30.3610   40.0880 H   0  0  0  0  0  0  0  0  0  0  0  0
   35.5970   31.0710   41.4240 O   0  0  0  0  0  0  0  0  0  0  0  0
   34.6680   31.4350   41.3550 H   0  0  0  0  0  0  0  0  0  0  0  0
  1  7  1  0  0  0  0
  2  1  1  0  0  0  0
  2  8  1  0  0  0  0
  3  2  2  0  0  0  0
  4  5  2  0  0  0  0
  4  3  1  0  0  0  0
  5  6  1  0  0  0  0
  6  1  2  0  0  0  0
  9  3  1  0  0  0  0
  9 11  1  0  0  0  0
  9 12  1  0  0  0  0
 10  9  1  0  0  0  0
 13 14  1  0  0  0  0
 13  5  1  0  0  0  0
 15 13  1  0  0  0  0
 16 13  1  0  0  0  0
 16 19  1  0  0  0  0
 17 16  1  0  0  0  0
 18 16  1  0  0  0  0
 20 19  1  0  0  0  0
M  END
>  <minimizedAffinity>
-4.52254677

$$$$

 OpenBabel03242515143D

 20 20  0  0  0  0  0  0  0  0999 V2000
   39.5730   29.7130   41.8800 C   0  0  0  0  0  0  0  0  0  0  0  0
   39.0260   28.5080   42.3900 C   0  0  0  0  0  0  0  0  0  0  0  0
   37.6680   28.2850   42.1420 C   0  0  0  0  0  0  0  0  0  0  0  0
   36.9560   29.2140   41.4380 N   0  0  0  0  0  0  0  0  0  0  0  0
   37.5500   30.3510   40.9780 C   0  0  0  0  0  0  0  0  0  0  0  0
   38.8370   30.6030   41.1910 N   0  0  0  0  0  0  0  0  0  0  0  0
   40.6080   29.9220   42.0480 H   0  0  0  0  0  0  0  0  0  0  0  0
   39.6610   27.8220   42.9400 H   0  0  0  0  0  0  0  0  0  0  0  0
   37.1330   27.0350   42.6800 C   0  0  0  0  0  0  0  0  0  0  0  0
   38.1950   26.2530   43.1330 F   0  0  0  0  0  0  0  0  0  0  0  0
   36.6170   26.3370   41.5770 F   0  0  0  0  0  0  0  0  0  0  0  0
   36.2500   27.1940   43.6790 F   0  0  0  0  0  0  0  0  0  0  0  0
   36.5430   31.1880   40.2700 C   0  0  0  0  0  0  0  0  0  0  0  0
   35.9790   31.7060   41.0950 H   0  0  0  0  0  0  0  0  0  0  0  0
   35.8970   30.5780   39.6150 H   0  0  0  0  0  0  0  0  0  0  0  0
   37.1520   32.2510   39.4270 C   0  0  0  0  0  0  0  0  0  0  0  0
   36.7960   32.2830   38.3910 H   0  0  0  0  0  0  0  0  0  0  0  0
   38.2520   32.1250   39.4670 H   0  0  0  0  0  0  0  0  0  0  0  0
   36.8890   33.4930   40.0470 O   0  0  0  0  0  0  0  0  0  0  0  0
   36.1000   33.9230   39.6050 H   0  0  0  0  0  0  0  0  0  0  0  0
  1  7  1  0  0  0  0
  1  2  1  0  0  0  0
  2  8  1  0  0  0  0
  3  2  2  0  0  0  0
  3  9  1  0  0  0  0
  4  3  1  0  0  0  0
  5  6  1  0  0  0  0
  5  4  2  0  0  0  0
  6  1  2  0  0  0  0
  9 10  1  0  0  0  0
  9 12  1  0  0  0  0
 11  9  1  0  0  0  0
 13  5  1  0  0  0  0
 13 14  1  0  0  0  0
 15 13  1  0  0  0  0
 16 18  1  0  0  0  0
 16 19  1  0  0  0  0
 16 13  1  0  0  0  0
 17 16  1  0  0  0  0
 20 19  1  0  0  0  0
M  END
>  <minimizedAffinity>
-4.13427258

$$$$

 OpenBabel03242515143D

 20 20  0  0  0  0  0  0  0  0999 V2000
   36.6330   27.5520   39.2470 C   0  0  0  0  0  0  0  0  0  0  0  0
   36.5810   26.9090   40.5090 C   0  0  0  0  0  0  0  0  0  0  0  0
   37.0290   27.6510   41.6060 C   0  0  0  0  0  0  0  0  0  0  0  0
   37.4820   28.9260   41.4120 N   0  0  0  0  0  0  0  0  0  0  0  0
   37.5030   29.4790   40.1670 C   0  0  0  0  0  0  0  0  0  0  0  0
   37.0860   28.8100   39.0970 N   0  0  0  0  0  0  0  0  0  0  0  0
   36.3000   27.0200   38.3820 H   0  0  0  0  0  0  0  0  0  0  0  0
   36.2070   25.8940   40.5780 H   0  0  0  0  0  0  0  0  0  0  0  0
   36.9640   26.9620   42.8940 C   0  0  0  0  0  0  0  0  0  0  0  0
   38.1580   27.1810   43.5800 F   0  0  0  0  0  0  0  0  0  0  0  0
   36.9690   25.5910   42.5910 F   0  0  0  0  0  0  0  0  0  0  0  0
   35.9370   27.3370   43.6740 F   0  0  0  0  0  0  0  0  0  0  0  0
   38.0590   30.8570   40.2430 C   0  0  0  0  0  0  0  0  0  0  0  0
   38.4390   31.0640   39.2030 H   0  0  0  0  0  0  0  0  0  0  0  0
   38.8420   30.9360   41.0180 H   0  0  0  0  0  0  0  0  0  0  0  0
   37.0320   31.8890   40.5430 C   0  0  0  0  0  0  0  0  0  0  0  0
   36.8010   32.5690   39.7150 H   0  0  0  0  0  0  0  0  0  0  0  0
   37.3700   32.4510   41.4370 H   0  0  0  0  0  0  0  0  0  0  0  0
   35.8530   31.2190   40.9390 O   0  0  0  0  0  0  0  0  0  0  0  0
   35.2280   31.1630   40.1600 H   0  0  0  0  0  0  0  0  0  0  0  0
  1  2  1  0  0  0  0
  2  8  1  0  0  0  0
  2  3  2  0  0  0  0
  3  9  1  0  0  0  0
  4  3  1  0  0  0  0
  5 13  1  0  0  0  0
  5  4  2  0  0  0  0
  6  1  2  0  0  0  0
  6  5  1  0  0  0  0
  7  1  1  0  0  0  0
  9 10  1  0  0  0  0
  9 12  1  0  0  0  0
 11  9  1  0  0  0  0
 13 16  1  0  0  0  0
 13 15  1  0  0  0  0
 14 13  1  0  0  0  0
 16 19  1  0  0  0  0
 16 18  1  0  0  0  0
 17 16  1  0  0  0  0
 20 19  1  0  0  0  0
M  END
>  <minimizedAffinity>
-4.03553534

$$$$

 OpenBabel03242515143D

 20 20  0  0  0  0  0  0  0  0999 V2000
   37.0610   30.4750   37.2840 C   0  0  0  0  0  0  0  0  0  0  0  0
   37.6410   31.6540   37.8140 C   0  0  0  0  0  0  0  0  0  0  0  0
   37.3790   31.9280   39.1590 C   0  0  0  0  0  0  0  0  0  0  0  0
   36.5990   31.0670   39.8780 N   0  0  0  0  0  0  0  0  0  0  0  0
   36.0740   29.9500   39.3000 C   0  0  0  0  0  0  0  0  0  0  0  0
   36.2970   29.6520   38.0240 N   0  0  0  0  0  0  0  0  0  0  0  0
   37.2370   30.2280   36.2580 H   0  0  0  0  0  0  0  0  0  0  0  0
   38.2490   32.2860   37.1750 H   0  0  0  0  0  0  0  0  0  0  0  0
   37.9910   33.1520   39.6770 C   0  0  0  0  0  0  0  0  0  0  0  0
   38.1270   33.0320   41.0600 F   0  0  0  0  0  0  0  0  0  0  0  0
   37.0310   34.1610   39.4970 F   0  0  0  0  0  0  0  0  0  0  0  0
   39.1870   33.4440   39.1430 F   0  0  0  0  0  0  0  0  0  0  0  0
   35.2540   29.2110   40.2980 C   0  0  0  0  0  0  0  0  0  0  0  0
   34.7030   28.4380   39.6910 H   0  0  0  0  0  0  0  0  0  0  0  0
   34.5820   29.8890   40.8530 H   0  0  0  0  0  0  0  0  0  0  0  0
   36.0700   28.4760   41.2990 C   0  0  0  0  0  0  0  0  0  0  0  0
   36.9430   27.9520   40.8930 H   0  0  0  0  0  0  0  0  0  0  0  0
   35.3980   27.7740   41.8320 H   0  0  0  0  0  0  0  0  0  0  0  0
   36.4970   29.4070   42.2720 O   0  0  0  0  0  0  0  0  0  0  0  0
   37.4340   29.6920   42.0670 H   0  0  0  0  0  0  0  0  0  0  0  0
  1  2  2  0  0  0  0
  1  6  1  0  0  0  0
  2  3  1  0  0  0  0
  3  9  1  0  0  0  0
  3  4  2  0  0  0  0
  5  4  1  0  0  0  0
  5 13  1  0  0  0  0
  6  5  2  0  0  0  0
  7  1  1  0  0  0  0
  8  2  1  0  0  0  0
  9 10  1  0  0  0  0
 11  9  1  0  0  0  0
 12  9  1  0  0  0  0
 13 15  1  0  0  0  0
 13 16  1  0  0  0  0
 14 13  1  0  0  0  0
 16 18  1  0  0  0  0
 16 19  1  0  0  0  0
 17 16  1  0  0  0  0
 20 19  1  0  0  0  0
M  END
>  <minimizedAffinity>
-3.86711693

$$$$

 OpenBabel03242515143D

 20 20  0  0  0  0  0  0  0  0999 V2000
   36.3270   30.9130   40.9440 C   0  0  0  0  0  0  0  0  0  0  0  0
   37.0140   29.9640   41.7420 C   0  0  0  0  0  0  0  0  0  0  0  0
   38.4090   30.0500   41.7520 C   0  0  0  0  0  0  0  0  0  0  0  0
   39.0250   31.0210   41.0140 N   0  0  0  0  0  0  0  0  0  0  0  0
   38.2970   31.9020   40.2690 C   0  0  0  0  0  0  0  0  0  0  0  0
   36.9700   31.8550   40.2310 N   0  0  0  0  0  0  0  0  0  0  0  0
   35.2590   30.8820   40.9080 H   0  0  0  0  0  0  0  0  0  0  0  0
   36.4500   29.2240   42.2990 H   0  0  0  0  0  0  0  0  0  0  0  0
   39.0900   29.0580   42.5830 C   0  0  0  0  0  0  0  0  0  0  0  0
   40.3260   29.5720   42.9720 F   0  0  0  0  0  0  0  0  0  0  0  0
   39.3980   27.9910   41.7230 F   0  0  0  0  0  0  0  0  0  0  0  0
   38.4060   28.6870   43.6770 F   0  0  0  0  0  0  0  0  0  0  0  0
   39.2160   32.8290   39.5550 C   0  0  0  0  0  0  0  0  0  0  0  0
   38.7250   32.9970   38.5560 H   0  0  0  0  0  0  0  0  0  0  0  0
   40.2350   32.4090   39.4760 H   0  0  0  0  0  0  0  0  0  0  0  0
   39.3340   34.1580   40.2100 C   0  0  0  0  0  0  0  0  0  0  0  0
   38.9370   34.9990   39.6290 H   0  0  0  0  0  0  0  0  0  0  0  0
   40.4020   34.3180   40.4610 H   0  0  0  0  0  0  0  0  0  0  0  0
   38.6590   34.0880   41.4480 O   0  0  0  0  0  0  0  0  0  0  0  0
   37.7440   34.4820   41.3480 H   0  0  0  0  0  0  0  0  0  0  0  0
  1  2  1  0  0  0  0
  2  3  2  0  0  0  0
  2  8  1  0  0  0  0
  3  9  1  0  0  0  0
  4  3  1  0  0  0  0
  5  4  2  0  0  0  0
  6  5  1  0  0  0  0
  6  1  2  0  0  0  0
  7  1  1  0  0  0  0
  9 10  1  0  0  0  0
  9 12  1  0  0  0  0
 11  9  1  0  0  0  0
 13 16  1  0  0  0  0
 13  5  1  0  0  0  0
 14 13  1  0  0  0  0
 15 13  1  0  0  0  0
 16 18  1  0  0  0  0
 16 19  1  0  0  0  0
 17 16  1  0  0  0  0
 20 19  1  0  0  0  0
M  END
>  <minimizedAffinity>
-3.83494115

$$$$

 OpenBabel03242515143D

 20 20  0  0  0  0  0  0  0  0999 V2000
   37.1230   27.6400   39.3300 C   0  0  0  0  0  0  0  0  0  0  0  0
   37.1590   26.9400   40.5620 C   0  0  0  0  0  0  0  0  0  0  0  0
   36.9060   27.6900   41.7140 C   0  0  0  0  0  0  0  0  0  0  0  0
   36.6410   29.0250   41.5980 N   0  0  0  0  0  0  0  0  0  0  0  0
   36.6230   29.6320   40.3770 C   0  0  0  0  0  0  0  0  0  0  0  0
   36.8580   28.9570   39.2580 N   0  0  0  0  0  0  0  0  0  0  0  0
   37.3110   27.1040   38.4240 H   0  0  0  0  0  0  0  0  0  0  0  0
   37.3780   25.8770   40.5680 H   0  0  0  0  0  0  0  0  0  0  0  0
   36.9520   26.9400   42.9690 C   0  0  0  0  0  0  0  0  0  0  0  0
   36.7680   25.5870   42.6880 F   0  0  0  0  0  0  0  0  0  0  0  0
   35.8020   27.3200   43.6790 F   0  0  0  0  0  0  0  0  0  0  0  0
   38.0890   27.0920   43.6650 F   0  0  0  0  0  0  0  0  0  0  0  0
   36.3320   31.0820   40.5460 C   0  0  0  0  0  0  0  0  0  0  0  0
   35.8380   31.1530   41.5550 H   0  0  0  0  0  0  0  0  0  0  0  0
   35.7050   31.4680   39.7240 H   0  0  0  0  0  0  0  0  0  0  0  0
   37.5570   31.9230   40.6030 C   0  0  0  0  0  0  0  0  0  0  0  0
   37.6500   32.5470   41.4990 H   0  0  0  0  0  0  0  0  0  0  0  0
   37.5850   32.5400   39.6830 H   0  0  0  0  0  0  0  0  0  0  0  0
   38.6730   31.0620   40.5180 O   0  0  0  0  0  0  0  0  0  0  0  0
   39.0320   30.8940   41.4370 H   0  0  0  0  0  0  0  0  0  0  0  0
  1  2  1  0  0  0  0
  2  8  1  0  0  0  0
  2  3  2  0  0  0  0
  3  9  1  0  0  0  0
  4  3  1  0  0  0  0
  5 13  1  0  0  0  0
  5  4  2  0  0  0  0
  6  1  2  0  0  0  0
  6  5  1  0  0  0  0
  7  1  1  0  0  0  0
  9 12  1  0  0  0  0
  9 11  1  0  0  0  0
 10  9  1  0  0  0  0
 13 16  1  0  0  0  0
 13 14  1  0  0  0  0
 15 13  1  0  0  0  0
 16 17  1  0  0  0  0
 18 16  1  0  0  0  0
 19 16  1  0  0  0  0
 19 20  1  0  0  0  0
M  END
>  <minimizedAffinity>
-3.73189759

$$$$

 OpenBabel03242515143D

 20 20  0  0  0  0  0  0  0  0999 V2000
   38.2300   28.6730   43.2890 C   0  0  0  0  0  0  0  0  0  0  0  0
   37.4440   29.4740   42.4230 C   0  0  0  0  0  0  0  0  0  0  0  0
   36.6020   28.7950   41.5380 C   0  0  0  0  0  0  0  0  0  0  0  0
   36.5770   27.4290   41.5530 N   0  0  0  0  0  0  0  0  0  0  0  0
   37.3620   26.7240   42.4160 C   0  0  0  0  0  0  0  0  0  0  0  0
   38.1770   27.3290   43.2730 N   0  0  0  0  0  0  0  0  0  0  0  0
   38.8880   29.1530   43.9820 H   0  0  0  0  0  0  0  0  0  0  0  0
   37.5230   30.5550   42.4740 H   0  0  0  0  0  0  0  0  0  0  0  0
   35.8050   29.6480   40.6570 C   0  0  0  0  0  0  0  0  0  0  0  0
   36.4620   29.7640   39.4330 F   0  0  0  0  0  0  0  0  0  0  0  0
   35.8620   30.9330   41.2190 F   0  0  0  0  0  0  0  0  0  0  0  0
   34.5540   29.2090   40.4420 F   0  0  0  0  0  0  0  0  0  0  0  0
   37.1520   25.2660   42.2030 C   0  0  0  0  0  0  0  0  0  0  0  0
   36.2140   25.2060   41.5830 H   0  0  0  0  0  0  0  0  0  0  0  0
   37.0780   24.7230   43.1610 H   0  0  0  0  0  0  0  0  0  0  0  0
   38.2360   24.6260   41.4120 C   0  0  0  0  0  0  0  0  0  0  0  0
   37.8950   23.9610   40.6100 H   0  0  0  0  0  0  0  0  0  0  0  0
   38.8980   24.0900   42.1200 H   0  0  0  0  0  0  0  0  0  0  0  0
   39.0280   25.6560   40.8580 O   0  0  0  0  0  0  0  0  0  0  0  0
   38.7500   25.8120   39.9090 H   0  0  0  0  0  0  0  0  0  0  0  0
  1  7  1  0  0  0  0
  2  8  1  0  0  0  0
  2  1  2  0  0  0  0
  3  4  2  0  0  0  0
  3  2  1  0  0  0  0
  4  5  1  0  0  0  0
  5  6  2  0  0  0  0
  6  1  1  0  0  0  0
  9 11  1  0  0  0  0
  9  3  1  0  0  0  0
 10  9  1  0  0  0  0
 12  9  1  0  0  0  0
 13  5  1  0  0  0  0
 13 15  1  0  0  0  0
 14 13  1  0  0  0  0
 16 18  1  0  0  0  0
 16 13  1  0  0  0  0
 17 16  1  0  0  0  0
 19 16  1  0  0  0  0
 20 19  1  0  0  0  0
M  END
>  <minimizedAffinity>
-3.72993374

$$$$

 OpenBabel03242515143D

 20 20  0  0  0  0  0  0  0  0999 V2000
   36.3770   30.4140   40.5630 C   0  0  0  0  0  0  0  0  0  0  0  0
   36.4980   29.7390   39.3230 C   0  0  0  0  0  0  0  0  0  0  0  0
   36.9520   30.4990   38.2410 C   0  0  0  0  0  0  0  0  0  0  0  0
   37.2490   31.8190   38.4290 N   0  0  0  0  0  0  0  0  0  0  0  0
   37.1080   32.4020   39.6530 C   0  0  0  0  0  0  0  0  0  0  0  0
   36.6790   31.7160   40.7080 N   0  0  0  0  0  0  0  0  0  0  0  0
   36.0330   29.8690   41.4170 H   0  0  0  0  0  0  0  0  0  0  0  0
   36.2410   28.6870   39.2580 H   0  0  0  0  0  0  0  0  0  0  0  0
   37.0660   29.7760   36.9750 C   0  0  0  0  0  0  0  0  0  0  0  0
   36.3370   28.5920   37.0690 F   0  0  0  0  0  0  0  0  0  0  0  0
   38.4060   29.3680   36.8910 F   0  0  0  0  0  0  0  0  0  0  0  0
   36.6450   30.4650   35.9020 F   0  0  0  0  0  0  0  0  0  0  0  0
   37.4780   33.8400   39.5670 C   0  0  0  0  0  0  0  0  0  0  0  0
   36.7300   34.3620   40.2270 H   0  0  0  0  0  0  0  0  0  0  0  0
   37.4650   34.2000   38.5230 H   0  0  0  0  0  0  0  0  0  0  0  0
   38.8260   34.1340   40.1210 C   0  0  0  0  0  0  0  0  0  0  0  0
   39.2700   35.0780   39.7870 H   0  0  0  0  0  0  0  0  0  0  0  0
   39.4840   33.2760   39.8790 H   0  0  0  0  0  0  0  0  0  0  0  0
   38.7170   34.1440   41.5290 O   0  0  0  0  0  0  0  0  0  0  0  0
   38.6400   35.0890   41.8480 H   0  0  0  0  0  0  0  0  0  0  0  0
  1  6  1  0  0  0  0
  1  7  1  0  0  0  0
  2  1  2  0  0  0  0
  3  4  2  0  0  0  0
  3  2  1  0  0  0  0
  4  5  1  0  0  0  0
  5  6  2  0  0  0  0
  8  2  1  0  0  0  0
  9 10  1  0  0  0  0
  9  3  1  0  0  0  0
 11  9  1  0  0  0  0
 12  9  1  0  0  0  0
 13  5  1  0  0  0  0
 13 16  1  0  0  0  0
 13 14  1  0  0  0  0
 15 13  1  0  0  0  0
 16 19  1  0  0  0  0
 17 16  1  0  0  0  0
 18 16  1  0  0  0  0
 19 20  1  0  0  0  0
M  END
>  <minimizedAffinity>
-3.71302462

$$$$

 OpenBabel03242515143D

 20 20  0  0  0  0  0  0  0  0999 V2000
   38.8320   26.9060   39.3290 C   0  0  0  0  0  0  0  0  0  0  0  0
   38.5840   26.3230   40.5970 C   0  0  0  0  0  0  0  0  0  0  0  0
   37.3980   26.6980   41.2350 C   0  0  0  0  0  0  0  0  0  0  0  0
   36.5580   27.5830   40.6200 N   0  0  0  0  0  0  0  0  0  0  0  0
   36.8630   28.1030   39.3970 C   0  0  0  0  0  0  0  0  0  0  0  0
   37.9790   27.7740   38.7560 N   0  0  0  0  0  0  0  0  0  0  0  0
   39.7280   26.6460   38.8070 H   0  0  0  0  0  0  0  0  0  0  0  0
   39.3030   25.6290   41.0180 H   0  0  0  0  0  0  0  0  0  0  0  0
   37.1710   26.0820   42.5420 C   0  0  0  0  0  0  0  0  0  0  0  0
   36.3530   26.9230   43.2960 F   0  0  0  0  0  0  0  0  0  0  0  0
   38.4130   26.1080   43.1950 F   0  0  0  0  0  0  0  0  0  0  0  0
   36.6140   24.8620   42.4910 F   0  0  0  0  0  0  0  0  0  0  0  0
   35.7930   29.0470   38.9760 C   0  0  0  0  0  0  0  0  0  0  0  0
   35.2790   28.5250   38.1210 H   0  0  0  0  0  0  0  0  0  0  0  0
   36.2070   30.0330   38.7010 H   0  0  0  0  0  0  0  0  0  0  0  0
   34.7650   29.2750   40.0260 C   0  0  0  0  0  0  0  0  0  0  0  0
   34.4490   28.3770   40.5690 H   0  0  0  0  0  0  0  0  0  0  0  0
   33.9000   29.7760   39.5480 H   0  0  0  0  0  0  0  0  0  0  0  0
   35.2890   30.2130   40.9430 O   0  0  0  0  0  0  0  0  0  0  0  0
   35.6540   29.7290   41.7390 H   0  0  0  0  0  0  0  0  0  0  0  0
  1  2  1  0  0  0  0
  2  8  1  0  0  0  0
  2  3  2  0  0  0  0
  3  9  1  0  0  0  0
  4  3  1  0  0  0  0
  5  4  2  0  0  0  0
  6  1  2  0  0  0  0
  6  5  1  0  0  0  0
  7  1  1  0  0  0  0
  9 11  1  0  0  0  0
  9 10  1  0  0  0  0
 12  9  1  0  0  0  0
 13  5  1  0  0  0  0
 13 16  1  0  0  0  0
 14 13  1  0  0  0  0
 15 13  1  0  0  0  0
 16 17  1  0  0  0  0
 16 19  1  0  0  0  0
 18 16  1  0  0  0  0
 19 20  1  0  0  0  0
M  END
>  <minimizedAffinity>
-3.70029855

$$$$
