
 OpenBabel03252509353D

 37 38  0  0  1  0  0  0  0  0999 V2000
   46.5780   34.8950   43.2280 O   0  0  0  0  0  0  0  0  0  0  0  0
   46.8190   33.9650   42.2100 C   0  0  1  0  0  0  0  0  0  0  0  0
   46.0990   34.3970   40.9300 C   0  0  0  0  0  0  0  0  0  0  0  0
   46.7240   33.4610   39.9280 C   0  0  0  0  0  0  0  0  0  0  0  0
   48.1000   33.1340   40.4600 C   0  0  0  0  0  0  0  0  0  0  0  0
   48.2390   33.9570   41.7330 C   0  0  1  0  0  0  0  0  0  0  0  0
   46.4680   32.9610   42.4310 H   0  0  0  0  0  0  0  0  0  0  0  0
   45.0070   34.1700   41.0000 H   0  0  0  0  0  0  0  0  0  0  0  0
   46.1890   35.4550   40.7070 H   0  0  0  0  0  0  0  0  0  0  0  0
   46.1050   32.5470   39.7940 H   0  0  0  0  0  0  0  0  0  0  0  0
   46.8810   34.0220   38.9800 H   0  0  0  0  0  0  0  0  0  0  0  0
   48.0990   32.0610   40.7290 H   0  0  0  0  0  0  0  0  0  0  0  0
   48.9010   33.3650   39.7550 H   0  0  0  0  0  0  0  0  0  0  0  0
   48.8430   33.4200   42.5080 H   0  0  0  0  0  0  0  0  0  0  0  0
   48.7730   35.3370   41.4540 C   0  0  0  0  0  0  0  0  0  0  0  0
   47.9990   36.1200   41.3660 H   0  0  0  0  0  0  0  0  0  0  0  0
   49.3290   35.2900   40.4760 H   0  0  0  0  0  0  0  0  0  0  0  0
   49.6530   35.7660   42.4220 O   0  0  0  0  0  0  0  0  0  0  0  0
   49.1280   35.9830   43.2420 H   0  0  0  0  0  0  0  0  0  0  0  0
   44.7760   35.3210   45.0230 O   0  0  0  0  0  0  0  0  0  0  0  0
   45.5930   34.2120   44.3920 P   0  0  1  0  0  0  0  0  0  0  0  0
   44.5880   33.0450   43.6870 O   0  0  0  0  0  0  0  0  0  0  0  0
   43.6530   33.3590   43.7840 H   0  0  0  0  0  0  0  0  0  0  0  0
   46.5000   33.4170   45.5420 O   0  0  0  0  0  0  0  0  0  0  0  0
   46.1650   32.1000   45.5430 C   0  0  0  0  0  0  0  0  0  0  0  0
   45.3850   31.7620   44.8680 H   0  0  0  0  0  0  0  0  0  0  0  0
   47.0940   31.5450   45.2130 H   0  0  0  0  0  0  0  0  0  0  0  0
   45.6180   31.9740   49.2210 C   0  0  0  0  0  0  0  0  0  0  0  0
   45.8980   32.5030   47.9560 C   0  0  0  0  0  0  0  0  0  0  0  0
   45.8710   31.5890   46.8920 C   0  0  0  0  0  0  0  0  0  0  0  0
   45.5800   30.2740   47.1390 N   0  0  0  0  0  0  0  0  0  0  0  0
   45.3160   29.8080   48.3770 C   0  0  0  0  0  0  0  0  0  0  0  0
   45.3360   30.6580   49.4020 N   0  0  0  0  0  0  0  0  0  0  0  0
   45.6160   32.6050   50.1000 H   0  0  0  0  0  0  0  0  0  0  0  0
   46.1190   33.5510   47.8390 H   0  0  0  0  0  0  0  0  0  0  0  0
   45.0430   28.4470   48.4340 O   0  0  0  0  0  0  0  0  0  0  0  0
   44.0920   28.0860   48.2610 H   0  0  0  0  0  0  0  0  0  0  0  0
  1 21  1  0  0  0  0
  2  7  1  1  0  0  0
  2  1  1  0  0  0  0
  3  8  1  0  0  0  0
  3  2  1  0  0  0  0
  4  5  1  0  0  0  0
  4  3  1  0  0  0  0
  5 12  1  0  0  0  0
  5  6  1  0  0  0  0
  6  2  1  0  0  0  0
  6 14  1  1  0  0  0
  9  3  1  0  0  0  0
 10  4  1  0  0  0  0
 11  4  1  0  0  0  0
 13  5  1  0  0  0  0
 15  6  1  0  0  0  0
 15 18  1  0  0  0  0
 16 15  1  0  0  0  0
 17 15  1  0  0  0  0
 18 19  1  0  0  0  0
 21 20  2  1  0  0  0
 21 24  1  0  0  0  0
 22 23  1  0  0  0  0
 22 21  1  0  0  0  0
 24 25  1  0  0  0  0
 25 30  1  0  0  0  0
 26 25  1  0  0  0  0
 27 25  1  0  0  0  0
 28 33  1  0  0  0  0
 28 34  1  0  0  0  0
 29 28  2  0  0  0  0
 30 31  2  0  0  0  0
 30 29  1  0  0  0  0
 31 32  1  0  0  0  0
 32 36  1  0  0  0  0
 32 33  2  0  0  0  0
 35 29  1  0  0  0  0
 37 36  1  0  0  0  0
M  END
>  <minimizedAffinity>
-5.22186136

>  <minimizedRMSD>
0.0990923792

$$$$
