
 OpenBabel03252509353D

 37 38  0  0  1  0  0  0  0  0999 V2000
   46.5790   34.8930   43.2300 O   0  0  0  0  0  0  0  0  0  0  0  0
   46.8200   33.9640   42.2110 C   0  0  1  0  0  0  0  0  0  0  0  0
   46.0980   34.3990   40.9320 C   0  0  0  0  0  0  0  0  0  0  0  0
   46.7220   33.4640   39.9280 C   0  0  0  0  0  0  0  0  0  0  0  0
   48.0990   33.1360   40.4590 C   0  0  0  0  0  0  0  0  0  0  0  0
   48.2390   33.9570   41.7330 C   0  0  1  0  0  0  0  0  0  0  0  0
   46.4680   32.9600   42.4310 H   0  0  0  0  0  0  0  0  0  0  0  0
   45.0060   34.1710   41.0020 H   0  0  0  0  0  0  0  0  0  0  0  0
   46.1880   35.4570   40.7100 H   0  0  0  0  0  0  0  0  0  0  0  0
   46.1030   32.5500   39.7940 H   0  0  0  0  0  0  0  0  0  0  0  0
   46.8780   34.0260   38.9810 H   0  0  0  0  0  0  0  0  0  0  0  0
   48.0980   32.0620   40.7260 H   0  0  0  0  0  0  0  0  0  0  0  0
   48.8990   33.3680   39.7540 H   0  0  0  0  0  0  0  0  0  0  0  0
   48.8440   33.4190   42.5070 H   0  0  0  0  0  0  0  0  0  0  0  0
   48.7730   35.3370   41.4560 C   0  0  0  0  0  0  0  0  0  0  0  0
   47.9990   36.1210   41.3710 H   0  0  0  0  0  0  0  0  0  0  0  0
   49.3260   35.2910   40.4760 H   0  0  0  0  0  0  0  0  0  0  0  0
   49.6550   35.7640   42.4220 O   0  0  0  0  0  0  0  0  0  0  0  0
   49.1330   35.9790   43.2450 H   0  0  0  0  0  0  0  0  0  0  0  0
   44.7760   35.3170   45.0250 O   0  0  0  0  0  0  0  0  0  0  0  0
   45.5940   34.2090   44.3940 P   0  0  1  0  0  0  0  0  0  0  0  0
   44.5900   33.0410   43.6880 O   0  0  0  0  0  0  0  0  0  0  0  0
   43.6550   33.3550   43.7850 H   0  0  0  0  0  0  0  0  0  0  0  0
   46.5010   33.4140   45.5440 O   0  0  0  0  0  0  0  0  0  0  0  0
   46.1660   32.0970   45.5450 C   0  0  0  0  0  0  0  0  0  0  0  0
   45.3870   31.7590   44.8700 H   0  0  0  0  0  0  0  0  0  0  0  0
   47.0960   31.5420   45.2160 H   0  0  0  0  0  0  0  0  0  0  0  0
   45.6160   31.9720   49.2220 C   0  0  0  0  0  0  0  0  0  0  0  0
   45.8970   32.5010   47.9580 C   0  0  0  0  0  0  0  0  0  0  0  0
   45.8710   31.5870   46.8940 C   0  0  0  0  0  0  0  0  0  0  0  0
   45.5800   30.2710   47.1410 N   0  0  0  0  0  0  0  0  0  0  0  0
   45.3150   29.8060   48.3790 C   0  0  0  0  0  0  0  0  0  0  0  0
   45.3350   30.6560   49.4040 N   0  0  0  0  0  0  0  0  0  0  0  0
   45.6140   32.6040   50.1020 H   0  0  0  0  0  0  0  0  0  0  0  0
   46.1190   33.5480   47.8400 H   0  0  0  0  0  0  0  0  0  0  0  0
   45.0420   28.4450   48.4360 O   0  0  0  0  0  0  0  0  0  0  0  0
   44.2970   28.0260   47.8590 H   0  0  0  0  0  0  0  0  0  0  0  0
  1 21  1  0  0  0  0
  2  7  1  1  0  0  0
  2  1  1  0  0  0  0
  3  8  1  0  0  0  0
  3  2  1  0  0  0  0
  4  5  1  0  0  0  0
  4  3  1  0  0  0  0
  5 12  1  0  0  0  0
  5  6  1  0  0  0  0
  6  2  1  0  0  0  0
  6 14  1  1  0  0  0
  9  3  1  0  0  0  0
 10  4  1  0  0  0  0
 11  4  1  0  0  0  0
 13  5  1  0  0  0  0
 15  6  1  0  0  0  0
 15 18  1  0  0  0  0
 16 15  1  0  0  0  0
 17 15  1  0  0  0  0
 18 19  1  0  0  0  0
 21 20  2  1  0  0  0
 21 24  1  0  0  0  0
 22 23  1  0  0  0  0
 22 21  1  0  0  0  0
 24 25  1  0  0  0  0
 25 30  1  0  0  0  0
 26 25  1  0  0  0  0
 27 25  1  0  0  0  0
 28 33  1  0  0  0  0
 28 34  1  0  0  0  0
 29 28  2  0  0  0  0
 30 31  2  0  0  0  0
 30 29  1  0  0  0  0
 31 32  1  0  0  0  0
 32 36  1  0  0  0  0
 32 33  2  0  0  0  0
 35 29  1  0  0  0  0
 37 36  1  0  0  0  0
M  END
>  <minimizedAffinity>
-5.22574139

>  <minimizedRMSD>
0.0990920439

$$$$
