
 OpenBabel03242515133D

 20 20  0  0  0  0  0  0  0  0999 V2000
   44.5440   35.6540   45.0280 C   0  0  0  0  0  0  0  0  0  0  0  0
   45.1210   35.6760   43.7340 C   0  0  0  0  0  0  0  0  0  0  0  0
   46.0100   34.6410   43.4300 C   0  0  0  0  0  0  0  0  0  0  0  0
   46.2690   33.6840   44.3700 N   0  0  0  0  0  0  0  0  0  0  0  0
   45.6750   33.7280   45.5960 C   0  0  0  0  0  0  0  0  0  0  0  0
   44.8250   34.6940   45.9260 N   0  0  0  0  0  0  0  0  0  0  0  0
   43.8580   36.4280   45.3010 H   0  0  0  0  0  0  0  0  0  0  0  0
   44.8630   36.4730   43.0450 H   0  0  0  0  0  0  0  0  0  0  0  0
   46.5910   34.6900   42.0880 C   0  0  0  0  0  0  0  0  0  0  0  0
   47.3420   33.5340   41.8830 F   0  0  0  0  0  0  0  0  0  0  0  0
   47.5330   35.7310   42.1210 F   0  0  0  0  0  0  0  0  0  0  0  0
   45.6920   34.8090   41.0980 F   0  0  0  0  0  0  0  0  0  0  0  0
   46.1500   32.5850   46.4210 C   0  0  0  0  0  0  0  0  0  0  0  0
   47.2730   32.6350   46.3490 H   0  0  0  0  0  0  0  0  0  0  0  0
   45.7320   31.6260   46.0660 H   0  0  0  0  0  0  0  0  0  0  0  0
   45.8020   32.7150   47.8610 C   0  0  0  0  0  0  0  0  0  0  0  0
   46.0480   33.6830   48.3130 H   0  0  0  0  0  0  0  0  0  0  0  0
   46.2970   31.8850   48.4040 H   0  0  0  0  0  0  0  0  0  0  0  0
   44.4150   32.4800   47.9900 O   0  0  0  0  0  0  0  0  0  0  0  0
   43.9350   33.3570   48.0370 H   0  0  0  0  0  0  0  0  0  0  0  0
  1  7  1  0  0  0  0
  1  6  1  0  0  0  0
  2  1  2  0  0  0  0
  3  2  1  0  0  0  0
  3  4  2  0  0  0  0
  4  5  1  0  0  0  0
  5  6  2  0  0  0  0
  5 13  1  0  0  0  0
  8  2  1  0  0  0  0
  9 11  1  0  0  0  0
  9  3  1  0  0  0  0
 10  9  1  0  0  0  0
 12  9  1  0  0  0  0
 13 16  1  0  0  0  0
 14 13  1  0  0  0  0
 15 13  1  0  0  0  0
 16 19  1  0  0  0  0
 16 17  1  0  0  0  0
 16 18  1  0  0  0  0
 19 20  1  0  0  0  0
M  END
>  <minimizedAffinity>
-4.47734785

>  <minimizedRMSD>
0.397198856

$$$$
