
 OpenBabel03252500083D

 21 22  0  0  0  0  0  0  0  0999 V2000
   35.1800   28.8000   40.7550 Cl  0  0  0  0  0  0  0  0  0  0  0  0
   36.6200   28.6150   41.7230 C   0  0  0  0  0  0  0  0  0  0  0  0
   37.7410   29.3540   41.4560 C   0  0  0  0  0  0  0  0  0  0  0  0
   38.9140   29.2230   42.2210 C   0  0  0  0  0  0  0  0  0  0  0  0
   38.8560   28.3070   43.2480 C   0  0  0  0  0  0  0  0  0  0  0  0
   37.7230   27.5650   43.5110 C   0  0  0  0  0  0  0  0  0  0  0  0
   36.6020   27.7080   42.7600 C   0  0  0  0  0  0  0  0  0  0  0  0
   39.7870   29.8090   42.0020 H   0  0  0  0  0  0  0  0  0  0  0  0
   39.7170   28.1650   43.8620 H   0  0  0  0  0  0  0  0  0  0  0  0
   37.7170   26.8500   44.3340 H   0  0  0  0  0  0  0  0  0  0  0  0
   35.7190   27.1290   42.9660 H   0  0  0  0  0  0  0  0  0  0  0  0
   38.1080   30.8000   38.0920 C   0  0  0  0  0  0  0  0  0  0  0  0
   37.6840   32.1300   38.2900 C   0  0  0  0  0  0  0  0  0  0  0  0
   37.2830   32.5080   39.5600 C   0  0  0  0  0  0  0  0  0  0  0  0
   37.3150   31.5840   40.5530 N   0  0  0  0  0  0  0  0  0  0  0  0
   37.7260   30.3080   40.3460 C   0  0  0  0  0  0  0  0  0  0  0  0
   38.1190   29.9320   39.1160 N   0  0  0  0  0  0  0  0  0  0  0  0
   38.4250   30.5010   37.0940 H   0  0  0  0  0  0  0  0  0  0  0  0
   37.6640   32.8470   37.4990 H   0  0  0  0  0  0  0  0  0  0  0  0
   36.8600   33.8150   39.7780 O   0  0  0  0  0  0  0  0  0  0  0  0
   36.0290   33.9650   40.3720 H   0  0  0  0  0  0  0  0  0  0  0  0
  1  2  1  0  0  0  0
  2  7  1  0  0  0  0
  3  2  2  0  0  0  0
  3  4  1  0  0  0  0
  4  5  2  0  0  0  0
  5  6  1  0  0  0  0
  5  9  1  0  0  0  0
  6 10  1  0  0  0  0
  7 11  1  0  0  0  0
  7  6  2  0  0  0  0
  8  4  1  0  0  0  0
 12 13  2  0  0  0  0
 12 17  1  0  0  0  0
 13 14  1  0  0  0  0
 14 20  1  0  0  0  0
 14 15  2  0  0  0  0
 16 15  1  0  0  0  0
 16  3  1  0  0  0  0
 17 16  2  0  0  0  0
 18 12  1  0  0  0  0
 19 13  1  0  0  0  0
 20 21  1  0  0  0  0
M  END
>  <minimizedAffinity>
-4.98612785

$$$$

 OpenBabel03252500083D

 21 22  0  0  0  0  0  0  0  0999 V2000
   40.1080   30.1000   41.9280 Cl  0  0  0  0  0  0  0  0  0  0  0  0
   38.7150   29.1060   42.2730 C   0  0  0  0  0  0  0  0  0  0  0  0
   37.5850   29.1980   41.5080 C   0  0  0  0  0  0  0  0  0  0  0  0
   36.4500   28.4080   41.7650 C   0  0  0  0  0  0  0  0  0  0  0  0
   36.5560   27.5430   42.8310 C   0  0  0  0  0  0  0  0  0  0  0  0
   37.7000   27.4550   43.5980 C   0  0  0  0  0  0  0  0  0  0  0  0
   38.7830   28.2270   43.3320 C   0  0  0  0  0  0  0  0  0  0  0  0
   35.5680   28.4890   41.1570 H   0  0  0  0  0  0  0  0  0  0  0  0
   35.7260   26.9180   43.0730 H   0  0  0  0  0  0  0  0  0  0  0  0
   37.7440   26.7560   44.4340 H   0  0  0  0  0  0  0  0  0  0  0  0
   39.6740   28.1570   43.9310 H   0  0  0  0  0  0  0  0  0  0  0  0
   37.8110   30.5960   38.1110 C   0  0  0  0  0  0  0  0  0  0  0  0
   37.4670   31.9480   38.3190 C   0  0  0  0  0  0  0  0  0  0  0  0
   37.1660   32.3550   39.6080 C   0  0  0  0  0  0  0  0  0  0  0  0
   37.2150   31.4390   40.6080 N   0  0  0  0  0  0  0  0  0  0  0  0
   37.5480   30.1420   40.3900 C   0  0  0  0  0  0  0  0  0  0  0  0
   37.8430   29.7370   39.1420 N   0  0  0  0  0  0  0  0  0  0  0  0
   38.0490   30.2730   37.0990 H   0  0  0  0  0  0  0  0  0  0  0  0
   37.4320   32.6580   37.5240 H   0  0  0  0  0  0  0  0  0  0  0  0
   36.8230   33.6840   39.8370 O   0  0  0  0  0  0  0  0  0  0  0  0
   36.0400   33.8800   40.4800 H   0  0  0  0  0  0  0  0  0  0  0  0
  1  2  1  0  0  0  0
  2  7  1  0  0  0  0
  3  4  1  0  0  0  0
  3  2  2  0  0  0  0
  4  5  2  0  0  0  0
  5  9  1  0  0  0  0
  5  6  1  0  0  0  0
  6 10  1  0  0  0  0
  7  6  2  0  0  0  0
  7 11  1  0  0  0  0
  8  4  1  0  0  0  0
 12 13  2  0  0  0  0
 12 17  1  0  0  0  0
 13 14  1  0  0  0  0
 14 20  1  0  0  0  0
 14 15  2  0  0  0  0
 16 15  1  0  0  0  0
 16  3  1  0  0  0  0
 17 16  2  0  0  0  0
 18 12  1  0  0  0  0
 19 13  1  0  0  0  0
 20 21  1  0  0  0  0
M  END
>  <minimizedAffinity>
-4.88127756

$$$$

 OpenBabel03252500083D

 21 22  0  0  0  0  0  0  0  0999 V2000
   36.7670   26.9120   38.3610 Cl  0  0  0  0  0  0  0  0  0  0  0  0
   36.8210   25.9820   39.8370 C   0  0  0  0  0  0  0  0  0  0  0  0
   37.1280   26.5790   41.0290 C   0  0  0  0  0  0  0  0  0  0  0  0
   37.1790   25.8520   42.2310 C   0  0  0  0  0  0  0  0  0  0  0  0
   36.8990   24.5080   42.1260 C   0  0  0  0  0  0  0  0  0  0  0  0
   36.5900   23.9120   40.9210 C   0  0  0  0  0  0  0  0  0  0  0  0
   36.5470   24.6330   39.7730 C   0  0  0  0  0  0  0  0  0  0  0  0
   37.4210   26.3320   43.1610 H   0  0  0  0  0  0  0  0  0  0  0  0
   36.9220   23.9050   43.0060 H   0  0  0  0  0  0  0  0  0  0  0  0
   36.3740   22.8440   40.8790 H   0  0  0  0  0  0  0  0  0  0  0  0
   36.3050   24.1670   38.8340 H   0  0  0  0  0  0  0  0  0  0  0  0
   38.9480   29.7780   40.9580 C   0  0  0  0  0  0  0  0  0  0  0  0
   37.9100   30.7170   41.1280 C   0  0  0  0  0  0  0  0  0  0  0  0
   36.6150   30.2450   41.2640 C   0  0  0  0  0  0  0  0  0  0  0  0
   36.4050   28.9050   41.2260 N   0  0  0  0  0  0  0  0  0  0  0  0
   37.4150   28.0140   41.0610 C   0  0  0  0  0  0  0  0  0  0  0  0
   38.6760   28.4640   40.9300 N   0  0  0  0  0  0  0  0  0  0  0  0
   39.9670   30.1470   40.8520 H   0  0  0  0  0  0  0  0  0  0  0  0
   38.0900   31.7680   41.1560 H   0  0  0  0  0  0  0  0  0  0  0  0
   35.5760   31.1540   41.4330 O   0  0  0  0  0  0  0  0  0  0  0  0
   34.6970   30.9890   40.9150 H   0  0  0  0  0  0  0  0  0  0  0  0
  1  2  1  0  0  0  0
  2  3  1  0  0  0  0
  3 16  1  0  0  0  0
  3  4  2  0  0  0  0
  4  8  1  0  0  0  0
  5  4  1  0  0  0  0
  5  9  1  0  0  0  0
  6  5  2  0  0  0  0
  7  2  2  0  0  0  0
  7  6  1  0  0  0  0
 10  6  1  0  0  0  0
 11  7  1  0  0  0  0
 12 13  1  0  0  0  0
 13 19  1  0  0  0  0
 13 14  2  0  0  0  0
 14 20  1  0  0  0  0
 15 14  1  0  0  0  0
 16 15  2  0  0  0  0
 17 12  2  0  0  0  0
 17 16  1  0  0  0  0
 18 12  1  0  0  0  0
 21 20  1  0  0  0  0
M  END
>  <minimizedAffinity>
-4.81494331

$$$$

 OpenBabel03252500083D

 21 22  0  0  0  0  0  0  0  0999 V2000
   37.0790   28.3350   39.2330 Cl  0  0  0  0  0  0  0  0  0  0  0  0
   37.2480   28.2820   40.9700 C   0  0  0  0  0  0  0  0  0  0  0  0
   37.7990   29.3340   41.6500 C   0  0  0  0  0  0  0  0  0  0  0  0
   37.9460   29.3160   43.0490 C   0  0  0  0  0  0  0  0  0  0  0  0
   37.5010   28.1750   43.6790 C   0  0  0  0  0  0  0  0  0  0  0  0
   36.9460   27.1190   42.9870 C   0  0  0  0  0  0  0  0  0  0  0  0
   36.8140   27.1580   41.6380 C   0  0  0  0  0  0  0  0  0  0  0  0
   38.3800   30.1480   43.5720 H   0  0  0  0  0  0  0  0  0  0  0  0
   37.5870   28.1050   44.7410 H   0  0  0  0  0  0  0  0  0  0  0  0
   36.6050   26.2330   43.5240 H   0  0  0  0  0  0  0  0  0  0  0  0
   36.3810   26.3330   41.0990 H   0  0  0  0  0  0  0  0  0  0  0  0
   39.9220   31.6500   39.7320 C   0  0  0  0  0  0  0  0  0  0  0  0
   39.0590   32.7450   39.5250 C   0  0  0  0  0  0  0  0  0  0  0  0
   37.7750   32.6750   40.0410 C   0  0  0  0  0  0  0  0  0  0  0  0
   37.4080   31.5590   40.7190 N   0  0  0  0  0  0  0  0  0  0  0  0
   38.2500   30.5130   40.9090 C   0  0  0  0  0  0  0  0  0  0  0  0
   39.4990   30.5720   40.4130 N   0  0  0  0  0  0  0  0  0  0  0  0
   40.9310   31.7020   39.3280 H   0  0  0  0  0  0  0  0  0  0  0  0
   39.3610   33.6170   38.9890 H   0  0  0  0  0  0  0  0  0  0  0  0
   36.9070   33.7450   39.8480 O   0  0  0  0  0  0  0  0  0  0  0  0
   35.9260   33.5360   39.6000 H   0  0  0  0  0  0  0  0  0  0  0  0
  1  2  1  0  0  0  0
  2  7  2  0  0  0  0
  2  3  1  0  0  0  0
  3  4  2  0  0  0  0
  4  8  1  0  0  0  0
  4  5  1  0  0  0  0
  5  9  1  0  0  0  0
  6 10  1  0  0  0  0
  6  5  2  0  0  0  0
  7  6  1  0  0  0  0
 11  7  1  0  0  0  0
 12 17  1  0  0  0  0
 13 12  2  0  0  0  0
 13 14  1  0  0  0  0
 14 15  2  0  0  0  0
 15 16  1  0  0  0  0
 16  3  1  0  0  0  0
 17 16  2  0  0  0  0
 18 12  1  0  0  0  0
 19 13  1  0  0  0  0
 20 14  1  0  0  0  0
 21 20  1  0  0  0  0
M  END
>  <minimizedAffinity>
-4.78517199

$$$$

 OpenBabel03252500083D

 21 22  0  0  0  0  0  0  0  0999 V2000
   38.4500   26.8780   43.3120 Cl  0  0  0  0  0  0  0  0  0  0  0  0
   37.6670   25.9910   42.0290 C   0  0  0  0  0  0  0  0  0  0  0  0
   37.2400   26.6300   40.8970 C   0  0  0  0  0  0  0  0  0  0  0  0
   36.6070   25.9380   39.8490 C   0  0  0  0  0  0  0  0  0  0  0  0
   36.4470   24.5830   40.0420 C   0  0  0  0  0  0  0  0  0  0  0  0
   36.8800   23.9450   41.1860 C   0  0  0  0  0  0  0  0  0  0  0  0
   37.4890   24.6330   42.1840 C   0  0  0  0  0  0  0  0  0  0  0  0
   36.2770   26.4510   38.9650 H   0  0  0  0  0  0  0  0  0  0  0  0
   35.9730   24.0060   39.2800 H   0  0  0  0  0  0  0  0  0  0  0  0
   36.7350   22.8700   41.2990 H   0  0  0  0  0  0  0  0  0  0  0  0
   37.8250   24.1340   43.0760 H   0  0  0  0  0  0  0  0  0  0  0  0
   38.7970   29.8810   40.1510 C   0  0  0  0  0  0  0  0  0  0  0  0
   37.7910   30.7900   40.5360 C   0  0  0  0  0  0  0  0  0  0  0  0
   36.6060   30.2810   41.0410 C   0  0  0  0  0  0  0  0  0  0  0  0
   36.4670   28.9350   41.1410 N   0  0  0  0  0  0  0  0  0  0  0  0
   37.4450   28.0730   40.7660 C   0  0  0  0  0  0  0  0  0  0  0  0
   38.6000   28.5580   40.2750 N   0  0  0  0  0  0  0  0  0  0  0  0
   39.7290   30.2780   39.7540 H   0  0  0  0  0  0  0  0  0  0  0  0
   37.9130   31.8460   40.4520 H   0  0  0  0  0  0  0  0  0  0  0  0
   35.5990   31.1600   41.4270 O   0  0  0  0  0  0  0  0  0  0  0  0
   34.6260   30.9250   41.1750 H   0  0  0  0  0  0  0  0  0  0  0  0
  2  7  1  0  0  0  0
  2  1  1  0  0  0  0
  3  2  2  0  0  0  0
  4  5  2  0  0  0  0
  4  3  1  0  0  0  0
  5  6  1  0  0  0  0
  6 10  1  0  0  0  0
  6  7  2  0  0  0  0
  7 11  1  0  0  0  0
  8  4  1  0  0  0  0
  9  5  1  0  0  0  0
 12 17  2  0  0  0  0
 12 13  1  0  0  0  0
 13 14  2  0  0  0  0
 14 15  1  0  0  0  0
 14 20  1  0  0  0  0
 16  3  1  0  0  0  0
 16 15  2  0  0  0  0
 17 16  1  0  0  0  0
 18 12  1  0  0  0  0
 19 13  1  0  0  0  0
 21 20  1  0  0  0  0
M  END
>  <minimizedAffinity>
-4.77324677

$$$$

 OpenBabel03252500083D

 21 22  0  0  0  0  0  0  0  0999 V2000
   37.0550   26.0050   40.8700 Cl  0  0  0  0  0  0  0  0  0  0  0  0
   38.3590   26.3880   41.9640 C   0  0  0  0  0  0  0  0  0  0  0  0
   38.8450   27.6640   42.0530 C   0  0  0  0  0  0  0  0  0  0  0  0
   39.8950   27.9980   42.9270 C   0  0  0  0  0  0  0  0  0  0  0  0
   40.3960   26.9590   43.6800 C   0  0  0  0  0  0  0  0  0  0  0  0
   39.9020   25.6740   43.5850 C   0  0  0  0  0  0  0  0  0  0  0  0
   38.8880   25.3750   42.7350 C   0  0  0  0  0  0  0  0  0  0  0  0
   40.2670   29.0040   42.9890 H   0  0  0  0  0  0  0  0  0  0  0  0
   41.1950   27.1530   44.3610 H   0  0  0  0  0  0  0  0  0  0  0  0
   40.3260   24.8790   44.1990 H   0  0  0  0  0  0  0  0  0  0  0  0
   38.5030   24.3730   42.6620 H   0  0  0  0  0  0  0  0  0  0  0  0
   38.2180   29.9270   39.2200 C   0  0  0  0  0  0  0  0  0  0  0  0
   37.1350   30.7000   39.6870 C   0  0  0  0  0  0  0  0  0  0  0  0
   36.6410   30.4360   40.9530 C   0  0  0  0  0  0  0  0  0  0  0  0
   37.2190   29.4500   41.6840 N   0  0  0  0  0  0  0  0  0  0  0  0
   38.2600   28.7150   41.2200 C   0  0  0  0  0  0  0  0  0  0  0  0
   38.7480   28.9650   39.9910 N   0  0  0  0  0  0  0  0  0  0  0  0
   38.6100   30.1330   38.2250 H   0  0  0  0  0  0  0  0  0  0  0  0
   36.6900   31.4730   39.1010 H   0  0  0  0  0  0  0  0  0  0  0  0
   35.5720   31.1860   41.4340 O   0  0  0  0  0  0  0  0  0  0  0  0
   34.8210   30.6920   41.9420 H   0  0  0  0  0  0  0  0  0  0  0  0
  1  2  1  0  0  0  0
  2  3  2  0  0  0  0
  2  7  1  0  0  0  0
  3  4  1  0  0  0  0
  4  8  1  0  0  0  0
  4  5  2  0  0  0  0
  5  9  1  0  0  0  0
  6  5  1  0  0  0  0
  6 10  1  0  0  0  0
  7  6  2  0  0  0  0
 11  7  1  0  0  0  0
 12 13  2  0  0  0  0
 12 17  1  0  0  0  0
 13 14  1  0  0  0  0
 14 20  1  0  0  0  0
 14 15  2  0  0  0  0
 16 15  1  0  0  0  0
 16  3  1  0  0  0  0
 17 16  2  0  0  0  0
 18 12  1  0  0  0  0
 19 13  1  0  0  0  0
 20 21  1  0  0  0  0
M  END
>  <minimizedAffinity>
-4.70050716

$$$$

 OpenBabel03252500083D

 21 22  0  0  0  0  0  0  0  0999 V2000
   37.5600   31.0510   37.0660 Cl  0  0  0  0  0  0  0  0  0  0  0  0
   36.5160   30.3290   38.2640 C   0  0  0  0  0  0  0  0  0  0  0  0
   36.5430   30.7560   39.5630 C   0  0  0  0  0  0  0  0  0  0  0  0
   35.7120   30.1890   40.5470 C   0  0  0  0  0  0  0  0  0  0  0  0
   34.8760   29.1850   40.1130 C   0  0  0  0  0  0  0  0  0  0  0  0
   34.8530   28.7600   38.8010 C   0  0  0  0  0  0  0  0  0  0  0  0
   35.6640   29.3200   37.8690 C   0  0  0  0  0  0  0  0  0  0  0  0
   35.7430   30.5330   41.5640 H   0  0  0  0  0  0  0  0  0  0  0  0
   34.2220   28.7180   40.8160 H   0  0  0  0  0  0  0  0  0  0  0  0
   34.1760   27.9610   38.4970 H   0  0  0  0  0  0  0  0  0  0  0  0
   35.6450   28.9880   36.8460 H   0  0  0  0  0  0  0  0  0  0  0  0
   38.0330   34.0970   39.9650 C   0  0  0  0  0  0  0  0  0  0  0  0
   39.2090   33.8160   40.6900 C   0  0  0  0  0  0  0  0  0  0  0  0
   39.4720   32.4980   41.0260 C   0  0  0  0  0  0  0  0  0  0  0  0
   38.5880   31.5420   40.6450 N   0  0  0  0  0  0  0  0  0  0  0  0
   37.4600   31.8290   39.9480 C   0  0  0  0  0  0  0  0  0  0  0  0
   37.1970   33.1060   39.6160 N   0  0  0  0  0  0  0  0  0  0  0  0
   37.8240   35.1320   39.6990 H   0  0  0  0  0  0  0  0  0  0  0  0
   39.8950   34.5780   40.9830 H   0  0  0  0  0  0  0  0  0  0  0  0
   40.6270   32.1980   41.7410 O   0  0  0  0  0  0  0  0  0  0  0  0
   40.5580   31.5110   42.5090 H   0  0  0  0  0  0  0  0  0  0  0  0
  1  2  1  0  0  0  0
  2  3  1  0  0  0  0
  3 16  1  0  0  0  0
  3  4  2  0  0  0  0
  4  8  1  0  0  0  0
  5  4  1  0  0  0  0
  5  9  1  0  0  0  0
  6  5  2  0  0  0  0
  7  2  2  0  0  0  0
  7  6  1  0  0  0  0
 10  6  1  0  0  0  0
 11  7  1  0  0  0  0
 12 13  1  0  0  0  0
 13 19  1  0  0  0  0
 13 14  2  0  0  0  0
 14 20  1  0  0  0  0
 15 14  1  0  0  0  0
 16 15  2  0  0  0  0
 17 16  1  0  0  0  0
 17 12  2  0  0  0  0
 18 12  1  0  0  0  0
 20 21  1  0  0  0  0
M  END
>  <minimizedAffinity>
-4.6703639

$$$$

 OpenBabel03252500083D

 21 22  0  0  0  0  0  0  0  0999 V2000
   35.1550   28.8350   40.7230 Cl  0  0  0  0  0  0  0  0  0  0  0  0
   36.5870   28.6580   41.7050 C   0  0  0  0  0  0  0  0  0  0  0  0
   37.6850   29.4440   41.4860 C   0  0  0  0  0  0  0  0  0  0  0  0
   38.8510   29.3210   42.2630 C   0  0  0  0  0  0  0  0  0  0  0  0
   38.8090   28.3640   43.2520 C   0  0  0  0  0  0  0  0  0  0  0  0
   37.6980   27.5750   43.4680 C   0  0  0  0  0  0  0  0  0  0  0  0
   36.5840   27.7100   42.7060 C   0  0  0  0  0  0  0  0  0  0  0  0
   39.7070   29.9440   42.0810 H   0  0  0  0  0  0  0  0  0  0  0  0
   39.6660   28.2260   43.8740 H   0  0  0  0  0  0  0  0  0  0  0  0
   37.7050   26.8280   44.2620 H   0  0  0  0  0  0  0  0  0  0  0  0
   35.7180   27.0950   42.8750 H   0  0  0  0  0  0  0  0  0  0  0  0
   37.2360   32.6260   39.6910 C   0  0  0  0  0  0  0  0  0  0  0  0
   37.6080   32.2820   38.3750 C   0  0  0  0  0  0  0  0  0  0  0  0
   38.0030   30.9790   38.1250 C   0  0  0  0  0  0  0  0  0  0  0  0
   38.0150   30.0940   39.1540 N   0  0  0  0  0  0  0  0  0  0  0  0
   37.6540   30.4410   40.4150 C   0  0  0  0  0  0  0  0  0  0  0  0
   37.2680   31.7050   40.6670 N   0  0  0  0  0  0  0  0  0  0  0  0
   36.9240   33.6500   39.8900 H   0  0  0  0  0  0  0  0  0  0  0  0
   37.5950   32.9880   37.5750 H   0  0  0  0  0  0  0  0  0  0  0  0
   38.3750   30.6180   36.8340 O   0  0  0  0  0  0  0  0  0  0  0  0
   39.2040   30.0130   36.7180 H   0  0  0  0  0  0  0  0  0  0  0  0
  1  2  1  0  0  0  0
  2  7  1  0  0  0  0
  3  2  2  0  0  0  0
  3  4  1  0  0  0  0
  4  5  2  0  0  0  0
  5  6  1  0  0  0  0
  5  9  1  0  0  0  0
  6 10  1  0  0  0  0
  7 11  1  0  0  0  0
  7  6  2  0  0  0  0
  8  4  1  0  0  0  0
 12 18  1  0  0  0  0
 12 17  1  0  0  0  0
 13 12  2  0  0  0  0
 14 13  1  0  0  0  0
 14 15  2  0  0  0  0
 15 16  1  0  0  0  0
 16 17  2  0  0  0  0
 16  3  1  0  0  0  0
 19 13  1  0  0  0  0
 20 14  1  0  0  0  0
 21 20  1  0  0  0  0
M  END
>  <minimizedAffinity>
-4.62214899

$$$$

 OpenBabel03252500083D

 21 22  0  0  0  0  0  0  0  0999 V2000
   37.8670   28.4190   38.7230 Cl  0  0  0  0  0  0  0  0  0  0  0  0
   37.6830   30.1190   39.0710 C   0  0  0  0  0  0  0  0  0  0  0  0
   37.7510   30.5800   40.3570 C   0  0  0  0  0  0  0  0  0  0  0  0
   37.6060   31.9450   40.6640 C   0  0  0  0  0  0  0  0  0  0  0  0
   37.3930   32.7780   39.5870 C   0  0  0  0  0  0  0  0  0  0  0  0
   37.3260   32.3060   38.2930 C   0  0  0  0  0  0  0  0  0  0  0  0
   37.4680   30.9850   38.0200 C   0  0  0  0  0  0  0  0  0  0  0  0
   37.6610   32.2950   41.6780 H   0  0  0  0  0  0  0  0  0  0  0  0
   37.2750   33.8240   39.7600 H   0  0  0  0  0  0  0  0  0  0  0  0
   37.1560   32.9980   37.4680 H   0  0  0  0  0  0  0  0  0  0  0  0
   37.4160   30.6190   37.0100 H   0  0  0  0  0  0  0  0  0  0  0  0
   39.4480   28.4930   42.8690 C   0  0  0  0  0  0  0  0  0  0  0  0
   38.3660   27.8480   43.5030 C   0  0  0  0  0  0  0  0  0  0  0  0
   37.0840   28.1350   43.0640 C   0  0  0  0  0  0  0  0  0  0  0  0
   36.9280   29.0210   42.0490 N   0  0  0  0  0  0  0  0  0  0  0  0
   37.9790   29.6330   41.4490 C   0  0  0  0  0  0  0  0  0  0  0  0
   39.2290   29.3600   41.8680 N   0  0  0  0  0  0  0  0  0  0  0  0
   40.4570   28.2680   43.2110 H   0  0  0  0  0  0  0  0  0  0  0  0
   38.5040   27.1530   44.3000 H   0  0  0  0  0  0  0  0  0  0  0  0
   36.0020   27.5100   43.6760 O   0  0  0  0  0  0  0  0  0  0  0  0
   35.1660   28.0790   43.8820 H   0  0  0  0  0  0  0  0  0  0  0  0
  1  2  1  0  0  0  0
  2  3  1  0  0  0  0
  3  4  2  0  0  0  0
  3 16  1  0  0  0  0
  4  8  1  0  0  0  0
  5  9  1  0  0  0  0
  5  4  1  0  0  0  0
  6  5  2  0  0  0  0
  7  6  1  0  0  0  0
  7  2  2  0  0  0  0
 10  6  1  0  0  0  0
 11  7  1  0  0  0  0
 12 18  1  0  0  0  0
 12 13  1  0  0  0  0
 13 19  1  0  0  0  0
 14 13  2  0  0  0  0
 14 20  1  0  0  0  0
 15 14  1  0  0  0  0
 16 17  1  0  0  0  0
 16 15  2  0  0  0  0
 17 12  2  0  0  0  0
 20 21  1  0  0  0  0
M  END
>  <minimizedAffinity>
-4.41404676

$$$$
