
 OpenBabel03252504033D

 29 31  0  0  0  0  0  0  0  0999 V2000
   37.9160   29.2790   42.3950 C   0  0  0  0  0  0  0  0  0  0  0  0
   38.2490   29.3480   41.0460 C   0  0  0  0  0  0  0  0  0  0  0  0
   38.1440   28.2150   40.2690 C   0  0  0  0  0  0  0  0  0  0  0  0
   37.7100   27.0400   40.8560 C   0  0  0  0  0  0  0  0  0  0  0  0
   37.5110   25.7960   40.3650 N   0  0  0  0  0  0  0  0  0  0  0  0
   37.0770   24.9700   41.3300 C   0  0  0  0  0  0  0  0  0  0  0  0
   36.9850   25.6910   42.5020 C   0  0  0  0  0  0  0  0  0  0  0  0
   37.3770   26.9720   42.2100 C   0  0  0  0  0  0  0  0  0  0  0  0
   37.4840   28.1080   42.9770 C   0  0  0  0  0  0  0  0  0  0  0  0
   37.9920   30.1620   43.0180 H   0  0  0  0  0  0  0  0  0  0  0  0
   38.3990   28.2600   39.2230 H   0  0  0  0  0  0  0  0  0  0  0  0
   37.6620   25.4830   39.3810 H   0  0  0  0  0  0  0  0  0  0  0  0
   36.8320   23.9110   41.2340 H   0  0  0  0  0  0  0  0  0  0  0  0
   36.6620   25.2760   43.4440 H   0  0  0  0  0  0  0  0  0  0  0  0
   37.2280   28.0670   44.0280 H   0  0  0  0  0  0  0  0  0  0  0  0
   39.6880   31.8560   38.8280 C   0  0  0  0  0  0  0  0  0  0  0  0
   39.5360   33.0470   39.5260 C   0  0  0  0  0  0  0  0  0  0  0  0
   38.9350   32.9800   40.7680 C   0  0  0  0  0  0  0  0  0  0  0  0
   38.5320   31.7730   41.2260 N   0  0  0  0  0  0  0  0  0  0  0  0
   38.6950   30.6330   40.5200 C   0  0  0  0  0  0  0  0  0  0  0  0
   39.2780   30.6680   39.3080 N   0  0  0  0  0  0  0  0  0  0  0  0
   39.8710   33.9930   39.1260 H   0  0  0  0  0  0  0  0  0  0  0  0
   40.3210   31.9730   37.5380 C   0  0  0  0  0  0  0  0  0  0  0  0
   41.5340   31.7980   37.2740 O   0  0  0  0  0  0  0  0  0  0  0  0
   39.3110   32.3270   36.6090 N   0  0  0  0  0  0  0  0  0  0  0  0
   38.5960   33.0680   36.6800 H   0  0  0  0  0  0  0  0  0  0  0  0
   39.3970   31.6830   35.7800 H   0  0  0  0  0  0  0  0  0  0  0  0
   38.7710   34.1610   41.4870 O   0  0  0  0  0  0  0  0  0  0  0  0
   39.4140   34.5090   42.1610 H   0  0  0  0  0  0  0  0  0  0  0  0
  1  9  1  0  0  0  0
  1 10  1  0  0  0  0
  2  1  2  0  0  0  0
  3  4  2  0  0  0  0
  3  2  1  0  0  0  0
  4  8  1  0  0  0  0
  5  4  1  0  0  0  0
  5  6  1  0  0  0  0
  6  7  2  0  0  0  0
  7 14  1  0  0  0  0
  8  7  1  0  0  0  0
  8  9  2  0  0  0  0
  9 15  1  0  0  0  0
 11  3  1  0  0  0  0
 12  5  1  0  0  0  0
 13  6  1  0  0  0  0
 16 21  2  0  0  0  0
 16 17  1  0  0  0  0
 17 18  2  0  0  0  0
 18 19  1  0  0  0  0
 18 28  1  0  0  0  0
 20  2  1  0  0  0  0
 20 19  2  0  0  0  0
 21 20  1  0  0  0  0
 22 17  1  0  0  0  0
 23 16  1  0  0  0  0
 24 23  2  0  0  0  0
 25 26  1  0  0  0  0
 25 23  1  0  0  0  0
 27 25  1  0  0  0  0
 28 29  1  0  0  0  0
M  END
>  <minimizedAffinity>
-5.8664155

$$$$

 OpenBabel03252504033D

 29 31  0  0  0  0  0  0  0  0999 V2000
   37.0420   28.3860   41.7890 C   0  0  0  0  0  0  0  0  0  0  0  0
   37.1160   28.4140   40.3990 C   0  0  0  0  0  0  0  0  0  0  0  0
   37.1300   27.2260   39.7040 C   0  0  0  0  0  0  0  0  0  0  0  0
   37.0710   26.0370   40.4090 C   0  0  0  0  0  0  0  0  0  0  0  0
   37.0680   24.7430   40.0150 N   0  0  0  0  0  0  0  0  0  0  0  0
   36.9970   23.9260   41.0780 C   0  0  0  0  0  0  0  0  0  0  0  0
   36.9520   24.7040   42.2160 C   0  0  0  0  0  0  0  0  0  0  0  0
   36.9980   26.0110   41.8030 C   0  0  0  0  0  0  0  0  0  0  0  0
   36.9840   27.2020   42.4890 C   0  0  0  0  0  0  0  0  0  0  0  0
   37.0300   29.3130   42.3500 H   0  0  0  0  0  0  0  0  0  0  0  0
   37.1860   27.2370   38.6280 H   0  0  0  0  0  0  0  0  0  0  0  0
   37.1130   24.3900   39.0350 H   0  0  0  0  0  0  0  0  0  0  0  0
   36.9770   22.8340   41.0730 H   0  0  0  0  0  0  0  0  0  0  0  0
   36.8930   24.3080   43.2170 H   0  0  0  0  0  0  0  0  0  0  0  0
   36.9270   27.1940   43.5690 H   0  0  0  0  0  0  0  0  0  0  0  0
   37.2710   30.9710   37.8070 C   0  0  0  0  0  0  0  0  0  0  0  0
   37.2810   32.1650   38.5150 C   0  0  0  0  0  0  0  0  0  0  0  0
   37.2340   32.0850   39.8930 C   0  0  0  0  0  0  0  0  0  0  0  0
   37.1810   30.8610   40.4670 N   0  0  0  0  0  0  0  0  0  0  0  0
   37.1740   29.7170   39.7470 C   0  0  0  0  0  0  0  0  0  0  0  0
   37.2190   29.7660   38.4030 N   0  0  0  0  0  0  0  0  0  0  0  0
   37.3230   33.1250   38.0200 H   0  0  0  0  0  0  0  0  0  0  0  0
   37.3220   31.1030   36.3720 C   0  0  0  0  0  0  0  0  0  0  0  0
   36.7570   30.3700   35.5270 O   0  0  0  0  0  0  0  0  0  0  0  0
   38.1350   32.2280   36.0860 N   0  0  0  0  0  0  0  0  0  0  0  0
   39.0670   32.4650   36.4600 H   0  0  0  0  0  0  0  0  0  0  0  0
   37.6190   32.8290   35.3930 H   0  0  0  0  0  0  0  0  0  0  0  0
   37.2430   33.2680   40.6250 O   0  0  0  0  0  0  0  0  0  0  0  0
   38.0590   33.7060   40.9880 H   0  0  0  0  0  0  0  0  0  0  0  0
  1 10  1  0  0  0  0
  1  9  1  0  0  0  0
  2  1  2  0  0  0  0
  3  2  1  0  0  0  0
  3  4  2  0  0  0  0
  4  8  1  0  0  0  0
  5  4  1  0  0  0  0
  5  6  1  0  0  0  0
  6  7  2  0  0  0  0
  7 14  1  0  0  0  0
  8  7  1  0  0  0  0
  8  9  2  0  0  0  0
  9 15  1  0  0  0  0
 11  3  1  0  0  0  0
 12  5  1  0  0  0  0
 13  6  1  0  0  0  0
 16 21  2  0  0  0  0
 16 17  1  0  0  0  0
 17 18  2  0  0  0  0
 18 19  1  0  0  0  0
 18 28  1  0  0  0  0
 20  2  1  0  0  0  0
 20 19  2  0  0  0  0
 21 20  1  0  0  0  0
 22 17  1  0  0  0  0
 23 16  1  0  0  0  0
 24 23  2  0  0  0  0
 25 23  1  0  0  0  0
 25 26  1  0  0  0  0
 27 25  1  0  0  0  0
 28 29  1  0  0  0  0
M  END
>  <minimizedAffinity>
-5.78037453

$$$$

 OpenBabel03252504033D

 29 31  0  0  0  0  0  0  0  0999 V2000
   37.2330   28.4010   42.7310 C   0  0  0  0  0  0  0  0  0  0  0  0
   38.0010   28.6580   41.5980 C   0  0  0  0  0  0  0  0  0  0  0  0
   38.3350   27.6150   40.7630 C   0  0  0  0  0  0  0  0  0  0  0  0
   37.8970   26.3410   41.0760 C   0  0  0  0  0  0  0  0  0  0  0  0
   38.0610   25.1460   40.4640 N   0  0  0  0  0  0  0  0  0  0  0  0
   37.4420   24.1740   41.1530 C   0  0  0  0  0  0  0  0  0  0  0  0
   36.8470   24.7440   42.2590 C   0  0  0  0  0  0  0  0  0  0  0  0
   37.1280   26.0850   42.2120 C   0  0  0  0  0  0  0  0  0  0  0  0
   36.7990   27.1320   43.0400 C   0  0  0  0  0  0  0  0  0  0  0  0
   36.9620   29.2110   43.3960 H   0  0  0  0  0  0  0  0  0  0  0  0
   38.9290   27.8050   39.8840 H   0  0  0  0  0  0  0  0  0  0  0  0
   38.5880   24.9640   39.5820 H   0  0  0  0  0  0  0  0  0  0  0  0
   37.4000   23.1110   40.9050 H   0  0  0  0  0  0  0  0  0  0  0  0
   36.2790   24.1920   42.9910 H   0  0  0  0  0  0  0  0  0  0  0  0
   36.2030   26.9450   43.9230 H   0  0  0  0  0  0  0  0  0  0  0  0
   40.0740   31.6440   41.3410 C   0  0  0  0  0  0  0  0  0  0  0  0
   39.1960   32.6240   40.8970 C   0  0  0  0  0  0  0  0  0  0  0  0
   37.8830   32.2490   40.6870 C   0  0  0  0  0  0  0  0  0  0  0  0
   37.5330   30.9640   40.9220 N   0  0  0  0  0  0  0  0  0  0  0  0
   38.4130   30.0350   41.3550 C   0  0  0  0  0  0  0  0  0  0  0  0
   39.6990   30.3720   41.5680 N   0  0  0  0  0  0  0  0  0  0  0  0
   39.5140   33.6410   40.7200 H   0  0  0  0  0  0  0  0  0  0  0  0
   41.4330   32.0800   41.5470 C   0  0  0  0  0  0  0  0  0  0  0  0
   42.1980   32.5930   40.6970 O   0  0  0  0  0  0  0  0  0  0  0  0
   41.7520   31.8210   42.9030 N   0  0  0  0  0  0  0  0  0  0  0  0
   41.6100   30.9560   43.4480 H   0  0  0  0  0  0  0  0  0  0  0  0
   42.1830   32.6940   43.3040 H   0  0  0  0  0  0  0  0  0  0  0  0
   36.9840   33.2140   40.2420 O   0  0  0  0  0  0  0  0  0  0  0  0
   36.4060   33.7670   40.8330 H   0  0  0  0  0  0  0  0  0  0  0  0
  1  9  1  0  0  0  0
  1 10  1  0  0  0  0
  2  1  2  0  0  0  0
  3  4  2  0  0  0  0
  3  2  1  0  0  0  0
  4  8  1  0  0  0  0
  5  4  1  0  0  0  0
  5  6  1  0  0  0  0
  6  7  2  0  0  0  0
  7 14  1  0  0  0  0
  8  7  1  0  0  0  0
  8  9  2  0  0  0  0
  9 15  1  0  0  0  0
 11  3  1  0  0  0  0
 12  5  1  0  0  0  0
 13  6  1  0  0  0  0
 16 23  1  0  0  0  0
 16 21  1  0  0  0  0
 17 16  2  0  0  0  0
 18 17  1  0  0  0  0
 18 19  2  0  0  0  0
 19 20  1  0  0  0  0
 20 21  2  0  0  0  0
 20  2  1  0  0  0  0
 22 17  1  0  0  0  0
 23 25  1  0  0  0  0
 24 23  2  0  0  0  0
 25 27  1  0  0  0  0
 25 26  1  0  0  0  0
 28 18  1  0  0  0  0
 28 29  1  0  0  0  0
M  END
>  <minimizedAffinity>
-5.7286191

$$$$

 OpenBabel03252504033D

 29 31  0  0  0  0  0  0  0  0999 V2000
   37.0060   28.2960   41.4990 C   0  0  0  0  0  0  0  0  0  0  0  0
   37.2770   28.2390   40.1350 C   0  0  0  0  0  0  0  0  0  0  0  0
   37.4360   27.0110   39.5330 C   0  0  0  0  0  0  0  0  0  0  0  0
   37.3220   25.8680   40.3050 C   0  0  0  0  0  0  0  0  0  0  0  0
   37.4250   24.5530   40.0050 N   0  0  0  0  0  0  0  0  0  0  0  0
   37.2340   23.8020   41.1020 C   0  0  0  0  0  0  0  0  0  0  0  0
   36.9960   24.6480   42.1650 C   0  0  0  0  0  0  0  0  0  0  0  0
   37.0510   25.9270   41.6730 C   0  0  0  0  0  0  0  0  0  0  0  0
   36.8930   27.1570   42.2650 C   0  0  0  0  0  0  0  0  0  0  0  0
   36.8770   29.2550   41.9860 H   0  0  0  0  0  0  0  0  0  0  0  0
   37.6460   26.9570   38.4780 H   0  0  0  0  0  0  0  0  0  0  0  0
   37.6240   24.1410   39.0680 H   0  0  0  0  0  0  0  0  0  0  0  0
   37.2570   22.7130   41.1700 H   0  0  0  0  0  0  0  0  0  0  0  0
   36.8090   24.3140   43.1730 H   0  0  0  0  0  0  0  0  0  0  0  0
   36.6820   27.2150   43.3250 H   0  0  0  0  0  0  0  0  0  0  0  0
   37.6760   31.7910   39.4300 C   0  0  0  0  0  0  0  0  0  0  0  0
   37.5700   31.8730   38.0480 C   0  0  0  0  0  0  0  0  0  0  0  0
   37.3580   30.6950   37.3590 C   0  0  0  0  0  0  0  0  0  0  0  0
   37.2700   29.5430   38.0630 N   0  0  0  0  0  0  0  0  0  0  0  0
   37.3780   29.4990   39.4090 C   0  0  0  0  0  0  0  0  0  0  0  0
   37.5840   30.6320   40.1050 N   0  0  0  0  0  0  0  0  0  0  0  0
   37.6460   32.8130   37.5210 H   0  0  0  0  0  0  0  0  0  0  0  0
   37.8960   33.0460   40.1070 C   0  0  0  0  0  0  0  0  0  0  0  0
   38.7020   33.2680   41.0410 O   0  0  0  0  0  0  0  0  0  0  0  0
   37.0250   33.9950   39.5180 N   0  0  0  0  0  0  0  0  0  0  0  0
   36.0150   33.9130   39.3210 H   0  0  0  0  0  0  0  0  0  0  0  0
   37.5900   34.8540   39.2920 H   0  0  0  0  0  0  0  0  0  0  0  0
   37.2480   30.7500   35.9730 O   0  0  0  0  0  0  0  0  0  0  0  0
   36.3910   30.8320   35.4740 H   0  0  0  0  0  0  0  0  0  0  0  0
  1 10  1  0  0  0  0
  1  9  1  0  0  0  0
  2  1  2  0  0  0  0
  3  2  1  0  0  0  0
  3  4  2  0  0  0  0
  4  8  1  0  0  0  0
  5  4  1  0  0  0  0
  5  6  1  0  0  0  0
  6 13  1  0  0  0  0
  6  7  2  0  0  0  0
  7 14  1  0  0  0  0
  8  7  1  0  0  0  0
  8  9  2  0  0  0  0
  9 15  1  0  0  0  0
 11  3  1  0  0  0  0
 12  5  1  0  0  0  0
 16 21  1  0  0  0  0
 16 23  1  0  0  0  0
 17 16  2  0  0  0  0
 18 17  1  0  0  0  0
 18 19  2  0  0  0  0
 19 20  1  0  0  0  0
 20 21  2  0  0  0  0
 20  2  1  0  0  0  0
 22 17  1  0  0  0  0
 23 24  2  0  0  0  0
 25 23  1  0  0  0  0
 26 25  1  0  0  0  0
 27 25  1  0  0  0  0
 28 18  1  0  0  0  0
 29 28  1  0  0  0  0
M  END
>  <minimizedAffinity>
-5.67705727

$$$$

 OpenBabel03252504033D

 29 31  0  0  0  0  0  0  0  0999 V2000
   36.4520   26.8990   39.6840 C   0  0  0  0  0  0  0  0  0  0  0  0
   35.9540   28.1840   39.4840 C   0  0  0  0  0  0  0  0  0  0  0  0
   36.0910   29.1200   40.4840 C   0  0  0  0  0  0  0  0  0  0  0  0
   36.7220   28.7540   41.6600 C   0  0  0  0  0  0  0  0  0  0  0  0
   36.9990   29.4360   42.7950 N   0  0  0  0  0  0  0  0  0  0  0  0
   37.6350   28.6490   43.6760 C   0  0  0  0  0  0  0  0  0  0  0  0
   37.7860   27.4020   43.1070 C   0  0  0  0  0  0  0  0  0  0  0  0
   37.2200   27.4660   41.8590 C   0  0  0  0  0  0  0  0  0  0  0  0
   37.0790   26.5380   40.8550 C   0  0  0  0  0  0  0  0  0  0  0  0
   36.3520   26.1520   38.9050 H   0  0  0  0  0  0  0  0  0  0  0  0
   35.7100   30.1170   40.3380 H   0  0  0  0  0  0  0  0  0  0  0  0
   36.7670   30.4340   42.9950 H   0  0  0  0  0  0  0  0  0  0  0  0
   37.9840   28.9200   44.6740 H   0  0  0  0  0  0  0  0  0  0  0  0
   38.2640   26.5670   43.5950 H   0  0  0  0  0  0  0  0  0  0  0  0
   37.4620   25.5360   40.9980 H   0  0  0  0  0  0  0  0  0  0  0  0
   35.4640   29.1400   36.0020 C   0  0  0  0  0  0  0  0  0  0  0  0
   34.0950   29.0130   35.8090 C   0  0  0  0  0  0  0  0  0  0  0  0
   33.3400   28.5960   36.8880 C   0  0  0  0  0  0  0  0  0  0  0  0
   33.9710   28.3370   38.0560 N   0  0  0  0  0  0  0  0  0  0  0  0
   35.3060   28.4710   38.2090 C   0  0  0  0  0  0  0  0  0  0  0  0
   36.0660   28.8760   37.1750 N   0  0  0  0  0  0  0  0  0  0  0  0
   33.6270   29.2280   34.8590 H   0  0  0  0  0  0  0  0  0  0  0  0
   36.2120   29.5780   34.8490 C   0  0  0  0  0  0  0  0  0  0  0  0
   35.9140   30.5110   34.0670 O   0  0  0  0  0  0  0  0  0  0  0  0
   37.3600   28.7530   34.7590 N   0  0  0  0  0  0  0  0  0  0  0  0
   37.4230   27.7240   34.8060 H   0  0  0  0  0  0  0  0  0  0  0  0
   38.1970   29.3790   34.6300 H   0  0  0  0  0  0  0  0  0  0  0  0
   31.9650   28.4600   36.7200 O   0  0  0  0  0  0  0  0  0  0  0  0
   31.2960   29.1680   36.9210 H   0  0  0  0  0  0  0  0  0  0  0  0
  1  9  1  0  0  0  0
  2  1  2  0  0  0  0
  2  3  1  0  0  0  0
  3  4  2  0  0  0  0
  4  8  1  0  0  0  0
  4  5  1  0  0  0  0
  5 12  1  0  0  0  0
  5  6  1  0  0  0  0
  6 13  1  0  0  0  0
  7 14  1  0  0  0  0
  7  6  2  0  0  0  0
  8  7  1  0  0  0  0
  9 15  1  0  0  0  0
  9  8  2  0  0  0  0
 10  1  1  0  0  0  0
 11  3  1  0  0  0  0
 16 21  1  0  0  0  0
 17 16  2  0  0  0  0
 17 18  1  0  0  0  0
 18 19  2  0  0  0  0
 19 20  1  0  0  0  0
 20  2  1  0  0  0  0
 21 20  2  0  0  0  0
 22 17  1  0  0  0  0
 23 16  1  0  0  0  0
 24 23  2  0  0  0  0
 25 26  1  0  0  0  0
 25 23  1  0  0  0  0
 27 25  1  0  0  0  0
 28 18  1  0  0  0  0
 28 29  1  0  0  0  0
M  END
>  <minimizedAffinity>
-5.62428093

$$$$

 OpenBabel03252504033D

 29 31  0  0  0  0  0  0  0  0999 V2000
   38.5720   28.5740   39.8250 C   0  0  0  0  0  0  0  0  0  0  0  0
   38.7400   29.7960   40.4710 C   0  0  0  0  0  0  0  0  0  0  0  0
   38.2340   29.9580   41.7410 C   0  0  0  0  0  0  0  0  0  0  0  0
   37.5710   28.9000   42.3370 C   0  0  0  0  0  0  0  0  0  0  0  0
   36.9790   28.7610   43.5460 N   0  0  0  0  0  0  0  0  0  0  0  0
   36.4590   27.5310   43.6780 C   0  0  0  0  0  0  0  0  0  0  0  0
   36.7140   26.8300   42.5180 C   0  0  0  0  0  0  0  0  0  0  0  0
   37.4020   27.6770   41.6870 C   0  0  0  0  0  0  0  0  0  0  0  0
   37.9120   27.5230   40.4200 C   0  0  0  0  0  0  0  0  0  0  0  0
   38.9660   28.4310   38.8260 H   0  0  0  0  0  0  0  0  0  0  0  0
   38.3600   30.9000   42.2500 H   0  0  0  0  0  0  0  0  0  0  0  0
   36.9150   29.4840   44.2950 H   0  0  0  0  0  0  0  0  0  0  0  0
   35.9230   27.1280   44.5400 H   0  0  0  0  0  0  0  0  0  0  0  0
   36.4070   25.8100   42.3480 H   0  0  0  0  0  0  0  0  0  0  0  0
   37.7870   26.5790   39.9070 H   0  0  0  0  0  0  0  0  0  0  0  0
   41.0450   32.5260   39.7580 C   0  0  0  0  0  0  0  0  0  0  0  0
   40.8020   32.8310   38.4250 C   0  0  0  0  0  0  0  0  0  0  0  0
   39.8360   32.0900   37.7730 C   0  0  0  0  0  0  0  0  0  0  0  0
   39.1920   31.1190   38.4620 N   0  0  0  0  0  0  0  0  0  0  0  0
   39.4540   30.8490   39.7590 C   0  0  0  0  0  0  0  0  0  0  0  0
   40.3890   31.5560   40.4190 N   0  0  0  0  0  0  0  0  0  0  0  0
   41.3380   33.6140   37.9080 H   0  0  0  0  0  0  0  0  0  0  0  0
   42.0600   33.3260   40.3980 C   0  0  0  0  0  0  0  0  0  0  0  0
   42.8320   34.1470   39.8490 O   0  0  0  0  0  0  0  0  0  0  0  0
   42.0270   33.0130   41.7790 N   0  0  0  0  0  0  0  0  0  0  0  0
   42.0200   32.0860   42.2340 H   0  0  0  0  0  0  0  0  0  0  0  0
   42.0080   33.9200   42.3140 H   0  0  0  0  0  0  0  0  0  0  0  0
   39.5730   32.3760   36.4360 O   0  0  0  0  0  0  0  0  0  0  0  0
   38.8670   33.0000   36.1180 H   0  0  0  0  0  0  0  0  0  0  0  0
  1  9  2  0  0  0  0
  1  2  1  0  0  0  0
  2  3  2  0  0  0  0
  3 11  1  0  0  0  0
  3  4  1  0  0  0  0
  4  5  1  0  0  0  0
  5  6  1  0  0  0  0
  5 12  1  0  0  0  0
  6 13  1  0  0  0  0
  7  6  2  0  0  0  0
  8  4  2  0  0  0  0
  8  7  1  0  0  0  0
  9  8  1  0  0  0  0
 10  1  1  0  0  0  0
 14  7  1  0  0  0  0
 15  9  1  0  0  0  0
 16 23  1  0  0  0  0
 16 21  1  0  0  0  0
 17 16  2  0  0  0  0
 18 17  1  0  0  0  0
 18 19  2  0  0  0  0
 19 20  1  0  0  0  0
 20 21  2  0  0  0  0
 20  2  1  0  0  0  0
 22 17  1  0  0  0  0
 23 25  1  0  0  0  0
 24 23  2  0  0  0  0
 25 26  1  0  0  0  0
 25 27  1  0  0  0  0
 28 18  1  0  0  0  0
 29 28  1  0  0  0  0
M  END
>  <minimizedAffinity>
-5.6098814

$$$$

 OpenBabel03252504033D

 29 31  0  0  0  0  0  0  0  0999 V2000
   37.2560   28.2030   42.7280 C   0  0  0  0  0  0  0  0  0  0  0  0
   38.2330   28.4230   41.7620 C   0  0  0  0  0  0  0  0  0  0  0  0
   38.6910   27.3600   41.0150 C   0  0  0  0  0  0  0  0  0  0  0  0
   38.1640   26.1030   41.2500 C   0  0  0  0  0  0  0  0  0  0  0  0
   38.4070   24.8950   40.6920 N   0  0  0  0  0  0  0  0  0  0  0  0
   37.6400   23.9500   41.2580 C   0  0  0  0  0  0  0  0  0  0  0  0
   36.8610   24.5510   42.2240 C   0  0  0  0  0  0  0  0  0  0  0  0
   37.1850   25.8840   42.2200 C   0  0  0  0  0  0  0  0  0  0  0  0
   36.7340   26.9510   42.9600 C   0  0  0  0  0  0  0  0  0  0  0  0
   36.8860   29.0300   43.3220 H   0  0  0  0  0  0  0  0  0  0  0  0
   39.4470   27.5210   40.2640 H   0  0  0  0  0  0  0  0  0  0  0  0
   39.0870   24.6870   39.9290 H   0  0  0  0  0  0  0  0  0  0  0  0
   37.6150   22.8860   41.0160 H   0  0  0  0  0  0  0  0  0  0  0  0
   36.1480   24.0260   42.8390 H   0  0  0  0  0  0  0  0  0  0  0  0
   35.9740   26.7930   43.7140 H   0  0  0  0  0  0  0  0  0  0  0  0
   38.4570   31.9000   40.6940 C   0  0  0  0  0  0  0  0  0  0  0  0
   39.6420   32.3490   41.2620 C   0  0  0  0  0  0  0  0  0  0  0  0
   40.3650   31.4450   42.0150 C   0  0  0  0  0  0  0  0  0  0  0  0
   39.8820   30.1900   42.1560 N   0  0  0  0  0  0  0  0  0  0  0  0
   38.7250   29.7860   41.5890 C   0  0  0  0  0  0  0  0  0  0  0  0
   38.0000   30.6450   40.8500 N   0  0  0  0  0  0  0  0  0  0  0  0
   39.9950   33.3620   41.1270 H   0  0  0  0  0  0  0  0  0  0  0  0
   37.7360   32.8770   39.9160 C   0  0  0  0  0  0  0  0  0  0  0  0
   36.9850   32.6570   38.9370 O   0  0  0  0  0  0  0  0  0  0  0  0
   38.0330   34.1490   40.4660 N   0  0  0  0  0  0  0  0  0  0  0  0
   38.9520   34.5520   40.7080 H   0  0  0  0  0  0  0  0  0  0  0  0
   37.1230   34.6600   40.6040 H   0  0  0  0  0  0  0  0  0  0  0  0
   41.5570   31.8720   42.5950 O   0  0  0  0  0  0  0  0  0  0  0  0
   42.4560   31.7740   42.1810 H   0  0  0  0  0  0  0  0  0  0  0  0
  1  9  1  0  0  0  0
  1 10  1  0  0  0  0
  2  1  2  0  0  0  0
  3  4  2  0  0  0  0
  3  2  1  0  0  0  0
  4  8  1  0  0  0  0
  5  4  1  0  0  0  0
  5  6  1  0  0  0  0
  6  7  2  0  0  0  0
  7 14  1  0  0  0  0
  8  7  1  0  0  0  0
  8  9  2  0  0  0  0
  9 15  1  0  0  0  0
 11  3  1  0  0  0  0
 12  5  1  0  0  0  0
 13  6  1  0  0  0  0
 16 21  2  0  0  0  0
 16 17  1  0  0  0  0
 17 18  2  0  0  0  0
 18 19  1  0  0  0  0
 18 28  1  0  0  0  0
 20  2  1  0  0  0  0
 20 19  2  0  0  0  0
 21 20  1  0  0  0  0
 22 17  1  0  0  0  0
 23 25  1  0  0  0  0
 23 16  1  0  0  0  0
 24 23  2  0  0  0  0
 25 27  1  0  0  0  0
 25 26  1  0  0  0  0
 29 28  1  0  0  0  0
M  END
>  <minimizedAffinity>
-5.58008432

$$$$

 OpenBabel03252504033D

 29 31  0  0  0  0  0  0  0  0999 V2000
   38.3910   28.9330   42.5690 C   0  0  0  0  0  0  0  0  0  0  0  0
   39.3540   29.3380   41.6480 C   0  0  0  0  0  0  0  0  0  0  0  0
   40.4710   28.5560   41.4570 C   0  0  0  0  0  0  0  0  0  0  0  0
   40.6040   27.3900   42.1890 C   0  0  0  0  0  0  0  0  0  0  0  0
   41.5650   26.4390   42.2210 N   0  0  0  0  0  0  0  0  0  0  0  0
   41.2510   25.4790   43.1040 C   0  0  0  0  0  0  0  0  0  0  0  0
   40.0400   25.8030   43.6780 C   0  0  0  0  0  0  0  0  0  0  0  0
   39.6380   26.9860   43.1130 C   0  0  0  0  0  0  0  0  0  0  0  0
   38.5260   27.7720   43.2960 C   0  0  0  0  0  0  0  0  0  0  0  0
   37.5060   29.5380   42.7280 H   0  0  0  0  0  0  0  0  0  0  0  0
   41.2210   28.8610   40.7460 H   0  0  0  0  0  0  0  0  0  0  0  0
   42.4420   26.4200   41.6550 H   0  0  0  0  0  0  0  0  0  0  0  0
   41.8320   24.5870   43.3470 H   0  0  0  0  0  0  0  0  0  0  0  0
   39.5460   25.2040   44.4270 H   0  0  0  0  0  0  0  0  0  0  0  0
   37.7710   27.4690   44.0090 H   0  0  0  0  0  0  0  0  0  0  0  0
   38.7730   31.6900   38.9250 C   0  0  0  0  0  0  0  0  0  0  0  0
   38.6840   32.9210   39.5600 C   0  0  0  0  0  0  0  0  0  0  0  0
   38.8280   32.9370   40.9330 C   0  0  0  0  0  0  0  0  0  0  0  0
   39.0410   31.7650   41.5740 N   0  0  0  0  0  0  0  0  0  0  0  0
   39.1220   30.5830   40.9250 C   0  0  0  0  0  0  0  0  0  0  0  0
   38.9870   30.5380   39.5870 N   0  0  0  0  0  0  0  0  0  0  0  0
   38.5120   33.8380   39.0130 H   0  0  0  0  0  0  0  0  0  0  0  0
   38.6180   31.7210   37.4920 C   0  0  0  0  0  0  0  0  0  0  0  0
   37.5740   31.4840   36.8400 O   0  0  0  0  0  0  0  0  0  0  0  0
   39.8760   32.0740   36.9450 N   0  0  0  0  0  0  0  0  0  0  0  0
   40.8080   31.6810   37.1550 H   0  0  0  0  0  0  0  0  0  0  0  0
   39.7190   32.8470   36.2470 H   0  0  0  0  0  0  0  0  0  0  0  0
   38.7430   34.1600   41.5930 O   0  0  0  0  0  0  0  0  0  0  0  0
   39.5200   34.7400   41.8160 H   0  0  0  0  0  0  0  0  0  0  0  0
  1 10  1  0  0  0  0
  1  9  1  0  0  0  0
  2  1  2  0  0  0  0
  3  2  1  0  0  0  0
  3  4  2  0  0  0  0
  4  5  1  0  0  0  0
  4  8  1  0  0  0  0
  5  6  1  0  0  0  0
  6 13  1  0  0  0  0
  6  7  2  0  0  0  0
  7 14  1  0  0  0  0
  8  9  2  0  0  0  0
  8  7  1  0  0  0  0
  9 15  1  0  0  0  0
 11  3  1  0  0  0  0
 12  5  1  0  0  0  0
 16 17  2  0  0  0  0
 16 21  1  0  0  0  0
 17 18  1  0  0  0  0
 18 19  2  0  0  0  0
 18 28  1  0  0  0  0
 20 19  1  0  0  0  0
 20  2  1  0  0  0  0
 21 20  2  0  0  0  0
 22 17  1  0  0  0  0
 23 16  1  0  0  0  0
 24 23  2  0  0  0  0
 25 26  1  0  0  0  0
 25 23  1  0  0  0  0
 27 25  1  0  0  0  0
 28 29  1  0  0  0  0
M  END
>  <minimizedAffinity>
-5.56293535

$$$$

 OpenBabel03252504033D

 29 31  0  0  0  0  0  0  0  0999 V2000
   41.2300   28.3950   43.0040 C   0  0  0  0  0  0  0  0  0  0  0  0
   40.2450   29.2750   42.5640 C   0  0  0  0  0  0  0  0  0  0  0  0
   40.5410   30.6160   42.4590 C   0  0  0  0  0  0  0  0  0  0  0  0
   41.8110   31.0480   42.7940 C   0  0  0  0  0  0  0  0  0  0  0  0
   42.3860   32.2730   42.7950 N   0  0  0  0  0  0  0  0  0  0  0  0
   43.6610   32.1970   43.2070 C   0  0  0  0  0  0  0  0  0  0  0  0
   43.9420   30.8770   43.4910 C   0  0  0  0  0  0  0  0  0  0  0  0
   42.7970   30.1650   43.2360 C   0  0  0  0  0  0  0  0  0  0  0  0
   42.4940   28.8290   43.3370 C   0  0  0  0  0  0  0  0  0  0  0  0
   41.0120   27.3370   43.0910 H   0  0  0  0  0  0  0  0  0  0  0  0
   39.7850   31.3040   42.1190 H   0  0  0  0  0  0  0  0  0  0  0  0
   41.9350   33.1730   42.5200 H   0  0  0  0  0  0  0  0  0  0  0  0
   44.3730   33.0170   43.3100 H   0  0  0  0  0  0  0  0  0  0  0  0
   44.8980   30.5240   43.8450 H   0  0  0  0  0  0  0  0  0  0  0  0
   43.2510   28.1340   43.6780 H   0  0  0  0  0  0  0  0  0  0  0  0
   36.8280   28.9990   41.3290 C   0  0  0  0  0  0  0  0  0  0  0  0
   36.4760   27.6860   41.6080 C   0  0  0  0  0  0  0  0  0  0  0  0
   37.4240   26.8940   42.2260 C   0  0  0  0  0  0  0  0  0  0  0  0
   38.6270   27.4380   42.5190 N   0  0  0  0  0  0  0  0  0  0  0  0
   38.9370   28.7210   42.2340 C   0  0  0  0  0  0  0  0  0  0  0  0
   38.0330   29.5150   41.6320 N   0  0  0  0  0  0  0  0  0  0  0  0
   35.5030   27.2870   41.3580 H   0  0  0  0  0  0  0  0  0  0  0  0
   35.8070   29.7880   40.6850 C   0  0  0  0  0  0  0  0  0  0  0  0
   35.0740   29.4390   39.7300 O   0  0  0  0  0  0  0  0  0  0  0  0
   35.7810   31.0470   41.3350 N   0  0  0  0  0  0  0  0  0  0  0  0
   36.5680   31.6730   41.5660 H   0  0  0  0  0  0  0  0  0  0  0  0
   34.7780   31.2680   41.5670 H   0  0  0  0  0  0  0  0  0  0  0  0
   37.0950   25.5730   42.5160 O   0  0  0  0  0  0  0  0  0  0  0  0
   36.7190   25.2580   43.3810 H   0  0  0  0  0  0  0  0  0  0  0  0
  1 10  1  0  0  0  0
  1  9  1  0  0  0  0
  2  1  2  0  0  0  0
  3  2  1  0  0  0  0
  3  4  2  0  0  0  0
  4  5  1  0  0  0  0
  4  8  1  0  0  0  0
  5  6  1  0  0  0  0
  6 13  1  0  0  0  0
  6  7  2  0  0  0  0
  7 14  1  0  0  0  0
  8  9  2  0  0  0  0
  8  7  1  0  0  0  0
  9 15  1  0  0  0  0
 11  3  1  0  0  0  0
 12  5  1  0  0  0  0
 16 17  2  0  0  0  0
 16 21  1  0  0  0  0
 17 18  1  0  0  0  0
 18 28  1  0  0  0  0
 18 19  2  0  0  0  0
 20 19  1  0  0  0  0
 20  2  1  0  0  0  0
 21 20  2  0  0  0  0
 22 17  1  0  0  0  0
 23 16  1  0  0  0  0
 23 25  1  0  0  0  0
 24 23  2  0  0  0  0
 25 26  1  0  0  0  0
 25 27  1  0  0  0  0
 28 29  1  0  0  0  0
M  END
>  <minimizedAffinity>
-5.54019356

$$$$
