
     RDKit          3D

 37 38  0  0  0  0  0  0  0  0999 V2000
   46.5769   34.9079   43.2507 O   0  0  0  0  0  0  0  0  0  0  0  0
   46.8035   33.9784   42.2298 C   0  0  1  0  0  0  0  0  0  0  0  0
   46.0769   34.4186   40.9557 C   0  0  0  0  0  0  0  0  0  0  0  0
   46.6869   33.4787   39.9476 C   0  0  0  0  0  0  0  0  0  0  0  0
   48.0641   33.1393   40.4700 C   0  0  0  0  0  0  0  0  0  0  0  0
   48.2189   33.9584   41.7434 C   0  0  1  0  0  0  0  0  0  0  0  0
   48.7627   35.3338   41.4627 C   0  0  0  0  0  0  0  0  0  0  0  0
   49.6603   35.7500   42.4206 O   0  0  0  0  0  0  0  0  0  0  0  0
   44.7280   35.3497   44.9938 O   0  0  0  0  0  0  0  0  0  0  0  0
   45.5779   34.2395   44.4110 P   0  0  1  0  0  0  0  0  0  0  0  0
   44.6088   33.0364   43.7159 O   0  0  0  0  0  0  0  0  0  0  0  0
   46.4721   33.4906   45.6025 O   0  0  0  0  0  0  0  0  0  0  0  0
   46.2294   32.1543   45.5701 C   0  0  0  0  0  0  0  0  0  0  0  0
   45.6406   31.9042   49.2351 C   0  0  0  0  0  0  0  0  0  0  0  0
   45.9755   32.4656   47.9979 C   0  0  0  0  0  0  0  0  0  0  0  0
   45.8821   31.6085   46.8922 C   0  0  0  0  0  0  0  0  0  0  0  0
   45.4812   30.3108   47.0762 N   0  0  0  0  0  0  0  0  0  0  0  0
   45.1681   29.8122   48.2892 C   0  0  0  0  0  0  0  0  0  0  0  0
   45.2500   30.6092   49.3528 N   0  0  0  0  0  0  0  0  0  0  0  0
   46.4438   32.9766   42.4523 H   0  0  0  0  0  0  0  0  0  0  0  0
   44.9844   34.2012   41.0335 H   0  0  0  0  0  0  0  0  0  0  0  0
   46.1755   35.4762   40.7336 H   0  0  0  0  0  0  0  0  0  0  0  0
   46.0586   32.5705   39.8166 H   0  0  0  0  0  0  0  0  0  0  0  0
   46.8416   34.0399   38.9996 H   0  0  0  0  0  0  0  0  0  0  0  0
   48.0547   32.0652   40.7374 H   0  0  0  0  0  0  0  0  0  0  0  0
   48.8618   33.3644   39.7601 H   0  0  0  0  0  0  0  0  0  0  0  0
   48.8242   33.4154   42.5129 H   0  0  0  0  0  0  0  0  0  0  0  0
   47.9956   36.1246   41.3882 H   0  0  0  0  0  0  0  0  0  0  0  0
   49.3061   35.2854   40.4770 H   0  0  0  0  0  0  0  0  0  0  0  0
   49.1476   35.9690   43.2489 H   0  0  0  0  0  0  0  0  0  0  0  0
   43.6672   33.3363   43.7842 H   0  0  0  0  0  0  0  0  0  0  0  0
   45.5208   31.7725   44.8421 H   0  0  0  0  0  0  0  0  0  0  0  0
   47.2139   31.6681   45.2989 H   0  0  0  0  0  0  0  0  0  0  0  0
   45.6837   32.4921   50.1432 H   0  0  0  0  0  0  0  0  0  0  0  0
   46.2827   33.4963   47.9307 H   0  0  0  0  0  0  0  0  0  0  0  0
   44.7835   28.4770   48.2811 O   0  0  0  0  0  0  0  0  0  0  0  0
   43.8072   28.2051   48.0870 H   0  0  0  0  0  0  0  0  0  0  0  0
 10  1  1  6
  2  1  1  0
  3  2  1  0
  4  5  1  0
  4  3  1  0
  5  6  1  0
  6  2  1  0
  7  6  1  0
  7  8  1  0
 10  9  2  0
 10 12  1  0
 11 10  1  0
 13 12  1  0
 13 16  1  0
 14 19  2  0
 15 14  1  0
 16 17  1  0
 16 15  2  0
 17 18  2  0
 18 19  1  0
  2 20  1  1
  3 21  1  0
  3 22  1  0
  4 23  1  0
  4 24  1  0
  5 25  1  0
  5 26  1  0
  6 27  1  1
  7 28  1  0
  7 29  1  0
  8 30  1  0
 11 31  1  0
 13 32  1  0
 13 33  1  0
 14 34  1  0
 15 35  1  0
 36 37  1  0
 18 36  1  0
M  ISO  8  20  13  21  13  22  13  23  13  24  13  25  13  26  13  27  13
M  ISO  8  28   8  29   8  30   3  31   3  32   8  33   8  34  14  35  14
M  ISO  1  37   3
M  END
>  <DihAtoms>  (1) 
16,17,35,36

>  <DihDeg>  (1) 
49.85169328121156

$$$$
