REMARK  Name = 
REMARK  2 active torsions:
REMARK  status: ('A' for Active; 'I' for Inactive)
REMARK    1  A    between atoms: C_3  and  N_9
REMARK    2  A    between atoms: C_7  and  O_14
REMARK                            x       y       z     vdW  Elec       q    Type
REMARK                         _______ _______ _______ _____ _____    ______ ____
ROOT
ATOM      1  C   UNL     1      44.530  36.051  44.567  0.00  0.00    +0.000 A 
ATOM      2  C   UNL     1      45.253  36.013  43.352  0.00  0.00    +0.000 A 
ATOM      3  C   UNL     1      46.148  34.946  43.144  0.00  0.00    +0.000 A 
ATOM      4  N   UNL     1      46.282  33.999  44.110  0.00  0.00    +0.000 NA
ATOM      5  C   UNL     1      45.566  34.075  45.264  0.00  0.00    +0.000 A 
ATOM      6  N   UNL     1      44.710  35.077  45.489  0.00  0.00    +0.000 NA
ATOM      7  H   UNL     1      43.901  36.916  44.570  0.00  0.00    +0.000 HD
ATOM      8  H   UNL     1      45.194  36.722  42.556  0.00  0.00    +0.000 HD
ATOM      9  H   UNL     1      45.663  33.329  46.042  0.00  0.00    +0.000 HD
ENDROOT
BRANCH   3  12
ATOM     10  C   UNL     1      46.378  34.214  40.790  0.00  0.00    +0.000 C 
ATOM     11  O   UNL     1      45.220  33.713  40.937  0.00  0.00    +0.000 OA
ATOM     12  N   UNL     1      46.897  34.853  41.952  0.00  0.00    +0.000 N 
ATOM     13  H   UNL     1      47.876  35.242  41.836  0.00  0.00    +0.000 HD
BRANCH  10  14
ATOM     14  O   UNL     1      46.983  34.084  39.549  0.00  0.00    +0.000 OA
ATOM     15  H   UNL     1      47.292  34.906  39.007  0.00  0.00    +0.000 HD
ENDBRANCH  10  14
ENDBRANCH   3  12
TORSDOF 2
