
 OpenBabel03252503353D

 15 15  0  0  0  0  0  0  0  0999 V2000
   38.0040   25.8580   42.5320 C   0  0  0  0  0  0  0  0  0  0  0  0
   37.1050   26.9470   42.4560 C   0  0  0  0  0  0  0  0  0  0  0  0
   37.5770   28.2250   42.8100 C   0  0  0  0  0  0  0  0  0  0  0  0
   38.8700   28.3650   43.2060 N   0  0  0  0  0  0  0  0  0  0  0  0
   39.7010   27.2890   43.2650 C   0  0  0  0  0  0  0  0  0  0  0  0
   39.2790   26.0640   42.9360 N   0  0  0  0  0  0  0  0  0  0  0  0
   37.4950   24.9660   42.2350 H   0  0  0  0  0  0  0  0  0  0  0  0
   36.0820   26.9050   42.1530 H   0  0  0  0  0  0  0  0  0  0  0  0
   40.7320   27.3850   43.5790 H   0  0  0  0  0  0  0  0  0  0  0  0
   36.5350   30.0830   41.5480 C   0  0  0  0  0  0  0  0  0  0  0  0
   37.2140   29.6610   40.5610 O   0  0  0  0  0  0  0  0  0  0  0  0
   36.7280   29.3510   42.7540 N   0  0  0  0  0  0  0  0  0  0  0  0
   36.1850   29.7240   43.5830 H   0  0  0  0  0  0  0  0  0  0  0  0
   35.7080   31.1770   41.3400 O   0  0  0  0  0  0  0  0  0  0  0  0
   35.2480   31.3450   40.4310 H   0  0  0  0  0  0  0  0  0  0  0  0
  1  6  1  0  0  0  0
  2  1  2  0  0  0  0
  2  3  1  0  0  0  0
  3  4  2  0  0  0  0
  4  5  1  0  0  0  0
  5  9  1  0  0  0  0
  6  5  2  0  0  0  0
  7  1  1  0  0  0  0
  8  2  1  0  0  0  0
 10 12  1  0  0  0  0
 11 10  2  0  0  0  0
 12  3  1  0  0  0  0
 12 13  1  0  0  0  0
 14 10  1  0  0  0  0
 15 14  1  0  0  0  0
M  END
>  <minimizedAffinity>
-4.00125122

$$$$

 OpenBabel03252503353D

 15 15  0  0  0  0  0  0  0  0999 V2000
   39.6740   27.0580   43.0940 C   0  0  0  0  0  0  0  0  0  0  0  0
   38.9380   28.2660   43.0940 C   0  0  0  0  0  0  0  0  0  0  0  0
   37.5830   28.2190   42.7150 C   0  0  0  0  0  0  0  0  0  0  0  0
   37.0360   27.0240   42.3670 N   0  0  0  0  0  0  0  0  0  0  0  0
   37.7810   25.8860   42.3810 C   0  0  0  0  0  0  0  0  0  0  0  0
   39.0700   25.9010   42.7360 N   0  0  0  0  0  0  0  0  0  0  0  0
   40.6770   27.2620   43.4020 H   0  0  0  0  0  0  0  0  0  0  0  0
   39.3060   29.2330   43.3560 H   0  0  0  0  0  0  0  0  0  0  0  0
   37.3590   24.9280   42.1060 H   0  0  0  0  0  0  0  0  0  0  0  0
   36.5100   30.0800   41.4840 C   0  0  0  0  0  0  0  0  0  0  0  0
   37.0490   29.5750   40.4500 O   0  0  0  0  0  0  0  0  0  0  0  0
   36.7970   29.3900   42.6960 N   0  0  0  0  0  0  0  0  0  0  0  0
   36.3720   29.8320   43.5610 H   0  0  0  0  0  0  0  0  0  0  0  0
   35.7270   31.2120   41.3140 O   0  0  0  0  0  0  0  0  0  0  0  0
   35.1770   31.3670   40.4530 H   0  0  0  0  0  0  0  0  0  0  0  0
  1  2  1  0  0  0  0
  1  7  1  0  0  0  0
  2  8  1  0  0  0  0
  3  2  2  0  0  0  0
  4  5  2  0  0  0  0
  4  3  1  0  0  0  0
  5  6  1  0  0  0  0
  6  1  2  0  0  0  0
  9  5  1  0  0  0  0
 10 12  1  0  0  0  0
 11 10  2  0  0  0  0
 12  3  1  0  0  0  0
 12 13  1  0  0  0  0
 14 10  1  0  0  0  0
 15 14  1  0  0  0  0
M  END
>  <minimizedAffinity>
-3.92772985

$$$$

 OpenBabel03252503353D

 15 15  0  0  0  0  0  0  0  0999 V2000
   40.3200   32.7120   38.4690 C   0  0  0  0  0  0  0  0  0  0  0  0
   38.9950   32.3210   38.7750 C   0  0  0  0  0  0  0  0  0  0  0  0
   38.3770   32.8920   39.9040 C   0  0  0  0  0  0  0  0  0  0  0  0
   39.0700   33.7930   40.6510 N   0  0  0  0  0  0  0  0  0  0  0  0
   40.3420   34.1410   40.3200 C   0  0  0  0  0  0  0  0  0  0  0  0
   40.9550   33.6130   39.2540 N   0  0  0  0  0  0  0  0  0  0  0  0
   40.6420   32.1920   37.5920 H   0  0  0  0  0  0  0  0  0  0  0  0
   38.3990   31.6220   38.2320 H   0  0  0  0  0  0  0  0  0  0  0  0
   40.9060   34.8550   40.9050 H   0  0  0  0  0  0  0  0  0  0  0  0
   36.7680   31.3450   40.9750 C   0  0  0  0  0  0  0  0  0  0  0  0
   37.7820   30.6200   41.2210 O   0  0  0  0  0  0  0  0  0  0  0  0
   37.0580   32.5420   40.2600 N   0  0  0  0  0  0  0  0  0  0  0  0
   36.2070   33.1290   40.0290 H   0  0  0  0  0  0  0  0  0  0  0  0
   35.5330   30.8980   41.4200 O   0  0  0  0  0  0  0  0  0  0  0  0
   35.4360   30.3470   42.2880 H   0  0  0  0  0  0  0  0  0  0  0  0
  1  2  2  0  0  0  0
  1  6  1  0  0  0  0
  2  3  1  0  0  0  0
  3 12  1  0  0  0  0
  3  4  2  0  0  0  0
  5  4  1  0  0  0  0
  5  9  1  0  0  0  0
  6  5  2  0  0  0  0
  7  1  1  0  0  0  0
  8  2  1  0  0  0  0
 10 11  2  0  0  0  0
 10 14  1  0  0  0  0
 12 10  1  0  0  0  0
 13 12  1  0  0  0  0
 14 15  1  0  0  0  0
M  END
>  <minimizedAffinity>
-3.81565499

$$$$

 OpenBabel03252503353D

 15 15  0  0  0  0  0  0  0  0999 V2000
   37.4160   26.5250   41.6860 C   0  0  0  0  0  0  0  0  0  0  0  0
   36.7730   27.7190   41.2840 C   0  0  0  0  0  0  0  0  0  0  0  0
   36.9250   28.8610   42.0930 C   0  0  0  0  0  0  0  0  0  0  0  0
   37.6780   28.7750   43.2220 N   0  0  0  0  0  0  0  0  0  0  0  0
   38.2790   27.6060   43.5700 C   0  0  0  0  0  0  0  0  0  0  0  0
   38.1520   26.5050   42.8210 N   0  0  0  0  0  0  0  0  0  0  0  0
   37.2030   25.7580   40.9710 H   0  0  0  0  0  0  0  0  0  0  0  0
   36.1700   27.8530   40.4130 H   0  0  0  0  0  0  0  0  0  0  0  0
   38.8810   27.5220   44.4660 H   0  0  0  0  0  0  0  0  0  0  0  0
   36.9810   31.0620   40.9610 C   0  0  0  0  0  0  0  0  0  0  0  0
   38.1740   30.7590   40.6470 O   0  0  0  0  0  0  0  0  0  0  0  0
   36.3090   30.0810   41.7440 N   0  0  0  0  0  0  0  0  0  0  0  0
   35.3250   30.3510   42.0320 H   0  0  0  0  0  0  0  0  0  0  0  0
   36.4880   32.2790   40.5150 O   0  0  0  0  0  0  0  0  0  0  0  0
   36.7860   32.6900   39.6160 H   0  0  0  0  0  0  0  0  0  0  0  0
  1  6  1  0  0  0  0
  2  1  2  0  0  0  0
  2  3  1  0  0  0  0
  3  4  2  0  0  0  0
  4  5  1  0  0  0  0
  5  9  1  0  0  0  0
  6  5  2  0  0  0  0
  7  1  1  0  0  0  0
  8  2  1  0  0  0  0
 10 12  1  0  0  0  0
 11 10  2  0  0  0  0
 12 13  1  0  0  0  0
 12  3  1  0  0  0  0
 14 10  1  0  0  0  0
 15 14  1  0  0  0  0
M  END
>  <minimizedAffinity>
-3.78758073

$$$$

 OpenBabel03252503353D

 15 15  0  0  0  0  0  0  0  0999 V2000
   36.2560   30.0190   37.8250 C   0  0  0  0  0  0  0  0  0  0  0  0
   36.5920   30.2950   39.1710 C   0  0  0  0  0  0  0  0  0  0  0  0
   35.7290   29.8290   40.1810 C   0  0  0  0  0  0  0  0  0  0  0  0
   34.6140   29.1360   39.8290 N   0  0  0  0  0  0  0  0  0  0  0  0
   34.3290   28.8930   38.5210 C   0  0  0  0  0  0  0  0  0  0  0  0
   35.1300   29.3240   37.5410 N   0  0  0  0  0  0  0  0  0  0  0  0
   37.0050   30.4380   37.1870 H   0  0  0  0  0  0  0  0  0  0  0  0
   37.4490   30.8310   39.5140 H   0  0  0  0  0  0  0  0  0  0  0  0
   33.4450   28.3440   38.2250 H   0  0  0  0  0  0  0  0  0  0  0  0
   36.8530   29.2070   42.2980 C   0  0  0  0  0  0  0  0  0  0  0  0
   37.2840   28.1990   41.6570 O   0  0  0  0  0  0  0  0  0  0  0  0
   36.0110   30.0720   41.5420 N   0  0  0  0  0  0  0  0  0  0  0  0
   35.6280   30.8950   42.0880 H   0  0  0  0  0  0  0  0  0  0  0  0
   37.2440   29.3440   43.6210 O   0  0  0  0  0  0  0  0  0  0  0  0
   38.1660   29.0180   43.9520 H   0  0  0  0  0  0  0  0  0  0  0  0
  1  2  1  0  0  0  0
  2  8  1  0  0  0  0
  2  3  2  0  0  0  0
  3 12  1  0  0  0  0
  4  3  1  0  0  0  0
  5  4  2  0  0  0  0
  6  1  2  0  0  0  0
  6  5  1  0  0  0  0
  7  1  1  0  0  0  0
  9  5  1  0  0  0  0
 10 14  1  0  0  0  0
 11 10  2  0  0  0  0
 12 13  1  0  0  0  0
 12 10  1  0  0  0  0
 14 15  1  0  0  0  0
M  END
>  <minimizedAffinity>
-3.50769687

$$$$

 OpenBabel03252503353D

 15 15  0  0  0  0  0  0  0  0999 V2000
   36.0530   29.2070   38.6960 C   0  0  0  0  0  0  0  0  0  0  0  0
   36.4080   30.5650   38.8740 C   0  0  0  0  0  0  0  0  0  0  0  0
   36.4890   31.0640   40.1880 C   0  0  0  0  0  0  0  0  0  0  0  0
   36.2260   30.2300   41.2290 N   0  0  0  0  0  0  0  0  0  0  0  0
   35.8890   28.9310   41.0120 C   0  0  0  0  0  0  0  0  0  0  0  0
   35.8030   28.4290   39.7750 N   0  0  0  0  0  0  0  0  0  0  0  0
   36.0350   28.9870   37.6500 H   0  0  0  0  0  0  0  0  0  0  0  0
   36.6260   31.2700   38.1030 H   0  0  0  0  0  0  0  0  0  0  0  0
   35.6760   28.2550   41.8300 H   0  0  0  0  0  0  0  0  0  0  0  0
   38.1710   32.7890   40.7600 C   0  0  0  0  0  0  0  0  0  0  0  0
   38.9870   31.8190   40.8530 O   0  0  0  0  0  0  0  0  0  0  0  0
   36.8390   32.4100   40.4290 N   0  0  0  0  0  0  0  0  0  0  0  0
   36.1540   33.2170   40.3840 H   0  0  0  0  0  0  0  0  0  0  0  0
   38.6610   34.0670   40.9830 O   0  0  0  0  0  0  0  0  0  0  0  0
   39.6300   34.3280   40.7380 H   0  0  0  0  0  0  0  0  0  0  0  0
  1  2  2  0  0  0  0
  1  6  1  0  0  0  0
  2  3  1  0  0  0  0
  3 12  1  0  0  0  0
  3  4  2  0  0  0  0
  5  4  1  0  0  0  0
  5  9  1  0  0  0  0
  6  5  2  0  0  0  0
  7  1  1  0  0  0  0
  8  2  1  0  0  0  0
 10 11  2  0  0  0  0
 10 14  1  0  0  0  0
 12 10  1  0  0  0  0
 13 12  1  0  0  0  0
 15 14  1  0  0  0  0
M  END
>  <minimizedAffinity>
-3.50677419

$$$$

 OpenBabel03252503353D

 15 15  0  0  0  0  0  0  0  0999 V2000
   38.7450   32.6470   40.8070 C   0  0  0  0  0  0  0  0  0  0  0  0
   39.2860   33.2600   39.6520 C   0  0  0  0  0  0  0  0  0  0  0  0
   40.0660   32.4730   38.7840 C   0  0  0  0  0  0  0  0  0  0  0  0
   40.2680   31.1620   39.0840 N   0  0  0  0  0  0  0  0  0  0  0  0
   39.7290   30.6130   40.2060 C   0  0  0  0  0  0  0  0  0  0  0  0
   38.9850   31.3370   41.0480 N   0  0  0  0  0  0  0  0  0  0  0  0
   38.1850   33.3740   41.3560 H   0  0  0  0  0  0  0  0  0  0  0  0
   39.1650   34.2800   39.3600 H   0  0  0  0  0  0  0  0  0  0  0  0
   39.8820   29.5720   40.4570 H   0  0  0  0  0  0  0  0  0  0  0  0
   41.9310   33.6100   37.6190 C   0  0  0  0  0  0  0  0  0  0  0  0
   42.5030   33.6180   38.7530 O   0  0  0  0  0  0  0  0  0  0  0  0
   40.6310   33.0280   37.6170 N   0  0  0  0  0  0  0  0  0  0  0  0
   40.1430   33.0510   36.6760 H   0  0  0  0  0  0  0  0  0  0  0  0
   42.6210   34.1540   36.5460 O   0  0  0  0  0  0  0  0  0  0  0  0
   43.6500   34.1030   36.4800 H   0  0  0  0  0  0  0  0  0  0  0  0
  1  6  1  0  0  0  0
  1  7  1  0  0  0  0
  2  1  2  0  0  0  0
  3  4  2  0  0  0  0
  3  2  1  0  0  0  0
  4  5  1  0  0  0  0
  5  9  1  0  0  0  0
  5  6  2  0  0  0  0
  8  2  1  0  0  0  0
 10 11  2  0  0  0  0
 12 10  1  0  0  0  0
 12  3  1  0  0  0  0
 13 12  1  0  0  0  0
 14 10  1  0  0  0  0
 15 14  1  0  0  0  0
M  END
>  <minimizedAffinity>
-3.48567772

$$$$

 OpenBabel03252503353D

 15 15  0  0  0  0  0  0  0  0999 V2000
   40.7010   33.2490   39.6110 C   0  0  0  0  0  0  0  0  0  0  0  0
   39.4260   33.1440   40.2140 C   0  0  0  0  0  0  0  0  0  0  0  0
   38.4240   32.4300   39.5290 C   0  0  0  0  0  0  0  0  0  0  0  0
   38.7170   31.8710   38.3250 N   0  0  0  0  0  0  0  0  0  0  0  0
   39.9580   31.9970   37.7820 C   0  0  0  0  0  0  0  0  0  0  0  0
   40.9280   32.6710   38.4090 N   0  0  0  0  0  0  0  0  0  0  0  0
   41.3420   33.8180   40.2510 H   0  0  0  0  0  0  0  0  0  0  0  0
   39.1320   33.5570   41.1530 H   0  0  0  0  0  0  0  0  0  0  0  0
   40.2060   31.5590   36.8240 H   0  0  0  0  0  0  0  0  0  0  0  0
   36.7730   31.1590   40.8670 C   0  0  0  0  0  0  0  0  0  0  0  0
   37.6920   30.2910   40.9920 O   0  0  0  0  0  0  0  0  0  0  0  0
   37.1320   32.2890   40.0790 N   0  0  0  0  0  0  0  0  0  0  0  0
   36.3540   32.9970   39.9500 H   0  0  0  0  0  0  0  0  0  0  0  0
   35.5630   30.9110   41.4970 O   0  0  0  0  0  0  0  0  0  0  0  0
   35.5110   30.3920   42.3880 H   0  0  0  0  0  0  0  0  0  0  0  0
  1  2  1  0  0  0  0
  1  7  1  0  0  0  0
  2  8  1  0  0  0  0
  3 12  1  0  0  0  0
  3  2  2  0  0  0  0
  4  3  1  0  0  0  0
  5  4  2  0  0  0  0
  5  6  1  0  0  0  0
  6  1  2  0  0  0  0
  9  5  1  0  0  0  0
 10 11  2  0  0  0  0
 10 14  1  0  0  0  0
 12 10  1  0  0  0  0
 13 12  1  0  0  0  0
 14 15  1  0  0  0  0
M  END
>  <minimizedAffinity>
-3.48561978

$$$$

 OpenBabel03252503353D

 15 15  0  0  0  0  0  0  0  0999 V2000
   39.6050   32.0010   40.9000 C   0  0  0  0  0  0  0  0  0  0  0  0
   38.4280   31.2770   41.2000 C   0  0  0  0  0  0  0  0  0  0  0  0
   37.2010   31.7700   40.7140 C   0  0  0  0  0  0  0  0  0  0  0  0
   37.1940   32.9140   39.9800 N   0  0  0  0  0  0  0  0  0  0  0  0
   38.3510   33.5790   39.7150 C   0  0  0  0  0  0  0  0  0  0  0  0
   39.5290   33.1340   40.1640 N   0  0  0  0  0  0  0  0  0  0  0  0
   40.4420   31.5000   41.3380 H   0  0  0  0  0  0  0  0  0  0  0  0
   38.3650   30.3750   41.7680 H   0  0  0  0  0  0  0  0  0  0  0  0
   38.3610   34.4910   39.1330 H   0  0  0  0  0  0  0  0  0  0  0  0
   35.5410   30.0190   40.1590 C   0  0  0  0  0  0  0  0  0  0  0  0
   36.2900   29.7640   39.1650 O   0  0  0  0  0  0  0  0  0  0  0  0
   35.9930   31.0910   40.9800 N   0  0  0  0  0  0  0  0  0  0  0  0
   35.3500   31.3230   41.7900 H   0  0  0  0  0  0  0  0  0  0  0  0
   34.4030   29.2440   40.3220 O   0  0  0  0  0  0  0  0  0  0  0  0
   34.3760   28.2510   40.0400 H   0  0  0  0  0  0  0  0  0  0  0  0
  1  2  1  0  0  0  0
  1  7  1  0  0  0  0
  2  8  1  0  0  0  0
  3 12  1  0  0  0  0
  3  2  2  0  0  0  0
  4  3  1  0  0  0  0
  5  4  2  0  0  0  0
  5  6  1  0  0  0  0
  6  1  2  0  0  0  0
  9  5  1  0  0  0  0
 10 14  1  0  0  0  0
 10 12  1  0  0  0  0
 11 10  2  0  0  0  0
 12 13  1  0  0  0  0
 15 14  1  0  0  0  0
M  END
>  <minimizedAffinity>
-3.39403653

$$$$
