
 OpenBabel03252507163D

 28 30  0  0  0  0  0  0  0  0999 V2000
   44.9560   35.8420   42.9480 C   0  0  0  0  0  0  0  0  0  0  0  0
   45.6020   34.5880   42.8120 C   0  0  0  0  0  0  0  0  0  0  0  0
   45.7520   33.8240   43.9670 C   0  0  0  0  0  0  0  0  0  0  0  0
   45.2930   34.2880   45.1450 N   0  0  0  0  0  0  0  0  0  0  0  0
   44.6740   35.5060   45.2410 C   0  0  0  0  0  0  0  0  0  0  0  0
   44.5260   36.2400   44.1450 N   0  0  0  0  0  0  0  0  0  0  0  0
   44.8300   36.4510   42.0520 H   0  0  0  0  0  0  0  0  0  0  0  0
   44.3050   35.8830   46.1770 H   0  0  0  0  0  0  0  0  0  0  0  0
   46.4140   32.5330   43.8460 C   0  0  0  0  0  0  0  0  0  0  0  0
   45.6840   31.3720   43.9100 C   0  0  0  0  0  0  0  0  0  0  0  0
   46.3610   30.1750   43.7880 C   0  0  0  0  0  0  0  0  0  0  0  0
   47.7320   30.0800   43.6070 C   0  0  0  0  0  0  0  0  0  0  0  0
   48.4040   31.2760   43.5520 C   0  0  0  0  0  0  0  0  0  0  0  0
   47.7430   32.4460   43.6700 N   0  0  0  0  0  0  0  0  0  0  0  0
   44.6140   31.4270   44.0500 H   0  0  0  0  0  0  0  0  0  0  0  0
   45.7140   29.2970   43.8490 H   0  0  0  0  0  0  0  0  0  0  0  0
   48.1730   29.1020   43.5220 H   0  0  0  0  0  0  0  0  0  0  0  0
   49.4820   31.2380   43.4100 H   0  0  0  0  0  0  0  0  0  0  0  0
   46.0610   34.1610   41.5400 C   0  0  0  0  0  0  0  0  0  0  0  0
   47.1350   34.6440   41.1090 O   0  0  0  0  0  0  0  0  0  0  0  0
   45.3840   33.2160   40.7170 N   0  0  0  0  0  0  0  0  0  0  0  0
   46.0560   32.5870   39.5930 C   0  0  0  0  0  3  0  0  0  0  0  0
   47.1020   32.9110   39.5950 H   0  0  0  0  0  0  0  0  0  0  0  0
   45.3440   33.1140   38.3520 C   0  0  0  0  0  3  0  0  0  0  0  0
   45.8920   34.0650   38.0830 H   0  0  0  0  0  0  0  0  0  0  0  0
   44.0510   33.4830   38.6210 O   0  0  0  0  0  0  0  0  0  0  0  0
   43.3820   32.7260   39.5470 C   0  0  0  0  0  2  0  0  0  0  0  0
   44.0030   32.8250   40.9370 C   0  0  0  0  0  2  0  0  0  0  0  0
  1  6  1  0  0  0  0
  2  1  2  0  0  0  0
  2  3  1  0  0  0  0
  3  4  2  0  0  0  0
  4  5  1  0  0  0  0
  5  8  1  0  0  0  0
  6  5  2  0  0  0  0
  7  1  1  0  0  0  0
  9 10  1  0  0  0  0
  9  3  1  0  0  0  0
 10 15  1  0  0  0  0
 11 16  1  0  0  0  0
 11 10  2  0  0  0  0
 12 11  1  0  0  0  0
 13 12  2  0  0  0  0
 13 14  1  0  0  0  0
 14  9  2  0  0  0  0
 17 12  1  0  0  0  0
 18 13  1  0  0  0  0
 19  2  1  0  0  0  0
 20 19  2  0  0  0  0
 21 28  1  0  0  0  0
 21 19  1  0  0  0  0
 22 23  1  0  0  0  0
 22 21  1  0  0  0  0
 24 26  1  0  0  0  0
 24 22  1  0  0  0  0
 25 24  1  0  0  0  0
 26 27  1  0  0  0  0
 27 28  1  0  0  0  0
M  END
>  <minimizedAffinity>
-4.15589952

>  <minimizedRMSD>
0.812357903

$$$$
