
 OpenBabel03242515013D

 36 38  0  0  0  0  0  0  0  0999 V2000
   44.1900   35.2140   41.3750 S   0  0  0  0  0  0  0  0  0  0  0  0
   45.2560   34.5230   42.6400 C   0  0  0  0  0  0  0  0  0  0  0  0
   46.5240   34.0870   42.2210 C   0  0  0  0  0  0  0  0  0  0  0  0
   47.3890   33.5420   43.1690 C   0  0  0  0  0  0  0  0  0  0  0  0
   46.9530   33.4650   44.4440 N   0  0  0  0  0  0  0  0  0  0  0  0
   45.7420   33.8810   44.8450 C   0  0  0  0  0  0  0  0  0  0  0  0
   44.9110   34.4060   43.9260 N   0  0  0  0  0  0  0  0  0  0  0  0
   46.8930   34.1400   41.2050 H   0  0  0  0  0  0  0  0  0  0  0  0
   48.3710   33.1990   42.8720 H   0  0  0  0  0  0  0  0  0  0  0  0
   45.3690   33.7550   46.2350 C   0  0  0  0  0  0  0  0  0  0  0  0
   44.5250   34.5510   46.7100 O   0  0  0  0  0  0  0  0  0  0  0  0
   45.8740   32.7910   47.1530 N   0  0  0  0  0  0  0  0  0  0  0  0
   44.9080   32.1230   48.0050 C   0  0  0  0  0  3  0  0  0  0  0  0
   43.8790   32.3470   47.7290 H   0  0  0  0  0  0  0  0  0  0  0  0
   45.1250   30.6240   47.7860 C   0  0  0  0  0  3  0  0  0  0  0  0
   44.5790   30.1150   48.6080 H   0  0  0  0  0  0  0  0  0  0  0  0
   46.4430   30.2590   47.9030 O   0  0  0  0  0  0  0  0  0  0  0  0
   47.3030   30.9030   47.0500 C   0  0  0  0  0  2  0  0  0  0  0  0
   47.2640   32.4130   47.3190 C   0  0  0  0  0  2  0  0  0  0  0  0
   42.4930   34.6660   41.5310 C   0  0  0  0  0  0  0  0  0  0  0  0
   42.3460   33.7210   40.9310 H   0  0  0  0  0  0  0  0  0  0  0  0
   42.2330   34.3740   42.5880 H   0  0  0  0  0  0  0  0  0  0  0  0
   41.4870   35.6620   41.0600 C   0  0  0  0  0  0  0  0  0  0  0  0
   40.8930   36.0520   41.9350 H   0  0  0  0  0  0  0  0  0  0  0  0
   41.9570   36.5470   40.5860 H   0  0  0  0  0  0  0  0  0  0  0  0
   42.3250   35.8420   38.1380 Cl  0  0  0  0  0  0  0  0  0  0  0  0
   40.8550   35.1100   38.6920 C   0  0  0  0  0  0  0  0  0  0  0  0
   40.5660   35.0810   40.0620 C   0  0  0  0  0  0  0  0  0  0  0  0
   39.3780   34.4810   40.4210 C   0  0  0  0  0  0  0  0  0  0  0  0
   38.4460   33.9070   39.5700 C   0  0  0  0  0  0  0  0  0  0  0  0
   38.7600   33.9510   38.2180 C   0  0  0  0  0  0  0  0  0  0  0  0
   37.6310   33.2450   37.0670 Cl  0  0  0  0  0  0  0  0  0  0  0  0
   39.9350   34.5390   37.8070 C   0  0  0  0  0  0  0  0  0  0  0  0
   39.1460   34.4540   41.4840 H   0  0  0  0  0  0  0  0  0  0  0  0
   37.5450   33.4640   39.9720 H   0  0  0  0  0  0  0  0  0  0  0  0
   40.1520   34.5580   36.7400 H   0  0  0  0  0  0  0  0  0  0  0  0
  1 20  1  0  0  0  0
  1  2  1  0  0  0  0
  2  7  1  0  0  0  0
  3  2  2  0  0  0  0
  3  4  1  0  0  0  0
  4  5  2  0  0  0  0
  5  6  1  0  0  0  0
  6 10  1  0  0  0  0
  7  6  2  0  0  0  0
  8  3  1  0  0  0  0
  9  4  1  0  0  0  0
 10 11  2  0  0  0  0
 10 12  1  0  0  0  0
 12 19  1  0  0  0  0
 12 13  1  0  0  0  0
 14 13  1  0  0  0  0
 15 17  1  0  0  0  0
 15 13  1  0  0  0  0
 15 16  1  0  0  0  0
 18 19  1  0  0  0  0
 18 17  1  0  0  0  0
 20 22  1  0  0  0  0
 21 20  1  0  0  0  0
 23 20  1  0  0  0  0
 23 24  1  0  0  0  0
 25 23  1  0  0  0  0
 26 27  1  0  0  0  0
 27 28  1  0  0  0  0
 28 29  2  0  0  0  0
 28 23  1  0  0  0  0
 29 34  1  0  0  0  0
 30 35  1  0  0  0  0
 30 29  1  0  0  0  0
 31 30  2  0  0  0  0
 32 31  1  0  0  0  0
 33 31  1  0  0  0  0
 33 27  2  0  0  0  0
 36 33  1  0  0  0  0
M  END
>  <minimizedAffinity>
-6.69106102

>  <minimizedRMSD>
0.775406897

$$$$
