
 OpenBabel03252507163D

 28 30  0  0  0  0  0  0  0  0999 V2000
   45.5820   36.1220   43.0450 C   0  0  0  0  0  0  0  0  0  0  0  0
   46.0200   34.7740   43.0220 C   0  0  0  0  0  0  0  0  0  0  0  0
   45.6700   33.9760   44.1080 C   0  0  0  0  0  0  0  0  0  0  0  0
   44.9470   34.4940   45.1190 N   0  0  0  0  0  0  0  0  0  0  0  0
   44.5390   35.8010   45.1090 C   0  0  0  0  0  0  0  0  0  0  0  0
   44.8680   36.5690   44.0780 N   0  0  0  0  0  0  0  0  0  0  0  0
   45.8470   36.7600   42.2010 H   0  0  0  0  0  0  0  0  0  0  0  0
   43.9620   36.2230   45.9120 H   0  0  0  0  0  0  0  0  0  0  0  0
   46.1120   32.5880   44.1010 C   0  0  0  0  0  0  0  0  0  0  0  0
   45.3440   31.6200   43.5060 C   0  0  0  0  0  0  0  0  0  0  0  0
   45.8100   30.3200   43.5270 C   0  0  0  0  0  0  0  0  0  0  0  0
   47.0080   29.9410   44.1150 C   0  0  0  0  0  0  0  0  0  0  0  0
   47.7290   30.9560   44.6920 C   0  0  0  0  0  0  0  0  0  0  0  0
   47.2740   32.2260   44.6720 N   0  0  0  0  0  0  0  0  0  0  0  0
   44.4080   31.8970   43.0430 H   0  0  0  0  0  0  0  0  0  0  0  0
   45.1450   29.6080   43.0360 H   0  0  0  0  0  0  0  0  0  0  0  0
   47.2900   28.9030   44.0830 H   0  0  0  0  0  0  0  0  0  0  0  0
   48.6740   30.6930   45.1620 H   0  0  0  0  0  0  0  0  0  0  0  0
   46.7800   34.2940   41.9250 C   0  0  0  0  0  0  0  0  0  0  0  0
   48.0140   34.1410   42.0850 O   0  0  0  0  0  0  0  0  0  0  0  0
   46.2330   33.9710   40.6500 N   0  0  0  0  0  0  0  0  0  0  0  0
   44.8000   33.8080   40.4700 C   0  0  0  0  0  3  0  0  0  0  0  0
   44.3070   34.0510   41.4190 H   0  0  0  0  0  0  0  0  0  0  0  0
   44.6030   32.3330   40.1380 C   0  0  0  0  0  3  0  0  0  0  0  0
   44.4860   31.8210   41.1390 H   0  0  0  0  0  0  0  0  0  0  0  0
   45.7180   31.7840   39.5590 O   0  0  0  0  0  0  0  0  0  0  0  0
   46.4360   32.6020   38.7260 C   0  0  0  0  0  2  0  0  0  0  0  0
   47.0510   33.7890   39.4640 C   0  0  0  0  0  2  0  0  0  0  0  0
  1  6  1  0  0  0  0
  2  1  2  0  0  0  0
  2  3  1  0  0  0  0
  3  4  2  0  0  0  0
  5  4  1  0  0  0  0
  5  8  1  0  0  0  0
  6  5  2  0  0  0  0
  7  1  1  0  0  0  0
  9  3  1  0  0  0  0
  9 14  1  0  0  0  0
 10 11  1  0  0  0  0
 10  9  2  0  0  0  0
 11 12  2  0  0  0  0
 12 13  1  0  0  0  0
 13 18  1  0  0  0  0
 14 13  2  0  0  0  0
 15 10  1  0  0  0  0
 16 11  1  0  0  0  0
 17 12  1  0  0  0  0
 19 20  2  0  0  0  0
 19  2  1  0  0  0  0
 21 19  1  0  0  0  0
 22 21  1  0  0  0  0
 22 23  1  0  0  0  0
 24 22  1  0  0  0  0
 24 25  1  0  0  0  0
 26 24  1  0  0  0  0
 27 28  1  0  0  0  0
 27 26  1  0  0  0  0
 28 21  1  0  0  0  0
M  END
>  <minimizedAffinity>
-4.15705395

>  <minimizedRMSD>
0.725806117

$$$$
