
 OpenBabel03242516523D

 44 47  0  0  1  0  0  0  0  0999 V2000
   47.8160   32.8410   41.7030 C   0  0  1  0  0  0  0  0  0  0  0  0
   47.4350   32.1670   40.4620 C   0  0  0  0  0  0  0  0  0  0  0  0
   48.4410   32.6170   39.4040 C   0  0  0  0  0  0  0  0  0  0  0  0
   48.1450   34.0650   39.1210 C   0  0  0  0  0  0  0  0  0  0  0  0
   48.1470   34.9430   40.3400 C   0  0  0  0  0  0  0  0  0  0  0  0
   47.6610   34.3630   41.6050 C   0  0  1  0  0  0  0  0  0  0  0  0
   48.9350   32.7280   41.8450 H   0  0  0  0  0  0  0  0  0  0  0  0
   46.4460   32.4640   40.0500 H   0  0  0  0  0  0  0  0  0  0  0  0
   47.4700   31.0830   40.5860 H   0  0  0  0  0  0  0  0  0  0  0  0
   49.4860   32.4600   39.7190 H   0  0  0  0  0  0  0  0  0  0  0  0
   48.1760   32.0420   38.4930 H   0  0  0  0  0  0  0  0  0  0  0  0
   47.1570   34.1030   38.6110 H   0  0  0  0  0  0  0  0  0  0  0  0
   48.8730   34.4530   38.3940 H   0  0  0  0  0  0  0  0  0  0  0  0
   47.5130   35.8290   40.0880 H   0  0  0  0  0  0  0  0  0  0  0  0
   49.1740   35.3660   40.4360 H   0  0  0  0  0  0  0  0  0  0  0  0
   48.2910   34.7640   42.4440 H   0  0  0  0  0  0  0  0  0  0  0  0
   45.4330   31.0260   44.0070 C   0  0  0  0  0  0  0  0  0  0  0  0
   46.0940   31.5130   42.8720 C   0  0  0  0  0  0  0  0  0  0  0  0
   47.1900   32.3770   42.9240 C   0  0  0  0  0  0  0  0  0  0  0  0
   47.5900   32.7280   44.1470 N   0  0  0  0  0  0  0  0  0  0  0  0
   46.9560   32.2630   45.2580 C   0  0  0  0  0  0  0  0  0  0  0  0
   45.9050   31.4340   45.2010 N   0  0  0  0  0  0  0  0  0  0  0  0
   44.5930   30.3610   43.8910 H   0  0  0  0  0  0  0  0  0  0  0  0
   45.7580   31.2190   41.8820 H   0  0  0  0  0  0  0  0  0  0  0  0
   47.2950   32.5600   46.2410 H   0  0  0  0  0  0  0  0  0  0  0  0
   46.3010   34.7890   41.9310 C   0  0  0  0  0  0  0  0  0  0  0  0
   45.9170   35.4860   43.0820 C   0  0  0  0  0  0  0  0  0  0  0  0
   44.5650   35.8080   43.1840 C   0  0  0  0  0  0  0  0  0  0  0  0
   43.7260   35.4190   42.1550 C   0  0  0  0  0  0  0  0  0  0  0  0
   44.1280   34.7320   41.0310 C   0  0  0  0  0  0  0  0  0  0  0  0
   45.4540   34.4240   40.9460 N   0  0  0  0  0  0  0  0  0  0  0  0
   46.6690   35.7160   43.7840 H   0  0  0  0  0  0  0  0  0  0  0  0
   44.2420   36.3470   44.0630 H   0  0  0  0  0  0  0  0  0  0  0  0
   42.6750   35.6650   42.2260 H   0  0  0  0  0  0  0  0  0  0  0  0
   43.1560   34.3690   40.0030 C   0  0  0  0  0  0  0  0  0  0  0  0
   42.6150   35.2890   39.3360 O   0  0  0  0  0  0  0  0  0  0  0  0
   42.6350   33.1320   39.5400 N   0  0  0  0  0  0  0  0  0  0  0  0
   42.2730   32.2530   40.6580 C   0  0  0  0  0  3  0  0  0  0  0  0
   43.1250   31.5780   40.9150 H   0  0  0  0  0  0  0  0  0  0  0  0
   41.1480   31.3570   40.1340 C   0  0  0  0  0  3  0  0  0  0  0  0
   41.5330   30.4580   39.6370 H   0  0  0  0  0  0  0  0  0  0  0  0
   40.2800   32.0950   39.3440 O   0  0  0  0  0  0  0  0  0  0  0  0
   40.8540   32.4310   38.1150 C   0  0  0  0  0  2  0  0  0  0  0  0
   42.3600   32.4850   38.2460 C   0  0  0  0  0  2  0  0  0  0  0  0
  1  7  1  1  0  0  0
  1 19  1  0  0  0  0
  2  9  1  0  0  0  0
  2  1  1  0  0  0  0
  3 10  1  0  0  0  0
  3  2  1  0  0  0  0
  4  3  1  0  0  0  0
  4  5  1  0  0  0  0
  5 15  1  0  0  0  0
  5  6  1  0  0  0  0
  6  1  1  0  0  0  0
  6 26  1  0  0  0  0
  6 16  1  1  0  0  0
  8  2  1  0  0  0  0
 11  3  1  0  0  0  0
 12  4  1  0  0  0  0
 13  4  1  0  0  0  0
 14  5  1  0  0  0  0
 17 22  1  0  0  0  0
 18 19  1  0  0  0  0
 18 17  2  0  0  0  0
 19 20  2  0  0  0  0
 20 21  1  0  0  0  0
 21 25  1  0  0  0  0
 22 21  2  0  0  0  0
 23 17  1  0  0  0  0
 24 18  1  0  0  0  0
 26 27  1  0  0  0  0
 27 28  2  0  0  0  0
 27 32  1  0  0  0  0
 28 33  1  0  0  0  0
 29 34  1  0  0  0  0
 29 28  1  0  0  0  0
 30 29  2  0  0  0  0
 31 30  1  0  0  0  0
 31 26  2  0  0  0  0
 35 30  1  0  0  0  0
 36 35  2  0  0  0  0
 37 35  1  0  0  0  0
 37 38  1  0  0  0  0
 38 39  1  0  0  0  0
 40 38  1  0  0  0  0
 41 40  1  0  0  0  0
 42 40  1  0  0  0  0
 43 44  1  0  0  0  0
 43 42  1  0  0  0  0
 44 37  1  0  0  0  0
M  END
>  <minimizedAffinity>
-5.71058893

>  <minimizedRMSD>
0.546334386

$$$$
