
 OpenBabel03242515003D

 36 38  0  0  0  0  0  0  0  0999 V2000
   44.0730   34.8070   40.9550 S   0  0  0  0  0  0  0  0  0  0  0  0
   45.2500   34.4590   42.2620 C   0  0  0  0  0  0  0  0  0  0  0  0
   46.6060   34.4570   41.8990 C   0  0  0  0  0  0  0  0  0  0  0  0
   47.5600   34.1920   42.8810 C   0  0  0  0  0  0  0  0  0  0  0  0
   47.1180   33.9490   44.1330 N   0  0  0  0  0  0  0  0  0  0  0  0
   45.8220   33.9510   44.4810 C   0  0  0  0  0  0  0  0  0  0  0  0
   44.9070   34.2080   43.5290 N   0  0  0  0  0  0  0  0  0  0  0  0
   46.9820   34.6490   40.9020 H   0  0  0  0  0  0  0  0  0  0  0  0
   48.6110   34.1840   42.6270 H   0  0  0  0  0  0  0  0  0  0  0  0
   45.4520   33.6790   45.8510 C   0  0  0  0  0  0  0  0  0  0  0  0
   44.6840   34.4780   46.4390 O   0  0  0  0  0  0  0  0  0  0  0  0
   45.8780   32.5660   46.6290 N   0  0  0  0  0  0  0  0  0  0  0  0
   45.8420   31.2640   45.9900 C   0  0  0  0  0  3  0  0  0  0  0  0
   45.6210   31.3240   44.9260 H   0  0  0  0  0  0  0  0  0  0  0  0
   47.2530   30.6890   46.1330 C   0  0  0  0  0  3  0  0  0  0  0  0
   47.1690   29.6110   45.8820 H   0  0  0  0  0  0  0  0  0  0  0  0
   47.7230   30.7580   47.4220 O   0  0  0  0  0  0  0  0  0  0  0  0
   47.7610   32.0200   47.9590 C   0  0  0  0  0  2  0  0  0  0  0  0
   46.3450   32.6090   48.0020 C   0  0  0  0  0  2  0  0  0  0  0  0
   42.3770   34.7570   41.5250 C   0  0  0  0  0  0  0  0  0  0  0  0
   41.9380   33.7390   41.3090 H   0  0  0  0  0  0  0  0  0  0  0  0
   42.2980   34.8670   42.6430 H   0  0  0  0  0  0  0  0  0  0  0  0
   41.4910   35.7750   40.8900 C   0  0  0  0  0  0  0  0  0  0  0  0
   40.9050   36.3230   41.6820 H   0  0  0  0  0  0  0  0  0  0  0  0
   42.0630   36.5480   40.3390 H   0  0  0  0  0  0  0  0  0  0  0  0
   42.1980   36.0230   37.9380 Cl  0  0  0  0  0  0  0  0  0  0  0  0
   40.7870   35.2190   38.5440 C   0  0  0  0  0  0  0  0  0  0  0  0
   40.5570   35.1630   39.9240 C   0  0  0  0  0  0  0  0  0  0  0  0
   39.4130   34.5070   40.3240 C   0  0  0  0  0  0  0  0  0  0  0  0
   38.4730   33.8990   39.5050 C   0  0  0  0  0  0  0  0  0  0  0  0
   38.7280   33.9710   38.1420 C   0  0  0  0  0  0  0  0  0  0  0  0
   37.5850   33.2270   37.0290 Cl  0  0  0  0  0  0  0  0  0  0  0  0
   39.8570   34.6160   37.6900 C   0  0  0  0  0  0  0  0  0  0  0  0
   39.2260   34.4580   41.3950 H   0  0  0  0  0  0  0  0  0  0  0  0
   37.6100   33.4120   39.9370 H   0  0  0  0  0  0  0  0  0  0  0  0
   40.0290   34.6560   36.6160 H   0  0  0  0  0  0  0  0  0  0  0  0
  1 20  1  0  0  0  0
  1  2  1  0  0  0  0
  2  7  1  0  0  0  0
  3  2  2  0  0  0  0
  3  4  1  0  0  0  0
  4  5  2  0  0  0  0
  5  6  1  0  0  0  0
  6 10  1  0  0  0  0
  7  6  2  0  0  0  0
  8  3  1  0  0  0  0
  9  4  1  0  0  0  0
 10 11  2  0  0  0  0
 10 12  1  0  0  0  0
 12 19  1  0  0  0  0
 13 15  1  0  0  0  0
 13 12  1  0  0  0  0
 14 13  1  0  0  0  0
 15 17  1  0  0  0  0
 16 15  1  0  0  0  0
 17 18  1  0  0  0  0
 18 19  1  0  0  0  0
 20 22  1  0  0  0  0
 21 20  1  0  0  0  0
 23 20  1  0  0  0  0
 23 24  1  0  0  0  0
 25 23  1  0  0  0  0
 26 27  1  0  0  0  0
 27 28  1  0  0  0  0
 28 29  2  0  0  0  0
 28 23  1  0  0  0  0
 29 34  1  0  0  0  0
 30 35  1  0  0  0  0
 30 29  1  0  0  0  0
 31 30  2  0  0  0  0
 32 31  1  0  0  0  0
 33 31  1  0  0  0  0
 33 27  2  0  0  0  0
 36 33  1  0  0  0  0
M  END
>  <minimizedAffinity>
-6.5943718

>  <minimizedRMSD>
0.662395775

$$$$
