
 OpenBabel03252507163D

 28 30  0  0  0  0  0  0  0  0999 V2000
   45.2630   36.0280   43.0450 C   0  0  0  0  0  0  0  0  0  0  0  0
   45.8430   34.7440   42.8830 C   0  0  0  0  0  0  0  0  0  0  0  0
   45.7870   33.8820   43.9760 C   0  0  0  0  0  0  0  0  0  0  0  0
   45.2020   34.2830   45.1210 N   0  0  0  0  0  0  0  0  0  0  0  0
   44.6510   35.5310   45.2420 C   0  0  0  0  0  0  0  0  0  0  0  0
   44.6990   36.3590   44.2060 N   0  0  0  0  0  0  0  0  0  0  0  0
   45.2980   36.7140   42.1980 H   0  0  0  0  0  0  0  0  0  0  0  0
   44.1820   35.8590   46.1520 H   0  0  0  0  0  0  0  0  0  0  0  0
   46.3790   32.5600   43.8280 C   0  0  0  0  0  0  0  0  0  0  0  0
   45.5770   31.4510   43.7190 C   0  0  0  0  0  0  0  0  0  0  0  0
   46.1880   30.2210   43.5800 C   0  0  0  0  0  0  0  0  0  0  0  0
   47.5630   30.0450   43.5440 C   0  0  0  0  0  0  0  0  0  0  0  0
   48.3090   31.1920   43.6580 C   0  0  0  0  0  0  0  0  0  0  0  0
   47.7110   32.3930   43.7940 N   0  0  0  0  0  0  0  0  0  0  0  0
   44.5030   31.5710   43.7450 H   0  0  0  0  0  0  0  0  0  0  0  0
   45.4870   29.3890   43.5000 H   0  0  0  0  0  0  0  0  0  0  0  0
   47.9510   29.0470   43.4330 H   0  0  0  0  0  0  0  0  0  0  0  0
   49.3920   31.0890   43.6330 H   0  0  0  0  0  0  0  0  0  0  0  0
   46.4440   34.3880   41.6490 C   0  0  0  0  0  0  0  0  0  0  0  0
   47.5170   34.9530   41.3320 O   0  0  0  0  0  0  0  0  0  0  0  0
   45.9100   33.4270   40.7440 N   0  0  0  0  0  0  0  0  0  0  0  0
   46.7640   32.4230   40.1290 C   0  0  0  0  0  3  0  0  0  0  0  0
   47.7690   32.5250   40.5520 H   0  0  0  0  0  0  0  0  0  0  0  0
   46.7800   32.7670   38.6430 C   0  0  0  0  0  3  0  0  0  0  0  0
   47.6350   33.4960   38.5210 H   0  0  0  0  0  0  0  0  0  0  0  0
   45.6490   33.4390   38.2600 O   0  0  0  0  0  0  0  0  0  0  0  0
   44.4840   33.0760   38.8830 C   0  0  0  0  0  2  0  0  0  0  0  0
   44.5050   33.3820   40.3790 C   0  0  0  0  0  2  0  0  0  0  0  0
  1  6  1  0  0  0  0
  2  1  2  0  0  0  0
  2  3  1  0  0  0  0
  3  4  2  0  0  0  0
  4  5  1  0  0  0  0
  5  8  1  0  0  0  0
  6  5  2  0  0  0  0
  7  1  1  0  0  0  0
  9  3  1  0  0  0  0
 10 15  1  0  0  0  0
 10  9  2  0  0  0  0
 11 10  1  0  0  0  0
 12 11  2  0  0  0  0
 12 13  1  0  0  0  0
 13 14  2  0  0  0  0
 14  9  1  0  0  0  0
 16 11  1  0  0  0  0
 17 12  1  0  0  0  0
 18 13  1  0  0  0  0
 19  2  1  0  0  0  0
 20 19  2  0  0  0  0
 21 19  1  0  0  0  0
 22 23  1  0  0  0  0
 22 21  1  0  0  0  0
 24 22  1  0  0  0  0
 25 24  1  0  0  0  0
 26 24  1  0  0  0  0
 26 27  1  0  0  0  0
 27 28  1  0  0  0  0
 28 21  1  0  0  0  0
M  END
>  <minimizedAffinity>
-4.28271723

>  <minimizedRMSD>
0.536415875

$$$$
