
 OpenBabel03242510223D

 37 40  0  0  1  0  0  0  0  0999 V2000
   48.0180   33.2430   43.1040 N   0  0  0  0  0  0  0  0  0  0  0  0
   49.2210   33.3410   42.4090 C   0  0  0  0  0  0  0  0  0  0  0  0
   50.3850   32.9990   42.7340 O   0  0  0  0  0  0  0  0  0  0  0  0
   47.4380   34.1090   42.9960 H   0  0  0  0  0  0  0  0  0  0  0  0
   46.2950   32.1030   44.4540 C   0  0  1  0  0  0  0  0  0  0  0  0
   46.4060   31.3650   43.2670 C   0  0  0  0  0  0  0  0  0  0  0  0
   47.6490   32.1010   43.8600 C   0  0  1  0  0  0  0  0  0  0  0  0
   46.1710   31.6470   45.4500 H   0  0  0  0  0  0  0  0  0  0  0  0
   46.4890   30.2380   43.3460 H   0  0  0  0  0  0  0  0  0  0  0  0
   46.1330   31.6370   42.2290 H   0  0  0  0  0  0  0  0  0  0  0  0
   48.4280   31.3960   44.2010 H   0  0  0  0  0  0  0  0  0  0  0  0
   45.0400   33.9920   43.1640 C   0  0  0  0  0  0  0  0  0  0  0  0
   45.5420   33.4460   44.3920 C   0  0  0  0  0  0  0  0  0  0  0  0
   45.3510   34.1820   45.5430 C   0  0  0  0  0  0  0  0  0  0  0  0
   44.7100   35.3660   45.4660 N   0  0  0  0  0  0  0  0  0  0  0  0
   44.2410   35.8740   44.2950 C   0  0  0  0  0  0  0  0  0  0  0  0
   44.4170   35.1530   43.1120 N   0  0  0  0  0  0  0  0  0  0  0  0
   45.1820   33.3980   42.2900 H   0  0  0  0  0  0  0  0  0  0  0  0
   45.7140   33.8020   46.4890 H   0  0  0  0  0  0  0  0  0  0  0  0
   43.7420   36.8330   44.3490 H   0  0  0  0  0  0  0  0  0  0  0  0
   49.2220   33.9440   41.0170 C   0  0  2  0  0  0  0  0  0  0  0  0
   48.6120   35.3900   40.8810 C   0  0  0  0  0  0  0  0  0  0  0  0
   47.9750   34.1820   40.2840 C   0  0  1  0  0  0  0  0  0  0  0  0
   50.1720   33.9010   40.4450 H   0  0  0  0  0  0  0  0  0  0  0  0
   49.1520   36.1150   40.2770 H   0  0  0  0  0  0  0  0  0  0  0  0
   48.1850   35.7390   41.8590 H   0  0  0  0  0  0  0  0  0  0  0  0
   47.0400   33.7620   40.6950 H   0  0  0  0  0  0  0  0  0  0  0  0
   48.0100   34.0430   38.7790 C   0  0  0  0  0  0  0  0  0  0  0  0
   48.5590   34.9030   38.1000 O   0  0  0  0  0  0  0  0  0  0  0  0
   47.3970   32.9020   38.1240 N   0  0  0  0  0  0  0  0  0  0  0  0
   46.1290   33.1520   37.4580 C   0  0  0  0  0  3  0  0  0  0  0  0
   46.2140   33.7100   36.5250 H   0  0  0  0  0  0  0  0  0  0  0  0
   45.4210   31.8300   37.3130 C   0  0  0  0  0  3  0  0  0  0  0  0
   44.6350   31.8710   36.5270 H   0  0  0  0  0  0  0  0  0  0  0  0
   46.2650   30.7830   36.9490 O   0  0  0  0  0  0  0  0  0  0  0  0
   47.1650   30.4960   37.9790 C   0  0  0  0  0  2  0  0  0  0  0  0
   48.1030   31.6360   38.1950 C   0  0  0  0  0  2  0  0  0  0  0  0
  1  7  1  0  0  0  0
  2  3  2  0  0  0  0
  2  1  1  0  0  0  0
  4  1  1  0  0  0  0
  5  8  1  1  0  0  0
  6  9  1  0  0  0  0
  6  7  1  0  0  0  0
  6  5  1  0  0  0  0
  7 11  1  1  0  0  0
  7  5  1  0  0  0  0
 10  6  1  0  0  0  0
 12 13  1  0  0  0  0
 13  5  1  0  0  0  0
 13 14  2  0  0  0  0
 14 19  1  0  0  0  0
 15 14  1  0  0  0  0
 16 20  1  0  0  0  0
 16 15  2  0  0  0  0
 17 12  2  0  0  0  0
 17 16  1  0  0  0  0
 18 12  1  0  0  0  0
 21 24  1  6  0  0  0
 21  2  1  0  0  0  0
 22 21  1  0  0  0  0
 22 26  1  0  0  0  0
 23 27  1  1  0  0  0
 23 22  1  0  0  0  0
 23 21  1  0  0  0  0
 25 22  1  0  0  0  0
 28 23  1  0  0  0  0
 29 28  2  0  0  0  0
 30 37  1  0  0  0  0
 30 28  1  0  0  0  0
 31 30  1  0  0  0  0
 32 31  1  0  0  0  0
 33 31  1  0  0  0  0
 34 33  1  0  0  0  0
 35 33  1  0  0  0  0
 35 36  1  0  0  0  0
 36 37  1  0  0  0  0
M  END
>  <minimizedAffinity>
-4.91141748

>  <minimizedRMSD>
0.673551381

$$$$
