
 OpenBabel03242523163D

 26 28  0  0  0  0  0  0  0  0999 V2000
   46.1910   34.4510   43.8320 C   0  0  0  0  0  0  0  0  0  0  0  0
   47.2730   33.8220   43.3060 C   0  0  0  0  0  0  0  0  0  0  0  0
   47.7280   32.7270   44.0250 C   0  0  0  0  0  0  0  0  0  0  0  0
   47.0500   32.3800   45.1950 N   0  0  0  0  0  0  0  0  0  0  0  0
   46.0030   33.0390   45.6480 C   0  0  0  0  0  0  0  0  0  0  0  0
   45.5200   34.1320   44.9640 N   0  0  0  0  0  0  0  0  0  0  0  0
   48.5770   32.1630   43.6910 H   0  0  0  0  0  0  0  0  0  0  0  0
   45.6530   32.5850   46.5660 H   0  0  0  0  0  0  0  0  0  0  0  0
   45.4490   35.5520   43.2520 C   0  0  0  0  0  0  0  0  0  0  0  0
   45.1110   36.6870   43.0550 O   0  0  0  0  0  0  0  0  0  0  0  0
   44.4740   35.0750   42.2790 N   0  0  0  0  0  0  0  0  0  0  0  0
   44.2290   33.6690   42.3620 C   0  0  0  0  0  0  0  0  0  0  0  0
   43.8120   33.4540   43.3740 H   0  0  0  0  0  0  0  0  0  0  0  0
   43.2800   33.1560   41.3190 C   0  0  0  0  0  0  0  0  0  0  0  0
   43.0410   32.0880   41.4940 H   0  0  0  0  0  0  0  0  0  0  0  0
   42.1390   33.8950   41.1880 O   0  0  0  0  0  0  0  0  0  0  0  0
   42.2350   35.2350   41.4360 C   0  0  0  0  0  0  0  0  0  0  0  0
   43.6620   35.6420   41.2220 C   0  0  0  0  0  0  0  0  0  0  0  0
   48.0020   34.2170   42.1590 C   0  0  0  0  0  0  0  0  0  0  0  0
   48.3270   35.4470   41.6920 C   0  0  0  0  0  0  0  0  0  0  0  0
   49.4980   34.7110   42.3450 C   0  0  0  0  0  0  0  0  0  0  0  0
   48.2410   33.2450   41.5380 H   0  0  0  0  0  0  0  0  0  0  0  0
   47.9790   36.4010   42.1730 H   0  0  0  0  0  0  0  0  0  0  0  0
   48.4890   35.6460   40.5900 H   0  0  0  0  0  0  0  0  0  0  0  0
   49.6960   35.0660   43.3780 H   0  0  0  0  0  0  0  0  0  0  0  0
   50.2740   34.3290   41.7070 H   0  0  0  0  0  0  0  0  0  0  0  0
  1  6  1  0  0  0  0
  2  1  2  0  0  0  0
  2  3  1  0  0  0  0
  3  4  2  0  0  0  0
  4  5  1  0  0  0  0
  5  8  1  0  0  0  0
  6  5  2  0  0  0  0
  7  3  1  0  0  0  0
  9  1  1  0  0  0  0
 10  9  2  0  0  0  0
 11 12  1  0  0  0  0
 11  9  1  0  0  0  0
 12 13  1  0  0  0  0
 14 15  1  0  0  0  0
 14 12  1  0  0  0  0
 16 14  1  0  0  0  0
 16 17  1  0  0  0  0
 18 17  1  0  0  0  0
 18 11  1  0  0  0  0
 19 21  1  0  0  0  0
 19  2  1  0  0  0  0
 20 19  1  0  0  0  0
 20 23  1  0  0  0  0
 20 21  1  0  0  0  0
 21 25  1  0  0  0  0
 22 19  1  0  0  0  0
 24 20  1  0  0  0  0
 26 21  1  0  0  0  0
M  END
>  <minimizedAffinity>
-5.04768038

>  <minimizedRMSD>
0.925893426

$$$$
