
 OpenBabel03242515023D

 36 38  0  0  0  0  0  0  0  0999 V2000
   39.2330   30.0050   42.5450 S   0  0  0  0  0  0  0  0  0  0  0  0
   38.8950   31.2260   41.2750 C   0  0  0  0  0  0  0  0  0  0  0  0
   37.5590   31.3410   40.8580 C   0  0  0  0  0  0  0  0  0  0  0  0
   37.2460   32.2770   39.8730 C   0  0  0  0  0  0  0  0  0  0  0  0
   38.2560   33.0220   39.3740 N   0  0  0  0  0  0  0  0  0  0  0  0
   39.5320   32.9130   39.7730 C   0  0  0  0  0  0  0  0  0  0  0  0
   39.8280   32.0090   40.7240 N   0  0  0  0  0  0  0  0  0  0  0  0
   36.7360   30.7540   41.2430 H   0  0  0  0  0  0  0  0  0  0  0  0
   36.2250   32.3850   39.5330 H   0  0  0  0  0  0  0  0  0  0  0  0
   40.5400   33.7600   39.1770 C   0  0  0  0  0  0  0  0  0  0  0  0
   40.7180   34.9090   39.6460 O   0  0  0  0  0  0  0  0  0  0  0  0
   41.3790   33.4170   38.0800 N   0  0  0  0  0  0  0  0  0  0  0  0
   42.5370   34.2590   37.8470 C   0  0  0  0  0  3  0  0  0  0  0  0
   42.6980   34.9810   38.6460 H   0  0  0  0  0  0  0  0  0  0  0  0
   43.7430   33.3180   37.8310 C   0  0  0  0  0  3  0  0  0  0  0  0
   44.5830   33.9070   37.4060 H   0  0  0  0  0  0  0  0  0  0  0  0
   43.5580   32.2390   37.0010 O   0  0  0  0  0  0  0  0  0  0  0  0
   42.4650   31.4640   37.2920 C   0  0  0  0  0  2  0  0  0  0  0  0
   41.1860   32.3040   37.1710 C   0  0  0  0  0  2  0  0  0  0  0  0
   37.8080   28.9850   42.9140 C   0  0  0  0  0  0  0  0  0  0  0  0
   37.0210   29.6110   43.4260 H   0  0  0  0  0  0  0  0  0  0  0  0
   37.3040   28.6020   41.9820 H   0  0  0  0  0  0  0  0  0  0  0  0
   38.1070   27.8210   43.7970 C   0  0  0  0  0  0  0  0  0  0  0  0
   39.0820   27.9870   44.3360 H   0  0  0  0  0  0  0  0  0  0  0  0
   37.3390   27.6790   44.5850 H   0  0  0  0  0  0  0  0  0  0  0  0
   40.7350   26.2860   43.9010 Cl  0  0  0  0  0  0  0  0  0  0  0  0
   39.3370   25.7740   43.0150 C   0  0  0  0  0  0  0  0  0  0  0  0
   38.1760   26.5580   43.0350 C   0  0  0  0  0  0  0  0  0  0  0  0
   37.1080   26.0810   42.3050 C   0  0  0  0  0  0  0  0  0  0  0  0
   37.0660   24.9140   41.5570 C   0  0  0  0  0  0  0  0  0  0  0  0
   38.2310   24.1590   41.5560 C   0  0  0  0  0  0  0  0  0  0  0  0
   38.2650   22.6610   40.6330 Cl  0  0  0  0  0  0  0  0  0  0  0  0
   39.3260   24.5900   42.2700 C   0  0  0  0  0  0  0  0  0  0  0  0
   36.2010   26.6840   42.3150 H   0  0  0  0  0  0  0  0  0  0  0  0
   36.1650   24.6440   41.0230 H   0  0  0  0  0  0  0  0  0  0  0  0
   40.2250   23.9760   42.2500 H   0  0  0  0  0  0  0  0  0  0  0  0
  1 20  1  0  0  0  0
  2  1  1  0  0  0  0
  3  8  1  0  0  0  0
  3  2  1  0  0  0  0
  4  3  2  0  0  0  0
  5  6  2  0  0  0  0
  5  4  1  0  0  0  0
  6  7  1  0  0  0  0
  7  2  2  0  0  0  0
  9  4  1  0  0  0  0
 10 11  2  0  0  0  0
 10  6  1  0  0  0  0
 12 10  1  0  0  0  0
 13 12  1  0  0  0  0
 13 14  1  0  0  0  0
 15 13  1  0  0  0  0
 16 15  1  0  0  0  0
 17 18  1  0  0  0  0
 17 15  1  0  0  0  0
 19 18  1  0  0  0  0
 19 12  1  0  0  0  0
 20 21  1  0  0  0  0
 20 23  1  0  0  0  0
 22 20  1  0  0  0  0
 23 24  1  0  0  0  0
 23 25  1  0  0  0  0
 27 28  1  0  0  0  0
 27 26  1  0  0  0  0
 28 23  1  0  0  0  0
 29 34  1  0  0  0  0
 29 28  2  0  0  0  0
 30 29  1  0  0  0  0
 31 30  2  0  0  0  0
 31 33  1  0  0  0  0
 32 31  1  0  0  0  0
 33 27  2  0  0  0  0
 35 30  1  0  0  0  0
 36 33  1  0  0  0  0
M  END
>  <minimizedAffinity>
-6.08637238

$$$$

 OpenBabel03242515023D

 36 38  0  0  0  0  0  0  0  0999 V2000
   37.8460   30.9060   39.7130 S   0  0  0  0  0  0  0  0  0  0  0  0
   38.6900   32.4820   39.8550 C   0  0  0  0  0  0  0  0  0  0  0  0
   37.8760   33.6160   40.0040 C   0  0  0  0  0  0  0  0  0  0  0  0
   38.4850   34.8660   40.1170 C   0  0  0  0  0  0  0  0  0  0  0  0
   39.8340   34.9100   40.0770 N   0  0  0  0  0  0  0  0  0  0  0  0
   40.6120   33.8260   39.9350 C   0  0  0  0  0  0  0  0  0  0  0  0
   40.0190   32.6240   39.8250 N   0  0  0  0  0  0  0  0  0  0  0  0
   36.7940   33.6030   40.0380 H   0  0  0  0  0  0  0  0  0  0  0  0
   37.8800   35.7550   40.2330 H   0  0  0  0  0  0  0  0  0  0  0  0
   42.0490   33.9810   39.9040 C   0  0  0  0  0  0  0  0  0  0  0  0
   42.6360   34.3790   40.9370 O   0  0  0  0  0  0  0  0  0  0  0  0
   42.8950   33.7200   38.7900 N   0  0  0  0  0  0  0  0  0  0  0  0
   44.3180   33.6130   39.0530 C   0  0  0  0  0  3  0  0  0  0  0  0
   44.5480   33.6070   40.1170 H   0  0  0  0  0  0  0  0  0  0  0  0
   44.7490   32.2600   38.4830 C   0  0  0  0  0  3  0  0  0  0  0  0
   45.8580   32.2830   38.4510 H   0  0  0  0  0  0  0  0  0  0  0  0
   44.3200   32.0710   37.1930 O   0  0  0  0  0  0  0  0  0  0  0  0
   42.9630   32.1520   37.0130 C   0  0  0  0  0  2  0  0  0  0  0  0
   42.4700   33.5490   37.4140 C   0  0  0  0  0  2  0  0  0  0  0  0
   37.6460   30.0900   41.2940 C   0  0  0  0  0  0  0  0  0  0  0  0
   38.5140   29.3900   41.4680 H   0  0  0  0  0  0  0  0  0  0  0  0
   37.6870   30.8120   42.1570 H   0  0  0  0  0  0  0  0  0  0  0  0
   36.3910   29.2920   41.4120 C   0  0  0  0  0  0  0  0  0  0  0  0
   35.8670   29.5390   42.3780 H   0  0  0  0  0  0  0  0  0  0  0  0
   35.6690   29.5180   40.6020 H   0  0  0  0  0  0  0  0  0  0  0  0
   36.9290   27.8830   44.0570 Cl  0  0  0  0  0  0  0  0  0  0  0  0
   36.9170   27.0960   42.5130 C   0  0  0  0  0  0  0  0  0  0  0  0
   36.6570   27.8410   41.3550 C   0  0  0  0  0  0  0  0  0  0  0  0
   36.6650   27.1410   40.1680 C   0  0  0  0  0  0  0  0  0  0  0  0
   36.9020   25.7840   40.0030 C   0  0  0  0  0  0  0  0  0  0  0  0
   37.1570   25.0730   41.1680 C   0  0  0  0  0  0  0  0  0  0  0  0
   37.4680   23.3450   41.0500 Cl  0  0  0  0  0  0  0  0  0  0  0  0
   37.1600   25.7250   42.3810 C   0  0  0  0  0  0  0  0  0  0  0  0
   36.4640   27.7110   39.2630 H   0  0  0  0  0  0  0  0  0  0  0  0
   36.8820   25.3460   39.0150 H   0  0  0  0  0  0  0  0  0  0  0  0
   37.3630   25.1400   43.2760 H   0  0  0  0  0  0  0  0  0  0  0  0
  1  2  1  0  0  0  0
  1 20  1  0  0  0  0
  2  3  1  0  0  0  0
  3  8  1  0  0  0  0
  3  4  2  0  0  0  0
  4  9  1  0  0  0  0
  5  4  1  0  0  0  0
  6  5  2  0  0  0  0
  7  2  2  0  0  0  0
  7  6  1  0  0  0  0
 10  6  1  0  0  0  0
 10 11  2  0  0  0  0
 12 13  1  0  0  0  0
 12 10  1  0  0  0  0
 13 14  1  0  0  0  0
 15 13  1  0  0  0  0
 16 15  1  0  0  0  0
 17 15  1  0  0  0  0
 18 17  1  0  0  0  0
 18 19  1  0  0  0  0
 19 12  1  0  0  0  0
 20 23  1  0  0  0  0
 20 21  1  0  0  0  0
 20 22  1  0  0  0  0
 23 24  1  0  0  0  0
 25 23  1  0  0  0  0
 27 26  1  0  0  0  0
 28 23  1  0  0  0  0
 28 27  2  0  0  0  0
 29 28  1  0  0  0  0
 30 29  2  0  0  0  0
 30 31  1  0  0  0  0
 31 33  2  0  0  0  0
 32 31  1  0  0  0  0
 33 27  1  0  0  0  0
 33 36  1  0  0  0  0
 34 29  1  0  0  0  0
 35 30  1  0  0  0  0
M  END
>  <minimizedAffinity>
-6.01911592

$$$$

 OpenBabel03242515023D

 36 38  0  0  0  0  0  0  0  0999 V2000
   37.9110   30.6340   39.1520 S   0  0  0  0  0  0  0  0  0  0  0  0
   38.5870   32.2570   39.5010 C   0  0  0  0  0  0  0  0  0  0  0  0
   37.6590   33.2820   39.7450 C   0  0  0  0  0  0  0  0  0  0  0  0
   38.1350   34.5630   40.0210 C   0  0  0  0  0  0  0  0  0  0  0  0
   39.4730   34.7430   40.0380 N   0  0  0  0  0  0  0  0  0  0  0  0
   40.3610   33.7640   39.8060 C   0  0  0  0  0  0  0  0  0  0  0  0
   39.8950   32.5300   39.5400 N   0  0  0  0  0  0  0  0  0  0  0  0
   36.5830   33.1600   39.7360 H   0  0  0  0  0  0  0  0  0  0  0  0
   37.4410   35.3700   40.2120 H   0  0  0  0  0  0  0  0  0  0  0  0
   41.7750   34.0600   39.8480 C   0  0  0  0  0  0  0  0  0  0  0  0
   42.2590   34.5500   40.8960 O   0  0  0  0  0  0  0  0  0  0  0  0
   42.7060   33.8460   38.7940 N   0  0  0  0  0  0  0  0  0  0  0  0
   44.1150   33.8910   39.1390 C   0  0  0  0  0  3  0  0  0  0  0  0
   44.2820   33.9440   40.2140 H   0  0  0  0  0  0  0  0  0  0  0  0
   44.7090   32.5690   38.6500 C   0  0  0  0  0  3  0  0  0  0  0  0
   45.8110   32.7020   38.6780 H   0  0  0  0  0  0  0  0  0  0  0  0
   44.3780   32.2930   37.3460 O   0  0  0  0  0  0  0  0  0  0  0  0
   43.0320   32.2320   37.0890 C   0  0  0  0  0  2  0  0  0  0  0  0
   42.3820   33.5860   37.4050 C   0  0  0  0  0  2  0  0  0  0  0  0
   36.5000   30.2400   40.1820 C   0  0  0  0  0  0  0  0  0  0  0  0
   35.6520   30.9450   39.9410 H   0  0  0  0  0  0  0  0  0  0  0  0
   36.0870   29.2150   39.9670 H   0  0  0  0  0  0  0  0  0  0  0  0
   36.7690   30.3400   41.6460 C   0  0  0  0  0  0  0  0  0  0  0  0
   37.3510   31.2790   41.8670 H   0  0  0  0  0  0  0  0  0  0  0  0
   35.8380   30.4050   42.2440 H   0  0  0  0  0  0  0  0  0  0  0  0
   39.5850   30.8450   42.6900 Cl  0  0  0  0  0  0  0  0  0  0  0  0
   38.8200   29.2900   42.6490 C   0  0  0  0  0  0  0  0  0  0  0  0
   37.5170   29.1700   42.1460 C   0  0  0  0  0  0  0  0  0  0  0  0
   36.9810   27.9000   42.1480 C   0  0  0  0  0  0  0  0  0  0  0  0
   37.5930   26.7380   42.5930 C   0  0  0  0  0  0  0  0  0  0  0  0
   38.8830   26.8890   43.0840 C   0  0  0  0  0  0  0  0  0  0  0  0
   39.7350   25.4650   43.6700 Cl  0  0  0  0  0  0  0  0  0  0  0  0
   39.4650   28.1360   43.1050 C   0  0  0  0  0  0  0  0  0  0  0  0
   35.9690   27.7970   41.7600 H   0  0  0  0  0  0  0  0  0  0  0  0
   37.0670   25.7940   42.5430 H   0  0  0  0  0  0  0  0  0  0  0  0
   40.4780   28.2230   43.4960 H   0  0  0  0  0  0  0  0  0  0  0  0
  1  2  1  0  0  0  0
  1 20  1  0  0  0  0
  2  7  2  0  0  0  0
  2  3  1  0  0  0  0
  3  4  2  0  0  0  0
  4  5  1  0  0  0  0
  4  9  1  0  0  0  0
  6 10  1  0  0  0  0
  6  5  2  0  0  0  0
  7  6  1  0  0  0  0
  8  3  1  0  0  0  0
 10 11  2  0  0  0  0
 12 13  1  0  0  0  0
 12 10  1  0  0  0  0
 13 14  1  0  0  0  0
 15 16  1  0  0  0  0
 15 13  1  0  0  0  0
 17 15  1  0  0  0  0
 18 17  1  0  0  0  0
 18 19  1  0  0  0  0
 19 12  1  0  0  0  0
 20 23  1  0  0  0  0
 21 20  1  0  0  0  0
 22 20  1  0  0  0  0
 23 24  1  0  0  0  0
 23 28  1  0  0  0  0
 23 25  1  0  0  0  0
 27 26  1  0  0  0  0
 27 33  1  0  0  0  0
 28 29  1  0  0  0  0
 28 27  2  0  0  0  0
 29 30  2  0  0  0  0
 30 31  1  0  0  0  0
 31 33  2  0  0  0  0
 31 32  1  0  0  0  0
 33 36  1  0  0  0  0
 34 29  1  0  0  0  0
 35 30  1  0  0  0  0
M  END
>  <minimizedAffinity>
-5.9199605

$$$$

 OpenBabel03242515023D

 36 38  0  0  0  0  0  0  0  0999 V2000
   37.5520   29.9790   41.4650 S   0  0  0  0  0  0  0  0  0  0  0  0
   38.2070   31.5270   40.8410 C   0  0  0  0  0  0  0  0  0  0  0  0
   37.2760   32.4260   40.2970 C   0  0  0  0  0  0  0  0  0  0  0  0
   37.7360   33.6440   39.7980 C   0  0  0  0  0  0  0  0  0  0  0  0
   39.0620   33.8880   39.8680 N   0  0  0  0  0  0  0  0  0  0  0  0
   39.9520   33.0290   40.3890 C   0  0  0  0  0  0  0  0  0  0  0  0
   39.5020   31.8560   40.8680 N   0  0  0  0  0  0  0  0  0  0  0  0
   36.2100   32.2510   40.2310 H   0  0  0  0  0  0  0  0  0  0  0  0
   37.0390   34.3540   39.3740 H   0  0  0  0  0  0  0  0  0  0  0  0
   41.3530   33.3850   40.4180 C   0  0  0  0  0  0  0  0  0  0  0  0
   41.7280   34.4130   39.8050 O   0  0  0  0  0  0  0  0  0  0  0  0
   42.3840   32.6720   41.0900 N   0  0  0  0  0  0  0  0  0  0  0  0
   43.6470   33.3610   41.2790 C   0  0  0  0  0  3  0  0  0  0  0  0
   43.5970   34.4120   41.0000 H   0  0  0  0  0  0  0  0  0  0  0  0
   43.9380   33.3000   42.7790 C   0  0  0  0  0  3  0  0  0  0  0  0
   45.0020   33.5910   42.8950 H   0  0  0  0  0  0  0  0  0  0  0  0
   43.8180   32.0290   43.2880 O   0  0  0  0  0  0  0  0  0  0  0  0
   42.5920   31.4440   43.1060 C   0  0  0  0  0  2  0  0  0  0  0  0
   42.2930   31.3200   41.6060 C   0  0  0  0  0  2  0  0  0  0  0  0
   38.5390   29.3020   42.7970 C   0  0  0  0  0  0  0  0  0  0  0  0
   39.4970   28.8770   42.3760 H   0  0  0  0  0  0  0  0  0  0  0  0
   38.8750   30.0930   43.5240 H   0  0  0  0  0  0  0  0  0  0  0  0
   37.8610   28.2170   43.5650 C   0  0  0  0  0  0  0  0  0  0  0  0
   38.2890   28.1580   44.6060 H   0  0  0  0  0  0  0  0  0  0  0  0
   36.7750   28.3990   43.6860 H   0  0  0  0  0  0  0  0  0  0  0  0
   40.4130   26.6520   44.1300 Cl  0  0  0  0  0  0  0  0  0  0  0  0
   39.1370   26.1040   43.0930 C   0  0  0  0  0  0  0  0  0  0  0  0
   38.0040   26.9050   42.9020 C   0  0  0  0  0  0  0  0  0  0  0  0
   37.0350   26.3980   42.0620 C   0  0  0  0  0  0  0  0  0  0  0  0
   37.0680   25.1840   41.3920 C   0  0  0  0  0  0  0  0  0  0  0  0
   38.2030   24.4130   41.6010 C   0  0  0  0  0  0  0  0  0  0  0  0
   38.3270   22.8560   40.7880 Cl  0  0  0  0  0  0  0  0  0  0  0  0
   39.2000   24.8740   42.4310 C   0  0  0  0  0  0  0  0  0  0  0  0
   36.1510   27.0130   41.9080 H   0  0  0  0  0  0  0  0  0  0  0  0
   36.2430   24.8930   40.7570 H   0  0  0  0  0  0  0  0  0  0  0  0
   40.0780   24.2460   42.5740 H   0  0  0  0  0  0  0  0  0  0  0  0
  1 20  1  0  0  0  0
  2  7  1  0  0  0  0
  2  1  1  0  0  0  0
  3  2  2  0  0  0  0
  4  5  2  0  0  0  0
  4  3  1  0  0  0  0
  5  6  1  0  0  0  0
  6 10  1  0  0  0  0
  6  7  2  0  0  0  0
  8  3  1  0  0  0  0
  9  4  1  0  0  0  0
 10 12  1  0  0  0  0
 11 10  2  0  0  0  0
 12 13  1  0  0  0  0
 12 19  1  0  0  0  0
 13 15  1  0  0  0  0
 14 13  1  0  0  0  0
 15 16  1  0  0  0  0
 15 17  1  0  0  0  0
 18 17  1  0  0  0  0
 19 18  1  0  0  0  0
 20 22  1  0  0  0  0
 20 23  1  0  0  0  0
 21 20  1  0  0  0  0
 23 25  1  0  0  0  0
 23 24  1  0  0  0  0
 27 26  1  0  0  0  0
 28 27  1  0  0  0  0
 28 23  1  0  0  0  0
 29 28  2  0  0  0  0
 30 31  2  0  0  0  0
 30 29  1  0  0  0  0
 31 33  1  0  0  0  0
 32 31  1  0  0  0  0
 33 36  1  0  0  0  0
 33 27  2  0  0  0  0
 34 29  1  0  0  0  0
 35 30  1  0  0  0  0
M  END
>  <minimizedAffinity>
-5.85694551

$$$$

 OpenBabel03242515023D

 36 38  0  0  0  0  0  0  0  0999 V2000
   36.9970   30.6490   39.1120 S   0  0  0  0  0  0  0  0  0  0  0  0
   38.1080   32.0350   39.3580 C   0  0  0  0  0  0  0  0  0  0  0  0
   37.5630   33.1710   39.9770 C   0  0  0  0  0  0  0  0  0  0  0  0
   38.3870   34.2750   40.1910 C   0  0  0  0  0  0  0  0  0  0  0  0
   39.6710   34.1850   39.7840 N   0  0  0  0  0  0  0  0  0  0  0  0
   40.1930   33.1000   39.1930 C   0  0  0  0  0  0  0  0  0  0  0  0
   39.3920   32.0380   38.9890 N   0  0  0  0  0  0  0  0  0  0  0  0
   36.5370   33.2650   40.3100 H   0  0  0  0  0  0  0  0  0  0  0  0
   37.9920   35.1630   40.6650 H   0  0  0  0  0  0  0  0  0  0  0  0
   41.5820   33.1030   38.7950 C   0  0  0  0  0  0  0  0  0  0  0  0
   41.8690   33.3700   37.6040 O   0  0  0  0  0  0  0  0  0  0  0  0
   42.6950   32.8280   39.6380 N   0  0  0  0  0  0  0  0  0  0  0  0
   44.0060   33.2050   39.1440 C   0  0  0  0  0  3  0  0  0  0  0  0
   43.9560   33.7920   38.2290 H   0  0  0  0  0  0  0  0  0  0  0  0
   44.6220   34.0940   40.2250 C   0  0  0  0  0  3  0  0  0  0  0  0
   45.7000   34.1730   39.9760 H   0  0  0  0  0  0  0  0  0  0  0  0
   44.5450   33.5320   41.4760 O   0  0  0  0  0  0  0  0  0  0  0  0
   43.2770   33.2270   41.9000 C   0  0  0  0  0  2  0  0  0  0  0  0
   42.6430   32.2050   40.9470 C   0  0  0  0  0  2  0  0  0  0  0  0
   35.9040   30.3880   40.5060 C   0  0  0  0  0  0  0  0  0  0  0  0
   36.3860   30.7980   41.4420 H   0  0  0  0  0  0  0  0  0  0  0  0
   34.9410   30.9630   40.4080 H   0  0  0  0  0  0  0  0  0  0  0  0
   35.5720   28.9560   40.7590 C   0  0  0  0  0  0  0  0  0  0  0  0
   34.5910   28.8800   41.3070 H   0  0  0  0  0  0  0  0  0  0  0  0
   35.4470   28.3790   39.8200 H   0  0  0  0  0  0  0  0  0  0  0  0
   36.4840   26.2230   39.7710 Cl  0  0  0  0  0  0  0  0  0  0  0  0
   37.1170   27.0190   41.1740 C   0  0  0  0  0  0  0  0  0  0  0  0
   36.6250   28.2780   41.5410 C   0  0  0  0  0  0  0  0  0  0  0  0
   37.1810   28.8430   42.6690 C   0  0  0  0  0  0  0  0  0  0  0  0
   38.1710   28.2970   43.4720 C   0  0  0  0  0  0  0  0  0  0  0  0
   38.6380   27.0480   43.0840 C   0  0  0  0  0  0  0  0  0  0  0  0
   39.8950   26.2810   44.0480 Cl  0  0  0  0  0  0  0  0  0  0  0  0
   38.1160   26.4400   41.9640 C   0  0  0  0  0  0  0  0  0  0  0  0
   36.8050   29.8220   42.9610 H   0  0  0  0  0  0  0  0  0  0  0  0
   38.5280   28.8390   44.3370 H   0  0  0  0  0  0  0  0  0  0  0  0
   38.5030   25.4610   41.6860 H   0  0  0  0  0  0  0  0  0  0  0  0
  1  2  1  0  0  0  0
  1 20  1  0  0  0  0
  2  3  1  0  0  0  0
  3  4  2  0  0  0  0
  3  8  1  0  0  0  0
  4  9  1  0  0  0  0
  5  4  1  0  0  0  0
  6  5  2  0  0  0  0
  7  6  1  0  0  0  0
  7  2  2  0  0  0  0
 10  6  1  0  0  0  0
 10 12  1  0  0  0  0
 11 10  2  0  0  0  0
 12 19  1  0  0  0  0
 13 12  1  0  0  0  0
 13 15  1  0  0  0  0
 14 13  1  0  0  0  0
 15 17  1  0  0  0  0
 16 15  1  0  0  0  0
 17 18  1  0  0  0  0
 19 18  1  0  0  0  0
 20 23  1  0  0  0  0
 20 21  1  0  0  0  0
 22 20  1  0  0  0  0
 23 24  1  0  0  0  0
 23 28  1  0  0  0  0
 25 23  1  0  0  0  0
 26 27  1  0  0  0  0
 27 28  2  0  0  0  0
 27 33  1  0  0  0  0
 28 29  1  0  0  0  0
 29 34  1  0  0  0  0
 29 30  2  0  0  0  0
 30 35  1  0  0  0  0
 31 30  1  0  0  0  0
 31 32  1  0  0  0  0
 33 31  2  0  0  0  0
 36 33  1  0  0  0  0
M  END
>  <minimizedAffinity>
-5.8356967

$$$$

 OpenBabel03242515023D

 36 38  0  0  0  0  0  0  0  0999 V2000
   39.9960   28.8600   41.1310 S   0  0  0  0  0  0  0  0  0  0  0  0
   39.4050   30.4890   40.6680 C   0  0  0  0  0  0  0  0  0  0  0  0
   38.0380   30.7380   40.8670 C   0  0  0  0  0  0  0  0  0  0  0  0
   37.5300   31.9900   40.5220 C   0  0  0  0  0  0  0  0  0  0  0  0
   38.3910   32.8960   40.0120 N   0  0  0  0  0  0  0  0  0  0  0  0
   39.6980   32.6580   39.8220 C   0  0  0  0  0  0  0  0  0  0  0  0
   40.1820   31.4490   40.1570 N   0  0  0  0  0  0  0  0  0  0  0  0
   37.3300   30.0270   41.2740 H   0  0  0  0  0  0  0  0  0  0  0  0
   36.4800   32.2070   40.6660 H   0  0  0  0  0  0  0  0  0  0  0  0
   40.5380   33.6970   39.2700 C   0  0  0  0  0  0  0  0  0  0  0  0
   40.4830   34.8470   39.7670 O   0  0  0  0  0  0  0  0  0  0  0  0
   41.4510   33.5480   38.1890 N   0  0  0  0  0  0  0  0  0  0  0  0
   42.4310   34.6020   38.0030 C   0  0  0  0  0  3  0  0  0  0  0  0
   42.4330   35.3210   38.8210 H   0  0  0  0  0  0  0  0  0  0  0  0
   43.7950   33.9090   37.9990 C   0  0  0  0  0  3  0  0  0  0  0  0
   44.5150   34.6580   37.6090 H   0  0  0  0  0  0  0  0  0  0  0  0
   43.8380   32.8360   37.1440 O   0  0  0  0  0  0  0  0  0  0  0  0
   42.9080   31.8590   37.3890 C   0  0  0  0  0  2  0  0  0  0  0  0
   41.4950   32.4420   37.2520 C   0  0  0  0  0  2  0  0  0  0  0  0
   40.0240   28.6180   42.9050 C   0  0  0  0  0  0  0  0  0  0  0  0
   40.9060   27.9700   43.1810 H   0  0  0  0  0  0  0  0  0  0  0  0
   40.1930   29.5800   43.4650 H   0  0  0  0  0  0  0  0  0  0  0  0
   38.7970   27.9680   43.4490 C   0  0  0  0  0  0  0  0  0  0  0  0
   38.9190   27.7810   44.5540 H   0  0  0  0  0  0  0  0  0  0  0  0
   37.8970   28.6060   43.3410 H   0  0  0  0  0  0  0  0  0  0  0  0
   36.2170   27.8270   41.8370 Cl  0  0  0  0  0  0  0  0  0  0  0  0
   37.3440   26.5210   41.9980 C   0  0  0  0  0  0  0  0  0  0  0  0
   38.5030   26.6930   42.7660 C   0  0  0  0  0  0  0  0  0  0  0  0
   39.3470   25.6060   42.8430 C   0  0  0  0  0  0  0  0  0  0  0  0
   39.1680   24.3680   42.2430 C   0  0  0  0  0  0  0  0  0  0  0  0
   38.0110   24.2280   41.4900 C   0  0  0  0  0  0  0  0  0  0  0  0
   37.7040   22.6890   40.6930 Cl  0  0  0  0  0  0  0  0  0  0  0  0
   37.1340   25.2840   41.3800 C   0  0  0  0  0  0  0  0  0  0  0  0
   40.2510   25.7300   43.4380 H   0  0  0  0  0  0  0  0  0  0  0  0
   39.9050   23.5880   42.3780 H   0  0  0  0  0  0  0  0  0  0  0  0
   36.2350   25.1430   40.7820 H   0  0  0  0  0  0  0  0  0  0  0  0
  1 20  1  0  0  0  0
  2  3  1  0  0  0  0
  2  1  1  0  0  0  0
  3  8  1  0  0  0  0
  4  9  1  0  0  0  0
  4  3  2  0  0  0  0
  5  4  1  0  0  0  0
  6  5  2  0  0  0  0
  6  7  1  0  0  0  0
  7  2  2  0  0  0  0
 10 11  2  0  0  0  0
 10  6  1  0  0  0  0
 12 10  1  0  0  0  0
 13 12  1  0  0  0  0
 13 14  1  0  0  0  0
 15 13  1  0  0  0  0
 16 15  1  0  0  0  0
 17 18  1  0  0  0  0
 17 15  1  0  0  0  0
 19 18  1  0  0  0  0
 19 12  1  0  0  0  0
 20 21  1  0  0  0  0
 20 23  1  0  0  0  0
 20 22  1  0  0  0  0
 23 24  1  0  0  0  0
 25 23  1  0  0  0  0
 26 27  1  0  0  0  0
 27 28  1  0  0  0  0
 28 29  2  0  0  0  0
 28 23  1  0  0  0  0
 29 34  1  0  0  0  0
 30 35  1  0  0  0  0
 30 29  1  0  0  0  0
 31 30  2  0  0  0  0
 32 31  1  0  0  0  0
 33 31  1  0  0  0  0
 33 27  2  0  0  0  0
 36 33  1  0  0  0  0
M  END
>  <minimizedAffinity>
-5.61667728

$$$$

 OpenBabel03242515023D

 36 38  0  0  0  0  0  0  0  0999 V2000
   37.5900   25.7180   39.7920 S   0  0  0  0  0  0  0  0  0  0  0  0
   36.7260   27.2140   39.3130 C   0  0  0  0  0  0  0  0  0  0  0  0
   35.6730   27.0620   38.3970 C   0  0  0  0  0  0  0  0  0  0  0  0
   34.9700   28.1970   37.9930 C   0  0  0  0  0  0  0  0  0  0  0  0
   35.3470   29.3840   38.5130 N   0  0  0  0  0  0  0  0  0  0  0  0
   36.3530   29.5300   39.3890 C   0  0  0  0  0  0  0  0  0  0  0  0
   37.0270   28.4320   39.7740 N   0  0  0  0  0  0  0  0  0  0  0  0
   35.3540   26.1210   37.9680 H   0  0  0  0  0  0  0  0  0  0  0  0
   34.1550   28.1060   37.2880 H   0  0  0  0  0  0  0  0  0  0  0  0
   36.6780   30.8470   39.8870 C   0  0  0  0  0  0  0  0  0  0  0  0
   36.2140   31.2060   40.9960 O   0  0  0  0  0  0  0  0  0  0  0  0
   37.4960   31.8100   39.2340 N   0  0  0  0  0  0  0  0  0  0  0  0
   37.9710   32.9240   40.0330 C   0  0  0  0  0  3  0  0  0  0  0  0
   37.7510   32.8030   41.0930 H   0  0  0  0  0  0  0  0  0  0  0  0
   39.4930   32.9310   39.8800 C   0  0  0  0  0  3  0  0  0  0  0  0
   39.8330   33.9130   40.2710 H   0  0  0  0  0  0  0  0  0  0  0  0
   39.8900   32.8700   38.5670 O   0  0  0  0  0  0  0  0  0  0  0  0
   39.4360   31.7790   37.8720 C   0  0  0  0  0  2  0  0  0  0  0  0
   37.9010   31.7860   37.8410 C   0  0  0  0  0  2  0  0  0  0  0  0
   37.1190   25.1430   41.4210 C   0  0  0  0  0  0  0  0  0  0  0  0
   36.1900   25.6890   41.7570 H   0  0  0  0  0  0  0  0  0  0  0  0
   36.8260   24.0560   41.4230 H   0  0  0  0  0  0  0  0  0  0  0  0
   38.1660   25.3480   42.4640 C   0  0  0  0  0  0  0  0  0  0  0  0
   37.7880   24.9910   43.4640 H   0  0  0  0  0  0  0  0  0  0  0  0
   39.0880   24.7670   42.2580 H   0  0  0  0  0  0  0  0  0  0  0  0
   36.2000   27.2430   43.8120 Cl  0  0  0  0  0  0  0  0  0  0  0  0
   37.7370   27.7200   43.1700 C   0  0  0  0  0  0  0  0  0  0  0  0
   38.5670   26.7650   42.5680 C   0  0  0  0  0  0  0  0  0  0  0  0
   39.7720   27.2250   42.0830 C   0  0  0  0  0  0  0  0  0  0  0  0
   40.2440   28.5290   42.1290 C   0  0  0  0  0  0  0  0  0  0  0  0
   39.4000   29.4520   42.7300 C   0  0  0  0  0  0  0  0  0  0  0  0
   39.9210   31.1300   42.8310 Cl  0  0  0  0  0  0  0  0  0  0  0  0
   38.1850   29.0440   43.2320 C   0  0  0  0  0  0  0  0  0  0  0  0
   40.4230   26.4900   41.6140 H   0  0  0  0  0  0  0  0  0  0  0  0
   41.2120   28.7700   41.7120 H   0  0  0  0  0  0  0  0  0  0  0  0
   37.5450   29.7920   43.6970 H   0  0  0  0  0  0  0  0  0  0  0  0
  1 20  1  0  0  0  0
  2  7  1  0  0  0  0
  2  1  1  0  0  0  0
  3  2  2  0  0  0  0
  4  3  1  0  0  0  0
  4  5  2  0  0  0  0
  5  6  1  0  0  0  0
  6  7  2  0  0  0  0
  6 10  1  0  0  0  0
  8  3  1  0  0  0  0
  9  4  1  0  0  0  0
 10 11  2  0  0  0  0
 12 10  1  0  0  0  0
 12 13  1  0  0  0  0
 13 14  1  0  0  0  0
 15 13  1  0  0  0  0
 15 16  1  0  0  0  0
 17 15  1  0  0  0  0
 18 17  1  0  0  0  0
 19 18  1  0  0  0  0
 19 12  1  0  0  0  0
 20 22  1  0  0  0  0
 20 21  1  0  0  0  0
 20 23  1  0  0  0  0
 23 28  1  0  0  0  0
 23 24  1  0  0  0  0
 25 23  1  0  0  0  0
 27 33  1  0  0  0  0
 27 26  1  0  0  0  0
 28 27  2  0  0  0  0
 29 30  2  0  0  0  0
 29 28  1  0  0  0  0
 30 31  1  0  0  0  0
 31 32  1  0  0  0  0
 31 33  2  0  0  0  0
 33 36  1  0  0  0  0
 34 29  1  0  0  0  0
 35 30  1  0  0  0  0
M  END
>  <minimizedAffinity>
-5.56852674

$$$$

 OpenBabel03242515023D

 36 38  0  0  0  0  0  0  0  0999 V2000
   36.6380   29.2950   40.9260 S   0  0  0  0  0  0  0  0  0  0  0  0
   37.5860   30.7030   40.3460 C   0  0  0  0  0  0  0  0  0  0  0  0
   36.9200   31.9390   40.3250 C   0  0  0  0  0  0  0  0  0  0  0  0
   37.6140   33.0640   39.8810 C   0  0  0  0  0  0  0  0  0  0  0  0
   38.8970   32.8950   39.4950 N   0  0  0  0  0  0  0  0  0  0  0  0
   39.5340   31.7150   39.5160 C   0  0  0  0  0  0  0  0  0  0  0  0
   38.8580   30.6330   39.9440 N   0  0  0  0  0  0  0  0  0  0  0  0
   35.8930   32.0960   40.6290 H   0  0  0  0  0  0  0  0  0  0  0  0
   37.1240   34.0270   39.8550 H   0  0  0  0  0  0  0  0  0  0  0  0
   40.9100   31.6400   39.0820 C   0  0  0  0  0  0  0  0  0  0  0  0
   41.1720   31.0630   38.0000 O   0  0  0  0  0  0  0  0  0  0  0  0
   42.0350   32.1690   39.7730 N   0  0  0  0  0  0  0  0  0  0  0  0
   43.2730   32.2880   39.0250 C   0  0  0  0  0  3  0  0  0  0  0  0
   43.1430   32.0820   37.9640 H   0  0  0  0  0  0  0  0  0  0  0  0
   43.7060   33.7490   39.1580 C   0  0  0  0  0  3  0  0  0  0  0  0
   44.7600   33.7860   38.8130 H   0  0  0  0  0  0  0  0  0  0  0  0
   43.7000   34.1830   40.4610 O   0  0  0  0  0  0  0  0  0  0  0  0
   42.4940   34.0760   41.1040 C   0  0  0  0  0  2  0  0  0  0  0  0
   42.0640   32.6030   41.1560 C   0  0  0  0  0  2  0  0  0  0  0  0
   37.0760   28.8120   42.5940 C   0  0  0  0  0  0  0  0  0  0  0  0
   38.1130   29.1890   42.8330 H   0  0  0  0  0  0  0  0  0  0  0  0
   36.4140   29.2940   43.3660 H   0  0  0  0  0  0  0  0  0  0  0  0
   37.0660   27.3380   42.8220 C   0  0  0  0  0  0  0  0  0  0  0  0
   36.4730   27.0970   43.7490 H   0  0  0  0  0  0  0  0  0  0  0  0
   36.5810   26.7850   41.9930 H   0  0  0  0  0  0  0  0  0  0  0  0
   37.4490   24.3850   42.1840 Cl  0  0  0  0  0  0  0  0  0  0  0  0
   38.7190   25.4500   42.6890 C   0  0  0  0  0  0  0  0  0  0  0  0
   38.4320   26.7950   42.9580 C   0  0  0  0  0  0  0  0  0  0  0  0
   39.4970   27.5760   43.3540 C   0  0  0  0  0  0  0  0  0  0  0  0
   40.8140   27.1700   43.5130 C   0  0  0  0  0  0  0  0  0  0  0  0
   41.0660   25.8320   43.2400 C   0  0  0  0  0  0  0  0  0  0  0  0
   42.7110   25.2320   43.4160 Cl  0  0  0  0  0  0  0  0  0  0  0  0
   40.0380   25.0090   42.8400 C   0  0  0  0  0  0  0  0  0  0  0  0
   39.2840   28.6230   43.5650 H   0  0  0  0  0  0  0  0  0  0  0  0
   41.5650   27.8790   43.8310 H   0  0  0  0  0  0  0  0  0  0  0  0
   40.2680   23.9650   42.6330 H   0  0  0  0  0  0  0  0  0  0  0  0
  1 20  1  0  0  0  0
  2  1  1  0  0  0  0
  3  2  1  0  0  0  0
  3  8  1  0  0  0  0
  4  3  2  0  0  0  0
  5  6  2  0  0  0  0
  5  4  1  0  0  0  0
  6  7  1  0  0  0  0
  7  2  2  0  0  0  0
  9  4  1  0  0  0  0
 10  6  1  0  0  0  0
 10 12  1  0  0  0  0
 11 10  2  0  0  0  0
 12 19  1  0  0  0  0
 13 15  1  0  0  0  0
 13 12  1  0  0  0  0
 14 13  1  0  0  0  0
 15 17  1  0  0  0  0
 16 15  1  0  0  0  0
 17 18  1  0  0  0  0
 18 19  1  0  0  0  0
 20 23  1  0  0  0  0
 20 21  1  0  0  0  0
 20 22  1  0  0  0  0
 23 28  1  0  0  0  0
 23 24  1  0  0  0  0
 25 23  1  0  0  0  0
 26 27  1  0  0  0  0
 27 33  2  0  0  0  0
 27 28  1  0  0  0  0
 28 29  2  0  0  0  0
 29 30  1  0  0  0  0
 29 34  1  0  0  0  0
 30 35  1  0  0  0  0
 31 32  1  0  0  0  0
 31 30  2  0  0  0  0
 33 31  1  0  0  0  0
 36 33  1  0  0  0  0
M  END
>  <minimizedAffinity>
-5.54500246

$$$$

 OpenBabel03242515023D

 36 38  0  0  0  0  0  0  0  0999 V2000
   36.1410   29.9460   40.5350 S   0  0  0  0  0  0  0  0  0  0  0  0
   36.9400   28.7450   41.6000 C   0  0  0  0  0  0  0  0  0  0  0  0
   37.5720   29.2500   42.7480 C   0  0  0  0  0  0  0  0  0  0  0  0
   38.2070   28.3550   43.6090 C   0  0  0  0  0  0  0  0  0  0  0  0
   38.1770   27.0450   43.2830 N   0  0  0  0  0  0  0  0  0  0  0  0
   37.5720   26.5630   42.1860 C   0  0  0  0  0  0  0  0  0  0  0  0
   36.9610   27.4310   41.3600 N   0  0  0  0  0  0  0  0  0  0  0  0
   37.6080   30.2950   43.0280 H   0  0  0  0  0  0  0  0  0  0  0  0
   38.7010   28.7180   44.4990 H   0  0  0  0  0  0  0  0  0  0  0  0
   37.5960   25.1410   41.9280 C   0  0  0  0  0  0  0  0  0  0  0  0
   36.6380   24.4380   42.3270 O   0  0  0  0  0  0  0  0  0  0  0  0
   38.6230   24.4310   41.2450 N   0  0  0  0  0  0  0  0  0  0  0  0
   38.3100   23.0870   40.7970 C   0  0  0  0  0  3  0  0  0  0  0  0
   37.2570   22.8390   40.9190 H   0  0  0  0  0  0  0  0  0  0  0  0
   38.6140   23.0640   39.2980 C   0  0  0  0  0  3  0  0  0  0  0  0
   38.6230   21.9930   39.0060 H   0  0  0  0  0  0  0  0  0  0  0  0
   39.8590   23.5640   39.0050 O   0  0  0  0  0  0  0  0  0  0  0  0
   40.0830   24.8490   39.4260 C   0  0  0  0  0  2  0  0  0  0  0  0
   39.9550   24.9240   40.9530 C   0  0  0  0  0  2  0  0  0  0  0  0
   37.0320   30.2070   39.0040 C   0  0  0  0  0  0  0  0  0  0  0  0
   38.1120   29.9060   39.1420 H   0  0  0  0  0  0  0  0  0  0  0  0
   36.6580   29.5460   38.1730 H   0  0  0  0  0  0  0  0  0  0  0  0
   37.0140   31.6190   38.5230 C   0  0  0  0  0  0  0  0  0  0  0  0
   37.0700   31.6430   37.3980 H   0  0  0  0  0  0  0  0  0  0  0  0
   36.0790   32.1480   38.7970 H   0  0  0  0  0  0  0  0  0  0  0  0
   39.8260   30.8540   37.6380 Cl  0  0  0  0  0  0  0  0  0  0  0  0
   39.4630   32.1360   38.7460 C   0  0  0  0  0  0  0  0  0  0  0  0
   38.1310   32.4040   39.0870 C   0  0  0  0  0  0  0  0  0  0  0  0
   37.9260   33.4400   39.9740 C   0  0  0  0  0  0  0  0  0  0  0  0
   38.8980   34.2370   40.5600 C   0  0  0  0  0  0  0  0  0  0  0  0
   40.2080   33.9470   40.2040 C   0  0  0  0  0  0  0  0  0  0  0  0
   41.5050   34.9110   40.9020 Cl  0  0  0  0  0  0  0  0  0  0  0  0
   40.4660   32.9230   39.3210 C   0  0  0  0  0  0  0  0  0  0  0  0
   36.8940   33.6560   40.2440 H   0  0  0  0  0  0  0  0  0  0  0  0
   38.6130   35.0240   41.2450 H   0  0  0  0  0  0  0  0  0  0  0  0
   41.5040   32.7200   39.0610 H   0  0  0  0  0  0  0  0  0  0  0  0
  1  2  1  0  0  0  0
  2  3  1  0  0  0  0
  3  8  1  0  0  0  0
  3  4  2  0  0  0  0
  4  9  1  0  0  0  0
  5  4  1  0  0  0  0
  6  5  2  0  0  0  0
  7  2  2  0  0  0  0
  7  6  1  0  0  0  0
 10  6  1  0  0  0  0
 10 11  2  0  0  0  0
 12 10  1  0  0  0  0
 13 14  1  0  0  0  0
 13 12  1  0  0  0  0
 15 13  1  0  0  0  0
 16 15  1  0  0  0  0
 17 15  1  0  0  0  0
 17 18  1  0  0  0  0
 18 19  1  0  0  0  0
 19 12  1  0  0  0  0
 20 21  1  0  0  0  0
 20  1  1  0  0  0  0
 22 20  1  0  0  0  0
 23 25  1  0  0  0  0
 23 20  1  0  0  0  0
 23 28  1  0  0  0  0
 24 23  1  0  0  0  0
 26 27  1  0  0  0  0
 27 28  2  0  0  0  0
 27 33  1  0  0  0  0
 28 29  1  0  0  0  0
 29 34  1  0  0  0  0
 29 30  2  0  0  0  0
 30 35  1  0  0  0  0
 31 30  1  0  0  0  0
 31 32  1  0  0  0  0
 33 31  2  0  0  0  0
 36 33  1  0  0  0  0
M  END
>  <minimizedAffinity>
-5.46746778

$$$$
