
 OpenBabel03252507163D

 28 30  0  0  0  0  0  0  0  0999 V2000
   44.3060   35.5800   43.3440 C   0  0  0  0  0  0  0  0  0  0  0  0
   44.9750   34.3690   43.0330 C   0  0  0  0  0  0  0  0  0  0  0  0
   45.5120   33.6510   44.0990 C   0  0  0  0  0  0  0  0  0  0  0  0
   45.3830   34.1160   45.3570 N   0  0  0  0  0  0  0  0  0  0  0  0
   44.7290   35.2900   45.6210 C   0  0  0  0  0  0  0  0  0  0  0  0
   44.2150   35.9800   44.6110 N   0  0  0  0  0  0  0  0  0  0  0  0
   43.8800   36.1530   42.5200 H   0  0  0  0  0  0  0  0  0  0  0  0
   44.6210   35.6680   46.6210 H   0  0  0  0  0  0  0  0  0  0  0  0
   46.2040   32.4060   43.7990 C   0  0  0  0  0  0  0  0  0  0  0  0
   45.5190   31.2170   43.7950 C   0  0  0  0  0  0  0  0  0  0  0  0
   46.2230   30.0650   43.5030 C   0  0  0  0  0  0  0  0  0  0  0  0
   47.5790   30.0440   43.2150 C   0  0  0  0  0  0  0  0  0  0  0  0
   48.2060   31.2650   43.2370 C   0  0  0  0  0  0  0  0  0  0  0  0
   47.5190   32.3900   43.5220 N   0  0  0  0  0  0  0  0  0  0  0  0
   44.4610   31.2150   44.0150 H   0  0  0  0  0  0  0  0  0  0  0  0
   45.6110   29.1620   43.5180 H   0  0  0  0  0  0  0  0  0  0  0  0
   48.0440   29.0980   43.0000 H   0  0  0  0  0  0  0  0  0  0  0  0
   49.2720   31.2840   43.0160 H   0  0  0  0  0  0  0  0  0  0  0  0
   45.0750   33.9390   41.6860 C   0  0  0  0  0  0  0  0  0  0  0  0
   46.1840   34.0550   41.1110 O   0  0  0  0  0  0  0  0  0  0  0  0
   43.9990   33.3820   40.9390 N   0  0  0  0  0  0  0  0  0  0  0  0
   43.7370   33.8080   39.5740 C   0  0  0  0  0  3  0  0  0  0  0  0
   44.5280   34.5050   39.2750 H   0  0  0  0  0  0  0  0  0  0  0  0
   42.3930   34.5270   39.6280 C   0  0  0  0  0  3  0  0  0  0  0  0
   42.6480   35.6020   39.8610 H   0  0  0  0  0  0  0  0  0  0  0  0
   41.6170   34.0850   40.6670 O   0  0  0  0  0  0  0  0  0  0  0  0
   41.7140   32.7520   40.9760 C   0  0  0  0  0  2  0  0  0  0  0  0
   43.1060   32.3720   41.4760 C   0  0  0  0  0  2  0  0  0  0  0  0
  1  6  1  0  0  0  0
  2  1  2  0  0  0  0
  2  3  1  0  0  0  0
  3  4  2  0  0  0  0
  4  5  1  0  0  0  0
  5  8  1  0  0  0  0
  6  5  2  0  0  0  0
  7  1  1  0  0  0  0
  9  3  1  0  0  0  0
 10  9  1  0  0  0  0
 10 15  1  0  0  0  0
 11 16  1  0  0  0  0
 11 10  2  0  0  0  0
 12 13  2  0  0  0  0
 12 11  1  0  0  0  0
 13 14  1  0  0  0  0
 14  9  2  0  0  0  0
 17 12  1  0  0  0  0
 18 13  1  0  0  0  0
 19  2  1  0  0  0  0
 20 19  2  0  0  0  0
 21 28  1  0  0  0  0
 21 19  1  0  0  0  0
 22 24  1  0  0  0  0
 22 21  1  0  0  0  0
 23 22  1  0  0  0  0
 24 25  1  0  0  0  0
 24 26  1  0  0  0  0
 26 27  1  0  0  0  0
 27 28  1  0  0  0  0
M  END
>  <minimizedAffinity>
-4.20734882

>  <minimizedRMSD>
1.44506657

$$$$
