REMARK  Name = 
REMARK  2 active torsions:
REMARK  status: ('A' for Active; 'I' for Inactive)
REMARK    1  A    between atoms: C_1  and  C_10
REMARK    2  A    between atoms: C_2  and  C_7
REMARK                            x       y       z     vdW  Elec       q    Type
REMARK                         _______ _______ _______ _____ _____    ______ ____
ROOT
ATOM      1  C   UNL     1      46.279  34.506  43.637  0.00  0.00    +0.000 A 
ATOM      2  C   UNL     1      47.379  33.888  43.138  0.00  0.00    +0.000 A 
ATOM      3  C   UNL     1      47.759  32.730  43.800  0.00  0.00    +0.000 A 
ATOM      4  N   UNL     1      46.994  32.316  44.893  0.00  0.00    +0.000 NA
ATOM      5  C   UNL     1      45.934  32.969  45.324  0.00  0.00    +0.000 A 
ATOM      6  N   UNL     1      45.524  34.123  44.694  0.00  0.00    +0.000 NA
ATOM      7  H   UNL     1      48.615  32.169  43.482  0.00  0.00    +0.000 HD
ATOM      8  H   UNL     1      45.511  32.458  46.179  0.00  0.00    +0.000 HD
ENDROOT
BRANCH   1   9
ATOM      9  C   UNL     1      45.604  35.668  43.094  0.00  0.00    +0.000 C 
ATOM     10  O   UNL     1      45.179  36.790  43.048  0.00  0.00    +0.000 OA
ATOM     11  N   UNL     1      45.074  35.395  41.764  0.00  0.00    +0.000 N 
ATOM     12  C   UNL     1      44.121  36.364  41.320  0.00  0.00    +0.000 C 
ATOM     13  H   UNL     1      44.637  37.352  41.269  0.00  0.00    +0.000 HD
ATOM     14  C   UNL     1      43.519  36.053  39.982  0.00  0.00    +0.000 C 
ATOM     15  H   UNL     1      42.871  36.885  39.639  0.00  0.00    +0.000 HD
ATOM     16  O   UNL     1      44.428  35.715  39.021  0.00  0.00    +0.000 OA
ATOM     17  C   UNL     1      45.559  35.069  39.438  0.00  0.00    +0.000 C 
ATOM     18  C   UNL     1      45.249  34.387  40.737  0.00  0.00    +0.000 C 
ENDBRANCH   1   9
BRANCH   2  19
ATOM     19  C   UNL     1      48.194  34.347  42.076  0.00  0.00    +0.000 C 
ATOM     20  C   UNL     1      48.542  35.602  41.700  0.00  0.00    +0.000 C 
ATOM     21  C   UNL     1      49.665  34.842  42.408  0.00  0.00    +0.000 C 
ATOM     22  H   UNL     1      48.494  33.410  41.428  0.00  0.00    +0.000 HD
ATOM     23  H   UNL     1      48.145  36.527  42.198  0.00  0.00    +0.000 HD
ATOM     24  H   UNL     1      48.790  35.858  40.626  0.00  0.00    +0.000 HD
ATOM     25  H   UNL     1      49.774  35.145  43.470  0.00  0.00    +0.000 HD
ATOM     26  H   UNL     1      50.494  34.499  41.817  0.00  0.00    +0.000 HD
ENDBRANCH   2  19
TORSDOF 2
