
 OpenBabel03242510223D

 37 40  0  0  1  0  0  0  0  0999 V2000
   48.0270   33.2320   43.1010 N   0  0  0  0  0  0  0  0  0  0  0  0
   49.2140   33.3110   42.3770 C   0  0  0  0  0  0  0  0  0  0  0  0
   50.3790   32.9440   42.6700 O   0  0  0  0  0  0  0  0  0  0  0  0
   47.4620   34.1100   43.0140 H   0  0  0  0  0  0  0  0  0  0  0  0
   46.2990   32.0960   44.4480 C   0  0  1  0  0  0  0  0  0  0  0  0
   46.4130   31.3560   43.2630 C   0  0  0  0  0  0  0  0  0  0  0  0
   47.6550   32.0910   43.8580 C   0  0  1  0  0  0  0  0  0  0  0  0
   46.1710   31.6420   45.4440 H   0  0  0  0  0  0  0  0  0  0  0  0
   46.4940   30.2290   43.3440 H   0  0  0  0  0  0  0  0  0  0  0  0
   46.1430   31.6260   42.2230 H   0  0  0  0  0  0  0  0  0  0  0  0
   48.4310   31.3860   44.2030 H   0  0  0  0  0  0  0  0  0  0  0  0
   45.0490   33.9840   43.1510 C   0  0  0  0  0  0  0  0  0  0  0  0
   45.5480   33.4390   44.3810 C   0  0  0  0  0  0  0  0  0  0  0  0
   45.3550   34.1780   45.5300 C   0  0  0  0  0  0  0  0  0  0  0  0
   44.7150   35.3620   45.4500 N   0  0  0  0  0  0  0  0  0  0  0  0
   44.2490   35.8680   44.2760 C   0  0  0  0  0  0  0  0  0  0  0  0
   44.4280   35.1450   43.0960 N   0  0  0  0  0  0  0  0  0  0  0  0
   45.1930   33.3880   42.2780 H   0  0  0  0  0  0  0  0  0  0  0  0
   45.7150   33.8000   46.4790 H   0  0  0  0  0  0  0  0  0  0  0  0
   43.7520   36.8290   44.3270 H   0  0  0  0  0  0  0  0  0  0  0  0
   49.1930   33.9250   40.9890 C   0  0  2  0  0  0  0  0  0  0  0  0
   48.5880   35.3750   40.8760 C   0  0  0  0  0  0  0  0  0  0  0  0
   47.9330   34.1750   40.2820 C   0  0  1  0  0  0  0  0  0  0  0  0
   50.1310   33.8810   40.4000 H   0  0  0  0  0  0  0  0  0  0  0  0
   49.1200   36.1020   40.2670 H   0  0  0  0  0  0  0  0  0  0  0  0
   48.1810   35.7190   41.8640 H   0  0  0  0  0  0  0  0  0  0  0  0
   47.0040   33.7570   40.7070 H   0  0  0  0  0  0  0  0  0  0  0  0
   47.9390   34.0460   38.7750 C   0  0  0  0  0  0  0  0  0  0  0  0
   48.5630   34.8560   38.0980 O   0  0  0  0  0  0  0  0  0  0  0  0
   47.2120   32.9760   38.1180 N   0  0  0  0  0  0  0  0  0  0  0  0
   47.6160   31.6230   38.4650 C   0  0  0  0  0  3  0  0  0  0  0  0
   47.3030   31.2990   39.4580 H   0  0  0  0  0  0  0  0  0  0  0  0
   47.1590   30.7130   37.3550 C   0  0  0  0  0  3  0  0  0  0  0  0
   47.1120   29.6530   37.6900 H   0  0  0  0  0  0  0  0  0  0  0  0
   45.8870   31.0130   36.8760 O   0  0  0  0  0  0  0  0  0  0  0  0
   45.8850   32.2520   36.2260 C   0  0  0  0  0  2  0  0  0  0  0  0
   46.1620   33.3560   37.1930 C   0  0  0  0  0  2  0  0  0  0  0  0
  1  7  1  0  0  0  0
  2  3  2  0  0  0  0
  2  1  1  0  0  0  0
  4  1  1  0  0  0  0
  5  8  1  1  0  0  0
  6  9  1  0  0  0  0
  6  7  1  0  0  0  0
  6  5  1  0  0  0  0
  7 11  1  1  0  0  0
  7  5  1  0  0  0  0
 10  6  1  0  0  0  0
 12 13  1  0  0  0  0
 13  5  1  0  0  0  0
 13 14  2  0  0  0  0
 14 19  1  0  0  0  0
 15 14  1  0  0  0  0
 16 20  1  0  0  0  0
 16 15  2  0  0  0  0
 17 12  2  0  0  0  0
 17 16  1  0  0  0  0
 18 12  1  0  0  0  0
 21 24  1  6  0  0  0
 21  2  1  0  0  0  0
 22 21  1  0  0  0  0
 22 26  1  0  0  0  0
 23 27  1  1  0  0  0
 23 22  1  0  0  0  0
 23 21  1  0  0  0  0
 25 22  1  0  0  0  0
 28 23  1  0  0  0  0
 29 28  2  0  0  0  0
 30 31  1  0  0  0  0
 30 28  1  0  0  0  0
 31 32  1  0  0  0  0
 33 34  1  0  0  0  0
 33 31  1  0  0  0  0
 35 33  1  0  0  0  0
 36 35  1  0  0  0  0
 36 37  1  0  0  0  0
 37 30  1  0  0  0  0
M  END
>  <minimizedAffinity>
-4.98732138

>  <minimizedRMSD>
0.484219939

$$$$
