
 OpenBabel03242515013D

 36 38  0  0  0  0  0  0  0  0999 V2000
   44.0540   34.6980   40.9120 S   0  0  0  0  0  0  0  0  0  0  0  0
   45.2750   34.3880   42.1880 C   0  0  0  0  0  0  0  0  0  0  0  0
   46.6220   34.5040   41.8070 C   0  0  0  0  0  0  0  0  0  0  0  0
   47.6090   34.2720   42.7650 C   0  0  0  0  0  0  0  0  0  0  0  0
   47.2070   33.9460   44.0120 N   0  0  0  0  0  0  0  0  0  0  0  0
   45.9200   33.8360   44.3760 C   0  0  0  0  0  0  0  0  0  0  0  0
   44.9730   34.0610   43.4480 N   0  0  0  0  0  0  0  0  0  0  0  0
   46.9660   34.7630   40.8140 H   0  0  0  0  0  0  0  0  0  0  0  0
   48.6530   34.3540   42.4970 H   0  0  0  0  0  0  0  0  0  0  0  0
   45.5940   33.4820   45.7390 C   0  0  0  0  0  0  0  0  0  0  0  0
   44.8350   34.2360   46.3940 O   0  0  0  0  0  0  0  0  0  0  0  0
   46.0550   32.3330   46.4390 N   0  0  0  0  0  0  0  0  0  0  0  0
   47.2930   32.4660   47.1820 C   0  0  0  0  0  3  0  0  0  0  0  0
   47.6480   33.4950   47.2250 H   0  0  0  0  0  0  0  0  0  0  0  0
   46.9730   32.0330   48.6140 C   0  0  0  0  0  3  0  0  0  0  0  0
   47.9520   31.8890   49.1150 H   0  0  0  0  0  0  0  0  0  0  0  0
   46.3220   30.8250   48.6650 O   0  0  0  0  0  0  0  0  0  0  0  0
   45.1420   30.7700   47.9690 C   0  0  0  0  0  2  0  0  0  0  0  0
   45.4040   31.0360   46.4810 C   0  0  0  0  0  2  0  0  0  0  0  0
   42.3840   34.7500   41.5560 C   0  0  0  0  0  0  0  0  0  0  0  0
   41.8950   33.7420   41.4120 H   0  0  0  0  0  0  0  0  0  0  0  0
   42.3600   34.9200   42.6690 H   0  0  0  0  0  0  0  0  0  0  0  0
   41.5140   35.7730   40.9070 C   0  0  0  0  0  0  0  0  0  0  0  0
   40.9310   36.3340   41.6900 H   0  0  0  0  0  0  0  0  0  0  0  0
   42.0970   36.5340   40.3510 H   0  0  0  0  0  0  0  0  0  0  0  0
   42.2130   36.0270   37.9530 Cl  0  0  0  0  0  0  0  0  0  0  0  0
   40.8040   35.2210   38.5610 C   0  0  0  0  0  0  0  0  0  0  0  0
   40.5770   35.1620   39.9420 C   0  0  0  0  0  0  0  0  0  0  0  0
   39.4350   34.5040   40.3430 C   0  0  0  0  0  0  0  0  0  0  0  0
   38.4920   33.8980   39.5250 C   0  0  0  0  0  0  0  0  0  0  0  0
   38.7440   33.9730   38.1620 C   0  0  0  0  0  0  0  0  0  0  0  0
   37.5980   33.2310   37.0510 Cl  0  0  0  0  0  0  0  0  0  0  0  0
   39.8720   34.6200   37.7090 C   0  0  0  0  0  0  0  0  0  0  0  0
   39.2510   34.4530   41.4150 H   0  0  0  0  0  0  0  0  0  0  0  0
   37.6310   33.4100   39.9600 H   0  0  0  0  0  0  0  0  0  0  0  0
   40.0410   34.6620   36.6340 H   0  0  0  0  0  0  0  0  0  0  0  0
  1 20  1  0  0  0  0
  1  2  1  0  0  0  0
  2  7  1  0  0  0  0
  3  2  2  0  0  0  0
  3  4  1  0  0  0  0
  4  5  2  0  0  0  0
  5  6  1  0  0  0  0
  6 10  1  0  0  0  0
  7  6  2  0  0  0  0
  8  3  1  0  0  0  0
  9  4  1  0  0  0  0
 10 11  2  0  0  0  0
 10 12  1  0  0  0  0
 12 19  1  0  0  0  0
 12 13  1  0  0  0  0
 13 14  1  0  0  0  0
 13 15  1  0  0  0  0
 15 17  1  0  0  0  0
 15 16  1  0  0  0  0
 18 17  1  0  0  0  0
 19 18  1  0  0  0  0
 20 22  1  0  0  0  0
 21 20  1  0  0  0  0
 23 20  1  0  0  0  0
 23 24  1  0  0  0  0
 25 23  1  0  0  0  0
 26 27  1  0  0  0  0
 27 28  1  0  0  0  0
 28 29  2  0  0  0  0
 28 23  1  0  0  0  0
 29 34  1  0  0  0  0
 30 35  1  0  0  0  0
 30 29  1  0  0  0  0
 31 30  2  0  0  0  0
 32 31  1  0  0  0  0
 33 31  1  0  0  0  0
 33 27  2  0  0  0  0
 36 33  1  0  0  0  0
M  END
>  <minimizedAffinity>
-6.61171579

>  <minimizedRMSD>
0.802383184

$$$$
