
 OpenBabel03242515003D

 36 38  0  0  0  0  0  0  0  0999 V2000
   44.2080   34.8790   41.0550 S   0  0  0  0  0  0  0  0  0  0  0  0
   45.3440   34.4220   42.3650 C   0  0  0  0  0  0  0  0  0  0  0  0
   46.6950   34.2920   42.0050 C   0  0  0  0  0  0  0  0  0  0  0  0
   47.6170   33.9370   42.9890 C   0  0  0  0  0  0  0  0  0  0  0  0
   47.1510   33.7380   44.2410 N   0  0  0  0  0  0  0  0  0  0  0  0
   45.8600   33.8630   44.5850 C   0  0  0  0  0  0  0  0  0  0  0  0
   44.9760   34.2050   43.6320 N   0  0  0  0  0  0  0  0  0  0  0  0
   47.0890   34.4460   41.0090 H   0  0  0  0  0  0  0  0  0  0  0  0
   48.6630   33.8300   42.7380 H   0  0  0  0  0  0  0  0  0  0  0  0
   45.4630   33.6290   45.9550 C   0  0  0  0  0  0  0  0  0  0  0  0
   44.6770   34.4380   46.5030 O   0  0  0  0  0  0  0  0  0  0  0  0
   45.8810   32.5430   46.7740 N   0  0  0  0  0  0  0  0  0  0  0  0
   45.5610   31.2060   46.3090 C   0  0  0  0  0  3  0  0  0  0  0  0
   45.1540   31.1980   45.3000 H   0  0  0  0  0  0  0  0  0  0  0  0
   46.8880   30.4460   46.2750 C   0  0  0  0  0  3  0  0  0  0  0  0
   46.6210   29.3730   46.1710 H   0  0  0  0  0  0  0  0  0  0  0  0
   47.5950   30.5650   47.4460 O   0  0  0  0  0  0  0  0  0  0  0  0
   47.8940   31.8520   47.8150 C   0  0  0  0  0  2  0  0  0  0  0  0
   46.5980   32.6440   48.0310 C   0  0  0  0  0  2  0  0  0  0  0  0
   42.4960   34.6180   41.5070 C   0  0  0  0  0  0  0  0  0  0  0  0
   42.1540   33.6140   41.1200 H   0  0  0  0  0  0  0  0  0  0  0  0
   42.3520   34.5550   42.6220 H   0  0  0  0  0  0  0  0  0  0  0  0
   41.5610   35.6510   40.9720 C   0  0  0  0  0  0  0  0  0  0  0  0
   40.9860   36.1240   41.8180 H   0  0  0  0  0  0  0  0  0  0  0  0
   42.0930   36.4770   40.4590 H   0  0  0  0  0  0  0  0  0  0  0  0
   42.2940   35.9070   38.0270 Cl  0  0  0  0  0  0  0  0  0  0  0  0
   40.8550   35.1420   38.6150 C   0  0  0  0  0  0  0  0  0  0  0  0
   40.6140   35.0790   39.9940 C   0  0  0  0  0  0  0  0  0  0  0  0
   39.4480   34.4550   40.3800 C   0  0  0  0  0  0  0  0  0  0  0  0
   38.4940   33.8860   39.5480 C   0  0  0  0  0  0  0  0  0  0  0  0
   38.7600   33.9640   38.1880 C   0  0  0  0  0  0  0  0  0  0  0  0
   37.6010   33.2680   37.0610 Cl  0  0  0  0  0  0  0  0  0  0  0  0
   39.9120   34.5780   37.7500 C   0  0  0  0  0  0  0  0  0  0  0  0
   39.2530   34.4010   41.4490 H   0  0  0  0  0  0  0  0  0  0  0  0
   37.6140   33.4220   39.9710 H   0  0  0  0  0  0  0  0  0  0  0  0
   40.0920   34.6240   36.6770 H   0  0  0  0  0  0  0  0  0  0  0  0
  1 20  1  0  0  0  0
  1  2  1  0  0  0  0
  2  7  1  0  0  0  0
  3  2  2  0  0  0  0
  3  4  1  0  0  0  0
  4  5  2  0  0  0  0
  5  6  1  0  0  0  0
  6 10  1  0  0  0  0
  7  6  2  0  0  0  0
  8  3  1  0  0  0  0
  9  4  1  0  0  0  0
 10 11  2  0  0  0  0
 10 12  1  0  0  0  0
 12 19  1  0  0  0  0
 13 12  1  0  0  0  0
 14 13  1  0  0  0  0
 15 13  1  0  0  0  0
 15 17  1  0  0  0  0
 16 15  1  0  0  0  0
 17 18  1  0  0  0  0
 18 19  1  0  0  0  0
 20 22  1  0  0  0  0
 21 20  1  0  0  0  0
 23 20  1  0  0  0  0
 23 24  1  0  0  0  0
 25 23  1  0  0  0  0
 26 27  1  0  0  0  0
 27 28  1  0  0  0  0
 28 29  2  0  0  0  0
 28 23  1  0  0  0  0
 29 34  1  0  0  0  0
 30 35  1  0  0  0  0
 30 29  1  0  0  0  0
 31 30  2  0  0  0  0
 32 31  1  0  0  0  0
 33 31  1  0  0  0  0
 33 27  2  0  0  0  0
 36 33  1  0  0  0  0
M  END
>  <minimizedAffinity>
-6.27463102

>  <minimizedRMSD>
0.745806336

$$$$
