
 OpenBabel03242516523D

 44 47  0  0  1  0  0  0  0  0999 V2000
   47.8650   32.9340   41.8090 C   0  0  1  0  0  0  0  0  0  0  0  0
   47.5430   32.2030   40.5820 C   0  0  0  0  0  0  0  0  0  0  0  0
   48.5580   32.6560   39.5350 C   0  0  0  0  0  0  0  0  0  0  0  0
   48.2160   34.0810   39.1940 C   0  0  0  0  0  0  0  0  0  0  0  0
   48.1530   34.9990   40.3810 C   0  0  0  0  0  0  0  0  0  0  0  0
   47.6560   34.4450   41.6530 C   0  0  1  0  0  0  0  0  0  0  0  0
   48.9840   32.8680   41.9820 H   0  0  0  0  0  0  0  0  0  0  0  0
   46.5540   32.4480   40.1360 H   0  0  0  0  0  0  0  0  0  0  0  0
   47.6150   31.1260   40.7450 H   0  0  0  0  0  0  0  0  0  0  0  0
   49.6000   32.5500   39.8800 H   0  0  0  0  0  0  0  0  0  0  0  0
   48.3380   32.0400   38.6380 H   0  0  0  0  0  0  0  0  0  0  0  0
   47.2400   34.0630   38.6590 H   0  0  0  0  0  0  0  0  0  0  0  0
   48.9470   34.4710   38.4720 H   0  0  0  0  0  0  0  0  0  0  0  0
   47.4930   35.8520   40.0820 H   0  0  0  0  0  0  0  0  0  0  0  0
   49.1600   35.4640   40.4880 H   0  0  0  0  0  0  0  0  0  0  0  0
   48.2480   34.8970   42.4930 H   0  0  0  0  0  0  0  0  0  0  0  0
   45.5310   31.0640   44.1180 C   0  0  0  0  0  0  0  0  0  0  0  0
   46.2010   31.5400   42.9840 C   0  0  0  0  0  0  0  0  0  0  0  0
   47.2250   32.4880   43.0280 C   0  0  0  0  0  0  0  0  0  0  0  0
   47.5450   32.9340   44.2440 N   0  0  0  0  0  0  0  0  0  0  0  0
   46.9020   32.4800   45.3550 C   0  0  0  0  0  0  0  0  0  0  0  0
   45.9200   31.5700   45.3050 N   0  0  0  0  0  0  0  0  0  0  0  0
   44.7490   30.3310   44.0090 H   0  0  0  0  0  0  0  0  0  0  0  0
   45.9300   31.1690   42.0000 H   0  0  0  0  0  0  0  0  0  0  0  0
   47.1760   32.8540   46.3320 H   0  0  0  0  0  0  0  0  0  0  0  0
   46.2720   34.8290   41.9300 C   0  0  0  0  0  0  0  0  0  0  0  0
   45.8360   35.5680   43.0350 C   0  0  0  0  0  0  0  0  0  0  0  0
   44.4700   35.8380   43.0940 C   0  0  0  0  0  0  0  0  0  0  0  0
   43.6700   35.3600   42.0710 C   0  0  0  0  0  0  0  0  0  0  0  0
   44.1240   34.6340   40.9930 C   0  0  0  0  0  0  0  0  0  0  0  0
   45.4630   34.3780   40.9490 N   0  0  0  0  0  0  0  0  0  0  0  0
   46.5630   35.8660   43.7380 H   0  0  0  0  0  0  0  0  0  0  0  0
   44.1060   36.4070   43.9370 H   0  0  0  0  0  0  0  0  0  0  0  0
   42.6090   35.5650   42.1090 H   0  0  0  0  0  0  0  0  0  0  0  0
   43.1900   34.1760   39.9670 C   0  0  0  0  0  0  0  0  0  0  0  0
   42.6930   35.0280   39.1840 O   0  0  0  0  0  0  0  0  0  0  0  0
   42.6680   32.9050   39.6130 N   0  0  0  0  0  0  0  0  0  0  0  0
   41.2200   32.9710   39.3790 C   0  0  0  0  0  3  0  0  0  0  0  0
   40.6610   32.7270   40.3150 H   0  0  0  0  0  0  0  0  0  0  0  0
   40.9100   31.8520   38.3800 C   0  0  0  0  0  3  0  0  0  0  0  0
   40.7200   30.8950   38.8800 H   0  0  0  0  0  0  0  0  0  0  0  0
   41.9050   31.7840   37.4180 O   0  0  0  0  0  0  0  0  0  0  0  0
   43.0960   31.2640   37.9360 C   0  0  0  0  0  2  0  0  0  0  0  0
   43.1740   31.5360   39.4210 C   0  0  0  0  0  2  0  0  0  0  0  0
  1  7  1  1  0  0  0
  1 19  1  0  0  0  0
  2  9  1  0  0  0  0
  2  1  1  0  0  0  0
  3 10  1  0  0  0  0
  3  2  1  0  0  0  0
  4  3  1  0  0  0  0
  4  5  1  0  0  0  0
  5 15  1  0  0  0  0
  5  6  1  0  0  0  0
  6  1  1  0  0  0  0
  6 26  1  0  0  0  0
  6 16  1  1  0  0  0
  8  2  1  0  0  0  0
 11  3  1  0  0  0  0
 12  4  1  0  0  0  0
 13  4  1  0  0  0  0
 14  5  1  0  0  0  0
 17 22  1  0  0  0  0
 18 19  1  0  0  0  0
 18 17  2  0  0  0  0
 19 20  2  0  0  0  0
 20 21  1  0  0  0  0
 21 25  1  0  0  0  0
 22 21  2  0  0  0  0
 23 17  1  0  0  0  0
 24 18  1  0  0  0  0
 26 27  1  0  0  0  0
 27 28  2  0  0  0  0
 27 32  1  0  0  0  0
 28 33  1  0  0  0  0
 29 34  1  0  0  0  0
 29 28  1  0  0  0  0
 30 29  2  0  0  0  0
 31 30  1  0  0  0  0
 31 26  2  0  0  0  0
 35 30  1  0  0  0  0
 36 35  2  0  0  0  0
 37 35  1  0  0  0  0
 38 37  1  0  0  0  0
 38 39  1  0  0  0  0
 40 41  1  0  0  0  0
 40 38  1  0  0  0  0
 42 43  1  0  0  0  0
 42 40  1  0  0  0  0
 43 44  1  0  0  0  0
 44 37  1  0  0  0  0
M  END
>  <minimizedAffinity>
-5.629529

>  <minimizedRMSD>
0.545553505

$$$$
