REMARK  Name = 
REMARK  3 active torsions:
REMARK  status: ('A' for Active; 'I' for Inactive)
REMARK    1  A    between atoms: C_1  and  C_9
REMARK    2  A    between atoms: C_6  and  C_13
REMARK    3  A    between atoms: C_17  and  C_19
REMARK                            x       y       z     vdW  Elec       q    Type
REMARK                         _______ _______ _______ _____ _____    ______ ____
ROOT
ATOM      1  C   UNL     1      47.873  32.921  41.821  0.00  0.00    +0.000 C 
ATOM      2  C   UNL     1      47.569  32.184  40.594  0.00  0.00    +0.000 C 
ATOM      3  C   UNL     1      48.593  32.639  39.556  0.00  0.00    +0.000 C 
ATOM      4  C   UNL     1      48.246  34.061  39.206  0.00  0.00    +0.000 C 
ATOM      5  C   UNL     1      48.164  34.983  40.389  0.00  0.00    +0.000 C 
ATOM      6  C   UNL     1      47.656  34.430  41.658  0.00  0.00    +0.000 C 
ATOM      7  H   UNL     1      48.990  32.863  42.007  0.00  0.00    +0.000 HD
ATOM      8  H   UNL     1      46.584  32.421  40.135  0.00  0.00    +0.000 HD
ATOM      9  H   UNL     1      47.646  31.108  40.761  0.00  0.00    +0.000 HD
ATOM     10  H   UNL     1      49.632  32.541  39.914  0.00  0.00    +0.000 HD
ATOM     11  H   UNL     1      48.388  32.019  38.659  0.00  0.00    +0.000 HD
ATOM     12  H   UNL     1      47.277  34.035  38.660  0.00  0.00    +0.000 HD
ATOM     13  H   UNL     1      48.983  34.453  38.491  0.00  0.00    +0.000 HD
ATOM     14  H   UNL     1      47.502  35.830  40.080  0.00  0.00    +0.000 HD
ATOM     15  H   UNL     1      49.167  35.455  40.506  0.00  0.00    +0.000 HD
ATOM     16  H   UNL     1      48.236  34.889  42.503  0.00  0.00    +0.000 HD
ENDROOT
BRANCH   1  19
ATOM     17  C   UNL     1      45.478  31.098  44.105  0.00  0.00    +0.000 A 
ATOM     18  C   UNL     1      46.160  31.570  42.977  0.00  0.00    +0.000 A 
ATOM     19  C   UNL     1      47.222  32.475  43.035  0.00  0.00    +0.000 A 
ATOM     20  N   UNL     1      47.566  32.882  44.258  0.00  0.00    +0.000 NA
ATOM     21  C   UNL     1      46.911  32.431  45.363  0.00  0.00    +0.000 A 
ATOM     22  N   UNL     1      45.893  31.562  45.300  0.00  0.00    +0.000 NA
ATOM     23  H   UNL     1      44.666  30.399  43.985  0.00  0.00    +0.000 HD
ATOM     24  H   UNL     1      45.869  31.231  41.987  0.00  0.00    +0.000 HD
ATOM     25  H   UNL     1      47.205  32.773  46.346  0.00  0.00    +0.000 HD
ENDBRANCH   1  19
BRANCH   6  26
ATOM     26  C   UNL     1      46.267  34.806  41.917  0.00  0.00    +0.000 A 
ATOM     27  C   UNL     1      45.805  35.495  43.044  0.00  0.00    +0.000 A 
ATOM     28  C   UNL     1      44.439  35.767  43.082  0.00  0.00    +0.000 A 
ATOM     29  C   UNL     1      43.663  35.340  42.018  0.00  0.00    +0.000 A 
ATOM     30  C   UNL     1      44.142  34.663  40.919  0.00  0.00    +0.000 A 
ATOM     31  N   UNL     1      45.481  34.404  40.897  0.00  0.00    +0.000 NA
ATOM     32  H   UNL     1      46.515  35.757  43.778  0.00  0.00    +0.000 HD
ATOM     33  H   UNL     1      44.055  36.298  43.941  0.00  0.00    +0.000 HD
ATOM     34  H   UNL     1      42.602  35.547  42.039  0.00  0.00    +0.000 HD
BRANCH  30  35
ATOM     35  C   UNL     1      43.233  34.257  39.850  0.00  0.00    +0.000 C 
ATOM     36  O   UNL     1      42.368  35.081  39.452  0.00  0.00    +0.000 OA
ATOM     37  N   UNL     1      43.078  33.066  39.094  0.00  0.00    +0.000 N 
ATOM     38  C   UNL     1      42.916  33.358  37.665  0.00  0.00    +0.000 C 
ATOM     39  H   UNL     1      41.833  33.439  37.403  0.00  0.00    +0.000 HD
ATOM     40  C   UNL     1      43.454  32.130  36.926  0.00  0.00    +0.000 C 
ATOM     41  H   UNL     1      42.685  31.361  36.789  0.00  0.00    +0.000 HD
ATOM     42  O   UNL     1      44.597  31.660  37.554  0.00  0.00    +0.000 OA
ATOM     43  C   UNL     1      44.305  31.045  38.775  0.00  0.00    +0.000 C 
ATOM     44  C   UNL     1      43.028  31.616  39.347  0.00  0.00    +0.000 C 
ENDBRANCH  30  35
ENDBRANCH   6  26
TORSDOF 3
