
 OpenBabel03252503153D

 35 38  0  0  1  0  0  0  0  0999 V2000
   46.1270   34.5620   41.8100 C   0  0  0  0  0  0  0  0  0  0  0  0
   47.2750   35.0500   41.5560 O   0  0  0  0  0  0  0  0  0  0  0  0
   45.2990   33.7940   40.8230 C   0  0  0  0  0  0  0  0  0  0  0  0
   43.9770   33.4190   41.0000 C   0  0  0  0  0  0  0  0  0  0  0  0
   43.6390   32.7570   39.8770 N   0  0  0  0  0  0  0  0  0  0  0  0
   44.7100   32.7320   39.0550 C   0  0  0  0  0  0  0  0  0  0  0  0
   45.7460   33.3780   39.6420 N   0  0  0  0  0  0  0  0  0  0  0  0
   44.8800   32.1620   37.7570 N   0  0  0  0  0  0  0  0  0  0  0  0
   43.3450   33.6040   41.8380 H   0  0  0  0  0  0  0  0  0  0  0  0
   44.5650   31.1530   37.7170 H   0  0  0  0  0  0  0  0  0  0  0  0
   45.2670   32.6510   36.9150 H   0  0  0  0  0  0  0  0  0  0  0  0
   42.6970   30.2580   40.2570 H   0  0  0  0  0  0  0  0  0  0  0  0
   42.4670   30.7070   39.3270 N   0  0  0  0  0  0  0  0  0  0  0  0
   42.3830   32.1590   39.5470 C   0  0  2  0  0  3  0  0  0  0  0  0
   41.6960   32.7820   38.3730 C   0  0  0  0  0  3  0  0  0  0  0  0
   42.2130   33.6900   38.0270 H   0  0  0  0  0  0  0  0  0  0  0  0
   41.6130   31.8780   37.3170 O   0  0  0  0  0  0  0  0  0  0  0  0
   40.8020   30.7930   37.6400 C   0  0  0  0  0  2  0  0  0  0  0  0
   41.0670   30.3290   39.0680 C   0  0  0  0  0  2  0  0  0  0  0  0
   44.9850   35.9910   43.4440 C   0  0  0  0  0  0  0  0  0  0  0  0
   45.6480   34.7890   43.1270 C   0  0  0  0  0  0  0  0  0  0  0  0
   45.7700   33.9110   44.1800 C   0  0  0  0  0  0  0  0  0  0  0  0
   45.2990   34.1720   45.4140 N   0  0  0  0  0  0  0  0  0  0  0  0
   44.6670   35.3510   45.6590 C   0  0  0  0  0  0  0  0  0  0  0  0
   44.5170   36.2470   44.6770 N   0  0  0  0  0  0  0  0  0  0  0  0
   44.8520   36.7340   42.6620 H   0  0  0  0  0  0  0  0  0  0  0  0
   44.3130   35.4960   46.6750 H   0  0  0  0  0  0  0  0  0  0  0  0
   46.4250   32.6760   43.9520 C   0  0  0  0  0  0  0  0  0  0  0  0
   47.7240   32.2720   43.8770 C   0  0  0  0  0  0  0  0  0  0  0  0
   48.0450   31.0170   43.6480 C   0  0  0  0  0  0  0  0  0  0  0  0
   47.0460   30.1200   43.4880 C   0  0  0  0  0  0  0  0  0  0  0  0
   45.5570   31.1480   43.6770 S   0  0  0  0  0  0  0  0  0  0  0  0
   48.4600   33.0880   44.0230 H   0  0  0  0  0  0  0  0  0  0  0  0
   49.0470   30.6170   43.5720 H   0  0  0  0  0  0  0  0  0  0  0  0
   47.0070   29.0530   43.2940 H   0  0  0  0  0  0  0  0  0  0  0  0
  1 21  1  0  0  0  0
  2  1  2  0  0  0  0
  3  4  2  0  0  0  0
  3  1  1  0  0  0  0
  4  9  1  0  0  0  0
  5  4  1  0  0  0  0
  6  7  2  0  0  0  0
  6  5  1  0  0  0  0
  7  3  1  0  0  0  0
  8  6  1  0  0  0  0
 10  8  1  0  0  0  0
 11  8  1  0  0  0  0
 13 14  1  0  0  0  0
 13 12  1  0  0  0  0
 14  5  1  6  0  0  0
 15 14  1  0  0  0  0
 16 15  1  0  0  0  0
 17 18  1  0  0  0  0
 17 15  1  0  0  0  0
 18 19  1  0  0  0  0
 19 13  1  0  0  0  0
 20 25  1  0  0  0  0
 21 20  2  0  0  0  0
 21 22  1  0  0  0  0
 22 23  2  0  0  0  0
 23 24  1  0  0  0  0
 24 27  1  0  0  0  0
 25 24  2  0  0  0  0
 26 20  1  0  0  0  0
 28 22  1  0  0  0  0
 29 28  2  0  0  0  0
 29 33  1  0  0  0  0
 30 29  1  0  0  0  0
 31 30  2  0  0  0  0
 31 32  1  0  0  0  0
 32 28  1  0  0  0  0
 34 30  1  0  0  0  0
 35 31  1  0  0  0  0
M  END
>  <minimizedAffinity>
-4.58844852

>  <minimizedRMSD>
1.13362658

$$$$
