
     RDKit          3D

 51 54  0  0  0  0  0  0  0  0999 V2000
   47.7226   31.0228   45.9736 C   0  0  0  0  0  0  0  0  0  0  0  0
   46.9753   32.0431   45.4600 C   0  0  0  0  0  0  0  0  0  0  0  0
   45.9321   32.5084   46.2177 C   0  0  0  0  0  0  0  0  0  0  0  0
   45.6054   32.0002   47.4606 C   0  0  0  0  0  0  0  0  0  0  0  0
   44.6754   32.2331   48.4167 N   0  0  0  0  0  0  0  0  0  0  0  0
   44.8739   31.3720   49.4610 C   0  0  0  0  0  0  0  0  0  0  0  0
   45.9348   30.6102   49.1339 N   0  0  0  0  0  0  0  0  0  0  0  0
   46.3864   30.9818   47.9240 C   0  0  0  0  0  0  0  0  0  0  0  0
   47.4461   30.4658   47.2207 C   0  0  0  0  0  0  0  0  0  0  0  0
   47.2925   34.4110   42.6934 C   0  0  0  0  0  0  0  0  0  0  0  0
   47.8831   33.6261   41.6770 C   0  0  0  0  0  0  0  0  0  0  0  0
   48.1508   32.2867   41.9993 C   0  0  0  0  0  0  0  0  0  0  0  0
   47.8514   31.7915   43.2253 N   0  0  0  0  0  0  0  0  0  0  0  0
   47.2832   32.6117   44.1515 C   0  0  0  0  0  0  0  0  0  0  0  0
   47.0017   33.9002   43.9077 N   0  0  0  0  0  0  0  0  0  0  0  0
   48.1703   34.2615   40.3749 C   0  0  0  0  0  0  0  0  0  0  0  0
   48.7278   35.4808   40.6894 F   0  0  0  0  0  0  0  0  0  0  0  0
   47.0013   34.4542   39.7211 F   0  0  0  0  0  0  0  0  0  0  0  0
   49.0518   33.4398   39.6750 F   0  0  0  0  0  0  0  0  0  0  0  0
   48.2045   29.4289   47.7449 O   0  0  0  0  0  0  0  0  0  0  0  0
   49.8259   28.2140   49.3685 O   0  0  0  0  0  0  0  0  0  0  0  0
   49.4342   29.5978   48.8793 P   0  0  2  0  0  0  0  0  0  0  0  0
   48.7985   30.4224   50.2197 O   0  0  0  0  0  0  0  0  0  0  0  0
   50.7809   30.4011   48.2994 O   0  0  0  0  0  0  0  0  0  0  0  0
   51.8072   30.5588   49.1988 C   0  0  0  0  0  0  0  0  0  0  0  0
   51.9091   32.0471   49.5126 C   0  0  0  0  0  0  0  0  0  0  0  0
   48.5649   30.5947   45.4426 H   0  0  0  0  0  0  0  0  0  0  0  0
   45.3075   33.3237   45.8470 H   0  0  0  0  0  0  0  0  0  0  0  0
   43.9509   32.9836   48.2860 H   0  0  0  0  0  0  0  0  0  0  0  0
   44.2479   31.3777   50.3370 H   0  0  0  0  0  0  0  0  0  0  0  0
   47.0545   35.4455   42.5310 H   0  0  0  0  0  0  0  0  0  0  0  0
   48.6035   31.6851   41.2204 H   0  0  0  0  0  0  0  0  0  0  0  0
   48.4332   29.8297   50.8975 H   0  0  0  0  0  0  0  0  0  0  0  0
   51.5271   30.0673   50.1668 H   0  0  0  0  0  0  0  0  0  0  0  0
   52.7188   30.1209   48.7976 H   0  0  0  0  0  0  0  0  0  0  0  0
   52.0711   32.6248   48.5650 H   0  0  0  0  0  0  0  0  0  0  0  0
   50.9702   32.3644   49.9646 H   0  0  0  0  0  0  0  0  0  0  0  0
   52.9702   32.3135   50.4577 N   0  0  0  0  0  0  0  0  0  0  0  0
   54.0662   32.9225   49.6851 C   0  0  1  0  0  0  0  0  0  0  0  0
   54.3258   32.2176   48.8696 H   0  0  0  0  0  0  0  0  0  0  0  0
   55.2461   33.0123   50.6284 C   0  0  1  0  0  0  0  0  0  0  0  0
   56.0247   32.2587   50.4007 H   0  0  0  0  0  0  0  0  0  0  0  0
   54.8782   32.7872   51.9583 O   0  0  0  0  0  0  0  0  0  0  0  0
   54.4191   31.4989   52.1604 C   0  0  0  0  0  0  0  0  0  0  0  0
   53.5527   31.0949   50.9858 C   0  0  0  0  0  0  0  0  0  0  0  0
   53.7603   33.9166   49.3033 H   0  0  0  0  0  0  0  0  0  0  0  0
   55.6863   34.0247   50.6087 H   0  0  0  0  0  0  0  0  0  0  0  0
   55.2403   30.7751   52.3387 H   0  0  0  0  0  0  0  0  0  0  0  0
   53.7590   31.5071   53.0517 H   0  0  0  0  0  0  0  0  0  0  0  0
   54.1986   30.6284   50.2123 H   0  0  0  0  0  0  0  0  0  0  0  0
   52.8459   30.3532   51.3407 H   0  0  0  0  0  0  0  0  0  0  0  0
  1  9  2  0
  2  1  1  0
  2  3  2  0
  3  4  1  0
  4  8  2  0
  4  5  1  0
  5  6  1  0
  7  6  2  0
  8  7  1  0
  9 20  1  0
  9  8  1  0
 10 15  2  0
 11 12  2  0
 11 10  1  0
 12 13  1  0
 13 14  2  0
 14  2  1  0
 15 14  1  0
 16 17  1  0
 16 11  1  0
 18 16  1  0
 19 16  1  0
 22 20  1  6
 22 21  2  0
 22 23  1  0
 24 22  1  0
 24 25  1  0
 25 26  1  0
  1 27  1  0
  3 28  1  0
  5 29  1  0
  6 30  1  0
 10 31  1  0
 12 32  1  0
 23 33  1  0
 25 34  1  0
 25 35  1  0
 26 36  1  0
 26 37  1  0
 38 39  1  0
 39 40  1  6
 39 41  1  0
 41 42  1  6
 41 43  1  0
 43 44  1  0
 44 45  1  0
 45 38  1  0
 39 46  1  0
 41 47  1  0
 44 48  1  0
 44 49  1  0
 45 50  1  0
 45 51  1  0
 26 38  1  0
M  ISO  8  27  14  28  14  29   9  30  14  31  14  32  14  33   3  34   8
M  ISO  5  35   8  36   8  37   8  40   8  42  15
M  END
>  <DihAtoms>  (1) 
24,25,37,38

>  <DihDeg>  (1) 
-179.17759677688122

$$$$
