REMARK  Name = 
REMARK  9 active torsions:
REMARK  status: ('A' for Active; 'I' for Inactive)
REMARK    1  A    between atoms: C_2  and  C_14
REMARK    2  A    between atoms: C_9  and  O_20
REMARK    3  A    between atoms: C_11  and  C_16
REMARK    4  A    between atoms: O_20  and  P_22
REMARK    5  A    between atoms: P_22  and  O_23
REMARK    6  A    between atoms: P_22  and  O_24
REMARK    7  A    between atoms: O_24  and  C_25
REMARK    8  A    between atoms: C_25  and  C_26
REMARK    9  A    between atoms: C_26  and  N_38
REMARK                            x       y       z     vdW  Elec       q    Type
REMARK                         _______ _______ _______ _____ _____    ______ ____
ROOT
ATOM      1  C   UNL     1      47.723  31.023  45.974  0.00  0.00    +0.000 A 
ATOM      2  C   UNL     1      46.975  32.043  45.460  0.00  0.00    +0.000 A 
ATOM      3  C   UNL     1      45.932  32.508  46.218  0.00  0.00    +0.000 A 
ATOM      4  C   UNL     1      45.605  32.000  47.461  0.00  0.00    +0.000 A 
ATOM      5  N   UNL     1      44.675  32.233  48.417  0.00  0.00    +0.000 N 
ATOM      6  C   UNL     1      44.874  31.372  49.461  0.00  0.00    +0.000 A 
ATOM      7  N   UNL     1      45.935  30.610  49.134  0.00  0.00    +0.000 NA
ATOM      8  C   UNL     1      46.386  30.982  47.924  0.00  0.00    +0.000 A 
ATOM      9  C   UNL     1      47.446  30.466  47.221  0.00  0.00    +0.000 A 
ATOM     10  H   UNL     1      48.565  30.595  45.443  0.00  0.00    +0.000 HD
ATOM     11  H   UNL     1      45.307  33.324  45.847  0.00  0.00    +0.000 HD
ATOM     12  H   UNL     1      43.951  32.984  48.286  0.00  0.00    +0.000 HD
ATOM     13  H   UNL     1      44.248  31.378  50.337  0.00  0.00    +0.000 HD
ENDROOT
BRANCH   2  18
ATOM     14  C   UNL     1      47.292  34.411  42.693  0.00  0.00    +0.000 A 
ATOM     15  C   UNL     1      47.883  33.626  41.677  0.00  0.00    +0.000 A 
ATOM     16  C   UNL     1      48.151  32.287  41.999  0.00  0.00    +0.000 A 
ATOM     17  N   UNL     1      47.851  31.791  43.225  0.00  0.00    +0.000 NA
ATOM     18  C   UNL     1      47.283  32.612  44.151  0.00  0.00    +0.000 A 
ATOM     19  N   UNL     1      47.002  33.900  43.908  0.00  0.00    +0.000 NA
ATOM     20  H   UNL     1      47.054  35.446  42.531  0.00  0.00    +0.000 HD
ATOM     21  H   UNL     1      48.603  31.685  41.220  0.00  0.00    +0.000 HD
BRANCH  15  22
ATOM     22  C   UNL     1      48.170  34.261  40.375  0.00  0.00    +0.000 C 
ATOM     23  F   UNL     1      48.728  35.481  40.689  0.00  0.00    +0.000 F 
ATOM     24  F   UNL     1      47.001  34.454  39.721  0.00  0.00    +0.000 F 
ATOM     25  F   UNL     1      49.052  33.440  39.675  0.00  0.00    +0.000 F 
ENDBRANCH  15  22
ENDBRANCH   2  18
BRANCH   9  26
ATOM     26  O   UNL     1      48.205  29.429  47.745  0.00  0.00    +0.000 OA
BRANCH  26  28
ATOM     27  O   UNL     1      49.826  28.214  49.368  0.00  0.00    +0.000 OA
ATOM     28  P   UNL     1      49.434  29.598  48.879  0.00  0.00    +0.000 P 
BRANCH  28  29
ATOM     29  O   UNL     1      48.798  30.422  50.220  0.00  0.00    +0.000 OA
ATOM     30  H   UNL     1      48.433  29.830  50.898  0.00  0.00    +0.000 HD
ENDBRANCH  28  29
BRANCH  28  31
ATOM     31  O   UNL     1      50.781  30.401  48.299  0.00  0.00    +0.000 OA
BRANCH  31  32
ATOM     32  C   UNL     1      51.807  30.559  49.199  0.00  0.00    +0.000 C 
ATOM     33  H   UNL     1      51.527  30.067  50.167  0.00  0.00    +0.000 HD
ATOM     34  H   UNL     1      52.719  30.121  48.798  0.00  0.00    +0.000 HD
BRANCH  32  35
ATOM     35  C   UNL     1      51.909  32.047  49.513  0.00  0.00    +0.000 C 
ATOM     36  H   UNL     1      52.071  32.625  48.565  0.00  0.00    +0.000 HD
ATOM     37  H   UNL     1      50.970  32.364  49.965  0.00  0.00    +0.000 HD
BRANCH  35  38
ATOM     38  N   UNL     1      52.970  32.313  50.458  0.00  0.00    +0.000 NA
ATOM     39  C   UNL     1      54.066  32.922  49.685  0.00  0.00    +0.000 C 
ATOM     40  H   UNL     1      54.326  32.218  48.870  0.00  0.00    +0.000 HD
ATOM     41  C   UNL     1      55.246  33.012  50.628  0.00  0.00    +0.000 C 
ATOM     42  H   UNL     1      56.025  32.259  50.401  0.00  0.00    +0.000 HD
ATOM     43  O   UNL     1      54.878  32.787  51.958  0.00  0.00    +0.000 OA
ATOM     44  C   UNL     1      54.419  31.499  52.160  0.00  0.00    +0.000 C 
ATOM     45  C   UNL     1      53.553  31.095  50.986  0.00  0.00    +0.000 C 
ENDBRANCH  35  38
ENDBRANCH  32  35
ENDBRANCH  31  32
ENDBRANCH  28  31
ENDBRANCH  26  28
ENDBRANCH   9  26
TORSDOF 9
