
 OpenBabel03252503153D

 35 38  0  0  1  0  0  0  0  0999 V2000
   46.0590   34.6790   41.7030 C   0  0  0  0  0  0  0  0  0  0  0  0
   47.2750   34.9940   41.4940 O   0  0  0  0  0  0  0  0  0  0  0  0
   45.1250   34.1710   40.6460 C   0  0  0  0  0  0  0  0  0  0  0  0
   43.7680   34.4450   40.5710 C   0  0  0  0  0  0  0  0  0  0  0  0
   43.3320   33.7920   39.4770 N   0  0  0  0  0  0  0  0  0  0  0  0
   44.3780   33.1510   38.9130 C   0  0  0  0  0  0  0  0  0  0  0  0
   45.4970   33.3860   39.6400 N   0  0  0  0  0  0  0  0  0  0  0  0
   44.4550   32.3270   37.7490 N   0  0  0  0  0  0  0  0  0  0  0  0
   43.1780   35.0410   41.2270 H   0  0  0  0  0  0  0  0  0  0  0  0
   43.7200   31.5660   37.7480 H   0  0  0  0  0  0  0  0  0  0  0  0
   45.1410   32.4300   36.9650 H   0  0  0  0  0  0  0  0  0  0  0  0
   42.1170   35.2600   37.5680 H   0  0  0  0  0  0  0  0  0  0  0  0
   41.5380   35.0360   38.4250 N   0  0  0  0  0  0  0  0  0  0  0  0
   42.0050   33.7440   38.9470 C   0  0  2  0  0  3  0  0  0  0  0  0
   40.9810   33.2160   39.9030 C   0  0  0  0  0  3  0  0  0  0  0  0
   41.4410   32.8290   40.8260 H   0  0  0  0  0  0  0  0  0  0  0  0
   40.0640   34.2090   40.2380 O   0  0  0  0  0  0  0  0  0  0  0  0
   39.3150   34.6020   39.1310 C   0  0  0  0  0  2  0  0  0  0  0  0
   40.2010   34.7170   37.8950 C   0  0  0  0  0  2  0  0  0  0  0  0
   44.9860   36.0370   43.4420 C   0  0  0  0  0  0  0  0  0  0  0  0
   45.6120   34.8400   43.0410 C   0  0  0  0  0  0  0  0  0  0  0  0
   45.7310   33.8990   44.0380 C   0  0  0  0  0  0  0  0  0  0  0  0
   45.2900   34.0980   45.2940 N   0  0  0  0  0  0  0  0  0  0  0  0
   44.6940   35.2760   45.6210 C   0  0  0  0  0  0  0  0  0  0  0  0
   44.5480   36.2310   44.6970 N   0  0  0  0  0  0  0  0  0  0  0  0
   44.8570   36.8290   42.7070 H   0  0  0  0  0  0  0  0  0  0  0  0
   44.3630   35.3700   46.6510 H   0  0  0  0  0  0  0  0  0  0  0  0
   46.3490   32.6640   43.7250 C   0  0  0  0  0  0  0  0  0  0  0  0
   47.6270   32.1910   43.7480 C   0  0  0  0  0  0  0  0  0  0  0  0
   47.9130   30.9580   43.3920 C   0  0  0  0  0  0  0  0  0  0  0  0
   46.9010   30.1530   42.9980 C   0  0  0  0  0  0  0  0  0  0  0  0
   45.4500   31.2420   43.1500 S   0  0  0  0  0  0  0  0  0  0  0  0
   48.3780   32.9340   44.0860 H   0  0  0  0  0  0  0  0  0  0  0  0
   48.8970   30.5080   43.3810 H   0  0  0  0  0  0  0  0  0  0  0  0
   46.8350   29.1240   42.6600 H   0  0  0  0  0  0  0  0  0  0  0  0
  1 21  1  0  0  0  0
  2  1  2  0  0  0  0
  3  1  1  0  0  0  0
  4  3  2  0  0  0  0
  4  9  1  0  0  0  0
  5  4  1  0  0  0  0
  6  5  1  0  0  0  0
  6  7  2  0  0  0  0
  7  3  1  0  0  0  0
  8  6  1  0  0  0  0
 10  8  1  0  0  0  0
 11  8  1  0  0  0  0
 12 13  1  0  0  0  0
 13 14  1  0  0  0  0
 14  5  1  1  0  0  0
 14 15  1  0  0  0  0
 15 17  1  0  0  0  0
 15 16  1  0  0  0  0
 18 17  1  0  0  0  0
 19 13  1  0  0  0  0
 19 18  1  0  0  0  0
 20 25  1  0  0  0  0
 21 20  2  0  0  0  0
 21 22  1  0  0  0  0
 22 23  2  0  0  0  0
 23 24  1  0  0  0  0
 24 27  1  0  0  0  0
 25 24  2  0  0  0  0
 26 20  1  0  0  0  0
 28 29  2  0  0  0  0
 28 22  1  0  0  0  0
 29 33  1  0  0  0  0
 30 29  1  0  0  0  0
 31 32  1  0  0  0  0
 31 30  2  0  0  0  0
 32 28  1  0  0  0  0
 34 30  1  0  0  0  0
 35 31  1  0  0  0  0
M  END
>  <minimizedAffinity>
-5.55515528

>  <minimizedRMSD>
0.88950491

$$$$
