
     RDKit          3D

 24 25  0  0  0  0  0  0  0  0999 V2000
   44.5129   35.9764   44.5392 C   0  0  0  0  0  0  0  0  0  0  0  0
   45.1874   35.9177   43.2899 C   0  0  0  0  0  0  0  0  0  0  0  0
   46.1181   34.8752   43.1007 C   0  0  0  0  0  0  0  0  0  0  0  0
   46.2992   34.0121   44.1197 N   0  0  0  0  0  0  0  0  0  0  0  0
   45.6439   34.0921   45.2967 C   0  0  0  0  0  0  0  0  0  0  0  0
   44.7554   35.0696   45.5048 N   0  0  0  0  0  0  0  0  0  0  0  0
   46.0970   32.8159   46.4419 S   0  0  0  0  0  0  0  0  0  0  0  0
   43.7917   36.7618   44.7221 H   0  0  0  0  0  0  0  0  0  0  0  0
   45.0002   36.6367   42.5179 H   0  0  0  0  0  0  0  0  0  0  0  0
   46.6338   34.8228   42.1569 H   0  0  0  0  0  0  0  0  0  0  0  0
   48.3549   34.5342   46.1672 H   0  0  0  0  0  0  0  0  0  0  0  0
   48.0933   34.4374   47.1550 N   0  0  0  0  0  0  0  0  0  0  0  0
   47.4442   33.1991   47.5144 C   0  0  2  0  0  0  0  0  0  0  0  0
   48.5652   32.1781   47.5683 C   0  0  2  0  0  0  0  0  0  0  0  0
   49.2878   32.3027   46.7194 H   0  0  0  0  0  0  0  0  0  0  0  0
   49.2766   32.4890   48.7172 O   0  0  0  0  0  0  0  0  0  0  0  0
   49.8139   33.7329   48.7780 C   0  0  0  0  0  0  0  0  0  0  0  0
   49.1051   34.8430   48.0720 C   0  0  0  0  0  0  0  0  0  0  0  0
   47.0656   33.3367   48.5450 H   0  0  0  0  0  0  0  0  0  0  0  0
   48.2087   31.1433   47.6503 H   0  0  0  0  0  0  0  0  0  0  0  0
   49.8224   34.0254   49.8711 H   0  0  0  0  0  0  0  0  0  0  0  0
   50.9021   33.6502   48.5143 H   0  0  0  0  0  0  0  0  0  0  0  0
   48.6243   35.5809   48.7640 H   0  0  0  0  0  0  0  0  0  0  0  0
   49.8776   35.4207   47.5151 H   0  0  0  0  0  0  0  0  0  0  0  0
  1  6  2  0
  2  1  1  0
  3  2  2  0
  3  4  1  0
  4  5  2  0
  5  6  1  0
  5  7  1  0
  1  8  1  0
  2  9  1  0
  3 10  1  0
 11 12  1  0
 12 13  1  0
 13 14  1  0
 14 15  1  6
 14 16  1  0
 16 17  1  0
 17 18  1  0
 18 12  1  0
 13 19  1  1
 14 20  1  0
 17 21  1  0
 17 22  1  0
 18 23  1  0
 18 24  1  0
  7 13  1  0
M  ISO  5   8  14   9  14  10  14  11   5  15  15
M  END
>  <DihAtoms>  (1) 
4,6,12,11

>  <DihDeg>  (1) 
66.693903542516

$$$$
