REMARK  Name = 
REMARK  2 active torsions:
REMARK  status: ('A' for Active; 'I' for Inactive)
REMARK    1  A    between atoms: C_5  and  S_7
REMARK    2  A    between atoms: S_7  and  C_13
REMARK                            x       y       z     vdW  Elec       q    Type
REMARK                         _______ _______ _______ _____ _____    ______ ____
ROOT
ATOM      1  C   UNL     1      44.513  35.976  44.539  0.00  0.00    +0.000 A 
ATOM      2  C   UNL     1      45.187  35.918  43.290  0.00  0.00    +0.000 A 
ATOM      3  C   UNL     1      46.118  34.875  43.101  0.00  0.00    +0.000 A 
ATOM      4  N   UNL     1      46.299  34.012  44.120  0.00  0.00    +0.000 NA
ATOM      5  C   UNL     1      45.644  34.092  45.297  0.00  0.00    +0.000 A 
ATOM      6  N   UNL     1      44.755  35.070  45.505  0.00  0.00    +0.000 NA
ATOM      7  H   UNL     1      43.792  36.762  44.722  0.00  0.00    +0.000 HD
ATOM      8  H   UNL     1      45.000  36.637  42.518  0.00  0.00    +0.000 HD
ATOM      9  H   UNL     1      46.634  34.823  42.157  0.00  0.00    +0.000 HD
ENDROOT
BRANCH   5  10
ATOM     10  S   UNL     1      46.097  32.816  46.442  0.00  0.00    +0.000 S 
BRANCH  10  13
ATOM     11  H   UNL     1      47.698  35.151  46.772  0.00  0.00    +0.000 HD
ATOM     12  N   UNL     1      47.647  34.622  47.650  0.00  0.00    +0.000 NA
ATOM     13  C   UNL     1      47.444  33.199  47.514  0.00  0.00    +0.000 C 
ATOM     14  C   UNL     1      48.800  32.654  47.104  0.00  0.00    +0.000 C 
ATOM     15  H   UNL     1      49.302  33.308  46.343  0.00  0.00    +0.000 HD
ATOM     16  O   UNL     1      49.580  32.739  48.247  0.00  0.00    +0.000 OA
ATOM     17  C   UNL     1      49.747  33.978  48.775  0.00  0.00    +0.000 C 
ATOM     18  C   UNL     1      48.645  34.972  48.605  0.00  0.00    +0.000 C 
ENDBRANCH  10  13
ENDBRANCH   5  10
TORSDOF 2
