
 OpenBabel03242521103D

 18 19  0  0  1  0  0  0  0  0999 V2000
   36.9470   26.8860   41.9310 C   0  0  0  0  0  0  0  0  0  0  0  0
   37.7670   27.0350   43.0810 C   0  0  0  0  0  0  0  0  0  0  0  0
   38.1030   28.3470   43.4750 C   0  0  0  0  0  0  0  0  0  0  0  0
   37.6230   29.3620   42.7300 N   0  0  0  0  0  0  0  0  0  0  0  0
   36.8450   29.1900   41.6400 C   0  0  0  0  0  0  0  0  0  0  0  0
   36.5090   27.9580   41.2430 N   0  0  0  0  0  0  0  0  0  0  0  0
   36.6680   25.8960   41.5970 H   0  0  0  0  0  0  0  0  0  0  0  0
   38.1190   26.1860   43.6320 H   0  0  0  0  0  0  0  0  0  0  0  0
   38.7250   28.4700   44.3460 H   0  0  0  0  0  0  0  0  0  0  0  0
   36.3720   30.7150   40.8670 S   0  0  0  0  0  0  0  0  0  0  0  0
   36.5060   33.1780   39.4390 H   0  0  0  0  0  0  0  0  0  0  0  0
   37.1850   33.1700   40.2090 N   0  0  0  0  0  0  0  0  0  0  0  0
   37.6770   31.8690   40.5990 C   0  0  2  0  0  3  0  0  0  0  0  0
   38.6840   31.5010   39.5250 C   0  0  0  0  0  3  0  0  0  0  0  0
   38.3190   31.7700   38.4980 H   0  0  0  0  0  0  0  0  0  0  0  0
   39.7770   32.3200   39.7630 O   0  0  0  0  0  0  0  0  0  0  0  0
   39.5540   33.6570   39.7140 C   0  0  0  0  0  3  0  0  0  0  0  0
   38.2030   34.1610   40.1050 C   0  0  0  0  0  3  0  0  0  0  0  0
  1  2  1  0  0  0  0
  2  3  2  0  0  0  0
  2  8  1  0  0  0  0
  3  9  1  0  0  0  0
  4  3  1  0  0  0  0
  5  4  2  0  0  0  0
  6  5  1  0  0  0  0
  6  1  2  0  0  0  0
  7  1  1  0  0  0  0
 10  5  1  0  0  0  0
 11 12  1  0  0  0  0
 12 13  1  0  0  0  0
 13 10  1  6  0  0  0
 14 16  1  0  0  0  0
 14 13  1  0  0  0  0
 15 14  1  0  0  0  0
 17 16  1  0  0  0  0
 17 18  2  0  0  0  0
 18 12  1  0  0  0  0
M  END
>  <minimizedAffinity>
-4.31796837

$$$$

 OpenBabel03242521103D

 18 19  0  0  1  0  0  0  0  0999 V2000
   39.8070   32.4590   41.0410 C   0  0  0  0  0  0  0  0  0  0  0  0
   39.5410   33.7190   40.4420 C   0  0  0  0  0  0  0  0  0  0  0  0
   38.2400   33.9420   39.9460 C   0  0  0  0  0  0  0  0  0  0  0  0
   37.3460   32.9420   40.0770 N   0  0  0  0  0  0  0  0  0  0  0  0
   37.6270   31.7530   40.6500 C   0  0  0  0  0  0  0  0  0  0  0  0
   38.8530   31.5130   41.1300 N   0  0  0  0  0  0  0  0  0  0  0  0
   40.7940   32.2500   41.4320 H   0  0  0  0  0  0  0  0  0  0  0  0
   40.2970   34.4750   40.3670 H   0  0  0  0  0  0  0  0  0  0  0  0
   38.0290   34.8950   39.4900 H   0  0  0  0  0  0  0  0  0  0  0  0
   36.2480   30.6390   40.6730 S   0  0  0  0  0  0  0  0  0  0  0  0
   37.9880   29.9420   42.8200 H   0  0  0  0  0  0  0  0  0  0  0  0
   37.1360   29.3690   42.8450 N   0  0  0  0  0  0  0  0  0  0  0  0
   36.4940   29.1420   41.5720 C   0  0  2  0  0  3  0  0  0  0  0  0
   37.3470   28.0880   40.8930 C   0  0  0  0  0  3  0  0  0  0  0  0
   38.4430   28.2800   41.0360 H   0  0  0  0  0  0  0  0  0  0  0  0
   37.0780   26.9130   41.5790 O   0  0  0  0  0  0  0  0  0  0  0  0
   37.3540   26.9110   42.9070 C   0  0  0  0  0  3  0  0  0  0  0  0
   37.2380   28.2000   43.6530 C   0  0  0  0  0  3  0  0  0  0  0  0
  1  6  1  0  0  0  0
  1  7  1  0  0  0  0
  2  1  2  0  0  0  0
  3  4  2  0  0  0  0
  3  2  1  0  0  0  0
  4  5  1  0  0  0  0
  5 10  1  0  0  0  0
  5  6  2  0  0  0  0
  8  2  1  0  0  0  0
  9  3  1  0  0  0  0
 11 12  1  0  0  0  0
 12 18  1  0  0  0  0
 13 10  1  6  0  0  0
 13 12  1  0  0  0  0
 14 15  1  0  0  0  0
 14 13  1  0  0  0  0
 14 16  1  0  0  0  0
 16 17  1  0  0  0  0
 17 18  2  0  0  0  0
M  END
>  <minimizedAffinity>
-4.03900385

$$$$

 OpenBabel03242521103D

 18 19  0  0  1  0  0  0  0  0999 V2000
   40.1590   25.6110   43.6440 C   0  0  0  0  0  0  0  0  0  0  0  0
   39.8570   24.4420   42.8960 C   0  0  0  0  0  0  0  0  0  0  0  0
   38.6350   24.4190   42.1900 C   0  0  0  0  0  0  0  0  0  0  0  0
   37.8460   25.5070   42.2810 N   0  0  0  0  0  0  0  0  0  0  0  0
   38.1590   26.6050   43.0010 C   0  0  0  0  0  0  0  0  0  0  0  0
   39.3110   26.6560   43.6790 N   0  0  0  0  0  0  0  0  0  0  0  0
   41.0870   25.6660   44.1990 H   0  0  0  0  0  0  0  0  0  0  0  0
   40.5270   23.6070   42.8650 H   0  0  0  0  0  0  0  0  0  0  0  0
   38.3980   23.5370   41.6200 H   0  0  0  0  0  0  0  0  0  0  0  0
   36.9200   27.8710   42.9280 S   0  0  0  0  0  0  0  0  0  0  0  0
   35.3410   30.0930   42.0940 H   0  0  0  0  0  0  0  0  0  0  0  0
   36.2810   30.1460   41.6860 N   0  0  0  0  0  0  0  0  0  0  0  0
   36.9500   28.8820   41.4830 C   0  0  2  0  0  3  0  0  0  0  0  0
   36.2980   28.2970   40.2450 C   0  0  0  0  0  3  0  0  0  0  0  0
   35.1850   28.4430   40.2470 H   0  0  0  0  0  0  0  0  0  0  0  0
   36.7760   29.0630   39.1920 O   0  0  0  0  0  0  0  0  0  0  0  0
   36.5090   30.3910   39.2410 C   0  0  0  0  0  3  0  0  0  0  0  0
   36.3940   31.0390   40.5820 C   0  0  0  0  0  3  0  0  0  0  0  0
  1  6  1  0  0  0  0
  1  7  1  0  0  0  0
  2  1  2  0  0  0  0
  3  4  2  0  0  0  0
  3  2  1  0  0  0  0
  4  5  1  0  0  0  0
  5  6  2  0  0  0  0
  8  2  1  0  0  0  0
  9  3  1  0  0  0  0
 10  5  1  0  0  0  0
 12 11  1  0  0  0  0
 13 12  1  0  0  0  0
 13 10  1  1  0  0  0
 14 15  1  0  0  0  0
 14 13  1  0  0  0  0
 16 17  1  0  0  0  0
 16 14  1  0  0  0  0
 17 18  2  0  0  0  0
 18 12  1  0  0  0  0
M  END
>  <minimizedAffinity>
-3.89965343

$$$$

 OpenBabel03242521103D

 18 19  0  0  1  0  0  0  0  0999 V2000
   37.3060   30.6320   37.1960 C   0  0  0  0  0  0  0  0  0  0  0  0
   37.7150   31.8840   37.7270 C   0  0  0  0  0  0  0  0  0  0  0  0
   37.3370   32.1840   39.0520 C   0  0  0  0  0  0  0  0  0  0  0  0
   36.6140   31.2600   39.7160 N   0  0  0  0  0  0  0  0  0  0  0  0
   36.2390   30.0770   39.1850 C   0  0  0  0  0  0  0  0  0  0  0  0
   36.5840   29.7650   37.9300 N   0  0  0  0  0  0  0  0  0  0  0  0
   37.5770   30.3660   36.1820 H   0  0  0  0  0  0  0  0  0  0  0  0
   38.2890   32.5790   37.1470 H   0  0  0  0  0  0  0  0  0  0  0  0
   37.6420   33.1310   39.4640 H   0  0  0  0  0  0  0  0  0  0  0  0
   35.2930   29.0740   40.3010 S   0  0  0  0  0  0  0  0  0  0  0  0
   37.6100   29.9290   41.7250 H   0  0  0  0  0  0  0  0  0  0  0  0
   37.0110   29.3500   42.3250 N   0  0  0  0  0  0  0  0  0  0  0  0
   36.1960   28.3720   41.6430 C   0  0  2  0  0  3  0  0  0  0  0  0
   37.1550   27.2520   41.2890 C   0  0  0  0  0  3  0  0  0  0  0  0
   38.1390   27.6440   40.9160 H   0  0  0  0  0  0  0  0  0  0  0  0
   37.4340   26.6240   42.4940 O   0  0  0  0  0  0  0  0  0  0  0  0
   37.9950   27.3920   43.4610 C   0  0  0  0  0  3  0  0  0  0  0  0
   37.6560   28.8470   43.4910 C   0  0  0  0  0  3  0  0  0  0  0  0
  1  2  2  0  0  0  0
  1  6  1  0  0  0  0
  2  3  1  0  0  0  0
  3  9  1  0  0  0  0
  3  4  2  0  0  0  0
  5  4  1  0  0  0  0
  5 10  1  0  0  0  0
  6  5  2  0  0  0  0
  7  1  1  0  0  0  0
  8  2  1  0  0  0  0
 11 12  1  0  0  0  0
 12 18  1  0  0  0  0
 13 10  1  6  0  0  0
 13 12  1  0  0  0  0
 14 13  1  0  0  0  0
 14 16  1  0  0  0  0
 15 14  1  0  0  0  0
 16 17  1  0  0  0  0
 17 18  2  0  0  0  0
M  END
>  <minimizedAffinity>
-3.87473702

$$$$

 OpenBabel03242521103D

 18 19  0  0  1  0  0  0  0  0999 V2000
   39.2950   24.7040   42.3700 C   0  0  0  0  0  0  0  0  0  0  0  0
   38.1650   24.0870   41.7700 C   0  0  0  0  0  0  0  0  0  0  0  0
   36.9530   24.8080   41.7710 C   0  0  0  0  0  0  0  0  0  0  0  0
   36.9570   26.0290   42.3430 N   0  0  0  0  0  0  0  0  0  0  0  0
   38.0470   26.5900   42.9060 C   0  0  0  0  0  0  0  0  0  0  0  0
   39.2110   25.9300   42.9190 N   0  0  0  0  0  0  0  0  0  0  0  0
   40.2430   24.1820   42.3890 H   0  0  0  0  0  0  0  0  0  0  0  0
   38.2260   23.1110   41.3320 H   0  0  0  0  0  0  0  0  0  0  0  0
   36.0900   24.3480   41.3180 H   0  0  0  0  0  0  0  0  0  0  0  0
   37.7400   28.2020   43.5780 S   0  0  0  0  0  0  0  0  0  0  0  0
   36.3500   28.0710   41.0930 H   0  0  0  0  0  0  0  0  0  0  0  0
   36.2020   28.9830   41.5400 N   0  0  0  0  0  0  0  0  0  0  0  0
   37.2630   29.4350   42.4100 C   0  0  2  0  0  3  0  0  0  0  0  0
   38.3510   29.9190   41.4700 C   0  0  0  0  0  3  0  0  0  0  0  0
   38.4850   29.2310   40.5930 H   0  0  0  0  0  0  0  0  0  0  0  0
   37.8660   31.1070   40.9440 O   0  0  0  0  0  0  0  0  0  0  0  0
   36.6970   31.0340   40.2600 C   0  0  0  0  0  3  0  0  0  0  0  0
   35.7060   29.9930   40.6680 C   0  0  0  0  0  3  0  0  0  0  0  0
  1  7  1  0  0  0  0
  1  6  1  0  0  0  0
  2  3  1  0  0  0  0
  2  1  2  0  0  0  0
  3  4  2  0  0  0  0
  4  5  1  0  0  0  0
  5  6  2  0  0  0  0
  5 10  1  0  0  0  0
  8  2  1  0  0  0  0
  9  3  1  0  0  0  0
 11 12  1  0  0  0  0
 12 13  1  0  0  0  0
 13 10  1  6  0  0  0
 14 13  1  0  0  0  0
 15 14  1  0  0  0  0
 16 14  1  0  0  0  0
 17 18  2  0  0  0  0
 17 16  1  0  0  0  0
 18 12  1  0  0  0  0
M  END
>  <minimizedAffinity>
-3.76630783

$$$$

 OpenBabel03242521103D

 18 19  0  0  1  0  0  0  0  0999 V2000
   39.0710   27.1360   43.5290 C   0  0  0  0  0  0  0  0  0  0  0  0
   37.6990   27.4740   43.6700 C   0  0  0  0  0  0  0  0  0  0  0  0
   37.2970   28.7570   43.2450 C   0  0  0  0  0  0  0  0  0  0  0  0
   38.2460   29.5680   42.7370 N   0  0  0  0  0  0  0  0  0  0  0  0
   39.5440   29.2210   42.6140 C   0  0  0  0  0  0  0  0  0  0  0  0
   39.9540   28.0100   43.0090 N   0  0  0  0  0  0  0  0  0  0  0  0
   39.4180   26.1610   43.8440 H   0  0  0  0  0  0  0  0  0  0  0  0
   36.9920   26.7830   44.0850 H   0  0  0  0  0  0  0  0  0  0  0  0
   36.2580   29.0220   43.3490 H   0  0  0  0  0  0  0  0  0  0  0  0
   40.5510   30.5000   41.9130 S   0  0  0  0  0  0  0  0  0  0  0  0
   38.6690   31.0020   39.8320 H   0  0  0  0  0  0  0  0  0  0  0  0
   38.5220   31.6490   40.6150 N   0  0  0  0  0  0  0  0  0  0  0  0
   39.6910   31.9540   41.4060 C   0  0  2  0  0  3  0  0  0  0  0  0
   40.4810   32.9380   40.5640 C   0  0  0  0  0  3  0  0  0  0  0  0
   40.4950   32.6450   39.4800 H   0  0  0  0  0  0  0  0  0  0  0  0
   39.7590   34.1210   40.6240 O   0  0  0  0  0  0  0  0  0  0  0  0
   38.4840   34.0760   40.1650 C   0  0  0  0  0  3  0  0  0  0  0  0
   37.7330   32.7910   40.2940 C   0  0  0  0  0  3  0  0  0  0  0  0
  1  2  1  0  0  0  0
  1  7  1  0  0  0  0
  2  8  1  0  0  0  0
  3  9  1  0  0  0  0
  3  2  2  0  0  0  0
  4  3  1  0  0  0  0
  5  4  2  0  0  0  0
  5  6  1  0  0  0  0
  6  1  2  0  0  0  0
 10  5  1  0  0  0  0
 11 12  1  0  0  0  0
 12 13  1  0  0  0  0
 13 10  1  6  0  0  0
 14 16  1  0  0  0  0
 14 13  1  0  0  0  0
 15 14  1  0  0  0  0
 17 18  2  0  0  0  0
 17 16  1  0  0  0  0
 18 12  1  0  0  0  0
M  END
>  <minimizedAffinity>
-3.66291165

$$$$

 OpenBabel03242521103D

 18 19  0  0  1  0  0  0  0  0999 V2000
   36.6100   29.8240   36.8610 C   0  0  0  0  0  0  0  0  0  0  0  0
   35.3800   29.1480   36.6460 C   0  0  0  0  0  0  0  0  0  0  0  0
   34.5750   28.8860   37.7750 C   0  0  0  0  0  0  0  0  0  0  0  0
   35.0350   29.2960   38.9740 N   0  0  0  0  0  0  0  0  0  0  0  0
   36.2100   29.9360   39.1480 C   0  0  0  0  0  0  0  0  0  0  0  0
   36.9940   30.1990   38.0960 N   0  0  0  0  0  0  0  0  0  0  0  0
   37.2550   30.0420   36.0200 H   0  0  0  0  0  0  0  0  0  0  0  0
   35.0700   28.8460   35.6660 H   0  0  0  0  0  0  0  0  0  0  0  0
   33.6400   28.3740   37.6220 H   0  0  0  0  0  0  0  0  0  0  0  0
   36.5430   30.3460   40.8410 S   0  0  0  0  0  0  0  0  0  0  0  0
   35.6370   28.7940   43.0530 H   0  0  0  0  0  0  0  0  0  0  0  0
   36.3320   28.2730   42.5080 N   0  0  0  0  0  0  0  0  0  0  0  0
   37.3010   29.0730   41.7970 C   0  0  2  0  0  3  0  0  0  0  0  0
   38.2790   29.5300   42.8620 C   0  0  0  0  0  3  0  0  0  0  0  0
   37.7570   29.8400   43.8060 H   0  0  0  0  0  0  0  0  0  0  0  0
   39.0080   28.3970   43.1900 O   0  0  0  0  0  0  0  0  0  0  0  0
   38.3020   27.3410   43.6680 C   0  0  0  0  0  3  0  0  0  0  0  0
   36.8980   27.1570   43.1900 C   0  0  0  0  0  3  0  0  0  0  0  0
  1  6  1  0  0  0  0
  2  1  2  0  0  0  0
  2  3  1  0  0  0  0
  3  4  2  0  0  0  0
  4  5  1  0  0  0  0
  5 10  1  0  0  0  0
  6  5  2  0  0  0  0
  7  1  1  0  0  0  0
  8  2  1  0  0  0  0
  9  3  1  0  0  0  0
 12 11  1  0  0  0  0
 12 18  1  0  0  0  0
 13 10  1  1  0  0  0
 13 12  1  0  0  0  0
 13 14  1  0  0  0  0
 14 16  1  0  0  0  0
 14 15  1  0  0  0  0
 16 17  1  0  0  0  0
 18 17  2  0  0  0  0
M  END
>  <minimizedAffinity>
-3.64837837

$$$$

 OpenBabel03242521103D

 18 19  0  0  1  0  0  0  0  0999 V2000
   40.8870   28.1700   42.6700 C   0  0  0  0  0  0  0  0  0  0  0  0
   40.5410   27.0180   43.4270 C   0  0  0  0  0  0  0  0  0  0  0  0
   39.1720   26.7910   43.6770 C   0  0  0  0  0  0  0  0  0  0  0  0
   38.2930   27.6830   43.1790 N   0  0  0  0  0  0  0  0  0  0  0  0
   38.6500   28.7690   42.4620 C   0  0  0  0  0  0  0  0  0  0  0  0
   39.9420   29.0110   42.2100 N   0  0  0  0  0  0  0  0  0  0  0  0
   41.9270   28.3790   42.4590 H   0  0  0  0  0  0  0  0  0  0  0  0
   41.2890   26.3460   43.7980 H   0  0  0  0  0  0  0  0  0  0  0  0
   38.9000   25.9200   44.2500 H   0  0  0  0  0  0  0  0  0  0  0  0
   37.2710   29.7560   41.9460 S   0  0  0  0  0  0  0  0  0  0  0  0
   35.8170   31.9370   40.8270 H   0  0  0  0  0  0  0  0  0  0  0  0
   36.8170   32.0240   40.6150 N   0  0  0  0  0  0  0  0  0  0  0  0
   37.5540   30.7850   40.5420 C   0  0  2  0  0  3  0  0  0  0  0  0
   37.1810   30.1940   39.1950 C   0  0  0  0  0  3  0  0  0  0  0  0
   36.0860   30.3060   38.9770 H   0  0  0  0  0  0  0  0  0  0  0  0
   37.8330   30.9870   38.2630 O   0  0  0  0  0  0  0  0  0  0  0  0
   37.5190   32.3060   38.2650 C   0  0  0  0  0  3  0  0  0  0  0  0
   37.1180   32.9340   39.5610 C   0  0  0  0  0  3  0  0  0  0  0  0
  1  2  1  0  0  0  0
  2  3  2  0  0  0  0
  2  8  1  0  0  0  0
  3  9  1  0  0  0  0
  4  3  1  0  0  0  0
  5  4  2  0  0  0  0
  6  5  1  0  0  0  0
  6  1  2  0  0  0  0
  7  1  1  0  0  0  0
 10  5  1  0  0  0  0
 12 11  1  0  0  0  0
 13 12  1  0  0  0  0
 13 10  1  1  0  0  0
 14 13  1  0  0  0  0
 15 14  1  0  0  0  0
 16 17  1  0  0  0  0
 16 14  1  0  0  0  0
 17 18  2  0  0  0  0
 18 12  1  0  0  0  0
M  END
>  <minimizedAffinity>
-3.56359124

$$$$

 OpenBabel03242521103D

 18 19  0  0  1  0  0  0  0  0999 V2000
   36.2890   30.0170   38.2910 C   0  0  0  0  0  0  0  0  0  0  0  0
   35.6570   29.3980   39.4020 C   0  0  0  0  0  0  0  0  0  0  0  0
   35.7770   30.0340   40.6560 C   0  0  0  0  0  0  0  0  0  0  0  0
   36.4840   31.1800   40.7060 N   0  0  0  0  0  0  0  0  0  0  0  0
   37.0750   31.7450   39.6320 C   0  0  0  0  0  0  0  0  0  0  0  0
   36.9770   31.1650   38.4300 N   0  0  0  0  0  0  0  0  0  0  0  0
   36.2200   29.5590   37.3130 H   0  0  0  0  0  0  0  0  0  0  0  0
   35.1090   28.4830   39.2980 H   0  0  0  0  0  0  0  0  0  0  0  0
   35.3010   29.5720   41.5050 H   0  0  0  0  0  0  0  0  0  0  0  0
   37.9350   33.2480   40.0130 S   0  0  0  0  0  0  0  0  0  0  0  0
   39.4340   31.7230   38.1280 H   0  0  0  0  0  0  0  0  0  0  0  0
   39.8240   32.6680   38.2190 N   0  0  0  0  0  0  0  0  0  0  0  0
   39.6190   33.3130   39.4950 C   0  0  2  0  0  3  0  0  0  0  0  0
   40.6280   32.6600   40.4210 C   0  0  0  0  0  3  0  0  0  0  0  0
   40.6870   31.5510   40.2620 H   0  0  0  0  0  0  0  0  0  0  0  0
   41.8570   33.1640   40.0230 O   0  0  0  0  0  0  0  0  0  0  0  0
   42.2230   32.9240   38.7390 C   0  0  0  0  0  3  0  0  0  0  0  0
   41.1460   32.8100   37.7090 C   0  0  0  0  0  3  0  0  0  0  0  0
  1  6  2  0  0  0  0
  1  2  1  0  0  0  0
  2  3  2  0  0  0  0
  3  4  1  0  0  0  0
  3  9  1  0  0  0  0
  5 10  1  0  0  0  0
  5  4  2  0  0  0  0
  6  5  1  0  0  0  0
  7  1  1  0  0  0  0
  8  2  1  0  0  0  0
 11 12  1  0  0  0  0
 12 13  1  0  0  0  0
 13 10  1  1  0  0  0
 13 14  1  0  0  0  0
 15 14  1  0  0  0  0
 16 14  1  0  0  0  0
 17 16  1  0  0  0  0
 18 12  1  0  0  0  0
 18 17  2  0  0  0  0
M  END
>  <minimizedAffinity>
-3.55554652

$$$$
