
 OpenBabel03242521103D

 18 19  0  0  1  0  0  0  0  0999 V2000
   44.6070   35.3930   45.4920 C   0  0  0  0  0  0  0  0  0  0  0  0
   44.5940   36.2280   44.3440 C   0  0  0  0  0  0  0  0  0  0  0  0
   45.3050   35.7850   43.2090 C   0  0  0  0  0  0  0  0  0  0  0  0
   45.9430   34.6010   43.2990 N   0  0  0  0  0  0  0  0  0  0  0  0
   45.9380   33.8280   44.4050 C   0  0  0  0  0  0  0  0  0  0  0  0
   45.2720   34.2220   45.4960 N   0  0  0  0  0  0  0  0  0  0  0  0
   44.0740   35.6990   46.3830 H   0  0  0  0  0  0  0  0  0  0  0  0
   44.0680   37.1610   44.3350 H   0  0  0  0  0  0  0  0  0  0  0  0
   45.3010   36.4120   42.3330 H   0  0  0  0  0  0  0  0  0  0  0  0
   46.8700   32.3300   44.2200 S   0  0  0  0  0  0  0  0  0  0  0  0
   48.0540   34.4730   42.7600 H   0  0  0  0  0  0  0  0  0  0  0  0
   48.7790   33.8720   43.1710 N   0  0  0  0  0  0  0  0  0  0  0  0
   48.4090   32.4920   43.3750 C   0  0  2  0  0  3  0  0  0  0  0  0
   48.4820   31.8660   41.9950 C   0  0  0  0  0  3  0  0  0  0  0  0
   48.0500   32.5380   41.2060 H   0  0  0  0  0  0  0  0  0  0  0  0
   49.8360   31.7760   41.7130 O   0  0  0  0  0  0  0  0  0  0  0  0
   50.5300   32.9420   41.7020 C   0  0  0  0  0  3  0  0  0  0  0  0
   50.0740   34.0430   42.6040 C   0  0  0  0  0  3  0  0  0  0  0  0
  1  6  1  0  0  0  0
  1  7  1  0  0  0  0
  2  1  2  0  0  0  0
  3  4  2  0  0  0  0
  3  2  1  0  0  0  0
  4  5  1  0  0  0  0
  5  6  2  0  0  0  0
  8  2  1  0  0  0  0
  9  3  1  0  0  0  0
 10  5  1  0  0  0  0
 11 12  1  0  0  0  0
 12 13  1  0  0  0  0
 13 10  1  6  0  0  0
 14 13  1  0  0  0  0
 15 14  1  0  0  0  0
 16 14  1  0  0  0  0
 17 16  1  0  0  0  0
 17 18  2  0  0  0  0
 18 12  1  0  0  0  0
M  END
>  <minimizedAffinity>
-3.73187828

>  <minimizedRMSD>
4.04034996

$$$$
