REMARK  Name = 
REMARK  4 active torsions:
REMARK  status: ('A' for Active; 'I' for Inactive)
REMARK    1  A    between atoms: C_1  and  C_11
REMARK    2  A    between atoms: C_5  and  C_14
REMARK    3  A    between atoms: C_15  and  C_16
REMARK    4  A    between atoms: C_16  and  N_28
REMARK                            x       y       z     vdW  Elec       q    Type
REMARK                         _______ _______ _______ _____ _____    ______ ____
ROOT
ATOM      1  C   UNL     1      46.166  32.551  47.004  0.00  0.00    +0.000 A 
ATOM      2  C   UNL     1      45.236  32.563  47.992  0.00  0.00    +0.000 A 
ATOM      3  C   UNL     1      45.434  31.752  49.095  0.00  0.00    +0.000 A 
ATOM      4  C   UNL     1      46.554  30.947  49.188  0.00  0.00    +0.000 A 
ATOM      5  C   UNL     1      47.481  30.965  48.156  0.00  0.00    +0.000 A 
ATOM      6  N   UNL     1      47.267  31.747  47.118  0.00  0.00    +0.000 NA
ATOM      7  H   UNL     1      44.397  33.224  47.827  0.00  0.00    +0.000 HD
ATOM      8  H   UNL     1      44.671  31.775  49.881  0.00  0.00    +0.000 HD
ATOM      9  H   UNL     1      46.662  30.331  50.066  0.00  0.00    +0.000 HD
ENDROOT
BRANCH   1  14
ATOM     10  C   UNL     1      44.973  34.991  44.567  0.00  0.00    +0.000 A 
ATOM     11  C   UNL     1      45.928  34.846  43.542  0.00  0.00    +0.000 A 
ATOM     12  C   UNL     1      46.977  33.927  43.668  0.00  0.00    +0.000 A 
ATOM     13  N   UNL     1      46.965  33.234  44.824  0.00  0.00    +0.000 NA
ATOM     14  C   UNL     1      46.069  33.364  45.792  0.00  0.00    +0.000 A 
ATOM     15  N   UNL     1      45.077  34.249  45.650  0.00  0.00    +0.000 NA
ATOM     16  N   UNL     1      43.922  35.943  44.380  0.00  0.00    +0.000 N 
ATOM     17  H   UNL     1      45.843  35.459  42.650  0.00  0.00    +0.000 HD
ATOM     18  H   UNL     1      47.705  33.809  42.900  0.00  0.00    +0.000 HD
ATOM     19  H   UNL     1      44.002  36.646  43.610  0.00  0.00    +0.000 HD
ATOM     20  H   UNL     1      43.098  35.893  45.037  0.00  0.00    +0.000 HD
ENDBRANCH   1  14
BRANCH   5  21
ATOM     21  C   UNL     1      48.678  30.138  48.203  0.00  0.00    +0.000 C 
ATOM     22  C   UNL     1      49.790  30.493  48.845  0.00  0.00    +0.000 C 
BRANCH  22  23
ATOM     23  C   UNL     1      49.886  31.761  49.586  0.00  0.00    +0.000 C 
ATOM     24  H   UNL     1      50.639  32.438  49.094  0.00  0.00    +0.000 HD
ATOM     25  H   UNL     1      48.923  32.344  49.527  0.00  0.00    +0.000 HD
BRANCH  23  26
ATOM     26  N   UNL     1      50.193  31.637  50.977  0.00  0.00    +0.000 NA
ATOM     27  C   UNL     1      49.748  32.790  51.722  0.00  0.00    +0.000 C 
ATOM     28  H   UNL     1      48.717  32.538  52.078  0.00  0.00    +0.000 HD
ATOM     29  C   UNL     1      50.556  33.020  52.970  0.00  0.00    +0.000 C 
ATOM     30  H   UNL     1      50.002  33.546  53.745  0.00  0.00    +0.000 HD
ATOM     31  O   UNL     1      51.063  31.775  53.416  0.00  0.00    +0.000 OA
ATOM     32  C   UNL     1      52.115  31.508  52.532  0.00  0.00    +0.000 C 
ATOM     33  C   UNL     1      51.562  31.291  51.154  0.00  0.00    +0.000 C 
ENDBRANCH  23  26
ENDBRANCH  22  23
ENDBRANCH   5  21
TORSDOF 4
