
 OpenBabel03242523263D

 44 47  0  0  1  0  0  0  0  0999 V2000
   47.5090   32.5790   44.1960 C   0  0  0  0  0  0  0  0  0  0  0  0
   48.3360   33.0520   43.2840 C   0  0  0  0  0  0  0  0  0  0  0  0
   49.1760   32.1070   42.7160 C   0  0  0  0  0  0  0  0  0  0  0  0
   49.0570   30.7720   43.1670 N   0  0  0  0  0  0  0  0  0  0  0  0
   48.2090   30.3800   44.0820 C   0  0  0  0  0  0  0  0  0  0  0  0
   47.3590   31.3120   44.6610 N   0  0  0  0  0  0  0  0  0  0  0  0
   49.9210   32.2870   41.9520 H   0  0  0  0  0  0  0  0  0  0  0  0
   48.2390   29.3250   44.3240 H   0  0  0  0  0  0  0  0  0  0  0  0
   48.5480   34.4280   42.9030 C   0  0  1  0  0  0  0  0  0  0  0  0
   49.4340   34.8970   41.9960 C   0  0  0  0  0  0  0  0  0  0  0  0
   48.0510   34.7870   41.4200 C   0  0  1  0  0  0  0  0  0  0  0  0
   47.9740   35.1100   43.6100 H   0  0  0  0  0  0  0  0  0  0  0  0
   49.8180   35.9520   42.0030 H   0  0  0  0  0  0  0  0  0  0  0  0
   50.2140   34.2460   41.5100 H   0  0  0  0  0  0  0  0  0  0  0  0
   47.4410   35.7010   41.3400 H   0  0  0  0  0  0  0  0  0  0  0  0
   47.7810   33.6680   40.5940 N   0  0  0  0  0  0  0  0  0  0  0  0
   47.0990   32.9930   40.9730 H   0  0  0  0  0  0  0  0  0  0  0  0
   48.8590   35.4520   38.7200 H   0  0  0  0  0  0  0  0  0  0  0  0
   48.5680   34.4750   38.5380 N   0  0  0  0  0  0  0  0  0  0  0  0
   47.3910   34.1350   39.2810 C   0  0  1  0  0  3  0  0  0  0  0  0
   46.5740   33.0500   38.6270 C   0  0  0  0  0  3  0  0  0  0  0  0
   45.7770   33.4580   37.9860 H   0  0  0  0  0  0  0  0  0  0  0  0
   47.4830   32.2620   37.8850 O   0  0  0  0  0  0  0  0  0  0  0  0
   47.7970   32.9990   36.7440 C   0  0  0  0  0  2  0  0  0  0  0  0
   48.3510   34.3620   37.1080 C   0  0  0  0  0  2  0  0  0  0  0  0
   46.4590   33.3670   44.9030 C   0  0  0  0  0  0  0  0  0  0  0  0
   45.9110   33.8230   45.8610 O   0  0  0  0  0  0  0  0  0  0  0  0
   44.7130   31.4470   43.2120 Cl  0  0  0  0  0  0  0  0  0  0  0  0
   44.6840   33.1870   43.0030 C   0  0  0  0  0  0  0  0  0  0  0  0
   45.5290   33.9430   43.8580 C   0  0  0  0  0  0  0  0  0  0  0  0
   45.4050   35.2810   43.5970 C   0  0  0  0  0  0  0  0  0  0  0  0
   44.6630   35.9250   42.7230 C   0  0  0  0  0  0  0  0  0  0  0  0
   43.8590   35.1420   41.9150 C   0  0  0  0  0  0  0  0  0  0  0  0
   43.8660   33.7970   42.0490 C   0  0  0  0  0  0  0  0  0  0  0  0
   46.0260   35.9650   44.2340 H   0  0  0  0  0  0  0  0  0  0  0  0
   44.6410   37.0110   42.5970 H   0  0  0  0  0  0  0  0  0  0  0  0
   43.2260   35.6600   41.1720 H   0  0  0  0  0  0  0  0  0  0  0  0
   43.0300   33.1220   41.1980 O   0  0  0  0  0  0  0  0  0  0  0  0
   40.9140   31.9690   40.1650 O   0  0  0  0  0  0  0  0  0  0  0  0
   41.4460   32.5840   41.4300 P   0  0  0  0  0  0  0  0  0  0  0  0
   41.4310   31.4680   42.7070 O   0  0  0  0  0  0  0  0  0  0  0  0
   41.8690   30.6220   42.3790 H   0  0  0  0  0  0  0  0  0  0  0  0
   40.4260   33.8500   41.9140 O   0  0  0  0  0  0  0  0  0  0  0  0
   39.5000   33.5440   41.7550 H   0  0  0  0  0  0  0  0  0  0  0  0
  1  6  1  0  0  0  0
  1 26  1  0  0  0  0
  2  1  2  0  0  0  0
  3  4  2  0  0  0  0
  3  2  1  0  0  0  0
  4  5  1  0  0  0  0
  5  8  1  0  0  0  0
  5  6  2  0  0  0  0
  7  3  1  0  0  0  0
  9  2  1  0  0  0  0
  9 12  1  1  0  0  0
 10 13  1  0  0  0  0
 10  9  1  0  0  0  0
 11 15  1  6  0  0  0
 11 10  1  0  0  0  0
 11  9  1  0  0  0  0
 14 10  1  0  0  0  0
 16 17  1  0  0  0  0
 16 11  1  0  0  0  0
 19 18  1  0  0  0  0
 19 20  1  0  0  0  0
 20 16  1  1  0  0  0
 21 20  1  0  0  0  0
 22 21  1  0  0  0  0
 23 21  1  0  0  0  0
 24 25  1  0  0  0  0
 24 23  1  0  0  0  0
 25 19  1  0  0  0  0
 26 27  2  0  0  0  0
 29 28  1  0  0  0  0
 29 30  1  0  0  0  0
 30 26  1  0  0  0  0
 31 30  2  0  0  0  0
 31 35  1  0  0  0  0
 32 31  1  0  0  0  0
 33 34  1  0  0  0  0
 33 32  2  0  0  0  0
 34 29  2  0  0  0  0
 36 32  1  0  0  0  0
 37 33  1  0  0  0  0
 38 40  1  0  0  0  0
 38 34  1  0  0  0  0
 39 40  2  0  0  0  0
 40 43  1  0  0  0  0
 40 41  1  0  0  0  0
 42 41  1  0  0  0  0
 44 43  1  0  0  0  0
M  END
>  <minimizedAffinity>
-6.06682634

>  <minimizedRMSD>
0.913381636

$$$$
