REMARK  Name = 
REMARK  9 active torsions:
REMARK  status: ('A' for Active; 'I' for Inactive)
REMARK    1  A    between atoms: C_1  and  C_5
REMARK    2  A    between atoms: C_1  and  C_15
REMARK    3  A    between atoms: C_9  and  O_10
REMARK    4  A    between atoms: O_10  and  P_12
REMARK    5  A    between atoms: P_12  and  O_13
REMARK    6  A    between atoms: P_12  and  O_14
REMARK    7  A    between atoms: C_16  and  C_21
REMARK    8  A    between atoms: C_23  and  N_24
REMARK    9  A    between atoms: N_24  and  C_39
REMARK                            x       y       z     vdW  Elec       q    Type
REMARK                         _______ _______ _______ _____ _____    ______ ____
ROOT
ATOM      1  C   UNL     1      47.393  32.681  43.889  0.00  0.00    +0.000 A 
ATOM      2  C   UNL     1      48.319  33.215  43.116  0.00  0.00    +0.000 A 
ATOM      3  C   UNL     1      49.103  32.299  42.431  0.00  0.00    +0.000 A 
ATOM      4  N   UNL     1      48.831  30.926  42.634  0.00  0.00    +0.000 NA
ATOM      5  C   UNL     1      47.892  30.473  43.423  0.00  0.00    +0.000 A 
ATOM      6  N   UNL     1      47.096  31.375  44.115  0.00  0.00    +0.000 NA
ATOM      7  H   UNL     1      49.910  32.529  41.748  0.00  0.00    +0.000 HD
ATOM      8  H   UNL     1      47.807  29.395  43.476  0.00  0.00    +0.000 HD
ENDROOT
BRANCH   2   9
ATOM      9  C   UNL     1      48.683  34.606  42.994  0.00  0.00    +0.000 C 
ATOM     10  C   UNL     1      49.575  35.145  42.133  0.00  0.00    +0.000 C 
ATOM     11  C   UNL     1      48.162  35.310  41.649  0.00  0.00    +0.000 C 
ATOM     12  H   UNL     1      48.234  35.192  43.860  0.00  0.00    +0.000 HD
ATOM     13  H   UNL     1      50.088  36.126  42.316  0.00  0.00    +0.000 HD
ATOM     14  H   UNL     1      50.242  34.521  41.474  0.00  0.00    +0.000 HD
ATOM     15  H   UNL     1      47.668  36.285  41.792  0.00  0.00    +0.000 HD
BRANCH  11  16
ATOM     16  N   UNL     1      47.714  34.418  40.644  0.00  0.00    +0.000 NA
ATOM     17  H   UNL     1      46.996  33.740  40.942  0.00  0.00    +0.000 HD
BRANCH  16  20
ATOM     18  H   UNL     1      48.692  36.647  39.253  0.00  0.00    +0.000 HD
ATOM     19  N   UNL     1      48.423  35.736  38.839  0.00  0.00    +0.000 NA
ATOM     20  C   UNL     1      47.276  35.183  39.496  0.00  0.00    +0.000 C 
ATOM     21  C   UNL     1      46.473  34.267  38.608  0.00  0.00    +0.000 C 
ATOM     22  H   UNL     1      45.649  34.794  38.103  0.00  0.00    +0.000 HD
ATOM     23  O   UNL     1      47.383  33.719  37.675  0.00  0.00    +0.000 OA
ATOM     24  C   UNL     1      47.647  34.727  36.749  0.00  0.00    +0.000 C 
ATOM     25  C   UNL     1      48.172  35.974  37.431  0.00  0.00    +0.000 C 
ENDBRANCH  16  20
ENDBRANCH  11  16
ENDBRANCH   2   9
BRANCH   1  26
ATOM     26  C   UNL     1      46.377  33.441  44.672  0.00  0.00    +0.000 C 
ATOM     27  O   UNL     1      45.849  33.826  45.671  0.00  0.00    +0.000 OA
BRANCH  26  30
ATOM     28 CL   UNL     1      44.478  31.764  42.889  0.00  0.00    +0.000 Cl
ATOM     29  C   UNL     1      44.562  33.513  42.803  0.00  0.00    +0.000 A 
ATOM     30  C   UNL     1      45.470  34.149  43.690  0.00  0.00    +0.000 A 
ATOM     31  C   UNL     1      45.431  35.507  43.526  0.00  0.00    +0.000 A 
ATOM     32  C   UNL     1      44.719  36.259  42.715  0.00  0.00    +0.000 A 
ATOM     33  C   UNL     1      43.850  35.590  41.872  0.00  0.00    +0.000 A 
ATOM     34  C   UNL     1      43.770  34.241  41.912  0.00  0.00    +0.000 A 
ATOM     35  H   UNL     1      46.107  36.102  44.195  0.00  0.00    +0.000 HD
ATOM     36  H   UNL     1      44.767  37.350  42.666  0.00  0.00    +0.000 HD
ATOM     37  H   UNL     1      43.241  36.200  41.181  0.00  0.00    +0.000 HD
BRANCH  34  38
ATOM     38  O   UNL     1      42.876  33.684  41.034  0.00  0.00    +0.000 OA
BRANCH  38  40
ATOM     39  O   UNL     1      40.591  33.108  39.885  0.00  0.00    +0.000 OA
ATOM     40  P   UNL     1      41.232  33.348  41.224  0.00  0.00    +0.000 P 
BRANCH  40  41
ATOM     41  O   UNL     1      41.066  31.995  42.233  0.00  0.00    +0.000 OA
ATOM     42  H   UNL     1      41.363  31.186  41.712  0.00  0.00    +0.000 HD
ENDBRANCH  40  41
BRANCH  40  43
ATOM     43  O   UNL     1      40.428  34.614  42.016  0.00  0.00    +0.000 OA
ATOM     44  H   UNL     1      39.463  34.489  41.841  0.00  0.00    +0.000 HD
ENDBRANCH  40  43
ENDBRANCH  38  40
ENDBRANCH  34  38
ENDBRANCH  26  30
ENDBRANCH   1  26
TORSDOF 9
