
     RDKit          3D

 24 25  0  0  0  0  0  0  0  0999 V2000
   44.5129   35.9764   44.5392 C   0  0  0  0  0  0  0  0  0  0  0  0
   45.1874   35.9177   43.2899 C   0  0  0  0  0  0  0  0  0  0  0  0
   46.1181   34.8752   43.1007 C   0  0  0  0  0  0  0  0  0  0  0  0
   46.2992   34.0121   44.1197 N   0  0  0  0  0  0  0  0  0  0  0  0
   45.6439   34.0921   45.2967 C   0  0  0  0  0  0  0  0  0  0  0  0
   44.7554   35.0696   45.5048 N   0  0  0  0  0  0  0  0  0  0  0  0
   46.0970   32.8159   46.4419 S   0  0  0  0  0  0  0  0  0  0  0  0
   43.7917   36.7618   44.7221 H   0  0  0  0  0  0  0  0  0  0  0  0
   45.0002   36.6367   42.5179 H   0  0  0  0  0  0  0  0  0  0  0  0
   46.6338   34.8228   42.1569 H   0  0  0  0  0  0  0  0  0  0  0  0
   47.7981   31.1978   48.0587 H   0  0  0  0  0  0  0  0  0  0  0  0
   48.2848   32.0529   47.7664 N   0  0  0  0  0  0  0  0  0  0  0  0
   47.4442   33.1991   47.5144 C   0  0  2  0  0  0  0  0  0  0  0  0
   47.0740   33.7156   48.8921 C   0  0  2  0  0  0  0  0  0  0  0  0
   46.8289   32.8818   49.6013 H   0  0  0  0  0  0  0  0  0  0  0  0
   48.2350   34.2958   49.3800 O   0  0  0  0  0  0  0  0  0  0  0  0
   49.3158   33.4842   49.4925 C   0  0  0  0  0  0  0  0  0  0  0  0
   49.4519   32.3522   48.5264 C   0  0  0  0  0  0  0  0  0  0  0  0
   48.0916   33.9573   47.0344 H   0  0  0  0  0  0  0  0  0  0  0  0
   46.2856   34.4790   48.8741 H   0  0  0  0  0  0  0  0  0  0  0  0
   50.2254   34.1364   49.3252 H   0  0  0  0  0  0  0  0  0  0  0  0
   49.4023   33.1745   50.5682 H   0  0  0  0  0  0  0  0  0  0  0  0
   50.2815   32.4902   47.7866 H   0  0  0  0  0  0  0  0  0  0  0  0
   49.7308   31.4507   49.1180 H   0  0  0  0  0  0  0  0  0  0  0  0
  1  6  2  0
  2  1  1  0
  3  2  2  0
  3  4  1  0
  4  5  2  0
  5  6  1  0
  5  7  1  0
  1  8  1  0
  2  9  1  0
  3 10  1  0
 11 12  1  0
 12 13  1  0
 13 14  1  0
 14 15  1  1
 14 16  1  0
 16 17  1  0
 17 18  1  0
 18 12  1  0
 13 19  1  6
 14 20  1  0
 17 21  1  0
 17 22  1  0
 18 23  1  0
 18 24  1  0
  7 13  1  0
M  ISO  5   8  14   9  14  10  14  11   5  15  15
M  END
>  <DihAtoms>  (1) 
4,6,12,11

>  <DihDeg>  (1) 
66.693903542516

$$$$
