
     RDKit          3D

 24 25  0  0  0  0  0  0  0  0999 V2000
   44.5129   35.9764   44.5392 C   0  0  0  0  0  0  0  0  0  0  0  0
   45.1874   35.9177   43.2899 C   0  0  0  0  0  0  0  0  0  0  0  0
   46.1181   34.8752   43.1007 C   0  0  0  0  0  0  0  0  0  0  0  0
   46.2992   34.0121   44.1197 N   0  0  0  0  0  0  0  0  0  0  0  0
   45.6439   34.0921   45.2967 C   0  0  0  0  0  0  0  0  0  0  0  0
   44.7554   35.0696   45.5048 N   0  0  0  0  0  0  0  0  0  0  0  0
   46.0970   32.8159   46.4419 S   0  0  0  0  0  0  0  0  0  0  0  0
   43.7917   36.7618   44.7221 H   0  0  0  0  0  0  0  0  0  0  0  0
   45.0002   36.6367   42.5179 H   0  0  0  0  0  0  0  0  0  0  0  0
   46.6338   34.8228   42.1569 H   0  0  0  0  0  0  0  0  0  0  0  0
   47.6978   35.1515   46.7721 H   0  0  0  0  0  0  0  0  0  0  0  0
   47.6468   34.6220   47.6500 N   0  0  0  0  0  0  0  0  0  0  0  0
   47.4442   33.1991   47.5144 C   0  0  2  0  0  0  0  0  0  0  0  0
   48.7995   32.6545   47.1038 C   0  0  2  0  0  0  0  0  0  0  0  0
   49.3017   33.3080   46.3428 H   0  0  0  0  0  0  0  0  0  0  0  0
   49.5798   32.7394   48.2468 O   0  0  0  0  0  0  0  0  0  0  0  0
   49.7471   33.9776   48.7745 C   0  0  0  0  0  0  0  0  0  0  0  0
   48.6445   34.9719   48.6046 C   0  0  0  0  0  0  0  0  0  0  0  0
   47.2240   32.8203   48.5305 H   0  0  0  0  0  0  0  0  0  0  0  0
   48.7685   31.6056   46.7820 H   0  0  0  0  0  0  0  0  0  0  0  0
   49.8593   33.8375   49.8918 H   0  0  0  0  0  0  0  0  0  0  0  0
   50.7527   34.3565   48.4495 H   0  0  0  0  0  0  0  0  0  0  0  0
   48.1008   35.2068   49.5553 H   0  0  0  0  0  0  0  0  0  0  0  0
   49.1159   35.9306   48.2897 H   0  0  0  0  0  0  0  0  0  0  0  0
  1  6  2  0
  2  1  1  0
  3  2  2  0
  3  4  1  0
  4  5  2  0
  5  6  1  0
  5  7  1  0
  1  8  1  0
  2  9  1  0
  3 10  1  0
 11 12  1  0
 12 13  1  0
 13 14  1  0
 14 15  1  6
 14 16  1  0
 16 17  1  0
 17 18  1  0
 18 12  1  0
 13 19  1  1
 14 20  1  0
 17 21  1  0
 17 22  1  0
 18 23  1  0
 18 24  1  0
  7 13  1  0
M  ISO  5   8  14   9  14  10  14  11   5  15  15
M  END
>  <DihAtoms>  (1) 
4,6,12,11

>  <DihDeg>  (1) 
66.693903542516

$$$$
