
 OpenBabel03242523273D

 44 47  0  0  1  0  0  0  0  0999 V2000
   38.9100   31.1200   40.5620 C   0  0  0  0  0  0  0  0  0  0  0  0
   39.5800   30.8370   39.4620 C   0  0  0  0  0  0  0  0  0  0  0  0
   38.8750   31.0340   38.2840 C   0  0  0  0  0  0  0  0  0  0  0  0
   37.5450   31.5030   38.3900 N   0  0  0  0  0  0  0  0  0  0  0  0
   36.9460   31.7590   39.5240 C   0  0  0  0  0  0  0  0  0  0  0  0
   37.6370   31.5710   40.7130 N   0  0  0  0  0  0  0  0  0  0  0  0
   39.2420   30.8640   37.2800 H   0  0  0  0  0  0  0  0  0  0  0  0
   35.9250   32.1100   39.4430 H   0  0  0  0  0  0  0  0  0  0  0  0
   40.8920   30.2460   39.3460 C   0  0  1  0  0  0  0  0  0  0  0  0
   41.7590   30.3760   38.3170 C   0  0  0  0  0  0  0  0  0  0  0  0
   42.1020   31.2950   39.4560 C   0  0  1  0  0  0  0  0  0  0  0  0
   41.0420   29.4910   40.1840 H   0  0  0  0  0  0  0  0  0  0  0  0
   42.5700   29.6310   38.1020 H   0  0  0  0  0  0  0  0  0  0  0  0
   41.4880   30.8850   37.3500 H   0  0  0  0  0  0  0  0  0  0  0  0
   42.9140   31.0030   40.1410 H   0  0  0  0  0  0  0  0  0  0  0  0
   41.7260   32.6540   39.3250 N   0  0  0  0  0  0  0  0  0  0  0  0
   40.9860   32.9730   39.9700 H   0  0  0  0  0  0  0  0  0  0  0  0
   44.0790   32.5770   40.8470 H   0  0  0  0  0  0  0  0  0  0  0  0
   44.0180   32.6650   39.8170 N   0  0  0  0  0  0  0  0  0  0  0  0
   42.9090   33.4820   39.4270 C   0  0  1  0  0  3  0  0  0  0  0  0
   43.1150   34.1610   38.0970 C   0  0  0  0  0  3  0  0  0  0  0  0
   43.5320   35.1740   38.2060 H   0  0  0  0  0  0  0  0  0  0  0  0
   43.9790   33.3240   37.3530 O   0  0  0  0  0  0  0  0  0  0  0  0
   45.2540   33.5130   37.8820 C   0  0  0  0  0  2  0  0  0  0  0  0
   45.2800   33.2240   39.3690 C   0  0  0  0  0  2  0  0  0  0  0  0
   39.4580   31.0650   41.9470 C   0  0  0  0  0  0  0  0  0  0  0  0
   40.0530   31.4880   42.8920 O   0  0  0  0  0  0  0  0  0  0  0  0
   41.6560   28.9520   42.4940 Cl  0  0  0  0  0  0  0  0  0  0  0  0
   39.9610   28.6680   42.8380 C   0  0  0  0  0  0  0  0  0  0  0  0
   39.0680   29.7320   42.5470 C   0  0  0  0  0  0  0  0  0  0  0  0
   37.7840   29.3840   42.8680 C   0  0  0  0  0  0  0  0  0  0  0  0
   37.2910   28.2750   43.3740 C   0  0  0  0  0  0  0  0  0  0  0  0
   38.2030   27.2700   43.6390 C   0  0  0  0  0  0  0  0  0  0  0  0
   39.5160   27.4590   43.3770 C   0  0  0  0  0  0  0  0  0  0  0  0
   37.0020   30.1680   42.6860 H   0  0  0  0  0  0  0  0  0  0  0  0
   36.2340   28.1000   43.5940 H   0  0  0  0  0  0  0  0  0  0  0  0
   37.8130   26.3270   44.0640 H   0  0  0  0  0  0  0  0  0  0  0  0
   40.3290   26.3970   43.6790 O   0  0  0  0  0  0  0  0  0  0  0  0
   40.5560   25.3370   41.2920 O   0  0  0  0  0  0  0  0  0  0  0  0
   40.7370   25.0430   42.7560 P   0  0  0  0  0  0  0  0  0  0  0  0
   42.3420   24.6140   43.0990 O   0  0  0  0  0  0  0  0  0  0  0  0
   42.9400   25.3090   42.6850 H   0  0  0  0  0  0  0  0  0  0  0  0
   39.7990   23.6960   43.1820 O   0  0  0  0  0  0  0  0  0  0  0  0
   39.8800   23.0490   42.4390 H   0  0  0  0  0  0  0  0  0  0  0  0
  1  6  1  0  0  0  0
  1 26  1  0  0  0  0
  2  1  2  0  0  0  0
  3  4  2  0  0  0  0
  3  2  1  0  0  0  0
  4  5  1  0  0  0  0
  5  6  2  0  0  0  0
  7  3  1  0  0  0  0
  8  5  1  0  0  0  0
  9 11  1  0  0  0  0
  9  2  1  0  0  0  0
  9 12  1  1  0  0  0
 10  9  1  0  0  0  0
 10 11  1  0  0  0  0
 11 15  1  1  0  0  0
 13 10  1  0  0  0  0
 14 10  1  0  0  0  0
 16 11  1  0  0  0  0
 16 17  1  0  0  0  0
 19 18  1  0  0  0  0
 20 16  1  6  0  0  0
 20 19  1  0  0  0  0
 21 22  1  0  0  0  0
 21 20  1  0  0  0  0
 23 24  1  0  0  0  0
 23 21  1  0  0  0  0
 24 25  1  0  0  0  0
 25 19  1  0  0  0  0
 26 30  1  0  0  0  0
 26 27  2  0  0  0  0
 28 29  1  0  0  0  0
 29 34  1  0  0  0  0
 30 29  2  0  0  0  0
 30 31  1  0  0  0  0
 31 32  2  0  0  0  0
 32 36  1  0  0  0  0
 32 33  1  0  0  0  0
 33 37  1  0  0  0  0
 34 33  2  0  0  0  0
 34 38  1  0  0  0  0
 35 31  1  0  0  0  0
 39 40  2  0  0  0  0
 40 41  1  0  0  0  0
 40 43  1  0  0  0  0
 40 38  1  0  0  0  0
 42 41  1  0  0  0  0
 44 43  1  0  0  0  0
M  END
>  <minimizedAffinity>
-6.07066154

$$$$

 OpenBabel03242523273D

 44 47  0  0  1  0  0  0  0  0999 V2000
   36.5590   30.7530   39.6720 C   0  0  0  0  0  0  0  0  0  0  0  0
   36.8460   30.7530   38.3840 C   0  0  0  0  0  0  0  0  0  0  0  0
   37.5310   31.8750   37.9420 C   0  0  0  0  0  0  0  0  0  0  0  0
   37.8360   32.8720   38.8970 N   0  0  0  0  0  0  0  0  0  0  0  0
   37.5130   32.8000   40.1620 C   0  0  0  0  0  0  0  0  0  0  0  0
   36.8290   31.6840   40.6230 N   0  0  0  0  0  0  0  0  0  0  0  0
   37.8610   32.0670   36.9300 H   0  0  0  0  0  0  0  0  0  0  0  0
   37.8140   33.6440   40.7690 H   0  0  0  0  0  0  0  0  0  0  0  0
   36.4360   29.8010   37.3810 C   0  0  1  0  0  0  0  0  0  0  0  0
   36.7180   29.8340   36.0590 C   0  0  0  0  0  0  0  0  0  0  0  0
   37.6290   28.8970   36.8010 C   0  0  1  0  0  0  0  0  0  0  0  0
   35.6750   29.0830   37.8290 H   0  0  0  0  0  0  0  0  0  0  0  0
   36.0950   29.3110   35.2860 H   0  0  0  0  0  0  0  0  0  0  0  0
   37.2240   30.7090   35.5640 H   0  0  0  0  0  0  0  0  0  0  0  0
   37.4190   27.8150   36.7580 H   0  0  0  0  0  0  0  0  0  0  0  0
   38.9320   29.3640   37.1020 N   0  0  0  0  0  0  0  0  0  0  0  0
   38.9770   30.1500   37.7690 H   0  0  0  0  0  0  0  0  0  0  0  0
   38.8200   26.5800   36.7840 H   0  0  0  0  0  0  0  0  0  0  0  0
   39.6360   27.1880   36.5850 N   0  0  0  0  0  0  0  0  0  0  0  0
   39.7430   28.2490   37.5410 C   0  0  1  0  0  3  0  0  0  0  0  0
   41.1550   28.7440   37.7170 C   0  0  0  0  0  3  0  0  0  0  0  0
   41.6720   28.2440   38.5510 H   0  0  0  0  0  0  0  0  0  0  0  0
   41.8140   28.5110   36.4880 O   0  0  0  0  0  0  0  0  0  0  0  0
   42.0780   27.1430   36.4410 C   0  0  0  0  0  2  0  0  0  0  0  0
   40.8080   26.3330   36.5980 C   0  0  0  0  0  2  0  0  0  0  0  0
   35.8960   29.6400   40.4090 C   0  0  0  0  0  0  0  0  0  0  0  0
   34.9720   28.9560   40.7310 O   0  0  0  0  0  0  0  0  0  0  0  0
   37.0050   26.9060   39.4640 Cl  0  0  0  0  0  0  0  0  0  0  0  0
   37.5370   27.6860   40.9420 C   0  0  0  0  0  0  0  0  0  0  0  0
   36.9490   28.9440   41.2420 C   0  0  0  0  0  0  0  0  0  0  0  0
   37.4550   29.4440   42.4110 C   0  0  0  0  0  0  0  0  0  0  0  0
   38.3500   28.9570   43.2430 C   0  0  0  0  0  0  0  0  0  0  0  0
   38.8910   27.7300   42.9040 C   0  0  0  0  0  0  0  0  0  0  0  0
   38.4940   27.1020   41.7750 C   0  0  0  0  0  0  0  0  0  0  0  0
   37.0610   30.4450   42.7280 H   0  0  0  0  0  0  0  0  0  0  0  0
   38.6850   29.4470   44.1610 H   0  0  0  0  0  0  0  0  0  0  0  0
   39.6440   27.3000   43.5880 H   0  0  0  0  0  0  0  0  0  0  0  0
   39.0960   25.8940   41.5370 O   0  0  0  0  0  0  0  0  0  0  0  0
   38.8340   23.4220   40.7050 O   0  0  0  0  0  0  0  0  0  0  0  0
   38.5600   24.3280   41.8730 P   0  0  0  0  0  0  0  0  0  0  0  0
   39.3400   23.7740   43.2730 O   0  0  0  0  0  0  0  0  0  0  0  0
   40.3030   23.5950   43.0370 H   0  0  0  0  0  0  0  0  0  0  0  0
   36.9020   24.3040   42.2290 O   0  0  0  0  0  0  0  0  0  0  0  0
   36.6060   23.3650   42.1320 H   0  0  0  0  0  0  0  0  0  0  0  0
  1 26  1  0  0  0  0
  1  6  1  0  0  0  0
  2  1  2  0  0  0  0
  3  2  1  0  0  0  0
  3  4  2  0  0  0  0
  4  5  1  0  0  0  0
  5  6  2  0  0  0  0
  5  8  1  0  0  0  0
  7  3  1  0  0  0  0
  9 12  1  1  0  0  0
  9  2  1  0  0  0  0
 10 11  1  0  0  0  0
 10  9  1  0  0  0  0
 11 15  1  6  0  0  0
 11 16  1  0  0  0  0
 11  9  1  0  0  0  0
 13 10  1  0  0  0  0
 14 10  1  0  0  0  0
 16 17  1  0  0  0  0
 19 25  1  0  0  0  0
 19 18  1  0  0  0  0
 19 20  1  0  0  0  0
 20 16  1  6  0  0  0
 20 21  1  0  0  0  0
 21 22  1  0  0  0  0
 23 21  1  0  0  0  0
 24 23  1  0  0  0  0
 24 25  1  0  0  0  0
 26 27  2  0  0  0  0
 26 30  1  0  0  0  0
 28 29  1  0  0  0  0
 29 30  2  0  0  0  0
 29 34  1  0  0  0  0
 30 31  1  0  0  0  0
 31 35  1  0  0  0  0
 31 32  2  0  0  0  0
 32 36  1  0  0  0  0
 33 32  1  0  0  0  0
 33 37  1  0  0  0  0
 34 33  2  0  0  0  0
 38 34  1  0  0  0  0
 38 40  1  0  0  0  0
 39 40  2  0  0  0  0
 40 43  1  0  0  0  0
 40 41  1  0  0  0  0
 42 41  1  0  0  0  0
 44 43  1  0  0  0  0
M  END
>  <minimizedAffinity>
-6.06066942

$$$$

 OpenBabel03242523273D

 44 47  0  0  1  0  0  0  0  0999 V2000
   38.4260   31.5660   39.3880 C   0  0  0  0  0  0  0  0  0  0  0  0
   39.2610   31.8900   40.3570 C   0  0  0  0  0  0  0  0  0  0  0  0
   39.1020   33.1740   40.8550 C   0  0  0  0  0  0  0  0  0  0  0  0
   38.0890   33.9770   40.2810 N   0  0  0  0  0  0  0  0  0  0  0  0
   37.3000   33.5830   39.3160 C   0  0  0  0  0  0  0  0  0  0  0  0
   37.4420   32.3000   38.8060 N   0  0  0  0  0  0  0  0  0  0  0  0
   39.6800   33.6310   41.6480 H   0  0  0  0  0  0  0  0  0  0  0  0
   36.5740   34.3120   38.9800 H   0  0  0  0  0  0  0  0  0  0  0  0
   40.3730   31.1240   40.8660 C   0  0  1  0  0  0  0  0  0  0  0  0
   40.9090   31.1880   42.1060 C   0  0  0  0  0  0  0  0  0  0  0  0
   39.9700   30.0230   41.9630 C   0  0  1  0  0  0  0  0  0  0  0  0
   40.8690   30.5620   40.0110 H   0  0  0  0  0  0  0  0  0  0  0  0
   41.9610   30.8710   42.3350 H   0  0  0  0  0  0  0  0  0  0  0  0
   40.6060   31.9640   42.8640 H   0  0  0  0  0  0  0  0  0  0  0  0
   40.3980   29.0210   41.7980 H   0  0  0  0  0  0  0  0  0  0  0  0
   38.6700   30.1700   42.5060 N   0  0  0  0  0  0  0  0  0  0  0  0
   37.9260   30.3770   41.8220 H   0  0  0  0  0  0  0  0  0  0  0  0
   36.5780   29.4370   44.2230 H   0  0  0  0  0  0  0  0  0  0  0  0
   36.9320   28.8890   43.4180 N   0  0  0  0  0  0  0  0  0  0  0  0
   38.3540   28.9990   43.2950 C   0  0  1  0  0  3  0  0  0  0  0  0
   38.9830   27.8040   42.6240 C   0  0  0  0  0  3  0  0  0  0  0  0
   39.3310   27.0540   43.3500 H   0  0  0  0  0  0  0  0  0  0  0  0
   37.9990   27.2710   41.7610 O   0  0  0  0  0  0  0  0  0  0  0  0
   37.0900   26.5970   42.5740 C   0  0  0  0  0  2  0  0  0  0  0  0
   36.5170   27.5150   43.6340 C   0  0  0  0  0  2  0  0  0  0  0  0
   38.3380   30.2290   38.7330 C   0  0  0  0  0  0  0  0  0  0  0  0
   38.7730   29.2730   38.1670 O   0  0  0  0  0  0  0  0  0  0  0  0
   36.7430   29.9260   36.0950 Cl  0  0  0  0  0  0  0  0  0  0  0  0
   36.0410   29.6100   37.6700 C   0  0  0  0  0  0  0  0  0  0  0  0
   36.8950   29.7790   38.7910 C   0  0  0  0  0  0  0  0  0  0  0  0
   36.2280   29.4950   39.9510 C   0  0  0  0  0  0  0  0  0  0  0  0
   34.9870   29.1130   40.1630 C   0  0  0  0  0  0  0  0  0  0  0  0
   34.1970   28.9630   39.0380 C   0  0  0  0  0  0  0  0  0  0  0  0
   34.7110   29.2070   37.8110 C   0  0  0  0  0  0  0  0  0  0  0  0
   36.8260   29.5860   40.8960 H   0  0  0  0  0  0  0  0  0  0  0  0
   34.5520   28.9100   41.1450 H   0  0  0  0  0  0  0  0  0  0  0  0
   33.1510   28.6430   39.1900 H   0  0  0  0  0  0  0  0  0  0  0  0
   33.8390   29.0260   36.7680 O   0  0  0  0  0  0  0  0  0  0  0  0
   33.4020   27.6590   34.5740 O   0  0  0  0  0  0  0  0  0  0  0  0
   33.2610   27.6010   36.0700 P   0  0  0  0  0  0  0  0  0  0  0  0
   34.1220   26.2900   36.7150 O   0  0  0  0  0  0  0  0  0  0  0  0
   35.0540   26.3190   36.3350 H   0  0  0  0  0  0  0  0  0  0  0  0
   31.6360   27.3280   36.4730 O   0  0  0  0  0  0  0  0  0  0  0  0
   31.2920   26.6660   35.8250 H   0  0  0  0  0  0  0  0  0  0  0  0
  1  2  1  0  0  0  0
  2  3  2  0  0  0  0
  2  9  1  0  0  0  0
  3  7  1  0  0  0  0
  4  3  1  0  0  0  0
  5  4  2  0  0  0  0
  6  5  1  0  0  0  0
  6  1  2  0  0  0  0
  8  5  1  0  0  0  0
  9 12  1  6  0  0  0
  9 11  1  0  0  0  0
  9 10  1  0  0  0  0
 10 13  1  0  0  0  0
 10 14  1  0  0  0  0
 11 15  1  6  0  0  0
 11 10  1  0  0  0  0
 11 16  1  0  0  0  0
 17 16  1  0  0  0  0
 19 25  1  0  0  0  0
 19 18  1  0  0  0  0
 20 16  1  6  0  0  0
 20 19  1  0  0  0  0
 21 20  1  0  0  0  0
 21 22  1  0  0  0  0
 23 24  1  0  0  0  0
 23 21  1  0  0  0  0
 24 25  1  0  0  0  0
 26 30  1  0  0  0  0
 26  1  1  0  0  0  0
 27 26  2  0  0  0  0
 28 29  1  0  0  0  0
 29 34  2  0  0  0  0
 29 30  1  0  0  0  0
 30 31  2  0  0  0  0
 31 32  1  0  0  0  0
 31 35  1  0  0  0  0
 32 36  1  0  0  0  0
 33 37  1  0  0  0  0
 33 32  2  0  0  0  0
 34 33  1  0  0  0  0
 38 34  1  0  0  0  0
 39 40  2  0  0  0  0
 40 43  1  0  0  0  0
 40 41  1  0  0  0  0
 40 38  1  0  0  0  0
 42 41  1  0  0  0  0
 44 43  1  0  0  0  0
M  END
>  <minimizedAffinity>
-6.00780916

$$$$

 OpenBabel03242523273D

 44 47  0  0  1  0  0  0  0  0999 V2000
   37.6840   30.0990   41.6220 C   0  0  0  0  0  0  0  0  0  0  0  0
   37.0000   29.0640   42.0700 C   0  0  0  0  0  0  0  0  0  0  0  0
   35.8990   28.7180   41.3010 C   0  0  0  0  0  0  0  0  0  0  0  0
   35.6360   29.4970   40.1500 N   0  0  0  0  0  0  0  0  0  0  0  0
   36.3640   30.5150   39.7710 C   0  0  0  0  0  0  0  0  0  0  0  0
   37.4710   30.8740   40.5270 N   0  0  0  0  0  0  0  0  0  0  0  0
   35.2130   27.9030   41.4920 H   0  0  0  0  0  0  0  0  0  0  0  0
   36.0340   31.0140   38.8680 H   0  0  0  0  0  0  0  0  0  0  0  0
   37.1880   28.3390   43.3040 C   0  0  1  0  0  0  0  0  0  0  0  0
   36.5980   27.1790   43.6680 C   0  0  0  0  0  0  0  0  0  0  0  0
   37.9880   26.9570   43.1430 C   0  0  1  0  0  0  0  0  0  0  0  0
   37.7890   28.9780   44.0300 H   0  0  0  0  0  0  0  0  0  0  0  0
   36.4820   26.8600   44.7380 H   0  0  0  0  0  0  0  0  0  0  0  0
   35.7730   26.6990   43.0710 H   0  0  0  0  0  0  0  0  0  0  0  0
   38.8050   26.8020   43.8670 H   0  0  0  0  0  0  0  0  0  0  0  0
   38.1100   26.4900   41.8120 N   0  0  0  0  0  0  0  0  0  0  0  0
   38.9960   26.7260   41.3390 H   0  0  0  0  0  0  0  0  0  0  0  0
   35.9820   24.8590   40.9900 H   0  0  0  0  0  0  0  0  0  0  0  0
   36.9740   24.7630   40.7050 N   0  0  0  0  0  0  0  0  0  0  0  0
   37.8610   25.0640   41.7880 C   0  0  1  0  0  3  0  0  0  0  0  0
   39.1900   24.3630   41.6740 C   0  0  0  0  0  3  0  0  0  0  0  0
   39.2070   23.4100   42.2230 H   0  0  0  0  0  0  0  0  0  0  0  0
   39.4190   24.1680   40.2920 O   0  0  0  0  0  0  0  0  0  0  0  0
   38.5950   23.1130   39.9060 C   0  0  0  0  0  2  0  0  0  0  0  0
   37.1450   23.4010   40.2340 C   0  0  0  0  0  2  0  0  0  0  0  0
   38.9440   30.6270   42.2200 C   0  0  0  0  0  0  0  0  0  0  0  0
   39.5990   31.1630   43.0610 O   0  0  0  0  0  0  0  0  0  0  0  0
   40.0970   32.9680   40.5500 Cl  0  0  0  0  0  0  0  0  0  0  0  0
   40.6830   31.3220   40.4080 C   0  0  0  0  0  0  0  0  0  0  0  0
   40.0680   30.3550   41.2450 C   0  0  0  0  0  0  0  0  0  0  0  0
   40.6220   29.1200   41.0410 C   0  0  0  0  0  0  0  0  0  0  0  0
   41.5790   28.7260   40.2300 C   0  0  0  0  0  0  0  0  0  0  0  0
   42.1450   29.7080   39.4360 C   0  0  0  0  0  0  0  0  0  0  0  0
   41.7070   30.9840   39.5200 C   0  0  0  0  0  0  0  0  0  0  0  0
   40.2100   28.2870   41.6690 H   0  0  0  0  0  0  0  0  0  0  0  0
   41.9490   27.7010   40.1450 H   0  0  0  0  0  0  0  0  0  0  0  0
   42.9520   29.4020   38.7460 H   0  0  0  0  0  0  0  0  0  0  0  0
   42.3390   31.8730   38.6880 O   0  0  0  0  0  0  0  0  0  0  0  0
   42.6750   31.3140   36.1490 O   0  0  0  0  0  0  0  0  0  0  0  0
   42.0080   32.2840   37.0840 P   0  0  0  0  0  0  0  0  0  0  0  0
   40.3270   32.2920   36.8610 O   0  0  0  0  0  0  0  0  0  0  0  0
   40.0110   31.3360   36.8770 H   0  0  0  0  0  0  0  0  0  0  0  0
   42.5260   33.8590   36.7280 O   0  0  0  0  0  0  0  0  0  0  0  0
   42.5670   33.9270   35.7430 H   0  0  0  0  0  0  0  0  0  0  0  0
  1  2  1  0  0  0  0
  1 26  1  0  0  0  0
  2  9  1  0  0  0  0
  3  7  1  0  0  0  0
  3  2  2  0  0  0  0
  4  3  1  0  0  0  0
  5  4  2  0  0  0  0
  5  6  1  0  0  0  0
  6  1  2  0  0  0  0
  8  5  1  0  0  0  0
  9 10  1  0  0  0  0
  9 12  1  1  0  0  0
 10 13  1  0  0  0  0
 11  9  1  0  0  0  0
 11 10  1  0  0  0  0
 11 15  1  1  0  0  0
 14 10  1  0  0  0  0
 16 11  1  0  0  0  0
 17 16  1  0  0  0  0
 19 18  1  0  0  0  0
 19 20  1  0  0  0  0
 20 16  1  6  0  0  0
 21 20  1  0  0  0  0
 21 22  1  0  0  0  0
 23 21  1  0  0  0  0
 24 25  1  0  0  0  0
 24 23  1  0  0  0  0
 25 19  1  0  0  0  0
 26 27  2  0  0  0  0
 29 28  1  0  0  0  0
 29 30  1  0  0  0  0
 30 26  1  0  0  0  0
 31 30  2  0  0  0  0
 31 35  1  0  0  0  0
 32 31  1  0  0  0  0
 33 34  1  0  0  0  0
 33 32  2  0  0  0  0
 34 29  2  0  0  0  0
 36 32  1  0  0  0  0
 37 33  1  0  0  0  0
 38 34  1  0  0  0  0
 39 40  2  0  0  0  0
 40 38  1  0  0  0  0
 41 42  1  0  0  0  0
 41 40  1  0  0  0  0
 43 40  1  0  0  0  0
 44 43  1  0  0  0  0
M  END
>  <minimizedAffinity>
-5.97826529

$$$$

 OpenBabel03242523273D

 44 47  0  0  1  0  0  0  0  0999 V2000
   38.4450   29.8730   41.5490 C   0  0  0  0  0  0  0  0  0  0  0  0
   38.6730   29.0340   42.5410 C   0  0  0  0  0  0  0  0  0  0  0  0
   40.0120   28.7610   42.7750 C   0  0  0  0  0  0  0  0  0  0  0  0
   40.9630   29.3950   41.9410 N   0  0  0  0  0  0  0  0  0  0  0  0
   40.6560   30.2170   40.9720 C   0  0  0  0  0  0  0  0  0  0  0  0
   39.3210   30.5040   40.7250 N   0  0  0  0  0  0  0  0  0  0  0  0
   40.4090   28.1060   43.5380 H   0  0  0  0  0  0  0  0  0  0  0  0
   41.4950   30.6220   40.4200 H   0  0  0  0  0  0  0  0  0  0  0  0
   37.7100   28.2910   43.3170 C   0  0  1  0  0  0  0  0  0  0  0  0
   36.5200   27.8060   42.8960 C   0  0  0  0  0  0  0  0  0  0  0  0
   37.5830   26.7440   42.9080 C   0  0  1  0  0  0  0  0  0  0  0  0
   38.0110   28.3110   44.4140 H   0  0  0  0  0  0  0  0  0  0  0  0
   35.6710   27.5760   43.5930 H   0  0  0  0  0  0  0  0  0  0  0  0
   36.0860   28.0450   41.8850 H   0  0  0  0  0  0  0  0  0  0  0  0
   37.6070   26.0330   43.7500 H   0  0  0  0  0  0  0  0  0  0  0  0
   38.1730   26.4060   41.6650 N   0  0  0  0  0  0  0  0  0  0  0  0
   39.1830   26.1960   41.6970 H   0  0  0  0  0  0  0  0  0  0  0  0
   37.3530   25.7560   39.0640 H   0  0  0  0  0  0  0  0  0  0  0  0
   37.8660   25.1370   39.7180 N   0  0  0  0  0  0  0  0  0  0  0  0
   37.4250   25.3210   41.0670 C   0  0  1  0  0  3  0  0  0  0  0  0
   37.6200   24.0960   41.9240 C   0  0  0  0  0  3  0  0  0  0  0  0
   36.7210   23.4620   41.9560 H   0  0  0  0  0  0  0  0  0  0  0  0
   38.7240   23.4020   41.3780 O   0  0  0  0  0  0  0  0  0  0  0  0
   38.2570   22.7750   40.2240 C   0  0  0  0  0  2  0  0  0  0  0  0
   37.6500   23.7760   39.2630 C   0  0  0  0  0  2  0  0  0  0  0  0
   37.1050   30.3860   41.1410 C   0  0  0  0  0  0  0  0  0  0  0  0
   36.1060   31.0240   41.2760 O   0  0  0  0  0  0  0  0  0  0  0  0
   37.5660   32.0780   38.5870 Cl  0  0  0  0  0  0  0  0  0  0  0  0
   36.9180   30.4500   38.5430 C   0  0  0  0  0  0  0  0  0  0  0  0
   36.7720   29.7900   39.7910 C   0  0  0  0  0  0  0  0  0  0  0  0
   36.2670   28.5310   39.6140 C   0  0  0  0  0  0  0  0  0  0  0  0
   35.9170   27.8870   38.5220 C   0  0  0  0  0  0  0  0  0  0  0  0
   36.0790   28.5740   37.3330 C   0  0  0  0  0  0  0  0  0  0  0  0
   36.5700   29.8340   37.3380 C   0  0  0  0  0  0  0  0  0  0  0  0
   36.1280   27.9220   40.5460 H   0  0  0  0  0  0  0  0  0  0  0  0
   35.5190   26.8690   38.4940 H   0  0  0  0  0  0  0  0  0  0  0  0
   35.7920   28.0540   36.4010 H   0  0  0  0  0  0  0  0  0  0  0  0
   36.6880   30.4180   36.1040 O   0  0  0  0  0  0  0  0  0  0  0  0
   34.7350   29.6910   34.5140 O   0  0  0  0  0  0  0  0  0  0  0  0
   36.2290   29.8480   34.5820 P   0  0  0  0  0  0  0  0  0  0  0  0
   36.7840   30.9330   33.4030 O   0  0  0  0  0  0  0  0  0  0  0  0
   36.2240   31.7670   33.4670 H   0  0  0  0  0  0  0  0  0  0  0  0
   36.9690   28.3640   34.2270 O   0  0  0  0  0  0  0  0  0  0  0  0
   36.4550   27.9620   33.4850 H   0  0  0  0  0  0  0  0  0  0  0  0
  1  2  1  0  0  0  0
  2  3  2  0  0  0  0
  2  9  1  0  0  0  0
  3  7  1  0  0  0  0
  4  3  1  0  0  0  0
  5  4  2  0  0  0  0
  6  5  1  0  0  0  0
  6  1  2  0  0  0  0
  8  5  1  0  0  0  0
  9 12  1  1  0  0  0
 10 11  1  0  0  0  0
 10  9  1  0  0  0  0
 10 13  1  0  0  0  0
 11  9  1  0  0  0  0
 11 15  1  1  0  0  0
 14 10  1  0  0  0  0
 16 17  1  0  0  0  0
 16 11  1  0  0  0  0
 18 19  1  0  0  0  0
 19 20  1  0  0  0  0
 20 16  1  1  0  0  0
 20 21  1  0  0  0  0
 21 22  1  0  0  0  0
 23 21  1  0  0  0  0
 24 23  1  0  0  0  0
 25 19  1  0  0  0  0
 25 24  1  0  0  0  0
 26 27  2  0  0  0  0
 26  1  1  0  0  0  0
 29 28  1  0  0  0  0
 29 30  1  0  0  0  0
 30 26  1  0  0  0  0
 31 30  2  0  0  0  0
 31 35  1  0  0  0  0
 32 31  1  0  0  0  0
 33 34  1  0  0  0  0
 33 32  2  0  0  0  0
 34 29  2  0  0  0  0
 36 32  1  0  0  0  0
 37 33  1  0  0  0  0
 38 34  1  0  0  0  0
 39 40  2  0  0  0  0
 40 38  1  0  0  0  0
 41 42  1  0  0  0  0
 41 40  1  0  0  0  0
 43 40  1  0  0  0  0
 44 43  1  0  0  0  0
M  END
>  <minimizedAffinity>
-5.94361782

$$$$

 OpenBabel03242523273D

 44 47  0  0  1  0  0  0  0  0999 V2000
   37.1100   28.6880   41.3800 C   0  0  0  0  0  0  0  0  0  0  0  0
   37.3970   27.8870   40.3720 C   0  0  0  0  0  0  0  0  0  0  0  0
   37.4630   26.5410   40.7000 C   0  0  0  0  0  0  0  0  0  0  0  0
   37.2220   26.1850   42.0480 N   0  0  0  0  0  0  0  0  0  0  0  0
   36.9440   27.0430   42.9950 C   0  0  0  0  0  0  0  0  0  0  0  0
   36.8720   28.3940   42.6850 N   0  0  0  0  0  0  0  0  0  0  0  0
   37.6800   25.7250   40.0240 H   0  0  0  0  0  0  0  0  0  0  0  0
   36.7870   26.6180   43.9780 H   0  0  0  0  0  0  0  0  0  0  0  0
   37.7620   28.2480   39.0240 C   0  0  1  0  0  0  0  0  0  0  0  0
   37.6040   27.5030   37.9070 C   0  0  0  0  0  0  0  0  0  0  0  0
   36.5140   28.5270   38.0540 C   0  0  1  0  0  0  0  0  0  0  0  0
   38.3770   29.2050   39.0420 H   0  0  0  0  0  0  0  0  0  0  0  0
   38.2160   27.6520   36.9780 H   0  0  0  0  0  0  0  0  0  0  0  0
   37.2650   26.4290   37.9310 H   0  0  0  0  0  0  0  0  0  0  0  0
   36.5800   29.4540   37.4610 H   0  0  0  0  0  0  0  0  0  0  0  0
   35.2640   28.0760   38.5450 N   0  0  0  0  0  0  0  0  0  0  0  0
   34.9700   28.4830   39.4460 H   0  0  0  0  0  0  0  0  0  0  0  0
   34.6520   30.1170   36.7220 H   0  0  0  0  0  0  0  0  0  0  0  0
   34.7910   29.1150   36.4970 N   0  0  0  0  0  0  0  0  0  0  0  0
   34.2580   28.2700   37.5230 C   0  0  1  0  0  3  0  0  0  0  0  0
   33.8470   26.9120   37.0140 C   0  0  0  0  0  3  0  0  0  0  0  0
   32.7810   26.8730   36.7430 H   0  0  0  0  0  0  0  0  0  0  0  0
   34.6740   26.6380   35.9000 O   0  0  0  0  0  0  0  0  0  0  0  0
   34.1810   27.4110   34.8500 C   0  0  0  0  0  2  0  0  0  0  0  0
   34.1460   28.8800   35.2190 C   0  0  0  0  0  2  0  0  0  0  0  0
   36.9100   30.1620   41.2820 C   0  0  0  0  0  0  0  0  0  0  0  0
   36.2620   31.1640   41.2370 O   0  0  0  0  0  0  0  0  0  0  0  0
   37.5580   31.9400   38.8290 Cl  0  0  0  0  0  0  0  0  0  0  0  0
   38.7140   31.6340   40.1110 C   0  0  0  0  0  0  0  0  0  0  0  0
   38.2730   30.8090   41.1790 C   0  0  0  0  0  0  0  0  0  0  0  0
   39.2640   30.6580   42.1100 C   0  0  0  0  0  0  0  0  0  0  0  0
   40.4890   31.1360   42.1540 C   0  0  0  0  0  0  0  0  0  0  0  0
   40.8680   31.9330   41.0890 C   0  0  0  0  0  0  0  0  0  0  0  0
   39.9990   32.1800   40.0830 C   0  0  0  0  0  0  0  0  0  0  0  0
   39.0070   30.0310   43.0040 H   0  0  0  0  0  0  0  0  0  0  0  0
   41.2080   30.9500   42.9560 H   0  0  0  0  0  0  0  0  0  0  0  0
   41.8930   32.3460   41.1020 H   0  0  0  0  0  0  0  0  0  0  0  0
   40.4800   32.9830   39.0810 O   0  0  0  0  0  0  0  0  0  0  0  0
   42.0290   31.3640   37.7190 O   0  0  0  0  0  0  0  0  0  0  0  0
   41.1440   32.5720   37.5830 P   0  0  0  0  0  0  0  0  0  0  0  0
   39.8800   32.2840   36.4890 O   0  0  0  0  0  0  0  0  0  0  0  0
   39.4450   31.4130   36.7460 H   0  0  0  0  0  0  0  0  0  0  0  0
   42.0370   33.8550   36.9280 O   0  0  0  0  0  0  0  0  0  0  0  0
   42.6140   33.4680   36.2240 H   0  0  0  0  0  0  0  0  0  0  0  0
  1  6  1  0  0  0  0
  2  3  1  0  0  0  0
  2  1  2  0  0  0  0
  3  4  2  0  0  0  0
  4  5  1  0  0  0  0
  5  8  1  0  0  0  0
  6  5  2  0  0  0  0
  7  3  1  0  0  0  0
  9 12  1  6  0  0  0
  9  2  1  0  0  0  0
 10 14  1  0  0  0  0
 10 11  1  0  0  0  0
 10  9  1  0  0  0  0
 11 15  1  6  0  0  0
 11 16  1  0  0  0  0
 11  9  1  0  0  0  0
 13 10  1  0  0  0  0
 16 17  1  0  0  0  0
 19 18  1  0  0  0  0
 19 20  1  0  0  0  0
 20 16  1  1  0  0  0
 21 20  1  0  0  0  0
 22 21  1  0  0  0  0
 23 21  1  0  0  0  0
 24 25  1  0  0  0  0
 24 23  1  0  0  0  0
 25 19  1  0  0  0  0
 26  1  1  0  0  0  0
 27 26  2  0  0  0  0
 28 29  1  0  0  0  0
 29 30  1  0  0  0  0
 30 26  1  0  0  0  0
 30 31  2  0  0  0  0
 31 32  1  0  0  0  0
 31 35  1  0  0  0  0
 32 36  1  0  0  0  0
 33 37  1  0  0  0  0
 33 32  2  0  0  0  0
 34 29  2  0  0  0  0
 34 33  1  0  0  0  0
 38 34  1  0  0  0  0
 40 39  2  0  0  0  0
 40 38  1  0  0  0  0
 41 42  1  0  0  0  0
 41 40  1  0  0  0  0
 43 40  1  0  0  0  0
 44 43  1  0  0  0  0
M  END
>  <minimizedAffinity>
-5.92486763

$$$$

 OpenBabel03242523273D

 44 47  0  0  1  0  0  0  0  0999 V2000
   37.5170   30.0890   39.5660 C   0  0  0  0  0  0  0  0  0  0  0  0
   37.5730   31.2190   38.8880 C   0  0  0  0  0  0  0  0  0  0  0  0
   37.7650   31.0670   37.5230 C   0  0  0  0  0  0  0  0  0  0  0  0
   37.8800   29.7500   37.0220 N   0  0  0  0  0  0  0  0  0  0  0  0
   37.8150   28.6750   37.7630 C   0  0  0  0  0  0  0  0  0  0  0  0
   37.6210   28.8060   39.1310 N   0  0  0  0  0  0  0  0  0  0  0  0
   37.8370   31.8630   36.7930 H   0  0  0  0  0  0  0  0  0  0  0  0
   37.9220   27.7360   37.2340 H   0  0  0  0  0  0  0  0  0  0  0  0
   37.5780   32.5670   39.4030 C   0  0  1  0  0  0  0  0  0  0  0  0
   38.0150   32.9770   40.6140 C   0  0  0  0  0  0  0  0  0  0  0  0
   39.0400   33.2160   39.5410 C   0  0  1  0  0  0  0  0  0  0  0  0
   36.9900   33.2420   38.7010 H   0  0  0  0  0  0  0  0  0  0  0  0
   37.6690   33.9270   41.1010 H   0  0  0  0  0  0  0  0  0  0  0  0
   38.3250   32.2620   41.4270 H   0  0  0  0  0  0  0  0  0  0  0  0
   39.1410   34.2330   39.1280 H   0  0  0  0  0  0  0  0  0  0  0  0
   40.1120   32.2940   39.4540 N   0  0  0  0  0  0  0  0  0  0  0  0
   40.1750   31.7710   38.5670 H   0  0  0  0  0  0  0  0  0  0  0  0
   40.9870   34.0210   41.4820 H   0  0  0  0  0  0  0  0  0  0  0  0
   41.4600   33.1540   41.1690 N   0  0  0  0  0  0  0  0  0  0  0  0
   41.3500   32.9830   39.7510 C   0  0  1  0  0  3  0  0  0  0  0  0
   42.4810   32.1760   39.1660 C   0  0  0  0  0  3  0  0  0  0  0  0
   43.3000   32.8130   38.7970 H   0  0  0  0  0  0  0  0  0  0  0  0
   42.9220   31.3080   40.1900 O   0  0  0  0  0  0  0  0  0  0  0  0
   43.6630   32.0920   41.0730 C   0  0  0  0  0  2  0  0  0  0  0  0
   42.8450   33.2570   41.5910 C   0  0  0  0  0  2  0  0  0  0  0  0
   37.2470   29.9710   41.0280 C   0  0  0  0  0  0  0  0  0  0  0  0
   36.5900   30.0840   42.0180 O   0  0  0  0  0  0  0  0  0  0  0  0
   37.1110   27.0750   42.1210 Cl  0  0  0  0  0  0  0  0  0  0  0  0
   38.5530   28.0650   42.2350 C   0  0  0  0  0  0  0  0  0  0  0  0
   38.4730   29.3690   41.6790 C   0  0  0  0  0  0  0  0  0  0  0  0
   39.6630   30.0290   41.8260 C   0  0  0  0  0  0  0  0  0  0  0  0
   40.7970   29.6530   42.3760 C   0  0  0  0  0  0  0  0  0  0  0  0
   40.8220   28.3740   42.9020 C   0  0  0  0  0  0  0  0  0  0  0  0
   39.7220   27.5910   42.8350 C   0  0  0  0  0  0  0  0  0  0  0  0
   39.7040   31.0680   41.4040 H   0  0  0  0  0  0  0  0  0  0  0  0
   41.6980   30.2680   42.4410 H   0  0  0  0  0  0  0  0  0  0  0  0
   41.7640   28.0340   43.3690 H   0  0  0  0  0  0  0  0  0  0  0  0
   39.8600   26.3430   43.3870 O   0  0  0  0  0  0  0  0  0  0  0  0
   40.2220   24.9370   41.2040 O   0  0  0  0  0  0  0  0  0  0  0  0
   40.4100   24.9040   42.6960 P   0  0  0  0  0  0  0  0  0  0  0  0
   42.0430   24.6940   43.1020 O   0  0  0  0  0  0  0  0  0  0  0  0
   42.5780   25.3690   42.5790 H   0  0  0  0  0  0  0  0  0  0  0  0
   39.6000   23.5590   43.3370 O   0  0  0  0  0  0  0  0  0  0  0  0
   39.7540   22.8110   42.7100 H   0  0  0  0  0  0  0  0  0  0  0  0
  1 26  1  0  0  0  0
  2  9  1  0  0  0  0
  2  1  2  0  0  0  0
  3  2  1  0  0  0  0
  4  3  2  0  0  0  0
  4  5  1  0  0  0  0
  5  6  2  0  0  0  0
  6  1  1  0  0  0  0
  7  3  1  0  0  0  0
  8  5  1  0  0  0  0
  9 12  1  6  0  0  0
  9 11  1  0  0  0  0
  9 10  1  0  0  0  0
 10 13  1  0  0  0  0
 10 14  1  0  0  0  0
 11 15  1  6  0  0  0
 11 10  1  0  0  0  0
 16 11  1  0  0  0  0
 17 16  1  0  0  0  0
 19 18  1  0  0  0  0
 19 25  1  0  0  0  0
 20 16  1  1  0  0  0
 20 19  1  0  0  0  0
 21 20  1  0  0  0  0
 21 23  1  0  0  0  0
 22 21  1  0  0  0  0
 23 24  1  0  0  0  0
 24 25  1  0  0  0  0
 26 30  1  0  0  0  0
 26 27  2  0  0  0  0
 28 29  1  0  0  0  0
 29 34  1  0  0  0  0
 30 31  1  0  0  0  0
 30 29  2  0  0  0  0
 31 32  2  0  0  0  0
 32 36  1  0  0  0  0
 32 33  1  0  0  0  0
 33 37  1  0  0  0  0
 34 33  2  0  0  0  0
 34 38  1  0  0  0  0
 35 31  1  0  0  0  0
 39 40  2  0  0  0  0
 40 41  1  0  0  0  0
 40 43  1  0  0  0  0
 40 38  1  0  0  0  0
 42 41  1  0  0  0  0
 44 43  1  0  0  0  0
M  END
>  <minimizedAffinity>
-5.91266966

$$$$

 OpenBabel03242523273D

 44 47  0  0  1  0  0  0  0  0999 V2000
   36.1050   27.3350   39.5410 C   0  0  0  0  0  0  0  0  0  0  0  0
   36.8360   26.9580   40.5720 C   0  0  0  0  0  0  0  0  0  0  0  0
   37.5740   25.8010   40.3690 C   0  0  0  0  0  0  0  0  0  0  0  0
   37.4620   25.1680   39.1090 N   0  0  0  0  0  0  0  0  0  0  0  0
   36.7100   25.6050   38.1330 C   0  0  0  0  0  0  0  0  0  0  0  0
   35.9660   26.7620   38.3170 N   0  0  0  0  0  0  0  0  0  0  0  0
   38.2360   25.3290   41.0820 H   0  0  0  0  0  0  0  0  0  0  0  0
   36.7280   25.0100   37.2280 H   0  0  0  0  0  0  0  0  0  0  0  0
   36.8650   27.5260   41.8980 C   0  0  1  0  0  0  0  0  0  0  0  0
   37.7620   27.2720   42.8760 C   0  0  0  0  0  0  0  0  0  0  0  0
   38.0740   28.5510   42.1510 C   0  0  1  0  0  0  0  0  0  0  0  0
   35.9050   28.1090   42.0810 H   0  0  0  0  0  0  0  0  0  0  0  0
   37.5440   27.4340   43.9650 H   0  0  0  0  0  0  0  0  0  0  0  0
   38.5440   26.4660   42.7940 H   0  0  0  0  0  0  0  0  0  0  0  0
   37.7880   29.5050   42.6220 H   0  0  0  0  0  0  0  0  0  0  0  0
   39.1050   28.5090   41.1800 N   0  0  0  0  0  0  0  0  0  0  0  0
   39.2760   29.3930   40.6770 H   0  0  0  0  0  0  0  0  0  0  0  0
   41.1190   26.7070   40.4320 H   0  0  0  0  0  0  0  0  0  0  0  0
   41.2580   27.6750   40.7740 N   0  0  0  0  0  0  0  0  0  0  0  0
   40.3140   28.0080   41.7980 C   0  0  1  0  0  3  0  0  0  0  0  0
   40.8210   29.0650   42.7460 C   0  0  0  0  0  3  0  0  0  0  0  0
   41.2950   28.6300   43.6400 H   0  0  0  0  0  0  0  0  0  0  0  0
   41.7340   29.8550   42.0100 O   0  0  0  0  0  0  0  0  0  0  0  0
   42.9000   29.1000   41.8980 C   0  0  0  0  0  2  0  0  0  0  0  0
   42.6240   27.7560   41.2560 C   0  0  0  0  0  2  0  0  0  0  0  0
   35.2800   28.5750   39.4730 C   0  0  0  0  0  0  0  0  0  0  0  0
   34.2990   29.2310   39.6500 O   0  0  0  0  0  0  0  0  0  0  0  0
   36.2030   31.0140   41.1460 Cl  0  0  0  0  0  0  0  0  0  0  0  0
   36.5940   30.8260   39.4480 C   0  0  0  0  0  0  0  0  0  0  0  0
   36.1140   29.6500   38.8120 C   0  0  0  0  0  0  0  0  0  0  0  0
   36.4950   29.6250   37.4980 C   0  0  0  0  0  0  0  0  0  0  0  0
   37.1950   30.4790   36.7850 C   0  0  0  0  0  0  0  0  0  0  0  0
   37.6390   31.6070   37.4510 C   0  0  0  0  0  0  0  0  0  0  0  0
   37.3460   31.7810   38.7600 C   0  0  0  0  0  0  0  0  0  0  0  0
   36.1730   28.7240   36.9110 H   0  0  0  0  0  0  0  0  0  0  0  0
   37.4450   30.3590   35.7270 H   0  0  0  0  0  0  0  0  0  0  0  0
   38.2300   32.3400   36.8730 H   0  0  0  0  0  0  0  0  0  0  0  0
   37.8370   32.9330   39.3190 O   0  0  0  0  0  0  0  0  0  0  0  0
   40.3000   33.8260   39.4000 O   0  0  0  0  0  0  0  0  0  0  0  0
   39.2290   33.1860   40.2400 P   0  0  0  0  0  0  0  0  0  0  0  0
   38.8320   34.1590   41.5710 O   0  0  0  0  0  0  0  0  0  0  0  0
   38.6620   35.0910   41.2290 H   0  0  0  0  0  0  0  0  0  0  0  0
   39.8150   31.7330   40.8900 O   0  0  0  0  0  0  0  0  0  0  0  0
   40.7500   31.9020   41.1610 H   0  0  0  0  0  0  0  0  0  0  0  0
  1  2  1  0  0  0  0
  2  9  1  0  0  0  0
  3  2  2  0  0  0  0
  3  7  1  0  0  0  0
  4  3  1  0  0  0  0
  5  6  1  0  0  0  0
  5  4  2  0  0  0  0
  6  1  2  0  0  0  0
  8  5  1  0  0  0  0
  9 12  1  1  0  0  0
  9 11  1  0  0  0  0
  9 10  1  0  0  0  0
 10 13  1  0  0  0  0
 11 15  1  1  0  0  0
 11 10  1  0  0  0  0
 14 10  1  0  0  0  0
 16 11  1  0  0  0  0
 17 16  1  0  0  0  0
 18 19  1  0  0  0  0
 19 25  1  0  0  0  0
 19 20  1  0  0  0  0
 20 16  1  6  0  0  0
 20 21  1  0  0  0  0
 21 22  1  0  0  0  0
 23 21  1  0  0  0  0
 24 23  1  0  0  0  0
 25 24  1  0  0  0  0
 26  1  1  0  0  0  0
 26 27  2  0  0  0  0
 29 28  1  0  0  0  0
 30 29  1  0  0  0  0
 30 26  1  0  0  0  0
 31 30  2  0  0  0  0
 32 33  2  0  0  0  0
 32 31  1  0  0  0  0
 33 34  1  0  0  0  0
 34 38  1  0  0  0  0
 34 29  2  0  0  0  0
 35 31  1  0  0  0  0
 36 32  1  0  0  0  0
 37 33  1  0  0  0  0
 38 40  1  0  0  0  0
 39 40  2  0  0  0  0
 40 43  1  0  0  0  0
 40 41  1  0  0  0  0
 42 41  1  0  0  0  0
 43 44  1  0  0  0  0
M  END
>  <minimizedAffinity>
-5.75195599

$$$$

 OpenBabel03242523273D

 44 47  0  0  1  0  0  0  0  0999 V2000
   39.0460   29.7770   42.1600 C   0  0  0  0  0  0  0  0  0  0  0  0
   38.6560   30.7000   41.3030 C   0  0  0  0  0  0  0  0  0  0  0  0
   39.6850   31.4230   40.7190 C   0  0  0  0  0  0  0  0  0  0  0  0
   41.0080   31.1000   41.1000 N   0  0  0  0  0  0  0  0  0  0  0  0
   41.3150   30.1670   41.9630 C   0  0  0  0  0  0  0  0  0  0  0  0
   40.2990   29.4320   42.5560 N   0  0  0  0  0  0  0  0  0  0  0  0
   39.5790   32.2170   39.9920 H   0  0  0  0  0  0  0  0  0  0  0  0
   42.3730   30.0390   42.1540 H   0  0  0  0  0  0  0  0  0  0  0  0
   37.3090   31.1180   40.9970 C   0  0  1  0  0  0  0  0  0  0  0  0
   36.9250   32.0260   40.0720 C   0  0  0  0  0  0  0  0  0  0  0  0
   36.7690   30.6180   39.5710 C   0  0  1  0  0  0  0  0  0  0  0  0
   36.5960   30.6970   41.7780 H   0  0  0  0  0  0  0  0  0  0  0  0
   35.9490   32.5780   40.1230 H   0  0  0  0  0  0  0  0  0  0  0  0
   37.6570   32.6640   39.5010 H   0  0  0  0  0  0  0  0  0  0  0  0
   35.7640   30.1640   39.5830 H   0  0  0  0  0  0  0  0  0  0  0  0
   37.7670   30.1290   38.6930 N   0  0  0  0  0  0  0  0  0  0  0  0
   38.2350   29.2600   38.9940 H   0  0  0  0  0  0  0  0  0  0  0  0
   38.8150   29.7590   36.1190 H   0  0  0  0  0  0  0  0  0  0  0  0
   38.0770   29.1870   36.5690 N   0  0  0  0  0  0  0  0  0  0  0  0
   37.2040   29.9950   37.3660 C   0  0  1  0  0  3  0  0  0  0  0  0
   35.8230   29.4090   37.5070 C   0  0  0  0  0  3  0  0  0  0  0  0
   35.1250   29.8010   36.7510 H   0  0  0  0  0  0  0  0  0  0  0  0
   35.9720   28.0080   37.3940 O   0  0  0  0  0  0  0  0  0  0  0  0
   36.1710   27.7450   36.0400 C   0  0  0  0  0  2  0  0  0  0  0  0
   37.3590   28.5150   35.5010 C   0  0  0  0  0  2  0  0  0  0  0  0
   38.1490   28.8180   42.8670 C   0  0  0  0  0  0  0  0  0  0  0  0
   37.1930   28.5060   43.5100 O   0  0  0  0  0  0  0  0  0  0  0  0
   37.5950   27.2220   40.2700 Cl  0  0  0  0  0  0  0  0  0  0  0  0
   38.5570   26.5840   41.5890 C   0  0  0  0  0  0  0  0  0  0  0  0
   38.7370   27.4330   42.7120 C   0  0  0  0  0  0  0  0  0  0  0  0
   39.5090   26.8190   43.6610 C   0  0  0  0  0  0  0  0  0  0  0  0
   40.0710   25.6300   43.6800 C   0  0  0  0  0  0  0  0  0  0  0  0
   39.8650   24.8430   42.5610 C   0  0  0  0  0  0  0  0  0  0  0  0
   39.1220   25.3070   41.5320 C   0  0  0  0  0  0  0  0  0  0  0  0
   39.7200   27.4180   44.5850 H   0  0  0  0  0  0  0  0  0  0  0  0
   40.6760   25.2340   44.5000 H   0  0  0  0  0  0  0  0  0  0  0  0
   40.3270   23.8390   42.5540 H   0  0  0  0  0  0  0  0  0  0  0  0
   38.9840   24.4430   40.4760 O   0  0  0  0  0  0  0  0  0  0  0  0
   37.6770   23.0520   38.6790 O   0  0  0  0  0  0  0  0  0  0  0  0
   37.7850   23.2980   40.1580 P   0  0  0  0  0  0  0  0  0  0  0  0
   38.1640   21.8690   40.9890 O   0  0  0  0  0  0  0  0  0  0  0  0
   38.9530   21.4460   40.5280 H   0  0  0  0  0  0  0  0  0  0  0  0
   36.2790   23.7940   40.7600 O   0  0  0  0  0  0  0  0  0  0  0  0
   35.5970   23.2410   40.3040 H   0  0  0  0  0  0  0  0  0  0  0  0
  1  6  1  0  0  0  0
  1 26  1  0  0  0  0
  2  1  2  0  0  0  0
  3  4  2  0  0  0  0
  3  2  1  0  0  0  0
  4  5  1  0  0  0  0
  5  8  1  0  0  0  0
  5  6  2  0  0  0  0
  7  3  1  0  0  0  0
  9  2  1  0  0  0  0
  9 12  1  1  0  0  0
 10 13  1  0  0  0  0
 10  9  1  0  0  0  0
 11 15  1  6  0  0  0
 11 10  1  0  0  0  0
 11  9  1  0  0  0  0
 14 10  1  0  0  0  0
 16 17  1  0  0  0  0
 16 11  1  0  0  0  0
 18 19  1  0  0  0  0
 19 20  1  0  0  0  0
 20 21  1  0  0  0  0
 20 16  1  1  0  0  0
 22 21  1  0  0  0  0
 23 21  1  0  0  0  0
 24 23  1  0  0  0  0
 25 24  1  0  0  0  0
 25 19  1  0  0  0  0
 26 27  2  0  0  0  0
 28 29  1  0  0  0  0
 29 30  1  0  0  0  0
 30 26  1  0  0  0  0
 30 31  2  0  0  0  0
 31 32  1  0  0  0  0
 31 35  1  0  0  0  0
 32 36  1  0  0  0  0
 33 32  2  0  0  0  0
 34 29  2  0  0  0  0
 34 33  1  0  0  0  0
 37 33  1  0  0  0  0
 38 34  1  0  0  0  0
 39 40  2  0  0  0  0
 40 38  1  0  0  0  0
 40 43  1  0  0  0  0
 40 41  1  0  0  0  0
 42 41  1  0  0  0  0
 44 43  1  0  0  0  0
M  END
>  <minimizedAffinity>
-5.72894859

$$$$
