
 OpenBabel03252509123D

 31 34  0  0  1  0  0  0  0  0999 V2000
   47.1690   32.2340   43.9430 C   0  0  0  0  0  0  0  0  0  0  0  0
   48.2040   31.5450   43.3070 C   0  0  0  0  0  0  0  0  0  0  0  0
   49.0390   32.1360   42.3710 C   0  0  0  0  0  0  0  0  0  0  0  0
   48.8440   33.4840   42.0430 C   0  0  0  0  0  0  0  0  0  0  0  0
   49.4290   34.3640   41.2110 N   0  0  0  0  0  0  0  0  0  0  0  0
   48.8140   35.5580   41.2970 C   0  0  0  0  0  0  0  0  0  0  0  0
   47.8370   35.3950   42.2010 N   0  0  0  0  0  0  0  0  0  0  0  0
   47.8240   34.1390   42.6790 C   0  0  0  0  0  0  0  0  0  0  0  0
   46.9710   33.5780   43.6190 C   0  0  0  0  0  0  0  0  0  0  0  0
   46.5240   31.7670   44.6720 H   0  0  0  0  0  0  0  0  0  0  0  0
   50.2370   34.1590   40.5940 H   0  0  0  0  0  0  0  0  0  0  0  0
   49.0630   36.4540   40.7510 H   0  0  0  0  0  0  0  0  0  0  0  0
   46.1880   34.1400   44.0850 H   0  0  0  0  0  0  0  0  0  0  0  0
   48.0160   27.8880   43.1840 C   0  0  0  0  0  0  0  0  0  0  0  0
   48.8180   27.4960   44.2630 C   0  0  0  0  0  0  0  0  0  0  0  0
   49.4140   28.5030   45.0190 C   0  0  0  0  0  0  0  0  0  0  0  0
   49.1990   29.8180   44.6880 N   0  0  0  0  0  0  0  0  0  0  0  0
   48.4160   30.1400   43.6380 C   0  0  0  0  0  0  0  0  0  0  0  0
   47.8120   29.1930   42.8690 N   0  0  0  0  0  0  0  0  0  0  0  0
   47.4930   27.2140   42.5140 H   0  0  0  0  0  0  0  0  0  0  0  0
   48.9050   26.4410   44.4150 H   0  0  0  0  0  0  0  0  0  0  0  0
   50.0240   28.1950   45.8420 H   0  0  0  0  0  0  0  0  0  0  0  0
   50.3510   31.2420   41.5820 S   0  0  0  0  0  0  0  0  0  0  0  0
   51.3650   32.4000   39.5920 H   0  0  0  0  0  0  0  0  0  0  0  0
   50.4690   32.0970   39.0990 N   0  0  0  0  0  0  0  0  0  0  0  0
   50.0470   30.9180   39.8270 C   0  0  1  0  0  3  0  0  0  0  0  0
   50.9040   29.7010   39.4660 C   0  0  0  0  0  3  0  0  0  0  0  0
   51.8740   29.7170   40.0030 H   0  0  0  0  0  0  0  0  0  0  0  0
   51.1520   29.5860   38.1230 O   0  0  0  0  0  0  0  0  0  0  0  0
   50.4460   30.4240   37.3000 C   0  0  0  0  0  2  0  0  0  0  0  0
   50.7030   31.8550   37.7040 C   0  0  0  0  0  2  0  0  0  0  0  0
  1 10  1  0  0  0  0
  2 18  1  0  0  0  0
  2  1  2  0  0  0  0
  3  2  1  0  0  0  0
  4  3  2  0  0  0  0
  4  8  1  0  0  0  0
  5  6  1  0  0  0  0
  5  4  1  0  0  0  0
  6  7  2  0  0  0  0
  7  8  1  0  0  0  0
  8  9  2  0  0  0  0
  9  1  1  0  0  0  0
  9 13  1  0  0  0  0
 11  5  1  0  0  0  0
 12  6  1  0  0  0  0
 14 15  1  0  0  0  0
 15 21  1  0  0  0  0
 15 16  2  0  0  0  0
 16 22  1  0  0  0  0
 17 16  1  0  0  0  0
 18 17  2  0  0  0  0
 19 14  2  0  0  0  0
 19 18  1  0  0  0  0
 20 14  1  0  0  0  0
 23  3  1  0  0  0  0
 25 24  1  0  0  0  0
 25 26  1  0  0  0  0
 26 23  1  1  0  0  0
 27 26  1  0  0  0  0
 27 28  1  0  0  0  0
 29 27  1  0  0  0  0
 30 31  1  0  0  0  0
 30 29  1  0  0  0  0
 31 25  1  0  0  0  0
M  END
>  <minimizedAffinity>
-3.63227224

>  <minimizedRMSD>
7.71815443

$$$$
