
 OpenBabel03252502033D

 33 36  0  0  0  0  0  0  0  0999 V2000
   37.2310   32.2120   39.9520 C   0  0  0  0  0  0  0  0  0  0  0  0
   37.0160   31.0770   40.7160 C   0  0  0  0  0  0  0  0  0  0  0  0
   38.0490   30.1880   40.7840 C   0  0  0  0  0  0  0  0  0  0  0  0
   39.1970   30.4420   40.1290 N   0  0  0  0  0  0  0  0  0  0  0  0
   39.3920   31.5250   39.4060 C   0  0  0  0  0  0  0  0  0  0  0  0
   38.3860   32.4000   39.3320 N   0  0  0  0  0  0  0  0  0  0  0  0
   36.3980   32.9330   39.8950 H   0  0  0  0  0  0  0  0  0  0  0  0
   37.9500   28.9890   41.5340 N   0  0  0  0  0  0  0  0  0  0  0  0
   38.0280   29.0220   42.9800 C   0  0  0  0  0  3  0  0  0  0  0  0
   37.8310   30.0490   43.3650 H   0  0  0  0  0  0  0  0  0  0  0  0
   37.0530   28.1120   43.6610 C   0  0  0  0  0  3  0  0  0  0  0  0
   36.1320   28.6790   43.9130 H   0  0  0  0  0  0  0  0  0  0  0  0
   36.7620   26.9480   42.9780 O   0  0  0  0  0  0  0  0  0  0  0  0
   37.8370   26.6520   42.1470 C   0  0  0  0  0  2  0  0  0  0  0  0
   37.7690   27.6630   41.0170 C   0  0  0  0  0  2  0  0  0  0  0  0
   40.5520   31.9810   38.6270 C   0  0  0  0  0  0  0  0  0  0  0  0
   41.0440   33.2460   38.6690 N   0  0  0  0  0  0  0  0  0  0  0  0
   42.0930   33.6970   37.9790 C   0  0  0  0  0  0  0  0  0  0  0  0
   42.7540   32.8600   37.1530 N   0  0  0  0  0  0  0  0  0  0  0  0
   42.3680   31.5770   37.0190 C   0  0  0  0  0  0  0  0  0  0  0  0
   43.0530   30.7220   36.1690 C   0  0  0  0  0  0  0  0  0  0  0  0
   42.6680   29.4170   36.0270 C   0  0  0  0  0  0  0  0  0  0  0  0
   41.5860   29.0010   36.7580 C   0  0  0  0  0  0  0  0  0  0  0  0
   40.9310   29.8760   37.5910 C   0  0  0  0  0  0  0  0  0  0  0  0
   41.2720   31.1840   37.7690 C   0  0  0  0  0  0  0  0  0  0  0  0
   42.3840   34.7320   38.1030 H   0  0  0  0  0  0  0  0  0  0  0  0
   43.8950   31.1430   35.6340 H   0  0  0  0  0  0  0  0  0  0  0  0
   43.2700   28.8420   35.3410 H   0  0  0  0  0  0  0  0  0  0  0  0
   41.2970   27.9560   36.6290 H   0  0  0  0  0  0  0  0  0  0  0  0
   40.0740   29.4790   38.1470 H   0  0  0  0  0  0  0  0  0  0  0  0
   35.7820   30.8980   41.3630 N   0  0  0  0  0  0  0  0  0  0  0  0
   35.5310   31.0820   42.3580 H   0  0  0  0  0  0  0  0  0  0  0  0
   35.1040   30.5260   40.6350 H   0  0  0  0  0  0  0  0  0  0  0  0
  1  2  1  0  0  0  0
  2  3  2  0  0  0  0
  2 31  1  0  0  0  0
  3  8  1  0  0  0  0
  4  3  1  0  0  0  0
  5  4  2  0  0  0  0
  6  5  1  0  0  0  0
  6  1  2  0  0  0  0
  7  1  1  0  0  0  0
  8  9  1  0  0  0  0
  9 10  1  0  0  0  0
  9 11  1  0  0  0  0
 11 12  1  0  0  0  0
 13 11  1  0  0  0  0
 14 13  1  0  0  0  0
 15  8  1  0  0  0  0
 15 14  1  0  0  0  0
 16 17  1  0  0  0  0
 16  5  1  0  0  0  0
 18 26  1  0  0  0  0
 18 17  2  0  0  0  0
 19 18  1  0  0  0  0
 20 19  2  0  0  0  0
 20 25  1  0  0  0  0
 21 20  1  0  0  0  0
 22 21  2  0  0  0  0
 22 23  1  0  0  0  0
 23 24  2  0  0  0  0
 24 25  1  0  0  0  0
 24 30  1  0  0  0  0
 25 16  2  0  0  0  0
 27 21  1  0  0  0  0
 28 22  1  0  0  0  0
 29 23  1  0  0  0  0
 31 32  1  0  0  0  0
 33 31  1  0  0  0  0
M  END
>  <minimizedAffinity>
-6.60399723

$$$$

 OpenBabel03252502033D

 33 36  0  0  0  0  0  0  0  0999 V2000
   36.1290   30.5240   40.6870 C   0  0  0  0  0  0  0  0  0  0  0  0
   37.1920   31.4020   40.5570 C   0  0  0  0  0  0  0  0  0  0  0  0
   38.4360   30.8440   40.4970 C   0  0  0  0  0  0  0  0  0  0  0  0
   38.5740   29.5060   40.5620 N   0  0  0  0  0  0  0  0  0  0  0  0
   37.5570   28.6790   40.6860 C   0  0  0  0  0  0  0  0  0  0  0  0
   36.3360   29.2170   40.7460 N   0  0  0  0  0  0  0  0  0  0  0  0
   35.1230   30.9720   40.7350 H   0  0  0  0  0  0  0  0  0  0  0  0
   39.6020   31.6370   40.3640 N   0  0  0  0  0  0  0  0  0  0  0  0
   39.9340   32.2440   39.0910 C   0  0  0  0  0  3  0  0  0  0  0  0
   39.0420   32.2800   38.4240 H   0  0  0  0  0  0  0  0  0  0  0  0
   40.4470   33.6460   39.2020 C   0  0  0  0  0  3  0  0  0  0  0  0
   39.6050   34.3590   39.0790 H   0  0  0  0  0  0  0  0  0  0  0  0
   41.1760   33.9150   40.3440 O   0  0  0  0  0  0  0  0  0  0  0  0
   41.7210   32.7200   40.8030 C   0  0  0  0  0  2  0  0  0  0  0  0
   40.5570   31.9410   41.3900 C   0  0  0  0  0  2  0  0  0  0  0  0
   37.4970   27.2130   40.7740 C   0  0  0  0  0  0  0  0  0  0  0  0
   36.6920   26.4390   40.0020 N   0  0  0  0  0  0  0  0  0  0  0  0
   36.6090   25.1090   40.0520 C   0  0  0  0  0  0  0  0  0  0  0  0
   37.3740   24.4280   40.9310 N   0  0  0  0  0  0  0  0  0  0  0  0
   38.2180   25.0770   41.7560 C   0  0  0  0  0  0  0  0  0  0  0  0
   39.0020   24.3720   42.6560 C   0  0  0  0  0  0  0  0  0  0  0  0
   39.8620   25.0230   43.4970 C   0  0  0  0  0  0  0  0  0  0  0  0
   39.9110   26.3890   43.4070 C   0  0  0  0  0  0  0  0  0  0  0  0
   39.1190   27.0560   42.5030 C   0  0  0  0  0  0  0  0  0  0  0  0
   38.2470   26.4570   41.6430 C   0  0  0  0  0  0  0  0  0  0  0  0
   35.9240   24.6090   39.3800 H   0  0  0  0  0  0  0  0  0  0  0  0
   38.8930   23.2940   42.6530 H   0  0  0  0  0  0  0  0  0  0  0  0
   40.4230   24.3770   44.1560 H   0  0  0  0  0  0  0  0  0  0  0  0
   40.6050   26.8870   44.0880 H   0  0  0  0  0  0  0  0  0  0  0  0
   39.2080   28.1480   42.4820 H   0  0  0  0  0  0  0  0  0  0  0  0
   36.9490   32.7840   40.4960 N   0  0  0  0  0  0  0  0  0  0  0  0
   36.9020   33.4050   39.6610 H   0  0  0  0  0  0  0  0  0  0  0  0
   36.8080   33.1160   41.4960 H   0  0  0  0  0  0  0  0  0  0  0  0
  1  7  1  0  0  0  0
  1  6  1  0  0  0  0
  2  1  2  0  0  0  0
  3  2  1  0  0  0  0
  3  4  2  0  0  0  0
  4  5  1  0  0  0  0
  5  6  2  0  0  0  0
  5 16  1  0  0  0  0
  8  3  1  0  0  0  0
  8 15  1  0  0  0  0
  9 11  1  0  0  0  0
  9  8  1  0  0  0  0
 10  9  1  0  0  0  0
 11 13  1  0  0  0  0
 12 11  1  0  0  0  0
 13 14  1  0  0  0  0
 14 15  1  0  0  0  0
 16 25  1  0  0  0  0
 17 18  1  0  0  0  0
 17 16  2  0  0  0  0
 18 19  2  0  0  0  0
 19 20  1  0  0  0  0
 20 21  1  0  0  0  0
 21 22  2  0  0  0  0
 22 28  1  0  0  0  0
 23 22  1  0  0  0  0
 23 29  1  0  0  0  0
 24 23  2  0  0  0  0
 25 20  2  0  0  0  0
 25 24  1  0  0  0  0
 26 18  1  0  0  0  0
 27 21  1  0  0  0  0
 30 24  1  0  0  0  0
 31  2  1  0  0  0  0
 31 33  1  0  0  0  0
 32 31  1  0  0  0  0
M  END
>  <minimizedAffinity>
-6.33270788

$$$$

 OpenBabel03252502033D

 33 36  0  0  0  0  0  0  0  0999 V2000
   37.2970   32.2900   40.2430 C   0  0  0  0  0  0  0  0  0  0  0  0
   37.0870   31.0980   40.9170 C   0  0  0  0  0  0  0  0  0  0  0  0
   38.1630   30.2670   41.0290 C   0  0  0  0  0  0  0  0  0  0  0  0
   39.3460   30.6270   40.4980 N   0  0  0  0  0  0  0  0  0  0  0  0
   39.5360   31.7620   39.8580 C   0  0  0  0  0  0  0  0  0  0  0  0
   38.4880   32.5820   39.7430 N   0  0  0  0  0  0  0  0  0  0  0  0
   36.4300   32.9640   40.1510 H   0  0  0  0  0  0  0  0  0  0  0  0
   38.0730   29.0200   41.6970 N   0  0  0  0  0  0  0  0  0  0  0  0
   38.0220   28.9660   43.1430 C   0  0  0  0  0  3  0  0  0  0  0  0
   37.7290   29.9550   43.5670 H   0  0  0  0  0  0  0  0  0  0  0  0
   37.0490   27.9620   43.6800 C   0  0  0  0  0  3  0  0  0  0  0  0
   36.0760   28.4580   43.8770 H   0  0  0  0  0  0  0  0  0  0  0  0
   36.8920   26.8280   42.9070 O   0  0  0  0  0  0  0  0  0  0  0  0
   38.0520   26.6460   42.1620 C   0  0  0  0  0  2  0  0  0  0  0  0
   38.0220   27.7210   41.0900 C   0  0  0  0  0  2  0  0  0  0  0  0
   40.7300   32.3310   39.2160 C   0  0  0  0  0  0  0  0  0  0  0  0
   40.8490   32.5310   37.8780 N   0  0  0  0  0  0  0  0  0  0  0  0
   41.9130   33.0430   37.2590 C   0  0  0  0  0  0  0  0  0  0  0  0
   42.9910   33.4100   37.9840 N   0  0  0  0  0  0  0  0  0  0  0  0
   43.0020   33.2650   39.3230 C   0  0  0  0  0  0  0  0  0  0  0  0
   44.1120   33.6440   40.0610 C   0  0  0  0  0  0  0  0  0  0  0  0
   44.1320   33.5010   41.4210 C   0  0  0  0  0  0  0  0  0  0  0  0
   43.0150   32.9710   42.0110 C   0  0  0  0  0  0  0  0  0  0  0  0
   41.9320   32.6050   41.2470 C   0  0  0  0  0  0  0  0  0  0  0  0
   41.8600   32.7270   39.8910 C   0  0  0  0  0  0  0  0  0  0  0  0
   41.8810   33.1500   36.1820 H   0  0  0  0  0  0  0  0  0  0  0  0
   44.9470   34.0530   39.5050 H   0  0  0  0  0  0  0  0  0  0  0  0
   45.0450   33.8280   41.8960 H   0  0  0  0  0  0  0  0  0  0  0  0
   43.0530   32.8660   43.0970 H   0  0  0  0  0  0  0  0  0  0  0  0
   41.0710   32.1880   41.7820 H   0  0  0  0  0  0  0  0  0  0  0  0
   35.8150   30.8100   41.4380 N   0  0  0  0  0  0  0  0  0  0  0  0
   35.4660   30.9170   42.4150 H   0  0  0  0  0  0  0  0  0  0  0  0
   35.2270   30.4460   40.6310 H   0  0  0  0  0  0  0  0  0  0  0  0
  1  2  1  0  0  0  0
  2  3  2  0  0  0  0
  2 31  1  0  0  0  0
  3  8  1  0  0  0  0
  4  3  1  0  0  0  0
  5  4  2  0  0  0  0
  6  5  1  0  0  0  0
  6  1  2  0  0  0  0
  7  1  1  0  0  0  0
  8  9  1  0  0  0  0
  9 10  1  0  0  0  0
  9 11  1  0  0  0  0
 11 12  1  0  0  0  0
 13 11  1  0  0  0  0
 14 13  1  0  0  0  0
 15  8  1  0  0  0  0
 15 14  1  0  0  0  0
 16  5  1  0  0  0  0
 16 25  1  0  0  0  0
 17 16  2  0  0  0  0
 18 17  1  0  0  0  0
 18 19  2  0  0  0  0
 19 20  1  0  0  0  0
 20 25  2  0  0  0  0
 20 21  1  0  0  0  0
 21 22  2  0  0  0  0
 22 28  1  0  0  0  0
 22 23  1  0  0  0  0
 23 29  1  0  0  0  0
 24 30  1  0  0  0  0
 24 23  2  0  0  0  0
 25 24  1  0  0  0  0
 26 18  1  0  0  0  0
 27 21  1  0  0  0  0
 31 32  1  0  0  0  0
 33 31  1  0  0  0  0
M  END
>  <minimizedAffinity>
-6.29888105

$$$$

 OpenBabel03252502033D

 33 36  0  0  0  0  0  0  0  0999 V2000
   37.1460   30.2670   36.9800 C   0  0  0  0  0  0  0  0  0  0  0  0
   38.1550   31.2020   37.1400 C   0  0  0  0  0  0  0  0  0  0  0  0
   39.0420   30.9710   38.1510 C   0  0  0  0  0  0  0  0  0  0  0  0
   38.9050   29.8780   38.9250 N   0  0  0  0  0  0  0  0  0  0  0  0
   37.9420   28.9950   38.7650 C   0  0  0  0  0  0  0  0  0  0  0  0
   37.0690   29.2140   37.7790 N   0  0  0  0  0  0  0  0  0  0  0  0
   36.4280   30.4500   36.1630 H   0  0  0  0  0  0  0  0  0  0  0  0
   40.1170   31.8560   38.4140 N   0  0  0  0  0  0  0  0  0  0  0  0
   41.2790   31.8740   37.5490 C   0  0  0  0  0  3  0  0  0  0  0  0
   41.0480   31.4030   36.5650 H   0  0  0  0  0  0  0  0  0  0  0  0
   41.7980   33.2470   37.2580 C   0  0  0  0  0  3  0  0  0  0  0  0
   41.3530   33.6190   36.3110 H   0  0  0  0  0  0  0  0  0  0  0  0
   41.6430   34.1610   38.2820 O   0  0  0  0  0  0  0  0  0  0  0  0
   41.5770   33.4620   39.4820 C   0  0  0  0  0  2  0  0  0  0  0  0
   40.2120   32.7970   39.4920 C   0  0  0  0  0  2  0  0  0  0  0  0
   37.6240   27.7570   39.4930 C   0  0  0  0  0  0  0  0  0  0  0  0
   37.4890   26.5430   38.9010 N   0  0  0  0  0  0  0  0  0  0  0  0
   37.2020   25.4000   39.5240 C   0  0  0  0  0  0  0  0  0  0  0  0
   37.0200   25.4000   40.8610 N   0  0  0  0  0  0  0  0  0  0  0  0
   37.1270   26.5400   41.5700 C   0  0  0  0  0  0  0  0  0  0  0  0
   36.9390   26.5340   42.9440 C   0  0  0  0  0  0  0  0  0  0  0  0
   37.0450   27.6870   43.6720 C   0  0  0  0  0  0  0  0  0  0  0  0
   37.3430   28.8340   42.9860 C   0  0  0  0  0  0  0  0  0  0  0  0
   37.5210   28.8040   41.6230 C   0  0  0  0  0  0  0  0  0  0  0  0
   37.4270   27.6840   40.8510 C   0  0  0  0  0  0  0  0  0  0  0  0
   37.1220   24.4960   38.9340 H   0  0  0  0  0  0  0  0  0  0  0  0
   36.7070   25.5770   43.3970 H   0  0  0  0  0  0  0  0  0  0  0  0
   36.8800   27.5670   44.7320 H   0  0  0  0  0  0  0  0  0  0  0  0
   37.4230   29.7430   43.5870 H   0  0  0  0  0  0  0  0  0  0  0  0
   37.7580   29.7580   41.1360 H   0  0  0  0  0  0  0  0  0  0  0  0
   38.2160   32.3120   36.2810 N   0  0  0  0  0  0  0  0  0  0  0  0
   38.8140   32.4570   35.4390 H   0  0  0  0  0  0  0  0  0  0  0  0
   37.5130   33.0210   36.6430 H   0  0  0  0  0  0  0  0  0  0  0  0
  1  2  2  0  0  0  0
  1  6  1  0  0  0  0
  2  3  1  0  0  0  0
  3  8  1  0  0  0  0
  3  4  2  0  0  0  0
  5  4  1  0  0  0  0
  5 16  1  0  0  0  0
  6  5  2  0  0  0  0
  7  1  1  0  0  0  0
  8 15  1  0  0  0  0
  9  8  1  0  0  0  0
 10  9  1  0  0  0  0
 11  9  1  0  0  0  0
 11 13  1  0  0  0  0
 12 11  1  0  0  0  0
 13 14  1  0  0  0  0
 14 15  1  0  0  0  0
 16 25  1  0  0  0  0
 17 16  2  0  0  0  0
 17 18  1  0  0  0  0
 18 19  2  0  0  0  0
 19 20  1  0  0  0  0
 20 21  1  0  0  0  0
 21 27  1  0  0  0  0
 21 22  2  0  0  0  0
 22 28  1  0  0  0  0
 23 29  1  0  0  0  0
 23 22  1  0  0  0  0
 24 23  2  0  0  0  0
 25 20  2  0  0  0  0
 25 24  1  0  0  0  0
 26 18  1  0  0  0  0
 30 24  1  0  0  0  0
 31 33  1  0  0  0  0
 31  2  1  0  0  0  0
 32 31  1  0  0  0  0
M  END
>  <minimizedAffinity>
-6.16171312

$$$$

 OpenBabel03252502033D

 33 36  0  0  0  0  0  0  0  0999 V2000
   35.9670   30.5660   40.8010 C   0  0  0  0  0  0  0  0  0  0  0  0
   37.0930   31.3430   40.5860 C   0  0  0  0  0  0  0  0  0  0  0  0
   38.2800   30.6770   40.4930 C   0  0  0  0  0  0  0  0  0  0  0  0
   38.3070   29.3360   40.6100 N   0  0  0  0  0  0  0  0  0  0  0  0
   37.2310   28.6060   40.8150 C   0  0  0  0  0  0  0  0  0  0  0  0
   36.0640   29.2500   40.9080 N   0  0  0  0  0  0  0  0  0  0  0  0
   35.0060   31.1010   40.8760 H   0  0  0  0  0  0  0  0  0  0  0  0
   39.5020   31.3610   40.2740 N   0  0  0  0  0  0  0  0  0  0  0  0
   39.8210   31.8860   38.9620 C   0  0  0  0  0  3  0  0  0  0  0  0
   38.9040   31.9740   38.3360 H   0  0  0  0  0  0  0  0  0  0  0  0
   40.4560   33.2410   38.9890 C   0  0  0  0  0  3  0  0  0  0  0  0
   39.6730   34.0200   38.8730 H   0  0  0  0  0  0  0  0  0  0  0  0
   41.2600   33.4900   40.0840 O   0  0  0  0  0  0  0  0  0  0  0  0
   41.7240   32.2720   40.5680 C   0  0  0  0  0  2  0  0  0  0  0  0
   40.5290   31.6200   41.2410 C   0  0  0  0  0  2  0  0  0  0  0  0
   37.0520   27.1550   40.9690 C   0  0  0  0  0  0  0  0  0  0  0  0
   37.2420   26.4870   42.1360 N   0  0  0  0  0  0  0  0  0  0  0  0
   37.0900   25.1740   42.3150 C   0  0  0  0  0  0  0  0  0  0  0  0
   36.7160   24.4010   41.2750 N   0  0  0  0  0  0  0  0  0  0  0  0
   36.4940   24.9390   40.0610 C   0  0  0  0  0  0  0  0  0  0  0  0
   36.1100   24.1390   38.9960 C   0  0  0  0  0  0  0  0  0  0  0  0
   35.8820   24.6770   37.7600 C   0  0  0  0  0  0  0  0  0  0  0  0
   36.0500   26.0300   37.6270 C   0  0  0  0  0  0  0  0  0  0  0  0
   36.4330   26.7940   38.7030 C   0  0  0  0  0  0  0  0  0  0  0  0
   36.6720   26.3080   39.9550 C   0  0  0  0  0  0  0  0  0  0  0  0
   37.2740   24.7640   43.3000 H   0  0  0  0  0  0  0  0  0  0  0  0
   36.0020   23.0800   39.2000 H   0  0  0  0  0  0  0  0  0  0  0  0
   35.5870   23.9640   37.0050 H   0  0  0  0  0  0  0  0  0  0  0  0
   35.8630   26.4380   36.6310 H   0  0  0  0  0  0  0  0  0  0  0  0
   36.5500   27.8690   38.5280 H   0  0  0  0  0  0  0  0  0  0  0  0
   36.9650   32.7370   40.4770 N   0  0  0  0  0  0  0  0  0  0  0  0
   36.9300   33.3270   39.6190 H   0  0  0  0  0  0  0  0  0  0  0  0
   36.9020   33.1190   41.4660 H   0  0  0  0  0  0  0  0  0  0  0  0
  1  7  1  0  0  0  0
  1  6  1  0  0  0  0
  2  1  2  0  0  0  0
  3  2  1  0  0  0  0
  3  4  2  0  0  0  0
  4  5  1  0  0  0  0
  5  6  2  0  0  0  0
  5 16  1  0  0  0  0
  8  3  1  0  0  0  0
  8 15  1  0  0  0  0
  9 11  1  0  0  0  0
  9  8  1  0  0  0  0
 10  9  1  0  0  0  0
 11 13  1  0  0  0  0
 12 11  1  0  0  0  0
 13 14  1  0  0  0  0
 14 15  1  0  0  0  0
 16 17  1  0  0  0  0
 17 18  2  0  0  0  0
 18 26  1  0  0  0  0
 19 18  1  0  0  0  0
 20 19  2  0  0  0  0
 21 27  1  0  0  0  0
 21 20  1  0  0  0  0
 22 21  2  0  0  0  0
 23 22  1  0  0  0  0
 23 24  2  0  0  0  0
 24 25  1  0  0  0  0
 25 20  1  0  0  0  0
 25 16  2  0  0  0  0
 28 22  1  0  0  0  0
 29 23  1  0  0  0  0
 30 24  1  0  0  0  0
 31  2  1  0  0  0  0
 31 33  1  0  0  0  0
 32 31  1  0  0  0  0
M  END
>  <minimizedAffinity>
-6.00064802

$$$$

 OpenBabel03252502033D

 33 36  0  0  0  0  0  0  0  0999 V2000
   36.2000   31.1320   39.8840 C   0  0  0  0  0  0  0  0  0  0  0  0
   37.3480   31.8930   40.0370 C   0  0  0  0  0  0  0  0  0  0  0  0
   38.5340   31.2310   39.9120 C   0  0  0  0  0  0  0  0  0  0  0  0
   38.5410   29.9090   39.6540 N   0  0  0  0  0  0  0  0  0  0  0  0
   37.4440   29.1950   39.5110 C   0  0  0  0  0  0  0  0  0  0  0  0
   36.2780   29.8350   39.6320 N   0  0  0  0  0  0  0  0  0  0  0  0
   35.2390   31.6640   39.9840 H   0  0  0  0  0  0  0  0  0  0  0  0
   39.7770   31.8990   40.0470 N   0  0  0  0  0  0  0  0  0  0  0  0
   40.2680   32.7520   38.9840 C   0  0  0  0  0  3  0  0  0  0  0  0
   39.4420   33.0450   38.2970 H   0  0  0  0  0  0  0  0  0  0  0  0
   40.8990   34.0210   39.4660 C   0  0  0  0  0  3  0  0  0  0  0  0
   40.1410   34.8310   39.4740 H   0  0  0  0  0  0  0  0  0  0  0  0
   41.5530   33.9260   40.6790 O   0  0  0  0  0  0  0  0  0  0  0  0
   41.9430   32.6040   40.8600 C   0  0  0  0  0  2  0  0  0  0  0  0
   40.6680   31.8400   41.1690 C   0  0  0  0  0  2  0  0  0  0  0  0
   37.2410   27.7660   39.2310 C   0  0  0  0  0  0  0  0  0  0  0  0
   37.1290   27.2460   37.9820 N   0  0  0  0  0  0  0  0  0  0  0  0
   36.9450   25.9590   37.6870 C   0  0  0  0  0  0  0  0  0  0  0  0
   36.8540   25.0560   38.6860 N   0  0  0  0  0  0  0  0  0  0  0  0
   36.9490   25.4400   39.9730 C   0  0  0  0  0  0  0  0  0  0  0  0
   36.8550   24.5070   40.9940 C   0  0  0  0  0  0  0  0  0  0  0  0
   36.9510   24.8890   42.3040 C   0  0  0  0  0  0  0  0  0  0  0  0
   37.1410   26.2220   42.5540 C   0  0  0  0  0  0  0  0  0  0  0  0
   37.2290   27.1200   41.5170 C   0  0  0  0  0  0  0  0  0  0  0  0
   37.1410   26.7930   40.1960 C   0  0  0  0  0  0  0  0  0  0  0  0
   36.8720   25.6730   36.6460 H   0  0  0  0  0  0  0  0  0  0  0  0
   36.7050   23.4770   40.6960 H   0  0  0  0  0  0  0  0  0  0  0  0
   36.8650   24.0820   43.0160 H   0  0  0  0  0  0  0  0  0  0  0  0
   37.2150   26.5040   43.6070 H   0  0  0  0  0  0  0  0  0  0  0  0
   37.3820   28.1710   41.7880 H   0  0  0  0  0  0  0  0  0  0  0  0
   37.2400   33.2670   40.3050 N   0  0  0  0  0  0  0  0  0  0  0  0
   37.3210   34.0720   39.6470 H   0  0  0  0  0  0  0  0  0  0  0  0
   37.0490   33.3640   41.3450 H   0  0  0  0  0  0  0  0  0  0  0  0
  1  7  1  0  0  0  0
  1  2  1  0  0  0  0
  2 31  1  0  0  0  0
  3  2  2  0  0  0  0
  3  8  1  0  0  0  0
  4  3  1  0  0  0  0
  5  6  1  0  0  0  0
  5  4  2  0  0  0  0
  6  1  2  0  0  0  0
  8 15  1  0  0  0  0
  9 11  1  0  0  0  0
  9  8  1  0  0  0  0
 10  9  1  0  0  0  0
 11 12  1  0  0  0  0
 11 13  1  0  0  0  0
 13 14  1  0  0  0  0
 14 15  1  0  0  0  0
 16  5  1  0  0  0  0
 16 25  1  0  0  0  0
 17 16  2  0  0  0  0
 18 17  1  0  0  0  0
 18 19  2  0  0  0  0
 19 20  1  0  0  0  0
 20 25  2  0  0  0  0
 20 21  1  0  0  0  0
 21 22  2  0  0  0  0
 22 23  1  0  0  0  0
 22 28  1  0  0  0  0
 23 29  1  0  0  0  0
 24 30  1  0  0  0  0
 24 23  2  0  0  0  0
 25 24  1  0  0  0  0
 26 18  1  0  0  0  0
 27 21  1  0  0  0  0
 31 33  1  0  0  0  0
 32 31  1  0  0  0  0
M  END
>  <minimizedAffinity>
-5.99774075

$$$$

 OpenBabel03252502033D

 33 36  0  0  0  0  0  0  0  0999 V2000
   38.1510   31.2600   38.5160 C   0  0  0  0  0  0  0  0  0  0  0  0
   39.4210   31.3160   37.9670 C   0  0  0  0  0  0  0  0  0  0  0  0
   40.3700   30.5290   38.5520 C   0  0  0  0  0  0  0  0  0  0  0  0
   40.0440   29.7560   39.6060 N   0  0  0  0  0  0  0  0  0  0  0  0
   38.8330   29.7110   40.1210 C   0  0  0  0  0  0  0  0  0  0  0  0
   37.8980   30.4780   39.5540 N   0  0  0  0  0  0  0  0  0  0  0  0
   37.3820   31.8940   38.0450 H   0  0  0  0  0  0  0  0  0  0  0  0
   41.7060   30.4990   38.0810 N   0  0  0  0  0  0  0  0  0  0  0  0
   42.0350   29.7940   36.8590 C   0  0  0  0  0  3  0  0  0  0  0  0
   41.1230   29.6200   36.2430 H   0  0  0  0  0  0  0  0  0  0  0  0
   43.0130   30.5170   35.9850 C   0  0  0  0  0  3  0  0  0  0  0  0
   42.4630   31.1210   35.2350 H   0  0  0  0  0  0  0  0  0  0  0  0
   43.9510   31.2750   36.6590 O   0  0  0  0  0  0  0  0  0  0  0  0
   44.1090   30.7410   37.9320 C   0  0  0  0  0  2  0  0  0  0  0  0
   42.8480   31.1160   38.6910 C   0  0  0  0  0  2  0  0  0  0  0  0
   38.2830   28.9460   41.2490 C   0  0  0  0  0  0  0  0  0  0  0  0
   38.1150   29.4520   42.4990 N   0  0  0  0  0  0  0  0  0  0  0  0
   37.6200   28.7920   43.5460 C   0  0  0  0  0  0  0  0  0  0  0  0
   37.2390   27.5060   43.4010 N   0  0  0  0  0  0  0  0  0  0  0  0
   37.3520   26.8840   42.2120 C   0  0  0  0  0  0  0  0  0  0  0  0
   36.9580   25.5620   42.0700 C   0  0  0  0  0  0  0  0  0  0  0  0
   37.0690   24.9230   40.8660 C   0  0  0  0  0  0  0  0  0  0  0  0
   37.5820   25.6440   39.8200 C   0  0  0  0  0  0  0  0  0  0  0  0
   37.9640   26.9520   39.9970 C   0  0  0  0  0  0  0  0  0  0  0  0
   37.8740   27.6360   41.1730 C   0  0  0  0  0  0  0  0  0  0  0  0
   37.5390   29.3130   44.4920 H   0  0  0  0  0  0  0  0  0  0  0  0
   36.5650   25.0760   42.9550 H   0  0  0  0  0  0  0  0  0  0  0  0
   36.7330   23.8970   40.8680 H   0  0  0  0  0  0  0  0  0  0  0  0
   37.6620   25.1130   38.8690 H   0  0  0  0  0  0  0  0  0  0  0  0
   38.3660   27.4710   39.1190 H   0  0  0  0  0  0  0  0  0  0  0  0
   39.6660   32.1530   36.8660 N   0  0  0  0  0  0  0  0  0  0  0  0
   39.7150   31.9090   35.8540 H   0  0  0  0  0  0  0  0  0  0  0  0
   39.7990   33.1350   37.2500 H   0  0  0  0  0  0  0  0  0  0  0  0
  1  6  1  0  0  0  0
  2  1  2  0  0  0  0
  2  3  1  0  0  0  0
  3  4  2  0  0  0  0
  4  5  1  0  0  0  0
  5 16  1  0  0  0  0
  6  5  2  0  0  0  0
  7  1  1  0  0  0  0
  8  3  1  0  0  0  0
  8 15  1  0  0  0  0
  9  8  1  0  0  0  0
 10  9  1  0  0  0  0
 11 13  1  0  0  0  0
 11  9  1  0  0  0  0
 12 11  1  0  0  0  0
 13 14  1  0  0  0  0
 14 15  1  0  0  0  0
 16 17  1  0  0  0  0
 17 18  2  0  0  0  0
 18 26  1  0  0  0  0
 19 18  1  0  0  0  0
 20 19  2  0  0  0  0
 21 20  1  0  0  0  0
 21 27  1  0  0  0  0
 22 28  1  0  0  0  0
 22 21  2  0  0  0  0
 23 24  2  0  0  0  0
 23 22  1  0  0  0  0
 24 25  1  0  0  0  0
 25 16  2  0  0  0  0
 25 20  1  0  0  0  0
 29 23  1  0  0  0  0
 30 24  1  0  0  0  0
 31 33  1  0  0  0  0
 31  2  1  0  0  0  0
 32 31  1  0  0  0  0
M  END
>  <minimizedAffinity>
-5.96220255

$$$$

 OpenBabel03252502033D

 33 36  0  0  0  0  0  0  0  0999 V2000
   39.4730   31.7790   37.6110 C   0  0  0  0  0  0  0  0  0  0  0  0
   40.6340   32.3320   38.1260 C   0  0  0  0  0  0  0  0  0  0  0  0
   40.8720   32.1160   39.4520 C   0  0  0  0  0  0  0  0  0  0  0  0
   39.9980   31.3970   40.1810 N   0  0  0  0  0  0  0  0  0  0  0  0
   38.8970   30.8750   39.6820 C   0  0  0  0  0  0  0  0  0  0  0  0
   38.6550   31.0830   38.3850 N   0  0  0  0  0  0  0  0  0  0  0  0
   39.2780   31.9520   36.5390 H   0  0  0  0  0  0  0  0  0  0  0  0
   42.0260   32.6300   40.0940 N   0  0  0  0  0  0  0  0  0  0  0  0
   43.3200   32.0160   39.8760 C   0  0  0  0  0  3  0  0  0  0  0  0
   43.3120   31.3910   38.9530 H   0  0  0  0  0  0  0  0  0  0  0  0
   44.4390   32.9980   39.7210 C   0  0  0  0  0  3  0  0  0  0  0  0
   44.5980   33.2120   38.6430 H   0  0  0  0  0  0  0  0  0  0  0  0
   44.3040   34.1610   40.4530 O   0  0  0  0  0  0  0  0  0  0  0  0
   43.4900   33.8930   41.5480 C   0  0  0  0  0  2  0  0  0  0  0  0
   42.0860   33.7500   40.9880 C   0  0  0  0  0  2  0  0  0  0  0  0
   37.8320   30.0730   40.3000 C   0  0  0  0  0  0  0  0  0  0  0  0
   36.5340   30.0960   39.8990 N   0  0  0  0  0  0  0  0  0  0  0  0
   35.5410   29.3850   40.4320 C   0  0  0  0  0  0  0  0  0  0  0  0
   35.7980   28.5550   41.4650 N   0  0  0  0  0  0  0  0  0  0  0  0
   37.0460   28.4370   41.9590 C   0  0  0  0  0  0  0  0  0  0  0  0
   37.3030   27.5820   43.0190 C   0  0  0  0  0  0  0  0  0  0  0  0
   38.5670   27.4560   43.5280 C   0  0  0  0  0  0  0  0  0  0  0  0
   39.5530   28.2070   42.9450 C   0  0  0  0  0  0  0  0  0  0  0  0
   39.2620   29.0450   41.8950 C   0  0  0  0  0  0  0  0  0  0  0  0
   38.0220   29.2080   41.3510 C   0  0  0  0  0  0  0  0  0  0  0  0
   34.5470   29.4960   40.0190 H   0  0  0  0  0  0  0  0  0  0  0  0
   36.4590   27.0300   43.4130 H   0  0  0  0  0  0  0  0  0  0  0  0
   38.6550   26.7630   44.3510 H   0  0  0  0  0  0  0  0  0  0  0  0
   40.5540   28.0900   43.3670 H   0  0  0  0  0  0  0  0  0  0  0  0
   40.0970   29.6170   41.4750 H   0  0  0  0  0  0  0  0  0  0  0  0
   41.4860   33.0680   37.2860 N   0  0  0  0  0  0  0  0  0  0  0  0
   42.3620   32.7620   36.8110 H   0  0  0  0  0  0  0  0  0  0  0  0
   41.0700   34.0410   37.2020 H   0  0  0  0  0  0  0  0  0  0  0  0
  1  2  2  0  0  0  0
  1  6  1  0  0  0  0
  2  3  1  0  0  0  0
  3  8  1  0  0  0  0
  3  4  2  0  0  0  0
  5  4  1  0  0  0  0
  5 16  1  0  0  0  0
  6  5  2  0  0  0  0
  7  1  1  0  0  0  0
  8 15  1  0  0  0  0
  9  8  1  0  0  0  0
 10  9  1  0  0  0  0
 11  9  1  0  0  0  0
 11 13  1  0  0  0  0
 12 11  1  0  0  0  0
 13 14  1  0  0  0  0
 15 14  1  0  0  0  0
 16 25  1  0  0  0  0
 17 16  2  0  0  0  0
 17 18  1  0  0  0  0
 18 19  2  0  0  0  0
 19 20  1  0  0  0  0
 20 21  1  0  0  0  0
 21 27  1  0  0  0  0
 21 22  2  0  0  0  0
 22 28  1  0  0  0  0
 23 29  1  0  0  0  0
 23 22  1  0  0  0  0
 24 23  2  0  0  0  0
 25 24  1  0  0  0  0
 25 20  2  0  0  0  0
 26 18  1  0  0  0  0
 30 24  1  0  0  0  0
 31  2  1  0  0  0  0
 32 31  1  0  0  0  0
 33 31  1  0  0  0  0
M  END
>  <minimizedAffinity>
-5.84907341

$$$$

 OpenBabel03252502033D

 33 36  0  0  0  0  0  0  0  0999 V2000
   38.5430   30.8530   38.3000 C   0  0  0  0  0  0  0  0  0  0  0  0
   39.6880   31.6110   38.1190 C   0  0  0  0  0  0  0  0  0  0  0  0
   40.6110   31.5650   39.1230 C   0  0  0  0  0  0  0  0  0  0  0  0
   40.3790   30.8090   40.2120 N   0  0  0  0  0  0  0  0  0  0  0  0
   39.2870   30.0920   40.3760 C   0  0  0  0  0  0  0  0  0  0  0  0
   38.3780   30.1320   39.3980 N   0  0  0  0  0  0  0  0  0  0  0  0
   37.7950   30.8870   37.4910 H   0  0  0  0  0  0  0  0  0  0  0  0
   41.8230   32.2970   39.0530 N   0  0  0  0  0  0  0  0  0  0  0  0
   42.9000   31.8500   38.1930 C   0  0  0  0  0  3  0  0  0  0  0  0
   42.5230   31.1390   37.4220 H   0  0  0  0  0  0  0  0  0  0  0  0
   43.5890   32.9570   37.4590 C   0  0  0  0  0  3  0  0  0  0  0  0
   43.1280   33.0800   36.4570 H   0  0  0  0  0  0  0  0  0  0  0  0
   43.6560   34.1580   38.1380 O   0  0  0  0  0  0  0  0  0  0  0  0
   43.5860   33.8910   39.5000 C   0  0  0  0  0  2  0  0  0  0  0  0
   42.1430   33.4990   39.7660 C   0  0  0  0  0  2  0  0  0  0  0  0
   38.8520   29.2160   41.4730 C   0  0  0  0  0  0  0  0  0  0  0  0
   38.0060   29.6030   42.4630 N   0  0  0  0  0  0  0  0  0  0  0  0
   37.5880   28.8390   43.4730 C   0  0  0  0  0  0  0  0  0  0  0  0
   38.0170   27.5630   43.5620 N   0  0  0  0  0  0  0  0  0  0  0  0
   38.8590   27.0530   42.6430 C   0  0  0  0  0  0  0  0  0  0  0  0
   39.2950   25.7410   42.7400 C   0  0  0  0  0  0  0  0  0  0  0  0
   40.1500   25.2150   41.8120 C   0  0  0  0  0  0  0  0  0  0  0  0
   40.5490   26.0390   40.7920 C   0  0  0  0  0  0  0  0  0  0  0  0
   40.0980   27.3350   40.7270 C   0  0  0  0  0  0  0  0  0  0  0  0
   39.2460   27.9080   41.6250 C   0  0  0  0  0  0  0  0  0  0  0  0
   36.9120   29.2710   44.1990 H   0  0  0  0  0  0  0  0  0  0  0  0
   38.9240   25.1680   43.5820 H   0  0  0  0  0  0  0  0  0  0  0  0
   40.4250   24.1850   41.9830 H   0  0  0  0  0  0  0  0  0  0  0  0
   41.2320   25.5980   40.0620 H   0  0  0  0  0  0  0  0  0  0  0  0
   40.4560   27.9400   39.8860 H   0  0  0  0  0  0  0  0  0  0  0  0
   39.8410   32.3690   36.9460 N   0  0  0  0  0  0  0  0  0  0  0  0
   40.3830   32.1420   36.0850 H   0  0  0  0  0  0  0  0  0  0  0  0
   39.2820   33.2620   37.0820 H   0  0  0  0  0  0  0  0  0  0  0  0
  1  6  1  0  0  0  0
  2  1  2  0  0  0  0
  2  3  1  0  0  0  0
  3  4  2  0  0  0  0
  4  5  1  0  0  0  0
  5 16  1  0  0  0  0
  6  5  2  0  0  0  0
  7  1  1  0  0  0  0
  8  3  1  0  0  0  0
  8 15  1  0  0  0  0
  9  8  1  0  0  0  0
 10  9  1  0  0  0  0
 11 13  1  0  0  0  0
 11  9  1  0  0  0  0
 12 11  1  0  0  0  0
 13 14  1  0  0  0  0
 14 15  1  0  0  0  0
 16 25  2  0  0  0  0
 16 17  1  0  0  0  0
 17 18  2  0  0  0  0
 18 19  1  0  0  0  0
 18 26  1  0  0  0  0
 20 21  1  0  0  0  0
 20 19  2  0  0  0  0
 21 27  1  0  0  0  0
 22 28  1  0  0  0  0
 22 21  2  0  0  0  0
 23 22  1  0  0  0  0
 24 23  2  0  0  0  0
 24 25  1  0  0  0  0
 25 20  1  0  0  0  0
 29 23  1  0  0  0  0
 30 24  1  0  0  0  0
 31 33  1  0  0  0  0
 31  2  1  0  0  0  0
 32 31  1  0  0  0  0
M  END
>  <minimizedAffinity>
-5.66552496

$$$$
