
     RDKit          3D

 37 40  0  0  0  0  0  0  0  0999 V2000
   47.4664   31.6799   44.8225 C   0  0  0  0  0  0  0  0  0  0  0  0
   46.7863   32.8656   44.5393 C   0  0  0  0  0  0  0  0  0  0  0  0
   45.9075   33.4621   45.4303 C   0  0  0  0  0  0  0  0  0  0  0  0
   45.6848   32.8554   46.6734 C   0  0  0  0  0  0  0  0  0  0  0  0
   44.9312   33.1254   47.7532 N   0  0  0  0  0  0  0  0  0  0  0  0
   45.1064   32.1732   48.6875 C   0  0  0  0  0  0  0  0  0  0  0  0
   45.9863   31.3086   48.1605 N   0  0  0  0  0  0  0  0  0  0  0  0
   46.3627   31.6930   46.9291 C   0  0  0  0  0  0  0  0  0  0  0  0
   47.2481   31.0713   46.0600 C   0  0  0  0  0  0  0  0  0  0  0  0
   46.3770   33.8079   41.0218 C   0  0  0  0  0  0  0  0  0  0  0  0
   47.4223   34.7179   40.8170 C   0  0  0  0  0  0  0  0  0  0  0  0
   48.2549   34.9933   41.8987 C   0  0  0  0  0  0  0  0  0  0  0  0
   48.0279   34.3765   43.1051 N   0  0  0  0  0  0  0  0  0  0  0  0
   47.0056   33.5078   43.2472 C   0  0  0  0  0  0  0  0  0  0  0  0
   46.1646   33.2058   42.2201 N   0  0  0  0  0  0  0  0  0  0  0  0
   45.0599   34.9733   45.0513 S   0  0  0  0  0  0  0  0  0  0  0  0
   48.1495   31.2225   44.1235 H   0  0  0  0  0  0  0  0  0  0  0  0
   44.3059   33.9464   47.8573 H   0  0  0  0  0  0  0  0  0  0  0  0
   44.6346   32.1226   49.6561 H   0  0  0  0  0  0  0  0  0  0  0  0
   47.7512   30.1606   46.3140 H   0  0  0  0  0  0  0  0  0  0  0  0
   45.6562   33.5019   40.2712 H   0  0  0  0  0  0  0  0  0  0  0  0
   47.4908   35.1280   39.8314 H   0  0  0  0  0  0  0  0  0  0  0  0
   49.0507   35.6882   41.7342 H   0  0  0  0  0  0  0  0  0  0  0  0
   43.6060   36.6863   43.9211 H   0  0  0  0  0  0  0  0  0  0  0  0
   42.8163   36.0101   44.1555 N   0  0  0  0  0  0  0  0  0  0  0  0
   43.4679   34.7181   44.2265 C   0  0  1  0  0  0  0  0  0  0  0  0
   43.7954   34.1785   42.8311 C   0  0  1  0  0  0  0  0  0  0  0  0
   44.7122   34.6486   42.4223 H   0  0  0  0  0  0  0  0  0  0  0  0
   42.7788   34.3493   41.9274 O   0  0  0  0  0  0  0  0  0  0  0  0
   41.5772   34.7704   42.4346 C   0  0  0  0  0  0  0  0  0  0  0  0
   41.7730   36.0716   43.1727 C   0  0  0  0  0  0  0  0  0  0  0  0
   42.8503   33.9719   44.7849 H   0  0  0  0  0  0  0  0  0  0  0  0
   44.0143   33.0725   42.9098 H   0  0  0  0  0  0  0  0  0  0  0  0
   41.0525   34.0670   43.0951 H   0  0  0  0  0  0  0  0  0  0  0  0
   40.9164   34.9693   41.5457 H   0  0  0  0  0  0  0  0  0  0  0  0
   40.8231   36.4273   43.6424 H   0  0  0  0  0  0  0  0  0  0  0  0
   42.0578   36.8558   42.4279 H   0  0  0  0  0  0  0  0  0  0  0  0
  1  9  2  0
  2  1  1  0
  2  3  2  0
  3  4  1  0
  4  8  2  0
  4  5  1  0
  5  6  1  0
  7  6  2  0
  8  7  1  0
  9  8  1  0
 10 15  2  0
 11 10  1  0
 11 12  2  0
 12 13  1  0
 13 14  2  0
 14  2  1  0
 15 14  1  0
 16  3  1  0
  1 17  1  0
  5 18  1  0
  6 19  1  0
  9 20  1  0
 10 21  1  0
 11 22  1  0
 12 23  1  0
 24 25  1  0
 25 26  1  0
 26 27  1  0
 27 28  1  6
 27 29  1  0
 29 30  1  0
 30 31  1  0
 31 25  1  0
 26 32  1  1
 27 33  1  0
 30 34  1  0
 30 35  1  0
 31 36  1  0
 31 37  1  0
 16 26  1  0
M  ISO  8  17  14  18   9  19  14  20  14  21  14  22  14  23  14  24   5
M  ISO  1  28  15
M  END
>  <DihAtoms>  (1) 
2,15,25,24

>  <DihDeg>  (1) 
67.04348819994743

$$$$
