
 OpenBabel03252507373D

 37 41  0  0  0  0  0  0  0  0999 V2000
   45.6290   34.7650   43.4610 C   0  0  0  0  0  0  0  0  0  0  0  0
   46.3380   33.6980   44.0700 C   0  0  0  0  0  0  0  0  0  0  0  0
   46.1190   33.4880   45.4220 C   0  0  0  0  0  0  0  0  0  0  0  0
   45.2640   34.2840   46.0860 N   0  0  0  0  0  0  0  0  0  0  0  0
   44.5980   35.2970   45.4830 C   0  0  0  0  0  0  0  0  0  0  0  0
   44.7820   35.5280   44.1880 N   0  0  0  0  0  0  0  0  0  0  0  0
   47.0170   33.0590   43.5680 H   0  0  0  0  0  0  0  0  0  0  0  0
   43.9480   35.8540   46.1250 H   0  0  0  0  0  0  0  0  0  0  0  0
   47.0120   32.6640   47.5340 C   0  0  0  0  0  0  0  0  0  0  0  0
   46.7780   32.4230   46.1860 C   0  0  0  0  0  0  0  0  0  0  0  0
   47.1680   31.2190   45.6660 C   0  0  0  0  0  0  0  0  0  0  0  0
   47.7780   30.2540   46.4380 C   0  0  0  0  0  0  0  0  0  0  0  0
   48.2390   29.0140   46.1360 N   0  0  0  0  0  0  0  0  0  0  0  0
   48.7630   28.4760   47.2970 C   0  0  0  0  0  0  0  0  0  0  0  0
   48.6080   29.4030   48.2740 N   0  0  0  0  0  0  0  0  0  0  0  0
   48.0100   30.4850   47.7590 C   0  0  0  0  0  0  0  0  0  0  0  0
   47.6270   31.6930   48.3130 C   0  0  0  0  0  0  0  0  0  0  0  0
   46.7330   33.5990   48.0370 H   0  0  0  0  0  0  0  0  0  0  0  0
   46.9710   31.0670   44.6130 H   0  0  0  0  0  0  0  0  0  0  0  0
   48.1760   28.6020   45.1730 H   0  0  0  0  0  0  0  0  0  0  0  0
   49.1750   27.4940   47.2480 H   0  0  0  0  0  0  0  0  0  0  0  0
   47.8180   31.8670   49.3730 H   0  0  0  0  0  0  0  0  0  0  0  0
   45.8460   34.9830   42.1010 O   0  0  0  0  0  0  0  0  0  0  0  0
   44.8700   34.5960   41.1800 C   0  0  0  0  0  0  0  0  0  0  0  0
   45.5780   33.7320   40.4300 C   0  0  0  0  0  0  0  0  0  0  0  0
   44.2710   33.1670   39.1510 S   0  0  0  0  0  0  0  0  0  0  0  0
   43.0130   34.3030   39.9880 C   0  0  0  0  0  0  0  0  0  0  0  0
   43.6220   34.7310   40.7880 N   0  0  0  0  0  0  0  0  0  0  0  0
   46.5370   33.0360   39.9990 H   0  0  0  0  0  0  0  0  0  0  0  0
   41.6270   34.4400   39.5520 N   0  0  0  0  0  0  0  0  0  0  0  0
   40.7220   33.3210   39.4740 C   0  0  0  0  0  3  0  0  0  0  0  0
   41.2700   32.3750   39.2100 H   0  0  0  0  0  0  0  0  0  0  0  0
   39.5860   33.5890   38.5480 C   0  0  0  0  0  3  0  0  0  0  0  0
   38.7140   33.9620   39.1540 H   0  0  0  0  0  0  0  0  0  0  0  0
   39.8560   34.3770   37.4640 O   0  0  0  0  0  0  0  0  0  0  0  0
   40.6300   35.4860   37.6830 C   0  0  0  0  0  2  0  0  0  0  0  0
   41.0280   35.6810   39.1440 C   0  0  0  0  0  2  0  0  0  0  0  0
  1  2  2  0  0  0  0
  1  6  1  0  0  0  0
  2  3  1  0  0  0  0
  3  4  2  0  0  0  0
  3 10  1  0  0  0  0
  5  4  1  0  0  0  0
  5  8  1  0  0  0  0
  6  5  2  0  0  0  0
  7  2  1  0  0  0  0
  9 18  1  0  0  0  0
  9 17  1  0  0  0  0
 10  9  2  0  0  0  0
 11 10  1  0  0  0  0
 11 12  2  0  0  0  0
 12 16  1  0  0  0  0
 13 12  1  0  0  0  0
 13 14  1  0  0  0  0
 14 15  2  0  0  0  0
 16 15  1  0  0  0  0
 16 17  2  0  0  0  0
 17 22  1  0  0  0  0
 19 11  1  0  0  0  0
 20 13  1  0  0  0  0
 21 14  1  0  0  0  0
 23  1  1  0  0  0  0
 24 23  1  0  0  0  0
 25 24  2  0  0  0  0
 26 27  1  0  0  0  0
 26 25  1  0  0  0  0
 27 28  2  0  0  0  0
 28 24  1  0  0  0  0
 29 25  1  0  0  0  0
 30 27  1  0  0  0  0
 31 30  1  0  0  0  0
 32 31  1  0  0  0  0
 33 34  1  0  0  0  0
 33 31  1  0  0  0  0
 35 36  1  0  0  0  0
 35 33  1  0  0  0  0
 36 37  1  0  0  0  0
 37 30  1  0  0  0  0
M  END
>  <minimizedAffinity>
-6.64181995

>  <minimizedRMSD>
0.768417597

$$$$
