
 OpenBabel03242519053D

 42 45  0  0  1  0  0  0  0  0999 V2000
   47.4780   33.6950   43.0070 N   0  0  0  0  0  0  0  0  0  0  0  0
   48.1570   34.0910   41.7910 C   0  0  0  0  0  0  0  0  0  0  0  0
   48.1560   32.7630   41.0890 C   0  0  2  0  0  0  0  0  0  0  0  0
   48.6880   31.8540   42.1720 C   0  0  0  0  0  0  0  0  0  0  0  0
   48.0570   32.4280   43.4180 C   0  0  0  0  0  0  0  0  0  0  0  0
   49.1940   34.4090   42.0170 H   0  0  0  0  0  0  0  0  0  0  0  0
   47.6680   34.8940   41.2310 H   0  0  0  0  0  0  0  0  0  0  0  0
   47.1120   32.5500   40.8030 H   0  0  0  0  0  0  0  0  0  0  0  0
   49.7890   31.9350   42.1770 H   0  0  0  0  0  0  0  0  0  0  0  0
   48.3610   30.8220   41.9750 H   0  0  0  0  0  0  0  0  0  0  0  0
   48.8020   32.5740   44.2270 H   0  0  0  0  0  0  0  0  0  0  0  0
   47.2510   31.7790   43.8120 H   0  0  0  0  0  0  0  0  0  0  0  0
   44.7330   35.9810   44.0670 C   0  0  0  0  0  0  0  0  0  0  0  0
   45.7270   35.4290   43.2660 C   0  0  0  0  0  0  0  0  0  0  0  0
   46.4560   34.3330   43.7240 C   0  0  0  0  0  0  0  0  0  0  0  0
   46.1350   33.8600   44.9650 N   0  0  0  0  0  0  0  0  0  0  0  0
   45.1800   34.3870   45.7390 C   0  0  0  0  0  0  0  0  0  0  0  0
   44.4720   35.4530   45.2950 N   0  0  0  0  0  0  0  0  0  0  0  0
   44.2200   36.8250   43.6380 H   0  0  0  0  0  0  0  0  0  0  0  0
   46.0020   35.7820   42.2840 H   0  0  0  0  0  0  0  0  0  0  0  0
   44.9730   33.9620   46.7210 H   0  0  0  0  0  0  0  0  0  0  0  0
   49.0780   32.7050   39.9940 N   0  0  0  0  0  0  0  0  0  0  0  0
   50.0710   32.5720   40.3410 H   0  0  0  0  0  0  0  0  0  0  0  0
   49.2730   31.7800   37.6890 C   0  0  0  0  0  0  0  0  0  0  0  0
   48.9090   32.7900   38.5980 C   0  0  0  0  0  0  0  0  0  0  0  0
   48.3590   33.8960   37.9980 C   0  0  0  0  0  0  0  0  0  0  0  0
   48.1520   34.0780   36.6590 C   0  0  0  0  0  0  0  0  0  0  0  0
   48.5220   33.0660   35.7990 C   0  0  0  0  0  0  0  0  0  0  0  0
   49.0800   31.9270   36.3340 C   0  0  0  0  0  0  0  0  0  0  0  0
   48.0530   34.7190   38.6350 H   0  0  0  0  0  0  0  0  0  0  0  0
   47.7160   34.9720   36.2570 H   0  0  0  0  0  0  0  0  0  0  0  0
   48.3760   33.1680   34.7430 H   0  0  0  0  0  0  0  0  0  0  0  0
   49.4510   30.8980   35.4190 N   0  0  0  0  0  0  0  0  0  0  0  0
   48.5700   29.8690   34.9030 C   0  0  0  0  0  0  0  0  0  0  0  0
   47.5160   30.2600   34.8150 H   0  0  0  0  0  0  0  0  0  0  0  0
   48.9400   29.4580   33.4930 C   0  0  0  0  0  0  0  0  0  0  0  0
   48.6400   30.2120   32.7580 H   0  0  0  0  0  0  0  0  0  0  0  0
   50.2610   29.1160   33.3330 O   0  0  0  0  0  0  0  0  0  0  0  0
   50.9340   29.2800   34.5280 C   0  0  0  0  0  0  0  0  0  0  0  0
   50.8070   30.7660   34.8870 C   0  0  0  0  0  0  0  0  0  0  0  0
   50.3220   29.6190   38.6860 N   0  0  0  0  0  0  0  0  0  0  0  0
   49.8600   30.5800   38.2380 C   0  0  0  0  0  0  0  0  0  0  0  0
  1  5  1  0  0  0  0
  1 15  1  0  0  0  0
  2  6  1  0  0  0  0
  2  1  1  0  0  0  0
  3  8  1  6  0  0  0
  3  2  1  0  0  0  0
  3  4  1  0  0  0  0
  4  9  1  0  0  0  0
  4  5  1  0  0  0  0
  5 12  1  0  0  0  0
  5 11  1  0  0  0  0
  7  2  1  0  0  0  0
 10  4  1  0  0  0  0
 13 18  1  0  0  0  0
 14 15  1  0  0  0  0
 14 13  2  0  0  0  0
 15 16  2  0  0  0  0
 16 17  1  0  0  0  0
 17 21  1  0  0  0  0
 18 17  2  0  0  0  0
 19 13  1  0  0  0  0
 20 14  1  0  0  0  0
 22 23  1  0  0  0  0
 22  3  1  0  0  0  0
 24 42  1  0  0  0  0
 24 25  1  0  0  0  0
 25 22  1  0  0  0  0
 26 25  2  0  0  0  0
 26 30  1  0  0  0  0
 27 26  1  0  0  0  0
 28 29  1  0  0  0  0
 28 27  2  0  0  0  0
 29 24  2  0  0  0  0
 31 27  1  0  0  0  0
 32 28  1  0  0  0  0
 33 29  1  0  0  0  0
 34 33  1  0  0  0  0
 35 34  1  0  0  0  0
 36 34  1  0  0  0  0
 37 36  1  0  0  0  0
 38 36  1  0  0  0  0
 38 39  1  0  0  0  0
 39 40  1  0  0  0  0
 40 33  1  0  0  0  0
 42 41  3  0  0  0  0
M  END
>  <minimizedAffinity>
-4.676682

>  <minimizedRMSD>
0.88277787

$$$$
