
 OpenBabel03242510193D

 35 38  0  0  1  0  0  0  0  0999 V2000
   48.0710   33.2360   43.5470 N   0  0  0  0  0  0  0  0  0  0  0  0
   49.0660   33.1320   42.5920 C   0  0  0  0  0  0  0  0  0  0  0  0
   50.1840   32.5510   42.6370 O   0  0  0  0  0  0  0  0  0  0  0  0
   47.6560   34.2070   43.6790 H   0  0  0  0  0  0  0  0  0  0  0  0
   46.1950   32.1930   44.7880 C   0  0  1  0  0  0  0  0  0  0  0  0
   46.4520   31.3380   43.6890 C   0  0  0  0  0  0  0  0  0  0  0  0
   47.6120   32.1240   44.3210 C   0  0  1  0  0  0  0  0  0  0  0  0
   45.9460   31.8140   45.7950 H   0  0  0  0  0  0  0  0  0  0  0  0
   46.3180   31.5540   42.6170 H   0  0  0  0  0  0  0  0  0  0  0  0
   46.4020   30.2320   43.8680 H   0  0  0  0  0  0  0  0  0  0  0  0
   48.3730   31.4030   44.6360 H   0  0  0  0  0  0  0  0  0  0  0  0
   44.9590   33.8570   43.2390 C   0  0  0  0  0  0  0  0  0  0  0  0
   45.4540   33.5030   44.5240 C   0  0  0  0  0  0  0  0  0  0  0  0
   45.2650   34.3950   45.5520 C   0  0  0  0  0  0  0  0  0  0  0  0
   44.6260   35.5620   45.3070 N   0  0  0  0  0  0  0  0  0  0  0  0
   44.1580   35.8940   44.0750 C   0  0  0  0  0  0  0  0  0  0  0  0
   44.3330   35.0060   43.0080 N   0  0  0  0  0  0  0  0  0  0  0  0
   45.1100   33.1590   42.4570 H   0  0  0  0  0  0  0  0  0  0  0  0
   45.6100   34.1990   46.5540 H   0  0  0  0  0  0  0  0  0  0  0  0
   43.6480   36.8280   43.8860 H   0  0  0  0  0  0  0  0  0  0  0  0
   48.8830   33.7830   41.2290 C   0  0  2  0  0  0  0  0  0  0  0  0
   48.6200   35.3220   41.2240 C   0  0  0  0  0  0  0  0  0  0  0  0
   47.5860   34.3010   40.8010 C   0  0  1  0  0  0  0  0  0  0  0  0
   49.6930   33.5820   40.4870 H   0  0  0  0  0  0  0  0  0  0  0  0
   48.6090   35.7990   42.1990 H   0  0  0  0  0  0  0  0  0  0  0  0
   49.0580   35.9270   40.4290 H   0  0  0  0  0  0  0  0  0  0  0  0
   46.6960   34.4540   41.3960 H   0  0  0  0  0  0  0  0  0  0  0  0
   47.2650   34.1420   39.4090 N   0  0  1  0  0  0  0  0  0  0  0  0
   48.3960   34.3130   38.5370 C   0  0  0  0  0  0  0  0  0  0  0  0
   48.6980   35.3930   38.5860 H   0  0  0  0  0  0  0  0  0  0  0  0
   47.8570   34.1170   37.1140 C   0  0  0  0  0  0  0  0  0  0  0  0
   48.6890   34.3720   36.4180 H   0  0  0  0  0  0  0  0  0  0  0  0
   47.4560   32.8130   36.9150 O   0  0  0  0  0  0  0  0  0  0  0  0
   47.1830   32.1500   38.1100 C   0  0  0  0  0  0  0  0  0  0  0  0
   46.4090   33.0820   39.0520 C   0  0  0  0  0  0  0  0  0  0  0  0
  1  4  1  0  0  0  0
  1  7  1  0  0  0  0
  2  3  2  0  0  0  0
  2  1  1  0  0  0  0
  5  8  1  1  0  0  0
  6 10  1  0  0  0  0
  6  7  1  0  0  0  0
  6  5  1  0  0  0  0
  7 11  1  1  0  0  0
  7  5  1  0  0  0  0
  9  6  1  0  0  0  0
 12 13  1  0  0  0  0
 13  5  1  0  0  0  0
 13 14  2  0  0  0  0
 14 19  1  0  0  0  0
 15 14  1  0  0  0  0
 16 15  2  0  0  0  0
 17 12  2  0  0  0  0
 17 16  1  0  0  0  0
 18 12  1  0  0  0  0
 20 16  1  0  0  0  0
 21 24  1  6  0  0  0
 21  2  1  0  0  0  0
 22 21  1  0  0  0  0
 22 25  1  0  0  0  0
 23 22  1  0  0  0  0
 23 21  1  0  0  0  0
 23 27  1  1  0  0  0
 26 22  1  0  0  0  0
 28 35  1  1  0  0  0
 28 23  1  0  0  0  0
 29 30  1  0  0  0  0
 29 28  1  0  0  0  0
 31 29  1  0  0  0  0
 32 31  1  0  0  0  0
 33 31  1  0  0  0  0
 33 34  1  0  0  0  0
 34 35  1  0  0  0  0
M  END
>  <minimizedAffinity>
-4.81009722

>  <minimizedRMSD>
0.895949602

$$$$
