
 OpenBabel03242510203D

 35 38  0  0  1  0  0  0  0  0999 V2000
   37.7340   29.6360   39.8640 N   0  0  0  0  0  0  0  0  0  0  0  0
   37.0370   29.7150   41.0560 C   0  0  0  0  0  0  0  0  0  0  0  0
   36.1380   30.5170   41.4250 O   0  0  0  0  0  0  0  0  0  0  0  0
   38.7860   29.5010   39.9510 H   0  0  0  0  0  0  0  0  0  0  0  0
   37.3030   31.0150   37.8490 C   0  0  1  0  0  0  0  0  0  0  0  0
   38.0730   29.9130   37.4040 C   0  0  0  0  0  0  0  0  0  0  0  0
   37.1040   29.7300   38.5830 C   0  0  1  0  0  0  0  0  0  0  0  0
   36.4630   31.4320   37.2650 H   0  0  0  0  0  0  0  0  0  0  0  0
   39.1160   29.6680   37.6600 H   0  0  0  0  0  0  0  0  0  0  0  0
   37.8010   29.4530   36.4180 H   0  0  0  0  0  0  0  0  0  0  0  0
   36.4080   28.9250   38.3230 H   0  0  0  0  0  0  0  0  0  0  0  0
   39.4320   32.2360   38.6680 C   0  0  0  0  0  0  0  0  0  0  0  0
   38.0160   32.1310   38.6110 C   0  0  0  0  0  0  0  0  0  0  0  0
   37.2760   33.0690   39.2910 C   0  0  0  0  0  0  0  0  0  0  0  0
   37.9130   34.0430   39.9800 N   0  0  0  0  0  0  0  0  0  0  0  0
   39.2680   34.1350   40.0310 C   0  0  0  0  0  0  0  0  0  0  0  0
   40.0490   33.1970   39.3480 N   0  0  0  0  0  0  0  0  0  0  0  0
   39.9890   31.5080   38.1380 H   0  0  0  0  0  0  0  0  0  0  0  0
   36.1980   33.0570   39.2960 H   0  0  0  0  0  0  0  0  0  0  0  0
   39.7710   34.9160   40.5830 H   0  0  0  0  0  0  0  0  0  0  0  0
   37.3170   28.7140   42.1680 C   0  0  2  0  0  0  0  0  0  0  0  0
   38.2930   29.1820   43.2930 C   0  0  0  0  0  0  0  0  0  0  0  0
   38.6260   28.0800   42.3100 C   0  0  1  0  0  0  0  0  0  0  0  0
   36.4150   28.2850   42.6680 H   0  0  0  0  0  0  0  0  0  0  0  0
   38.6740   30.1930   43.1920 H   0  0  0  0  0  0  0  0  0  0  0  0
   38.0960   28.8720   44.3210 H   0  0  0  0  0  0  0  0  0  0  0  0
   39.5520   28.3370   41.8140 H   0  0  0  0  0  0  0  0  0  0  0  0
   38.6250   26.7100   42.7430 N   0  0  1  0  0  0  0  0  0  0  0  0
   38.4140   25.7700   41.6760 C   0  0  0  0  0  3  0  0  0  0  0  0
   37.3590   25.9030   41.3130 H   0  0  0  0  0  0  0  0  0  0  0  0
   38.4360   24.3830   42.3310 C   0  0  0  0  0  3  0  0  0  0  0  0
   38.1470   23.6510   41.5420 H   0  0  0  0  0  0  0  0  0  0  0  0
   39.6930   24.0880   42.8140 O   0  0  0  0  0  0  0  0  0  0  0  0
   40.4650   25.2280   43.0300 C   0  0  0  0  0  2  0  0  0  0  0  0
   39.6030   26.3190   43.6790 C   0  0  0  0  0  2  0  0  0  0  0  0
  1  4  1  0  0  0  0
  1  2  1  0  0  0  0
  2  3  2  0  0  0  0
  2 21  1  0  0  0  0
  5  8  1  6  0  0  0
  5  7  1  0  0  0  0
  5 13  1  0  0  0  0
  6  9  1  0  0  0  0
  6  5  1  0  0  0  0
  6  7  1  0  0  0  0
  7 11  1  6  0  0  0
  7  1  1  0  0  0  0
 10  6  1  0  0  0  0
 12 17  1  0  0  0  0
 13 12  2  0  0  0  0
 13 14  1  0  0  0  0
 14 19  1  0  0  0  0
 14 15  2  0  0  0  0
 15 16  1  0  0  0  0
 16 20  1  0  0  0  0
 17 16  2  0  0  0  0
 18 12  1  0  0  0  0
 21 23  1  0  0  0  0
 21 24  1  1  0  0  0
 21 22  1  0  0  0  0
 22 26  1  0  0  0  0
 23 27  1  6  0  0  0
 23 28  1  0  0  0  0
 23 22  1  0  0  0  0
 25 22  1  0  0  0  0
 28 35  1  6  0  0  0
 29 31  1  0  0  0  0
 29 28  1  0  0  0  0
 30 29  1  0  0  0  0
 31 33  1  0  0  0  0
 32 31  1  0  0  0  0
 33 34  1  0  0  0  0
 34 35  1  0  0  0  0
M  END
>  <minimizedAffinity>
-5.2394228

$$$$

 OpenBabel03242510203D

 35 38  0  0  1  0  0  0  0  0999 V2000
   36.8400   28.5150   41.1990 N   0  0  0  0  0  0  0  0  0  0  0  0
   35.9200   29.2560   40.4800 C   0  0  0  0  0  0  0  0  0  0  0  0
   34.6780   29.1010   40.3360 O   0  0  0  0  0  0  0  0  0  0  0  0
   37.7490   28.2890   40.6940 H   0  0  0  0  0  0  0  0  0  0  0  0
   37.1610   26.7230   42.8830 C   0  0  1  0  0  0  0  0  0  0  0  0
   37.8790   27.8430   43.3700 C   0  0  0  0  0  0  0  0  0  0  0  0
   36.6060   28.0660   42.5370 C   0  0  1  0  0  0  0  0  0  0  0  0
   36.5740   26.0570   43.5400 H   0  0  0  0  0  0  0  0  0  0  0  0
   38.7700   28.3180   42.9310 H   0  0  0  0  0  0  0  0  0  0  0  0
   37.8350   28.0490   44.4710 H   0  0  0  0  0  0  0  0  0  0  0  0
   35.9140   28.6660   43.1380 H   0  0  0  0  0  0  0  0  0  0  0  0
   36.9840   25.1210   40.8590 C   0  0  0  0  0  0  0  0  0  0  0  0
   37.7690   25.9220   41.7330 C   0  0  0  0  0  0  0  0  0  0  0  0
   39.1280   25.9480   41.5310 C   0  0  0  0  0  0  0  0  0  0  0  0
   39.6620   25.2210   40.5230 N   0  0  0  0  0  0  0  0  0  0  0  0
   38.9040   24.4560   39.6930 C   0  0  0  0  0  0  0  0  0  0  0  0
   37.5180   24.4100   39.8720 N   0  0  0  0  0  0  0  0  0  0  0  0
   35.9380   25.1120   41.0250 H   0  0  0  0  0  0  0  0  0  0  0  0
   39.7900   26.5310   42.1500 H   0  0  0  0  0  0  0  0  0  0  0  0
   39.3370   23.8770   38.8900 H   0  0  0  0  0  0  0  0  0  0  0  0
   36.3740   30.4850   39.7040 C   0  0  2  0  0  0  0  0  0  0  0  0
   36.7180   30.2660   38.1970 C   0  0  0  0  0  0  0  0  0  0  0  0
   37.7530   30.6260   39.2410 C   0  0  1  0  0  0  0  0  0  0  0  0
   35.6960   31.3700   39.7650 H   0  0  0  0  0  0  0  0  0  0  0  0
   36.5840   29.2540   37.8280 H   0  0  0  0  0  0  0  0  0  0  0  0
   36.4590   31.0480   37.4810 H   0  0  0  0  0  0  0  0  0  0  0  0
   38.5320   29.8770   39.2180 H   0  0  0  0  0  0  0  0  0  0  0  0
   38.3010   31.9540   39.2760 N   0  0  1  0  0  0  0  0  0  0  0  0
   37.6900   32.8020   40.2640 C   0  0  0  0  0  3  0  0  0  0  0  0
   36.6330   32.9930   39.9360 H   0  0  0  0  0  0  0  0  0  0  0  0
   38.3950   34.1600   40.1410 C   0  0  0  0  0  3  0  0  0  0  0  0
   37.8490   34.8660   40.8080 H   0  0  0  0  0  0  0  0  0  0  0  0
   39.7150   34.0650   40.5290 O   0  0  0  0  0  0  0  0  0  0  0  0
   40.1980   32.7600   40.4660 C   0  0  0  0  0  2  0  0  0  0  0  0
   39.7000   32.0860   39.1810 C   0  0  0  0  0  2  0  0  0  0  0  0
  1  7  1  0  0  0  0
  2  1  1  0  0  0  0
  3  2  2  0  0  0  0
  4  1  1  0  0  0  0
  5  6  1  0  0  0  0
  5  8  1  1  0  0  0
  6 10  1  0  0  0  0
  7  5  1  0  0  0  0
  7 11  1  1  0  0  0
  7  6  1  0  0  0  0
  9  6  1  0  0  0  0
 12 18  1  0  0  0  0
 12 13  1  0  0  0  0
 13  5  1  0  0  0  0
 14 13  2  0  0  0  0
 14 19  1  0  0  0  0
 15 14  1  0  0  0  0
 16 17  1  0  0  0  0
 16 15  2  0  0  0  0
 17 12  2  0  0  0  0
 20 16  1  0  0  0  0
 21 24  1  1  0  0  0
 21  2  1  0  0  0  0
 22 23  1  0  0  0  0
 22 21  1  0  0  0  0
 23 27  1  1  0  0  0
 23 28  1  0  0  0  0
 23 21  1  0  0  0  0
 25 22  1  0  0  0  0
 26 22  1  0  0  0  0
 28 35  1  1  0  0  0
 28 29  1  0  0  0  0
 30 29  1  0  0  0  0
 31 29  1  0  0  0  0
 31 33  1  0  0  0  0
 31 32  1  0  0  0  0
 34 33  1  0  0  0  0
 35 34  1  0  0  0  0
M  END
>  <minimizedAffinity>
-4.97913694

$$$$

 OpenBabel03242510203D

 35 38  0  0  1  0  0  0  0  0999 V2000
   38.4570   27.3880   42.6240 N   0  0  0  0  0  0  0  0  0  0  0  0
   37.1830   27.8810   42.8440 C   0  0  0  0  0  0  0  0  0  0  0  0
   36.2270   27.4040   43.5120 O   0  0  0  0  0  0  0  0  0  0  0  0
   38.8010   27.4300   41.6180 H   0  0  0  0  0  0  0  0  0  0  0  0
   39.8260   25.4810   43.4230 C   0  0  1  0  0  0  0  0  0  0  0  0
   40.7290   26.5590   43.2520 C   0  0  0  0  0  0  0  0  0  0  0  0
   39.2770   26.8490   43.6640 C   0  0  1  0  0  0  0  0  0  0  0  0
   39.8910   24.7750   44.2690 H   0  0  0  0  0  0  0  0  0  0  0  0
   41.0180   27.0580   42.3130 H   0  0  0  0  0  0  0  0  0  0  0  0
   41.5340   26.6890   44.0210 H   0  0  0  0  0  0  0  0  0  0  0  0
   39.3020   27.4100   44.6050 H   0  0  0  0  0  0  0  0  0  0  0  0
   38.1040   24.0280   42.1520 C   0  0  0  0  0  0  0  0  0  0  0  0
   39.3240   24.7570   42.1740 C   0  0  0  0  0  0  0  0  0  0  0  0
   40.0750   24.7860   41.0240 C   0  0  0  0  0  0  0  0  0  0  0  0
   39.6330   24.1270   39.9280 N   0  0  0  0  0  0  0  0  0  0  0  0
   38.4670   23.4290   39.9160 C   0  0  0  0  0  0  0  0  0  0  0  0
   37.6790   23.3830   41.0700 N   0  0  0  0  0  0  0  0  0  0  0  0
   37.5350   24.0160   43.0450 H   0  0  0  0  0  0  0  0  0  0  0  0
   41.0100   25.3170   40.9610 H   0  0  0  0  0  0  0  0  0  0  0  0
   38.1200   22.9040   39.0370 H   0  0  0  0  0  0  0  0  0  0  0  0
   36.7670   29.2110   42.2330 C   0  0  2  0  0  0  0  0  0  0  0  0
   35.9580   29.1390   40.9000 C   0  0  0  0  0  0  0  0  0  0  0  0
   37.3620   29.6970   40.9900 C   0  0  1  0  0  0  0  0  0  0  0  0
   36.2200   29.9040   42.9170 H   0  0  0  0  0  0  0  0  0  0  0  0
   35.7460   28.1400   40.5330 H   0  0  0  0  0  0  0  0  0  0  0  0
   35.1580   29.8620   40.7320 H   0  0  0  0  0  0  0  0  0  0  0  0
   37.9860   29.1590   40.2910 H   0  0  0  0  0  0  0  0  0  0  0  0
   37.5750   31.1150   40.9000 N   0  0  1  0  0  0  0  0  0  0  0  0
   38.9480   31.5030   41.0820 C   0  0  0  0  0  3  0  0  0  0  0  0
   39.2180   31.2920   42.1510 H   0  0  0  0  0  0  0  0  0  0  0  0
   38.9690   33.0320   40.9620 C   0  0  0  0  0  3  0  0  0  0  0  0
   40.0010   33.3600   41.2270 H   0  0  0  0  0  0  0  0  0  0  0  0
   38.6610   33.4290   39.6780 O   0  0  0  0  0  0  0  0  0  0  0  0
   37.9630   32.4520   38.9700 C   0  0  0  0  0  2  0  0  0  0  0  0
   36.9030   31.8140   39.8780 C   0  0  0  0  0  2  0  0  0  0  0  0
  1  2  1  0  0  0  0
  1  7  1  0  0  0  0
  2  3  2  0  0  0  0
  4  1  1  0  0  0  0
  5  7  1  0  0  0  0
  5  8  1  1  0  0  0
  6  5  1  0  0  0  0
  6  7  1  0  0  0  0
  6 10  1  0  0  0  0
  7 11  1  1  0  0  0
  9  6  1  0  0  0  0
 12 13  1  0  0  0  0
 12 18  1  0  0  0  0
 13  5  1  0  0  0  0
 14 13  2  0  0  0  0
 15 14  1  0  0  0  0
 16 15  2  0  0  0  0
 16 17  1  0  0  0  0
 17 12  2  0  0  0  0
 19 14  1  0  0  0  0
 20 16  1  0  0  0  0
 21  2  1  0  0  0  0
 21 24  1  1  0  0  0
 22 23  1  0  0  0  0
 22 21  1  0  0  0  0
 23 27  1  6  0  0  0
 23 21  1  0  0  0  0
 25 22  1  0  0  0  0
 26 22  1  0  0  0  0
 28 35  1  6  0  0  0
 28 23  1  0  0  0  0
 28 29  1  0  0  0  0
 29 30  1  0  0  0  0
 31 29  1  0  0  0  0
 31 32  1  0  0  0  0
 33 31  1  0  0  0  0
 34 33  1  0  0  0  0
 34 35  1  0  0  0  0
M  END
>  <minimizedAffinity>
-4.96225071

$$$$

 OpenBabel03242510203D

 35 38  0  0  1  0  0  0  0  0999 V2000
   38.0370   30.4700   40.5230 N   0  0  0  0  0  0  0  0  0  0  0  0
   38.4750   29.9650   41.7330 C   0  0  0  0  0  0  0  0  0  0  0  0
   38.9560   30.5540   42.7380 O   0  0  0  0  0  0  0  0  0  0  0  0
   38.3640   29.9450   39.6570 H   0  0  0  0  0  0  0  0  0  0  0  0
   37.8390   32.8470   39.8480 C   0  0  1  0  0  0  0  0  0  0  0  0
   36.9830   32.1280   38.9790 C   0  0  0  0  0  0  0  0  0  0  0  0
   37.1980   31.6230   40.4150 C   0  0  1  0  0  0  0  0  0  0  0  0
   37.5720   33.8330   40.2690 H   0  0  0  0  0  0  0  0  0  0  0  0
   37.2620   31.3860   38.2150 H   0  0  0  0  0  0  0  0  0  0  0  0
   35.9950   32.5910   38.7220 H   0  0  0  0  0  0  0  0  0  0  0  0
   36.2170   31.5590   40.8980 H   0  0  0  0  0  0  0  0  0  0  0  0
   39.8970   32.2770   38.3880 C   0  0  0  0  0  0  0  0  0  0  0  0
   39.3450   32.7740   39.5990 C   0  0  0  0  0  0  0  0  0  0  0  0
   40.2150   33.1820   40.5810 C   0  0  0  0  0  0  0  0  0  0  0  0
   41.5480   33.0960   40.3620 N   0  0  0  0  0  0  0  0  0  0  0  0
   42.0680   32.6180   39.2010 C   0  0  0  0  0  0  0  0  0  0  0  0
   41.2080   32.1960   38.1820 N   0  0  0  0  0  0  0  0  0  0  0  0
   39.2150   31.9680   37.6390 H   0  0  0  0  0  0  0  0  0  0  0  0
   39.8750   33.5700   41.5270 H   0  0  0  0  0  0  0  0  0  0  0  0
   43.1340   32.5520   39.0330 H   0  0  0  0  0  0  0  0  0  0  0  0
   38.4020   28.4690   42.0040 C   0  0  2  0  0  0  0  0  0  0  0  0
   37.0920   27.9480   42.6740 C   0  0  0  0  0  0  0  0  0  0  0  0
   38.4390   27.9380   43.3640 C   0  0  1  0  0  0  0  0  0  0  0  0
   38.6100   27.8100   41.1250 H   0  0  0  0  0  0  0  0  0  0  0  0
   36.3360   28.7010   42.8730 H   0  0  0  0  0  0  0  0  0  0  0  0
   36.6960   26.9780   42.3690 H   0  0  0  0  0  0  0  0  0  0  0  0
   38.3460   28.4780   44.2960 H   0  0  0  0  0  0  0  0  0  0  0  0
   39.1420   26.6980   43.5430 N   0  0  1  0  0  0  0  0  0  0  0  0
   38.6690   25.6410   42.6900 C   0  0  0  0  0  3  0  0  0  0  0  0
   37.6310   25.3740   43.0290 H   0  0  0  0  0  0  0  0  0  0  0  0
   39.5240   24.4140   43.0330 C   0  0  0  0  0  3  0  0  0  0  0  0
   39.0880   23.5530   42.4750 H   0  0  0  0  0  0  0  0  0  0  0  0
   40.8360   24.6080   42.6540 O   0  0  0  0  0  0  0  0  0  0  0  0
   41.1590   25.9570   42.5210 C   0  0  0  0  0  2  0  0  0  0  0  0
   40.5430   26.7530   43.6790 C   0  0  0  0  0  2  0  0  0  0  0  0
  1  2  1  0  0  0  0
  2 21  1  0  0  0  0
  2  3  2  0  0  0  0
  4  1  1  0  0  0  0
  5  8  1  1  0  0  0
  5  7  1  0  0  0  0
  6  5  1  0  0  0  0
  6  7  1  0  0  0  0
  7  1  1  0  0  0  0
  7 11  1  1  0  0  0
  9  6  1  0  0  0  0
 10  6  1  0  0  0  0
 12 13  1  0  0  0  0
 13  5  1  0  0  0  0
 13 14  2  0  0  0  0
 14 19  1  0  0  0  0
 15 14  1  0  0  0  0
 16 15  2  0  0  0  0
 17 12  2  0  0  0  0
 17 16  1  0  0  0  0
 18 12  1  0  0  0  0
 20 16  1  0  0  0  0
 21 24  1  6  0  0  0
 21 22  1  0  0  0  0
 21 23  1  0  0  0  0
 22 25  1  0  0  0  0
 22 23  1  0  0  0  0
 23 28  1  0  0  0  0
 23 27  1  1  0  0  0
 26 22  1  0  0  0  0
 28 35  1  6  0  0  0
 29 30  1  0  0  0  0
 29 31  1  0  0  0  0
 29 28  1  0  0  0  0
 32 31  1  0  0  0  0
 33 31  1  0  0  0  0
 34 33  1  0  0  0  0
 34 35  1  0  0  0  0
M  END
>  <minimizedAffinity>
-4.80579615

$$$$

 OpenBabel03242510203D

 35 38  0  0  1  0  0  0  0  0999 V2000
   37.9500   26.4960   42.0190 N   0  0  0  0  0  0  0  0  0  0  0  0
   37.0150   27.3780   42.5290 C   0  0  0  0  0  0  0  0  0  0  0  0
   36.2680   27.2820   43.5400 O   0  0  0  0  0  0  0  0  0  0  0  0
   37.9150   26.3420   40.9670 H   0  0  0  0  0  0  0  0  0  0  0  0
   39.4750   24.5570   42.2700 C   0  0  1  0  0  0  0  0  0  0  0  0
   40.3110   25.6980   42.2050 C   0  0  0  0  0  0  0  0  0  0  0  0
   38.9130   25.8210   42.8330 C   0  0  1  0  0  0  0  0  0  0  0  0
   39.6710   23.7100   42.9510 H   0  0  0  0  0  0  0  0  0  0  0  0
   40.4620   26.3800   41.3530 H   0  0  0  0  0  0  0  0  0  0  0  0
   41.2020   25.7290   42.8850 H   0  0  0  0  0  0  0  0  0  0  0  0
   39.0370   26.1970   43.8550 H   0  0  0  0  0  0  0  0  0  0  0  0
   39.3530   24.3940   39.6900 C   0  0  0  0  0  0  0  0  0  0  0  0
   38.8450   24.0510   40.9730 C   0  0  0  0  0  0  0  0  0  0  0  0
   37.7320   23.2480   41.0280 C   0  0  0  0  0  0  0  0  0  0  0  0
   37.1670   22.8190   39.8750 N   0  0  0  0  0  0  0  0  0  0  0  0
   37.6580   23.1530   38.6530 C   0  0  0  0  0  0  0  0  0  0  0  0
   38.7910   23.9680   38.5640 N   0  0  0  0  0  0  0  0  0  0  0  0
   40.2130   25.0120   39.6640 H   0  0  0  0  0  0  0  0  0  0  0  0
   37.2870   22.9440   41.9610 H   0  0  0  0  0  0  0  0  0  0  0  0
   37.2020   22.8070   37.7360 H   0  0  0  0  0  0  0  0  0  0  0  0
   36.7750   28.7140   41.8400 C   0  0  2  0  0  0  0  0  0  0  0  0
   35.7190   28.7210   40.6900 C   0  0  0  0  0  0  0  0  0  0  0  0
   37.1980   28.9460   40.4620 C   0  0  1  0  0  0  0  0  0  0  0  0
   36.5330   29.5680   42.5180 H   0  0  0  0  0  0  0  0  0  0  0  0
   35.2330   27.7710   40.4940 H   0  0  0  0  0  0  0  0  0  0  0  0
   35.0720   29.5920   40.5770 H   0  0  0  0  0  0  0  0  0  0  0  0
   37.5430   28.2230   39.7360 H   0  0  0  0  0  0  0  0  0  0  0  0
   37.6830   30.2650   40.1600 N   0  0  1  0  0  0  0  0  0  0  0  0
   36.8410   31.3160   40.6660 C   0  0  0  0  0  3  0  0  0  0  0  0
   35.8770   31.2820   40.0900 H   0  0  0  0  0  0  0  0  0  0  0  0
   37.5110   32.6280   40.2390 C   0  0  0  0  0  3  0  0  0  0  0  0
   36.8080   33.4500   40.5110 H   0  0  0  0  0  0  0  0  0  0  0  0
   38.7150   32.8000   40.8900 O   0  0  0  0  0  0  0  0  0  0  0  0
   39.2420   31.6000   41.3640 C   0  0  0  0  0  2  0  0  0  0  0  0
   39.0630   30.5040   40.3050 C   0  0  0  0  0  2  0  0  0  0  0  0
  1  2  1  0  0  0  0
  1  7  1  0  0  0  0
  2  3  2  0  0  0  0
  4  1  1  0  0  0  0
  5  7  1  0  0  0  0
  5  8  1  1  0  0  0
  6  5  1  0  0  0  0
  6  7  1  0  0  0  0
  6 10  1  0  0  0  0
  7 11  1  1  0  0  0
  9  6  1  0  0  0  0
 12 13  1  0  0  0  0
 13 14  2  0  0  0  0
 13  5  1  0  0  0  0
 14 19  1  0  0  0  0
 15 14  1  0  0  0  0
 16 15  2  0  0  0  0
 17 16  1  0  0  0  0
 17 12  2  0  0  0  0
 18 12  1  0  0  0  0
 20 16  1  0  0  0  0
 21 24  1  1  0  0  0
 21  2  1  0  0  0  0
 22 21  1  0  0  0  0
 23 27  1  6  0  0  0
 23 22  1  0  0  0  0
 23 21  1  0  0  0  0
 25 22  1  0  0  0  0
 26 22  1  0  0  0  0
 28 35  1  1  0  0  0
 28 23  1  0  0  0  0
 28 29  1  0  0  0  0
 30 29  1  0  0  0  0
 31 32  1  0  0  0  0
 31 29  1  0  0  0  0
 31 33  1  0  0  0  0
 33 34  1  0  0  0  0
 35 34  1  0  0  0  0
M  END
>  <minimizedAffinity>
-4.71063471

$$$$

 OpenBabel03242510203D

 35 38  0  0  1  0  0  0  0  0999 V2000
   37.8930   29.8760   39.3450 N   0  0  0  0  0  0  0  0  0  0  0  0
   38.4610   31.0580   38.9060 C   0  0  0  0  0  0  0  0  0  0  0  0
   38.2220   31.7460   37.8770 O   0  0  0  0  0  0  0  0  0  0  0  0
   38.5750   29.1330   39.6840 H   0  0  0  0  0  0  0  0  0  0  0  0
   35.9440   28.9290   40.5490 C   0  0  1  0  0  0  0  0  0  0  0  0
   35.7240   30.3270   40.5020 C   0  0  0  0  0  0  0  0  0  0  0  0
   36.4820   29.6420   39.3530 C   0  0  1  0  0  0  0  0  0  0  0  0
   35.1330   28.1910   40.4110 H   0  0  0  0  0  0  0  0  0  0  0  0
   36.3100   31.1210   40.9920 H   0  0  0  0  0  0  0  0  0  0  0  0
   34.6790   30.6830   40.3100 H   0  0  0  0  0  0  0  0  0  0  0  0
   35.9470   29.8600   38.4220 H   0  0  0  0  0  0  0  0  0  0  0  0
   37.4810   27.0670   41.4810 C   0  0  0  0  0  0  0  0  0  0  0  0
   36.9740   28.3940   41.5430 C   0  0  0  0  0  0  0  0  0  0  0  0
   37.4270   29.2060   42.5550 C   0  0  0  0  0  0  0  0  0  0  0  0
   38.3240   28.7200   43.4430 N   0  0  0  0  0  0  0  0  0  0  0  0
   38.8020   27.4500   43.3770 C   0  0  0  0  0  0  0  0  0  0  0  0
   38.3620   26.5990   42.3580 N   0  0  0  0  0  0  0  0  0  0  0  0
   37.1240   26.4530   40.6950 H   0  0  0  0  0  0  0  0  0  0  0  0
   37.0900   30.2240   42.6690 H   0  0  0  0  0  0  0  0  0  0  0  0
   39.5190   27.0680   44.0900 H   0  0  0  0  0  0  0  0  0  0  0  0
   39.5550   31.7270   39.7250 C   0  0  2  0  0  0  0  0  0  0  0  0
   39.1220   32.3290   41.0990 C   0  0  0  0  0  0  0  0  0  0  0  0
   39.5770   33.1730   39.9290 C   0  0  1  0  0  0  0  0  0  0  0  0
   40.4670   31.1080   39.9060 H   0  0  0  0  0  0  0  0  0  0  0  0
   38.0760   32.2000   41.3590 H   0  0  0  0  0  0  0  0  0  0  0  0
   39.8100   32.2580   41.9440 H   0  0  0  0  0  0  0  0  0  0  0  0
   38.8010   33.8930   39.7090 H   0  0  0  0  0  0  0  0  0  0  0  0
   40.8740   33.7910   39.9540 N   0  0  1  0  0  0  0  0  0  0  0  0
   41.7900   33.1680   40.8720 C   0  0  0  0  0  3  0  0  0  0  0  0
   41.4140   33.3680   41.9110 H   0  0  0  0  0  0  0  0  0  0  0  0
   43.0960   33.9650   40.7630 C   0  0  0  0  0  3  0  0  0  0  0  0
   43.7750   33.5770   41.5580 H   0  0  0  0  0  0  0  0  0  0  0  0
   43.6740   33.7940   39.5230 O   0  0  0  0  0  0  0  0  0  0  0  0
   42.7580   33.3790   38.5590 C   0  0  0  0  0  2  0  0  0  0  0  0
   41.4470   34.1600   38.7220 C   0  0  0  0  0  2  0  0  0  0  0  0
  1  7  1  0  0  0  0
  1  4  1  0  0  0  0
  2  1  1  0  0  0  0
  2 21  1  0  0  0  0
  3  2  2  0  0  0  0
  5  8  1  6  0  0  0
  5 13  1  0  0  0  0
  6  5  1  0  0  0  0
  6  9  1  0  0  0  0
  7 11  1  6  0  0  0
  7  6  1  0  0  0  0
  7  5  1  0  0  0  0
 10  6  1  0  0  0  0
 12 13  2  0  0  0  0
 12 17  1  0  0  0  0
 13 14  1  0  0  0  0
 14 19  1  0  0  0  0
 14 15  2  0  0  0  0
 16 15  1  0  0  0  0
 16 20  1  0  0  0  0
 17 16  2  0  0  0  0
 18 12  1  0  0  0  0
 21 24  1  6  0  0  0
 21 23  1  0  0  0  0
 21 22  1  0  0  0  0
 22 25  1  0  0  0  0
 22 26  1  0  0  0  0
 23 27  1  6  0  0  0
 23 28  1  0  0  0  0
 23 22  1  0  0  0  0
 28 35  1  6  0  0  0
 28 29  1  0  0  0  0
 29 30  1  0  0  0  0
 31 29  1  0  0  0  0
 31 32  1  0  0  0  0
 33 31  1  0  0  0  0
 34 35  1  0  0  0  0
 34 33  1  0  0  0  0
M  END
>  <minimizedAffinity>
-4.69043779

$$$$

 OpenBabel03242510203D

 35 38  0  0  1  0  0  0  0  0999 V2000
   36.2380   28.4490   42.0750 N   0  0  0  0  0  0  0  0  0  0  0  0
   36.2030   29.4140   41.0850 C   0  0  0  0  0  0  0  0  0  0  0  0
   36.1650   30.6710   41.1710 O   0  0  0  0  0  0  0  0  0  0  0  0
   35.5790   27.6250   41.9420 H   0  0  0  0  0  0  0  0  0  0  0  0
   38.1170   27.4490   43.3470 C   0  0  1  0  0  0  0  0  0  0  0  0
   38.5880   28.7020   42.8860 C   0  0  0  0  0  0  0  0  0  0  0  0
   37.0970   28.5310   43.2160 C   0  0  1  0  0  0  0  0  0  0  0  0
   38.3510   27.0540   44.3520 H   0  0  0  0  0  0  0  0  0  0  0  0
   38.7660   29.0170   41.8460 H   0  0  0  0  0  0  0  0  0  0  0  0
   39.2200   29.3080   43.5860 H   0  0  0  0  0  0  0  0  0  0  0  0
   36.8330   29.2800   43.9710 H   0  0  0  0  0  0  0  0  0  0  0  0
   37.0790   25.2450   42.4740 C   0  0  0  0  0  0  0  0  0  0  0  0
   38.0230   26.3000   42.3430 C   0  0  0  0  0  0  0  0  0  0  0  0
   38.8870   26.2590   41.2760 C   0  0  0  0  0  0  0  0  0  0  0  0
   38.8110   25.2300   40.4020 N   0  0  0  0  0  0  0  0  0  0  0  0
   37.9080   24.2230   40.5350 C   0  0  0  0  0  0  0  0  0  0  0  0
   37.0130   24.2380   41.6100 N   0  0  0  0  0  0  0  0  0  0  0  0
   36.4180   25.2910   43.3000 H   0  0  0  0  0  0  0  0  0  0  0  0
   39.6300   27.0210   41.1080 H   0  0  0  0  0  0  0  0  0  0  0  0
   37.8520   23.4030   39.8330 H   0  0  0  0  0  0  0  0  0  0  0  0
   36.2160   29.0010   39.6200 C   0  0  2  0  0  0  0  0  0  0  0  0
   37.6210   28.8170   38.9650 C   0  0  0  0  0  0  0  0  0  0  0  0
   36.6610   29.9190   38.5750 C   0  0  1  0  0  0  0  0  0  0  0  0
   35.6110   28.0970   39.3700 H   0  0  0  0  0  0  0  0  0  0  0  0
   38.4700   28.9820   39.6200 H   0  0  0  0  0  0  0  0  0  0  0  0
   37.7600   28.0140   38.2380 H   0  0  0  0  0  0  0  0  0  0  0  0
   37.1700   30.8670   38.6870 H   0  0  0  0  0  0  0  0  0  0  0  0
   35.9570   29.8460   37.3240 N   0  0  1  0  0  0  0  0  0  0  0  0
   36.8240   29.7100   36.1840 C   0  0  0  0  0  3  0  0  0  0  0  0
   37.3930   30.6730   36.0780 H   0  0  0  0  0  0  0  0  0  0  0  0
   35.9000   29.6590   34.9610 C   0  0  0  0  0  3  0  0  0  0  0  0
   36.5570   29.6840   34.0610 H   0  0  0  0  0  0  0  0  0  0  0  0
   35.1430   28.5060   34.9640 O   0  0  0  0  0  0  0  0  0  0  0  0
   35.0340   27.9430   36.2340 C   0  0  0  0  0  2  0  0  0  0  0  0
   34.7980   29.0480   37.2710 C   0  0  0  0  0  2  0  0  0  0  0  0
  1  7  1  0  0  0  0
  2  3  2  0  0  0  0
  2  1  1  0  0  0  0
  4  1  1  0  0  0  0
  5  8  1  1  0  0  0
  6  7  1  0  0  0  0
  6  5  1  0  0  0  0
  6 10  1  0  0  0  0
  7  5  1  0  0  0  0
  7 11  1  1  0  0  0
  9  6  1  0  0  0  0
 12 18  1  0  0  0  0
 13 12  1  0  0  0  0
 13  5  1  0  0  0  0
 14 13  2  0  0  0  0
 15 16  2  0  0  0  0
 15 14  1  0  0  0  0
 16 17  1  0  0  0  0
 17 12  2  0  0  0  0
 19 14  1  0  0  0  0
 20 16  1  0  0  0  0
 21 24  1  6  0  0  0
 21  2  1  0  0  0  0
 22 25  1  0  0  0  0
 22 21  1  0  0  0  0
 23 27  1  1  0  0  0
 23 22  1  0  0  0  0
 23 21  1  0  0  0  0
 26 22  1  0  0  0  0
 28 35  1  1  0  0  0
 28 23  1  0  0  0  0
 29 28  1  0  0  0  0
 30 29  1  0  0  0  0
 31 33  1  0  0  0  0
 31 29  1  0  0  0  0
 32 31  1  0  0  0  0
 33 34  1  0  0  0  0
 34 35  1  0  0  0  0
M  END
>  <minimizedAffinity>
-4.66648531

$$$$

 OpenBabel03242510203D

 35 38  0  0  1  0  0  0  0  0999 V2000
   36.2980   28.5480   42.1520 N   0  0  0  0  0  0  0  0  0  0  0  0
   36.2590   29.5980   41.2530 C   0  0  0  0  0  0  0  0  0  0  0  0
   36.2780   30.8430   41.4490 O   0  0  0  0  0  0  0  0  0  0  0  0
   35.5980   27.7650   41.9790 H   0  0  0  0  0  0  0  0  0  0  0  0
   38.1690   27.3510   43.2530 C   0  0  1  0  0  0  0  0  0  0  0  0
   38.6920   28.6080   42.8640 C   0  0  0  0  0  0  0  0  0  0  0  0
   37.2090   28.4950   43.2530 C   0  0  1  0  0  0  0  0  0  0  0  0
   38.4240   26.8690   44.2140 H   0  0  0  0  0  0  0  0  0  0  0  0
   38.8420   28.9920   41.8430 H   0  0  0  0  0  0  0  0  0  0  0  0
   39.3890   29.1240   43.5750 H   0  0  0  0  0  0  0  0  0  0  0  0
   37.0240   29.1970   44.0730 H   0  0  0  0  0  0  0  0  0  0  0  0
   37.0090   25.2450   42.2980 C   0  0  0  0  0  0  0  0  0  0  0  0
   37.9640   26.2900   42.1730 C   0  0  0  0  0  0  0  0  0  0  0  0
   38.7360   26.3200   41.0360 C   0  0  0  0  0  0  0  0  0  0  0  0
   38.5620   25.3670   40.0930 N   0  0  0  0  0  0  0  0  0  0  0  0
   37.6480   24.3700   40.2210 C   0  0  0  0  0  0  0  0  0  0  0  0
   36.8460   24.3120   41.3660 N   0  0  0  0  0  0  0  0  0  0  0  0
   36.4200   25.2350   43.1790 H   0  0  0  0  0  0  0  0  0  0  0  0
   39.4810   27.0800   40.8670 H   0  0  0  0  0  0  0  0  0  0  0  0
   37.5140   23.6100   39.4640 H   0  0  0  0  0  0  0  0  0  0  0  0
   36.1890   29.3170   39.7590 C   0  0  2  0  0  0  0  0  0  0  0  0
   34.7740   29.0050   39.1770 C   0  0  0  0  0  0  0  0  0  0  0  0
   35.8870   27.9820   39.2480 C   0  0  1  0  0  0  0  0  0  0  0  0
   36.6550   30.0900   39.1010 H   0  0  0  0  0  0  0  0  0  0  0  0
   33.9570   29.0340   39.8910 H   0  0  0  0  0  0  0  0  0  0  0  0
   34.5210   29.3780   38.1840 H   0  0  0  0  0  0  0  0  0  0  0  0
   35.5230   27.1230   39.7940 H   0  0  0  0  0  0  0  0  0  0  0  0
   36.5760   27.5890   38.0500 N   0  0  1  0  0  0  0  0  0  0  0  0
   35.7250   27.5320   36.8910 C   0  0  0  0  0  3  0  0  0  0  0  0
   35.0090   26.6790   37.0410 H   0  0  0  0  0  0  0  0  0  0  0  0
   36.6290   27.0910   35.7320 C   0  0  0  0  0  3  0  0  0  0  0  0
   35.9630   26.9170   34.8550 H   0  0  0  0  0  0  0  0  0  0  0  0
   37.5580   28.0650   35.4360 O   0  0  0  0  0  0  0  0  0  0  0  0
   37.7740   28.9400   36.4990 C   0  0  0  0  0  2  0  0  0  0  0  0
   37.8460   28.1490   37.8120 C   0  0  0  0  0  2  0  0  0  0  0  0
  1  7  1  0  0  0  0
  2  3  2  0  0  0  0
  2  1  1  0  0  0  0
  4  1  1  0  0  0  0
  5  8  1  1  0  0  0
  6  7  1  0  0  0  0
  6  5  1  0  0  0  0
  6 10  1  0  0  0  0
  7  5  1  0  0  0  0
  7 11  1  1  0  0  0
  9  6  1  0  0  0  0
 12 18  1  0  0  0  0
 13 12  1  0  0  0  0
 13  5  1  0  0  0  0
 14 13  2  0  0  0  0
 15 16  2  0  0  0  0
 15 14  1  0  0  0  0
 16 17  1  0  0  0  0
 17 12  2  0  0  0  0
 19 14  1  0  0  0  0
 20 16  1  0  0  0  0
 21 24  1  6  0  0  0
 21  2  1  0  0  0  0
 22 23  1  0  0  0  0
 22 21  1  0  0  0  0
 22 25  1  0  0  0  0
 23 21  1  0  0  0  0
 23 27  1  1  0  0  0
 26 22  1  0  0  0  0
 28 35  1  6  0  0  0
 28 23  1  0  0  0  0
 29 30  1  0  0  0  0
 29 28  1  0  0  0  0
 31 29  1  0  0  0  0
 32 31  1  0  0  0  0
 33 31  1  0  0  0  0
 33 34  1  0  0  0  0
 34 35  1  0  0  0  0
M  END
>  <minimizedAffinity>
-4.65079784

$$$$

 OpenBabel03242510203D

 35 38  0  0  1  0  0  0  0  0999 V2000
   37.3100   29.3380   41.2260 N   0  0  0  0  0  0  0  0  0  0  0  0
   37.4350   28.6700   42.4310 C   0  0  0  0  0  0  0  0  0  0  0  0
   37.6290   29.1140   43.5940 O   0  0  0  0  0  0  0  0  0  0  0  0
   37.8600   28.9290   40.4110 H   0  0  0  0  0  0  0  0  0  0  0  0
   37.2090   31.7250   40.5660 C   0  0  1  0  0  0  0  0  0  0  0  0
   36.4210   31.0300   39.6170 C   0  0  0  0  0  0  0  0  0  0  0  0
   36.5030   30.5060   41.0600 C   0  0  1  0  0  0  0  0  0  0  0  0
   36.9220   32.7110   40.9750 H   0  0  0  0  0  0  0  0  0  0  0  0
   36.7540   30.2910   38.8710 H   0  0  0  0  0  0  0  0  0  0  0  0
   35.4660   31.5120   39.2810 H   0  0  0  0  0  0  0  0  0  0  0  0
   35.4820   30.4530   41.4550 H   0  0  0  0  0  0  0  0  0  0  0  0
   39.3840   31.2870   39.2340 C   0  0  0  0  0  0  0  0  0  0  0  0
   38.7300   31.6300   40.4480 C   0  0  0  0  0  0  0  0  0  0  0  0
   39.5120   31.8620   41.5540 C   0  0  0  0  0  0  0  0  0  0  0  0
   40.8560   31.7570   41.4480 N   0  0  0  0  0  0  0  0  0  0  0  0
   41.4740   31.4270   40.2830 C   0  0  0  0  0  0  0  0  0  0  0  0
   40.7050   31.1860   39.1400 N   0  0  0  0  0  0  0  0  0  0  0  0
   38.7690   31.1130   38.3890 H   0  0  0  0  0  0  0  0  0  0  0  0
   39.0910   32.1270   42.5100 H   0  0  0  0  0  0  0  0  0  0  0  0
   42.5490   31.3440   40.2050 H   0  0  0  0  0  0  0  0  0  0  0  0
   37.3280   27.1520   42.4730 C   0  0  2  0  0  0  0  0  0  0  0  0
   38.6720   26.3650   42.5750 C   0  0  0  0  0  0  0  0  0  0  0  0
   37.7770   26.3260   41.3560 C   0  0  1  0  0  0  0  0  0  0  0  0
   36.6420   26.7400   43.2520 H   0  0  0  0  0  0  0  0  0  0  0  0
   39.5700   26.9740   42.6250 H   0  0  0  0  0  0  0  0  0  0  0  0
   38.7050   25.4590   43.1820 H   0  0  0  0  0  0  0  0  0  0  0  0
   38.3630   26.6220   40.4960 H   0  0  0  0  0  0  0  0  0  0  0  0
   36.9960   25.1520   41.0790 N   0  0  1  0  0  0  0  0  0  0  0  0
   36.5830   25.0470   39.7050 C   0  0  0  0  0  3  0  0  0  0  0  0
   35.8450   25.8720   39.5120 H   0  0  0  0  0  0  0  0  0  0  0  0
   35.7640   23.7530   39.6140 C   0  0  0  0  0  3  0  0  0  0  0  0
   35.3280   23.7210   38.5880 H   0  0  0  0  0  0  0  0  0  0  0  0
   36.5630   22.6490   39.8240 O   0  0  0  0  0  0  0  0  0  0  0  0
   37.7320   22.9600   40.5160 C   0  0  0  0  0  2  0  0  0  0  0  0
   37.4140   23.9370   41.6560 C   0  0  0  0  0  2  0  0  0  0  0  0
  1  2  1  0  0  0  0
  2 21  1  0  0  0  0
  2  3  2  0  0  0  0
  4  1  1  0  0  0  0
  5  8  1  1  0  0  0
  5  7  1  0  0  0  0
  6  5  1  0  0  0  0
  6  7  1  0  0  0  0
  7  1  1  0  0  0  0
  7 11  1  1  0  0  0
  9  6  1  0  0  0  0
 10  6  1  0  0  0  0
 12 13  1  0  0  0  0
 13  5  1  0  0  0  0
 13 14  2  0  0  0  0
 14 19  1  0  0  0  0
 15 14  1  0  0  0  0
 16 15  2  0  0  0  0
 17 12  2  0  0  0  0
 17 16  1  0  0  0  0
 18 12  1  0  0  0  0
 20 16  1  0  0  0  0
 21 22  1  0  0  0  0
 21 24  1  1  0  0  0
 22 25  1  0  0  0  0
 22 26  1  0  0  0  0
 23 27  1  6  0  0  0
 23 21  1  0  0  0  0
 23 22  1  0  0  0  0
 28 23  1  0  0  0  0
 28 35  1  6  0  0  0
 29 28  1  0  0  0  0
 30 29  1  0  0  0  0
 31 29  1  0  0  0  0
 31 33  1  0  0  0  0
 32 31  1  0  0  0  0
 33 34  1  0  0  0  0
 34 35  1  0  0  0  0
M  END
>  <minimizedAffinity>
-4.64703274

$$$$
