
 OpenBabel03252508553D

 42 45  0  0  1  0  0  0  0  0999 V2000
   37.8070   27.6420   38.6000 C   0  0  0  0  0  0  0  0  0  0  0  0
   37.3580   27.1410   37.5090 O   0  0  0  0  0  0  0  0  0  0  0  0
   37.3510   29.0100   38.4320 N   0  0  0  0  0  0  0  0  0  0  0  0
   35.9220   29.1710   38.3220 C   0  0  0  0  0  0  0  0  0  0  0  0
   35.6590   29.3340   36.8140 C   0  0  0  0  0  0  0  0  0  0  0  0
   36.8360   30.1260   36.2570 C   0  0  0  0  0  0  0  0  0  0  0  0
   37.4350   31.0700   37.3000 C   0  0  0  0  0  0  0  0  0  0  0  0
   38.1310   30.2260   38.3600 C   0  0  1  0  0  0  0  0  0  0  0  0
   35.3390   28.2930   38.6540 H   0  0  0  0  0  0  0  0  0  0  0  0
   35.5450   30.1000   38.8080 H   0  0  0  0  0  0  0  0  0  0  0  0
   35.6290   28.3410   36.3100 H   0  0  0  0  0  0  0  0  0  0  0  0
   34.6970   29.8410   36.6230 H   0  0  0  0  0  0  0  0  0  0  0  0
   36.4410   30.8000   35.4500 H   0  0  0  0  0  0  0  0  0  0  0  0
   37.6330   29.4610   35.9000 H   0  0  0  0  0  0  0  0  0  0  0  0
   36.6010   31.6670   37.7360 H   0  0  0  0  0  0  0  0  0  0  0  0
   38.1310   31.7130   36.7440 H   0  0  0  0  0  0  0  0  0  0  0  0
   39.1790   30.0270   38.0500 H   0  0  0  0  0  0  0  0  0  0  0  0
   38.1420   30.9820   39.5640 N   0  0  2  0  0  0  0  0  0  0  0  0
   37.6410   32.3080   39.2710 C   0  0  0  0  0  3  0  0  0  0  0  0
   36.6010   32.4520   39.6430 H   0  0  0  0  0  0  0  0  0  0  0  0
   38.5680   33.3890   39.7770 C   0  0  0  0  0  3  0  0  0  0  0  0
   38.0380   34.3570   39.6550 H   0  0  0  0  0  0  0  0  0  0  0  0
   38.8780   33.2430   41.1220 O   0  0  0  0  0  0  0  0  0  0  0  0
   39.2060   31.9490   41.4650 C   0  0  0  0  0  2  0  0  0  0  0  0
   39.4090   31.0940   40.2190 C   0  0  0  0  0  2  0  0  0  0  0  0
   38.5010   27.0070   39.5810 O   0  0  0  0  0  0  0  0  0  0  0  0
   38.1300   25.8630   40.2590 C   0  0  0  0  0  0  0  0  0  0  0  0
   37.6460   26.0080   41.5560 C   0  0  0  0  0  0  0  0  0  0  0  0
   37.2770   24.8180   42.2170 C   0  0  0  0  0  0  0  0  0  0  0  0
   37.4170   23.6320   41.5600 N   0  0  0  0  0  0  0  0  0  0  0  0
   37.8870   23.5600   40.3210 C   0  0  0  0  0  0  0  0  0  0  0  0
   38.2480   24.6670   39.6590 N   0  0  0  0  0  0  0  0  0  0  0  0
   36.9030   24.9330   43.2180 H   0  0  0  0  0  0  0  0  0  0  0  0
   37.9760   22.5830   39.8490 H   0  0  0  0  0  0  0  0  0  0  0  0
   37.5390   27.3170   42.1580 C   0  0  0  0  0  0  0  0  0  0  0  0
   38.4990   27.8090   43.0470 C   0  0  0  0  0  0  0  0  0  0  0  0
   38.0280   29.0560   43.3750 C   0  0  0  0  0  0  0  0  0  0  0  0
   36.8590   29.3080   42.7300 N   0  0  0  0  0  0  0  0  0  0  0  0
   36.6020   28.2350   42.0070 N   0  0  0  0  0  0  0  0  0  0  0  0
   39.4070   27.3290   43.4030 H   0  0  0  0  0  0  0  0  0  0  0  0
   38.5000   29.7600   44.0500 H   0  0  0  0  0  0  0  0  0  0  0  0
   36.3020   30.2040   42.8200 H   0  0  0  0  0  0  0  0  0  0  0  0
  1 26  1  0  0  0  0
  2  1  2  0  0  0  0
  3  1  1  0  0  0  0
  4  3  1  0  0  0  0
  4  9  1  0  0  0  0
  4 10  1  0  0  0  0
  5  4  1  0  0  0  0
  6  5  1  0  0  0  0
  6  7  1  0  0  0  0
  7 15  1  0  0  0  0
  7  8  1  0  0  0  0
  8 17  1  6  0  0  0
  8  3  1  0  0  0  0
  8 18  1  0  0  0  0
 11  5  1  0  0  0  0
 12  5  1  0  0  0  0
 13  6  1  0  0  0  0
 14  6  1  0  0  0  0
 16  7  1  0  0  0  0
 18 25  1  6  0  0  0
 19 18  1  0  0  0  0
 19 20  1  0  0  0  0
 19 21  1  0  0  0  0
 21 23  1  0  0  0  0
 22 21  1  0  0  0  0
 23 24  1  0  0  0  0
 25 24  1  0  0  0  0
 26 27  1  0  0  0  0
 27 28  1  0  0  0  0
 28 35  1  0  0  0  0
 28 29  2  0  0  0  0
 29 33  1  0  0  0  0
 30 29  1  0  0  0  0
 31 30  2  0  0  0  0
 32 27  2  0  0  0  0
 32 31  1  0  0  0  0
 34 31  1  0  0  0  0
 35 36  1  0  0  0  0
 36 37  2  0  0  0  0
 36 40  1  0  0  0  0
 37 41  1  0  0  0  0
 38 42  1  0  0  0  0
 38 37  1  0  0  0  0
 39 35  2  0  0  0  0
 39 38  1  0  0  0  0
M  END
>  <minimizedAffinity>
-5.75753975

$$$$

 OpenBabel03252508553D

 42 45  0  0  1  0  0  0  0  0999 V2000
   38.2880   29.3620   40.7220 C   0  0  0  0  0  0  0  0  0  0  0  0
   38.6250   30.0240   41.7670 O   0  0  0  0  0  0  0  0  0  0  0  0
   37.9350   28.1010   41.3500 N   0  0  0  0  0  0  0  0  0  0  0  0
   36.8560   28.1730   42.3050 C   0  0  0  0  0  0  0  0  0  0  0  0
   37.5490   28.1910   43.6800 C   0  0  0  0  0  0  0  0  0  0  0  0
   38.7650   27.2810   43.5590 C   0  0  0  0  0  0  0  0  0  0  0  0
   38.5460   26.1650   42.5370 C   0  0  0  0  0  0  0  0  0  0  0  0
   38.5150   26.7910   41.1490 C   0  0  1  0  0  0  0  0  0  0  0  0
   36.2520   29.0950   42.2400 H   0  0  0  0  0  0  0  0  0  0  0  0
   36.2000   27.2710   42.2970 H   0  0  0  0  0  0  0  0  0  0  0  0
   37.8960   29.2190   43.9310 H   0  0  0  0  0  0  0  0  0  0  0  0
   36.8660   27.8570   44.4810 H   0  0  0  0  0  0  0  0  0  0  0  0
   38.8950   26.7530   44.5420 H   0  0  0  0  0  0  0  0  0  0  0  0
   39.6600   27.8460   43.2620 H   0  0  0  0  0  0  0  0  0  0  0  0
   37.5800   25.6660   42.7820 H   0  0  0  0  0  0  0  0  0  0  0  0
   39.3920   25.4770   42.6740 H   0  0  0  0  0  0  0  0  0  0  0  0
   39.5480   26.8550   40.7440 H   0  0  0  0  0  0  0  0  0  0  0  0
   37.7450   25.9360   40.3150 N   0  0  2  0  0  0  0  0  0  0  0  0
   37.9910   24.5670   40.7200 C   0  0  0  0  0  3  0  0  0  0  0  0
   37.1350   24.1430   41.2930 H   0  0  0  0  0  0  0  0  0  0  0  0
   38.3690   23.6900   39.5490 C   0  0  0  0  0  3  0  0  0  0  0  0
   38.3820   22.6420   39.9180 H   0  0  0  0  0  0  0  0  0  0  0  0
   37.4530   23.7600   38.5080 O   0  0  0  0  0  0  0  0  0  0  0  0
   37.0760   25.0510   38.2060 C   0  0  0  0  0  2  0  0  0  0  0  0
   37.9800   26.0580   38.9100 C   0  0  0  0  0  2  0  0  0  0  0  0
   38.2880   29.7900   39.4320 O   0  0  0  0  0  0  0  0  0  0  0  0
   39.3830   30.1390   38.6690 C   0  0  0  0  0  0  0  0  0  0  0  0
   39.6690   31.4940   38.5290 C   0  0  0  0  0  0  0  0  0  0  0  0
   40.7960   31.8130   37.7430 C   0  0  0  0  0  0  0  0  0  0  0  0
   41.5130   30.7980   37.1830 N   0  0  0  0  0  0  0  0  0  0  0  0
   41.1880   29.5230   37.3540 C   0  0  0  0  0  0  0  0  0  0  0  0
   40.1260   29.1790   38.0940 N   0  0  0  0  0  0  0  0  0  0  0  0
   41.0140   32.8600   37.6370 H   0  0  0  0  0  0  0  0  0  0  0  0
   41.8010   28.7570   36.8810 H   0  0  0  0  0  0  0  0  0  0  0  0
   38.8390   32.4890   39.1680 C   0  0  0  0  0  0  0  0  0  0  0  0
   39.3410   33.3750   40.1250 C   0  0  0  0  0  0  0  0  0  0  0  0
   38.2500   34.1330   40.4680 C   0  0  0  0  0  0  0  0  0  0  0  0
   37.1550   33.7370   39.7690 N   0  0  0  0  0  0  0  0  0  0  0  0
   37.5550   32.7450   38.9970 N   0  0  0  0  0  0  0  0  0  0  0  0
   40.3530   33.4550   40.5140 H   0  0  0  0  0  0  0  0  0  0  0  0
   38.2340   34.9400   41.1930 H   0  0  0  0  0  0  0  0  0  0  0  0
   36.1930   34.1700   39.8580 H   0  0  0  0  0  0  0  0  0  0  0  0
  1  3  1  0  0  0  0
  1  2  2  0  0  0  0
  3  4  1  0  0  0  0
  4  5  1  0  0  0  0
  5 11  1  0  0  0  0
  5 12  1  0  0  0  0
  6  5  1  0  0  0  0
  6 13  1  0  0  0  0
  7 16  1  0  0  0  0
  7 15  1  0  0  0  0
  7  6  1  0  0  0  0
  8 17  1  6  0  0  0
  8  3  1  0  0  0  0
  8  7  1  0  0  0  0
  9  4  1  0  0  0  0
 10  4  1  0  0  0  0
 14  6  1  0  0  0  0
 18 25  1  6  0  0  0
 18 19  1  0  0  0  0
 18  8  1  0  0  0  0
 19 20  1  0  0  0  0
 21 22  1  0  0  0  0
 21 19  1  0  0  0  0
 23 21  1  0  0  0  0
 24 23  1  0  0  0  0
 24 25  1  0  0  0  0
 26  1  1  0  0  0  0
 27 26  1  0  0  0  0
 28 27  1  0  0  0  0
 28 35  1  0  0  0  0
 29 28  2  0  0  0  0
 30 31  2  0  0  0  0
 30 29  1  0  0  0  0
 31 32  1  0  0  0  0
 32 27  2  0  0  0  0
 33 29  1  0  0  0  0
 34 31  1  0  0  0  0
 35 36  1  0  0  0  0
 36 37  2  0  0  0  0
 36 40  1  0  0  0  0
 37 41  1  0  0  0  0
 38 42  1  0  0  0  0
 38 37  1  0  0  0  0
 39 35  2  0  0  0  0
 39 38  1  0  0  0  0
M  END
>  <minimizedAffinity>
-5.53463793

$$$$

 OpenBabel03252508553D

 42 45  0  0  1  0  0  0  0  0999 V2000
   39.5370   29.4480   41.8470 C   0  0  0  0  0  0  0  0  0  0  0  0
   39.8110   28.8380   42.9400 O   0  0  0  0  0  0  0  0  0  0  0  0
   38.2450   28.8470   41.5640 N   0  0  0  0  0  0  0  0  0  0  0  0
   37.2330   29.0710   42.5650 C   0  0  0  0  0  0  0  0  0  0  0  0
   37.1960   27.7700   43.3860 C   0  0  0  0  0  0  0  0  0  0  0  0
   37.4430   26.6340   42.4000 C   0  0  0  0  0  0  0  0  0  0  0  0
   36.9400   26.9750   40.9970 C   0  0  0  0  0  0  0  0  0  0  0  0
   37.8400   28.0590   40.4200 C   0  0  1  0  0  0  0  0  0  0  0  0
   37.4650   29.8880   43.2720 H   0  0  0  0  0  0  0  0  0  0  0  0
   36.2110   29.2010   42.1380 H   0  0  0  0  0  0  0  0  0  0  0  0
   38.0090   27.7620   44.1480 H   0  0  0  0  0  0  0  0  0  0  0  0
   36.2340   27.6510   43.9140 H   0  0  0  0  0  0  0  0  0  0  0  0
   36.8210   25.7580   42.7260 H   0  0  0  0  0  0  0  0  0  0  0  0
   38.5120   26.3910   42.3300 H   0  0  0  0  0  0  0  0  0  0  0  0
   35.8860   27.3250   41.0910 H   0  0  0  0  0  0  0  0  0  0  0  0
   36.9940   26.0340   40.4330 H   0  0  0  0  0  0  0  0  0  0  0  0
   38.7100   27.5920   39.9110 H   0  0  0  0  0  0  0  0  0  0  0  0
   37.0760   28.7780   39.4600 N   0  0  2  0  0  0  0  0  0  0  0  0
   35.7840   28.1370   39.3380 C   0  0  0  0  0  3  0  0  0  0  0  0
   34.9810   28.7200   39.8460 H   0  0  0  0  0  0  0  0  0  0  0  0
   35.4320   27.8400   37.8990 C   0  0  0  0  0  3  0  0  0  0  0  0
   34.3750   27.5020   37.8840 H   0  0  0  0  0  0  0  0  0  0  0  0
   35.5300   28.9570   37.0810 O   0  0  0  0  0  0  0  0  0  0  0  0
   36.6850   29.6810   37.2900 C   0  0  0  0  0  2  0  0  0  0  0  0
   37.6620   28.9000   38.1610 C   0  0  0  0  0  2  0  0  0  0  0  0
   40.2910   30.3770   41.2020 O   0  0  0  0  0  0  0  0  0  0  0  0
   40.6560   30.3790   39.8720 C   0  0  0  0  0  0  0  0  0  0  0  0
   40.0820   31.3400   39.0450 C   0  0  0  0  0  0  0  0  0  0  0  0
   40.4780   31.3120   37.6910 C   0  0  0  0  0  0  0  0  0  0  0  0
   41.3740   30.3660   37.2900 N   0  0  0  0  0  0  0  0  0  0  0  0
   41.8850   29.4740   38.1290 C   0  0  0  0  0  0  0  0  0  0  0  0
   41.5350   29.4690   39.4210 N   0  0  0  0  0  0  0  0  0  0  0  0
   40.0340   32.0560   37.0560 H   0  0  0  0  0  0  0  0  0  0  0  0
   42.5970   28.7430   37.7480 H   0  0  0  0  0  0  0  0  0  0  0  0
   39.1400   32.2980   39.5770 C   0  0  0  0  0  0  0  0  0  0  0  0
   39.5200   33.5950   39.9370 C   0  0  0  0  0  0  0  0  0  0  0  0
   38.3520   34.1610   40.3840 C   0  0  0  0  0  0  0  0  0  0  0  0
   37.3290   33.2710   40.3030 N   0  0  0  0  0  0  0  0  0  0  0  0
   37.8480   32.1630   39.8110 N   0  0  0  0  0  0  0  0  0  0  0  0
   40.5020   34.0570   39.8810 H   0  0  0  0  0  0  0  0  0  0  0  0
   38.2330   35.1730   40.7560 H   0  0  0  0  0  0  0  0  0  0  0  0
   36.3300   33.4730   40.5890 H   0  0  0  0  0  0  0  0  0  0  0  0
  1  2  2  0  0  0  0
  3  1  1  0  0  0  0
  3  4  1  0  0  0  0
  4  9  1  0  0  0  0
  4  5  1  0  0  0  0
  5 12  1  0  0  0  0
  5 11  1  0  0  0  0
  6 13  1  0  0  0  0
  6  5  1  0  0  0  0
  7 15  1  0  0  0  0
  7  6  1  0  0  0  0
  8 17  1  6  0  0  0
  8  7  1  0  0  0  0
  8  3  1  0  0  0  0
 10  4  1  0  0  0  0
 14  6  1  0  0  0  0
 16  7  1  0  0  0  0
 18 25  1  6  0  0  0
 18  8  1  0  0  0  0
 19 18  1  0  0  0  0
 19 20  1  0  0  0  0
 21 19  1  0  0  0  0
 22 21  1  0  0  0  0
 23 24  1  0  0  0  0
 23 21  1  0  0  0  0
 24 25  1  0  0  0  0
 26  1  1  0  0  0  0
 27 26  1  0  0  0  0
 28 35  1  0  0  0  0
 28 27  2  0  0  0  0
 29 28  1  0  0  0  0
 30 29  2  0  0  0  0
 30 31  1  0  0  0  0
 31 32  2  0  0  0  0
 32 27  1  0  0  0  0
 33 29  1  0  0  0  0
 34 31  1  0  0  0  0
 35 39  2  0  0  0  0
 35 36  1  0  0  0  0
 36 37  2  0  0  0  0
 37 41  1  0  0  0  0
 38 37  1  0  0  0  0
 38 42  1  0  0  0  0
 39 38  1  0  0  0  0
 40 36  1  0  0  0  0
M  END
>  <minimizedAffinity>
-5.52449369

$$$$

 OpenBabel03252508553D

 42 45  0  0  1  0  0  0  0  0999 V2000
   39.5910   30.9950   39.9960 C   0  0  0  0  0  0  0  0  0  0  0  0
   39.3860   31.8580   40.9220 O   0  0  0  0  0  0  0  0  0  0  0  0
   40.6710   31.6640   39.2910 N   0  0  0  0  0  0  0  0  0  0  0  0
   41.8600   31.8980   40.0720 C   0  0  0  0  0  0  0  0  0  0  0  0
   41.7700   33.3770   40.4910 C   0  0  0  0  0  0  0  0  0  0  0  0
   41.1400   34.1170   39.3170 C   0  0  0  0  0  0  0  0  0  0  0  0
   41.4610   33.4490   37.9800 C   0  0  0  0  0  0  0  0  0  0  0  0
   40.7130   32.1230   37.9200 C   0  0  1  0  0  0  0  0  0  0  0  0
   41.9170   31.3060   41.0020 H   0  0  0  0  0  0  0  0  0  0  0  0
   42.8010   31.7960   39.4820 H   0  0  0  0  0  0  0  0  0  0  0  0
   41.1110   33.4940   41.3810 H   0  0  0  0  0  0  0  0  0  0  0  0
   42.7630   33.7850   40.7460 H   0  0  0  0  0  0  0  0  0  0  0  0
   41.6190   35.1310   39.2570 H   0  0  0  0  0  0  0  0  0  0  0  0
   40.0470   34.1710   39.4190 H   0  0  0  0  0  0  0  0  0  0  0  0
   42.5640   33.2990   37.9320 H   0  0  0  0  0  0  0  0  0  0  0  0
   41.1250   34.1610   37.2130 H   0  0  0  0  0  0  0  0  0  0  0  0
   39.6950   32.2860   37.5070 H   0  0  0  0  0  0  0  0  0  0  0  0
   41.4350   31.2690   37.0420 N   0  0  2  0  0  0  0  0  0  0  0  0
   41.2210   29.9010   37.4650 C   0  0  0  0  0  3  0  0  0  0  0  0
   40.5170   29.3620   36.7900 H   0  0  0  0  0  0  0  0  0  0  0  0
   42.5210   29.1490   37.6300 C   0  0  0  0  0  3  0  0  0  0  0  0
   42.2620   28.0820   37.7960 H   0  0  0  0  0  0  0  0  0  0  0  0
   43.3280   29.2170   36.5030 O   0  0  0  0  0  0  0  0  0  0  0  0
   43.4220   30.4900   35.9810 C   0  0  0  0  0  2  0  0  0  0  0  0
   42.8410   31.5150   36.9490 C   0  0  0  0  0  2  0  0  0  0  0  0
   38.9430   29.8170   39.8000 O   0  0  0  0  0  0  0  0  0  0  0  0
   37.7330   29.6260   39.1650 C   0  0  0  0  0  0  0  0  0  0  0  0
   36.6690   29.1520   39.9270 C   0  0  0  0  0  0  0  0  0  0  0  0
   35.4480   28.9700   39.2440 C   0  0  0  0  0  0  0  0  0  0  0  0
   35.3910   29.2610   37.9140 N   0  0  0  0  0  0  0  0  0  0  0  0
   36.4440   29.7110   37.2420 C   0  0  0  0  0  0  0  0  0  0  0  0
   37.6200   29.8980   37.8540 N   0  0  0  0  0  0  0  0  0  0  0  0
   34.6290   28.6040   39.8350 H   0  0  0  0  0  0  0  0  0  0  0  0
   36.3360   29.9260   36.1800 H   0  0  0  0  0  0  0  0  0  0  0  0
   36.8410   28.8750   41.3340 C   0  0  0  0  0  0  0  0  0  0  0  0
   36.7680   27.5780   41.8520 C   0  0  0  0  0  0  0  0  0  0  0  0
   36.9830   27.7550   43.1970 C   0  0  0  0  0  0  0  0  0  0  0  0
   37.1730   29.0690   43.4810 N   0  0  0  0  0  0  0  0  0  0  0  0
   37.0810   29.7080   42.3300 N   0  0  0  0  0  0  0  0  0  0  0  0
   36.5850   26.6440   41.3270 H   0  0  0  0  0  0  0  0  0  0  0  0
   37.0020   26.9740   43.9490 H   0  0  0  0  0  0  0  0  0  0  0  0
   37.3580   29.4570   44.4480 H   0  0  0  0  0  0  0  0  0  0  0  0
  1  2  2  0  0  0  0
  3  1  1  0  0  0  0
  3  4  1  0  0  0  0
  4  5  1  0  0  0  0
  4  9  1  0  0  0  0
  5 12  1  0  0  0  0
  5 11  1  0  0  0  0
  6 14  1  0  0  0  0
  6  5  1  0  0  0  0
  7  6  1  0  0  0  0
  8 17  1  6  0  0  0
  8  7  1  0  0  0  0
  8  3  1  0  0  0  0
 10  4  1  0  0  0  0
 13  6  1  0  0  0  0
 15  7  1  0  0  0  0
 16  7  1  0  0  0  0
 18 25  1  1  0  0  0
 18 19  1  0  0  0  0
 18  8  1  0  0  0  0
 19 21  1  0  0  0  0
 20 19  1  0  0  0  0
 21 22  1  0  0  0  0
 23 21  1  0  0  0  0
 24 23  1  0  0  0  0
 24 25  1  0  0  0  0
 26  1  1  0  0  0  0
 27 26  1  0  0  0  0
 27 28  1  0  0  0  0
 28 35  1  0  0  0  0
 29 33  1  0  0  0  0
 29 28  2  0  0  0  0
 30 29  1  0  0  0  0
 31 32  1  0  0  0  0
 31 30  2  0  0  0  0
 32 27  2  0  0  0  0
 34 31  1  0  0  0  0
 35 36  1  0  0  0  0
 35 39  2  0  0  0  0
 36 37  2  0  0  0  0
 37 38  1  0  0  0  0
 37 41  1  0  0  0  0
 38 42  1  0  0  0  0
 39 38  1  0  0  0  0
 40 36  1  0  0  0  0
M  END
>  <minimizedAffinity>
-5.49514723

$$$$

 OpenBabel03252508553D

 42 45  0  0  1  0  0  0  0  0999 V2000
   37.0470   29.5790   41.1140 C   0  0  0  0  0  0  0  0  0  0  0  0
   37.7000   30.0730   42.1000 O   0  0  0  0  0  0  0  0  0  0  0  0
   37.1540   28.1700   41.4480 N   0  0  0  0  0  0  0  0  0  0  0  0
   36.5720   27.7930   42.7130 C   0  0  0  0  0  0  0  0  0  0  0  0
   37.7650   27.6900   43.6790 C   0  0  0  0  0  0  0  0  0  0  0  0
   38.9270   27.1300   42.8670 C   0  0  0  0  0  0  0  0  0  0  0  0
   38.4490   26.2270   41.7310 C   0  0  0  0  0  0  0  0  0  0  0  0
   37.7620   27.0990   40.6880 C   0  0  1  0  0  0  0  0  0  0  0  0
   35.8820   28.5440   43.1370 H   0  0  0  0  0  0  0  0  0  0  0  0
   36.0940   26.7860   42.6950 H   0  0  0  0  0  0  0  0  0  0  0  0
   38.0500   28.6960   44.0620 H   0  0  0  0  0  0  0  0  0  0  0  0
   37.5280   27.0510   44.5480 H   0  0  0  0  0  0  0  0  0  0  0  0
   39.5210   26.4570   43.5420 H   0  0  0  0  0  0  0  0  0  0  0  0
   39.5350   27.9350   42.4320 H   0  0  0  0  0  0  0  0  0  0  0  0
   37.7460   25.4790   42.1650 H   0  0  0  0  0  0  0  0  0  0  0  0
   39.3550   25.7400   41.3460 H   0  0  0  0  0  0  0  0  0  0  0  0
   38.5140   27.4810   39.9650 H   0  0  0  0  0  0  0  0  0  0  0  0
   36.8310   26.2780   39.9950 N   0  0  2  0  0  0  0  0  0  0  0  0
   36.9490   24.9280   40.5070 C   0  0  0  0  0  3  0  0  0  0  0  0
   36.0990   24.6620   41.1760 H   0  0  0  0  0  0  0  0  0  0  0  0
   37.1250   23.9160   39.4000 C   0  0  0  0  0  3  0  0  0  0  0  0
   37.0460   22.9090   39.8620 H   0  0  0  0  0  0  0  0  0  0  0  0
   36.1420   24.0100   38.4240 O   0  0  0  0  0  0  0  0  0  0  0  0
   35.8940   25.3080   38.0300 C   0  0  0  0  0  2  0  0  0  0  0  0
   36.9630   26.2510   38.5710 C   0  0  0  0  0  2  0  0  0  0  0  0
   36.4540   30.2500   40.0910 O   0  0  0  0  0  0  0  0  0  0  0  0
   35.8120   29.7050   38.9990 C   0  0  0  0  0  0  0  0  0  0  0  0
   36.4240   29.8380   37.7550 C   0  0  0  0  0  0  0  0  0  0  0  0
   35.7380   29.2700   36.6620 C   0  0  0  0  0  0  0  0  0  0  0  0
   34.5490   28.6430   36.8870 N   0  0  0  0  0  0  0  0  0  0  0  0
   34.0160   28.5500   38.0990 C   0  0  0  0  0  0  0  0  0  0  0  0
   34.6360   29.0770   39.1630 N   0  0  0  0  0  0  0  0  0  0  0  0
   36.2140   29.3730   35.7040 H   0  0  0  0  0  0  0  0  0  0  0  0
   33.0630   28.0380   38.2150 H   0  0  0  0  0  0  0  0  0  0  0  0
   37.6890   30.5240   37.6300 C   0  0  0  0  0  0  0  0  0  0  0  0
   38.9080   29.8930   37.8980 C   0  0  0  0  0  0  0  0  0  0  0  0
   39.8390   30.8740   37.6620 C   0  0  0  0  0  0  0  0  0  0  0  0
   39.2300   32.0260   37.2770 N   0  0  0  0  0  0  0  0  0  0  0  0
   37.9360   31.7700   37.2700 N   0  0  0  0  0  0  0  0  0  0  0  0
   39.0890   28.8700   38.2170 H   0  0  0  0  0  0  0  0  0  0  0  0
   40.9140   30.7730   37.7620 H   0  0  0  0  0  0  0  0  0  0  0  0
   39.7360   32.9250   37.0380 H   0  0  0  0  0  0  0  0  0  0  0  0
  1  3  1  0  0  0  0
  1  2  2  0  0  0  0
  3  4  1  0  0  0  0
  4  9  1  0  0  0  0
  4  5  1  0  0  0  0
  5 11  1  0  0  0  0
  5 12  1  0  0  0  0
  6 13  1  0  0  0  0
  6  5  1  0  0  0  0
  7 15  1  0  0  0  0
  7  6  1  0  0  0  0
  8 17  1  6  0  0  0
  8  3  1  0  0  0  0
  8  7  1  0  0  0  0
 10  4  1  0  0  0  0
 14  6  1  0  0  0  0
 16  7  1  0  0  0  0
 18 25  1  6  0  0  0
 18 19  1  0  0  0  0
 18  8  1  0  0  0  0
 19 20  1  0  0  0  0
 21 22  1  0  0  0  0
 21 19  1  0  0  0  0
 23 21  1  0  0  0  0
 24 23  1  0  0  0  0
 24 25  1  0  0  0  0
 26  1  1  0  0  0  0
 27 32  1  0  0  0  0
 27 26  1  0  0  0  0
 28 27  2  0  0  0  0
 29 30  2  0  0  0  0
 29 28  1  0  0  0  0
 30 31  1  0  0  0  0
 31 34  1  0  0  0  0
 31 32  2  0  0  0  0
 33 29  1  0  0  0  0
 35 28  1  0  0  0  0
 35 36  1  0  0  0  0
 36 40  1  0  0  0  0
 37 41  1  0  0  0  0
 37 36  2  0  0  0  0
 38 37  1  0  0  0  0
 39 38  1  0  0  0  0
 39 35  2  0  0  0  0
 42 38  1  0  0  0  0
M  END
>  <minimizedAffinity>
-5.48868465

$$$$

 OpenBabel03252508553D

 42 45  0  0  1  0  0  0  0  0999 V2000
   37.5700   27.5150   38.8710 C   0  0  0  0  0  0  0  0  0  0  0  0
   36.4860   27.4600   38.1890 O   0  0  0  0  0  0  0  0  0  0  0  0
   37.7210   26.1040   39.1820 N   0  0  0  0  0  0  0  0  0  0  0  0
   37.8560   25.2360   38.0390 C   0  0  0  0  0  0  0  0  0  0  0  0
   36.4590   24.6210   37.8450 C   0  0  0  0  0  0  0  0  0  0  0  0
   35.8840   24.4120   39.2410 C   0  0  0  0  0  0  0  0  0  0  0  0
   36.9790   24.1610   40.2780 C   0  0  0  0  0  0  0  0  0  0  0  0
   37.7530   25.4570   40.4750 C   0  0  1  0  0  0  0  0  0  0  0  0
   38.1080   25.7580   37.0990 H   0  0  0  0  0  0  0  0  0  0  0  0
   38.5520   24.3830   38.2140 H   0  0  0  0  0  0  0  0  0  0  0  0
   35.7950   25.3210   37.2880 H   0  0  0  0  0  0  0  0  0  0  0  0
   36.5080   23.6750   37.2770 H   0  0  0  0  0  0  0  0  0  0  0  0
   35.2790   23.4670   39.2220 H   0  0  0  0  0  0  0  0  0  0  0  0
   35.2980   25.2830   39.5660 H   0  0  0  0  0  0  0  0  0  0  0  0
   37.6340   23.3480   39.8890 H   0  0  0  0  0  0  0  0  0  0  0  0
   36.4490   23.8400   41.1860 H   0  0  0  0  0  0  0  0  0  0  0  0
   37.2590   26.0720   41.2580 H   0  0  0  0  0  0  0  0  0  0  0  0
   39.0580   25.1080   40.9190 N   0  0  2  0  0  0  0  0  0  0  0  0
   38.9320   24.0890   41.9390 C   0  0  0  0  0  3  0  0  0  0  0  0
   39.2100   23.0800   41.5560 H   0  0  0  0  0  0  0  0  0  0  0  0
   39.7020   24.4410   43.1900 C   0  0  0  0  0  3  0  0  0  0  0  0
   39.6840   23.5470   43.8480 H   0  0  0  0  0  0  0  0  0  0  0  0
   41.0310   24.7490   42.9340 O   0  0  0  0  0  0  0  0  0  0  0  0
   41.1920   25.5970   41.8590 C   0  0  0  0  0  2  0  0  0  0  0  0
   39.8530   26.1830   41.4270 C   0  0  0  0  0  2  0  0  0  0  0  0
   38.3070   28.6170   39.1720 O   0  0  0  0  0  0  0  0  0  0  0  0
   37.8740   29.9270   39.2010 C   0  0  0  0  0  0  0  0  0  0  0  0
   37.3520   30.4090   40.3980 C   0  0  0  0  0  0  0  0  0  0  0  0
   36.9200   31.7520   40.3910 C   0  0  0  0  0  0  0  0  0  0  0  0
   37.0380   32.4730   39.2400 N   0  0  0  0  0  0  0  0  0  0  0  0
   37.5460   31.9540   38.1290 C   0  0  0  0  0  0  0  0  0  0  0  0
   37.9670   30.6830   38.0950 N   0  0  0  0  0  0  0  0  0  0  0  0
   36.5170   32.1210   41.3170 H   0  0  0  0  0  0  0  0  0  0  0  0
   37.6140   32.5800   37.2410 H   0  0  0  0  0  0  0  0  0  0  0  0
   37.2730   29.5550   41.5610 C   0  0  0  0  0  0  0  0  0  0  0  0
   38.2460   29.5710   42.5640 C   0  0  0  0  0  0  0  0  0  0  0  0
   37.8000   28.6340   43.4630 C   0  0  0  0  0  0  0  0  0  0  0  0
   36.6340   28.0830   43.0370 N   0  0  0  0  0  0  0  0  0  0  0  0
   36.3520   28.6670   41.8890 N   0  0  0  0  0  0  0  0  0  0  0  0
   39.1470   30.1760   42.6290 H   0  0  0  0  0  0  0  0  0  0  0  0
   38.2900   28.3530   44.3890 H   0  0  0  0  0  0  0  0  0  0  0  0
   36.0940   27.3370   43.5590 H   0  0  0  0  0  0  0  0  0  0  0  0
  1 26  1  0  0  0  0
  1  3  1  0  0  0  0
  2  1  2  0  0  0  0
  3  8  1  0  0  0  0
  4 10  1  0  0  0  0
  4  3  1  0  0  0  0
  5  4  1  0  0  0  0
  5  6  1  0  0  0  0
  6 14  1  0  0  0  0
  6  7  1  0  0  0  0
  7  8  1  0  0  0  0
  7 16  1  0  0  0  0
  8 18  1  0  0  0  0
  8 17  1  1  0  0  0
  9  4  1  0  0  0  0
 11  5  1  0  0  0  0
 12  5  1  0  0  0  0
 13  6  1  0  0  0  0
 15  7  1  0  0  0  0
 18 25  1  1  0  0  0
 18 19  1  0  0  0  0
 19 21  1  0  0  0  0
 20 19  1  0  0  0  0
 21 22  1  0  0  0  0
 23 21  1  0  0  0  0
 24 23  1  0  0  0  0
 25 24  1  0  0  0  0
 26 27  1  0  0  0  0
 27 28  1  0  0  0  0
 28 35  1  0  0  0  0
 29 28  2  0  0  0  0
 29 33  1  0  0  0  0
 30 29  1  0  0  0  0
 31 30  2  0  0  0  0
 32 31  1  0  0  0  0
 32 27  2  0  0  0  0
 34 31  1  0  0  0  0
 35 39  2  0  0  0  0
 35 36  1  0  0  0  0
 36 40  1  0  0  0  0
 36 37  2  0  0  0  0
 37 41  1  0  0  0  0
 38 37  1  0  0  0  0
 38 42  1  0  0  0  0
 39 38  1  0  0  0  0
M  END
>  <minimizedAffinity>
-5.44319391

$$$$

 OpenBabel03252508553D

 42 45  0  0  1  0  0  0  0  0999 V2000
   40.2510   31.3130   39.2630 C   0  0  0  0  0  0  0  0  0  0  0  0
   39.7920   32.2900   38.5720 O   0  0  0  0  0  0  0  0  0  0  0  0
   38.9970   30.7560   39.7380 N   0  0  0  0  0  0  0  0  0  0  0  0
   38.0990   30.3000   38.7050 C   0  0  0  0  0  0  0  0  0  0  0  0
   37.0650   31.4310   38.5570 C   0  0  0  0  0  0  0  0  0  0  0  0
   36.8350   31.9880   39.9570 C   0  0  0  0  0  0  0  0  0  0  0  0
   37.0440   30.9260   41.0370 C   0  0  0  0  0  0  0  0  0  0  0  0
   38.5300   30.5960   41.0980 C   0  0  1  0  0  0  0  0  0  0  0  0
   38.5730   30.1700   37.7160 H   0  0  0  0  0  0  0  0  0  0  0  0
   37.5270   29.3870   38.9910 H   0  0  0  0  0  0  0  0  0  0  0  0
   37.4630   32.2460   37.9110 H   0  0  0  0  0  0  0  0  0  0  0  0
   36.1280   31.0640   38.1030 H   0  0  0  0  0  0  0  0  0  0  0  0
   35.7520   32.2730   40.0370 H   0  0  0  0  0  0  0  0  0  0  0  0
   37.5100   32.8290   40.1690 H   0  0  0  0  0  0  0  0  0  0  0  0
   36.4380   30.0330   40.7560 H   0  0  0  0  0  0  0  0  0  0  0  0
   36.6710   31.3790   41.9660 H   0  0  0  0  0  0  0  0  0  0  0  0
   39.0400   31.2950   41.7950 H   0  0  0  0  0  0  0  0  0  0  0  0
   38.6500   29.2720   41.6030 N   0  0  2  0  0  0  0  0  0  0  0  0
   37.3910   28.9060   42.2170 C   0  0  0  0  0  3  0  0  0  0  0  0
   36.8090   28.2000   41.5830 H   0  0  0  0  0  0  0  0  0  0  0  0
   37.5790   28.3730   43.6180 C   0  0  0  0  0  3  0  0  0  0  0  0
   36.5980   27.9720   43.9490 H   0  0  0  0  0  0  0  0  0  0  0  0
   38.5000   27.3360   43.6790 O   0  0  0  0  0  0  0  0  0  0  0  0
   39.6510   27.5930   42.9650 C   0  0  0  0  0  2  0  0  0  0  0  0
   39.7090   29.0560   42.5390 C   0  0  0  0  0  2  0  0  0  0  0  0
   41.5520   30.9660   39.4490 O   0  0  0  0  0  0  0  0  0  0  0  0
   42.6280   31.3100   38.6570 C   0  0  0  0  0  0  0  0  0  0  0  0
   43.6030   32.1340   39.2110 C   0  0  0  0  0  0  0  0  0  0  0  0
   44.6880   32.4640   38.3730 C   0  0  0  0  0  0  0  0  0  0  0  0
   44.7110   31.9680   37.1040 N   0  0  0  0  0  0  0  0  0  0  0  0
   43.7480   31.1860   36.6320 C   0  0  0  0  0  0  0  0  0  0  0  0
   42.7010   30.8490   37.3970 N   0  0  0  0  0  0  0  0  0  0  0  0
   45.4390   33.1000   38.8050 H   0  0  0  0  0  0  0  0  0  0  0  0
   43.8220   30.8210   35.6090 H   0  0  0  0  0  0  0  0  0  0  0  0
   43.4790   32.6030   40.5720 C   0  0  0  0  0  0  0  0  0  0  0  0
   44.1270   31.9740   41.6390 C   0  0  0  0  0  0  0  0  0  0  0  0
   43.7530   32.7190   42.7300 C   0  0  0  0  0  0  0  0  0  0  0  0
   42.9320   33.7350   42.3540 N   0  0  0  0  0  0  0  0  0  0  0  0
   42.7950   33.6280   41.0470 N   0  0  0  0  0  0  0  0  0  0  0  0
   44.7750   31.1020   41.6240 H   0  0  0  0  0  0  0  0  0  0  0  0
   44.0540   32.5450   43.7570 H   0  0  0  0  0  0  0  0  0  0  0  0
   42.5120   34.4470   43.0160 H   0  0  0  0  0  0  0  0  0  0  0  0
  1 26  1  0  0  0  0
  1  3  1  0  0  0  0
  2  1  2  0  0  0  0
  3  8  1  0  0  0  0
  4 10  1  0  0  0  0
  4  3  1  0  0  0  0
  5  4  1  0  0  0  0
  5  6  1  0  0  0  0
  6 13  1  0  0  0  0
  6 14  1  0  0  0  0
  6  7  1  0  0  0  0
  7  8  1  0  0  0  0
  7 16  1  0  0  0  0
  8 18  1  0  0  0  0
  8 17  1  1  0  0  0
  9  4  1  0  0  0  0
 11  5  1  0  0  0  0
 12  5  1  0  0  0  0
 15  7  1  0  0  0  0
 18 19  1  0  0  0  0
 18 25  1  1  0  0  0
 19 21  1  0  0  0  0
 20 19  1  0  0  0  0
 21 23  1  0  0  0  0
 21 22  1  0  0  0  0
 24 23  1  0  0  0  0
 25 24  1  0  0  0  0
 27 28  1  0  0  0  0
 27 26  1  0  0  0  0
 28 35  1  0  0  0  0
 29 33  1  0  0  0  0
 29 28  2  0  0  0  0
 30 29  1  0  0  0  0
 31 30  2  0  0  0  0
 31 32  1  0  0  0  0
 32 27  2  0  0  0  0
 34 31  1  0  0  0  0
 35 39  2  0  0  0  0
 35 36  1  0  0  0  0
 36 37  2  0  0  0  0
 37 41  1  0  0  0  0
 38 37  1  0  0  0  0
 38 42  1  0  0  0  0
 39 38  1  0  0  0  0
 40 36  1  0  0  0  0
M  END
>  <minimizedAffinity>
-5.39417696

$$$$

 OpenBabel03252508553D

 42 45  0  0  1  0  0  0  0  0999 V2000
   39.6290   29.5010   41.6360 C   0  0  0  0  0  0  0  0  0  0  0  0
   39.9590   29.2100   42.8400 O   0  0  0  0  0  0  0  0  0  0  0  0
   38.3320   28.8490   41.5870 N   0  0  0  0  0  0  0  0  0  0  0  0
   37.3640   29.3390   42.5360 C   0  0  0  0  0  0  0  0  0  0  0  0
   37.3780   28.3090   43.6800 C   0  0  0  0  0  0  0  0  0  0  0  0
   37.5920   26.9480   43.0280 C   0  0  0  0  0  0  0  0  0  0  0  0
   37.0220   26.8970   41.6100 C   0  0  0  0  0  0  0  0  0  0  0  0
   37.8840   27.7820   40.7200 C   0  0  1  0  0  0  0  0  0  0  0  0
   37.6190   30.3160   42.9840 H   0  0  0  0  0  0  0  0  0  0  0  0
   36.3230   29.3500   42.1380 H   0  0  0  0  0  0  0  0  0  0  0  0
   38.2240   28.5060   44.3770 H   0  0  0  0  0  0  0  0  0  0  0  0
   36.4420   28.3400   44.2640 H   0  0  0  0  0  0  0  0  0  0  0  0
   36.9940   26.1950   43.6080 H   0  0  0  0  0  0  0  0  0  0  0  0
   38.6590   26.6920   42.9770 H   0  0  0  0  0  0  0  0  0  0  0  0
   35.9700   27.2620   41.6550 H   0  0  0  0  0  0  0  0  0  0  0  0
   37.0600   25.8370   41.3210 H   0  0  0  0  0  0  0  0  0  0  0  0
   38.7340   27.1920   40.3170 H   0  0  0  0  0  0  0  0  0  0  0  0
   37.0690   28.2150   39.6370 N   0  0  2  0  0  0  0  0  0  0  0  0
   36.2520   27.0990   39.2110 C   0  0  0  0  0  3  0  0  0  0  0  0
   35.1940   27.2060   39.5460 H   0  0  0  0  0  0  0  0  0  0  0  0
   36.3440   26.8660   37.7210 C   0  0  0  0  0  3  0  0  0  0  0  0
   35.5750   26.1080   37.4610 H   0  0  0  0  0  0  0  0  0  0  0  0
   36.0770   28.0090   36.9820 O   0  0  0  0  0  0  0  0  0  0  0  0
   36.7210   29.1290   37.4640 C   0  0  0  0  0  2  0  0  0  0  0  0
   37.7660   28.7440   38.5060 C   0  0  0  0  0  2  0  0  0  0  0  0
   40.3440   30.2190   40.7300 O   0  0  0  0  0  0  0  0  0  0  0  0
   41.0610   31.3750   40.9600 C   0  0  0  0  0  0  0  0  0  0  0  0
   40.5570   32.5630   40.4400 C   0  0  0  0  0  0  0  0  0  0  0  0
   41.3160   33.7250   40.6940 C   0  0  0  0  0  0  0  0  0  0  0  0
   42.4670   33.6100   41.4150 N   0  0  0  0  0  0  0  0  0  0  0  0
   42.8950   32.4450   41.8840 C   0  0  0  0  0  0  0  0  0  0  0  0
   42.2030   31.3200   41.6640 N   0  0  0  0  0  0  0  0  0  0  0  0
   40.9230   34.6410   40.2920 H   0  0  0  0  0  0  0  0  0  0  0  0
   43.8240   32.4180   42.4530 H   0  0  0  0  0  0  0  0  0  0  0  0
   39.3220   32.5700   39.6880 C   0  0  0  0  0  0  0  0  0  0  0  0
   38.0970   32.9040   40.2720 C   0  0  0  0  0  0  0  0  0  0  0  0
   37.2030   32.7890   39.2360 C   0  0  0  0  0  0  0  0  0  0  0  0
   37.8400   32.4100   38.0970 N   0  0  0  0  0  0  0  0  0  0  0  0
   39.1150   32.2900   38.4140 N   0  0  0  0  0  0  0  0  0  0  0  0
   37.8870   33.1900   41.2990 H   0  0  0  0  0  0  0  0  0  0  0  0
   36.1350   32.9680   39.2900 H   0  0  0  0  0  0  0  0  0  0  0  0
   37.3650   32.2540   37.1640 H   0  0  0  0  0  0  0  0  0  0  0  0
  1  2  2  0  0  0  0
  3  1  1  0  0  0  0
  3  4  1  0  0  0  0
  4  9  1  0  0  0  0
  4  5  1  0  0  0  0
  5 12  1  0  0  0  0
  5 11  1  0  0  0  0
  6 13  1  0  0  0  0
  6  5  1  0  0  0  0
  7 15  1  0  0  0  0
  7  6  1  0  0  0  0
  8 17  1  6  0  0  0
  8  3  1  0  0  0  0
  8  7  1  0  0  0  0
 10  4  1  0  0  0  0
 14  6  1  0  0  0  0
 16  7  1  0  0  0  0
 18 25  1  6  0  0  0
 18  8  1  0  0  0  0
 19 20  1  0  0  0  0
 19 18  1  0  0  0  0
 21 19  1  0  0  0  0
 22 21  1  0  0  0  0
 23 24  1  0  0  0  0
 23 21  1  0  0  0  0
 24 25  1  0  0  0  0
 26 27  1  0  0  0  0
 26  1  1  0  0  0  0
 27 32  1  0  0  0  0
 28 29  1  0  0  0  0
 28 27  2  0  0  0  0
 29 30  2  0  0  0  0
 30 31  1  0  0  0  0
 31 34  1  0  0  0  0
 32 31  2  0  0  0  0
 33 29  1  0  0  0  0
 35 36  1  0  0  0  0
 35 28  1  0  0  0  0
 36 40  1  0  0  0  0
 37 41  1  0  0  0  0
 37 36  2  0  0  0  0
 38 39  1  0  0  0  0
 38 37  1  0  0  0  0
 39 35  2  0  0  0  0
 42 38  1  0  0  0  0
M  END
>  <minimizedAffinity>
-5.33247423

$$$$

 OpenBabel03252508553D

 42 45  0  0  1  0  0  0  0  0999 V2000
   36.7810   25.9100   38.5630 C   0  0  0  0  0  0  0  0  0  0  0  0
   36.3640   24.6990   38.5150 O   0  0  0  0  0  0  0  0  0  0  0  0
   37.3690   25.8990   39.8910 N   0  0  0  0  0  0  0  0  0  0  0  0
   38.4460   24.9590   40.0780 C   0  0  0  0  0  0  0  0  0  0  0  0
   37.8020   23.7630   40.8020 C   0  0  0  0  0  0  0  0  0  0  0  0
   36.7610   24.3460   41.7510 C   0  0  0  0  0  0  0  0  0  0  0  0
   37.1430   25.7470   42.2270 C   0  0  0  0  0  0  0  0  0  0  0  0
   37.0220   26.7000   41.0450 C   0  0  1  0  0  0  0  0  0  0  0  0
   38.8760   24.5680   39.1380 H   0  0  0  0  0  0  0  0  0  0  0  0
   39.2490   25.3370   40.7510 H   0  0  0  0  0  0  0  0  0  0  0  0
   37.2870   23.0940   40.0760 H   0  0  0  0  0  0  0  0  0  0  0  0
   38.5560   23.1630   41.3410 H   0  0  0  0  0  0  0  0  0  0  0  0
   36.7560   23.7150   42.6800 H   0  0  0  0  0  0  0  0  0  0  0  0
   35.7730   24.4030   41.2730 H   0  0  0  0  0  0  0  0  0  0  0  0
   38.1880   25.7020   42.6110 H   0  0  0  0  0  0  0  0  0  0  0  0
   36.4360   25.9810   43.0350 H   0  0  0  0  0  0  0  0  0  0  0  0
   35.9830   27.0880   40.9820 H   0  0  0  0  0  0  0  0  0  0  0  0
   37.9060   27.7880   41.2850 N   0  0  2  0  0  0  0  0  0  0  0  0
   38.3600   27.7080   42.6580 C   0  0  0  0  0  3  0  0  0  0  0  0
   39.4090   27.3400   42.7280 H   0  0  0  0  0  0  0  0  0  0  0  0
   38.1760   29.0150   43.3920 C   0  0  0  0  0  3  0  0  0  0  0  0
   38.6900   28.9140   44.3720 H   0  0  0  0  0  0  0  0  0  0  0  0
   38.7470   30.0900   42.7250 O   0  0  0  0  0  0  0  0  0  0  0  0
   38.4610   30.1030   41.3770 C   0  0  0  0  0  2  0  0  0  0  0  0
   37.3700   29.0920   41.0450 C   0  0  0  0  0  2  0  0  0  0  0  0
   36.6680   26.8670   37.6050 O   0  0  0  0  0  0  0  0  0  0  0  0
   37.2630   28.1110   37.5930 C   0  0  0  0  0  0  0  0  0  0  0  0
   36.4320   29.2260   37.5250 C   0  0  0  0  0  0  0  0  0  0  0  0
   37.0760   30.4810   37.5150 C   0  0  0  0  0  0  0  0  0  0  0  0
   38.4370   30.5200   37.5720 N   0  0  0  0  0  0  0  0  0  0  0  0
   39.1750   29.4190   37.6350 C   0  0  0  0  0  0  0  0  0  0  0  0
   38.6020   28.2090   37.6470 N   0  0  0  0  0  0  0  0  0  0  0  0
   36.4310   31.3390   37.4630 H   0  0  0  0  0  0  0  0  0  0  0  0
   40.2590   29.5150   37.6770 H   0  0  0  0  0  0  0  0  0  0  0  0
   34.9970   29.0690   37.4690 C   0  0  0  0  0  0  0  0  0  0  0  0
   34.2990   29.0250   36.2590 C   0  0  0  0  0  0  0  0  0  0  0  0
   32.9910   28.8690   36.6460 C   0  0  0  0  0  0  0  0  0  0  0  0
   32.8960   28.8220   38.0000 N   0  0  0  0  0  0  0  0  0  0  0  0
   34.1280   28.9440   38.4560 N   0  0  0  0  0  0  0  0  0  0  0  0
   34.6860   29.0950   35.2460 H   0  0  0  0  0  0  0  0  0  0  0  0
   32.1340   28.7930   35.9860 H   0  0  0  0  0  0  0  0  0  0  0  0
   31.9920   28.7060   38.5380 H   0  0  0  0  0  0  0  0  0  0  0  0
  1  3  1  0  0  0  0
  2  1  2  0  0  0  0
  3  4  1  0  0  0  0
  3  8  1  0  0  0  0
  4 10  1  0  0  0  0
  4  5  1  0  0  0  0
  5 12  1  0  0  0  0
  5  6  1  0  0  0  0
  6  7  1  0  0  0  0
  6 13  1  0  0  0  0
  7 15  1  0  0  0  0
  7 16  1  0  0  0  0
  8 17  1  6  0  0  0
  8 18  1  0  0  0  0
  8  7  1  0  0  0  0
  9  4  1  0  0  0  0
 11  5  1  0  0  0  0
 14  6  1  0  0  0  0
 18 25  1  1  0  0  0
 18 19  1  0  0  0  0
 19 20  1  0  0  0  0
 19 21  1  0  0  0  0
 21 22  1  0  0  0  0
 23 21  1  0  0  0  0
 24 23  1  0  0  0  0
 25 24  1  0  0  0  0
 26  1  1  0  0  0  0
 27 26  1  0  0  0  0
 27 32  1  0  0  0  0
 28 27  2  0  0  0  0
 29 28  1  0  0  0  0
 29 30  2  0  0  0  0
 30 31  1  0  0  0  0
 31 32  2  0  0  0  0
 31 34  1  0  0  0  0
 33 29  1  0  0  0  0
 35 28  1  0  0  0  0
 35 39  2  0  0  0  0
 36 37  2  0  0  0  0
 36 35  1  0  0  0  0
 37 38  1  0  0  0  0
 38 39  1  0  0  0  0
 38 42  1  0  0  0  0
 40 36  1  0  0  0  0
 41 37  1  0  0  0  0
M  END
>  <minimizedAffinity>
-5.31134033

$$$$
