
 OpenBabel03252508533D

 42 45  0  0  1  0  0  0  0  0999 V2000
   43.4320   34.4700   40.7510 C   0  0  0  0  0  0  0  0  0  0  0  0
   43.3390   35.7300   40.5330 O   0  0  0  0  0  0  0  0  0  0  0  0
   42.0830   34.0710   40.3910 N   0  0  0  0  0  0  0  0  0  0  0  0
   41.7060   34.3480   39.0270 C   0  0  0  0  0  0  0  0  0  0  0  0
   40.8630   35.6340   39.1050 C   0  0  0  0  0  0  0  0  0  0  0  0
   40.0670   35.5470   40.4010 C   0  0  0  0  0  0  0  0  0  0  0  0
   39.7660   34.0990   40.7910 C   0  0  0  0  0  0  0  0  0  0  0  0
   41.0720   33.4390   41.2100 C   0  0  1  0  0  0  0  0  0  0  0  0
   42.5560   34.5640   38.3550 H   0  0  0  0  0  0  0  0  0  0  0  0
   41.0450   33.5670   38.5850 H   0  0  0  0  0  0  0  0  0  0  0  0
   41.5200   36.5320   39.1500 H   0  0  0  0  0  0  0  0  0  0  0  0
   40.2040   35.7390   38.2250 H   0  0  0  0  0  0  0  0  0  0  0  0
   39.0620   36.0120   40.2160 H   0  0  0  0  0  0  0  0  0  0  0  0
   40.6050   36.0210   41.2330 H   0  0  0  0  0  0  0  0  0  0  0  0
   39.3190   33.5950   39.9040 H   0  0  0  0  0  0  0  0  0  0  0  0
   39.0410   34.1660   41.6140 H   0  0  0  0  0  0  0  0  0  0  0  0
   41.2490   33.6130   42.2930 H   0  0  0  0  0  0  0  0  0  0  0  0
   40.9320   32.0420   40.9850 N   0  0  2  0  0  0  0  0  0  0  0  0
   39.7400   31.5900   41.6690 C   0  0  0  0  0  3  0  0  0  0  0  0
   38.9020   31.3970   40.9610 H   0  0  0  0  0  0  0  0  0  0  0  0
   40.0100   30.3920   42.5500 C   0  0  0  0  0  3  0  0  0  0  0  0
   39.0280   30.0190   42.9050 H   0  0  0  0  0  0  0  0  0  0  0  0
   40.6350   29.3560   41.8700 O   0  0  0  0  0  0  0  0  0  0  0  0
   41.6830   29.7820   41.0800 C   0  0  0  0  0  2  0  0  0  0  0  0
   42.0390   31.2310   41.3900 C   0  0  0  0  0  2  0  0  0  0  0  0
   44.5180   33.7820   41.1920 O   0  0  0  0  0  0  0  0  0  0  0  0
   45.8440   34.1410   41.0600 C   0  0  0  0  0  0  0  0  0  0  0  0
   46.4560   34.7680   42.1420 C   0  0  0  0  0  0  0  0  0  0  0  0
   47.8100   35.1210   41.9700 C   0  0  0  0  0  0  0  0  0  0  0  0
   48.4180   34.8340   40.7850 N   0  0  0  0  0  0  0  0  0  0  0  0
   47.7780   34.2340   39.7890 C   0  0  0  0  0  0  0  0  0  0  0  0
   46.4920   33.8830   39.9120 N   0  0  0  0  0  0  0  0  0  0  0  0
   48.2800   35.6030   42.8080 H   0  0  0  0  0  0  0  0  0  0  0  0
   48.3180   34.0320   38.8650 H   0  0  0  0  0  0  0  0  0  0  0  0
   45.7150   35.0240   43.3560 C   0  0  0  0  0  0  0  0  0  0  0  0
   45.0580   36.2360   43.5850 C   0  0  0  0  0  0  0  0  0  0  0  0
   44.4930   36.0680   44.8250 C   0  0  0  0  0  0  0  0  0  0  0  0
   44.7850   34.8370   45.3190 N   0  0  0  0  0  0  0  0  0  0  0  0
   45.5220   34.2410   44.4020 N   0  0  0  0  0  0  0  0  0  0  0  0
   45.0000   37.1120   42.9440 H   0  0  0  0  0  0  0  0  0  0  0  0
   43.8930   36.7980   45.3590 H   0  0  0  0  0  0  0  0  0  0  0  0
   44.4620   34.4720   46.2590 H   0  0  0  0  0  0  0  0  0  0  0  0
  1 26  1  0  0  0  0
  2  1  2  0  0  0  0
  3  1  1  0  0  0  0
  3  8  1  0  0  0  0
  4  5  1  0  0  0  0
  4  3  1  0  0  0  0
  5 11  1  0  0  0  0
  5  6  1  0  0  0  0
  6  7  1  0  0  0  0
  6 14  1  0  0  0  0
  7  8  1  0  0  0  0
  7 16  1  0  0  0  0
  8 17  1  1  0  0  0
  9  4  1  0  0  0  0
 10  4  1  0  0  0  0
 12  5  1  0  0  0  0
 13  6  1  0  0  0  0
 15  7  1  0  0  0  0
 18  8  1  0  0  0  0
 18 25  1  1  0  0  0
 18 19  1  0  0  0  0
 19 21  1  0  0  0  0
 20 19  1  0  0  0  0
 21 22  1  0  0  0  0
 23 21  1  0  0  0  0
 24 25  1  0  0  0  0
 24 23  1  0  0  0  0
 27 26  1  0  0  0  0
 27 28  1  0  0  0  0
 28 35  1  0  0  0  0
 29 28  2  0  0  0  0
 29 33  1  0  0  0  0
 30 29  1  0  0  0  0
 31 32  1  0  0  0  0
 31 30  2  0  0  0  0
 32 27  2  0  0  0  0
 34 31  1  0  0  0  0
 35 36  1  0  0  0  0
 35 39  2  0  0  0  0
 36 37  2  0  0  0  0
 37 38  1  0  0  0  0
 37 41  1  0  0  0  0
 38 42  1  0  0  0  0
 39 38  1  0  0  0  0
 40 36  1  0  0  0  0
M  END
>  <minimizedAffinity>
-6.69016504

>  <minimizedRMSD>
0.217086166

$$$$
