
 OpenBabel03252505533D

 32 34  0  0  0  0  0  0  0  0999 V2000
   45.3760   31.3230   47.7970 C   0  0  0  0  0  0  0  0  0  0  0  0
   44.8380   31.2360   48.7640 H   0  0  0  0  0  0  0  0  0  0  0  0
   44.6420   31.0220   47.0220 H   0  0  0  0  0  0  0  0  0  0  0  0
   46.5730   30.4730   47.8620 C   0  0  0  0  0  0  0  0  0  0  0  0
   46.8720   29.2970   47.2020 C   0  0  0  0  0  0  0  0  0  0  0  0
   48.0630   28.6890   47.4360 C   0  0  0  0  0  0  0  0  0  0  0  0
   48.9550   29.2100   48.2950 N   0  0  0  0  0  0  0  0  0  0  0  0
   48.6700   30.3510   48.9370 C   0  0  0  0  0  0  0  0  0  0  0  0
   47.4890   30.9880   48.7300 N   0  0  0  0  0  0  0  0  0  0  0  0
   46.0760   28.9890   46.5460 H   0  0  0  0  0  0  0  0  0  0  0  0
   48.2330   27.7730   46.8860 H   0  0  0  0  0  0  0  0  0  0  0  0
   49.6400   30.8820   49.8480 N   0  0  0  0  0  0  0  0  0  0  0  0
   50.0230   30.0520   50.9710 C   0  0  0  0  0  0  0  0  0  0  0  0
   49.6830   29.0180   50.8620 H   0  0  0  0  0  0  0  0  0  0  0  0
   51.5530   30.1330   51.0320 C   0  0  0  0  0  0  0  0  0  0  0  0
   51.9320   29.7170   50.0740 H   0  0  0  0  0  0  0  0  0  0  0  0
   51.8790   31.4570   51.2410 O   0  0  0  0  0  0  0  0  0  0  0  0
   51.6560   32.2610   50.1520 C   0  0  0  0  0  0  0  0  0  0  0  0
   50.2230   32.1960   49.6620 C   0  0  0  0  0  0  0  0  0  0  0  0
   45.8000   32.6610   47.6860 O   0  0  0  0  0  0  0  0  0  0  0  0
   44.9430   34.9510   45.1000 C   0  0  0  0  0  0  0  0  0  0  0  0
   45.8260   34.6290   44.0600 C   0  0  0  0  0  0  0  0  0  0  0  0
   46.7230   33.5890   44.2960 C   0  0  0  0  0  0  0  0  0  0  0  0
   46.7140   32.9490   45.4760 N   0  0  0  0  0  0  0  0  0  0  0  0
   45.8400   33.3010   46.4500 C   0  0  0  0  0  0  0  0  0  0  0  0
   44.9570   34.2910   46.2740 N   0  0  0  0  0  0  0  0  0  0  0  0
   44.2270   35.7530   44.9580 H   0  0  0  0  0  0  0  0  0  0  0  0
   47.4010   33.3490   43.4840 H   0  0  0  0  0  0  0  0  0  0  0  0
   45.7310   35.4150   42.8030 C   0  0  0  0  0  0  0  0  0  0  0  0
   45.2840   36.6560   43.1680 F   0  0  0  0  0  0  0  0  0  0  0  0
   44.7750   34.7640   42.0070 F   0  0  0  0  0  0  0  0  0  0  0  0
   46.9560   35.4130   42.1910 F   0  0  0  0  0  0  0  0  0  0  0  0
  1  4  1  0  0  0  0
  1  2  1  0  0  0  0
  3  1  1  0  0  0  0
  4  9  1  0  0  0  0
  5  6  1  0  0  0  0
  5  4  2  0  0  0  0
  6  7  2  0  0  0  0
  7  8  1  0  0  0  0
  8 12  1  0  0  0  0
  9  8  2  0  0  0  0
 10  5  1  0  0  0  0
 11  6  1  0  0  0  0
 12 13  1  0  0  0  0
 13 15  1  0  0  0  0
 14 13  1  0  0  0  0
 15 17  1  0  0  0  0
 16 15  1  0  0  0  0
 18 17  1  0  0  0  0
 19 12  1  0  0  0  0
 19 18  1  0  0  0  0
 20  1  1  0  0  0  0
 21 26  1  0  0  0  0
 22 23  1  0  0  0  0
 22 21  2  0  0  0  0
 23 24  2  0  0  0  0
 24 25  1  0  0  0  0
 25 20  1  0  0  0  0
 26 25  2  0  0  0  0
 27 21  1  0  0  0  0
 28 23  1  0  0  0  0
 29 30  1  0  0  0  0
 29 22  1  0  0  0  0
 31 29  1  0  0  0  0
 32 29  1  0  0  0  0
M  END
>  <minimizedAffinity>
-5.81615448

>  <minimizedRMSD>
0.738579035

$$$$
