
 OpenBabel03252505553D

 32 34  0  0  0  0  0  0  0  0999 V2000
   37.0900   31.3200   38.1860 C   0  0  0  0  0  0  0  0  0  0  0  0
   37.0980   31.5530   37.1010 H   0  0  0  0  0  0  0  0  0  0  0  0
   36.0350   31.4390   38.5060 H   0  0  0  0  0  0  0  0  0  0  0  0
   38.0330   32.2280   38.8550 C   0  0  0  0  0  0  0  0  0  0  0  0
   37.8370   33.1070   39.9030 C   0  0  0  0  0  0  0  0  0  0  0  0
   38.8820   33.8490   40.3500 C   0  0  0  0  0  0  0  0  0  0  0  0
   40.1010   33.7440   39.7940 N   0  0  0  0  0  0  0  0  0  0  0  0
   40.2950   32.8920   38.7780 C   0  0  0  0  0  0  0  0  0  0  0  0
   39.2750   32.1330   38.3030 N   0  0  0  0  0  0  0  0  0  0  0  0
   36.8200   33.0960   40.2560 H   0  0  0  0  0  0  0  0  0  0  0  0
   38.6600   34.5170   41.1720 H   0  0  0  0  0  0  0  0  0  0  0  0
   41.6060   32.8010   38.2050 N   0  0  0  0  0  0  0  0  0  0  0  0
   42.1650   34.0060   37.6300 C   0  0  0  0  0  3  0  0  0  0  0  0
   41.6010   34.9020   37.9060 H   0  0  0  0  0  0  0  0  0  0  0  0
   43.6060   34.0730   38.1510 C   0  0  0  0  0  3  0  0  0  0  0  0
   43.5420   34.1440   39.2580 H   0  0  0  0  0  0  0  0  0  0  0  0
   44.2520   32.9430   37.6950 O   0  0  0  0  0  0  0  0  0  0  0  0
   43.8450   31.7850   38.3100 C   0  0  0  0  0  2  0  0  0  0  0  0
   42.3500   31.5580   38.1950 C   0  0  0  0  0  2  0  0  0  0  0  0
   37.5790   30.0080   38.3250 O   0  0  0  0  0  0  0  0  0  0  0  0
   38.1790   27.7400   41.0020 C   0  0  0  0  0  0  0  0  0  0  0  0
   36.9950   27.7830   41.7500 C   0  0  0  0  0  0  0  0  0  0  0  0
   35.9890   28.6280   41.2860 C   0  0  0  0  0  0  0  0  0  0  0  0
   36.1790   29.3510   40.1720 N   0  0  0  0  0  0  0  0  0  0  0  0
   37.3440   29.2740   39.4850 C   0  0  0  0  0  0  0  0  0  0  0  0
   38.3420   28.4770   39.8860 N   0  0  0  0  0  0  0  0  0  0  0  0
   38.9880   27.0950   41.3270 H   0  0  0  0  0  0  0  0  0  0  0  0
   35.0770   28.6520   41.8740 H   0  0  0  0  0  0  0  0  0  0  0  0
   36.9120   26.9320   42.9650 C   0  0  0  0  0  0  0  0  0  0  0  0
   35.8430   27.4000   43.6800 F   0  0  0  0  0  0  0  0  0  0  0  0
   38.1060   27.1450   43.6730 F   0  0  0  0  0  0  0  0  0  0  0  0
   36.8030   25.6230   42.5770 F   0  0  0  0  0  0  0  0  0  0  0  0
  1 20  1  0  0  0  0
  1  3  1  0  0  0  0
  1  4  1  0  0  0  0
  2  1  1  0  0  0  0
  4  5  1  0  0  0  0
  5 10  1  0  0  0  0
  5  6  2  0  0  0  0
  6 11  1  0  0  0  0
  7  6  1  0  0  0  0
  8  7  2  0  0  0  0
  9  8  1  0  0  0  0
  9  4  2  0  0  0  0
 12  8  1  0  0  0  0
 13 14  1  0  0  0  0
 13 15  1  0  0  0  0
 13 12  1  0  0  0  0
 15 16  1  0  0  0  0
 17 15  1  0  0  0  0
 17 18  1  0  0  0  0
 19 12  1  0  0  0  0
 19 18  1  0  0  0  0
 20 25  1  0  0  0  0
 21 27  1  0  0  0  0
 21 22  1  0  0  0  0
 22 29  1  0  0  0  0
 23 22  2  0  0  0  0
 23 28  1  0  0  0  0
 24 23  1  0  0  0  0
 25 26  1  0  0  0  0
 25 24  2  0  0  0  0
 26 21  2  0  0  0  0
 29 31  1  0  0  0  0
 29 30  1  0  0  0  0
 32 29  1  0  0  0  0
M  END
>  <minimizedAffinity>
-5.68903255

$$$$

 OpenBabel03252505553D

 32 34  0  0  0  0  0  0  0  0999 V2000
   37.1870   27.9140   43.4680 C   0  0  0  0  0  0  0  0  0  0  0  0
   37.7040   28.7640   43.9610 H   0  0  0  0  0  0  0  0  0  0  0  0
   36.4300   27.5650   44.2000 H   0  0  0  0  0  0  0  0  0  0  0  0
   38.1990   26.9080   43.1150 C   0  0  0  0  0  0  0  0  0  0  0  0
   39.4320   26.6430   43.6800 C   0  0  0  0  0  0  0  0  0  0  0  0
   40.1960   25.6460   43.1660 C   0  0  0  0  0  0  0  0  0  0  0  0
   39.7770   24.9140   42.1200 N   0  0  0  0  0  0  0  0  0  0  0  0
   38.5820   25.1670   41.5690 C   0  0  0  0  0  0  0  0  0  0  0  0
   37.7890   26.1560   42.0550 N   0  0  0  0  0  0  0  0  0  0  0  0
   39.6470   27.2980   44.5060 H   0  0  0  0  0  0  0  0  0  0  0  0
   41.1490   25.4910   43.6550 H   0  0  0  0  0  0  0  0  0  0  0  0
   38.1610   24.3700   40.4550 N   0  0  0  0  0  0  0  0  0  0  0  0
   38.9920   24.3930   39.2700 C   0  0  0  0  0  3  0  0  0  0  0  0
   39.9700   24.8500   39.4530 H   0  0  0  0  0  0  0  0  0  0  0  0
   39.1330   22.9260   38.8440 C   0  0  0  0  0  3  0  0  0  0  0  0
   39.6370   22.3990   39.6830 H   0  0  0  0  0  0  0  0  0  0  0  0
   37.8630   22.4630   38.5690 O   0  0  0  0  0  0  0  0  0  0  0  0
   37.0790   22.2990   39.6830 C   0  0  0  0  0  2  0  0  0  0  0  0
   36.9540   23.5700   40.5010 C   0  0  0  0  0  2  0  0  0  0  0  0
   36.6340   28.4100   42.2730 O   0  0  0  0  0  0  0  0  0  0  0  0
   36.5430   31.4330   40.3960 C   0  0  0  0  0  0  0  0  0  0  0  0
   37.8080   31.9980   40.6070 C   0  0  0  0  0  0  0  0  0  0  0  0
   38.6860   31.2870   41.4230 C   0  0  0  0  0  0  0  0  0  0  0  0
   38.3030   30.1200   41.9650 N   0  0  0  0  0  0  0  0  0  0  0  0
   37.0670   29.6170   41.7300 C   0  0  0  0  0  0  0  0  0  0  0  0
   36.1870   30.2600   40.9530 N   0  0  0  0  0  0  0  0  0  0  0  0
   35.8290   31.9530   39.7670 H   0  0  0  0  0  0  0  0  0  0  0  0
   39.6620   31.7340   41.5780 H   0  0  0  0  0  0  0  0  0  0  0  0
   38.1060   33.2960   39.9480 C   0  0  0  0  0  0  0  0  0  0  0  0
   36.9330   33.7030   39.3730 F   0  0  0  0  0  0  0  0  0  0  0  0
   39.0660   33.0210   38.9610 F   0  0  0  0  0  0  0  0  0  0  0  0
   38.6060   34.1590   40.8860 F   0  0  0  0  0  0  0  0  0  0  0  0
  1  2  1  0  0  0  0
  1  3  1  0  0  0  0
  4  1  1  0  0  0  0
  4  5  1  0  0  0  0
  5 10  1  0  0  0  0
  6 11  1  0  0  0  0
  6  5  2  0  0  0  0
  7  6  1  0  0  0  0
  8  9  1  0  0  0  0
  8  7  2  0  0  0  0
  9  4  2  0  0  0  0
 12 19  1  0  0  0  0
 12  8  1  0  0  0  0
 13 14  1  0  0  0  0
 13 12  1  0  0  0  0
 15 13  1  0  0  0  0
 15 16  1  0  0  0  0
 17 15  1  0  0  0  0
 17 18  1  0  0  0  0
 18 19  1  0  0  0  0
 20  1  1  0  0  0  0
 21 22  2  0  0  0  0
 21 26  1  0  0  0  0
 22 23  1  0  0  0  0
 23 28  1  0  0  0  0
 23 24  2  0  0  0  0
 25 24  1  0  0  0  0
 25 20  1  0  0  0  0
 26 25  2  0  0  0  0
 27 21  1  0  0  0  0
 29 22  1  0  0  0  0
 29 32  1  0  0  0  0
 30 29  1  0  0  0  0
 31 29  1  0  0  0  0
M  END
>  <minimizedAffinity>
-5.57829666

$$$$

 OpenBabel03252505553D

 32 34  0  0  0  0  0  0  0  0999 V2000
   38.1210   30.8050   37.8410 C   0  0  0  0  0  0  0  0  0  0  0  0
   38.9760   30.1000   37.9090 H   0  0  0  0  0  0  0  0  0  0  0  0
   38.0710   31.1060   36.7750 H   0  0  0  0  0  0  0  0  0  0  0  0
   38.3680   31.9140   38.7740 C   0  0  0  0  0  0  0  0  0  0  0  0
   37.5430   32.9480   39.1720 C   0  0  0  0  0  0  0  0  0  0  0  0
   38.0090   33.8640   40.0590 C   0  0  0  0  0  0  0  0  0  0  0  0
   39.2540   33.7840   40.5560 N   0  0  0  0  0  0  0  0  0  0  0  0
   40.0580   32.7820   40.1730 C   0  0  0  0  0  0  0  0  0  0  0  0
   39.6280   31.8460   39.2880 N   0  0  0  0  0  0  0  0  0  0  0  0
   36.5760   32.8980   38.7020 H   0  0  0  0  0  0  0  0  0  0  0  0
   37.3110   34.6470   40.3280 H   0  0  0  0  0  0  0  0  0  0  0  0
   41.3810   32.7210   40.7190 N   0  0  0  0  0  0  0  0  0  0  0  0
   42.2540   33.8500   40.4730 C   0  0  0  0  0  3  0  0  0  0  0  0
   41.7160   34.7180   40.0820 H   0  0  0  0  0  0  0  0  0  0  0  0
   42.9070   34.1610   41.8260 C   0  0  0  0  0  3  0  0  0  0  0  0
   42.0830   34.4300   42.5220 H   0  0  0  0  0  0  0  0  0  0  0  0
   43.6160   33.0380   42.1990 O   0  0  0  0  0  0  0  0  0  0  0  0
   42.8250   31.9800   42.5700 C   0  0  0  0  0  2  0  0  0  0  0  0
   41.8380   31.5820   41.4890 C   0  0  0  0  0  2  0  0  0  0  0  0
   36.9820   30.1090   38.2880 O   0  0  0  0  0  0  0  0  0  0  0  0
   36.0780   28.7190   41.4370 C   0  0  0  0  0  0  0  0  0  0  0  0
   37.0480   27.7330   41.6600 C   0  0  0  0  0  0  0  0  0  0  0  0
   38.0220   27.5750   40.6760 C   0  0  0  0  0  0  0  0  0  0  0  0
   38.0000   28.3480   39.5790 N   0  0  0  0  0  0  0  0  0  0  0  0
   37.0380   29.2880   39.4110 C   0  0  0  0  0  0  0  0  0  0  0  0
   36.0810   29.4810   40.3260 N   0  0  0  0  0  0  0  0  0  0  0  0
   35.3020   28.8760   42.1780 H   0  0  0  0  0  0  0  0  0  0  0  0
   38.7680   26.8090   40.8600 H   0  0  0  0  0  0  0  0  0  0  0  0
   36.9590   26.9450   42.9170 C   0  0  0  0  0  0  0  0  0  0  0  0
   38.1570   27.1200   43.5550 F   0  0  0  0  0  0  0  0  0  0  0  0
   36.8030   25.6050   42.5270 F   0  0  0  0  0  0  0  0  0  0  0  0
   35.8720   27.3750   43.6280 F   0  0  0  0  0  0  0  0  0  0  0  0
  1  2  1  0  0  0  0
  1 20  1  0  0  0  0
  1  4  1  0  0  0  0
  3  1  1  0  0  0  0
  4  5  2  0  0  0  0
  4  9  1  0  0  0  0
  5  6  1  0  0  0  0
  6 11  1  0  0  0  0
  6  7  2  0  0  0  0
  8  7  1  0  0  0  0
  8 12  1  0  0  0  0
  9  8  2  0  0  0  0
 10  5  1  0  0  0  0
 12 19  1  0  0  0  0
 13 12  1  0  0  0  0
 13 15  1  0  0  0  0
 14 13  1  0  0  0  0
 15 17  1  0  0  0  0
 15 16  1  0  0  0  0
 17 18  1  0  0  0  0
 19 18  1  0  0  0  0
 20 25  1  0  0  0  0
 21 22  1  0  0  0  0
 21 27  1  0  0  0  0
 22 29  1  0  0  0  0
 23 28  1  0  0  0  0
 23 22  2  0  0  0  0
 24 23  1  0  0  0  0
 25 24  2  0  0  0  0
 25 26  1  0  0  0  0
 26 21  2  0  0  0  0
 29 30  1  0  0  0  0
 29 32  1  0  0  0  0
 31 29  1  0  0  0  0
M  END
>  <minimizedAffinity>
-5.57442617

$$$$

 OpenBabel03252505553D

 32 34  0  0  0  0  0  0  0  0999 V2000
   36.9530   31.2980   40.2630 C   0  0  0  0  0  0  0  0  0  0  0  0
   36.7370   30.5720   39.4510 H   0  0  0  0  0  0  0  0  0  0  0  0
   36.3530   32.1980   40.0200 H   0  0  0  0  0  0  0  0  0  0  0  0
   38.4040   31.5250   40.2990 C   0  0  0  0  0  0  0  0  0  0  0  0
   39.1990   32.0800   41.2830 C   0  0  0  0  0  0  0  0  0  0  0  0
   40.5360   32.1840   41.0760 C   0  0  0  0  0  0  0  0  0  0  0  0
   41.1010   31.7580   39.9340 N   0  0  0  0  0  0  0  0  0  0  0  0
   40.3340   31.2190   38.9770 C   0  0  0  0  0  0  0  0  0  0  0  0
   38.9920   31.0980   39.1460 N   0  0  0  0  0  0  0  0  0  0  0  0
   38.6250   32.3800   42.1440 H   0  0  0  0  0  0  0  0  0  0  0  0
   41.0990   32.6270   41.8880 H   0  0  0  0  0  0  0  0  0  0  0  0
   40.9630   30.7730   37.7690 N   0  0  0  0  0  0  0  0  0  0  0  0
   41.6800   31.7600   36.9890 C   0  0  0  0  0  3  0  0  0  0  0  0
   41.8410   32.6920   37.5400 H   0  0  0  0  0  0  0  0  0  0  0  0
   43.0110   31.0950   36.6170 C   0  0  0  0  0  3  0  0  0  0  0  0
   43.5350   30.8750   37.5720 H   0  0  0  0  0  0  0  0  0  0  0  0
   42.7080   29.9760   35.8690 O   0  0  0  0  0  0  0  0  0  0  0  0
   42.1450   28.9590   36.5980 C   0  0  0  0  0  2  0  0  0  0  0  0
   40.8930   29.3920   37.3350 C   0  0  0  0  0  2  0  0  0  0  0  0
   36.5810   30.6790   41.4720 O   0  0  0  0  0  0  0  0  0  0  0  0
   36.7530   27.1840   40.8200 C   0  0  0  0  0  0  0  0  0  0  0  0
   37.2730   26.6470   42.0050 C   0  0  0  0  0  0  0  0  0  0  0  0
   37.5570   27.5460   43.0310 C   0  0  0  0  0  0  0  0  0  0  0  0
   37.3320   28.8570   42.8570 N   0  0  0  0  0  0  0  0  0  0  0  0
   36.8290   29.3260   41.6900 C   0  0  0  0  0  0  0  0  0  0  0  0
   36.5370   28.5060   40.6740 N   0  0  0  0  0  0  0  0  0  0  0  0
   36.5160   26.5200   39.9960 H   0  0  0  0  0  0  0  0  0  0  0  0
   37.9590   27.1170   43.9440 H   0  0  0  0  0  0  0  0  0  0  0  0
   37.4740   25.1760   42.0690 C   0  0  0  0  0  0  0  0  0  0  0  0
   38.6340   24.9860   42.7690 F   0  0  0  0  0  0  0  0  0  0  0  0
   37.6260   24.7450   40.7410 F   0  0  0  0  0  0  0  0  0  0  0  0
   36.3680   24.6060   42.6420 F   0  0  0  0  0  0  0  0  0  0  0  0
  1  4  1  0  0  0  0
  1 20  1  0  0  0  0
  2  1  1  0  0  0  0
  3  1  1  0  0  0  0
  4  5  1  0  0  0  0
  5 10  1  0  0  0  0
  6  5  2  0  0  0  0
  6 11  1  0  0  0  0
  7  6  1  0  0  0  0
  8  9  1  0  0  0  0
  8  7  2  0  0  0  0
  9  4  2  0  0  0  0
 12  8  1  0  0  0  0
 13 14  1  0  0  0  0
 13 12  1  0  0  0  0
 15 13  1  0  0  0  0
 15 16  1  0  0  0  0
 17 18  1  0  0  0  0
 17 15  1  0  0  0  0
 18 19  1  0  0  0  0
 19 12  1  0  0  0  0
 20 25  1  0  0  0  0
 21 22  1  0  0  0  0
 22 29  1  0  0  0  0
 22 23  2  0  0  0  0
 23 28  1  0  0  0  0
 24 23  1  0  0  0  0
 25 24  2  0  0  0  0
 26 21  2  0  0  0  0
 26 25  1  0  0  0  0
 27 21  1  0  0  0  0
 29 32  1  0  0  0  0
 29 30  1  0  0  0  0
 31 29  1  0  0  0  0
M  END
>  <minimizedAffinity>
-5.44476891

$$$$

 OpenBabel03252505553D

 32 34  0  0  0  0  0  0  0  0999 V2000
   37.3820   30.6000   40.7550 C   0  0  0  0  0  0  0  0  0  0  0  0
   37.7150   29.8790   39.9790 H   0  0  0  0  0  0  0  0  0  0  0  0
   36.2770   30.6410   40.6650 H   0  0  0  0  0  0  0  0  0  0  0  0
   38.0590   31.8810   40.5090 C   0  0  0  0  0  0  0  0  0  0  0  0
   37.5430   33.1120   40.1540 C   0  0  0  0  0  0  0  0  0  0  0  0
   38.3880   34.1610   39.9810 C   0  0  0  0  0  0  0  0  0  0  0  0
   39.7130   34.0240   40.1490 N   0  0  0  0  0  0  0  0  0  0  0  0
   40.2190   32.8320   40.4940 C   0  0  0  0  0  0  0  0  0  0  0  0
   39.4060   31.7590   40.6760 N   0  0  0  0  0  0  0  0  0  0  0  0
   36.4710   33.0870   40.0510 H   0  0  0  0  0  0  0  0  0  0  0  0
   37.9170   35.0950   39.7040 H   0  0  0  0  0  0  0  0  0  0  0  0
   41.6370   32.7150   40.6660 N   0  0  0  0  0  0  0  0  0  0  0  0
   42.4720   33.0200   39.5230 C   0  0  0  0  0  3  0  0  0  0  0  0
   41.9200   33.5220   38.7220 H   0  0  0  0  0  0  0  0  0  0  0  0
   43.5960   33.9100   40.0680 C   0  0  0  0  0  3  0  0  0  0  0  0
   43.1100   34.8250   40.4700 H   0  0  0  0  0  0  0  0  0  0  0  0
   44.2740   33.1690   41.0130 O   0  0  0  0  0  0  0  0  0  0  0  0
   43.5670   32.9680   42.1720 C   0  0  0  0  0  2  0  0  0  0  0  0
   42.2220   32.3110   41.9280 C   0  0  0  0  0  2  0  0  0  0  0  0
   37.8310   30.1030   41.9920 O   0  0  0  0  0  0  0  0  0  0  0  0
   38.1090   26.6430   41.2060 C   0  0  0  0  0  0  0  0  0  0  0  0
   38.6020   26.0690   42.3850 C   0  0  0  0  0  0  0  0  0  0  0  0
   38.8300   26.9300   43.4560 C   0  0  0  0  0  0  0  0  0  0  0  0
   38.5790   28.2430   43.3280 N   0  0  0  0  0  0  0  0  0  0  0  0
   38.1040   28.7480   42.1640 C   0  0  0  0  0  0  0  0  0  0  0  0
   37.8660   27.9640   41.1050 N   0  0  0  0  0  0  0  0  0  0  0  0
   37.9170   26.0080   40.3470 H   0  0  0  0  0  0  0  0  0  0  0  0
   39.2110   26.4740   44.3640 H   0  0  0  0  0  0  0  0  0  0  0  0
   38.8370   24.6020   42.3960 C   0  0  0  0  0  0  0  0  0  0  0  0
   39.4340   24.3080   41.2000 F   0  0  0  0  0  0  0  0  0  0  0  0
   37.5680   24.0040   42.4700 F   0  0  0  0  0  0  0  0  0  0  0  0
   39.5880   24.2860   43.4960 F   0  0  0  0  0  0  0  0  0  0  0  0
  1 20  1  0  0  0  0
  2  1  1  0  0  0  0
  3  1  1  0  0  0  0
  4  9  1  0  0  0  0
  4  1  1  0  0  0  0
  5  4  2  0  0  0  0
  6  7  2  0  0  0  0
  6  5  1  0  0  0  0
  7  8  1  0  0  0  0
  8 12  1  0  0  0  0
  8  9  2  0  0  0  0
 10  5  1  0  0  0  0
 11  6  1  0  0  0  0
 12 19  1  0  0  0  0
 13 15  1  0  0  0  0
 13 12  1  0  0  0  0
 14 13  1  0  0  0  0
 15 16  1  0  0  0  0
 15 17  1  0  0  0  0
 17 18  1  0  0  0  0
 19 18  1  0  0  0  0
 20 25  1  0  0  0  0
 21 22  1  0  0  0  0
 22 29  1  0  0  0  0
 22 23  2  0  0  0  0
 23 28  1  0  0  0  0
 24 23  1  0  0  0  0
 25 24  2  0  0  0  0
 26 21  2  0  0  0  0
 26 25  1  0  0  0  0
 27 21  1  0  0  0  0
 29 31  1  0  0  0  0
 29 32  1  0  0  0  0
 30 29  1  0  0  0  0
M  END
>  <minimizedAffinity>
-5.39749718

$$$$

 OpenBabel03252505553D

 32 34  0  0  0  0  0  0  0  0999 V2000
   34.8170   28.7470   36.9380 C   0  0  0  0  0  0  0  0  0  0  0  0
   35.2670   27.7410   36.8020 H   0  0  0  0  0  0  0  0  0  0  0  0
   35.1760   29.3490   36.0790 H   0  0  0  0  0  0  0  0  0  0  0  0
   35.2300   29.2580   38.2520 C   0  0  0  0  0  0  0  0  0  0  0  0
   34.8120   28.9050   39.5210 C   0  0  0  0  0  0  0  0  0  0  0  0
   35.3520   29.5330   40.5960 C   0  0  0  0  0  0  0  0  0  0  0  0
   36.2850   30.4890   40.4500 N   0  0  0  0  0  0  0  0  0  0  0  0
   36.6940   30.8340   39.2220 C   0  0  0  0  0  0  0  0  0  0  0  0
   36.1770   30.2290   38.1220 N   0  0  0  0  0  0  0  0  0  0  0  0
   34.0640   28.1310   39.4990 H   0  0  0  0  0  0  0  0  0  0  0  0
   34.9800   29.2090   41.5590 H   0  0  0  0  0  0  0  0  0  0  0  0
   37.6900   31.8570   39.0960 N   0  0  0  0  0  0  0  0  0  0  0  0
   37.3700   33.1640   39.6300 C   0  0  0  0  0  3  0  0  0  0  0  0
   36.4820   33.1500   40.2680 H   0  0  0  0  0  0  0  0  0  0  0  0
   38.6150   33.5970   40.4150 C   0  0  0  0  0  3  0  0  0  0  0  0
   38.7550   32.8520   41.2270 H   0  0  0  0  0  0  0  0  0  0  0  0
   39.6600   33.6540   39.5150 O   0  0  0  0  0  0  0  0  0  0  0  0
   40.0850   32.4230   39.0820 C   0  0  0  0  0  2  0  0  0  0  0  0
   38.9690   31.6040   38.4640 C   0  0  0  0  0  2  0  0  0  0  0  0
   33.4210   28.5690   36.9620 O   0  0  0  0  0  0  0  0  0  0  0  0
   30.7690   30.8960   36.4920 C   0  0  0  0  0  0  0  0  0  0  0  0
   30.8500   31.2290   35.1330 C   0  0  0  0  0  0  0  0  0  0  0  0
   31.8590   30.6130   34.3950 C   0  0  0  0  0  0  0  0  0  0  0  0
   32.6950   29.7480   34.9900 N   0  0  0  0  0  0  0  0  0  0  0  0
   32.5740   29.4610   36.3080 C   0  0  0  0  0  0  0  0  0  0  0  0
   31.6210   30.0230   37.0630 N   0  0  0  0  0  0  0  0  0  0  0  0
   29.9970   31.3510   37.1040 H   0  0  0  0  0  0  0  0  0  0  0  0
   31.9120   30.8790   33.3440 H   0  0  0  0  0  0  0  0  0  0  0  0
   29.8620   32.2010   34.5970 C   0  0  0  0  0  0  0  0  0  0  0  0
   29.5000   32.9900   35.6550 F   0  0  0  0  0  0  0  0  0  0  0  0
   28.7680   31.4410   34.1550 F   0  0  0  0  0  0  0  0  0  0  0  0
   30.4360   32.8800   33.5560 F   0  0  0  0  0  0  0  0  0  0  0  0
  1 20  1  0  0  0  0
  1  4  1  0  0  0  0
  2  1  1  0  0  0  0
  3  1  1  0  0  0  0
  4  5  1  0  0  0  0
  5  6  2  0  0  0  0
  6 11  1  0  0  0  0
  7  6  1  0  0  0  0
  8  7  2  0  0  0  0
  9  4  2  0  0  0  0
  9  8  1  0  0  0  0
 10  5  1  0  0  0  0
 12  8  1  0  0  0  0
 12 13  1  0  0  0  0
 13 14  1  0  0  0  0
 13 15  1  0  0  0  0
 15 16  1  0  0  0  0
 17 15  1  0  0  0  0
 18 17  1  0  0  0  0
 19 18  1  0  0  0  0
 19 12  1  0  0  0  0
 21 26  1  0  0  0  0
 21 27  1  0  0  0  0
 22 21  2  0  0  0  0
 23 24  2  0  0  0  0
 23 22  1  0  0  0  0
 24 25  1  0  0  0  0
 25 20  1  0  0  0  0
 25 26  2  0  0  0  0
 28 23  1  0  0  0  0
 29 22  1  0  0  0  0
 29 30  1  0  0  0  0
 31 29  1  0  0  0  0
 32 29  1  0  0  0  0
M  END
>  <minimizedAffinity>
-5.28992271

$$$$

 OpenBabel03252505553D

 32 34  0  0  0  0  0  0  0  0999 V2000
   36.2500   30.5640   41.0620 C   0  0  0  0  0  0  0  0  0  0  0  0
   35.5320   29.7160   41.0630 H   0  0  0  0  0  0  0  0  0  0  0  0
   35.7080   31.4100   41.5310 H   0  0  0  0  0  0  0  0  0  0  0  0
   36.6690   30.8050   39.6750 C   0  0  0  0  0  0  0  0  0  0  0  0
   37.4060   31.8390   39.1300 C   0  0  0  0  0  0  0  0  0  0  0  0
   37.6670   31.8390   37.7980 C   0  0  0  0  0  0  0  0  0  0  0  0
   37.2220   30.8540   37.0000 N   0  0  0  0  0  0  0  0  0  0  0  0
   36.5070   29.8490   37.5240 C   0  0  0  0  0  0  0  0  0  0  0  0
   36.2260   29.8140   38.8520 N   0  0  0  0  0  0  0  0  0  0  0  0
   37.7010   32.5610   39.8740 H   0  0  0  0  0  0  0  0  0  0  0  0
   38.2490   32.6770   37.4380 H   0  0  0  0  0  0  0  0  0  0  0  0
   36.0450   28.8120   36.6490 N   0  0  0  0  0  0  0  0  0  0  0  0
   35.1720   29.2000   35.5610 C   0  0  0  0  0  3  0  0  0  0  0  0
   35.1500   30.2830   35.4080 H   0  0  0  0  0  0  0  0  0  0  0  0
   35.7170   28.4720   34.3250 C   0  0  0  0  0  3  0  0  0  0  0  0
   36.7510   28.8450   34.1670 H   0  0  0  0  0  0  0  0  0  0  0  0
   35.6380   27.1200   34.5860 O   0  0  0  0  0  0  0  0  0  0  0  0
   36.5430   26.6820   35.5200 C   0  0  0  0  0  2  0  0  0  0  0  0
   36.4310   27.4270   36.8360 C   0  0  0  0  0  2  0  0  0  0  0  0
   37.3790   30.1420   41.7890 O   0  0  0  0  0  0  0  0  0  0  0  0
   39.1420   27.2120   42.7750 C   0  0  0  0  0  0  0  0  0  0  0  0
   38.3560   26.1630   42.2790 C   0  0  0  0  0  0  0  0  0  0  0  0
   37.1970   26.5180   41.5920 C   0  0  0  0  0  0  0  0  0  0  0  0
   36.8790   27.8120   41.4330 N   0  0  0  0  0  0  0  0  0  0  0  0
   37.6740   28.7880   41.9330 C   0  0  0  0  0  0  0  0  0  0  0  0
   38.7990   28.5030   42.6000 N   0  0  0  0  0  0  0  0  0  0  0  0
   40.0540   26.9810   43.3150 H   0  0  0  0  0  0  0  0  0  0  0  0
   36.5970   25.6970   41.2120 H   0  0  0  0  0  0  0  0  0  0  0  0
   38.8210   24.7730   42.5230 C   0  0  0  0  0  0  0  0  0  0  0  0
   39.5110   24.4050   41.4000 F   0  0  0  0  0  0  0  0  0  0  0  0
   37.6620   23.9940   42.6640 F   0  0  0  0  0  0  0  0  0  0  0  0
   39.5630   24.7550   43.6740 F   0  0  0  0  0  0  0  0  0  0  0  0
  1  2  1  0  0  0  0
  1  3  1  0  0  0  0
  1 20  1  0  0  0  0
  4  1  1  0  0  0  0
  5  4  1  0  0  0  0
  5 10  1  0  0  0  0
  6  5  2  0  0  0  0
  7  8  2  0  0  0  0
  7  6  1  0  0  0  0
  8  9  1  0  0  0  0
  9  4  2  0  0  0  0
 11  6  1  0  0  0  0
 12 19  1  0  0  0  0
 12  8  1  0  0  0  0
 13 12  1  0  0  0  0
 14 13  1  0  0  0  0
 15 17  1  0  0  0  0
 15 13  1  0  0  0  0
 16 15  1  0  0  0  0
 17 18  1  0  0  0  0
 18 19  1  0  0  0  0
 20 25  1  0  0  0  0
 21 27  1  0  0  0  0
 22 29  1  0  0  0  0
 22 21  2  0  0  0  0
 23 22  1  0  0  0  0
 24 23  2  0  0  0  0
 24 25  1  0  0  0  0
 25 26  2  0  0  0  0
 26 21  1  0  0  0  0
 28 23  1  0  0  0  0
 29 31  1  0  0  0  0
 29 32  1  0  0  0  0
 30 29  1  0  0  0  0
M  END
>  <minimizedAffinity>
-5.20948601

$$$$

 OpenBabel03252505553D

 32 34  0  0  0  0  0  0  0  0999 V2000
   37.0910   30.5220   37.9900 C   0  0  0  0  0  0  0  0  0  0  0  0
   37.8270   29.7150   37.7900 H   0  0  0  0  0  0  0  0  0  0  0  0
   36.6710   30.7900   37.0000 H   0  0  0  0  0  0  0  0  0  0  0  0
   37.7910   31.6200   38.6700 C   0  0  0  0  0  0  0  0  0  0  0  0
   37.3120   32.5890   39.5320 C   0  0  0  0  0  0  0  0  0  0  0  0
   38.1710   33.5100   40.0370 C   0  0  0  0  0  0  0  0  0  0  0  0
   39.4750   33.4990   39.7160 N   0  0  0  0  0  0  0  0  0  0  0  0
   39.9440   32.5610   38.8810 C   0  0  0  0  0  0  0  0  0  0  0  0
   39.1170   31.6220   38.3550 N   0  0  0  0  0  0  0  0  0  0  0  0
   36.2540   32.4870   39.7060 H   0  0  0  0  0  0  0  0  0  0  0  0
   37.7300   34.2390   40.7050 H   0  0  0  0  0  0  0  0  0  0  0  0
   41.3400   32.5730   38.5560 N   0  0  0  0  0  0  0  0  0  0  0  0
   41.8630   33.7610   37.9160 C   0  0  0  0  0  3  0  0  0  0  0  0
   41.1650   34.6030   37.9600 H   0  0  0  0  0  0  0  0  0  0  0  0
   43.1680   34.0800   38.6570 C   0  0  0  0  0  3  0  0  0  0  0  0
   42.8930   34.2780   39.7150 H   0  0  0  0  0  0  0  0  0  0  0  0
   44.0050   32.9970   38.4850 O   0  0  0  0  0  0  0  0  0  0  0  0
   43.6170   31.8810   39.1830 C   0  0  0  0  0  2  0  0  0  0  0  0
   42.2030   31.4470   38.8520 C   0  0  0  0  0  2  0  0  0  0  0  0
   36.1410   29.9940   38.8850 O   0  0  0  0  0  0  0  0  0  0  0  0
   36.6880   26.5570   39.6300 C   0  0  0  0  0  0  0  0  0  0  0  0
   36.9520   26.5490   41.0060 C   0  0  0  0  0  0  0  0  0  0  0  0
   36.9300   27.7810   41.6570 C   0  0  0  0  0  0  0  0  0  0  0  0
   36.6660   28.9010   40.9660 N   0  0  0  0  0  0  0  0  0  0  0  0
   36.4190   28.8540   39.6350 C   0  0  0  0  0  0  0  0  0  0  0  0
   36.4260   27.6970   38.9620 N   0  0  0  0  0  0  0  0  0  0  0  0
   36.6940   25.6190   39.0840 H   0  0  0  0  0  0  0  0  0  0  0  0
   37.1350   27.7620   42.7220 H   0  0  0  0  0  0  0  0  0  0  0  0
   37.2290   25.2400   41.6510 C   0  0  0  0  0  0  0  0  0  0  0  0
   38.5630   25.2460   41.9570 F   0  0  0  0  0  0  0  0  0  0  0  0
   36.9530   24.2610   40.6820 F   0  0  0  0  0  0  0  0  0  0  0  0
   36.4010   25.0990   42.7330 F   0  0  0  0  0  0  0  0  0  0  0  0
  1  4  1  0  0  0  0
  1 20  1  0  0  0  0
  2  1  1  0  0  0  0
  3  1  1  0  0  0  0
  4  5  1  0  0  0  0
  5 10  1  0  0  0  0
  5  6  2  0  0  0  0
  6 11  1  0  0  0  0
  7  6  1  0  0  0  0
  8  7  2  0  0  0  0
  9  4  2  0  0  0  0
  9  8  1  0  0  0  0
 12 19  1  0  0  0  0
 12  8  1  0  0  0  0
 13 14  1  0  0  0  0
 13 12  1  0  0  0  0
 13 15  1  0  0  0  0
 15 16  1  0  0  0  0
 17 15  1  0  0  0  0
 17 18  1  0  0  0  0
 19 18  1  0  0  0  0
 20 25  1  0  0  0  0
 21 22  1  0  0  0  0
 22 29  1  0  0  0  0
 22 23  2  0  0  0  0
 23 28  1  0  0  0  0
 24 23  1  0  0  0  0
 25 24  2  0  0  0  0
 26 21  2  0  0  0  0
 26 25  1  0  0  0  0
 27 21  1  0  0  0  0
 29 30  1  0  0  0  0
 29 32  1  0  0  0  0
 31 29  1  0  0  0  0
M  END
>  <minimizedAffinity>
-5.11091948

$$$$

 OpenBabel03252505553D

 32 34  0  0  0  0  0  0  0  0999 V2000
   34.7590   28.0070   37.1010 C   0  0  0  0  0  0  0  0  0  0  0  0
   35.1030   27.0070   36.7640 H   0  0  0  0  0  0  0  0  0  0  0  0
   35.2050   28.7280   36.3860 H   0  0  0  0  0  0  0  0  0  0  0  0
   35.1860   28.1920   38.4950 C   0  0  0  0  0  0  0  0  0  0  0  0
   34.8720   29.1850   39.4030 C   0  0  0  0  0  0  0  0  0  0  0  0
   35.4010   29.1340   40.6520 C   0  0  0  0  0  0  0  0  0  0  0  0
   36.2230   28.1380   41.0210 N   0  0  0  0  0  0  0  0  0  0  0  0
   36.5310   27.1720   40.1440 C   0  0  0  0  0  0  0  0  0  0  0  0
   36.0210   27.1880   38.8860 N   0  0  0  0  0  0  0  0  0  0  0  0
   34.2070   29.9200   38.9830 H   0  0  0  0  0  0  0  0  0  0  0  0
   35.1140   29.9420   41.3120 H   0  0  0  0  0  0  0  0  0  0  0  0
   37.4100   26.1220   40.5650 N   0  0  0  0  0  0  0  0  0  0  0  0
   38.7400   26.5020   40.9960 C   0  0  0  0  0  3  0  0  0  0  0  0
   38.8360   27.5790   41.1580 H   0  0  0  0  0  0  0  0  0  0  0  0
   38.9850   25.7190   42.2920 C   0  0  0  0  0  3  0  0  0  0  0  0
   38.2130   26.0550   43.0170 H   0  0  0  0  0  0  0  0  0  0  0  0
   38.9140   24.3780   41.9730 O   0  0  0  0  0  0  0  0  0  0  0  0
   37.6450   23.9440   41.6860 C   0  0  0  0  0  2  0  0  0  0  0  0
   36.9970   24.7330   40.5660 C   0  0  0  0  0  2  0  0  0  0  0  0
   33.3520   27.9830   37.0780 O   0  0  0  0  0  0  0  0  0  0  0  0
   30.9490   30.5850   36.7300 C   0  0  0  0  0  0  0  0  0  0  0  0
   31.1390   31.0460   35.4210 C   0  0  0  0  0  0  0  0  0  0  0  0
   32.1320   30.4180   34.6720 C   0  0  0  0  0  0  0  0  0  0  0  0
   32.8510   29.4210   35.2110 N   0  0  0  0  0  0  0  0  0  0  0  0
   32.6270   29.0130   36.4830 C   0  0  0  0  0  0  0  0  0  0  0  0
   31.6860   29.5820   37.2460 N   0  0  0  0  0  0  0  0  0  0  0  0
   30.1850   31.0460   37.3490 H   0  0  0  0  0  0  0  0  0  0  0  0
   32.2700   30.7830   33.6590 H   0  0  0  0  0  0  0  0  0  0  0  0
   30.2750   32.1570   34.9450 C   0  0  0  0  0  0  0  0  0  0  0  0
   30.0910   32.9790   36.0240 F   0  0  0  0  0  0  0  0  0  0  0  0
   29.0580   31.5690   34.5640 F   0  0  0  0  0  0  0  0  0  0  0  0
   30.8820   32.7570   33.8740 F   0  0  0  0  0  0  0  0  0  0  0  0
  1  4  1  0  0  0  0
  2  1  1  0  0  0  0
  3  1  1  0  0  0  0
  4  9  2  0  0  0  0
  4  5  1  0  0  0  0
  5  6  2  0  0  0  0
  6  7  1  0  0  0  0
  6 11  1  0  0  0  0
  8 12  1  0  0  0  0
  8  7  2  0  0  0  0
  9  8  1  0  0  0  0
 10  5  1  0  0  0  0
 12 19  1  0  0  0  0
 12 13  1  0  0  0  0
 13 14  1  0  0  0  0
 13 15  1  0  0  0  0
 15 16  1  0  0  0  0
 17 15  1  0  0  0  0
 18 17  1  0  0  0  0
 19 18  1  0  0  0  0
 20  1  1  0  0  0  0
 21 26  1  0  0  0  0
 21 27  1  0  0  0  0
 22 21  2  0  0  0  0
 23 24  2  0  0  0  0
 23 22  1  0  0  0  0
 24 25  1  0  0  0  0
 25 20  1  0  0  0  0
 25 26  2  0  0  0  0
 28 23  1  0  0  0  0
 29 22  1  0  0  0  0
 29 30  1  0  0  0  0
 31 29  1  0  0  0  0
 32 29  1  0  0  0  0
M  END
>  <minimizedAffinity>
-5.10437918

$$$$
