
 OpenBabel03242523563D

 44 47  0  0  1  0  0  0  0  0999 V2000
   36.7670   30.0810   41.3200 C   0  0  1  0  0  0  0  0  0  0  0  0
   36.3870   28.9520   40.3730 C   0  0  1  0  0  0  0  0  0  0  0  0
   36.6560   29.3700   39.0560 O   0  0  0  0  0  0  0  0  0  0  0  0
   36.3850   30.7270   38.8630 C   0  0  0  0  0  0  0  0  0  0  0  0
   37.3730   31.6110   39.5980 C   0  0  2  0  0  0  0  0  0  0  0  0
   37.9850   30.7250   40.7420 C   0  0  1  0  0  0  0  0  0  0  0  0
   36.9800   29.6360   42.3180 H   0  0  0  0  0  0  0  0  0  0  0  0
   35.3560   28.6170   40.4870 H   0  0  0  0  0  0  0  0  0  0  0  0
   35.3360   30.9820   39.0850 H   0  0  0  0  0  0  0  0  0  0  0  0
   36.5220   30.9000   37.7820 H   0  0  0  0  0  0  0  0  0  0  0  0
   38.1750   31.9740   38.9360 H   0  0  0  0  0  0  0  0  0  0  0  0
   38.5350   30.0170   40.0420 H   0  0  0  0  0  0  0  0  0  0  0  0
   35.7200   31.0070   41.4300 O   0  0  0  0  0  0  0  0  0  0  0  0
   34.9480   30.5310   41.8460 H   0  0  0  0  0  0  0  0  0  0  0  0
   36.6930   32.6290   40.2490 O   0  0  0  0  0  0  0  0  0  0  0  0
   36.0940   33.1030   39.6080 H   0  0  0  0  0  0  0  0  0  0  0  0
   37.3400   27.9480   40.6010 O   0  0  0  0  0  0  0  0  0  0  0  0
   37.0680   26.6450   40.7510 C   0  0  0  0  0  0  0  0  0  0  0  0
   36.5850   25.8810   39.6790 C   0  0  0  0  0  0  0  0  0  0  0  0
   36.3200   24.5390   39.8830 C   0  0  0  0  0  0  0  0  0  0  0  0
   36.5370   23.9900   41.1310 N   0  0  0  0  0  0  0  0  0  0  0  0
   37.0060   24.7600   42.1470 C   0  0  0  0  0  0  0  0  0  0  0  0
   37.2680   26.0770   41.9550 N   0  0  0  0  0  0  0  0  0  0  0  0
   36.4150   26.3200   38.6930 H   0  0  0  0  0  0  0  0  0  0  0  0
   37.1820   24.3480   43.1340 H   0  0  0  0  0  0  0  0  0  0  0  0
   35.7850   23.6670   38.7860 C   0  0  0  0  0  0  0  0  0  0  0  0
   34.4080   23.0500   39.0140 C   0  0  0  0  0  0  0  0  0  0  0  0
   34.7180   24.1200   37.9490 C   0  0  0  0  0  0  0  0  0  0  0  0
   36.5310   22.8890   38.4720 H   0  0  0  0  0  0  0  0  0  0  0  0
   33.9080   23.3910   39.9390 H   0  0  0  0  0  0  0  0  0  0  0  0
   34.2030   22.0310   38.6370 H   0  0  0  0  0  0  0  0  0  0  0  0
   34.6100   23.7680   36.9040 H   0  0  0  0  0  0  0  0  0  0  0  0
   34.2650   25.1160   38.1070 H   0  0  0  0  0  0  0  0  0  0  0  0
   38.6880   31.5380   41.5510 O   0  0  0  0  0  0  0  0  0  0  0  0
   39.9640   31.9590   41.4390 C   0  0  0  0  0  0  0  0  0  0  0  0
   40.9250   31.4470   42.1660 O   0  0  0  0  0  0  0  0  0  0  0  0
   40.8170   32.8760   40.7370 N   0  0  0  0  0  0  0  0  0  0  0  0
   42.1870   32.4260   40.5750 C   0  0  0  0  0  3  0  0  0  0  0  0
   42.5360   32.0070   41.5640 H   0  0  0  0  0  0  0  0  0  0  0  0
   43.0900   33.6240   40.3480 C   0  0  0  0  0  3  0  0  0  0  0  0
   43.1700   34.1990   41.3150 H   0  0  0  0  0  0  0  0  0  0  0  0
   42.7350   34.4080   39.2800 O   0  0  0  0  0  0  0  0  0  0  0  0
   41.3910   34.3360   38.9470 C   0  0  0  0  0  2  0  0  0  0  0  0
   40.5330   34.1610   40.1730 C   0  0  0  0  0  2  0  0  0  0  0  0
  1 13  1  0  0  0  0
  1  7  1  1  0  0  0
  2  8  1  1  0  0  0
  2 17  1  0  0  0  0
  2  1  1  0  0  0  0
  3  2  1  0  0  0  0
  4  3  1  0  0  0  0
  4  9  1  0  0  0  0
  4  5  1  0  0  0  0
  5 11  1  6  0  0  0
  5 15  1  0  0  0  0
  5  6  1  0  0  0  0
  6 12  1  6  0  0  0
  6  1  1  0  0  0  0
  6 34  1  0  0  0  0
 10  4  1  0  0  0  0
 13 14  1  0  0  0  0
 16 15  1  0  0  0  0
 17 18  1  0  0  0  0
 18 23  1  0  0  0  0
 19 20  1  0  0  0  0
 19 18  2  0  0  0  0
 20 21  2  0  0  0  0
 21 22  1  0  0  0  0
 22 25  1  0  0  0  0
 23 22  2  0  0  0  0
 24 19  1  0  0  0  0
 26 27  1  0  0  0  0
 26 20  1  0  0  0  0
 27 30  1  0  0  0  0
 28 33  1  0  0  0  0
 28 26  1  0  0  0  0
 28 27  1  0  0  0  0
 29 26  1  0  0  0  0
 31 27  1  0  0  0  0
 32 28  1  0  0  0  0
 35 34  1  0  0  0  0
 35 36  2  0  0  0  0
 37 35  1  0  0  0  0
 38 37  1  0  0  0  0
 38 39  1  0  0  0  0
 40 38  1  0  0  0  0
 40 41  1  0  0  0  0
 42 40  1  0  0  0  0
 43 42  1  0  0  0  0
 43 44  1  0  0  0  0
 44 37  1  0  0  0  0
M  END
>  <minimizedAffinity>
-6.24663019

$$$$

 OpenBabel03242523563D

 44 47  0  0  1  0  0  0  0  0999 V2000
   36.7620   29.2960   41.0110 C   0  0  1  0  0  0  0  0  0  0  0  0
   36.5300   28.4360   39.7780 C   0  0  1  0  0  0  0  0  0  0  0  0
   36.7840   29.2210   38.6370 O   0  0  0  0  0  0  0  0  0  0  0  0
   36.3720   30.5450   38.8000 C   0  0  0  0  0  0  0  0  0  0  0  0
   37.2380   31.2890   39.7960 C   0  0  2  0  0  0  0  0  0  0  0  0
   37.9160   30.1910   40.6910 C   0  0  1  0  0  0  0  0  0  0  0  0
   36.9980   28.6200   41.8630 H   0  0  0  0  0  0  0  0  0  0  0  0
   35.5400   27.9830   39.7430 H   0  0  0  0  0  0  0  0  0  0  0  0
   35.2960   30.6260   39.0270 H   0  0  0  0  0  0  0  0  0  0  0  0
   36.5140   31.0190   37.8140 H   0  0  0  0  0  0  0  0  0  0  0  0
   38.0120   31.8950   39.2990 H   0  0  0  0  0  0  0  0  0  0  0  0
   38.5560   29.7570   39.8580 H   0  0  0  0  0  0  0  0  0  0  0  0
   35.6180   30.0500   41.3090 O   0  0  0  0  0  0  0  0  0  0  0  0
   34.8930   29.4050   41.5420 H   0  0  0  0  0  0  0  0  0  0  0  0
   36.4370   32.0200   40.6590 O   0  0  0  0  0  0  0  0  0  0  0  0
   35.8050   32.5880   40.1370 H   0  0  0  0  0  0  0  0  0  0  0  0
   37.5810   27.5060   39.7780 O   0  0  0  0  0  0  0  0  0  0  0  0
   37.6410   26.4080   40.5430 C   0  0  0  0  0  0  0  0  0  0  0  0
   38.6750   26.2340   41.4750 C   0  0  0  0  0  0  0  0  0  0  0  0
   38.6940   25.0830   42.2410 C   0  0  0  0  0  0  0  0  0  0  0  0
   37.7000   24.1410   42.0690 N   0  0  0  0  0  0  0  0  0  0  0  0
   36.7130   24.3430   41.1570 C   0  0  0  0  0  0  0  0  0  0  0  0
   36.6880   25.4690   40.4010 N   0  0  0  0  0  0  0  0  0  0  0  0
   39.4600   26.9820   41.6060 H   0  0  0  0  0  0  0  0  0  0  0  0
   35.9250   23.6150   41.0070 H   0  0  0  0  0  0  0  0  0  0  0  0
   39.7790   24.8250   43.2440 C   0  0  0  0  0  0  0  0  0  0  0  0
   41.2110   25.0740   42.7790 C   0  0  0  0  0  0  0  0  0  0  0  0
   40.4850   25.9100   43.8510 C   0  0  0  0  0  0  0  0  0  0  0  0
   39.6760   23.8110   43.7160 H   0  0  0  0  0  0  0  0  0  0  0  0
   41.2890   25.5110   41.7660 H   0  0  0  0  0  0  0  0  0  0  0  0
   42.0200   24.4120   43.1410 H   0  0  0  0  0  0  0  0  0  0  0  0
   40.9190   25.8240   44.8670 H   0  0  0  0  0  0  0  0  0  0  0  0
   40.2480   26.9550   43.5800 H   0  0  0  0  0  0  0  0  0  0  0  0
   38.5060   30.8180   41.7240 O   0  0  0  0  0  0  0  0  0  0  0  0
   39.6760   31.4880   41.7610 C   0  0  0  0  0  0  0  0  0  0  0  0
   40.5710   31.2630   42.6890 O   0  0  0  0  0  0  0  0  0  0  0  0
   40.4470   32.4960   41.0900 N   0  0  0  0  0  0  0  0  0  0  0  0
   41.8850   32.3350   41.2030 C   0  0  0  0  0  3  0  0  0  0  0  0
   42.1240   32.0940   42.2810 H   0  0  0  0  0  0  0  0  0  0  0  0
   42.5640   33.6710   40.9690 C   0  0  0  0  0  3  0  0  0  0  0  0
   42.3560   34.3380   41.8550 H   0  0  0  0  0  0  0  0  0  0  0  0
   42.2620   34.2580   39.7670 O   0  0  0  0  0  0  0  0  0  0  0  0
   41.0400   33.8700   39.2390 C   0  0  0  0  0  2  0  0  0  0  0  0
   40.0260   33.6330   40.3270 C   0  0  0  0  0  2  0  0  0  0  0  0
  1 13  1  0  0  0  0
  1  7  1  1  0  0  0
  2  8  1  6  0  0  0
  2 17  1  0  0  0  0
  2  1  1  0  0  0  0
  3  4  1  0  0  0  0
  3  2  1  0  0  0  0
  4  9  1  0  0  0  0
  4  5  1  0  0  0  0
  5 11  1  6  0  0  0
  5 15  1  0  0  0  0
  5  6  1  0  0  0  0
  6 12  1  6  0  0  0
  6  1  1  0  0  0  0
  6 34  1  0  0  0  0
 10  4  1  0  0  0  0
 13 14  1  0  0  0  0
 16 15  1  0  0  0  0
 17 18  1  0  0  0  0
 18 19  1  0  0  0  0
 19 24  1  0  0  0  0
 19 20  2  0  0  0  0
 20 26  1  0  0  0  0
 21 20  1  0  0  0  0
 22 21  2  0  0  0  0
 23 18  2  0  0  0  0
 23 22  1  0  0  0  0
 25 22  1  0  0  0  0
 26 29  1  0  0  0  0
 26 28  1  0  0  0  0
 27 31  1  0  0  0  0
 27 26  1  0  0  0  0
 27 28  1  0  0  0  0
 28 32  1  0  0  0  0
 30 27  1  0  0  0  0
 33 28  1  0  0  0  0
 34 35  1  0  0  0  0
 35 36  2  0  0  0  0
 37 38  1  0  0  0  0
 37 35  1  0  0  0  0
 38 39  1  0  0  0  0
 40 38  1  0  0  0  0
 40 41  1  0  0  0  0
 42 40  1  0  0  0  0
 43 42  1  0  0  0  0
 43 44  1  0  0  0  0
 44 37  1  0  0  0  0
M  END
>  <minimizedAffinity>
-6.24582672

$$$$

 OpenBabel03242523563D

 44 47  0  0  1  0  0  0  0  0999 V2000
   38.1820   32.0760   39.1540 C   0  0  1  0  0  0  0  0  0  0  0  0
   37.7550   30.6660   39.5320 C   0  0  1  0  0  0  0  0  0  0  0  0
   38.6740   29.7600   38.9700 O   0  0  0  0  0  0  0  0  0  0  0  0
   39.1240   30.1700   37.7130 C   0  0  0  0  0  0  0  0  0  0  0  0
   40.0180   31.3900   37.8010 C   0  0  2  0  0  0  0  0  0  0  0  0
   39.6760   32.0840   39.1680 C   0  0  1  0  0  0  0  0  0  0  0  0
   37.7660   32.7770   39.9130 H   0  0  0  0  0  0  0  0  0  0  0  0
   36.7300   30.4300   39.2460 H   0  0  0  0  0  0  0  0  0  0  0  0
   38.2990   30.2970   36.9920 H   0  0  0  0  0  0  0  0  0  0  0  0
   39.7350   29.3340   37.3350 H   0  0  0  0  0  0  0  0  0  0  0  0
   41.0860   31.1220   37.7750 H   0  0  0  0  0  0  0  0  0  0  0  0
   40.0870   31.2450   39.8160 H   0  0  0  0  0  0  0  0  0  0  0  0
   37.6960   32.4150   37.8820 O   0  0  0  0  0  0  0  0  0  0  0  0
   36.7000   32.4230   37.9410 H   0  0  0  0  0  0  0  0  0  0  0  0
   39.6560   32.3070   36.8260 O   0  0  0  0  0  0  0  0  0  0  0  0
   39.6310   31.8620   35.9340 H   0  0  0  0  0  0  0  0  0  0  0  0
   37.9970   30.5690   40.9110 O   0  0  0  0  0  0  0  0  0  0  0  0
   37.8600   29.4560   41.6420 C   0  0  0  0  0  0  0  0  0  0  0  0
   38.9450   28.9220   42.3540 C   0  0  0  0  0  0  0  0  0  0  0  0
   38.7540   27.7710   43.0950 C   0  0  0  0  0  0  0  0  0  0  0  0
   37.5070   27.1800   43.1160 N   0  0  0  0  0  0  0  0  0  0  0  0
   36.4780   27.7240   42.4150 C   0  0  0  0  0  0  0  0  0  0  0  0
   36.6570   28.8530   41.6850 N   0  0  0  0  0  0  0  0  0  0  0  0
   39.9300   29.3930   42.3340 H   0  0  0  0  0  0  0  0  0  0  0  0
   35.4920   27.2750   42.4180 H   0  0  0  0  0  0  0  0  0  0  0  0
   39.8740   27.1370   43.8660 C   0  0  0  0  0  0  0  0  0  0  0  0
   40.2310   25.7010   43.4950 C   0  0  0  0  0  0  0  0  0  0  0  0
   41.1470   26.9160   43.2530 C   0  0  0  0  0  0  0  0  0  0  0  0
   39.7300   27.2460   44.9740 H   0  0  0  0  0  0  0  0  0  0  0  0
   39.6760   25.3080   42.6230 H   0  0  0  0  0  0  0  0  0  0  0  0
   40.5480   24.9990   44.2890 H   0  0  0  0  0  0  0  0  0  0  0  0
   42.0830   26.9060   43.8470 H   0  0  0  0  0  0  0  0  0  0  0  0
   41.3190   27.1990   42.1990 H   0  0  0  0  0  0  0  0  0  0  0  0
   40.2800   33.2850   39.1740 O   0  0  0  0  0  0  0  0  0  0  0  0
   41.5360   33.6080   39.5460 C   0  0  0  0  0  0  0  0  0  0  0  0
   41.8240   33.9450   40.7780 O   0  0  0  0  0  0  0  0  0  0  0  0
   42.8800   33.7480   39.0640 N   0  0  0  0  0  0  0  0  0  0  0  0
   43.9100   33.4900   40.0530 C   0  0  0  0  0  3  0  0  0  0  0  0
   43.6170   34.0190   41.0080 H   0  0  0  0  0  0  0  0  0  0  0  0
   45.1960   34.1760   39.6360 C   0  0  0  0  0  3  0  0  0  0  0  0
   45.0620   35.2900   39.7580 H   0  0  0  0  0  0  0  0  0  0  0  0
   45.6540   33.8190   38.3940 O   0  0  0  0  0  0  0  0  0  0  0  0
   44.6640   33.3700   37.5340 C   0  0  0  0  0  2  0  0  0  0  0  0
   43.3670   34.1010   37.7640 C   0  0  0  0  0  2  0  0  0  0  0  0
  1  6  1  0  0  0  0
  1  2  1  0  0  0  0
  1  7  1  1  0  0  0
  2  8  1  6  0  0  0
  2 17  1  0  0  0  0
  3  2  1  0  0  0  0
  4  5  1  0  0  0  0
  4  3  1  0  0  0  0
  5 11  1  6  0  0  0
  5  6  1  0  0  0  0
  6 34  1  0  0  0  0
  6 12  1  1  0  0  0
  9  4  1  0  0  0  0
 10  4  1  0  0  0  0
 13 14  1  0  0  0  0
 13  1  1  0  0  0  0
 15  5  1  0  0  0  0
 16 15  1  0  0  0  0
 17 18  1  0  0  0  0
 18 23  2  0  0  0  0
 18 19  1  0  0  0  0
 19 20  2  0  0  0  0
 20 21  1  0  0  0  0
 20 26  1  0  0  0  0
 22 25  1  0  0  0  0
 22 21  2  0  0  0  0
 23 22  1  0  0  0  0
 24 19  1  0  0  0  0
 26 29  1  0  0  0  0
 27 26  1  0  0  0  0
 27 31  1  0  0  0  0
 28 27  1  0  0  0  0
 28 32  1  0  0  0  0
 28 26  1  0  0  0  0
 30 27  1  0  0  0  0
 33 28  1  0  0  0  0
 34 35  1  0  0  0  0
 35 36  2  0  0  0  0
 37 35  1  0  0  0  0
 37 38  1  0  0  0  0
 38 39  1  0  0  0  0
 40 41  1  0  0  0  0
 40 38  1  0  0  0  0
 42 40  1  0  0  0  0
 43 44  1  0  0  0  0
 43 42  1  0  0  0  0
 44 37  1  0  0  0  0
M  END
>  <minimizedAffinity>
-6.20020247

$$$$

 OpenBabel03242523563D

 44 47  0  0  1  0  0  0  0  0999 V2000
   37.7630   31.4170   40.8460 C   0  0  1  0  0  0  0  0  0  0  0  0
   37.5070   29.9850   40.4030 C   0  0  1  0  0  0  0  0  0  0  0  0
   37.5220   29.9480   38.9960 O   0  0  0  0  0  0  0  0  0  0  0  0
   36.9600   31.0930   38.4280 C   0  0  0  0  0  0  0  0  0  0  0  0
   37.8290   32.3160   38.6420 C   0  0  2  0  0  0  0  0  0  0  0  0
   38.7450   31.9910   39.8760 C   0  0  1  0  0  0  0  0  0  0  0  0
   38.1820   31.3890   41.8770 H   0  0  0  0  0  0  0  0  0  0  0  0
   36.5880   29.5620   40.8080 H   0  0  0  0  0  0  0  0  0  0  0  0
   35.9160   31.2510   38.7450 H   0  0  0  0  0  0  0  0  0  0  0  0
   36.9250   30.8930   37.3440 H   0  0  0  0  0  0  0  0  0  0  0  0
   38.4540   32.5370   37.7610 H   0  0  0  0  0  0  0  0  0  0  0  0
   39.3360   31.1720   39.3550 H   0  0  0  0  0  0  0  0  0  0  0  0
   36.5710   32.1560   40.8420 O   0  0  0  0  0  0  0  0  0  0  0  0
   35.9690   31.7480   41.5250 H   0  0  0  0  0  0  0  0  0  0  0  0
   37.0420   33.3840   39.0420 O   0  0  0  0  0  0  0  0  0  0  0  0
   36.2850   33.5070   38.4040 H   0  0  0  0  0  0  0  0  0  0  0  0
   38.6640   29.2790   40.7640 O   0  0  0  0  0  0  0  0  0  0  0  0
   38.7010   28.2230   41.5880 C   0  0  0  0  0  0  0  0  0  0  0  0
   37.9130   27.0890   41.3420 C   0  0  0  0  0  0  0  0  0  0  0  0
   37.9860   26.0250   42.2220 C   0  0  0  0  0  0  0  0  0  0  0  0
   38.8280   26.1060   43.3130 N   0  0  0  0  0  0  0  0  0  0  0  0
   39.5760   27.2210   43.5200 C   0  0  0  0  0  0  0  0  0  0  0  0
   39.5110   28.2690   42.6620 N   0  0  0  0  0  0  0  0  0  0  0  0
   37.2490   27.0290   40.4780 H   0  0  0  0  0  0  0  0  0  0  0  0
   40.2420   27.3040   44.3710 H   0  0  0  0  0  0  0  0  0  0  0  0
   37.1590   24.7880   42.0300 C   0  0  0  0  0  0  0  0  0  0  0  0
   36.6090   24.5460   40.6270 C   0  0  0  0  0  0  0  0  0  0  0  0
   37.6780   23.6690   41.3070 C   0  0  0  0  0  0  0  0  0  0  0  0
   36.3490   24.7050   42.8020 H   0  0  0  0  0  0  0  0  0  0  0  0
   36.9610   25.2740   39.8720 H   0  0  0  0  0  0  0  0  0  0  0  0
   35.6070   24.0930   40.5090 H   0  0  0  0  0  0  0  0  0  0  0  0
   37.3470   22.6340   41.5240 H   0  0  0  0  0  0  0  0  0  0  0  0
   38.6930   23.7050   40.8710 H   0  0  0  0  0  0  0  0  0  0  0  0
   39.3610   33.1310   40.2340 O   0  0  0  0  0  0  0  0  0  0  0  0
   40.5810   33.5880   39.8860 C   0  0  0  0  0  0  0  0  0  0  0  0
   41.1810   34.5360   40.5600 O   0  0  0  0  0  0  0  0  0  0  0  0
   41.6420   33.4260   38.9330 N   0  0  0  0  0  0  0  0  0  0  0  0
   42.9660   33.7330   39.4420 C   0  0  0  0  0  3  0  0  0  0  0  0
   42.9010   34.6990   40.0250 H   0  0  0  0  0  0  0  0  0  0  0  0
   43.8890   34.0660   38.2860 C   0  0  0  0  0  3  0  0  0  0  0  0
   43.5880   35.0690   37.8660 H   0  0  0  0  0  0  0  0  0  0  0  0
   43.9810   33.0860   37.3320 O   0  0  0  0  0  0  0  0  0  0  0  0
   42.8730   32.2550   37.2670 C   0  0  0  0  0  2  0  0  0  0  0  0
   41.6050   33.0110   37.5630 C   0  0  0  0  0  2  0  0  0  0  0  0
  1  7  1  1  0  0  0
  2 17  1  0  0  0  0
  2  8  1  1  0  0  0
  2  1  1  0  0  0  0
  3  2  1  0  0  0  0
  4  5  1  0  0  0  0
  4  9  1  0  0  0  0
  4  3  1  0  0  0  0
  5 11  1  6  0  0  0
  5 15  1  0  0  0  0
  5  6  1  0  0  0  0
  6 12  1  6  0  0  0
  6 34  1  0  0  0  0
  6  1  1  0  0  0  0
 10  4  1  0  0  0  0
 13  1  1  0  0  0  0
 13 14  1  0  0  0  0
 16 15  1  0  0  0  0
 17 18  1  0  0  0  0
 18 23  1  0  0  0  0
 19 18  2  0  0  0  0
 19 20  1  0  0  0  0
 20 21  2  0  0  0  0
 21 22  1  0  0  0  0
 22 25  1  0  0  0  0
 23 22  2  0  0  0  0
 24 19  1  0  0  0  0
 26 20  1  0  0  0  0
 26 29  1  0  0  0  0
 27 28  1  0  0  0  0
 27 26  1  0  0  0  0
 28 32  1  0  0  0  0
 28 26  1  0  0  0  0
 30 27  1  0  0  0  0
 31 27  1  0  0  0  0
 33 28  1  0  0  0  0
 35 34  1  0  0  0  0
 35 36  2  0  0  0  0
 37 38  1  0  0  0  0
 37 35  1  0  0  0  0
 38 39  1  0  0  0  0
 40 38  1  0  0  0  0
 41 40  1  0  0  0  0
 42 40  1  0  0  0  0
 43 42  1  0  0  0  0
 43 44  1  0  0  0  0
 44 37  1  0  0  0  0
M  END
>  <minimizedAffinity>
-6.12619066

$$$$

 OpenBabel03242523563D

 44 47  0  0  1  0  0  0  0  0999 V2000
   37.3040   31.6900   39.9500 C   0  0  1  0  0  0  0  0  0  0  0  0
   37.6360   31.8040   38.4700 C   0  0  1  0  0  0  0  0  0  0  0  0
   38.9870   32.1790   38.3480 O   0  0  0  0  0  0  0  0  0  0  0  0
   39.3840   33.0700   39.3470 C   0  0  0  0  0  0  0  0  0  0  0  0
   39.4450   32.4060   40.7070 C   0  0  2  0  0  0  0  0  0  0  0  0
   38.5220   31.1380   40.6160 C   0  0  1  0  0  0  0  0  0  0  0  0
   36.4370   31.0000   40.0560 H   0  0  0  0  0  0  0  0  0  0  0  0
   36.9790   32.4830   37.9270 H   0  0  0  0  0  0  0  0  0  0  0  0
   38.7820   33.9940   39.3490 H   0  0  0  0  0  0  0  0  0  0  0  0
   40.4100   33.3740   39.0760 H   0  0  0  0  0  0  0  0  0  0  0  0
   40.4700   32.1040   40.9730 H   0  0  0  0  0  0  0  0  0  0  0  0
   39.1820   30.5820   39.8750 H   0  0  0  0  0  0  0  0  0  0  0  0
   36.9740   32.9460   40.4800 O   0  0  0  0  0  0  0  0  0  0  0  0
   36.1410   33.2500   40.0210 H   0  0  0  0  0  0  0  0  0  0  0  0
   38.8490   33.2240   41.6540 O   0  0  0  0  0  0  0  0  0  0  0  0
   39.2430   34.1390   41.6100 H   0  0  0  0  0  0  0  0  0  0  0  0
   37.6150   30.4860   37.9890 O   0  0  0  0  0  0  0  0  0  0  0  0
   36.7080   29.9880   37.1390 C   0  0  0  0  0  0  0  0  0  0  0  0
   35.4820   29.4880   37.6030 C   0  0  0  0  0  0  0  0  0  0  0  0
   34.5780   28.9840   36.6870 C   0  0  0  0  0  0  0  0  0  0  0  0
   34.9030   28.9870   35.3450 N   0  0  0  0  0  0  0  0  0  0  0  0
   36.0990   29.4790   34.9300 C   0  0  0  0  0  0  0  0  0  0  0  0
   36.9920   29.9750   35.8240 N   0  0  0  0  0  0  0  0  0  0  0  0
   35.2290   29.4870   38.6660 H   0  0  0  0  0  0  0  0  0  0  0  0
   36.3740   29.4900   33.8820 H   0  0  0  0  0  0  0  0  0  0  0  0
   33.2570   28.4180   37.1150 C   0  0  0  0  0  0  0  0  0  0  0  0
   32.0520   29.3500   37.0220 C   0  0  0  0  0  0  0  0  0  0  0  0
   32.2530   28.0960   36.1490 C   0  0  0  0  0  0  0  0  0  0  0  0
   33.3190   27.9360   38.1280 H   0  0  0  0  0  0  0  0  0  0  0  0
   32.2730   30.3280   36.5560 H   0  0  0  0  0  0  0  0  0  0  0  0
   31.2590   29.2880   37.7910 H   0  0  0  0  0  0  0  0  0  0  0  0
   31.5110   27.2920   36.3290 H   0  0  0  0  0  0  0  0  0  0  0  0
   32.4340   28.2700   35.0730 H   0  0  0  0  0  0  0  0  0  0  0  0
   38.3710   30.6570   41.8630 O   0  0  0  0  0  0  0  0  0  0  0  0
   38.0810   29.4030   42.2650 C   0  0  0  0  0  0  0  0  0  0  0  0
   38.0120   29.0840   43.5320 O   0  0  0  0  0  0  0  0  0  0  0  0
   37.7680   28.0850   41.7900 N   0  0  0  0  0  0  0  0  0  0  0  0
   36.9220   27.3070   42.6750 C   0  0  0  0  0  3  0  0  0  0  0  0
   37.3140   27.4270   43.7280 H   0  0  0  0  0  0  0  0  0  0  0  0
   37.1060   25.8300   42.3840 C   0  0  0  0  0  3  0  0  0  0  0  0
   38.1290   25.5200   42.7450 H   0  0  0  0  0  0  0  0  0  0  0  0
   36.8600   25.4720   41.0830 O   0  0  0  0  0  0  0  0  0  0  0  0
   37.0330   26.5030   40.1710 C   0  0  0  0  0  2  0  0  0  0  0  0
   38.1570   27.4160   40.5850 C   0  0  0  0  0  2  0  0  0  0  0  0
  1  7  1  1  0  0  0
  1 13  1  0  0  0  0
  1  6  1  0  0  0  0
  2  8  1  6  0  0  0
  2  1  1  0  0  0  0
  3  2  1  0  0  0  0
  3  4  1  0  0  0  0
  4  9  1  0  0  0  0
  4  5  1  0  0  0  0
  5 11  1  1  0  0  0
  5 15  1  0  0  0  0
  6 12  1  6  0  0  0
  6  5  1  0  0  0  0
  6 34  1  0  0  0  0
 10  4  1  0  0  0  0
 14 13  1  0  0  0  0
 16 15  1  0  0  0  0
 17  2  1  0  0  0  0
 18 19  1  0  0  0  0
 18 17  1  0  0  0  0
 19 24  1  0  0  0  0
 20 26  1  0  0  0  0
 20 19  2  0  0  0  0
 21 20  1  0  0  0  0
 22 21  2  0  0  0  0
 22 23  1  0  0  0  0
 23 18  2  0  0  0  0
 25 22  1  0  0  0  0
 26 29  1  0  0  0  0
 27 26  1  0  0  0  0
 27 31  1  0  0  0  0
 28 32  1  0  0  0  0
 28 27  1  0  0  0  0
 28 26  1  0  0  0  0
 30 27  1  0  0  0  0
 33 28  1  0  0  0  0
 34 35  1  0  0  0  0
 35 36  2  0  0  0  0
 37 35  1  0  0  0  0
 37 38  1  0  0  0  0
 38 39  1  0  0  0  0
 40 38  1  0  0  0  0
 40 41  1  0  0  0  0
 42 40  1  0  0  0  0
 43 44  1  0  0  0  0
 43 42  1  0  0  0  0
 44 37  1  0  0  0  0
M  END
>  <minimizedAffinity>
-6.03323126

$$$$

 OpenBabel03242523563D

 44 47  0  0  1  0  0  0  0  0999 V2000
   38.7960   31.5890   40.0020 C   0  0  1  0  0  0  0  0  0  0  0  0
   39.6690   32.3600   40.9810 C   0  0  1  0  0  0  0  0  0  0  0  0
   39.1020   33.6350   41.1690 O   0  0  0  0  0  0  0  0  0  0  0  0
   38.5400   34.1450   39.9960 C   0  0  0  0  0  0  0  0  0  0  0  0
   37.2900   33.3880   39.5920 C   0  0  2  0  0  0  0  0  0  0  0  0
   37.3840   31.9850   40.2910 C   0  0  1  0  0  0  0  0  0  0  0  0
   38.9570   30.5020   40.1800 H   0  0  0  0  0  0  0  0  0  0  0  0
   40.7130   32.4240   40.6750 H   0  0  0  0  0  0  0  0  0  0  0  0
   39.2740   34.2250   39.1780 H   0  0  0  0  0  0  0  0  0  0  0  0
   38.2400   35.1780   40.2420 H   0  0  0  0  0  0  0  0  0  0  0  0
   36.3720   33.9050   39.9140 H   0  0  0  0  0  0  0  0  0  0  0  0
   37.2770   32.3880   41.3490 H   0  0  0  0  0  0  0  0  0  0  0  0
   39.1390   31.9060   38.6790 O   0  0  0  0  0  0  0  0  0  0  0  0
   40.0760   31.5940   38.5360 H   0  0  0  0  0  0  0  0  0  0  0  0
   37.3250   33.1220   38.2330 O   0  0  0  0  0  0  0  0  0  0  0  0
   37.4950   33.9640   37.7250 H   0  0  0  0  0  0  0  0  0  0  0  0
   39.4760   31.7280   42.2180 O   0  0  0  0  0  0  0  0  0  0  0  0
   39.7940   30.4570   42.4950 C   0  0  0  0  0  0  0  0  0  0  0  0
   38.8060   29.5280   42.8510 C   0  0  0  0  0  0  0  0  0  0  0  0
   39.1840   28.2270   43.1280 C   0  0  0  0  0  0  0  0  0  0  0  0
   40.5170   27.8790   43.0470 N   0  0  0  0  0  0  0  0  0  0  0  0
   41.4480   28.8050   42.6980 C   0  0  0  0  0  0  0  0  0  0  0  0
   41.0850   30.0840   42.4260 N   0  0  0  0  0  0  0  0  0  0  0  0
   37.7520   29.8070   42.9150 H   0  0  0  0  0  0  0  0  0  0  0  0
   42.4990   28.5530   42.6290 H   0  0  0  0  0  0  0  0  0  0  0  0
   38.1820   27.1860   43.5320 C   0  0  0  0  0  0  0  0  0  0  0  0
   36.7590   27.6720   43.7910 C   0  0  0  0  0  0  0  0  0  0  0  0
   37.1680   26.7580   42.6200 C   0  0  0  0  0  0  0  0  0  0  0  0
   38.5560   26.5560   44.3820 H   0  0  0  0  0  0  0  0  0  0  0  0
   36.5980   28.7420   43.5610 H   0  0  0  0  0  0  0  0  0  0  0  0
   36.1630   27.2010   44.5950 H   0  0  0  0  0  0  0  0  0  0  0  0
   36.7370   25.7380   42.6670 H   0  0  0  0  0  0  0  0  0  0  0  0
   37.1010   27.1970   41.6070 H   0  0  0  0  0  0  0  0  0  0  0  0
   36.4150   31.2100   39.7740 O   0  0  0  0  0  0  0  0  0  0  0  0
   36.3050   29.8660   39.7760 C   0  0  0  0  0  0  0  0  0  0  0  0
   35.5510   29.2370   40.6430 O   0  0  0  0  0  0  0  0  0  0  0  0
   36.7450   28.6730   39.1100 N   0  0  0  0  0  0  0  0  0  0  0  0
   35.7940   27.5770   39.1370 C   0  0  0  0  0  3  0  0  0  0  0  0
   35.3860   27.4950   40.1870 H   0  0  0  0  0  0  0  0  0  0  0  0
   36.5260   26.2660   38.9260 C   0  0  0  0  0  3  0  0  0  0  0  0
   37.1310   26.0420   39.8510 H   0  0  0  0  0  0  0  0  0  0  0  0
   37.2620   26.2050   37.7710 O   0  0  0  0  0  0  0  0  0  0  0  0
   37.6680   27.4420   37.2940 C   0  0  0  0  0  2  0  0  0  0  0  0
   37.9700   28.3910   38.4250 C   0  0  0  0  0  2  0  0  0  0  0  0
  1  7  1  1  0  0  0
  1  6  1  0  0  0  0
  1  2  1  0  0  0  0
  2  8  1  6  0  0  0
  2  3  1  0  0  0  0
  2 17  1  0  0  0  0
  4 10  1  0  0  0  0
  4  3  1  0  0  0  0
  5 11  1  1  0  0  0
  5  4  1  0  0  0  0
  5  6  1  0  0  0  0
  6 12  1  1  0  0  0
  9  4  1  0  0  0  0
 13  1  1  0  0  0  0
 14 13  1  0  0  0  0
 15  5  1  0  0  0  0
 16 15  1  0  0  0  0
 17 18  1  0  0  0  0
 18 19  1  0  0  0  0
 19 24  1  0  0  0  0
 19 20  2  0  0  0  0
 20 26  1  0  0  0  0
 21 20  1  0  0  0  0
 22 21  2  0  0  0  0
 23 18  2  0  0  0  0
 23 22  1  0  0  0  0
 25 22  1  0  0  0  0
 26 27  1  0  0  0  0
 26 29  1  0  0  0  0
 27 31  1  0  0  0  0
 28 32  1  0  0  0  0
 28 26  1  0  0  0  0
 28 27  1  0  0  0  0
 30 27  1  0  0  0  0
 33 28  1  0  0  0  0
 34 35  1  0  0  0  0
 34  6  1  0  0  0  0
 35 36  2  0  0  0  0
 37 38  1  0  0  0  0
 37 35  1  0  0  0  0
 38 39  1  0  0  0  0
 40 38  1  0  0  0  0
 40 41  1  0  0  0  0
 42 40  1  0  0  0  0
 43 42  1  0  0  0  0
 43 44  1  0  0  0  0
 44 37  1  0  0  0  0
M  END
>  <minimizedAffinity>
-5.90292692

$$$$

 OpenBabel03242523563D

 44 47  0  0  1  0  0  0  0  0999 V2000
   38.1920   31.8140   38.5190 C   0  0  1  0  0  0  0  0  0  0  0  0
   39.6640   31.9790   38.1700 C   0  0  1  0  0  0  0  0  0  0  0  0
   40.2610   32.7950   39.1490 O   0  0  0  0  0  0  0  0  0  0  0  0
   39.4060   33.8070   39.5910 C   0  0  0  0  0  0  0  0  0  0  0  0
   38.2560   33.2590   40.4110 C   0  0  2  0  0  0  0  0  0  0  0  0
   38.1150   31.7460   40.0100 C   0  0  1  0  0  0  0  0  0  0  0  0
   37.8320   30.8700   38.0520 H   0  0  0  0  0  0  0  0  0  0  0  0
   39.8320   32.3650   37.1650 H   0  0  0  0  0  0  0  0  0  0  0  0
   39.0710   34.4630   38.7710 H   0  0  0  0  0  0  0  0  0  0  0  0
   40.0200   34.4380   40.2570 H   0  0  0  0  0  0  0  0  0  0  0  0
   38.4430   33.3420   41.4930 H   0  0  0  0  0  0  0  0  0  0  0  0
   39.1090   31.4270   40.4610 H   0  0  0  0  0  0  0  0  0  0  0  0
   37.4450   32.8960   38.0310 O   0  0  0  0  0  0  0  0  0  0  0  0
   37.5090   32.8730   37.0360 H   0  0  0  0  0  0  0  0  0  0  0  0
   37.0700   33.8540   40.0100 O   0  0  0  0  0  0  0  0  0  0  0  0
   37.1660   34.8470   40.0230 H   0  0  0  0  0  0  0  0  0  0  0  0
   40.2360   30.7180   38.3990 O   0  0  0  0  0  0  0  0  0  0  0  0
   41.1000   30.1020   37.5810 C   0  0  0  0  0  0  0  0  0  0  0  0
   41.0740   28.7090   37.4220 C   0  0  0  0  0  0  0  0  0  0  0  0
   41.9860   28.1190   36.5660 C   0  0  0  0  0  0  0  0  0  0  0  0
   42.8930   28.9130   35.8940 N   0  0  0  0  0  0  0  0  0  0  0  0
   42.8900   30.2600   36.0720 C   0  0  0  0  0  0  0  0  0  0  0  0
   41.9980   30.8460   36.9100 N   0  0  0  0  0  0  0  0  0  0  0  0
   40.3540   28.0840   37.9560 H   0  0  0  0  0  0  0  0  0  0  0  0
   43.5940   30.9000   35.5540 H   0  0  0  0  0  0  0  0  0  0  0  0
   42.0250   26.6330   36.3620 C   0  0  0  0  0  0  0  0  0  0  0  0
   41.9230   25.7690   37.6160 C   0  0  0  0  0  0  0  0  0  0  0  0
   40.8430   25.8440   36.5190 C   0  0  0  0  0  0  0  0  0  0  0  0
   42.8970   26.3230   35.7270 H   0  0  0  0  0  0  0  0  0  0  0  0
   41.7370   26.3400   38.5450 H   0  0  0  0  0  0  0  0  0  0  0  0
   42.4980   24.8260   37.6720 H   0  0  0  0  0  0  0  0  0  0  0  0
   40.6980   24.9000   35.9590 H   0  0  0  0  0  0  0  0  0  0  0  0
   39.8860   26.3180   36.8040 H   0  0  0  0  0  0  0  0  0  0  0  0
   36.9670   31.2920   40.5420 O   0  0  0  0  0  0  0  0  0  0  0  0
   36.7010   30.0940   41.1020 C   0  0  0  0  0  0  0  0  0  0  0  0
   35.5820   29.4570   40.8670 O   0  0  0  0  0  0  0  0  0  0  0  0
   37.2320   29.0890   41.9780 N   0  0  0  0  0  0  0  0  0  0  0  0
   36.7840   27.7380   41.6940 C   0  0  0  0  0  3  0  0  0  0  0  0
   35.6690   27.7710   41.5160 H   0  0  0  0  0  0  0  0  0  0  0  0
   36.9300   26.8840   42.9390 C   0  0  0  0  0  3  0  0  0  0  0  0
   36.1530   27.2100   43.6890 H   0  0  0  0  0  0  0  0  0  0  0  0
   38.1990   26.8460   43.4570 O   0  0  0  0  0  0  0  0  0  0  0  0
   38.9700   27.9560   43.1440 C   0  0  0  0  0  2  0  0  0  0  0  0
   38.1310   29.2060   43.0870 C   0  0  0  0  0  2  0  0  0  0  0  0
  1  7  1  6  0  0  0
  1  6  1  0  0  0  0
  2  8  1  6  0  0  0
  2 17  1  0  0  0  0
  2  1  1  0  0  0  0
  2  3  1  0  0  0  0
  3  4  1  0  0  0  0
  4 10  1  0  0  0  0
  4  5  1  0  0  0  0
  5 11  1  1  0  0  0
  6  5  1  0  0  0  0
  6 12  1  1  0  0  0
  6 34  1  0  0  0  0
  9  4  1  0  0  0  0
 13  1  1  0  0  0  0
 14 13  1  0  0  0  0
 15 16  1  0  0  0  0
 15  5  1  0  0  0  0
 18 17  1  0  0  0  0
 19 18  1  0  0  0  0
 19 24  1  0  0  0  0
 20 19  2  0  0  0  0
 21 22  2  0  0  0  0
 21 20  1  0  0  0  0
 22 23  1  0  0  0  0
 23 18  2  0  0  0  0
 25 22  1  0  0  0  0
 26 28  1  0  0  0  0
 26 20  1  0  0  0  0
 26 27  1  0  0  0  0
 27 31  1  0  0  0  0
 27 30  1  0  0  0  0
 28 33  1  0  0  0  0
 28 27  1  0  0  0  0
 29 26  1  0  0  0  0
 32 28  1  0  0  0  0
 34 35  1  0  0  0  0
 35 37  1  0  0  0  0
 36 35  2  0  0  0  0
 37 44  1  0  0  0  0
 38 37  1  0  0  0  0
 38 40  1  0  0  0  0
 39 38  1  0  0  0  0
 40 42  1  0  0  0  0
 40 41  1  0  0  0  0
 43 42  1  0  0  0  0
 44 43  1  0  0  0  0
M  END
>  <minimizedAffinity>
-5.90086269

$$$$

 OpenBabel03242523563D

 44 47  0  0  1  0  0  0  0  0999 V2000
   37.5410   31.5180   40.1610 C   0  0  1  0  0  0  0  0  0  0  0  0
   37.8240   31.4690   38.6670 C   0  0  1  0  0  0  0  0  0  0  0  0
   39.1150   31.9830   38.4450 O   0  0  0  0  0  0  0  0  0  0  0  0
   39.4210   33.0420   39.3010 C   0  0  0  0  0  0  0  0  0  0  0  0
   39.5940   32.5800   40.7340 C   0  0  2  0  0  0  0  0  0  0  0  0
   38.8330   31.2110   40.8460 C   0  0  1  0  0  0  0  0  0  0  0  0
   36.7680   30.7500   40.3900 H   0  0  0  0  0  0  0  0  0  0  0  0
   37.0750   31.9850   38.0660 H   0  0  0  0  0  0  0  0  0  0  0  0
   38.7090   33.8790   39.2060 H   0  0  0  0  0  0  0  0  0  0  0  0
   40.3950   33.4270   38.9540 H   0  0  0  0  0  0  0  0  0  0  0  0
   40.6540   32.4410   40.9980 H   0  0  0  0  0  0  0  0  0  0  0  0
   39.5390   30.6430   40.1600 H   0  0  0  0  0  0  0  0  0  0  0  0
   37.0700   32.7860   40.5330 O   0  0  0  0  0  0  0  0  0  0  0  0
   36.1970   32.9230   40.0710 H   0  0  0  0  0  0  0  0  0  0  0  0
   38.9220   33.4420   41.5870 O   0  0  0  0  0  0  0  0  0  0  0  0
   39.2000   34.3830   41.4080 H   0  0  0  0  0  0  0  0  0  0  0  0
   37.9550   30.1050   38.3640 O   0  0  0  0  0  0  0  0  0  0  0  0
   36.9380   29.2540   38.1770 C   0  0  0  0  0  0  0  0  0  0  0  0
   35.8680   29.5840   37.3320 C   0  0  0  0  0  0  0  0  0  0  0  0
   34.8410   28.6710   37.1710 C   0  0  0  0  0  0  0  0  0  0  0  0
   34.8980   27.4660   37.8410 N   0  0  0  0  0  0  0  0  0  0  0  0
   35.9500   27.1790   38.6510 C   0  0  0  0  0  0  0  0  0  0  0  0
   36.9610   28.0690   38.8150 N   0  0  0  0  0  0  0  0  0  0  0  0
   35.8280   30.5390   36.8040 H   0  0  0  0  0  0  0  0  0  0  0  0
   36.0120   26.2390   39.1860 H   0  0  0  0  0  0  0  0  0  0  0  0
   33.6580   28.9650   36.2970 C   0  0  0  0  0  0  0  0  0  0  0  0
   32.5730   27.8940   36.2330 C   0  0  0  0  0  0  0  0  0  0  0  0
   32.3890   29.2850   36.8720 C   0  0  0  0  0  0  0  0  0  0  0  0
   33.9710   29.2870   35.2680 H   0  0  0  0  0  0  0  0  0  0  0  0
   32.7380   27.0430   36.9200 H   0  0  0  0  0  0  0  0  0  0  0  0
   32.0400   27.7190   35.2800 H   0  0  0  0  0  0  0  0  0  0  0  0
   31.6600   29.9340   36.3460 H   0  0  0  0  0  0  0  0  0  0  0  0
   32.2590   29.3080   37.9690 H   0  0  0  0  0  0  0  0  0  0  0  0
   38.7710   30.8880   42.1500 O   0  0  0  0  0  0  0  0  0  0  0  0
   38.8350   29.6740   42.7330 C   0  0  0  0  0  0  0  0  0  0  0  0
   37.8360   29.1880   43.4270 O   0  0  0  0  0  0  0  0  0  0  0  0
   39.6830   28.5320   42.9250 N   0  0  0  0  0  0  0  0  0  0  0  0
   38.9780   27.2740   43.0890 C   0  0  0  0  0  3  0  0  0  0  0  0
   38.1240   27.4440   43.8090 H   0  0  0  0  0  0  0  0  0  0  0  0
   39.8710   26.2830   43.8110 C   0  0  0  0  0  3  0  0  0  0  0  0
   39.9710   26.6100   44.8860 H   0  0  0  0  0  0  0  0  0  0  0  0
   41.0780   26.0560   43.2000 O   0  0  0  0  0  0  0  0  0  0  0  0
   41.5130   27.1030   42.4020 C   0  0  0  0  0  2  0  0  0  0  0  0
   41.1100   28.4350   42.9800 C   0  0  0  0  0  2  0  0  0  0  0  0
  1  7  1  1  0  0  0
  1 13  1  0  0  0  0
  1  6  1  0  0  0  0
  2  8  1  6  0  0  0
  2  1  1  0  0  0  0
  3  2  1  0  0  0  0
  3  4  1  0  0  0  0
  4  5  1  0  0  0  0
  5  6  1  0  0  0  0
  5 11  1  1  0  0  0
  5 15  1  0  0  0  0
  6 12  1  6  0  0  0
  6 34  1  0  0  0  0
  9  4  1  0  0  0  0
 10  4  1  0  0  0  0
 14 13  1  0  0  0  0
 16 15  1  0  0  0  0
 17  2  1  0  0  0  0
 18 17  1  0  0  0  0
 18 23  1  0  0  0  0
 19 18  2  0  0  0  0
 20 19  1  0  0  0  0
 20 21  2  0  0  0  0
 21 22  1  0  0  0  0
 22 23  2  0  0  0  0
 22 25  1  0  0  0  0
 24 19  1  0  0  0  0
 26 28  1  0  0  0  0
 26 20  1  0  0  0  0
 27 26  1  0  0  0  0
 27 28  1  0  0  0  0
 27 30  1  0  0  0  0
 28 33  1  0  0  0  0
 29 26  1  0  0  0  0
 31 27  1  0  0  0  0
 32 28  1  0  0  0  0
 34 35  1  0  0  0  0
 35 37  1  0  0  0  0
 35 36  2  0  0  0  0
 37 44  1  0  0  0  0
 37 38  1  0  0  0  0
 38 39  1  0  0  0  0
 38 40  1  0  0  0  0
 40 41  1  0  0  0  0
 42 40  1  0  0  0  0
 43 44  1  0  0  0  0
 43 42  1  0  0  0  0
M  END
>  <minimizedAffinity>
-5.79963923

$$$$

 OpenBabel03242523563D

 44 47  0  0  1  0  0  0  0  0999 V2000
   36.9920   30.5300   40.7180 C   0  0  1  0  0  0  0  0  0  0  0  0
   36.5860   29.8040   39.4450 C   0  0  1  0  0  0  0  0  0  0  0  0
   37.0390   30.5550   38.3440 O   0  0  0  0  0  0  0  0  0  0  0  0
   36.9490   31.9310   38.5650 C   0  0  0  0  0  0  0  0  0  0  0  0
   37.9480   32.4040   39.6010 C   0  0  2  0  0  0  0  0  0  0  0  0
   38.3310   31.1380   40.4490 C   0  0  1  0  0  0  0  0  0  0  0  0
   37.0450   29.7810   41.5400 H   0  0  0  0  0  0  0  0  0  0  0  0
   35.5170   29.6000   39.3820 H   0  0  0  0  0  0  0  0  0  0  0  0
   35.9180   32.2540   38.7870 H   0  0  0  0  0  0  0  0  0  0  0  0
   37.2170   32.3990   37.6030 H   0  0  0  0  0  0  0  0  0  0  0  0
   38.8520   32.8300   39.1380 H   0  0  0  0  0  0  0  0  0  0  0  0
   38.8650   30.6020   39.6010 H   0  0  0  0  0  0  0  0  0  0  0  0
   36.0530   31.5210   41.0430 O   0  0  0  0  0  0  0  0  0  0  0  0
   35.1920   31.0560   41.2390 H   0  0  0  0  0  0  0  0  0  0  0  0
   37.3270   33.2660   40.4910 O   0  0  0  0  0  0  0  0  0  0  0  0
   36.8570   33.9900   39.9910 H   0  0  0  0  0  0  0  0  0  0  0  0
   37.3870   28.6520   39.4100 O   0  0  0  0  0  0  0  0  0  0  0  0
   36.9320   27.3980   39.2950 C   0  0  0  0  0  0  0  0  0  0  0  0
   37.1220   26.4640   40.3240 C   0  0  0  0  0  0  0  0  0  0  0  0
   36.6340   25.1810   40.1570 C   0  0  0  0  0  0  0  0  0  0  0  0
   35.9760   24.8550   38.9880 N   0  0  0  0  0  0  0  0  0  0  0  0
   35.8100   25.7840   38.0120 C   0  0  0  0  0  0  0  0  0  0  0  0
   36.2860   27.0450   38.1680 N   0  0  0  0  0  0  0  0  0  0  0  0
   37.6430   26.7270   41.2470 H   0  0  0  0  0  0  0  0  0  0  0  0
   35.2970   25.5480   37.0880 H   0  0  0  0  0  0  0  0  0  0  0  0
   36.8170   24.1280   41.2100 C   0  0  0  0  0  0  0  0  0  0  0  0
   37.7570   22.9760   40.8670 C   0  0  0  0  0  0  0  0  0  0  0  0
   38.0380   24.0380   41.9480 C   0  0  0  0  0  0  0  0  0  0  0  0
   35.8320   23.7470   41.5930 H   0  0  0  0  0  0  0  0  0  0  0  0
   38.2800   23.0920   39.8990 H   0  0  0  0  0  0  0  0  0  0  0  0
   37.5220   21.9580   41.2310 H   0  0  0  0  0  0  0  0  0  0  0  0
   38.0640   23.6400   42.9810 H   0  0  0  0  0  0  0  0  0  0  0  0
   38.8690   24.7380   41.7440 H   0  0  0  0  0  0  0  0  0  0  0  0
   39.0330   31.5620   41.5150 O   0  0  0  0  0  0  0  0  0  0  0  0
   40.3360   31.8990   41.5990 C   0  0  0  0  0  0  0  0  0  0  0  0
   41.1430   31.3220   42.4540 O   0  0  0  0  0  0  0  0  0  0  0  0
   41.3410   32.7600   41.0450 N   0  0  0  0  0  0  0  0  0  0  0  0
   42.6890   32.2220   41.0810 C   0  0  0  0  0  3  0  0  0  0  0  0
   42.8590   31.7770   42.1060 H   0  0  0  0  0  0  0  0  0  0  0  0
   43.6900   33.3580   41.0070 C   0  0  0  0  0  3  0  0  0  0  0  0
   43.6630   33.9230   41.9830 H   0  0  0  0  0  0  0  0  0  0  0  0
   43.5500   34.1680   39.9090 O   0  0  0  0  0  0  0  0  0  0  0  0
   42.2690   34.1850   39.3790 C   0  0  0  0  0  2  0  0  0  0  0  0
   41.2280   34.0630   40.4620 C   0  0  0  0  0  2  0  0  0  0  0  0
  1 13  1  0  0  0  0
  1  7  1  1  0  0  0
  2  8  1  6  0  0  0
  2  1  1  0  0  0  0
  3  4  1  0  0  0  0
  3  2  1  0  0  0  0
  4  9  1  0  0  0  0
  4  5  1  0  0  0  0
  5 11  1  6  0  0  0
  5  6  1  0  0  0  0
  5 15  1  0  0  0  0
  6 12  1  6  0  0  0
  6  1  1  0  0  0  0
  6 34  1  0  0  0  0
 10  4  1  0  0  0  0
 13 14  1  0  0  0  0
 16 15  1  0  0  0  0
 17  2  1  0  0  0  0
 18 17  1  0  0  0  0
 18 19  1  0  0  0  0
 19 24  1  0  0  0  0
 20 19  2  0  0  0  0
 20 26  1  0  0  0  0
 21 20  1  0  0  0  0
 22 23  1  0  0  0  0
 22 21  2  0  0  0  0
 23 18  2  0  0  0  0
 25 22  1  0  0  0  0
 26 29  1  0  0  0  0
 26 28  1  0  0  0  0
 27 26  1  0  0  0  0
 27 31  1  0  0  0  0
 27 28  1  0  0  0  0
 28 32  1  0  0  0  0
 30 27  1  0  0  0  0
 33 28  1  0  0  0  0
 34 35  1  0  0  0  0
 35 36  2  0  0  0  0
 37 38  1  0  0  0  0
 37 35  1  0  0  0  0
 38 39  1  0  0  0  0
 40 38  1  0  0  0  0
 40 41  1  0  0  0  0
 42 40  1  0  0  0  0
 43 42  1  0  0  0  0
 43 44  1  0  0  0  0
 44 37  1  0  0  0  0
M  END
>  <minimizedAffinity>
-5.72319078

$$$$
