
 OpenBabel03252508133D

 36 39  0  0  1  0  0  0  0  0999 V2000
   46.1930   30.9030   46.7820 C   0  0  0  0  0  0  0  0  0  0  0  0
   45.3640   30.1820   46.6010 H   0  0  0  0  0  0  0  0  0  0  0  0
   47.1860   30.4210   46.7290 H   0  0  0  0  0  0  0  0  0  0  0  0
   45.9680   31.5550   48.1230 C   0  0  1  0  0  0  0  0  0  0  0  0
   45.7220   30.6410   49.2740 C   0  0  0  0  0  0  0  0  0  0  0  0
   46.9710   31.3750   49.2000 C   0  0  1  0  0  0  0  0  0  0  0  0
   45.4420   32.5200   48.1240 H   0  0  0  0  0  0  0  0  0  0  0  0
   44.9760   30.8820   50.0480 H   0  0  0  0  0  0  0  0  0  0  0  0
   45.7880   29.5380   49.0670 H   0  0  0  0  0  0  0  0  0  0  0  0
   47.0700   32.2210   49.9480 H   0  0  0  0  0  0  0  0  0  0  0  0
   48.2850   30.7910   48.8340 C   0  0  0  0  0  0  0  0  0  0  0  0
   49.1800   30.4260   50.0460 C   0  0  0  0  0  0  0  0  0  0  0  0
   49.5210   31.6170   49.2260 C   0  0  0  0  0  0  0  0  0  0  0  0
   48.3890   30.1500   47.9430 H   0  0  0  0  0  0  0  0  0  0  0  0
   49.8070   29.5250   49.9190 H   0  0  0  0  0  0  0  0  0  0  0  0
   48.7860   30.6420   51.0550 H   0  0  0  0  0  0  0  0  0  0  0  0
   50.3630   31.6050   48.5160 H   0  0  0  0  0  0  0  0  0  0  0  0
   49.3130   32.6280   49.6360 H   0  0  0  0  0  0  0  0  0  0  0  0
   45.7560   33.1220   46.0760 C   0  0  0  0  0  0  0  0  0  0  0  0
   46.0600   31.9470   45.6800 C   0  0  0  0  0  0  0  0  0  0  0  0
   44.5590   36.0910   44.2540 C   0  0  0  0  0  0  0  0  0  0  0  0
   45.3440   36.1090   43.1080 C   0  0  0  0  0  0  0  0  0  0  0  0
   46.2610   35.1060   43.0060 C   0  0  0  0  0  0  0  0  0  0  0  0
   46.3470   34.1990   43.9770 N   0  0  0  0  0  0  0  0  0  0  0  0
   45.6020   34.1740   45.0730 C   0  0  0  0  0  0  0  0  0  0  0  0
   44.7060   35.1430   45.1910 N   0  0  0  0  0  0  0  0  0  0  0  0
   43.8140   36.8540   44.4030 H   0  0  0  0  0  0  0  0  0  0  0  0
   45.2530   36.8550   42.3360 H   0  0  0  0  0  0  0  0  0  0  0  0
   47.1510   34.9580   41.9110 N   0  0  0  0  0  0  0  0  0  0  0  0
   48.4970   35.4650   41.7770 C   0  0  0  0  0  0  0  0  0  0  0  0
   48.5890   36.1570   40.8940 H   0  0  0  0  0  0  0  0  0  0  0  0
   49.5020   34.3410   41.6910 C   0  0  0  0  0  0  0  0  0  0  0  0
   50.4130   34.7350   41.2300 H   0  0  0  0  0  0  0  0  0  0  0  0
   48.9950   33.2250   41.0420 O   0  0  0  0  0  0  0  0  0  0  0  0
   47.9980   33.5270   40.1370 C   0  0  0  0  0  0  0  0  0  0  0  0
   46.8150   34.2380   40.7110 C   0  0  0  0  0  0  0  0  0  0  0  0
  1  4  1  0  0  0  0
  2  1  1  0  0  0  0
  3  1  1  0  0  0  0
  4  7  1  6  0  0  0
  4  6  1  0  0  0  0
  4  5  1  0  0  0  0
  5  8  1  0  0  0  0
  6  5  1  0  0  0  0
  6 10  1  1  0  0  0
  9  5  1  0  0  0  0
 11  6  1  0  0  0  0
 11 13  1  0  0  0  0
 11 12  1  0  0  0  0
 12 16  1  0  0  0  0
 13 18  1  0  0  0  0
 13 12  1  0  0  0  0
 14 11  1  0  0  0  0
 15 12  1  0  0  0  0
 17 13  1  0  0  0  0
 20 19  2  0  0  0  0
 20  1  1  0  0  0  0
 21 27  1  0  0  0  0
 21 26  1  0  0  0  0
 22 21  2  0  0  0  0
 23 22  1  0  0  0  0
 23 24  2  0  0  0  0
 24 25  1  0  0  0  0
 25 26  2  0  0  0  0
 25 19  1  0  0  0  0
 28 22  1  0  0  0  0
 29 23  1  0  0  0  0
 30 29  1  0  0  0  0
 31 30  1  0  0  0  0
 32 30  1  0  0  0  0
 33 32  1  0  0  0  0
 34 32  1  0  0  0  0
 35 36  1  0  0  0  0
 35 34  1  0  0  0  0
 36 29  1  0  0  0  0
M  END
>  <minimizedAffinity>
-5.62985754

>  <minimizedRMSD>
0.762221158

$$$$
