
 OpenBabel03252507493D

 44 46  0  0  1  0  0  0  0  0999 V2000
   46.6680   34.8470   41.9830 C   0  0  0  0  0  0  0  0  0  0  0  0
   46.9310   34.2110   42.8660 H   0  0  0  0  0  0  0  0  0  0  0  0
   46.8330   35.9080   42.3190 H   0  0  0  0  0  0  0  0  0  0  0  0
   45.2230   34.7220   41.6910 C   0  0  0  0  0  0  0  0  0  0  0  0
   44.3180   35.6920   42.2070 C   0  0  0  0  0  0  0  0  0  0  0  0
   42.6950   35.1200   41.5910 S   0  0  0  0  0  0  0  0  0  0  0  0
   43.5290   33.6310   40.7180 C   0  0  0  0  0  0  0  0  0  0  0  0
   44.6160   33.8060   40.9920 N   0  0  0  0  0  0  0  0  0  0  0  0
   44.5450   36.5540   42.8140 H   0  0  0  0  0  0  0  0  0  0  0  0
   42.8240   32.6810   39.9830 O   0  0  0  0  0  0  0  0  0  0  0  0
   41.0600   33.2440   38.1000 O   0  0  0  0  0  0  0  0  0  0  0  0
   42.5640   33.0310   38.3340 P   0  0  1  0  0  0  0  0  0  0  0  0
   43.3530   34.4840   37.9770 O   0  0  0  0  0  0  0  0  0  0  0  0
   43.2430   35.0570   38.7810 H   0  0  0  0  0  0  0  0  0  0  0  0
   43.1720   31.8030   37.3700 O   0  0  0  0  0  0  0  0  0  0  0  0
   44.4850   30.0780   38.2550 H   0  0  0  0  0  0  0  0  0  0  0  0
   43.6670   29.6140   37.7870 N   0  0  0  0  0  0  0  0  0  0  0  0
   42.6010   30.5720   37.5510 C   0  0  2  0  0  0  0  0  0  0  0  0
   41.7300   30.1370   36.3980 C   0  0  0  0  0  0  0  0  0  0  0  0
   42.0010   30.6520   35.4570 H   0  0  0  0  0  0  0  0  0  0  0  0
   41.9280   28.7700   36.2130 O   0  0  0  0  0  0  0  0  0  0  0  0
   43.1590   28.6410   35.5720 C   0  0  0  0  0  0  0  0  0  0  0  0
   44.2060   29.0550   36.5610 C   0  0  0  0  0  0  0  0  0  0  0  0
   47.5490   34.5330   40.8190 C   0  0  0  0  0  0  0  0  0  0  0  0
   46.9770   34.0230   40.0390 H   0  0  0  0  0  0  0  0  0  0  0  0
   47.8580   35.5180   40.3690 H   0  0  0  0  0  0  0  0  0  0  0  0
   48.7890   33.8380   41.1790 C   0  0  0  0  0  0  0  0  0  0  0  0
   49.0970   32.6910   40.4550 C   0  0  0  0  0  0  0  0  0  0  0  0
   50.2380   31.9740   40.7200 C   0  0  0  0  0  0  0  0  0  0  0  0
   51.0530   32.4530   41.7410 N   0  0  0  0  0  0  0  0  0  0  0  0
   50.7150   33.5710   42.4180 C   0  0  0  0  0  0  0  0  0  0  0  0
   49.6090   34.2270   42.1260 N   0  0  0  0  0  0  0  0  0  0  0  0
   50.4820   31.0960   40.1740 H   0  0  0  0  0  0  0  0  0  0  0  0
   51.3270   33.9650   43.2120 H   0  0  0  0  0  0  0  0  0  0  0  0
   47.9950   32.1290   39.1490 S   0  0  0  0  0  0  0  0  0  0  0  0
   48.8140   32.2690   37.5450 C   0  0  0  0  0  0  0  0  0  0  0  0
   49.8970   32.1410   37.7230 H   0  0  0  0  0  0  0  0  0  0  0  0
   48.4590   31.4260   36.9150 H   0  0  0  0  0  0  0  0  0  0  0  0
   48.5040   33.6260   36.9470 C   0  0  0  0  0  0  0  0  0  0  0  0
   47.6910   34.1000   37.5230 H   0  0  0  0  0  0  0  0  0  0  0  0
   49.4290   34.2230   36.8980 H   0  0  0  0  0  0  0  0  0  0  0  0
   48.0420   33.4180   35.6040 N   0  0  0  0  0  0  0  0  0  0  0  0
   48.6950   32.8150   35.0580 H   0  0  0  0  0  0  0  0  0  0  0  0
   47.7730   34.2830   35.1030 H   0  0  0  0  0  0  0  0  0  0  0  0
  1  3  1  0  0  0  0
  1  2  1  0  0  0  0
  4  1  1  0  0  0  0
  4  5  2  0  0  0  0
  5  9  1  0  0  0  0
  6  5  1  0  0  0  0
  7  8  2  0  0  0  0
  7  6  1  0  0  0  0
  8  4  1  0  0  0  0
 10  7  1  0  0  0  0
 12 11  2  6  0  0  0
 12 10  1  0  0  0  0
 13 12  1  0  0  0  0
 13 14  1  0  0  0  0
 15 12  1  0  0  0  0
 17 16  1  0  0  0  0
 18 15  1  6  0  0  0
 18 17  1  0  0  0  0
 19 18  1  0  0  0  0
 20 19  1  0  0  0  0
 21 19  1  0  0  0  0
 22 21  1  0  0  0  0
 22 23  1  0  0  0  0
 23 17  1  0  0  0  0
 24 27  1  0  0  0  0
 24  1  1  0  0  0  0
 25 24  1  0  0  0  0
 26 24  1  0  0  0  0
 27 32  1  0  0  0  0
 28 29  1  0  0  0  0
 28 27  2  0  0  0  0
 29 30  2  0  0  0  0
 30 31  1  0  0  0  0
 31 34  1  0  0  0  0
 32 31  2  0  0  0  0
 33 29  1  0  0  0  0
 35 28  1  0  0  0  0
 36 37  1  0  0  0  0
 36 35  1  0  0  0  0
 38 36  1  0  0  0  0
 39 40  1  0  0  0  0
 39 36  1  0  0  0  0
 41 39  1  0  0  0  0
 42 39  1  0  0  0  0
 43 42  1  0  0  0  0
 44 42  1  0  0  0  0
M  END
>  <minimizedAffinity>
-4.3755641

>  <minimizedRMSD>
2.46497011

$$$$
