REMARK  Name = 
REMARK  8 active torsions:
REMARK  status: ('A' for Active; 'I' for Inactive)
REMARK    1  A    between atoms: P_2  and  O_3
REMARK    2  A    between atoms: P_2  and  O_4
REMARK    3  A    between atoms: P_2  and  O_12
REMARK    4  A    between atoms: O_4  and  C_5
REMARK    5  A    between atoms: C_5  and  C_8
REMARK    6  A    between atoms: O_12  and  C_13
REMARK    7  A    between atoms: C_17  and  C_18
REMARK    8  A    between atoms: C_18  and  N_35
REMARK                            x       y       z     vdW  Elec       q    Type
REMARK                         _______ _______ _______ _____ _____    ______ ____
ROOT
ATOM      1  C   UNL     1      46.930  34.094  42.289  0.00  0.00    +0.000 C 
ATOM      2  C   UNL     1      46.396  34.266  40.879  0.00  0.00    +0.000 C 
ATOM      3  C   UNL     1      47.332  33.378  40.093  0.00  0.00    +0.000 C 
ATOM      4  C   UNL     1      48.624  33.352  40.863  0.00  0.00    +0.000 C 
ATOM      5  C   UNL     1      48.414  34.286  42.043  0.00  0.00    +0.000 C 
ATOM      6  H   UNL     1      46.720  33.060  42.583  0.00  0.00    +0.000 HD
ATOM      7  H   UNL     1      45.398  33.756  40.876  0.00  0.00    +0.000 HD
ATOM      8  H   UNL     1      46.348  35.294  40.531  0.00  0.00    +0.000 HD
ATOM      9  H   UNL     1      46.914  32.380  39.890  0.00  0.00    +0.000 HD
ATOM     10  H   UNL     1      47.516  33.901  39.117  0.00  0.00    +0.000 HD
ATOM     11  H   UNL     1      48.821  32.324  41.235  0.00  0.00    +0.000 HD
ATOM     12  H   UNL     1      49.485  33.712  40.241  0.00  0.00    +0.000 HD
ATOM     13  H   UNL     1      48.913  33.910  42.958  0.00  0.00    +0.000 HD
ENDROOT
BRANCH   5  14
ATOM     14  C   UNL     1      48.769  35.706  41.719  0.00  0.00    +0.000 C 
ATOM     15  H   UNL     1      49.856  35.726  41.472  0.00  0.00    +0.000 HD
ATOM     16  H   UNL     1      48.257  35.972  40.760  0.00  0.00    +0.000 HD
BRANCH  14  17
ATOM     17  N   UNL     1      48.467  36.656  42.693  0.00  0.00    +0.000 NA
ATOM     18  C   UNL     1      49.462  37.537  43.123  0.00  0.00    +0.000 C 
ATOM     19  H   UNL     1      50.003  37.933  42.226  0.00  0.00    +0.000 HD
ATOM     20  C   UNL     1      49.029  38.721  43.922  0.00  0.00    +0.000 C 
ATOM     21  H   UNL     1      48.873  38.477  44.999  0.00  0.00    +0.000 HD
ATOM     22  O   UNL     1      47.800  39.161  43.434  0.00  0.00    +0.000 OA
ATOM     23  C   UNL     1      46.880  38.155  43.805  0.00  0.00    +0.000 C 
ATOM     24  C   UNL     1      47.102  36.953  42.938  0.00  0.00    +0.000 C 
ENDBRANCH  14  17
ENDBRANCH   5  14
BRANCH   1  25
ATOM     25  O   UNL     1      46.413  35.032  43.167  0.00  0.00    +0.000 OA
BRANCH  25  27
ATOM     26  O   UNL     1      44.680  35.288  45.070  0.00  0.00    +0.000 OA
ATOM     27  P   UNL     1      45.490  34.249  44.334  0.00  0.00    +0.000 P 
BRANCH  27  28
ATOM     28  O   UNL     1      44.532  33.053  43.644  0.00  0.00    +0.000 OA
ATOM     29  H   UNL     1      43.710  33.466  43.284  0.00  0.00    +0.000 HD
ENDBRANCH  27  28
BRANCH  27  30
ATOM     30  O   UNL     1      46.519  33.466  45.410  0.00  0.00    +0.000 OA
BRANCH  30  31
ATOM     31  C   UNL     1      46.214  32.143  45.428  0.00  0.00    +0.000 C 
ATOM     32  H   UNL     1      45.463  31.773  44.734  0.00  0.00    +0.000 HD
ATOM     33  H   UNL     1      47.167  31.608  45.129  0.00  0.00    +0.000 HD
BRANCH  31  36
ATOM     34  C   UNL     1      45.740  32.038  49.113  0.00  0.00    +0.000 A 
ATOM     35  C   UNL     1      46.042  32.514  47.828  0.00  0.00    +0.000 A 
ATOM     36  C   UNL     1      45.897  31.644  46.773  0.00  0.00    +0.000 A 
ATOM     37  N   UNL     1      45.471  30.377  47.030  0.00  0.00    +0.000 NA
ATOM     38  C   UNL     1      45.187  29.942  48.270  0.00  0.00    +0.000 A 
ATOM     39  N   UNL     1      45.324  30.775  49.302  0.00  0.00    +0.000 NA
ATOM     40  H   UNL     1      45.864  32.748  49.928  0.00  0.00    +0.000 HD
ATOM     41  H   UNL     1      46.380  33.546  47.705  0.00  0.00    +0.000 HD
ATOM     42  H   UNL     1      44.858  28.918  48.386  0.00  0.00    +0.000 HD
ENDBRANCH  31  36
ENDBRANCH  30  31
ENDBRANCH  27  30
ENDBRANCH  25  27
ENDBRANCH   1  25
TORSDOF 8
