REMARK  Name = 
REMARK  4 active torsions:
REMARK  status: ('A' for Active; 'I' for Inactive)
REMARK    1  A    between atoms: C_1  and  O_12
REMARK    2  A    between atoms: C_2  and  C_7
REMARK    3  A    between atoms: O_12  and  C_13
REMARK    4  A    between atoms: C_20  and  N_35
REMARK                            x       y       z     vdW  Elec       q    Type
REMARK                         _______ _______ _______ _____ _____    ______ ____
ROOT
ATOM      1  C   UNL     1      43.388  34.467  40.766  0.00  0.00    +0.000 C 
ATOM      2  O   UNL     1      43.295  35.726  40.544  0.00  0.00    +0.000 OA
ATOM      3  N   UNL     1      42.045  34.065  40.387  0.00  0.00    +0.000 N 
ATOM      4  C   UNL     1      41.687  34.338  39.017  0.00  0.00    +0.000 C 
ATOM      5  C   UNL     1      40.841  35.622  39.080  0.00  0.00    +0.000 C 
ATOM      6  C   UNL     1      40.026  35.536  40.365  0.00  0.00    +0.000 C 
ATOM      7  C   UNL     1      39.722  34.089  40.754  0.00  0.00    +0.000 C 
ATOM      8  C   UNL     1      41.024  33.432  41.193  0.00  0.00    +0.000 C 
ATOM      9  H   UNL     1      42.546  34.554  38.357  0.00  0.00    +0.000 HD
ATOM     10  H   UNL     1      41.034  33.554  38.568  0.00  0.00    +0.000 HD
ATOM     11  H   UNL     1      41.495  36.522  39.133  0.00  0.00    +0.000 HD
ATOM     12  H   UNL     1      40.194  35.724  38.191  0.00  0.00    +0.000 HD
ATOM     13  H   UNL     1      39.023  35.999  40.164  0.00  0.00    +0.000 HD
ATOM     14  H   UNL     1      40.551  36.013  41.204  0.00  0.00    +0.000 HD
ATOM     15  H   UNL     1      39.289  33.582  39.861  0.00  0.00    +0.000 HD
ATOM     16  H   UNL     1      38.985  34.156  41.566  0.00  0.00    +0.000 HD
ATOM     17  H   UNL     1      41.185  33.609  42.278  0.00  0.00    +0.000 HD
ENDROOT
BRANCH   8  18
ATOM     18  N   UNL     1      40.890  32.034  40.969  0.00  0.00    +0.000 NA
ATOM     19  C   UNL     1      40.307  31.840  39.658  0.00  0.00    +0.000 C 
ATOM     20  H   UNL     1      41.061  31.496  38.914  0.00  0.00    +0.000 HD
ATOM     21  C   UNL     1      39.108  30.920  39.702  0.00  0.00    +0.000 C 
ATOM     22  H   UNL     1      38.826  30.702  38.651  0.00  0.00    +0.000 HD
ATOM     23  O   UNL     1      39.382  29.711  40.326  0.00  0.00    +0.000 OA
ATOM     24  C   UNL     1      40.083  29.857  41.505  0.00  0.00    +0.000 C 
ATOM     25  C   UNL     1      40.117  31.319  41.936  0.00  0.00    +0.000 C 
ENDBRANCH   8  18
BRANCH   1  26
ATOM     26  O   UNL     1      44.469  33.782  41.224  0.00  0.00    +0.000 OA
BRANCH  26  27
ATOM     27  C   UNL     1      45.797  34.129  41.084  0.00  0.00    +0.000 A 
ATOM     28  C   UNL     1      46.420  34.753  42.161  0.00  0.00    +0.000 A 
ATOM     29  C   UNL     1      47.777  35.093  41.982  0.00  0.00    +0.000 A 
ATOM     30  N   UNL     1      48.376  34.797  40.794  0.00  0.00    +0.000 NA
ATOM     31  C   UNL     1      47.726  34.200  39.803  0.00  0.00    +0.000 A 
ATOM     32  N   UNL     1      46.437  33.861  39.934  0.00  0.00    +0.000 NA
ATOM     33  H   UNL     1      48.255  35.574  42.816  0.00  0.00    +0.000 HD
ATOM     34  H   UNL     1      48.259  33.990  38.877  0.00  0.00    +0.000 HD
BRANCH  28  35
ATOM     35  C   UNL     1      45.688  35.020  43.378  0.00  0.00    +0.000 A 
ATOM     36  C   UNL     1      45.041  36.238  43.606  0.00  0.00    +0.000 A 
ATOM     37  C   UNL     1      44.481  36.079  44.849  0.00  0.00    +0.000 A 
ATOM     38  N   UNL     1      44.767  34.848  45.347  0.00  0.00    +0.000 N 
ATOM     39  N   UNL     1      45.495  34.243  44.428  0.00  0.00    +0.000 NA
ATOM     40  H   UNL     1      44.986  37.111  42.961  0.00  0.00    +0.000 HD
ATOM     41  H   UNL     1      43.890  36.815  45.383  0.00  0.00    +0.000 HD
ATOM     42  H   UNL     1      44.446  34.489  46.290  0.00  0.00    +0.000 HD
ENDBRANCH  28  35
ENDBRANCH  26  27
ENDBRANCH   1  26
TORSDOF 4
