
 OpenBabel03242517463D

 36 39  0  0  0  0  0  0  0  0999 V2000
   36.9700   29.4010   41.6590 C   0  0  0  0  0  0  0  0  0  0  0  0
   37.5560   29.2020   42.9000 C   0  0  0  0  0  0  0  0  0  0  0  0
   37.7720   27.9170   43.3590 C   0  0  0  0  0  0  0  0  0  0  0  0
   37.4200   26.8260   42.6160 C   0  0  0  0  0  0  0  0  0  0  0  0
   36.8390   27.0280   41.3860 C   0  0  0  0  0  0  0  0  0  0  0  0
   36.6020   28.3150   40.8840 C   0  0  0  0  0  0  0  0  0  0  0  0
   37.8270   30.0770   43.4700 H   0  0  0  0  0  0  0  0  0  0  0  0
   38.2320   27.7840   44.3310 H   0  0  0  0  0  0  0  0  0  0  0  0
   37.5660   25.8100   42.9270 H   0  0  0  0  0  0  0  0  0  0  0  0
   36.5350   26.2100   40.7450 H   0  0  0  0  0  0  0  0  0  0  0  0
   35.9890   28.5100   39.5850 C   0  0  0  0  0  0  0  0  0  0  0  0
   34.6680   28.7680   39.3950 C   0  0  0  0  0  0  0  0  0  0  0  0
   34.0920   28.9550   38.1270 C   0  0  0  0  0  0  0  0  0  0  0  0
   34.8870   28.8730   37.0470 N   0  0  0  0  0  0  0  0  0  0  0  0
   36.2090   28.6150   37.2390 C   0  0  0  0  0  0  0  0  0  0  0  0
   36.7400   28.4400   38.4670 N   0  0  0  0  0  0  0  0  0  0  0  0
   34.0220   28.8350   40.2580 H   0  0  0  0  0  0  0  0  0  0  0  0
   33.0220   29.1560   38.0990 H   0  0  0  0  0  0  0  0  0  0  0  0
   36.8890   28.5400   36.4000 H   0  0  0  0  0  0  0  0  0  0  0  0
   36.6540   31.0100   40.9880 S   0  0  0  0  0  0  0  0  0  0  0  0
   38.3760   33.0850   40.3480 C   0  0  0  0  0  0  0  0  0  0  0  0
   38.1400   31.7050   40.2970 C   0  0  0  0  0  0  0  0  0  0  0  0
   39.0940   30.8830   39.6910 C   0  0  0  0  0  0  0  0  0  0  0  0
   40.2080   31.4720   39.1820 N   0  0  0  0  0  0  0  0  0  0  0  0
   40.3880   32.8060   39.2560 C   0  0  0  0  0  0  0  0  0  0  0  0
   39.5210   33.6280   39.8160 N   0  0  0  0  0  0  0  0  0  0  0  0
   37.6250   33.7020   40.8210 H   0  0  0  0  0  0  0  0  0  0  0  0
   38.9370   29.8210   39.6380 H   0  0  0  0  0  0  0  0  0  0  0  0
   41.6020   33.2780   38.6790 N   0  0  0  0  0  0  0  0  0  0  0  0
   42.5830   33.9870   39.4770 C   0  0  0  0  0  3  0  0  0  0  0  0
   42.6740   33.5750   40.4950 H   0  0  0  0  0  0  0  0  0  0  0  0
   43.8780   34.0240   38.7030 C   0  0  0  0  0  3  0  0  0  0  0  0
   44.6820   34.2850   39.4230 H   0  0  0  0  0  0  0  0  0  0  0  0
   44.2290   32.8110   38.1290 O   0  0  0  0  0  0  0  0  0  0  0  0
   43.2490   32.2820   37.3080 C   0  0  0  0  0  2  0  0  0  0  0  0
   41.9760   33.1090   37.2880 C   0  0  0  0  0  2  0  0  0  0  0  0
  1  2  1  0  0  0  0
  2  3  2  0  0  0  0
  2  7  1  0  0  0  0
  3  8  1  0  0  0  0
  4  9  1  0  0  0  0
  4  3  1  0  0  0  0
  5  4  2  0  0  0  0
  6  5  1  0  0  0  0
  6  1  2  0  0  0  0
 10  5  1  0  0  0  0
 11  6  1  0  0  0  0
 12 11  1  0  0  0  0
 12 17  1  0  0  0  0
 13 12  2  0  0  0  0
 14 15  2  0  0  0  0
 14 13  1  0  0  0  0
 15 16  1  0  0  0  0
 16 11  2  0  0  0  0
 18 13  1  0  0  0  0
 19 15  1  0  0  0  0
 20  1  1  0  0  0  0
 21 27  1  0  0  0  0
 22 21  1  0  0  0  0
 22 20  1  0  0  0  0
 23 22  2  0  0  0  0
 24 25  2  0  0  0  0
 24 23  1  0  0  0  0
 25 26  1  0  0  0  0
 26 21  2  0  0  0  0
 28 23  1  0  0  0  0
 29 25  1  0  0  0  0
 29 30  1  0  0  0  0
 30 31  1  0  0  0  0
 32 33  1  0  0  0  0
 32 30  1  0  0  0  0
 34 32  1  0  0  0  0
 35 34  1  0  0  0  0
 36 35  1  0  0  0  0
 36 29  1  0  0  0  0
M  END
>  <minimizedAffinity>
-5.97115803

$$$$

 OpenBabel03242517463D

 36 39  0  0  0  0  0  0  0  0999 V2000
   36.1040   29.3210   39.5780 C   0  0  0  0  0  0  0  0  0  0  0  0
   35.4480   29.4750   38.3660 C   0  0  0  0  0  0  0  0  0  0  0  0
   35.1890   28.3670   37.5810 C   0  0  0  0  0  0  0  0  0  0  0  0
   35.5650   27.1140   37.9710 C   0  0  0  0  0  0  0  0  0  0  0  0
   36.2150   26.9670   39.1740 C   0  0  0  0  0  0  0  0  0  0  0  0
   36.4970   28.0640   40.0000 C   0  0  0  0  0  0  0  0  0  0  0  0
   35.1590   30.4740   38.0780 H   0  0  0  0  0  0  0  0  0  0  0  0
   34.6750   28.5100   36.6380 H   0  0  0  0  0  0  0  0  0  0  0  0
   35.3870   26.2240   37.4000 H   0  0  0  0  0  0  0  0  0  0  0  0
   36.5410   26.0030   39.5450 H   0  0  0  0  0  0  0  0  0  0  0  0
   37.1830   27.8910   41.2650 C   0  0  0  0  0  0  0  0  0  0  0  0
   36.5560   27.7570   42.4630 C   0  0  0  0  0  0  0  0  0  0  0  0
   37.2390   27.5900   43.6790 C   0  0  0  0  0  0  0  0  0  0  0  0
   38.5830   27.5610   43.6570 N   0  0  0  0  0  0  0  0  0  0  0  0
   39.2100   27.6950   42.4570 C   0  0  0  0  0  0  0  0  0  0  0  0
   38.5310   27.8540   41.3020 N   0  0  0  0  0  0  0  0  0  0  0  0
   35.4760   27.7790   42.4890 H   0  0  0  0  0  0  0  0  0  0  0  0
   36.6290   27.4930   44.5760 H   0  0  0  0  0  0  0  0  0  0  0  0
   40.2900   27.6790   42.3880 H   0  0  0  0  0  0  0  0  0  0  0  0
   36.4780   30.6810   40.6510 S   0  0  0  0  0  0  0  0  0  0  0  0
   38.2800   32.7850   40.5670 C   0  0  0  0  0  0  0  0  0  0  0  0
   37.9880   31.4800   40.1500 C   0  0  0  0  0  0  0  0  0  0  0  0
   38.9050   30.8160   39.3310 C   0  0  0  0  0  0  0  0  0  0  0  0
   40.0400   31.4780   38.9820 N   0  0  0  0  0  0  0  0  0  0  0  0
   40.2750   32.7340   39.4100 C   0  0  0  0  0  0  0  0  0  0  0  0
   39.4440   33.4070   40.1830 N   0  0  0  0  0  0  0  0  0  0  0  0
   37.5570   33.2790   41.2000 H   0  0  0  0  0  0  0  0  0  0  0  0
   38.7050   29.8140   38.9960 H   0  0  0  0  0  0  0  0  0  0  0  0
   41.5040   33.2980   38.9640 N   0  0  0  0  0  0  0  0  0  0  0  0
   42.5170   33.7270   39.9080 C   0  0  0  0  0  3  0  0  0  0  0  0
   42.5950   33.0540   40.7760 H   0  0  0  0  0  0  0  0  0  0  0  0
   43.8090   33.9220   39.1520 C   0  0  0  0  0  3  0  0  0  0  0  0
   44.6260   33.9500   39.9050 H   0  0  0  0  0  0  0  0  0  0  0  0
   44.1080   32.8960   38.2690 O   0  0  0  0  0  0  0  0  0  0  0  0
   43.1040   32.6460   37.3510 C   0  0  0  0  0  2  0  0  0  0  0  0
   41.8650   33.4960   37.5720 C   0  0  0  0  0  2  0  0  0  0  0  0
  1  6  1  0  0  0  0
  1 20  1  0  0  0  0
  2  1  2  0  0  0  0
  3  4  2  0  0  0  0
  3  2  1  0  0  0  0
  4  5  1  0  0  0  0
  5 10  1  0  0  0  0
  5  6  2  0  0  0  0
  6 11  1  0  0  0  0
  7  2  1  0  0  0  0
  8  3  1  0  0  0  0
  9  4  1  0  0  0  0
 11 16  2  0  0  0  0
 11 12  1  0  0  0  0
 12 17  1  0  0  0  0
 12 13  2  0  0  0  0
 13 18  1  0  0  0  0
 14 13  1  0  0  0  0
 15 14  2  0  0  0  0
 16 15  1  0  0  0  0
 19 15  1  0  0  0  0
 21 27  1  0  0  0  0
 22 21  2  0  0  0  0
 22 20  1  0  0  0  0
 23 22  1  0  0  0  0
 24 23  2  0  0  0  0
 24 25  1  0  0  0  0
 25 26  2  0  0  0  0
 26 21  1  0  0  0  0
 28 23  1  0  0  0  0
 29 25  1  0  0  0  0
 29 30  1  0  0  0  0
 30 31  1  0  0  0  0
 32 33  1  0  0  0  0
 32 30  1  0  0  0  0
 34 32  1  0  0  0  0
 35 36  1  0  0  0  0
 35 34  1  0  0  0  0
 36 29  1  0  0  0  0
M  END
>  <minimizedAffinity>
-5.82555771

$$$$

 OpenBabel03242517463D

 36 39  0  0  0  0  0  0  0  0999 V2000
   37.3650   28.2230   40.7400 C   0  0  0  0  0  0  0  0  0  0  0  0
   37.0400   26.9950   41.2930 C   0  0  0  0  0  0  0  0  0  0  0  0
   36.9560   26.8620   42.6670 C   0  0  0  0  0  0  0  0  0  0  0  0
   37.1870   27.9190   43.5000 C   0  0  0  0  0  0  0  0  0  0  0  0
   37.5080   29.1360   42.9460 C   0  0  0  0  0  0  0  0  0  0  0  0
   37.6040   29.3120   41.5590 C   0  0  0  0  0  0  0  0  0  0  0  0
   36.8620   26.1730   40.6170 H   0  0  0  0  0  0  0  0  0  0  0  0
   36.7010   25.8920   43.0790 H   0  0  0  0  0  0  0  0  0  0  0  0
   37.1340   27.8670   44.5700 H   0  0  0  0  0  0  0  0  0  0  0  0
   37.7040   30.0150   43.5470 H   0  0  0  0  0  0  0  0  0  0  0  0
   37.9440   30.6020   40.9910 C   0  0  0  0  0  0  0  0  0  0  0  0
   37.0330   31.5030   40.5380 C   0  0  0  0  0  0  0  0  0  0  0  0
   37.3830   32.7490   39.9910 C   0  0  0  0  0  0  0  0  0  0  0  0
   38.6860   33.0660   39.9110 N   0  0  0  0  0  0  0  0  0  0  0  0
   39.5980   32.1640   40.3640 C   0  0  0  0  0  0  0  0  0  0  0  0
   39.2370   30.9730   40.8860 N   0  0  0  0  0  0  0  0  0  0  0  0
   35.9830   31.2550   40.5990 H   0  0  0  0  0  0  0  0  0  0  0  0
   36.5650   33.3870   39.6620 H   0  0  0  0  0  0  0  0  0  0  0  0
   40.6590   32.3740   40.3210 H   0  0  0  0  0  0  0  0  0  0  0  0
   37.4960   28.4890   38.9930 S   0  0  0  0  0  0  0  0  0  0  0  0
   35.7100   28.5350   36.8740 C   0  0  0  0  0  0  0  0  0  0  0  0
   35.8820   28.6520   38.2590 C   0  0  0  0  0  0  0  0  0  0  0  0
   34.7610   28.9000   39.0560 C   0  0  0  0  0  0  0  0  0  0  0  0
   33.5560   29.0140   38.4380 N   0  0  0  0  0  0  0  0  0  0  0  0
   33.4430   28.8930   37.1000 C   0  0  0  0  0  0  0  0  0  0  0  0
   34.4670   28.6600   36.3020 N   0  0  0  0  0  0  0  0  0  0  0  0
   36.5900   28.3430   36.2770 H   0  0  0  0  0  0  0  0  0  0  0  0
   34.8650   28.9940   40.1220 H   0  0  0  0  0  0  0  0  0  0  0  0
   32.1190   29.0370   36.5970 N   0  0  0  0  0  0  0  0  0  0  0  0
   31.4760   27.9630   35.8640 C   0  0  0  0  0  3  0  0  0  0  0  0
   31.7190   26.9700   36.2750 H   0  0  0  0  0  0  0  0  0  0  0  0
   29.9990   28.2630   35.7940 C   0  0  0  0  0  3  0  0  0  0  0  0
   29.4860   27.3180   35.5130 H   0  0  0  0  0  0  0  0  0  0  0  0
   29.4470   28.6780   36.9970 O   0  0  0  0  0  0  0  0  0  0  0  0
   30.0850   29.7740   37.5490 C   0  0  0  0  0  2  0  0  0  0  0  0
   31.2980   30.2230   36.7550 C   0  0  0  0  0  2  0  0  0  0  0  0
  1  2  2  0  0  0  0
  1  6  1  0  0  0  0
  2  3  1  0  0  0  0
  3  8  1  0  0  0  0
  3  4  2  0  0  0  0
  4  9  1  0  0  0  0
  5  4  1  0  0  0  0
  5 10  1  0  0  0  0
  6  5  2  0  0  0  0
  7  2  1  0  0  0  0
 11  6  1  0  0  0  0
 12 17  1  0  0  0  0
 12 11  2  0  0  0  0
 13 12  1  0  0  0  0
 14 13  2  0  0  0  0
 14 15  1  0  0  0  0
 15 16  2  0  0  0  0
 16 11  1  0  0  0  0
 18 13  1  0  0  0  0
 19 15  1  0  0  0  0
 20  1  1  0  0  0  0
 21 22  1  0  0  0  0
 22 20  1  0  0  0  0
 22 23  2  0  0  0  0
 23 28  1  0  0  0  0
 24 23  1  0  0  0  0
 25 24  2  0  0  0  0
 26 21  2  0  0  0  0
 26 25  1  0  0  0  0
 27 21  1  0  0  0  0
 29 36  1  0  0  0  0
 29 25  1  0  0  0  0
 30 31  1  0  0  0  0
 30 29  1  0  0  0  0
 32 30  1  0  0  0  0
 32 34  1  0  0  0  0
 33 32  1  0  0  0  0
 34 35  1  0  0  0  0
 36 35  1  0  0  0  0
M  END
>  <minimizedAffinity>
-5.62576342

$$$$

 OpenBabel03242517463D

 36 39  0  0  0  0  0  0  0  0999 V2000
   37.4420   28.2300   40.8540 C   0  0  0  0  0  0  0  0  0  0  0  0
   37.1100   27.0050   41.4120 C   0  0  0  0  0  0  0  0  0  0  0  0
   37.0030   26.8820   42.7850 C   0  0  0  0  0  0  0  0  0  0  0  0
   37.2180   27.9460   43.6140 C   0  0  0  0  0  0  0  0  0  0  0  0
   37.5470   29.1590   43.0560 C   0  0  0  0  0  0  0  0  0  0  0  0
   37.6660   29.3250   41.6690 C   0  0  0  0  0  0  0  0  0  0  0  0
   36.9430   26.1780   40.7390 H   0  0  0  0  0  0  0  0  0  0  0  0
   36.7420   25.9160   43.2000 H   0  0  0  0  0  0  0  0  0  0  0  0
   37.1470   27.9020   44.6830 H   0  0  0  0  0  0  0  0  0  0  0  0
   37.7320   30.0430   43.6530 H   0  0  0  0  0  0  0  0  0  0  0  0
   38.0140   30.6110   41.0970 C   0  0  0  0  0  0  0  0  0  0  0  0
   37.1080   31.5190   40.6490 C   0  0  0  0  0  0  0  0  0  0  0  0
   37.4650   32.7610   40.0980 C   0  0  0  0  0  0  0  0  0  0  0  0
   38.7710   33.0670   40.0090 N   0  0  0  0  0  0  0  0  0  0  0  0
   39.6770   32.1570   40.4580 C   0  0  0  0  0  0  0  0  0  0  0  0
   39.3100   30.9700   40.9840 N   0  0  0  0  0  0  0  0  0  0  0  0
   36.0560   31.2800   40.7180 H   0  0  0  0  0  0  0  0  0  0  0  0
   36.6510   33.4070   39.7740 H   0  0  0  0  0  0  0  0  0  0  0  0
   40.7400   32.3580   40.4070 H   0  0  0  0  0  0  0  0  0  0  0  0
   37.6010   28.4820   39.1080 S   0  0  0  0  0  0  0  0  0  0  0  0
   34.8570   28.8670   39.1120 C   0  0  0  0  0  0  0  0  0  0  0  0
   35.9990   28.6130   38.3420 C   0  0  0  0  0  0  0  0  0  0  0  0
   35.8590   28.4630   36.9600 C   0  0  0  0  0  0  0  0  0  0  0  0
   34.6100   28.5740   36.4340 N   0  0  0  0  0  0  0  0  0  0  0  0
   33.5410   28.8190   37.2170 C   0  0  0  0  0  0  0  0  0  0  0  0
   33.6170   28.9680   38.5260 N   0  0  0  0  0  0  0  0  0  0  0  0
   34.9890   28.9790   40.1780 H   0  0  0  0  0  0  0  0  0  0  0  0
   36.7200   28.2680   36.3460 H   0  0  0  0  0  0  0  0  0  0  0  0
   32.3000   28.9080   36.5250 N   0  0  0  0  0  0  0  0  0  0  0  0
   31.5040   30.1200   36.5690 C   0  0  0  0  0  3  0  0  0  0  0  0
   32.1230   31.0300   36.5450 H   0  0  0  0  0  0  0  0  0  0  0  0
   30.4710   30.0410   35.4720 C   0  0  0  0  0  3  0  0  0  0  0  0
   30.0800   31.0690   35.3160 H   0  0  0  0  0  0  0  0  0  0  0  0
   30.9720   29.6110   34.2520 O   0  0  0  0  0  0  0  0  0  0  0  0
   31.6250   28.3940   34.3190 C   0  0  0  0  0  2  0  0  0  0  0  0
   31.7180   27.8420   35.7310 C   0  0  0  0  0  2  0  0  0  0  0  0
  1  2  2  0  0  0  0
  1  6  1  0  0  0  0
  2  3  1  0  0  0  0
  3  8  1  0  0  0  0
  3  4  2  0  0  0  0
  4  9  1  0  0  0  0
  5  4  1  0  0  0  0
  5 10  1  0  0  0  0
  6  5  2  0  0  0  0
  7  2  1  0  0  0  0
 11  6  1  0  0  0  0
 12 17  1  0  0  0  0
 12 11  2  0  0  0  0
 13 12  1  0  0  0  0
 14 13  2  0  0  0  0
 14 15  1  0  0  0  0
 15 16  2  0  0  0  0
 16 11  1  0  0  0  0
 18 13  1  0  0  0  0
 19 15  1  0  0  0  0
 20  1  1  0  0  0  0
 21 27  1  0  0  0  0
 22 20  1  0  0  0  0
 22 21  2  0  0  0  0
 23 22  1  0  0  0  0
 24 23  2  0  0  0  0
 24 25  1  0  0  0  0
 25 26  2  0  0  0  0
 26 21  1  0  0  0  0
 28 23  1  0  0  0  0
 29 30  1  0  0  0  0
 29 25  1  0  0  0  0
 31 30  1  0  0  0  0
 32 30  1  0  0  0  0
 33 32  1  0  0  0  0
 34 35  1  0  0  0  0
 34 32  1  0  0  0  0
 35 36  1  0  0  0  0
 36 29  1  0  0  0  0
M  END
>  <minimizedAffinity>
-5.49868631

$$$$

 OpenBabel03242517463D

 36 39  0  0  0  0  0  0  0  0999 V2000
   38.1530   25.4880   42.2150 C   0  0  0  0  0  0  0  0  0  0  0  0
   36.8430   25.0890   41.9960 C   0  0  0  0  0  0  0  0  0  0  0  0
   36.5760   24.0690   41.1020 C   0  0  0  0  0  0  0  0  0  0  0  0
   37.5780   23.4380   40.4220 C   0  0  0  0  0  0  0  0  0  0  0  0
   38.8760   23.8370   40.6430 C   0  0  0  0  0  0  0  0  0  0  0  0
   39.1880   24.8670   41.5410 C   0  0  0  0  0  0  0  0  0  0  0  0
   36.0670   25.6010   42.5440 H   0  0  0  0  0  0  0  0  0  0  0  0
   35.5450   23.7730   40.9460 H   0  0  0  0  0  0  0  0  0  0  0  0
   37.4240   22.6430   39.7200 H   0  0  0  0  0  0  0  0  0  0  0  0
   39.7180   23.3810   40.1380 H   0  0  0  0  0  0  0  0  0  0  0  0
   40.5620   25.2750   41.7610 C   0  0  0  0  0  0  0  0  0  0  0  0
   41.2920   26.0090   40.8810 C   0  0  0  0  0  0  0  0  0  0  0  0
   42.6230   26.3950   41.1130 C   0  0  0  0  0  0  0  0  0  0  0  0
   43.2040   26.0190   42.2660 N   0  0  0  0  0  0  0  0  0  0  0  0
   42.4720   25.2850   43.1460 C   0  0  0  0  0  0  0  0  0  0  0  0
   41.1950   24.9260   42.9000 N   0  0  0  0  0  0  0  0  0  0  0  0
   40.8320   26.3150   39.9520 H   0  0  0  0  0  0  0  0  0  0  0  0
   43.1060   26.9830   40.3350 H   0  0  0  0  0  0  0  0  0  0  0  0
   42.8960   24.9580   44.0870 H   0  0  0  0  0  0  0  0  0  0  0  0
   38.5900   26.7840   43.3410 S   0  0  0  0  0  0  0  0  0  0  0  0
   37.7840   28.8360   41.6630 C   0  0  0  0  0  0  0  0  0  0  0  0
   38.8040   28.3250   42.4750 C   0  0  0  0  0  0  0  0  0  0  0  0
   39.9940   29.0470   42.5940 C   0  0  0  0  0  0  0  0  0  0  0  0
   40.0970   30.2160   41.9090 N   0  0  0  0  0  0  0  0  0  0  0  0
   39.0870   30.6660   41.1390 C   0  0  0  0  0  0  0  0  0  0  0  0
   37.9430   30.0250   40.9910 N   0  0  0  0  0  0  0  0  0  0  0  0
   36.8720   28.2610   41.5850 H   0  0  0  0  0  0  0  0  0  0  0  0
   40.7930   28.6760   43.2110 H   0  0  0  0  0  0  0  0  0  0  0  0
   39.3400   31.9040   40.4830 N   0  0  0  0  0  0  0  0  0  0  0  0
   38.5030   33.0640   40.7240 C   0  0  0  0  0  3  0  0  0  0  0  0
   38.1900   33.1440   41.7760 H   0  0  0  0  0  0  0  0  0  0  0  0
   39.2250   34.2790   40.1950 C   0  0  0  0  0  3  0  0  0  0  0  0
   38.7370   35.1710   40.6450 H   0  0  0  0  0  0  0  0  0  0  0  0
   40.5670   34.3370   40.5420 O   0  0  0  0  0  0  0  0  0  0  0  0
   41.2830   33.2140   40.1700 C   0  0  0  0  0  2  0  0  0  0  0  0
   40.4200   32.1350   39.5410 C   0  0  0  0  0  2  0  0  0  0  0  0
  1 20  1  0  0  0  0
  2  1  1  0  0  0  0
  2  7  1  0  0  0  0
  3  2  2  0  0  0  0
  4  5  2  0  0  0  0
  4  3  1  0  0  0  0
  5  6  1  0  0  0  0
  6 11  1  0  0  0  0
  6  1  2  0  0  0  0
  8  3  1  0  0  0  0
  9  4  1  0  0  0  0
 10  5  1  0  0  0  0
 11 16  1  0  0  0  0
 12 13  1  0  0  0  0
 12 11  2  0  0  0  0
 13 14  2  0  0  0  0
 14 15  1  0  0  0  0
 15 19  1  0  0  0  0
 16 15  2  0  0  0  0
 17 12  1  0  0  0  0
 18 13  1  0  0  0  0
 21 22  1  0  0  0  0
 22 23  2  0  0  0  0
 22 20  1  0  0  0  0
 23 28  1  0  0  0  0
 24 23  1  0  0  0  0
 25 24  2  0  0  0  0
 26 25  1  0  0  0  0
 26 21  2  0  0  0  0
 27 21  1  0  0  0  0
 29 30  1  0  0  0  0
 29 25  1  0  0  0  0
 30 31  1  0  0  0  0
 32 34  1  0  0  0  0
 32 33  1  0  0  0  0
 32 30  1  0  0  0  0
 35 34  1  0  0  0  0
 36 35  1  0  0  0  0
 36 29  1  0  0  0  0
M  END
>  <minimizedAffinity>
-5.46967316

$$$$

 OpenBabel03242517463D

 36 39  0  0  0  0  0  0  0  0999 V2000
   36.3250   28.2340   40.6510 C   0  0  0  0  0  0  0  0  0  0  0  0
   36.7880   27.6810   41.8360 C   0  0  0  0  0  0  0  0  0  0  0  0
   37.1050   26.3360   41.8880 C   0  0  0  0  0  0  0  0  0  0  0  0
   36.9740   25.5300   40.7930 C   0  0  0  0  0  0  0  0  0  0  0  0
   36.5140   26.0840   39.6210 C   0  0  0  0  0  0  0  0  0  0  0  0
   36.1820   27.4420   39.5260 C   0  0  0  0  0  0  0  0  0  0  0  0
   36.8860   28.3350   42.6880 H   0  0  0  0  0  0  0  0  0  0  0  0
   37.4660   25.9240   42.8230 H   0  0  0  0  0  0  0  0  0  0  0  0
   37.2060   24.4840   40.7820 H   0  0  0  0  0  0  0  0  0  0  0  0
   36.3850   25.5040   38.7150 H   0  0  0  0  0  0  0  0  0  0  0  0
   35.6990   28.0090   38.2830 C   0  0  0  0  0  0  0  0  0  0  0  0
   34.3840   28.1380   37.9600 C   0  0  0  0  0  0  0  0  0  0  0  0
   33.9360   28.6910   36.7490 C   0  0  0  0  0  0  0  0  0  0  0  0
   34.8540   29.1140   35.8630 N   0  0  0  0  0  0  0  0  0  0  0  0
   36.1690   28.9840   36.1860 C   0  0  0  0  0  0  0  0  0  0  0  0
   36.5750   28.4500   37.3570 N   0  0  0  0  0  0  0  0  0  0  0  0
   33.6410   27.8010   38.6680 H   0  0  0  0  0  0  0  0  0  0  0  0
   32.8590   28.7430   36.6030 H   0  0  0  0  0  0  0  0  0  0  0  0
   36.9450   29.3090   35.5050 H   0  0  0  0  0  0  0  0  0  0  0  0
   35.8950   29.9450   40.4900 S   0  0  0  0  0  0  0  0  0  0  0  0
   37.2460   32.3060   39.9630 C   0  0  0  0  0  0  0  0  0  0  0  0
   37.3150   30.9090   40.0150 C   0  0  0  0  0  0  0  0  0  0  0  0
   38.5200   30.2820   39.6880 C   0  0  0  0  0  0  0  0  0  0  0  0
   39.5690   31.0720   39.3340 N   0  0  0  0  0  0  0  0  0  0  0  0
   39.4520   32.4140   39.2980 C   0  0  0  0  0  0  0  0  0  0  0  0
   38.3390   33.0560   39.5970 N   0  0  0  0  0  0  0  0  0  0  0  0
   36.3040   32.7690   40.2210 H   0  0  0  0  0  0  0  0  0  0  0  0
   38.6000   29.2110   39.7200 H   0  0  0  0  0  0  0  0  0  0  0  0
   40.6330   33.1070   38.9090 N   0  0  0  0  0  0  0  0  0  0  0  0
   41.2640   34.0660   39.7950 C   0  0  0  0  0  3  0  0  0  0  0  0
   41.2290   33.7500   40.8490 H   0  0  0  0  0  0  0  0  0  0  0  0
   42.6540   34.3410   39.2740 C   0  0  0  0  0  3  0  0  0  0  0  0
   43.2230   34.8210   40.0990 H   0  0  0  0  0  0  0  0  0  0  0  0
   43.3570   33.2030   38.9070 O   0  0  0  0  0  0  0  0  0  0  0  0
   42.6950   32.4180   37.9800 C   0  0  0  0  0  2  0  0  0  0  0  0
   41.3100   32.9370   37.6370 C   0  0  0  0  0  2  0  0  0  0  0  0
  1  2  1  0  0  0  0
  2  3  2  0  0  0  0
  2  7  1  0  0  0  0
  3  8  1  0  0  0  0
  4  3  1  0  0  0  0
  5  4  2  0  0  0  0
  6  5  1  0  0  0  0
  6  1  2  0  0  0  0
  9  4  1  0  0  0  0
 10  5  1  0  0  0  0
 11  6  1  0  0  0  0
 12 11  1  0  0  0  0
 12 17  1  0  0  0  0
 13 12  2  0  0  0  0
 14 15  2  0  0  0  0
 14 13  1  0  0  0  0
 15 16  1  0  0  0  0
 16 11  2  0  0  0  0
 18 13  1  0  0  0  0
 19 15  1  0  0  0  0
 20  1  1  0  0  0  0
 21 22  1  0  0  0  0
 21 27  1  0  0  0  0
 22 20  1  0  0  0  0
 23 28  1  0  0  0  0
 23 22  2  0  0  0  0
 24 23  1  0  0  0  0
 25 24  2  0  0  0  0
 25 26  1  0  0  0  0
 26 21  2  0  0  0  0
 29 25  1  0  0  0  0
 29 30  1  0  0  0  0
 30 31  1  0  0  0  0
 32 30  1  0  0  0  0
 32 33  1  0  0  0  0
 34 32  1  0  0  0  0
 35 34  1  0  0  0  0
 36 35  1  0  0  0  0
 36 29  1  0  0  0  0
M  END
>  <minimizedAffinity>
-5.44481993

$$$$

 OpenBabel03242517463D

 36 39  0  0  0  0  0  0  0  0999 V2000
   36.1680   28.3730   40.3070 C   0  0  0  0  0  0  0  0  0  0  0  0
   35.2210   29.1770   39.6920 C   0  0  0  0  0  0  0  0  0  0  0  0
   34.6420   28.7700   38.5040 C   0  0  0  0  0  0  0  0  0  0  0  0
   34.9820   27.5850   37.9150 C   0  0  0  0  0  0  0  0  0  0  0  0
   35.9220   26.7910   38.5300 C   0  0  0  0  0  0  0  0  0  0  0  0
   36.5320   27.1670   39.7350 C   0  0  0  0  0  0  0  0  0  0  0  0
   34.9670   30.1080   40.1740 H   0  0  0  0  0  0  0  0  0  0  0  0
   33.9040   29.4130   38.0400 H   0  0  0  0  0  0  0  0  0  0  0  0
   34.5630   27.2250   36.9970 H   0  0  0  0  0  0  0  0  0  0  0  0
   36.2380   25.8400   38.1200 H   0  0  0  0  0  0  0  0  0  0  0  0
   37.5210   26.3180   40.3690 C   0  0  0  0  0  0  0  0  0  0  0  0
   37.2250   25.3210   41.2440 C   0  0  0  0  0  0  0  0  0  0  0  0
   38.1980   24.5080   41.8480 C   0  0  0  0  0  0  0  0  0  0  0  0
   39.4900   24.7280   41.5460 N   0  0  0  0  0  0  0  0  0  0  0  0
   39.7850   25.7260   40.6710 C   0  0  0  0  0  0  0  0  0  0  0  0
   38.8320   26.4940   40.1030 N   0  0  0  0  0  0  0  0  0  0  0  0
   36.1890   25.1380   41.4910 H   0  0  0  0  0  0  0  0  0  0  0  0
   37.8410   23.7400   42.5320 H   0  0  0  0  0  0  0  0  0  0  0  0
   40.8100   25.9420   40.3970 H   0  0  0  0  0  0  0  0  0  0  0  0
   36.9620   28.8110   41.8290 S   0  0  0  0  0  0  0  0  0  0  0  0
   39.1680   30.3230   42.5520 C   0  0  0  0  0  0  0  0  0  0  0  0
   38.2440   30.0130   41.5470 C   0  0  0  0  0  0  0  0  0  0  0  0
   38.3470   30.6650   40.3150 C   0  0  0  0  0  0  0  0  0  0  0  0
   39.3480   31.5720   40.1590 N   0  0  0  0  0  0  0  0  0  0  0  0
   40.2120   31.8370   41.1590 C   0  0  0  0  0  0  0  0  0  0  0  0
   40.1600   31.2510   42.3400 N   0  0  0  0  0  0  0  0  0  0  0  0
   39.0700   29.8080   43.4970 H   0  0  0  0  0  0  0  0  0  0  0  0
   37.6510   30.4440   39.5260 H   0  0  0  0  0  0  0  0  0  0  0  0
   41.2050   32.8080   40.8490 N   0  0  0  0  0  0  0  0  0  0  0  0
   42.6170   32.4780   40.8980 C   0  0  0  0  0  3  0  0  0  0  0  0
   42.8230   31.4610   40.5310 H   0  0  0  0  0  0  0  0  0  0  0  0
   43.3760   33.5660   40.1780 C   0  0  0  0  0  3  0  0  0  0  0  0
   44.3890   33.1650   39.9560 H   0  0  0  0  0  0  0  0  0  0  0  0
   42.8170   33.9400   38.9650 O   0  0  0  0  0  0  0  0  0  0  0  0
   41.4940   34.3300   39.0630 C   0  0  0  0  0  2  0  0  0  0  0  0
   40.9280   34.1800   40.4640 C   0  0  0  0  0  2  0  0  0  0  0  0
  1 20  1  0  0  0  0
  2  7  1  0  0  0  0
  2  1  2  0  0  0  0
  3  2  1  0  0  0  0
  4  3  2  0  0  0  0
  4  5  1  0  0  0  0
  5  6  2  0  0  0  0
  6  1  1  0  0  0  0
  6 11  1  0  0  0  0
  8  3  1  0  0  0  0
  9  4  1  0  0  0  0
 10  5  1  0  0  0  0
 11 12  1  0  0  0  0
 12 17  1  0  0  0  0
 12 13  2  0  0  0  0
 13 18  1  0  0  0  0
 14 13  1  0  0  0  0
 15 14  2  0  0  0  0
 16 11  2  0  0  0  0
 16 15  1  0  0  0  0
 19 15  1  0  0  0  0
 21 27  1  0  0  0  0
 22 20  1  0  0  0  0
 22 21  2  0  0  0  0
 23 22  1  0  0  0  0
 24 23  2  0  0  0  0
 24 25  1  0  0  0  0
 25 26  2  0  0  0  0
 26 21  1  0  0  0  0
 28 23  1  0  0  0  0
 29 30  1  0  0  0  0
 29 25  1  0  0  0  0
 31 30  1  0  0  0  0
 32 30  1  0  0  0  0
 33 32  1  0  0  0  0
 34 35  1  0  0  0  0
 34 32  1  0  0  0  0
 35 36  1  0  0  0  0
 36 29  1  0  0  0  0
M  END
>  <minimizedAffinity>
-5.41764307

$$$$

 OpenBabel03242517463D

 36 39  0  0  0  0  0  0  0  0999 V2000
   37.2940   28.2100   40.9310 C   0  0  0  0  0  0  0  0  0  0  0  0
   37.0010   26.9520   41.4360 C   0  0  0  0  0  0  0  0  0  0  0  0
   36.9510   26.7570   42.8040 C   0  0  0  0  0  0  0  0  0  0  0  0
   37.1860   27.7790   43.6790 C   0  0  0  0  0  0  0  0  0  0  0  0
   37.4760   29.0250   43.1720 C   0  0  0  0  0  0  0  0  0  0  0  0
   37.5360   29.2640   41.7930 C   0  0  0  0  0  0  0  0  0  0  0  0
   36.8190   26.1590   40.7280 H   0  0  0  0  0  0  0  0  0  0  0  0
   36.7200   25.7660   43.1780 H   0  0  0  0  0  0  0  0  0  0  0  0
   37.1590   27.6790   44.7460 H   0  0  0  0  0  0  0  0  0  0  0  0
   37.6730   29.8790   43.8080 H   0  0  0  0  0  0  0  0  0  0  0  0
   37.8440   30.5830   41.2760 C   0  0  0  0  0  0  0  0  0  0  0  0
   36.9620   31.3650   40.5990 C   0  0  0  0  0  0  0  0  0  0  0  0
   37.2790   32.6410   40.1060 C   0  0  0  0  0  0  0  0  0  0  0  0
   38.5200   33.1150   40.3140 N   0  0  0  0  0  0  0  0  0  0  0  0
   39.4020   32.3320   40.9920 C   0  0  0  0  0  0  0  0  0  0  0  0
   39.0740   31.1090   41.4560 N   0  0  0  0  0  0  0  0  0  0  0  0
   35.9620   30.9900   40.4270 H   0  0  0  0  0  0  0  0  0  0  0  0
   36.4890   33.1740   39.5790 H   0  0  0  0  0  0  0  0  0  0  0  0
   40.4120   32.6700   41.1840 H   0  0  0  0  0  0  0  0  0  0  0  0
   37.3790   28.5550   39.1950 S   0  0  0  0  0  0  0  0  0  0  0  0
   40.0470   27.8470   38.9460 C   0  0  0  0  0  0  0  0  0  0  0  0
   39.0660   28.8120   38.6870 C   0  0  0  0  0  0  0  0  0  0  0  0
   39.4360   29.9840   38.0210 C   0  0  0  0  0  0  0  0  0  0  0  0
   40.7380   30.1230   37.6570 N   0  0  0  0  0  0  0  0  0  0  0  0
   41.6450   29.1640   37.9300 C   0  0  0  0  0  0  0  0  0  0  0  0
   41.3510   28.0400   38.5560 N   0  0  0  0  0  0  0  0  0  0  0  0
   39.7390   26.9490   39.4620 H   0  0  0  0  0  0  0  0  0  0  0  0
   38.7020   30.7410   37.8090 H   0  0  0  0  0  0  0  0  0  0  0  0
   42.9680   29.4500   37.4890 N   0  0  0  0  0  0  0  0  0  0  0  0
   43.6440   28.5860   36.5400 C   0  0  0  0  0  3  0  0  0  0  0  0
   42.9630   28.1990   35.7660 H   0  0  0  0  0  0  0  0  0  0  0  0
   44.8410   29.3300   36.0000 C   0  0  0  0  0  3  0  0  0  0  0  0
   45.1640   28.8030   35.0770 H   0  0  0  0  0  0  0  0  0  0  0  0
   44.5760   30.6440   35.6410 O   0  0  0  0  0  0  0  0  0  0  0  0
   44.0250   31.3960   36.6620 C   0  0  0  0  0  2  0  0  0  0  0  0
   43.7550   30.5900   37.9200 C   0  0  0  0  0  2  0  0  0  0  0  0
  1  2  2  0  0  0  0
  1  6  1  0  0  0  0
  2  3  1  0  0  0  0
  3  8  1  0  0  0  0
  3  4  2  0  0  0  0
  4  9  1  0  0  0  0
  5  4  1  0  0  0  0
  5 10  1  0  0  0  0
  6  5  2  0  0  0  0
  7  2  1  0  0  0  0
 11 16  1  0  0  0  0
 11  6  1  0  0  0  0
 12 11  2  0  0  0  0
 13 14  2  0  0  0  0
 13 12  1  0  0  0  0
 14 15  1  0  0  0  0
 15 19  1  0  0  0  0
 15 16  2  0  0  0  0
 17 12  1  0  0  0  0
 18 13  1  0  0  0  0
 20  1  1  0  0  0  0
 21 27  1  0  0  0  0
 22 21  1  0  0  0  0
 22 20  1  0  0  0  0
 23 22  2  0  0  0  0
 24 25  2  0  0  0  0
 24 23  1  0  0  0  0
 25 26  1  0  0  0  0
 26 21  2  0  0  0  0
 28 23  1  0  0  0  0
 29 36  1  0  0  0  0
 29 25  1  0  0  0  0
 30 29  1  0  0  0  0
 31 30  1  0  0  0  0
 32 30  1  0  0  0  0
 33 32  1  0  0  0  0
 34 32  1  0  0  0  0
 34 35  1  0  0  0  0
 35 36  1  0  0  0  0
M  END
>  <minimizedAffinity>
-5.39398432

$$$$

 OpenBabel03242517463D

 36 39  0  0  0  0  0  0  0  0999 V2000
   38.1460   26.4260   42.1320 C   0  0  0  0  0  0  0  0  0  0  0  0
   38.9940   26.8080   43.1600 C   0  0  0  0  0  0  0  0  0  0  0  0
   39.8960   25.8980   43.6790 C   0  0  0  0  0  0  0  0  0  0  0  0
   39.9750   24.6210   43.2000 C   0  0  0  0  0  0  0  0  0  0  0  0
   39.1320   24.2480   42.1790 C   0  0  0  0  0  0  0  0  0  0  0  0
   38.2030   25.1400   41.6270 C   0  0  0  0  0  0  0  0  0  0  0  0
   38.9150   27.8200   43.5230 H   0  0  0  0  0  0  0  0  0  0  0  0
   40.5500   26.2160   44.4820 H   0  0  0  0  0  0  0  0  0  0  0  0
   40.6570   23.8790   43.5670 H   0  0  0  0  0  0  0  0  0  0  0  0
   39.1400   23.2530   41.7520 H   0  0  0  0  0  0  0  0  0  0  0  0
   37.3210   24.7300   40.5520 C   0  0  0  0  0  0  0  0  0  0  0  0
   37.4730   25.1020   39.2530 C   0  0  0  0  0  0  0  0  0  0  0  0
   36.6080   24.6940   38.2250 C   0  0  0  0  0  0  0  0  0  0  0  0
   35.5750   23.8940   38.5410 N   0  0  0  0  0  0  0  0  0  0  0  0
   35.4230   23.5220   39.8410 C   0  0  0  0  0  0  0  0  0  0  0  0
   36.2680   23.9270   40.8110 N   0  0  0  0  0  0  0  0  0  0  0  0
   38.3010   25.7450   38.9910 H   0  0  0  0  0  0  0  0  0  0  0  0
   36.8310   25.0560   37.2230 H   0  0  0  0  0  0  0  0  0  0  0  0
   34.6070   22.8790   40.1440 H   0  0  0  0  0  0  0  0  0  0  0  0
   36.9580   27.5230   41.4060 S   0  0  0  0  0  0  0  0  0  0  0  0
   37.2010   30.2030   40.7460 C   0  0  0  0  0  0  0  0  0  0  0  0
   37.7670   28.9250   40.6650 C   0  0  0  0  0  0  0  0  0  0  0  0
   38.9820   28.7700   39.9910 C   0  0  0  0  0  0  0  0  0  0  0  0
   39.5510   29.8770   39.4470 N   0  0  0  0  0  0  0  0  0  0  0  0
   38.9650   31.0870   39.5510 C   0  0  0  0  0  0  0  0  0  0  0  0
   37.8210   31.2890   40.1750 N   0  0  0  0  0  0  0  0  0  0  0  0
   36.2620   30.3000   41.2710 H   0  0  0  0  0  0  0  0  0  0  0  0
   39.4380   27.7990   39.9150 H   0  0  0  0  0  0  0  0  0  0  0  0
   39.6780   32.1520   38.9320 N   0  0  0  0  0  0  0  0  0  0  0  0
   40.1450   33.2890   39.7030 C   0  0  0  0  0  3  0  0  0  0  0  0
   40.5050   32.9990   40.7020 H   0  0  0  0  0  0  0  0  0  0  0  0
   41.1560   34.0360   38.8690 C   0  0  0  0  0  3  0  0  0  0  0  0
   41.7190   34.7030   39.5570 H   0  0  0  0  0  0  0  0  0  0  0  0
   42.0880   33.2220   38.2440 O   0  0  0  0  0  0  0  0  0  0  0  0
   41.5220   32.2370   37.4560 C   0  0  0  0  0  2  0  0  0  0  0  0
   40.0060   32.2170   37.5190 C   0  0  0  0  0  2  0  0  0  0  0  0
  1  2  1  0  0  0  0
  2  7  1  0  0  0  0
  2  3  2  0  0  0  0
  3  8  1  0  0  0  0
  4  9  1  0  0  0  0
  4  3  1  0  0  0  0
  5  4  2  0  0  0  0
  6  1  2  0  0  0  0
  6  5  1  0  0  0  0
 10  5  1  0  0  0  0
 11 16  1  0  0  0  0
 11  6  1  0  0  0  0
 12 11  2  0  0  0  0
 13 14  2  0  0  0  0
 13 12  1  0  0  0  0
 14 15  1  0  0  0  0
 15 19  1  0  0  0  0
 15 16  2  0  0  0  0
 17 12  1  0  0  0  0
 18 13  1  0  0  0  0
 20  1  1  0  0  0  0
 21 27  1  0  0  0  0
 22 21  1  0  0  0  0
 22 20  1  0  0  0  0
 23 22  2  0  0  0  0
 24 25  2  0  0  0  0
 24 23  1  0  0  0  0
 25 26  1  0  0  0  0
 26 21  2  0  0  0  0
 28 23  1  0  0  0  0
 29 25  1  0  0  0  0
 29 30  1  0  0  0  0
 30 31  1  0  0  0  0
 32 33  1  0  0  0  0
 32 30  1  0  0  0  0
 34 32  1  0  0  0  0
 35 36  1  0  0  0  0
 35 34  1  0  0  0  0
 36 29  1  0  0  0  0
M  END
>  <minimizedAffinity>
-5.37119913

$$$$
