
 OpenBabel03252508243D

 40 44  0  0  1  0  0  0  0  0999 V2000
   46.1880   32.1610   46.4780 C   0  0  1  0  0  0  0  0  0  0  0  0
   46.0540   32.2430   47.9400 C   0  0  0  0  0  0  0  0  0  0  0  0
   45.0830   31.3980   47.0220 C   0  0  2  0  0  0  0  0  0  0  0  0
   47.2500   31.7690   46.2970 H   0  0  0  0  0  0  0  0  0  0  0  0
   46.5530   31.5640   48.6430 H   0  0  0  0  0  0  0  0  0  0  0  0
   45.6340   33.1340   48.4260 H   0  0  0  0  0  0  0  0  0  0  0  0
   44.0760   31.8420   47.2880 H   0  0  0  0  0  0  0  0  0  0  0  0
   45.0460   29.9380   47.1550 C   0  0  0  0  0  0  0  0  0  0  0  0
   45.0580   29.2120   48.3050 C   0  0  0  0  0  0  0  0  0  0  0  0
   45.1530   27.8290   48.3920 C   0  0  0  0  0  0  0  0  0  0  0  0
   45.2450   27.1350   47.1750 C   0  0  0  0  0  0  0  0  0  0  0  0
   45.2320   27.8560   45.9830 C   0  0  0  0  0  0  0  0  0  0  0  0
   45.2640   27.1240   44.8120 C   0  0  0  0  0  0  0  0  0  0  0  0
   45.1850   27.7930   43.5960 C   0  0  0  0  0  0  0  0  0  0  0  0
   45.0720   29.1680   43.5550 C   0  0  0  0  0  0  0  0  0  0  0  0
   45.0460   29.8470   44.7510 C   0  0  0  0  0  0  0  0  0  0  0  0
   45.1320   29.2240   45.9870 C   0  0  0  0  0  0  0  0  0  0  0  0
   44.9840   29.7970   49.2230 H   0  0  0  0  0  0  0  0  0  0  0  0
   45.1550   27.3200   49.3370 H   0  0  0  0  0  0  0  0  0  0  0  0
   45.3240   26.0560   47.2130 H   0  0  0  0  0  0  0  0  0  0  0  0
   45.3520   26.0420   44.8680 H   0  0  0  0  0  0  0  0  0  0  0  0
   45.2220   27.1130   42.7300 H   0  0  0  0  0  0  0  0  0  0  0  0
   45.0200   29.4960   42.5400 H   0  0  0  0  0  0  0  0  0  0  0  0
   44.8720   30.8450   44.4690 H   0  0  0  0  0  0  0  0  0  0  0  0
   44.7130   35.3160   45.2460 C   0  0  0  0  0  0  0  0  0  0  0  0
   45.3630   35.4600   43.9660 C   0  0  0  0  0  0  0  0  0  0  0  0
   46.2940   34.4760   43.5770 C   0  0  0  0  0  0  0  0  0  0  0  0
   46.5400   33.4550   44.3970 N   0  0  0  0  0  0  0  0  0  0  0  0
   45.9000   33.3460   45.6130 C   0  0  0  0  0  0  0  0  0  0  0  0
   45.0160   34.2490   46.0210 N   0  0  0  0  0  0  0  0  0  0  0  0
   43.9960   36.0780   45.5410 H   0  0  0  0  0  0  0  0  0  0  0  0
   45.1190   36.2960   43.3680 H   0  0  0  0  0  0  0  0  0  0  0  0
   46.9490   34.5930   42.3210 N   0  0  0  0  0  0  0  0  0  0  0  0
   48.3610   34.9080   42.2300 C   0  0  0  0  0  0  0  0  0  0  0  0
   48.9890   34.0470   42.5350 H   0  0  0  0  0  0  0  0  0  0  0  0
   48.7420   35.4830   40.9070 C   0  0  0  0  0  0  0  0  0  0  0  0
   49.8510   35.4990   40.8670 H   0  0  0  0  0  0  0  0  0  0  0  0
   48.2180   34.8430   39.8150 O   0  0  0  0  0  0  0  0  0  0  0  0
   47.2110   33.9450   40.0580 C   0  0  0  0  0  0  0  0  0  0  0  0
   46.2020   34.3960   41.0950 C   0  0  0  0  0  0  0  0  0  0  0  0
  1  4  1  6  0  0  0
  1  3  1  0  0  0  0
  1  2  1  0  0  0  0
  2  6  1  0  0  0  0
  2  5  1  0  0  0  0
  3  8  1  0  0  0  0
  3  7  1  6  0  0  0
  3  2  1  0  0  0  0
  8  9  1  0  0  0  0
  9 10  2  0  0  0  0
  9 18  1  0  0  0  0
 10 19  1  0  0  0  0
 11 20  1  0  0  0  0
 11 10  1  0  0  0  0
 12 17  1  0  0  0  0
 12 11  2  0  0  0  0
 13 21  1  0  0  0  0
 13 12  1  0  0  0  0
 14 13  2  0  0  0  0
 15 14  1  0  0  0  0
 15 16  2  0  0  0  0
 16 17  1  0  0  0  0
 17  8  2  0  0  0  0
 22 14  1  0  0  0  0
 23 15  1  0  0  0  0
 24 16  1  0  0  0  0
 25 31  1  0  0  0  0
 25 30  1  0  0  0  0
 26 25  2  0  0  0  0
 27 26  1  0  0  0  0
 27 28  2  0  0  0  0
 28 29  1  0  0  0  0
 29 30  2  0  0  0  0
 29  1  1  0  0  0  0
 32 26  1  0  0  0  0
 33 27  1  0  0  0  0
 34 33  1  0  0  0  0
 34 35  1  0  0  0  0
 36 34  1  0  0  0  0
 37 36  1  0  0  0  0
 38 39  1  0  0  0  0
 38 36  1  0  0  0  0
 39 40  1  0  0  0  0
 40 33  1  0  0  0  0
M  END
>  <minimizedAffinity>
-5.28292799

>  <minimizedRMSD>
0.925867498

$$$$
