
 OpenBabel03252507513D

 44 46  0  0  1  0  0  0  0  0999 V2000
   40.7050   27.7620   41.2640 C   0  0  0  0  0  0  0  0  0  0  0  0
   41.8060   27.5700   41.3250 H   0  0  0  0  0  0  0  0  0  0  0  0
   40.3580   27.2270   40.3380 H   0  0  0  0  0  0  0  0  0  0  0  0
   40.4620   29.2020   41.0300 C   0  0  0  0  0  0  0  0  0  0  0  0
   40.4200   30.0940   42.1400 C   0  0  0  0  0  0  0  0  0  0  0  0
   40.1030   31.7170   41.3600 S   0  0  0  0  0  0  0  0  0  0  0  0
   40.0790   30.9010   39.6250 C   0  0  0  0  0  0  0  0  0  0  0  0
   40.2700   29.8160   39.8980 N   0  0  0  0  0  0  0  0  0  0  0  0
   40.5470   29.8600   43.1850 H   0  0  0  0  0  0  0  0  0  0  0  0
   39.8670   31.6130   38.4470 O   0  0  0  0  0  0  0  0  0  0  0  0
   37.3710   32.4210   38.7450 O   0  0  0  0  0  0  0  0  0  0  0  0
   38.2810   31.5980   37.8200 P   0  0  1  0  0  0  0  0  0  0  0  0
   38.3080   32.3620   36.3100 O   0  0  0  0  0  0  0  0  0  0  0  0
   38.9580   33.1070   36.3950 H   0  0  0  0  0  0  0  0  0  0  0  0
   37.7320   30.0250   37.6500 O   0  0  0  0  0  0  0  0  0  0  0  0
   35.8540   29.6710   39.0050 H   0  0  0  0  0  0  0  0  0  0  0  0
   35.5830   29.3600   38.0390 N   0  0  0  0  0  0  0  0  0  0  0  0
   36.5080   29.8870   37.0510 C   0  0  2  0  0  3  0  0  0  0  0  0
   36.5350   29.0180   35.8190 C   0  0  0  0  0  3  0  0  0  0  0  0
   37.3960   28.3220   35.8210 H   0  0  0  0  0  0  0  0  0  0  0  0
   35.3670   28.2580   35.8130 O   0  0  0  0  0  0  0  0  0  0  0  0
   35.5600   27.2480   36.7540 C   0  0  0  0  0  2  0  0  0  0  0  0
   35.5870   27.9100   38.0980 C   0  0  0  0  0  2  0  0  0  0  0  0
   40.0030   27.2190   42.4650 C   0  0  0  0  0  0  0  0  0  0  0  0
   40.7140   27.0690   43.2830 H   0  0  0  0  0  0  0  0  0  0  0  0
   39.2990   28.0220   42.8230 H   0  0  0  0  0  0  0  0  0  0  0  0
   39.1750   26.0400   42.1900 C   0  0  0  0  0  0  0  0  0  0  0  0
   37.8040   26.1800   42.3800 C   0  0  0  0  0  0  0  0  0  0  0  0
   36.9480   25.1300   42.1470 C   0  0  0  0  0  0  0  0  0  0  0  0
   37.5250   23.9380   41.7200 N   0  0  0  0  0  0  0  0  0  0  0  0
   38.8610   23.8480   41.5490 C   0  0  0  0  0  0  0  0  0  0  0  0
   39.6420   24.8830   41.7840 N   0  0  0  0  0  0  0  0  0  0  0  0
   35.9000   25.2260   42.2900 H   0  0  0  0  0  0  0  0  0  0  0  0
   39.3340   22.9380   41.2180 H   0  0  0  0  0  0  0  0  0  0  0  0
   37.1280   27.7510   42.9360 S   0  0  0  0  0  0  0  0  0  0  0  0
   36.2840   28.5800   41.5710 C   0  0  0  0  0  0  0  0  0  0  0  0
   36.5170   28.0100   40.6530 H   0  0  0  0  0  0  0  0  0  0  0  0
   35.1920   28.5080   41.7620 H   0  0  0  0  0  0  0  0  0  0  0  0
   36.7760   30.0090   41.4790 C   0  0  0  0  0  0  0  0  0  0  0  0
   37.0560   30.3630   42.4860 H   0  0  0  0  0  0  0  0  0  0  0  0
   37.5890   30.0690   40.7370 H   0  0  0  0  0  0  0  0  0  0  0  0
   35.6880   30.8170   41.0060 N   0  0  0  0  0  0  0  0  0  0  0  0
   35.2590   30.4230   40.1390 H   0  0  0  0  0  0  0  0  0  0  0  0
   35.9040   31.8270   40.9290 H   0  0  0  0  0  0  0  0  0  0  0  0
  1  2  1  0  0  0  0
  1 24  1  0  0  0  0
  3  1  1  0  0  0  0
  4  1  1  0  0  0  0
  4  5  2  0  0  0  0
  5  9  1  0  0  0  0
  6  5  1  0  0  0  0
  7  8  2  0  0  0  0
  7  6  1  0  0  0  0
  8  4  1  0  0  0  0
 10  7  1  0  0  0  0
 12 10  1  0  0  0  0
 12 11  2  1  0  0  0
 13 14  1  0  0  0  0
 13 12  1  0  0  0  0
 15 12  1  0  0  0  0
 17 23  1  0  0  0  0
 17 16  1  0  0  0  0
 18 15  1  1  0  0  0
 18 17  1  0  0  0  0
 19 20  1  0  0  0  0
 19 18  1  0  0  0  0
 21 19  1  0  0  0  0
 21 22  1  0  0  0  0
 22 23  1  0  0  0  0
 24 26  1  0  0  0  0
 24 25  1  0  0  0  0
 27 28  1  0  0  0  0
 27 24  1  0  0  0  0
 28 35  1  0  0  0  0
 29 33  1  0  0  0  0
 29 28  2  0  0  0  0
 30 29  1  0  0  0  0
 31 30  2  0  0  0  0
 31 32  1  0  0  0  0
 32 27  2  0  0  0  0
 34 31  1  0  0  0  0
 36 38  1  0  0  0  0
 36 35  1  0  0  0  0
 37 36  1  0  0  0  0
 39 36  1  0  0  0  0
 39 40  1  0  0  0  0
 41 39  1  0  0  0  0
 42 39  1  0  0  0  0
 43 42  1  0  0  0  0
 44 42  1  0  0  0  0
M  END
>  <minimizedAffinity>
-4.90552711

$$$$

 OpenBabel03252507513D

 44 46  0  0  1  0  0  0  0  0999 V2000
   36.2440   27.3710   39.0990 C   0  0  0  0  0  0  0  0  0  0  0  0
   35.8240   26.4780   38.5700 H   0  0  0  0  0  0  0  0  0  0  0  0
   35.4330   27.7120   39.8000 H   0  0  0  0  0  0  0  0  0  0  0  0
   36.4500   28.4720   38.1330 C   0  0  0  0  0  0  0  0  0  0  0  0
   36.2890   28.2200   36.7400 C   0  0  0  0  0  0  0  0  0  0  0  0
   36.6400   29.8440   35.9780 S   0  0  0  0  0  0  0  0  0  0  0  0
   36.9540   30.6100   37.7080 C   0  0  0  0  0  0  0  0  0  0  0  0
   36.7760   29.7090   38.3740 N   0  0  0  0  0  0  0  0  0  0  0  0
   36.0230   27.2920   36.2600 H   0  0  0  0  0  0  0  0  0  0  0  0
   37.3000   31.9460   37.9030 O   0  0  0  0  0  0  0  0  0  0  0  0
   37.2930   33.9680   39.6000 O   0  0  0  0  0  0  0  0  0  0  0  0
   37.5180   32.4500   39.5170 P   0  0  1  0  0  0  0  0  0  0  0  0
   36.3320   31.7010   40.4630 O   0  0  0  0  0  0  0  0  0  0  0  0
   35.5130   31.6770   39.9030 H   0  0  0  0  0  0  0  0  0  0  0  0
   39.0390   32.0180   40.0670 O   0  0  0  0  0  0  0  0  0  0  0  0
   39.0920   33.0360   37.9580 H   0  0  0  0  0  0  0  0  0  0  0  0
   40.0560   33.1440   38.3620 N   0  0  0  0  0  0  0  0  0  0  0  0
   40.0420   32.9110   39.7950 C   0  0  2  0  0  3  0  0  0  0  0  0
   41.3960   32.4610   40.2820 C   0  0  0  0  0  3  0  0  0  0  0  0
   41.4510   31.3620   40.4000 H   0  0  0  0  0  0  0  0  0  0  0  0
   42.3360   32.8370   39.3230 O   0  0  0  0  0  0  0  0  0  0  0  0
   42.2040   31.9250   38.2770 C   0  0  0  0  0  2  0  0  0  0  0  0
   40.8730   32.1850   37.6410 C   0  0  0  0  0  2  0  0  0  0  0  0
   37.4690   27.0060   39.8690 C   0  0  0  0  0  0  0  0  0  0  0  0
   37.5810   25.9180   39.9080 H   0  0  0  0  0  0  0  0  0  0  0  0
   38.3510   27.3770   39.2740 H   0  0  0  0  0  0  0  0  0  0  0  0
   37.5610   27.6470   41.1850 C   0  0  0  0  0  0  0  0  0  0  0  0
   37.3920   26.8260   42.2950 C   0  0  0  0  0  0  0  0  0  0  0  0
   37.4610   27.3370   43.5680 C   0  0  0  0  0  0  0  0  0  0  0  0
   37.7060   28.7020   43.6800 N   0  0  0  0  0  0  0  0  0  0  0  0
   37.8640   29.4620   42.5750 C   0  0  0  0  0  0  0  0  0  0  0  0
   37.7900   28.9250   41.3730 N   0  0  0  0  0  0  0  0  0  0  0  0
   37.3330   26.7190   44.4220 H   0  0  0  0  0  0  0  0  0  0  0  0
   38.0550   30.5210   42.6320 H   0  0  0  0  0  0  0  0  0  0  0  0
   37.0780   25.0690   42.0750 S   0  0  0  0  0  0  0  0  0  0  0  0
   38.6390   24.1780   41.8990 C   0  0  0  0  0  0  0  0  0  0  0  0
   39.4480   24.9290   41.9600 H   0  0  0  0  0  0  0  0  0  0  0  0
   38.7300   23.4910   42.7670 H   0  0  0  0  0  0  0  0  0  0  0  0
   38.6510   23.4550   40.5680 C   0  0  0  0  0  0  0  0  0  0  0  0
   38.9300   22.4000   40.7310 H   0  0  0  0  0  0  0  0  0  0  0  0
   37.6780   23.5920   40.0690 H   0  0  0  0  0  0  0  0  0  0  0  0
   39.6570   24.0650   39.7470 N   0  0  0  0  0  0  0  0  0  0  0  0
   39.5470   25.1020   39.7030 H   0  0  0  0  0  0  0  0  0  0  0  0
   39.7740   23.6290   38.8140 H   0  0  0  0  0  0  0  0  0  0  0  0
  1  3  1  0  0  0  0
  1 24  1  0  0  0  0
  2  1  1  0  0  0  0
  4  8  1  0  0  0  0
  4  1  1  0  0  0  0
  5  4  2  0  0  0  0
  6  5  1  0  0  0  0
  6  7  1  0  0  0  0
  7 10  1  0  0  0  0
  7  8  2  0  0  0  0
  9  5  1  0  0  0  0
 10 12  1  0  0  0  0
 12 11  2  1  0  0  0
 12 15  1  0  0  0  0
 12 13  1  0  0  0  0
 14 13  1  0  0  0  0
 16 17  1  0  0  0  0
 17 18  1  0  0  0  0
 18 15  1  6  0  0  0
 18 19  1  0  0  0  0
 19 20  1  0  0  0  0
 21 19  1  0  0  0  0
 22 21  1  0  0  0  0
 23 22  1  0  0  0  0
 23 17  1  0  0  0  0
 24 25  1  0  0  0  0
 24 27  1  0  0  0  0
 26 24  1  0  0  0  0
 27 32  2  0  0  0  0
 27 28  1  0  0  0  0
 28 29  2  0  0  0  0
 29 30  1  0  0  0  0
 29 33  1  0  0  0  0
 31 34  1  0  0  0  0
 31 30  2  0  0  0  0
 32 31  1  0  0  0  0
 35 28  1  0  0  0  0
 36 37  1  0  0  0  0
 36 35  1  0  0  0  0
 36 38  1  0  0  0  0
 39 40  1  0  0  0  0
 39 36  1  0  0  0  0
 41 39  1  0  0  0  0
 42 39  1  0  0  0  0
 43 42  1  0  0  0  0
 44 42  1  0  0  0  0
M  END
>  <minimizedAffinity>
-4.8957262

$$$$

 OpenBabel03252507513D

 44 46  0  0  1  0  0  0  0  0999 V2000
   37.2680   29.2820   42.3060 C   0  0  0  0  0  0  0  0  0  0  0  0
   36.6710   29.7290   43.1410 H   0  0  0  0  0  0  0  0  0  0  0  0
   38.2780   29.0590   42.7460 H   0  0  0  0  0  0  0  0  0  0  0  0
   37.4870   30.2950   41.2510 C   0  0  0  0  0  0  0  0  0  0  0  0
   36.3650   30.8800   40.5980 C   0  0  0  0  0  0  0  0  0  0  0  0
   37.1290   32.0390   39.4100 S   0  0  0  0  0  0  0  0  0  0  0  0
   38.8780   31.5300   40.0070 C   0  0  0  0  0  0  0  0  0  0  0  0
   38.6160   30.7630   40.8010 N   0  0  0  0  0  0  0  0  0  0  0  0
   35.3190   30.6810   40.7700 H   0  0  0  0  0  0  0  0  0  0  0  0
   40.0530   32.0680   39.4850 O   0  0  0  0  0  0  0  0  0  0  0  0
   39.9760   30.0280   37.8100 O   0  0  0  0  0  0  0  0  0  0  0  0
   40.5960   31.4210   38.0030 P   0  0  1  0  0  0  0  0  0  0  0  0
   40.0280   32.4170   36.7580 O   0  0  0  0  0  0  0  0  0  0  0  0
   39.1220   32.7090   37.0380 H   0  0  0  0  0  0  0  0  0  0  0  0
   42.2700   31.3640   37.9660 O   0  0  0  0  0  0  0  0  0  0  0  0
   41.3680   29.9720   36.3130 H   0  0  0  0  0  0  0  0  0  0  0  0
   42.3340   30.2260   35.9880 N   0  0  0  0  0  0  0  0  0  0  0  0
   42.8340   31.3780   36.7180 C   0  0  2  0  0  3  0  0  0  0  0  0
   44.3420   31.3900   36.7400 C   0  0  0  0  0  3  0  0  0  0  0  0
   44.7470   30.9840   37.6870 H   0  0  0  0  0  0  0  0  0  0  0  0
   44.7860   30.5750   35.6990 O   0  0  0  0  0  0  0  0  0  0  0  0
   44.6060   29.2630   36.1340 C   0  0  0  0  0  2  0  0  0  0  0  0
   43.1280   29.0300   36.2070 C   0  0  0  0  0  2  0  0  0  0  0  0
   36.6330   28.0240   41.8120 C   0  0  0  0  0  0  0  0  0  0  0  0
   35.8600   27.6920   42.5110 H   0  0  0  0  0  0  0  0  0  0  0  0
   36.0870   28.2850   40.8620 H   0  0  0  0  0  0  0  0  0  0  0  0
   37.5910   26.9700   41.4600 C   0  0  0  0  0  0  0  0  0  0  0  0
   37.5150   26.4630   40.1660 C   0  0  0  0  0  0  0  0  0  0  0  0
   38.3710   25.4740   39.7450 C   0  0  0  0  0  0  0  0  0  0  0  0
   39.3010   25.0170   40.6740 N   0  0  0  0  0  0  0  0  0  0  0  0
   39.3380   25.5380   41.9190 C   0  0  0  0  0  0  0  0  0  0  0  0
   38.4960   26.4870   42.2770 N   0  0  0  0  0  0  0  0  0  0  0  0
   38.3220   25.0800   38.7600 H   0  0  0  0  0  0  0  0  0  0  0  0
   40.0480   25.2030   42.6570 H   0  0  0  0  0  0  0  0  0  0  0  0
   36.2870   27.1020   39.0190 S   0  0  0  0  0  0  0  0  0  0  0  0
   37.0450   28.3070   37.9080 C   0  0  0  0  0  0  0  0  0  0  0  0
   36.3360   29.1510   37.8140 H   0  0  0  0  0  0  0  0  0  0  0  0
   37.9680   28.6790   38.4000 H   0  0  0  0  0  0  0  0  0  0  0  0
   37.3090   27.6510   36.5700 C   0  0  0  0  0  0  0  0  0  0  0  0
   37.7800   26.6660   36.7350 H   0  0  0  0  0  0  0  0  0  0  0  0
   36.3730   27.6110   35.9900 H   0  0  0  0  0  0  0  0  0  0  0  0
   38.2380   28.4770   35.8520 N   0  0  0  0  0  0  0  0  0  0  0  0
   37.9270   29.4730   35.8190 H   0  0  0  0  0  0  0  0  0  0  0  0
   38.5150   28.1080   34.9250 H   0  0  0  0  0  0  0  0  0  0  0  0
  1  3  1  0  0  0  0
  1  2  1  0  0  0  0
  4  1  1  0  0  0  0
  5  9  1  0  0  0  0
  5  4  2  0  0  0  0
  6  7  1  0  0  0  0
  6  5  1  0  0  0  0
  7  8  2  0  0  0  0
  8  4  1  0  0  0  0
 10  7  1  0  0  0  0
 12 11  2  6  0  0  0
 12 10  1  0  0  0  0
 13 14  1  0  0  0  0
 13 12  1  0  0  0  0
 15 12  1  0  0  0  0
 17 23  1  0  0  0  0
 17 16  1  0  0  0  0
 17 18  1  0  0  0  0
 18 19  1  0  0  0  0
 18 15  1  1  0  0  0
 19 20  1  0  0  0  0
 21 22  1  0  0  0  0
 21 19  1  0  0  0  0
 22 23  1  0  0  0  0
 24  1  1  0  0  0  0
 24 25  1  0  0  0  0
 26 24  1  0  0  0  0
 27 24  1  0  0  0  0
 27 32  1  0  0  0  0
 28 27  2  0  0  0  0
 29 28  1  0  0  0  0
 29 30  2  0  0  0  0
 30 31  1  0  0  0  0
 31 32  2  0  0  0  0
 31 34  1  0  0  0  0
 33 29  1  0  0  0  0
 35 28  1  0  0  0  0
 36 38  1  0  0  0  0
 36 35  1  0  0  0  0
 37 36  1  0  0  0  0
 39 40  1  0  0  0  0
 39 36  1  0  0  0  0
 41 39  1  0  0  0  0
 42 39  1  0  0  0  0
 43 42  1  0  0  0  0
 44 42  1  0  0  0  0
M  END
>  <minimizedAffinity>
-4.8798213

$$$$

 OpenBabel03252507513D

 44 46  0  0  1  0  0  0  0  0999 V2000
   35.4830   28.8830   40.6980 C   0  0  0  0  0  0  0  0  0  0  0  0
   34.6280   29.1190   41.3810 H   0  0  0  0  0  0  0  0  0  0  0  0
   35.2290   27.8920   40.2310 H   0  0  0  0  0  0  0  0  0  0  0  0
   36.7110   28.6680   41.4920 C   0  0  0  0  0  0  0  0  0  0  0  0
   37.5990   29.7590   41.7170 C   0  0  0  0  0  0  0  0  0  0  0  0
   38.9310   29.0140   42.7230 S   0  0  0  0  0  0  0  0  0  0  0  0
   38.0460   27.3130   42.6700 C   0  0  0  0  0  0  0  0  0  0  0  0
   37.1310   27.5690   42.0510 N   0  0  0  0  0  0  0  0  0  0  0  0
   37.5010   30.7760   41.3740 H   0  0  0  0  0  0  0  0  0  0  0  0
   38.5470   26.1700   43.2900 O   0  0  0  0  0  0  0  0  0  0  0  0
   40.2030   25.4910   41.3490 O   0  0  0  0  0  0  0  0  0  0  0  0
   39.1040   24.9270   42.2640 P   0  0  1  0  0  0  0  0  0  0  0  0
   39.8030   23.7260   43.2300 O   0  0  0  0  0  0  0  0  0  0  0  0
   40.2630   24.2050   43.9680 H   0  0  0  0  0  0  0  0  0  0  0  0
   37.8360   24.2800   41.3830 O   0  0  0  0  0  0  0  0  0  0  0  0
   37.8850   26.2790   40.1630 H   0  0  0  0  0  0  0  0  0  0  0  0
   37.6960   25.5150   39.4680 N   0  0  0  0  0  0  0  0  0  0  0  0
   38.0280   24.2170   40.0280 C   0  0  2  0  0  3  0  0  0  0  0  0
   37.2380   23.1210   39.3590 C   0  0  0  0  0  3  0  0  0  0  0  0
   36.3540   22.8230   39.9550 H   0  0  0  0  0  0  0  0  0  0  0  0
   36.7860   23.6140   38.1360 O   0  0  0  0  0  0  0  0  0  0  0  0
   35.7170   24.4570   38.4320 C   0  0  0  0  0  2  0  0  0  0  0  0
   36.2870   25.6460   39.1440 C   0  0  0  0  0  2  0  0  0  0  0  0
   35.6220   29.9280   39.6400 C   0  0  0  0  0  0  0  0  0  0  0  0
   34.9280   30.7520   39.8280 H   0  0  0  0  0  0  0  0  0  0  0  0
   36.6510   30.3720   39.7540 H   0  0  0  0  0  0  0  0  0  0  0  0
   35.5490   29.4060   38.2710 C   0  0  0  0  0  0  0  0  0  0  0  0
   36.4530   29.9290   37.3520 C   0  0  0  0  0  0  0  0  0  0  0  0
   36.4600   29.5010   36.0470 C   0  0  0  0  0  0  0  0  0  0  0  0
   35.5230   28.5310   35.7040 N   0  0  0  0  0  0  0  0  0  0  0  0
   34.6650   28.0520   36.6280 C   0  0  0  0  0  0  0  0  0  0  0  0
   34.6970   28.4930   37.8700 N   0  0  0  0  0  0  0  0  0  0  0  0
   37.1450   29.8940   35.3370 H   0  0  0  0  0  0  0  0  0  0  0  0
   33.9300   27.3000   36.3910 H   0  0  0  0  0  0  0  0  0  0  0  0
   37.6360   31.1820   37.8670 S   0  0  0  0  0  0  0  0  0  0  0  0
   39.2740   30.4460   38.0600 C   0  0  0  0  0  0  0  0  0  0  0  0
   39.3040   29.9850   39.0650 H   0  0  0  0  0  0  0  0  0  0  0  0
   39.3680   29.6410   37.3010 H   0  0  0  0  0  0  0  0  0  0  0  0
   40.3240   31.5260   37.9110 C   0  0  0  0  0  0  0  0  0  0  0  0
   40.3320   32.1530   38.8200 H   0  0  0  0  0  0  0  0  0  0  0  0
   41.2950   31.0620   37.6750 H   0  0  0  0  0  0  0  0  0  0  0  0
   39.9490   32.3520   36.7990 N   0  0  0  0  0  0  0  0  0  0  0  0
   39.7500   31.7860   35.9450 H   0  0  0  0  0  0  0  0  0  0  0  0
   40.5870   33.1480   36.6190 H   0  0  0  0  0  0  0  0  0  0  0  0
  1  2  1  0  0  0  0
  1  4  1  0  0  0  0
  3  1  1  0  0  0  0
  4  5  2  0  0  0  0
  4  8  1  0  0  0  0
  5  6  1  0  0  0  0
  7  6  1  0  0  0  0
  7 10  1  0  0  0  0
  8  7  2  0  0  0  0
  9  5  1  0  0  0  0
 12 11  2  6  0  0  0
 12 13  1  0  0  0  0
 12 10  1  0  0  0  0
 13 14  1  0  0  0  0
 15 12  1  0  0  0  0
 17 18  1  0  0  0  0
 17 16  1  0  0  0  0
 18 15  1  1  0  0  0
 19 20  1  0  0  0  0
 19 18  1  0  0  0  0
 21 22  1  0  0  0  0
 21 19  1  0  0  0  0
 22 23  1  0  0  0  0
 23 17  1  0  0  0  0
 24 26  1  0  0  0  0
 24 25  1  0  0  0  0
 24  1  1  0  0  0  0
 27 24  1  0  0  0  0
 28 35  1  0  0  0  0
 28 27  2  0  0  0  0
 29 28  1  0  0  0  0
 30 29  2  0  0  0  0
 30 31  1  0  0  0  0
 31 32  2  0  0  0  0
 32 27  1  0  0  0  0
 33 29  1  0  0  0  0
 34 31  1  0  0  0  0
 35 36  1  0  0  0  0
 36 37  1  0  0  0  0
 38 36  1  0  0  0  0
 39 36  1  0  0  0  0
 39 40  1  0  0  0  0
 41 39  1  0  0  0  0
 42 39  1  0  0  0  0
 43 42  1  0  0  0  0
 44 42  1  0  0  0  0
M  END
>  <minimizedAffinity>
-4.85478354

$$$$

 OpenBabel03252507513D

 44 46  0  0  1  0  0  0  0  0999 V2000
   36.5950   27.2010   39.8130 C   0  0  0  0  0  0  0  0  0  0  0  0
   37.2580   26.3490   39.5190 H   0  0  0  0  0  0  0  0  0  0  0  0
   35.5540   26.7750   39.8400 H   0  0  0  0  0  0  0  0  0  0  0  0
   36.5990   28.2270   38.7490 C   0  0  0  0  0  0  0  0  0  0  0  0
   36.1750   27.8750   37.4350 C   0  0  0  0  0  0  0  0  0  0  0  0
   36.3550   29.4380   36.5050 S   0  0  0  0  0  0  0  0  0  0  0  0
   36.9880   30.3270   38.0810 C   0  0  0  0  0  0  0  0  0  0  0  0
   36.9510   29.4780   38.8330 N   0  0  0  0  0  0  0  0  0  0  0  0
   35.8320   26.9150   37.0840 H   0  0  0  0  0  0  0  0  0  0  0  0
   37.3510   31.6720   38.1080 O   0  0  0  0  0  0  0  0  0  0  0  0
   37.0410   33.8890   39.5090 O   0  0  0  0  0  0  0  0  0  0  0  0
   37.4350   32.4100   39.6440 P   0  0  1  0  0  0  0  0  0  0  0  0
   36.2970   31.6610   40.6460 O   0  0  0  0  0  0  0  0  0  0  0  0
   35.5130   31.4670   40.0690 H   0  0  0  0  0  0  0  0  0  0  0  0
   38.9680   32.2350   40.2950 O   0  0  0  0  0  0  0  0  0  0  0  0
   39.0450   32.8940   38.0490 H   0  0  0  0  0  0  0  0  0  0  0  0
   39.9630   33.1810   38.4720 N   0  0  0  0  0  0  0  0  0  0  0  0
   39.8810   33.1840   39.9220 C   0  0  2  0  0  3  0  0  0  0  0  0
   41.2430   32.9860   40.5390 C   0  0  0  0  0  3  0  0  0  0  0  0
   41.4110   31.9350   40.8440 H   0  0  0  0  0  0  0  0  0  0  0  0
   42.1950   33.3100   39.5740 O   0  0  0  0  0  0  0  0  0  0  0  0
   42.2330   32.2310   38.6930 C   0  0  0  0  0  2  0  0  0  0  0  0
   40.9250   32.2230   37.9620 C   0  0  0  0  0  2  0  0  0  0  0  0
   36.9690   27.7260   41.1600 C   0  0  0  0  0  0  0  0  0  0  0  0
   37.3300   28.7560   41.0770 H   0  0  0  0  0  0  0  0  0  0  0  0
   36.0190   27.7890   41.7610 H   0  0  0  0  0  0  0  0  0  0  0  0
   37.8760   26.8520   41.9120 C   0  0  0  0  0  0  0  0  0  0  0  0
   38.8120   27.4750   42.7300 C   0  0  0  0  0  0  0  0  0  0  0  0
   39.7030   26.7380   43.4720 C   0  0  0  0  0  0  0  0  0  0  0  0
   39.6150   25.3540   43.3580 N   0  0  0  0  0  0  0  0  0  0  0  0
   38.6900   24.7920   42.5510 C   0  0  0  0  0  0  0  0  0  0  0  0
   37.8550   25.5410   41.8580 N   0  0  0  0  0  0  0  0  0  0  0  0
   40.4220   27.2040   44.0990 H   0  0  0  0  0  0  0  0  0  0  0  0
   38.5990   23.7230   42.4440 H   0  0  0  0  0  0  0  0  0  0  0  0
   38.8680   29.2700   42.8270 S   0  0  0  0  0  0  0  0  0  0  0  0
   40.5150   29.8640   42.3810 C   0  0  0  0  0  0  0  0  0  0  0  0
   40.4500   30.9640   42.2970 H   0  0  0  0  0  0  0  0  0  0  0  0
   41.1970   29.6160   43.2220 H   0  0  0  0  0  0  0  0  0  0  0  0
   40.9340   29.2280   41.0730 C   0  0  0  0  0  0  0  0  0  0  0  0
   41.8710   29.6960   40.7250 H   0  0  0  0  0  0  0  0  0  0  0  0
   40.9950   28.1350   41.2000 H   0  0  0  0  0  0  0  0  0  0  0  0
   39.9090   29.5020   40.1050 N   0  0  0  0  0  0  0  0  0  0  0  0
   38.9620   29.2420   40.4580 H   0  0  0  0  0  0  0  0  0  0  0  0
   40.1050   29.1350   39.1560 H   0  0  0  0  0  0  0  0  0  0  0  0
  1  3  1  0  0  0  0
  1 24  1  0  0  0  0
  2  1  1  0  0  0  0
  4  8  1  0  0  0  0
  4  1  1  0  0  0  0
  5  4  2  0  0  0  0
  6  5  1  0  0  0  0
  6  7  1  0  0  0  0
  7 10  1  0  0  0  0
  7  8  2  0  0  0  0
  9  5  1  0  0  0  0
 10 12  1  0  0  0  0
 12 11  2  6  0  0  0
 12 15  1  0  0  0  0
 12 13  1  0  0  0  0
 14 13  1  0  0  0  0
 16 17  1  0  0  0  0
 17 18  1  0  0  0  0
 18 15  1  6  0  0  0
 18 19  1  0  0  0  0
 19 20  1  0  0  0  0
 21 19  1  0  0  0  0
 22 21  1  0  0  0  0
 23 17  1  0  0  0  0
 23 22  1  0  0  0  0
 24 26  1  0  0  0  0
 24 27  1  0  0  0  0
 25 24  1  0  0  0  0
 27 28  1  0  0  0  0
 28 35  1  0  0  0  0
 28 29  2  0  0  0  0
 29 33  1  0  0  0  0
 30 29  1  0  0  0  0
 31 30  2  0  0  0  0
 32 27  2  0  0  0  0
 32 31  1  0  0  0  0
 34 31  1  0  0  0  0
 36 35  1  0  0  0  0
 36 38  1  0  0  0  0
 37 36  1  0  0  0  0
 39 41  1  0  0  0  0
 39 36  1  0  0  0  0
 40 39  1  0  0  0  0
 42 43  1  0  0  0  0
 42 39  1  0  0  0  0
 44 42  1  0  0  0  0
M  END
>  <minimizedAffinity>
-4.78758955

$$$$

 OpenBabel03252507513D

 44 46  0  0  1  0  0  0  0  0999 V2000
   38.1830   27.1480   36.2860 C   0  0  0  0  0  0  0  0  0  0  0  0
   37.9910   27.1450   35.1830 H   0  0  0  0  0  0  0  0  0  0  0  0
   37.9240   26.1110   36.6370 H   0  0  0  0  0  0  0  0  0  0  0  0
   37.2340   28.0640   36.9550 C   0  0  0  0  0  0  0  0  0  0  0  0
   35.8670   27.6870   37.0790 C   0  0  0  0  0  0  0  0  0  0  0  0
   35.1190   29.1080   37.9520 S   0  0  0  0  0  0  0  0  0  0  0  0
   36.8170   29.9960   38.0040 C   0  0  0  0  0  0  0  0  0  0  0  0
   37.4720   29.2330   37.4780 N   0  0  0  0  0  0  0  0  0  0  0  0
   35.3950   26.7790   36.7390 H   0  0  0  0  0  0  0  0  0  0  0  0
   37.0090   31.2500   38.5800 O   0  0  0  0  0  0  0  0  0  0  0  0
   38.3010   32.4320   40.5560 O   0  0  0  0  0  0  0  0  0  0  0  0
   37.3290   31.2800   40.2550 P   0  0  1  0  0  0  0  0  0  0  0  0
   35.8760   31.6070   41.0590 O   0  0  0  0  0  0  0  0  0  0  0  0
   35.3890   32.2550   40.4870 H   0  0  0  0  0  0  0  0  0  0  0  0
   37.9390   29.8060   40.7630 O   0  0  0  0  0  0  0  0  0  0  0  0
   37.2230   30.3760   42.9180 H   0  0  0  0  0  0  0  0  0  0  0  0
   37.0140   29.3540   42.8000 N   0  0  0  0  0  0  0  0  0  0  0  0
   37.0460   28.9830   41.3960 C   0  0  2  0  0  3  0  0  0  0  0  0
   37.3590   27.5170   41.2320 C   0  0  0  0  0  3  0  0  0  0  0  0
   38.4270   27.3430   41.0000 H   0  0  0  0  0  0  0  0  0  0  0  0
   37.0750   26.8870   42.4440 O   0  0  0  0  0  0  0  0  0  0  0  0
   38.1290   27.2060   43.2990 C   0  0  0  0  0  2  0  0  0  0  0  0
   38.0230   28.6720   43.5880 C   0  0  0  0  0  2  0  0  0  0  0  0
   39.6170   27.4460   36.5770 C   0  0  0  0  0  0  0  0  0  0  0  0
   40.2500   27.0940   35.7570 H   0  0  0  0  0  0  0  0  0  0  0  0
   39.7230   28.5670   36.5770 H   0  0  0  0  0  0  0  0  0  0  0  0
   40.0670   26.9890   37.8960 C   0  0  0  0  0  0  0  0  0  0  0  0
   40.9980   27.7890   38.5510 C   0  0  0  0  0  0  0  0  0  0  0  0
   41.4770   27.4420   39.7920 C   0  0  0  0  0  0  0  0  0  0  0  0
   40.9850   26.2630   40.3430 N   0  0  0  0  0  0  0  0  0  0  0  0
   40.0820   25.5180   39.6710 C   0  0  0  0  0  0  0  0  0  0  0  0
   39.6510   25.8920   38.4830 N   0  0  0  0  0  0  0  0  0  0  0  0
   42.1880   28.0450   40.3000 H   0  0  0  0  0  0  0  0  0  0  0  0
   39.6840   24.6010   40.0740 H   0  0  0  0  0  0  0  0  0  0  0  0
   41.5900   29.3000   37.7770 S   0  0  0  0  0  0  0  0  0  0  0  0
   40.5970   30.7060   38.3240 C   0  0  0  0  0  0  0  0  0  0  0  0
   39.5460   30.3660   38.3590 H   0  0  0  0  0  0  0  0  0  0  0  0
   40.9190   30.9590   39.3560 H   0  0  0  0  0  0  0  0  0  0  0  0
   40.7800   31.8510   37.3500 C   0  0  0  0  0  0  0  0  0  0  0  0
   41.2660   32.6960   37.8690 H   0  0  0  0  0  0  0  0  0  0  0  0
   41.3260   31.4930   36.4630 H   0  0  0  0  0  0  0  0  0  0  0  0
   39.4770   32.2750   36.9230 N   0  0  0  0  0  0  0  0  0  0  0  0
   38.8990   31.4750   36.5850 H   0  0  0  0  0  0  0  0  0  0  0  0
   39.4790   33.0790   36.2700 H   0  0  0  0  0  0  0  0  0  0  0  0
  1 24  1  0  0  0  0
  1  3  1  0  0  0  0
  1  4  1  0  0  0  0
  2  1  1  0  0  0  0
  4  5  2  0  0  0  0
  4  8  1  0  0  0  0
  5  6  1  0  0  0  0
  6  7  1  0  0  0  0
  7 10  1  0  0  0  0
  8  7  2  0  0  0  0
  9  5  1  0  0  0  0
 10 12  1  0  0  0  0
 12 11  2  1  0  0  0
 12 15  1  0  0  0  0
 12 13  1  0  0  0  0
 14 13  1  0  0  0  0
 17 16  1  0  0  0  0
 17 23  1  0  0  0  0
 18 15  1  6  0  0  0
 18 17  1  0  0  0  0
 19 18  1  0  0  0  0
 19 21  1  0  0  0  0
 20 19  1  0  0  0  0
 21 22  1  0  0  0  0
 22 23  1  0  0  0  0
 24 26  1  0  0  0  0
 24 27  1  0  0  0  0
 25 24  1  0  0  0  0
 27 32  2  0  0  0  0
 27 28  1  0  0  0  0
 28 29  2  0  0  0  0
 29 33  1  0  0  0  0
 29 30  1  0  0  0  0
 31 34  1  0  0  0  0
 31 30  2  0  0  0  0
 32 31  1  0  0  0  0
 35 36  1  0  0  0  0
 35 28  1  0  0  0  0
 36 37  1  0  0  0  0
 36 38  1  0  0  0  0
 39 40  1  0  0  0  0
 39 36  1  0  0  0  0
 41 39  1  0  0  0  0
 42 39  1  0  0  0  0
 43 42  1  0  0  0  0
 44 42  1  0  0  0  0
M  END
>  <minimizedAffinity>
-4.7653327

$$$$

 OpenBabel03252507513D

 44 46  0  0  1  0  0  0  0  0999 V2000
   38.5420   28.6090   43.1580 C   0  0  0  0  0  0  0  0  0  0  0  0
   38.0870   28.9330   44.1280 H   0  0  0  0  0  0  0  0  0  0  0  0
   39.6250   28.9080   43.2200 H   0  0  0  0  0  0  0  0  0  0  0  0
   37.9570   29.3920   42.0470 C   0  0  0  0  0  0  0  0  0  0  0  0
   36.5580   29.3100   41.7950 C   0  0  0  0  0  0  0  0  0  0  0  0
   36.3260   30.4240   40.3650 S   0  0  0  0  0  0  0  0  0  0  0  0
   38.2010   30.8240   40.3460 C   0  0  0  0  0  0  0  0  0  0  0  0
   38.5610   30.1920   41.2160 N   0  0  0  0  0  0  0  0  0  0  0  0
   35.8210   28.7290   42.3250 H   0  0  0  0  0  0  0  0  0  0  0  0
   38.7900   31.6910   39.4280 O   0  0  0  0  0  0  0  0  0  0  0  0
   38.1400   34.1400   40.1700 O   0  0  0  0  0  0  0  0  0  0  0  0
   39.3380   33.1880   40.0340 P   0  0  1  0  0  0  0  0  0  0  0  0
   39.9670   32.9250   41.5830 O   0  0  0  0  0  0  0  0  0  0  0  0
   39.3850   32.2380   41.9990 H   0  0  0  0  0  0  0  0  0  0  0  0
   40.5250   33.8250   39.0400 O   0  0  0  0  0  0  0  0  0  0  0  0
   41.2580   31.8730   40.1060 H   0  0  0  0  0  0  0  0  0  0  0  0
   41.8510   31.9780   39.2450 N   0  0  0  0  0  0  0  0  0  0  0  0
   41.2420   32.9110   38.3140 C   0  0  2  0  0  3  0  0  0  0  0  0
   42.2810   33.5360   37.4180 C   0  0  0  0  0  3  0  0  0  0  0  0
   42.5830   34.5410   37.7700 H   0  0  0  0  0  0  0  0  0  0  0  0
   43.4080   32.7150   37.4430 O   0  0  0  0  0  0  0  0  0  0  0  0
   44.0390   32.9660   38.6600 C   0  0  0  0  0  2  0  0  0  0  0  0
   43.1420   32.4270   39.7320 C   0  0  0  0  0  2  0  0  0  0  0  0
   38.4250   27.1310   42.9820 C   0  0  0  0  0  0  0  0  0  0  0  0
   37.8430   26.6980   43.8010 H   0  0  0  0  0  0  0  0  0  0  0  0
   37.8110   26.9600   42.0540 H   0  0  0  0  0  0  0  0  0  0  0  0
   39.7070   26.4530   42.7580 C   0  0  0  0  0  0  0  0  0  0  0  0
   39.9450   25.9740   41.4740 C   0  0  0  0  0  0  0  0  0  0  0  0
   41.1170   25.3250   41.1690 C   0  0  0  0  0  0  0  0  0  0  0  0
   42.0350   25.1780   42.2040 N   0  0  0  0  0  0  0  0  0  0  0  0
   41.7620   25.6590   43.4350 C   0  0  0  0  0  0  0  0  0  0  0  0
   40.6230   26.2760   43.6800 N   0  0  0  0  0  0  0  0  0  0  0  0
   41.3080   24.9550   40.1920 H   0  0  0  0  0  0  0  0  0  0  0  0
   42.4550   25.5600   44.2540 H   0  0  0  0  0  0  0  0  0  0  0  0
   38.7100   26.2000   40.1860 S   0  0  0  0  0  0  0  0  0  0  0  0
   37.9390   24.6180   39.7830 C   0  0  0  0  0  0  0  0  0  0  0  0
   37.0490   24.8400   39.1650 H   0  0  0  0  0  0  0  0  0  0  0  0
   38.6600   24.0430   39.1640 H   0  0  0  0  0  0  0  0  0  0  0  0
   37.5630   23.9080   41.0660 C   0  0  0  0  0  0  0  0  0  0  0  0
   38.0150   24.4390   41.9210 H   0  0  0  0  0  0  0  0  0  0  0  0
   36.4660   23.8120   41.1240 H   0  0  0  0  0  0  0  0  0  0  0  0
   38.1170   22.5850   41.0140 N   0  0  0  0  0  0  0  0  0  0  0  0
   37.8660   22.0930   40.1280 H   0  0  0  0  0  0  0  0  0  0  0  0
   37.9440   22.0120   41.8600 H   0  0  0  0  0  0  0  0  0  0  0  0
  1  3  1  0  0  0  0
  1  2  1  0  0  0  0
  4  1  1  0  0  0  0
  5  4  2  0  0  0  0
  5  9  1  0  0  0  0
  6  5  1  0  0  0  0
  7  6  1  0  0  0  0
  7  8  2  0  0  0  0
  8  4  1  0  0  0  0
 10 12  1  0  0  0  0
 10  7  1  0  0  0  0
 12 11  2  1  0  0  0
 12 13  1  0  0  0  0
 13 14  1  0  0  0  0
 15 12  1  0  0  0  0
 17 23  1  0  0  0  0
 17 16  1  0  0  0  0
 18 15  1  1  0  0  0
 18 17  1  0  0  0  0
 19 21  1  0  0  0  0
 19 20  1  0  0  0  0
 19 18  1  0  0  0  0
 21 22  1  0  0  0  0
 22 23  1  0  0  0  0
 24  1  1  0  0  0  0
 24 25  1  0  0  0  0
 26 24  1  0  0  0  0
 27 24  1  0  0  0  0
 27 32  1  0  0  0  0
 28 27  2  0  0  0  0
 29 28  1  0  0  0  0
 29 30  2  0  0  0  0
 30 31  1  0  0  0  0
 31 32  2  0  0  0  0
 31 34  1  0  0  0  0
 33 29  1  0  0  0  0
 35 28  1  0  0  0  0
 36 35  1  0  0  0  0
 36 39  1  0  0  0  0
 37 36  1  0  0  0  0
 38 36  1  0  0  0  0
 39 41  1  0  0  0  0
 39 40  1  0  0  0  0
 42 39  1  0  0  0  0
 42 44  1  0  0  0  0
 43 42  1  0  0  0  0
M  END
>  <minimizedAffinity>
-4.7489357

$$$$

 OpenBabel03252507513D

 44 46  0  0  1  0  0  0  0  0999 V2000
   37.1560   25.7920   41.7170 C   0  0  0  0  0  0  0  0  0  0  0  0
   36.6900   25.7360   40.7000 H   0  0  0  0  0  0  0  0  0  0  0  0
   36.3620   25.4370   42.4300 H   0  0  0  0  0  0  0  0  0  0  0  0
   37.4300   27.2030   42.0630 C   0  0  0  0  0  0  0  0  0  0  0  0
   38.4670   27.5070   42.9900 C   0  0  0  0  0  0  0  0  0  0  0  0
   38.4190   29.3320   43.0880 S   0  0  0  0  0  0  0  0  0  0  0  0
   36.9720   29.3800   41.8310 C   0  0  0  0  0  0  0  0  0  0  0  0
   36.8330   28.2740   41.6240 N   0  0  0  0  0  0  0  0  0  0  0  0
   39.1200   26.8200   43.5060 H   0  0  0  0  0  0  0  0  0  0  0  0
   36.3720   30.5620   41.3980 O   0  0  0  0  0  0  0  0  0  0  0  0
   36.5770   30.9260   38.7910 O   0  0  0  0  0  0  0  0  0  0  0  0
   37.1550   31.3980   40.1350 P   0  0  1  0  0  0  0  0  0  0  0  0
   36.8020   33.0440   40.2990 O   0  0  0  0  0  0  0  0  0  0  0  0
   35.8610   33.0900   40.6140 H   0  0  0  0  0  0  0  0  0  0  0  0
   38.8120   31.1620   40.2130 O   0  0  0  0  0  0  0  0  0  0  0  0
   38.2020   32.4140   38.3300 H   0  0  0  0  0  0  0  0  0  0  0  0
   39.2090   32.6410   38.5210 N   0  0  0  0  0  0  0  0  0  0  0  0
   39.5790   32.2420   39.8670 C   0  0  2  0  0  3  0  0  0  0  0  0
   41.0620   31.9820   39.9650 C   0  0  0  0  0  3  0  0  0  0  0  0
   41.3000   30.9030   39.8960 H   0  0  0  0  0  0  0  0  0  0  0  0
   41.6750   32.6270   38.8920 O   0  0  0  0  0  0  0  0  0  0  0  0
   41.4220   31.8360   37.7720 C   0  0  0  0  0  2  0  0  0  0  0  0
   39.9530   31.9320   37.4960 C   0  0  0  0  0  2  0  0  0  0  0  0
   38.3550   24.9050   41.8010 C   0  0  0  0  0  0  0  0  0  0  0  0
   39.2680   25.5070   41.8410 H   0  0  0  0  0  0  0  0  0  0  0  0
   38.3010   24.3760   42.7940 H   0  0  0  0  0  0  0  0  0  0  0  0
   38.3950   23.8560   40.7770 C   0  0  0  0  0  0  0  0  0  0  0  0
   39.3880   23.9640   39.8080 C   0  0  0  0  0  0  0  0  0  0  0  0
   39.5040   23.0280   38.8090 C   0  0  0  0  0  0  0  0  0  0  0  0
   38.5850   21.9840   38.8230 N   0  0  0  0  0  0  0  0  0  0  0  0
   37.6380   21.9190   39.7830 C   0  0  0  0  0  0  0  0  0  0  0  0
   37.5660   22.8410   40.7220 N   0  0  0  0  0  0  0  0  0  0  0  0
   40.2580   23.1020   38.0650 H   0  0  0  0  0  0  0  0  0  0  0  0
   36.9140   21.1210   39.8180 H   0  0  0  0  0  0  0  0  0  0  0  0
   40.5430   25.3420   39.8530 S   0  0  0  0  0  0  0  0  0  0  0  0
   40.0600   26.5940   38.6430 C   0  0  0  0  0  0  0  0  0  0  0  0
   40.9120   26.7170   37.9490 H   0  0  0  0  0  0  0  0  0  0  0  0
   39.1980   26.1890   38.0720 H   0  0  0  0  0  0  0  0  0  0  0  0
   39.7390   27.8850   39.3650 C   0  0  0  0  0  0  0  0  0  0  0  0
   39.5070   27.6620   40.4210 H   0  0  0  0  0  0  0  0  0  0  0  0
   40.5670   28.5980   39.2260 H   0  0  0  0  0  0  0  0  0  0  0  0
   38.5660   28.4470   38.7570 N   0  0  0  0  0  0  0  0  0  0  0  0
   38.6610   28.5140   37.7200 H   0  0  0  0  0  0  0  0  0  0  0  0
   38.2360   29.3270   39.1930 H   0  0  0  0  0  0  0  0  0  0  0  0
  1 24  1  0  0  0  0
  1  4  1  0  0  0  0
  1  3  1  0  0  0  0
  2  1  1  0  0  0  0
  4  5  2  0  0  0  0
  5  6  1  0  0  0  0
  5  9  1  0  0  0  0
  7  6  1  0  0  0  0
  8  7  2  0  0  0  0
  8  4  1  0  0  0  0
 10  7  1  0  0  0  0
 12 11  2  6  0  0  0
 12 15  1  0  0  0  0
 12 13  1  0  0  0  0
 12 10  1  0  0  0  0
 13 14  1  0  0  0  0
 16 17  1  0  0  0  0
 17 18  1  0  0  0  0
 18 19  1  0  0  0  0
 18 15  1  6  0  0  0
 20 19  1  0  0  0  0
 21 19  1  0  0  0  0
 22 21  1  0  0  0  0
 23 22  1  0  0  0  0
 23 17  1  0  0  0  0
 24 25  1  0  0  0  0
 24 26  1  0  0  0  0
 27 24  1  0  0  0  0
 28 35  1  0  0  0  0
 28 27  2  0  0  0  0
 29 30  2  0  0  0  0
 29 28  1  0  0  0  0
 30 31  1  0  0  0  0
 31 34  1  0  0  0  0
 31 32  2  0  0  0  0
 32 27  1  0  0  0  0
 33 29  1  0  0  0  0
 36 39  1  0  0  0  0
 36 35  1  0  0  0  0
 37 36  1  0  0  0  0
 38 36  1  0  0  0  0
 39 40  1  0  0  0  0
 41 39  1  0  0  0  0
 42 44  1  0  0  0  0
 42 39  1  0  0  0  0
 43 42  1  0  0  0  0
M  END
>  <minimizedAffinity>
-4.74604034

$$$$

 OpenBabel03252507513D

 44 46  0  0  1  0  0  0  0  0999 V2000
   37.0020   26.1410   41.1860 C   0  0  0  0  0  0  0  0  0  0  0  0
   35.9050   25.9590   41.3220 H   0  0  0  0  0  0  0  0  0  0  0  0
   37.5130   25.4190   41.8810 H   0  0  0  0  0  0  0  0  0  0  0  0
   37.3450   27.4970   41.6670 C   0  0  0  0  0  0  0  0  0  0  0  0
   38.3640   27.6540   42.6480 C   0  0  0  0  0  0  0  0  0  0  0  0
   38.4190   29.4620   42.9090 S   0  0  0  0  0  0  0  0  0  0  0  0
   37.0220   29.7100   41.6190 C   0  0  0  0  0  0  0  0  0  0  0  0
   36.8260   28.6370   41.3090 N   0  0  0  0  0  0  0  0  0  0  0  0
   38.9570   26.8860   43.1180 H   0  0  0  0  0  0  0  0  0  0  0  0
   36.5080   30.9600   41.2770 O   0  0  0  0  0  0  0  0  0  0  0  0
   36.6160   31.1770   38.6480 O   0  0  0  0  0  0  0  0  0  0  0  0
   37.2250   31.7410   39.9410 P   0  0  1  0  0  0  0  0  0  0  0  0
   36.8300   33.3840   40.0230 O   0  0  0  0  0  0  0  0  0  0  0  0
   35.9000   33.4230   40.3670 H   0  0  0  0  0  0  0  0  0  0  0  0
   38.8880   31.5550   39.9750 O   0  0  0  0  0  0  0  0  0  0  0  0
   38.9340   33.7570   39.1800 H   0  0  0  0  0  0  0  0  0  0  0  0
   39.7340   33.6720   39.8540 N   0  0  0  0  0  0  0  0  0  0  0  0
   39.5750   32.4970   40.6940 C   0  0  2  0  0  3  0  0  0  0  0  0
   40.9080   32.0120   41.2030 C   0  0  0  0  0  3  0  0  0  0  0  0
   41.2990   31.1680   40.6040 H   0  0  0  0  0  0  0  0  0  0  0  0
   41.8110   33.0690   41.0960 O   0  0  0  0  0  0  0  0  0  0  0  0
   42.1480   33.1520   39.7460 C   0  0  0  0  0  2  0  0  0  0  0  0
   40.9210   33.6130   39.0210 C   0  0  0  0  0  2  0  0  0  0  0  0
   37.4150   25.8780   39.7760 C   0  0  0  0  0  0  0  0  0  0  0  0
   37.9450   26.7440   39.3690 H   0  0  0  0  0  0  0  0  0  0  0  0
   38.1760   25.0480   39.8080 H   0  0  0  0  0  0  0  0  0  0  0  0
   36.3270   25.4040   38.9130 C   0  0  0  0  0  0  0  0  0  0  0  0
   35.9450   26.2420   37.8700 C   0  0  0  0  0  0  0  0  0  0  0  0
   34.9360   25.8820   37.0100 C   0  0  0  0  0  0  0  0  0  0  0  0
   34.3280   24.6530   37.2410 N   0  0  0  0  0  0  0  0  0  0  0  0
   34.7310   23.8720   38.2660 C   0  0  0  0  0  0  0  0  0  0  0  0
   35.7050   24.2590   39.0650 N   0  0  0  0  0  0  0  0  0  0  0  0
   34.6360   26.5150   36.2110 H   0  0  0  0  0  0  0  0  0  0  0  0
   34.2780   22.9150   38.4680 H   0  0  0  0  0  0  0  0  0  0  0  0
   36.7760   27.8190   37.6320 S   0  0  0  0  0  0  0  0  0  0  0  0
   38.1350   27.6320   36.4570 C   0  0  0  0  0  0  0  0  0  0  0  0
   38.3300   26.5480   36.3590 H   0  0  0  0  0  0  0  0  0  0  0  0
   37.7820   28.0160   35.4770 H   0  0  0  0  0  0  0  0  0  0  0  0
   39.3480   28.3710   36.9800 C   0  0  0  0  0  0  0  0  0  0  0  0
   39.6600   27.9250   37.9410 H   0  0  0  0  0  0  0  0  0  0  0  0
   40.1350   28.3740   36.2090 H   0  0  0  0  0  0  0  0  0  0  0  0
   38.9620   29.7320   37.2210 N   0  0  0  0  0  0  0  0  0  0  0  0
   38.4910   30.1550   36.3920 H   0  0  0  0  0  0  0  0  0  0  0  0
   39.7140   30.3300   37.6110 H   0  0  0  0  0  0  0  0  0  0  0  0
  1  2  1  0  0  0  0
  1  4  1  0  0  0  0
  1  3  1  0  0  0  0
  4  5  2  0  0  0  0
  5  6  1  0  0  0  0
  5  9  1  0  0  0  0
  7  6  1  0  0  0  0
  8  7  2  0  0  0  0
  8  4  1  0  0  0  0
 10  7  1  0  0  0  0
 12 11  2  6  0  0  0
 12 15  1  0  0  0  0
 12 13  1  0  0  0  0
 12 10  1  0  0  0  0
 13 14  1  0  0  0  0
 16 17  1  0  0  0  0
 17 18  1  0  0  0  0
 18 15  1  6  0  0  0
 18 19  1  0  0  0  0
 20 19  1  0  0  0  0
 21 19  1  0  0  0  0
 22 21  1  0  0  0  0
 23 22  1  0  0  0  0
 23 17  1  0  0  0  0
 24 26  1  0  0  0  0
 24  1  1  0  0  0  0
 25 24  1  0  0  0  0
 27 32  1  0  0  0  0
 27 24  1  0  0  0  0
 28 27  2  0  0  0  0
 29 30  2  0  0  0  0
 29 28  1  0  0  0  0
 30 31  1  0  0  0  0
 31 34  1  0  0  0  0
 31 32  2  0  0  0  0
 33 29  1  0  0  0  0
 35 28  1  0  0  0  0
 36 39  1  0  0  0  0
 36 35  1  0  0  0  0
 37 36  1  0  0  0  0
 38 36  1  0  0  0  0
 39 42  1  0  0  0  0
 39 40  1  0  0  0  0
 41 39  1  0  0  0  0
 42 44  1  0  0  0  0
 43 42  1  0  0  0  0
M  END
>  <minimizedAffinity>
-4.70823002

$$$$
