
 OpenBabel03252506483D

 41 44  0  0  1  0  0  0  0  0999 V2000
   37.9740   25.8170   42.4060 N   0  0  1  0  0  0  0  0  0  0  0  0
   37.1470   24.8130   41.7790 C   0  0  0  0  0  0  0  0  0  0  0  0
   37.8790   23.5380   41.4550 C   0  0  0  0  0  0  0  0  0  0  0  0
   38.9140   23.8250   40.4000 C   0  0  0  0  0  0  0  0  0  0  0  0
   39.5140   25.2160   40.5700 C   0  0  0  0  0  0  0  0  0  0  0  0
   39.3350   25.6180   42.0040 C   0  0  2  0  0  0  0  0  0  0  0  0
   36.8300   25.2340   40.7880 H   0  0  0  0  0  0  0  0  0  0  0  0
   36.1980   24.6390   42.3270 H   0  0  0  0  0  0  0  0  0  0  0  0
   38.2060   22.9520   42.3110 H   0  0  0  0  0  0  0  0  0  0  0  0
   37.1120   22.8890   40.9450 H   0  0  0  0  0  0  0  0  0  0  0  0
   38.4680   23.7440   39.3990 H   0  0  0  0  0  0  0  0  0  0  0  0
   39.7490   23.1070   40.5430 H   0  0  0  0  0  0  0  0  0  0  0  0
   38.8960   25.9350   39.9470 H   0  0  0  0  0  0  0  0  0  0  0  0
   40.5370   25.3070   40.2630 H   0  0  0  0  0  0  0  0  0  0  0  0
   39.8110   26.6410   42.0710 H   0  0  0  0  0  0  0  0  0  0  0  0
   37.7490   28.3570   42.7840 C   0  0  1  0  0  0  0  0  0  0  0  0
   36.4530   27.6770   43.0230 C   0  0  0  0  0  0  0  0  0  0  0  0
   37.4280   27.0860   42.0870 C   0  0  2  0  0  0  0  0  0  0  0  0
   38.4640   28.3410   43.6580 H   0  0  0  0  0  0  0  0  0  0  0  0
   36.2700   27.1590   43.9950 H   0  0  0  0  0  0  0  0  0  0  0  0
   35.5210   28.1300   42.6170 H   0  0  0  0  0  0  0  0  0  0  0  0
   37.1830   27.2310   40.9960 H   0  0  0  0  0  0  0  0  0  0  0  0
   36.6110   30.1600   41.4500 C   0  0  0  0  0  0  0  0  0  0  0  0
   37.7590   29.6210   42.0490 C   0  0  0  0  0  0  0  0  0  0  0  0
   38.9480   30.3710   41.9250 C   0  0  0  0  0  0  0  0  0  0  0  0
   38.9140   31.5480   41.2470 N   0  0  0  0  0  0  0  0  0  0  0  0
   37.7980   32.0320   40.6890 C   0  0  0  0  0  0  0  0  0  0  0  0
   36.6240   31.3380   40.7840 N   0  0  0  0  0  0  0  0  0  0  0  0
   35.7110   29.5620   41.5600 H   0  0  0  0  0  0  0  0  0  0  0  0
   39.8820   30.0160   42.3640 H   0  0  0  0  0  0  0  0  0  0  0  0
   37.8870   32.9790   40.1730 H   0  0  0  0  0  0  0  0  0  0  0  0
   40.0700   24.7500   42.8790 N   0  0  0  0  0  0  0  0  0  0  0  0
   40.5270   23.9630   42.3030 H   0  0  0  0  0  0  0  0  0  0  0  0
   43.1300   24.8500   43.8070 H   0  0  0  0  0  0  0  0  0  0  0  0
   42.4580   24.8400   43.0060 N   0  0  0  0  0  0  0  0  0  0  0  0
   41.2080   25.3810   43.5060 C   0  0  1  0  0  3  0  0  0  0  0  0
   41.1790   26.8720   43.4410 C   0  0  0  0  0  3  0  0  0  0  0  0
   40.5570   27.3100   44.2490 H   0  0  0  0  0  0  0  0  0  0  0  0
   42.5290   27.2770   43.6760 O   0  0  0  0  0  0  0  0  0  0  0  0
   43.1760   27.1160   42.4500 C   0  0  0  0  0  2  0  0  0  0  0  0
   43.0660   25.6770   41.9830 C   0  0  0  0  0  2  0  0  0  0  0  0
  1  2  1  6  0  0  0
  2  8  1  0  0  0  0
  3  2  1  0  0  0  0
  3  9  1  0  0  0  0
  4 12  1  0  0  0  0
  4  5  1  0  0  0  0
  4  3  1  0  0  0  0
  5  6  1  0  0  0  0
  6 15  1  1  0  0  0
  6  1  1  0  0  0  0
  6 32  1  0  0  0  0
  7  2  1  0  0  0  0
 10  3  1  0  0  0  0
 11  4  1  0  0  0  0
 13  5  1  0  0  0  0
 14  5  1  0  0  0  0
 16 17  1  0  0  0  0
 16 19  1  1  0  0  0
 17 20  1  0  0  0  0
 18 22  1  6  0  0  0
 18  1  1  0  0  0  0
 18 16  1  0  0  0  0
 18 17  1  0  0  0  0
 21 17  1  0  0  0  0
 23 29  1  0  0  0  0
 23 24  1  0  0  0  0
 24 16  1  0  0  0  0
 25 24  2  0  0  0  0
 25 30  1  0  0  0  0
 26 25  1  0  0  0  0
 27 28  1  0  0  0  0
 27 26  2  0  0  0  0
 28 23  2  0  0  0  0
 31 27  1  0  0  0  0
 33 32  1  0  0  0  0
 35 36  1  0  0  0  0
 35 34  1  0  0  0  0
 36 32  1  6  0  0  0
 37 36  1  0  0  0  0
 37 39  1  0  0  0  0
 37 38  1  0  0  0  0
 40 39  1  0  0  0  0
 41 40  1  0  0  0  0
 41 35  1  0  0  0  0
M  END
>  <minimizedAffinity>
-5.37393522

$$$$

 OpenBabel03252506483D

 41 44  0  0  1  0  0  0  0  0999 V2000
   36.7010   27.3400   41.3060 N   0  0  1  0  0  0  0  0  0  0  0  0
   36.9110   26.8650   42.6540 C   0  0  0  0  0  0  0  0  0  0  0  0
   37.0030   27.9650   43.6780 C   0  0  0  0  0  0  0  0  0  0  0  0
   38.2440   28.7750   43.4130 C   0  0  0  0  0  0  0  0  0  0  0  0
   38.5350   28.8770   41.9200 C   0  0  0  0  0  0  0  0  0  0  0  0
   37.2450   28.6610   41.1870 C   0  0  2  0  0  0  0  0  0  0  0  0
   37.9150   26.3650   42.6630 H   0  0  0  0  0  0  0  0  0  0  0  0
   36.1950   26.0670   42.9400 H   0  0  0  0  0  0  0  0  0  0  0  0
   36.0860   28.5230   43.8540 H   0  0  0  0  0  0  0  0  0  0  0  0
   37.2020   27.4330   44.6510 H   0  0  0  0  0  0  0  0  0  0  0  0
   39.1080   28.3230   43.9190 H   0  0  0  0  0  0  0  0  0  0  0  0
   38.0510   29.8110   43.7630 H   0  0  0  0  0  0  0  0  0  0  0  0
   39.2190   28.0160   41.6440 H   0  0  0  0  0  0  0  0  0  0  0  0
   39.0110   29.7890   41.6150 H   0  0  0  0  0  0  0  0  0  0  0  0
   37.5200   28.7660   40.0960 H   0  0  0  0  0  0  0  0  0  0  0  0
   36.4960   25.6610   39.3620 C   0  0  1  0  0  0  0  0  0  0  0  0
   36.8760   24.9650   40.6140 C   0  0  0  0  0  0  0  0  0  0  0  0
   37.2500   26.3780   40.4200 C   0  0  2  0  0  0  0  0  0  0  0  0
   35.3900   25.8570   39.2420 H   0  0  0  0  0  0  0  0  0  0  0  0
   36.0940   24.7220   41.3720 H   0  0  0  0  0  0  0  0  0  0  0  0
   37.6720   24.1870   40.5810 H   0  0  0  0  0  0  0  0  0  0  0  0
   38.3310   26.5490   40.1530 H   0  0  0  0  0  0  0  0  0  0  0  0
   37.8660   24.0800   37.9650 C   0  0  0  0  0  0  0  0  0  0  0  0
   37.1560   25.2800   38.1130 C   0  0  0  0  0  0  0  0  0  0  0  0
   37.0890   26.1190   36.9800 C   0  0  0  0  0  0  0  0  0  0  0  0
   37.7020   25.7240   35.8330 N   0  0  0  0  0  0  0  0  0  0  0  0
   38.3710   24.5700   35.7290 C   0  0  0  0  0  0  0  0  0  0  0  0
   38.4620   23.7270   36.8020 N   0  0  0  0  0  0  0  0  0  0  0  0
   37.9020   23.4550   38.8530 H   0  0  0  0  0  0  0  0  0  0  0  0
   36.5550   27.0700   37.0180 H   0  0  0  0  0  0  0  0  0  0  0  0
   38.8200   24.3560   34.7680 H   0  0  0  0  0  0  0  0  0  0  0  0
   36.3000   29.6980   41.4870 N   0  0  0  0  0  0  0  0  0  0  0  0
   36.6980   30.3340   42.2610 H   0  0  0  0  0  0  0  0  0  0  0  0
   35.8240   32.6200   40.2750 H   0  0  0  0  0  0  0  0  0  0  0  0
   36.4840   31.9720   40.7630 N   0  0  0  0  0  0  0  0  0  0  0  0
   36.0850   30.6250   40.4000 C   0  0  1  0  0  3  0  0  0  0  0  0
   36.6980   30.1900   39.1110 C   0  0  0  0  0  3  0  0  0  0  0  0
   36.0480   29.4770   38.5620 H   0  0  0  0  0  0  0  0  0  0  0  0
   36.7840   31.3790   38.3240 O   0  0  0  0  0  0  0  0  0  0  0  0
   37.9260   32.0380   38.7830 C   0  0  0  0  0  2  0  0  0  0  0  0
   37.8060   32.3220   40.2680 C   0  0  0  0  0  2  0  0  0  0  0  0
  1  2  1  1  0  0  0
  2  7  1  0  0  0  0
  2  8  1  0  0  0  0
  2  3  1  0  0  0  0
  3  9  1  0  0  0  0
  3 10  1  0  0  0  0
  4  3  1  0  0  0  0
  4 12  1  0  0  0  0
  4 11  1  0  0  0  0
  5  4  1  0  0  0  0
  6 15  1  6  0  0  0
  6  1  1  0  0  0  0
  6 32  1  0  0  0  0
  6  5  1  0  0  0  0
 13  5  1  0  0  0  0
 14  5  1  0  0  0  0
 16 19  1  6  0  0  0
 16 18  1  0  0  0  0
 16 17  1  0  0  0  0
 17 20  1  0  0  0  0
 18 22  1  6  0  0  0
 18 17  1  0  0  0  0
 18  1  1  0  0  0  0
 21 17  1  0  0  0  0
 23 24  1  0  0  0  0
 23 29  1  0  0  0  0
 24 16  1  0  0  0  0
 25 30  1  0  0  0  0
 25 24  2  0  0  0  0
 26 25  1  0  0  0  0
 27 26  2  0  0  0  0
 27 28  1  0  0  0  0
 28 23  2  0  0  0  0
 31 27  1  0  0  0  0
 32 33  1  0  0  0  0
 34 35  1  0  0  0  0
 36 35  1  0  0  0  0
 36 32  1  1  0  0  0
 37 36  1  0  0  0  0
 38 37  1  0  0  0  0
 39 40  1  0  0  0  0
 39 37  1  0  0  0  0
 40 41  1  0  0  0  0
 41 35  1  0  0  0  0
M  END
>  <minimizedAffinity>
-5.21359825

$$$$

 OpenBabel03252506483D

 41 44  0  0  1  0  0  0  0  0999 V2000
   36.8600   29.7230   40.6630 N   0  0  1  0  0  0  0  0  0  0  0  0
   37.2560   31.0990   40.8470 C   0  0  0  0  0  0  0  0  0  0  0  0
   36.9610   31.9810   39.6630 C   0  0  0  0  0  0  0  0  0  0  0  0
   37.8130   31.5400   38.5030 C   0  0  0  0  0  0  0  0  0  0  0  0
   38.0150   30.0290   38.5010 C   0  0  0  0  0  0  0  0  0  0  0  0
   36.8790   29.4150   39.2640 C   0  0  2  0  0  0  0  0  0  0  0  0
   38.3740   31.0990   40.9460 H   0  0  0  0  0  0  0  0  0  0  0  0
   36.8890   31.5240   41.8040 H   0  0  0  0  0  0  0  0  0  0  0  0
   35.9070   32.1520   39.4550 H   0  0  0  0  0  0  0  0  0  0  0  0
   37.3610   32.9930   39.9530 H   0  0  0  0  0  0  0  0  0  0  0  0
   38.7930   32.0350   38.5420 H   0  0  0  0  0  0  0  0  0  0  0  0
   37.2610   31.7800   37.5700 H   0  0  0  0  0  0  0  0  0  0  0  0
   38.9610   29.8090   39.0860 H   0  0  0  0  0  0  0  0  0  0  0  0
   38.1170   29.5890   37.5290 H   0  0  0  0  0  0  0  0  0  0  0  0
   37.0730   28.3030   39.2120 H   0  0  0  0  0  0  0  0  0  0  0  0
   37.2410   27.8850   42.4290 C   0  0  1  0  0  0  0  0  0  0  0  0
   37.7400   29.1910   42.9200 C   0  0  0  0  0  0  0  0  0  0  0  0
   37.7040   28.9190   41.4710 C   0  0  2  0  0  0  0  0  0  0  0  0
   36.1320   27.7160   42.5660 H   0  0  0  0  0  0  0  0  0  0  0  0
   37.0230   29.9370   43.3380 H   0  0  0  0  0  0  0  0  0  0  0  0
   38.7260   29.2340   43.4360 H   0  0  0  0  0  0  0  0  0  0  0  0
   38.7030   28.6780   41.0100 H   0  0  0  0  0  0  0  0  0  0  0  0
   37.7420   25.4440   42.0920 C   0  0  0  0  0  0  0  0  0  0  0  0
   38.0430   26.6860   42.6680 C   0  0  0  0  0  0  0  0  0  0  0  0
   39.1860   26.7390   43.4930 C   0  0  0  0  0  0  0  0  0  0  0  0
   39.9150   25.6070   43.6800 N   0  0  0  0  0  0  0  0  0  0  0  0
   39.5970   24.4380   43.1120 C   0  0  0  0  0  0  0  0  0  0  0  0
   38.4970   24.3400   42.3050 N   0  0  0  0  0  0  0  0  0  0  0  0
   36.8560   25.4310   41.4620 H   0  0  0  0  0  0  0  0  0  0  0  0
   39.4850   27.6700   43.9780 H   0  0  0  0  0  0  0  0  0  0  0  0
   40.2480   23.6010   43.3290 H   0  0  0  0  0  0  0  0  0  0  0  0
   35.6260   29.6570   38.6070 N   0  0  0  0  0  0  0  0  0  0  0  0
   35.8030   29.8830   37.5680 H   0  0  0  0  0  0  0  0  0  0  0  0
   32.8060   28.1640   38.8400 H   0  0  0  0  0  0  0  0  0  0  0  0
   33.3850   28.8660   38.3250 N   0  0  0  0  0  0  0  0  0  0  0  0
   34.7710   28.4940   38.5340 C   0  0  1  0  0  3  0  0  0  0  0  0
   35.2300   27.4730   37.5470 C   0  0  0  0  0  3  0  0  0  0  0  0
   36.0110   26.8080   37.9710 H   0  0  0  0  0  0  0  0  0  0  0  0
   34.0790   26.6670   37.2880 O   0  0  0  0  0  0  0  0  0  0  0  0
   33.3250   27.3950   36.3660 C   0  0  0  0  0  2  0  0  0  0  0  0
   32.9740   28.7570   36.9330 C   0  0  0  0  0  2  0  0  0  0  0  0
  1  2  1  6  0  0  0
  1 18  1  0  0  0  0
  2  7  1  0  0  0  0
  2  8  1  0  0  0  0
  3 10  1  0  0  0  0
  3  2  1  0  0  0  0
  4 11  1  0  0  0  0
  4  3  1  0  0  0  0
  5  4  1  0  0  0  0
  5 13  1  0  0  0  0
  5  6  1  0  0  0  0
  6 15  1  6  0  0  0
  6  1  1  0  0  0  0
  9  3  1  0  0  0  0
 12  4  1  0  0  0  0
 14  5  1  0  0  0  0
 16 19  1  1  0  0  0
 16 24  1  0  0  0  0
 16 17  1  0  0  0  0
 17 20  1  0  0  0  0
 17 21  1  0  0  0  0
 18 22  1  6  0  0  0
 18 16  1  0  0  0  0
 18 17  1  0  0  0  0
 23 28  2  0  0  0  0
 23 24  1  0  0  0  0
 24 25  2  0  0  0  0
 25 26  1  0  0  0  0
 25 30  1  0  0  0  0
 27 31  1  0  0  0  0
 27 26  2  0  0  0  0
 28 27  1  0  0  0  0
 29 23  1  0  0  0  0
 32  6  1  0  0  0  0
 33 32  1  0  0  0  0
 35 36  1  0  0  0  0
 35 34  1  0  0  0  0
 36 32  1  6  0  0  0
 37 38  1  0  0  0  0
 37 36  1  0  0  0  0
 39 37  1  0  0  0  0
 40 41  1  0  0  0  0
 40 39  1  0  0  0  0
 41 35  1  0  0  0  0
M  END
>  <minimizedAffinity>
-5.18845558

$$$$

 OpenBabel03252506483D

 41 44  0  0  1  0  0  0  0  0999 V2000
   37.9300   31.3490   39.5570 N   0  0  1  0  0  0  0  0  0  0  0  0
   36.9510   32.3390   39.9410 C   0  0  0  0  0  0  0  0  0  0  0  0
   37.3250   33.7450   39.5560 C   0  0  0  0  0  0  0  0  0  0  0  0
   38.5420   34.1570   40.3420 C   0  0  0  0  0  0  0  0  0  0  0  0
   39.4840   32.9810   40.5700 C   0  0  0  0  0  0  0  0  0  0  0  0
   39.2200   31.9690   39.4950 C   0  0  2  0  0  0  0  0  0  0  0  0
   36.9170   32.3360   41.0620 H   0  0  0  0  0  0  0  0  0  0  0  0
   35.9230   32.0640   39.6270 H   0  0  0  0  0  0  0  0  0  0  0  0
   37.3420   33.9530   38.4890 H   0  0  0  0  0  0  0  0  0  0  0  0
   36.4880   34.3830   39.9560 H   0  0  0  0  0  0  0  0  0  0  0  0
   38.2430   34.5740   41.3130 H   0  0  0  0  0  0  0  0  0  0  0  0
   39.1050   34.8910   39.7290 H   0  0  0  0  0  0  0  0  0  0  0  0
   39.1970   32.4970   41.5540 H   0  0  0  0  0  0  0  0  0  0  0  0
   40.5240   33.2380   40.6190 H   0  0  0  0  0  0  0  0  0  0  0  0
   39.9550   31.1360   39.7050 H   0  0  0  0  0  0  0  0  0  0  0  0
   36.7860   29.2040   40.4140 C   0  0  1  0  0  0  0  0  0  0  0  0
   36.7130   30.2770   41.4340 C   0  0  0  0  0  0  0  0  0  0  0  0
   37.8240   30.2630   40.4640 C   0  0  2  0  0  0  0  0  0  0  0  0
   35.9890   29.2500   39.6150 H   0  0  0  0  0  0  0  0  0  0  0  0
   35.9400   31.0760   41.3430 H   0  0  0  0  0  0  0  0  0  0  0  0
   36.9240   30.0270   42.4980 H   0  0  0  0  0  0  0  0  0  0  0  0
   38.8080   29.8990   40.8760 H   0  0  0  0  0  0  0  0  0  0  0  0
   37.5710   26.8580   39.9610 C   0  0  0  0  0  0  0  0  0  0  0  0
   37.1000   27.8410   40.8420 C   0  0  0  0  0  0  0  0  0  0  0  0
   36.9510   27.4600   42.1930 C   0  0  0  0  0  0  0  0  0  0  0  0
   37.2660   26.1890   42.5550 N   0  0  0  0  0  0  0  0  0  0  0  0
   37.7150   25.2770   41.6850 C   0  0  0  0  0  0  0  0  0  0  0  0
   37.8740   25.6020   40.3660 N   0  0  0  0  0  0  0  0  0  0  0  0
   37.6760   27.1780   38.9280 H   0  0  0  0  0  0  0  0  0  0  0  0
   36.5880   28.1700   42.9380 H   0  0  0  0  0  0  0  0  0  0  0  0
   37.9360   24.2950   42.0830 H   0  0  0  0  0  0  0  0  0  0  0  0
   39.5390   32.4980   38.1990 N   0  0  0  0  0  0  0  0  0  0  0  0
   39.8690   33.5190   38.2990 H   0  0  0  0  0  0  0  0  0  0  0  0
   41.9370   32.3710   36.0840 H   0  0  0  0  0  0  0  0  0  0  0  0
   41.5450   32.8340   36.9370 N   0  0  0  0  0  0  0  0  0  0  0  0
   40.6750   31.8620   37.5720 C   0  0  1  0  0  3  0  0  0  0  0  0
   41.4280   30.9480   38.4800 C   0  0  0  0  0  3  0  0  0  0  0  0
   40.9620   29.9420   38.5360 H   0  0  0  0  0  0  0  0  0  0  0  0
   42.7080   30.7900   37.8650 O   0  0  0  0  0  0  0  0  0  0  0  0
   43.4270   31.9320   38.2220 C   0  0  0  0  0  2  0  0  0  0  0  0
   42.6990   33.1780   37.7540 C   0  0  0  0  0  2  0  0  0  0  0  0
  1  2  1  1  0  0  0
  1 18  1  0  0  0  0
  2  7  1  0  0  0  0
  3  2  1  0  0  0  0
  3 10  1  0  0  0  0
  3  4  1  0  0  0  0
  4  5  1  0  0  0  0
  4 11  1  0  0  0  0
  5 14  1  0  0  0  0
  5 13  1  0  0  0  0
  6  1  1  0  0  0  0
  6 15  1  1  0  0  0
  6  5  1  0  0  0  0
  8  2  1  0  0  0  0
  9  3  1  0  0  0  0
 12  4  1  0  0  0  0
 16 19  1  6  0  0  0
 16 18  1  0  0  0  0
 16 24  1  0  0  0  0
 16 17  1  0  0  0  0
 17 21  1  0  0  0  0
 18 22  1  1  0  0  0
 18 17  1  0  0  0  0
 20 17  1  0  0  0  0
 23 28  2  0  0  0  0
 23 24  1  0  0  0  0
 24 25  2  0  0  0  0
 25 26  1  0  0  0  0
 25 30  1  0  0  0  0
 27 31  1  0  0  0  0
 27 26  2  0  0  0  0
 28 27  1  0  0  0  0
 29 23  1  0  0  0  0
 32 33  1  0  0  0  0
 32  6  1  0  0  0  0
 34 35  1  0  0  0  0
 35 36  1  0  0  0  0
 35 41  1  0  0  0  0
 36 32  1  1  0  0  0
 36 37  1  0  0  0  0
 37 38  1  0  0  0  0
 39 40  1  0  0  0  0
 39 37  1  0  0  0  0
 41 40  1  0  0  0  0
M  END
>  <minimizedAffinity>
-5.12012815

$$$$

 OpenBabel03252506483D

 41 44  0  0  1  0  0  0  0  0999 V2000
   37.2300   28.9150   41.6110 N   0  0  1  0  0  0  0  0  0  0  0  0
   36.6410   28.0480   42.6060 C   0  0  0  0  0  0  0  0  0  0  0  0
   37.6050   27.6120   43.6770 C   0  0  0  0  0  0  0  0  0  0  0  0
   38.6610   26.7380   43.0550 C   0  0  0  0  0  0  0  0  0  0  0  0
   38.9990   27.1920   41.6390 C   0  0  0  0  0  0  0  0  0  0  0  0
   38.6330   28.6410   41.5250 C   0  0  2  0  0  0  0  0  0  0  0  0
   36.3430   27.1080   42.0720 H   0  0  0  0  0  0  0  0  0  0  0  0
   35.6930   28.4530   43.0160 H   0  0  0  0  0  0  0  0  0  0  0  0
   37.9540   28.3960   44.3450 H   0  0  0  0  0  0  0  0  0  0  0  0
   37.0050   26.9230   44.3370 H   0  0  0  0  0  0  0  0  0  0  0  0
   38.3220   25.6930   43.0280 H   0  0  0  0  0  0  0  0  0  0  0  0
   39.5910   26.8590   43.6490 H   0  0  0  0  0  0  0  0  0  0  0  0
   38.3230   26.6250   40.9270 H   0  0  0  0  0  0  0  0  0  0  0  0
   40.0140   27.0190   41.3400 H   0  0  0  0  0  0  0  0  0  0  0  0
   38.9210   28.9220   40.4680 H   0  0  0  0  0  0  0  0  0  0  0  0
   35.9700   29.8380   39.5600 C   0  0  1  0  0  0  0  0  0  0  0  0
   35.0600   29.0400   40.4150 C   0  0  0  0  0  0  0  0  0  0  0  0
   36.5040   28.7410   40.4040 C   0  0  2  0  0  0  0  0  0  0  0  0
   36.1170   30.9090   39.8900 H   0  0  0  0  0  0  0  0  0  0  0  0
   34.6190   29.4960   41.3330 H   0  0  0  0  0  0  0  0  0  0  0  0
   34.3570   28.3220   39.9340 H   0  0  0  0  0  0  0  0  0  0  0  0
   36.7940   27.8280   39.8110 H   0  0  0  0  0  0  0  0  0  0  0  0
   34.7960   29.0970   37.4640 C   0  0  0  0  0  0  0  0  0  0  0  0
   35.8940   29.6840   38.1080 C   0  0  0  0  0  0  0  0  0  0  0  0
   36.9400   30.1430   37.2800 C   0  0  0  0  0  0  0  0  0  0  0  0
   36.8270   29.9950   35.9340 N   0  0  0  0  0  0  0  0  0  0  0  0
   35.7610   29.4300   35.3540 C   0  0  0  0  0  0  0  0  0  0  0  0
   34.7250   28.9690   36.1180 N   0  0  0  0  0  0  0  0  0  0  0  0
   34.0060   28.7510   38.1250 H   0  0  0  0  0  0  0  0  0  0  0  0
   37.8290   30.6110   37.7080 H   0  0  0  0  0  0  0  0  0  0  0  0
   35.7760   29.3640   34.2740 H   0  0  0  0  0  0  0  0  0  0  0  0
   39.4290   29.4460   42.4080 N   0  0  0  0  0  0  0  0  0  0  0  0
   40.4450   29.0890   42.4010 H   0  0  0  0  0  0  0  0  0  0  0  0
   40.1810   32.5210   42.8680 H   0  0  0  0  0  0  0  0  0  0  0  0
   40.5250   31.5360   42.8050 N   0  0  0  0  0  0  0  0  0  0  0  0
   39.5740   30.8170   41.9770 C   0  0  1  0  0  3  0  0  0  0  0  0
   39.8800   30.9600   40.5240 C   0  0  0  0  0  3  0  0  0  0  0  0
   38.9620   30.9170   39.9010 H   0  0  0  0  0  0  0  0  0  0  0  0
   40.4240   32.2740   40.3890 O   0  0  0  0  0  0  0  0  0  0  0  0
   41.7590   32.1570   40.7810 C   0  0  0  0  0  2  0  0  0  0  0  0
   41.8450   31.6270   42.1990 C   0  0  0  0  0  2  0  0  0  0  0  0
  1  2  1  1  0  0  0
  2  8  1  0  0  0  0
  2  3  1  0  0  0  0
  3 10  1  0  0  0  0
  3  9  1  0  0  0  0
  4 12  1  0  0  0  0
  4  3  1  0  0  0  0
  5  4  1  0  0  0  0
  6 15  1  6  0  0  0
  6  1  1  0  0  0  0
  6  5  1  0  0  0  0
  6 32  1  0  0  0  0
  7  2  1  0  0  0  0
 11  4  1  0  0  0  0
 13  5  1  0  0  0  0
 14  5  1  0  0  0  0
 16 19  1  1  0  0  0
 16 18  1  0  0  0  0
 16 17  1  0  0  0  0
 17 20  1  0  0  0  0
 18 22  1  6  0  0  0
 18 17  1  0  0  0  0
 18  1  1  0  0  0  0
 21 17  1  0  0  0  0
 23 24  1  0  0  0  0
 23 29  1  0  0  0  0
 24 16  1  0  0  0  0
 25 30  1  0  0  0  0
 25 24  2  0  0  0  0
 26 25  1  0  0  0  0
 27 26  2  0  0  0  0
 27 28  1  0  0  0  0
 28 23  2  0  0  0  0
 31 27  1  0  0  0  0
 33 32  1  0  0  0  0
 35 34  1  0  0  0  0
 36 32  1  1  0  0  0
 36 35  1  0  0  0  0
 37 36  1  0  0  0  0
 38 37  1  0  0  0  0
 39 37  1  0  0  0  0
 39 40  1  0  0  0  0
 40 41  1  0  0  0  0
 41 35  1  0  0  0  0
M  END
>  <minimizedAffinity>
-5.06511164

$$$$

 OpenBabel03252506483D

 41 44  0  0  1  0  0  0  0  0999 V2000
   39.8930   32.1350   40.4380 N   0  0  1  0  0  0  0  0  0  0  0  0
   40.9190   33.1490   40.5150 C   0  0  0  0  0  0  0  0  0  0  0  0
   41.0050   34.0190   39.2900 C   0  0  0  0  0  0  0  0  0  0  0  0
   41.4540   33.1780   38.1250 C   0  0  0  0  0  0  0  0  0  0  0  0
   40.8990   31.7610   38.2130 C   0  0  0  0  0  0  0  0  0  0  0  0
   39.6640   31.8070   39.0620 C   0  0  2  0  0  0  0  0  0  0  0  0
   41.9000   32.6070   40.5650 H   0  0  0  0  0  0  0  0  0  0  0  0
   40.8710   33.7320   41.4570 H   0  0  0  0  0  0  0  0  0  0  0  0
   40.1550   34.6750   39.1170 H   0  0  0  0  0  0  0  0  0  0  0  0
   41.8650   34.7180   39.4960 H   0  0  0  0  0  0  0  0  0  0  0  0
   42.5520   33.1330   38.0890 H   0  0  0  0  0  0  0  0  0  0  0  0
   41.0240   33.6220   37.2030 H   0  0  0  0  0  0  0  0  0  0  0  0
   41.6580   31.1280   38.7700 H   0  0  0  0  0  0  0  0  0  0  0  0
   40.7070   31.2920   37.2680 H   0  0  0  0  0  0  0  0  0  0  0  0
   39.2910   30.7390   39.0760 H   0  0  0  0  0  0  0  0  0  0  0  0
   39.6190   30.6250   42.5100 C   0  0  1  0  0  0  0  0  0  0  0  0
   40.9040   31.3610   42.5670 C   0  0  0  0  0  0  0  0  0  0  0  0
   40.2960   31.0510   41.2600 C   0  0  2  0  0  0  0  0  0  0  0  0
   38.7210   31.2060   42.8760 H   0  0  0  0  0  0  0  0  0  0  0  0
   40.9200   32.4240   42.9060 H   0  0  0  0  0  0  0  0  0  0  0  0
   41.8250   30.8170   42.8760 H   0  0  0  0  0  0  0  0  0  0  0  0
   40.7770   30.1960   40.7060 H   0  0  0  0  0  0  0  0  0  0  0  0
   38.4050   28.5260   43.1770 C   0  0  0  0  0  0  0  0  0  0  0  0
   39.5930   29.2150   42.8930 C   0  0  0  0  0  0  0  0  0  0  0  0
   40.7900   28.4720   42.9800 C   0  0  0  0  0  0  0  0  0  0  0  0
   40.7250   27.1590   43.3260 N   0  0  0  0  0  0  0  0  0  0  0  0
   39.5710   26.5350   43.5890 C   0  0  0  0  0  0  0  0  0  0  0  0
   38.3870   27.2160   43.5180 N   0  0  0  0  0  0  0  0  0  0  0  0
   37.5000   29.1220   43.1040 H   0  0  0  0  0  0  0  0  0  0  0  0
   41.7550   28.9380   42.7750 H   0  0  0  0  0  0  0  0  0  0  0  0
   39.6370   25.4880   43.8530 H   0  0  0  0  0  0  0  0  0  0  0  0
   38.6420   32.6040   38.4460 N   0  0  0  0  0  0  0  0  0  0  0  0
   38.9950   32.9660   37.4950 H   0  0  0  0  0  0  0  0  0  0  0  0
   36.7640   31.0680   36.3600 H   0  0  0  0  0  0  0  0  0  0  0  0
   37.6750   31.0810   36.8740 N   0  0  0  0  0  0  0  0  0  0  0  0
   37.4600   31.8580   38.0800 C   0  0  1  0  0  3  0  0  0  0  0  0
   36.9080   31.0270   39.1890 C   0  0  0  0  0  3  0  0  0  0  0  0
   36.2600   31.6190   39.8680 H   0  0  0  0  0  0  0  0  0  0  0  0
   36.0770   30.0590   38.5450 O   0  0  0  0  0  0  0  0  0  0  0  0
   36.9540   29.0760   38.0840 C   0  0  0  0  0  2  0  0  0  0  0  0
   37.9810   29.6850   37.1490 C   0  0  0  0  0  2  0  0  0  0  0  0
  1  2  1  6  0  0  0
  1 18  1  0  0  0  0
  2  7  1  0  0  0  0
  2  8  1  0  0  0  0
  3 10  1  0  0  0  0
  3  2  1  0  0  0  0
  4  5  1  0  0  0  0
  4  3  1  0  0  0  0
  5 13  1  0  0  0  0
  5  6  1  0  0  0  0
  6 15  1  1  0  0  0
  6  1  1  0  0  0  0
  9  3  1  0  0  0  0
 11  4  1  0  0  0  0
 12  4  1  0  0  0  0
 14  5  1  0  0  0  0
 16 17  1  0  0  0  0
 16 19  1  1  0  0  0
 16 24  1  0  0  0  0
 17 21  1  0  0  0  0
 17 20  1  0  0  0  0
 18 22  1  6  0  0  0
 18 16  1  0  0  0  0
 18 17  1  0  0  0  0
 23 28  1  0  0  0  0
 24 25  1  0  0  0  0
 24 23  2  0  0  0  0
 25 26  2  0  0  0  0
 26 27  1  0  0  0  0
 27 31  1  0  0  0  0
 28 27  2  0  0  0  0
 29 23  1  0  0  0  0
 30 25  1  0  0  0  0
 32  6  1  0  0  0  0
 33 32  1  0  0  0  0
 34 35  1  0  0  0  0
 35 41  1  0  0  0  0
 35 36  1  0  0  0  0
 36 32  1  1  0  0  0
 36 37  1  0  0  0  0
 37 38  1  0  0  0  0
 39 37  1  0  0  0  0
 40 39  1  0  0  0  0
 41 40  1  0  0  0  0
M  END
>  <minimizedAffinity>
-4.92052698

$$$$

 OpenBabel03252506483D

 41 44  0  0  1  0  0  0  0  0999 V2000
   36.3800   29.9340   38.6110 N   0  0  1  0  0  0  0  0  0  0  0  0
   35.4980   29.4030   37.5970 C   0  0  0  0  0  0  0  0  0  0  0  0
   34.6950   28.2140   38.0520 C   0  0  0  0  0  0  0  0  0  0  0  0
   35.6320   27.0650   38.3150 C   0  0  0  0  0  0  0  0  0  0  0  0
   36.9640   27.5490   38.8770 C   0  0  0  0  0  0  0  0  0  0  0  0
   36.7320   28.8830   39.5190 C   0  0  2  0  0  0  0  0  0  0  0  0
   36.1560   29.0210   36.7720 H   0  0  0  0  0  0  0  0  0  0  0  0
   34.8760   30.1890   37.1200 H   0  0  0  0  0  0  0  0  0  0  0  0
   33.9460   28.4150   38.8150 H   0  0  0  0  0  0  0  0  0  0  0  0
   34.1010   27.9070   37.1460 H   0  0  0  0  0  0  0  0  0  0  0  0
   35.8140   26.5030   37.3890 H   0  0  0  0  0  0  0  0  0  0  0  0
   35.1750   26.4320   39.1040 H   0  0  0  0  0  0  0  0  0  0  0  0
   37.6630   27.7230   38.0010 H   0  0  0  0  0  0  0  0  0  0  0  0
   37.4430   26.8670   39.5520 H   0  0  0  0  0  0  0  0  0  0  0  0
   37.7430   29.1790   39.9290 H   0  0  0  0  0  0  0  0  0  0  0  0
   38.6430   31.1670   38.6250 C   0  0  1  0  0  0  0  0  0  0  0  0
   37.5870   32.0230   38.0340 C   0  0  0  0  0  0  0  0  0  0  0  0
   37.4710   30.5550   37.9510 C   0  0  2  0  0  0  0  0  0  0  0  0
   38.6880   31.1760   39.7540 H   0  0  0  0  0  0  0  0  0  0  0  0
   36.8830   32.5730   38.7020 H   0  0  0  0  0  0  0  0  0  0  0  0
   37.8130   32.5990   37.1090 H   0  0  0  0  0  0  0  0  0  0  0  0
   37.7200   30.1170   36.9440 H   0  0  0  0  0  0  0  0  0  0  0  0
   40.6670   29.9400   37.7740 C   0  0  0  0  0  0  0  0  0  0  0  0
   39.9610   31.1320   37.9930 C   0  0  0  0  0  0  0  0  0  0  0  0
   40.5800   32.3220   37.5550 C   0  0  0  0  0  0  0  0  0  0  0  0
   41.7990   32.2470   36.9580 N   0  0  0  0  0  0  0  0  0  0  0  0
   42.4420   31.0900   36.7650 C   0  0  0  0  0  0  0  0  0  0  0  0
   41.8800   29.9120   37.1740 N   0  0  0  0  0  0  0  0  0  0  0  0
   40.1680   29.0400   38.1220 H   0  0  0  0  0  0  0  0  0  0  0  0
   40.0930   33.2890   37.6900 H   0  0  0  0  0  0  0  0  0  0  0  0
   43.4080   31.1480   36.2790 H   0  0  0  0  0  0  0  0  0  0  0  0
   35.8390   28.7700   40.6370 N   0  0  0  0  0  0  0  0  0  0  0  0
   35.5380   27.7420   40.7540 H   0  0  0  0  0  0  0  0  0  0  0  0
   36.2240   28.3630   43.7870 H   0  0  0  0  0  0  0  0  0  0  0  0
   36.3260   27.9490   42.8320 N   0  0  0  0  0  0  0  0  0  0  0  0
   36.4560   29.0620   41.9100 C   0  0  1  0  0  3  0  0  0  0  0  0
   37.8680   29.5320   41.7980 C   0  0  0  0  0  3  0  0  0  0  0  0
   37.9270   30.6190   41.5790 H   0  0  0  0  0  0  0  0  0  0  0  0
   38.4280   29.3290   43.0970 O   0  0  0  0  0  0  0  0  0  0  0  0
   38.7570   27.9730   43.1430 C   0  0  0  0  0  2  0  0  0  0  0  0
   37.5240   27.1250   42.8950 C   0  0  0  0  0  2  0  0  0  0  0  0
  1  2  1  6  0  0  0
  1  6  1  0  0  0  0
  2  3  1  0  0  0  0
  3  4  1  0  0  0  0
  3  9  1  0  0  0  0
  4  5  1  0  0  0  0
  4 12  1  0  0  0  0
  5  6  1  0  0  0  0
  5 14  1  0  0  0  0
  6 15  1  1  0  0  0
  6 32  1  0  0  0  0
  7  2  1  0  0  0  0
  8  2  1  0  0  0  0
 10  3  1  0  0  0  0
 11  4  1  0  0  0  0
 13  5  1  0  0  0  0
 16 19  1  1  0  0  0
 17 16  1  0  0  0  0
 17 20  1  0  0  0  0
 18 22  1  6  0  0  0
 18 17  1  0  0  0  0
 18  1  1  0  0  0  0
 18 16  1  0  0  0  0
 21 17  1  0  0  0  0
 23 24  1  0  0  0  0
 23 29  1  0  0  0  0
 24 16  1  0  0  0  0
 25 30  1  0  0  0  0
 25 24  2  0  0  0  0
 26 25  1  0  0  0  0
 27 26  2  0  0  0  0
 27 28  1  0  0  0  0
 28 23  2  0  0  0  0
 31 27  1  0  0  0  0
 32 33  1  0  0  0  0
 35 41  1  0  0  0  0
 35 34  1  0  0  0  0
 36 32  1  6  0  0  0
 36 35  1  0  0  0  0
 37 36  1  0  0  0  0
 37 39  1  0  0  0  0
 38 37  1  0  0  0  0
 39 40  1  0  0  0  0
 41 40  1  0  0  0  0
M  END
>  <minimizedAffinity>
-4.89511299

$$$$

 OpenBabel03252506483D

 41 44  0  0  1  0  0  0  0  0999 V2000
   36.6690   30.1720   40.0760 N   0  0  1  0  0  0  0  0  0  0  0  0
   35.8250   30.0690   38.9080 C   0  0  0  0  0  0  0  0  0  0  0  0
   35.1220   28.7430   38.7830 C   0  0  0  0  0  0  0  0  0  0  0  0
   36.1490   27.6670   38.5500 C   0  0  0  0  0  0  0  0  0  0  0  0
   37.4430   27.9580   39.3010 C   0  0  0  0  0  0  0  0  0  0  0  0
   37.1100   28.8620   40.4510 C   0  0  2  0  0  0  0  0  0  0  0  0
   36.5050   30.1310   38.0170 H   0  0  0  0  0  0  0  0  0  0  0  0
   35.1400   30.9340   38.8000 H   0  0  0  0  0  0  0  0  0  0  0  0
   34.3660   28.5380   39.5370 H   0  0  0  0  0  0  0  0  0  0  0  0
   34.5480   28.8150   37.8160 H   0  0  0  0  0  0  0  0  0  0  0  0
   36.3680   27.5770   37.4770 H   0  0  0  0  0  0  0  0  0  0  0  0
   35.7490   26.7230   38.9750 H   0  0  0  0  0  0  0  0  0  0  0  0
   38.1190   28.5450   38.6060 H   0  0  0  0  0  0  0  0  0  0  0  0
   37.9790   27.0890   39.6290 H   0  0  0  0  0  0  0  0  0  0  0  0
   38.0980   29.0260   40.9760 H   0  0  0  0  0  0  0  0  0  0  0  0
   38.1420   32.2050   40.6630 C   0  0  1  0  0  0  0  0  0  0  0  0
   37.3220   32.4860   39.4610 C   0  0  0  0  0  0  0  0  0  0  0  0
   37.7040   31.0970   39.7790 C   0  0  2  0  0  0  0  0  0  0  0  0
   37.6130   32.3660   41.6490 H   0  0  0  0  0  0  0  0  0  0  0  0
   36.2520   32.7810   39.5760 H   0  0  0  0  0  0  0  0  0  0  0  0
   37.7960   32.9890   38.5880 H   0  0  0  0  0  0  0  0  0  0  0  0
   38.5380   30.6800   39.1480 H   0  0  0  0  0  0  0  0  0  0  0  0
   39.9980   33.7650   39.9980 C   0  0  0  0  0  0  0  0  0  0  0  0
   39.5410   32.6290   40.6800 C   0  0  0  0  0  0  0  0  0  0  0  0
   40.5040   31.9020   41.4110 C   0  0  0  0  0  0  0  0  0  0  0  0
   41.7920   32.3350   41.4150 N   0  0  0  0  0  0  0  0  0  0  0  0
   42.1910   33.4270   40.7510 C   0  0  0  0  0  0  0  0  0  0  0  0
   41.2920   34.1610   40.0280 N   0  0  0  0  0  0  0  0  0  0  0  0
   39.2360   34.3050   39.4420 H   0  0  0  0  0  0  0  0  0  0  0  0
   40.2250   31.0050   41.9680 H   0  0  0  0  0  0  0  0  0  0  0  0
   43.2410   33.6800   40.8240 H   0  0  0  0  0  0  0  0  0  0  0  0
   36.2380   28.2100   41.3850 N   0  0  0  0  0  0  0  0  0  0  0  0
   35.8520   27.3050   40.9440 H   0  0  0  0  0  0  0  0  0  0  0  0
   36.8770   25.9860   43.5940 H   0  0  0  0  0  0  0  0  0  0  0  0
   36.9550   26.2710   42.5910 N   0  0  0  0  0  0  0  0  0  0  0  0
   36.9080   27.7210   42.5670 C   0  0  1  0  0  3  0  0  0  0  0  0
   38.2540   28.3260   42.7870 C   0  0  0  0  0  3  0  0  0  0  0  0
   38.1890   29.3110   43.2950 H   0  0  0  0  0  0  0  0  0  0  0  0
   38.9200   27.4300   43.6800 O   0  0  0  0  0  0  0  0  0  0  0  0
   39.3860   26.3920   42.8720 C   0  0  0  0  0  2  0  0  0  0  0  0
   38.2310   25.7390   42.1370 C   0  0  0  0  0  2  0  0  0  0  0  0
  1  2  1  6  0  0  0
  1  6  1  0  0  0  0
  3  2  1  0  0  0  0
  3  9  1  0  0  0  0
  4  3  1  0  0  0  0
  4 12  1  0  0  0  0
  4  5  1  0  0  0  0
  5 14  1  0  0  0  0
  5  6  1  0  0  0  0
  6 15  1  1  0  0  0
  6 32  1  0  0  0  0
  7  2  1  0  0  0  0
  8  2  1  0  0  0  0
 10  3  1  0  0  0  0
 11  4  1  0  0  0  0
 13  5  1  0  0  0  0
 16 24  1  0  0  0  0
 16 19  1  1  0  0  0
 17 20  1  0  0  0  0
 17 18  1  0  0  0  0
 17 16  1  0  0  0  0
 18 22  1  6  0  0  0
 18  1  1  0  0  0  0
 18 16  1  0  0  0  0
 21 17  1  0  0  0  0
 23 28  2  0  0  0  0
 23 24  1  0  0  0  0
 24 25  2  0  0  0  0
 25 26  1  0  0  0  0
 25 30  1  0  0  0  0
 27 31  1  0  0  0  0
 27 26  2  0  0  0  0
 28 27  1  0  0  0  0
 29 23  1  0  0  0  0
 33 32  1  0  0  0  0
 35 34  1  0  0  0  0
 36 32  1  6  0  0  0
 36 35  1  0  0  0  0
 36 37  1  0  0  0  0
 37 38  1  0  0  0  0
 37 39  1  0  0  0  0
 40 39  1  0  0  0  0
 41 35  1  0  0  0  0
 41 40  1  0  0  0  0
M  END
>  <minimizedAffinity>
-4.84366846

$$$$

 OpenBabel03252506483D

 41 44  0  0  1  0  0  0  0  0999 V2000
   37.3180   29.8420   40.4110 N   0  0  1  0  0  0  0  0  0  0  0  0
   37.1820   31.1340   41.0430 C   0  0  0  0  0  0  0  0  0  0  0  0
   37.0280   32.2730   40.0700 C   0  0  0  0  0  0  0  0  0  0  0  0
   38.3040   32.4180   39.2840 C   0  0  0  0  0  0  0  0  0  0  0  0
   38.9570   31.0650   39.0260 C   0  0  0  0  0  0  0  0  0  0  0  0
   37.8870   30.0180   39.1080 C   0  0  2  0  0  0  0  0  0  0  0  0
   38.1470   31.3300   41.5800 H   0  0  0  0  0  0  0  0  0  0  0  0
   36.4100   31.1390   41.8390 H   0  0  0  0  0  0  0  0  0  0  0  0
   36.1020   32.2830   39.5000 H   0  0  0  0  0  0  0  0  0  0  0  0
   36.9740   33.1940   40.7150 H   0  0  0  0  0  0  0  0  0  0  0  0
   39.0110   33.0630   39.8240 H   0  0  0  0  0  0  0  0  0  0  0  0
   38.0400   32.8300   38.2870 H   0  0  0  0  0  0  0  0  0  0  0  0
   39.6800   30.8650   39.8760 H   0  0  0  0  0  0  0  0  0  0  0  0
   39.5030   30.9960   38.1050 H   0  0  0  0  0  0  0  0  0  0  0  0
   38.4250   29.0470   38.8920 H   0  0  0  0  0  0  0  0  0  0  0  0
   37.4800   27.9760   42.1820 C   0  0  1  0  0  0  0  0  0  0  0  0
   37.9570   29.2650   42.7370 C   0  0  0  0  0  0  0  0  0  0  0  0
   38.0600   29.0100   41.2890 C   0  0  2  0  0  0  0  0  0  0  0  0
   36.3600   27.8320   42.2050 H   0  0  0  0  0  0  0  0  0  0  0  0
   37.2190   30.0220   43.0920 H   0  0  0  0  0  0  0  0  0  0  0  0
   38.8870   29.2790   43.3490 H   0  0  0  0  0  0  0  0  0  0  0  0
   39.0940   28.7500   40.9260 H   0  0  0  0  0  0  0  0  0  0  0  0
   39.2930   26.7240   43.3940 C   0  0  0  0  0  0  0  0  0  0  0  0
   38.2280   26.7560   42.4830 C   0  0  0  0  0  0  0  0  0  0  0  0
   37.8890   25.5340   41.8650 C   0  0  0  0  0  0  0  0  0  0  0  0
   38.5980   24.4180   42.1810 N   0  0  0  0  0  0  0  0  0  0  0  0
   39.6090   24.4260   43.0580 C   0  0  0  0  0  0  0  0  0  0  0  0
   39.9730   25.5880   43.6790 N   0  0  0  0  0  0  0  0  0  0  0  0
   39.5340   27.6790   43.8540 H   0  0  0  0  0  0  0  0  0  0  0  0
   37.0710   25.4780   41.1430 H   0  0  0  0  0  0  0  0  0  0  0  0
   40.1040   23.4800   43.2340 H   0  0  0  0  0  0  0  0  0  0  0  0
   36.9080   30.1980   38.0750 N   0  0  0  0  0  0  0  0  0  0  0  0
   37.3980   30.4990   37.1640 H   0  0  0  0  0  0  0  0  0  0  0  0
   35.3470   27.4720   38.6830 H   0  0  0  0  0  0  0  0  0  0  0  0
   35.3280   28.5170   38.7120 N   0  0  0  0  0  0  0  0  0  0  0  0
   36.2410   28.9770   37.6830 C   0  0  1  0  0  3  0  0  0  0  0  0
   35.5820   29.0560   36.3470 C   0  0  0  0  0  3  0  0  0  0  0  0
   36.2970   28.8680   35.5190 H   0  0  0  0  0  0  0  0  0  0  0  0
   34.6340   27.9870   36.3400 O   0  0  0  0  0  0  0  0  0  0  0  0
   33.5320   28.4730   37.0460 C   0  0  0  0  0  2  0  0  0  0  0  0
   33.9450   28.8840   38.4460 C   0  0  0  0  0  2  0  0  0  0  0  0
  1  2  1  1  0  0  0
  1 18  1  0  0  0  0
  2  7  1  0  0  0  0
  2  8  1  0  0  0  0
  3 10  1  0  0  0  0
  3  2  1  0  0  0  0
  4 11  1  0  0  0  0
  4  3  1  0  0  0  0
  5  6  1  0  0  0  0
  5  4  1  0  0  0  0
  5 13  1  0  0  0  0
  6 15  1  6  0  0  0
  6  1  1  0  0  0  0
  9  3  1  0  0  0  0
 12  4  1  0  0  0  0
 14  5  1  0  0  0  0
 16 19  1  6  0  0  0
 16 24  1  0  0  0  0
 16 17  1  0  0  0  0
 17 20  1  0  0  0  0
 17 21  1  0  0  0  0
 18 22  1  6  0  0  0
 18 16  1  0  0  0  0
 18 17  1  0  0  0  0
 23 28  1  0  0  0  0
 23 29  1  0  0  0  0
 24 23  2  0  0  0  0
 25 26  2  0  0  0  0
 25 24  1  0  0  0  0
 26 27  1  0  0  0  0
 27 31  1  0  0  0  0
 27 28  2  0  0  0  0
 30 25  1  0  0  0  0
 32  6  1  0  0  0  0
 33 32  1  0  0  0  0
 34 35  1  0  0  0  0
 36 32  1  1  0  0  0
 36 35  1  0  0  0  0
 37 36  1  0  0  0  0
 38 37  1  0  0  0  0
 39 37  1  0  0  0  0
 39 40  1  0  0  0  0
 40 41  1  0  0  0  0
 41 35  1  0  0  0  0
M  END
>  <minimizedAffinity>
-4.8432765

$$$$
