
 OpenBabel03242515293D

 31 33  0  0  1  0  0  0  0  0999 V2000
   39.1360   28.0510   41.3680 C   0  0  0  0  0  0  0  0  0  0  0  0
   38.2650   27.9080   42.4630 C   0  0  0  0  0  0  0  0  0  0  0  0
   37.3270   28.9020   42.6420 C   0  0  0  0  0  0  0  0  0  0  0  0
   37.2770   29.9460   41.7910 N   0  0  0  0  0  0  0  0  0  0  0  0
   38.1520   30.0230   40.7530 C   0  0  0  0  0  0  0  0  0  0  0  0
   39.0990   29.0920   40.5070 N   0  0  0  0  0  0  0  0  0  0  0  0
   39.8890   27.2980   41.1840 H   0  0  0  0  0  0  0  0  0  0  0  0
   36.6550   28.7920   43.4840 H   0  0  0  0  0  0  0  0  0  0  0  0
   38.4470   26.7210   43.3090 C   0  0  0  0  0  0  0  0  0  0  0  0
   39.4260   26.7090   43.7760 H   0  0  0  0  0  0  0  0  0  0  0  0
   37.7120   26.8020   44.1620 H   0  0  0  0  0  0  0  0  0  0  0  0
   38.1550   25.5520   42.5120 N   0  0  0  0  0  0  0  0  0  0  0  0
   37.0200   25.4460   41.8380 C   0  0  0  0  0  0  0  0  0  0  0  0
   36.8120   24.2980   41.1010 C   0  0  0  0  0  0  0  0  0  0  0  0
   37.7390   23.2820   41.0500 C   0  0  0  0  0  0  0  0  0  0  0  0
   37.4920   22.2710   40.3660 O   0  0  0  0  0  0  0  0  0  0  0  0
   38.8900   23.4210   41.7490 N   0  0  0  0  0  0  0  0  0  0  0  0
   39.0960   24.5430   42.4720 C   0  0  0  0  0  0  0  0  0  0  0  0
   40.1950   24.6030   43.0990 O   0  0  0  0  0  0  0  0  0  0  0  0
   36.3140   26.2610   41.9000 H   0  0  0  0  0  0  0  0  0  0  0  0
   35.8920   24.1880   40.5420 H   0  0  0  0  0  0  0  0  0  0  0  0
   39.5940   22.6530   41.7120 H   0  0  0  0  0  0  0  0  0  0  0  0
   38.1140   31.1080   39.8650 O   0  0  0  0  0  0  0  0  0  0  0  0
   39.3450   32.8140   38.5440 H   0  0  0  0  0  0  0  0  0  0  0  0
   38.9240   33.2880   39.3790 N   0  0  0  0  0  0  0  0  0  0  0  0
   38.5720   32.3510   40.4050 C   0  0  2  0  0  3  0  0  0  0  0  0
   39.8620   32.0240   41.1660 C   0  0  0  0  0  3  0  0  0  0  0  0
   39.8230   30.9670   41.5510 H   0  0  0  0  0  0  0  0  0  0  0  0
   40.9540   32.0640   40.2900 O   0  0  0  0  0  0  0  0  0  0  0  0
   41.2640   33.4320   40.1640 C   0  0  0  0  0  2  0  0  0  0  0  0
   39.9590   34.1610   39.9070 C   0  0  0  0  0  2  0  0  0  0  0  0
  1  2  1  0  0  0  0
  2  3  2  0  0  0  0
  2  9  1  0  0  0  0
  3  8  1  0  0  0  0
  4  3  1  0  0  0  0
  5  4  2  0  0  0  0
  6  5  1  0  0  0  0
  6  1  2  0  0  0  0
  7  1  1  0  0  0  0
  9 10  1  0  0  0  0
  9 11  1  0  0  0  0
 12  9  1  0  0  0  0
 13 20  1  0  0  0  0
 13 12  1  0  0  0  0
 14 13  2  0  0  0  0
 15 14  1  0  0  0  0
 15 17  1  0  0  0  0
 16 15  2  0  0  0  0
 17 18  1  0  0  0  0
 18 12  1  0  0  0  0
 18 19  2  0  0  0  0
 21 14  1  0  0  0  0
 22 17  1  0  0  0  0
 23  5  1  0  0  0  0
 24 25  1  0  0  0  0
 25 31  1  0  0  0  0
 25 26  1  0  0  0  0
 26 23  1  6  0  0  0
 26 27  1  0  0  0  0
 27 28  1  0  0  0  0
 29 27  1  0  0  0  0
 30 29  1  0  0  0  0
 31 30  1  0  0  0  0
M  END
>  <minimizedAffinity>
-5.16113424

$$$$

 OpenBabel03242515293D

 31 33  0  0  1  0  0  0  0  0999 V2000
   36.6480   28.4540   42.1000 C   0  0  0  0  0  0  0  0  0  0  0  0
   37.1490   29.7370   41.8110 C   0  0  0  0  0  0  0  0  0  0  0  0
   38.4680   29.9740   42.1340 C   0  0  0  0  0  0  0  0  0  0  0  0
   39.2110   29.0010   42.7000 N   0  0  0  0  0  0  0  0  0  0  0  0
   38.6620   27.7830   42.9540 C   0  0  0  0  0  0  0  0  0  0  0  0
   37.3800   27.4690   42.6670 N   0  0  0  0  0  0  0  0  0  0  0  0
   35.6210   28.2190   41.8640 H   0  0  0  0  0  0  0  0  0  0  0  0
   38.8550   30.9600   41.9120 H   0  0  0  0  0  0  0  0  0  0  0  0
   36.2170   30.6950   41.2030 C   0  0  0  0  0  0  0  0  0  0  0  0
   35.1900   30.3540   41.2740 H   0  0  0  0  0  0  0  0  0  0  0  0
   36.2590   31.6400   41.8190 H   0  0  0  0  0  0  0  0  0  0  0  0
   36.6620   30.9610   39.8540 N   0  0  0  0  0  0  0  0  0  0  0  0
   36.4930   30.0730   38.8880 C   0  0  0  0  0  0  0  0  0  0  0  0
   36.9470   30.3990   37.6260 C   0  0  0  0  0  0  0  0  0  0  0  0
   37.5580   31.6020   37.3550 C   0  0  0  0  0  0  0  0  0  0  0  0
   37.9440   31.8360   36.1950 O   0  0  0  0  0  0  0  0  0  0  0  0
   37.7140   32.4900   38.3650 N   0  0  0  0  0  0  0  0  0  0  0  0
   37.2720   32.1740   39.6010 C   0  0  0  0  0  0  0  0  0  0  0  0
   37.4530   33.0530   40.4940 O   0  0  0  0  0  0  0  0  0  0  0  0
   36.0110   29.1390   39.1340 H   0  0  0  0  0  0  0  0  0  0  0  0
   36.8200   29.6890   36.8180 H   0  0  0  0  0  0  0  0  0  0  0  0
   38.1760   33.4020   38.1620 H   0  0  0  0  0  0  0  0  0  0  0  0
   39.4240   26.7660   43.5480 O   0  0  0  0  0  0  0  0  0  0  0  0
   38.6380   26.3760   41.2230 H   0  0  0  0  0  0  0  0  0  0  0  0
   39.6480   26.1000   41.2780 N   0  0  0  0  0  0  0  0  0  0  0  0
   40.0700   25.8790   42.6300 C   0  0  2  0  0  3  0  0  0  0  0  0
   39.6020   24.4700   43.0140 C   0  0  0  0  0  3  0  0  0  0  0  0
   39.3700   24.4290   44.1140 H   0  0  0  0  0  0  0  0  0  0  0  0
   38.3970   24.1760   42.3650 O   0  0  0  0  0  0  0  0  0  0  0  0
   38.7730   23.7970   41.0620 C   0  0  0  0  0  2  0  0  0  0  0  0
   39.7570   24.8380   40.5640 C   0  0  0  0  0  2  0  0  0  0  0  0
  1  6  1  0  0  0  0
  2  1  2  0  0  0  0
  2  3  1  0  0  0  0
  3  4  2  0  0  0  0
  4  5  1  0  0  0  0
  5 23  1  0  0  0  0
  6  5  2  0  0  0  0
  7  1  1  0  0  0  0
  8  3  1  0  0  0  0
  9 10  1  0  0  0  0
  9  2  1  0  0  0  0
  9 11  1  0  0  0  0
 12  9  1  0  0  0  0
 13 20  1  0  0  0  0
 13 12  1  0  0  0  0
 14 13  2  0  0  0  0
 15 14  1  0  0  0  0
 15 17  1  0  0  0  0
 16 15  2  0  0  0  0
 17 18  1  0  0  0  0
 18 12  1  0  0  0  0
 18 19  2  0  0  0  0
 21 14  1  0  0  0  0
 22 17  1  0  0  0  0
 24 25  1  0  0  0  0
 25 26  1  0  0  0  0
 26 27  1  0  0  0  0
 26 23  1  1  0  0  0
 27 28  1  0  0  0  0
 29 27  1  0  0  0  0
 30 29  1  0  0  0  0
 31 30  1  0  0  0  0
 31 25  1  0  0  0  0
M  END
>  <minimizedAffinity>
-5.14915848

$$$$

 OpenBabel03242515293D

 31 33  0  0  1  0  0  0  0  0999 V2000
   36.8680   30.3720   41.4750 C   0  0  0  0  0  0  0  0  0  0  0  0
   37.2010   30.3060   40.1090 C   0  0  0  0  0  0  0  0  0  0  0  0
   37.6570   29.0920   39.6410 C   0  0  0  0  0  0  0  0  0  0  0  0
   37.7680   28.0430   40.4800 N   0  0  0  0  0  0  0  0  0  0  0  0
   37.4310   28.1770   41.7900 C   0  0  0  0  0  0  0  0  0  0  0  0
   36.9740   29.3300   42.3280 N   0  0  0  0  0  0  0  0  0  0  0  0
   36.5050   31.3010   41.8890 H   0  0  0  0  0  0  0  0  0  0  0  0
   37.9130   29.0400   38.5910 H   0  0  0  0  0  0  0  0  0  0  0  0
   37.0370   31.5360   39.3230 C   0  0  0  0  0  0  0  0  0  0  0  0
   36.2500   31.4350   38.5830 H   0  0  0  0  0  0  0  0  0  0  0  0
   36.6790   32.3390   40.0290 H   0  0  0  0  0  0  0  0  0  0  0  0
   38.3250   31.8940   38.7740 N   0  0  0  0  0  0  0  0  0  0  0  0
   39.3210   32.2810   39.5560 C   0  0  0  0  0  0  0  0  0  0  0  0
   40.5210   32.6090   38.9580 C   0  0  0  0  0  0  0  0  0  0  0  0
   40.7020   32.5430   37.5950 C   0  0  0  0  0  0  0  0  0  0  0  0
   41.8090   32.8520   37.1170 O   0  0  0  0  0  0  0  0  0  0  0  0
   39.6640   32.1430   36.8230 N   0  0  0  0  0  0  0  0  0  0  0  0
   38.4880   31.8220   37.4050 C   0  0  0  0  0  0  0  0  0  0  0  0
   37.5650   31.4560   36.6200 O   0  0  0  0  0  0  0  0  0  0  0  0
   39.1450   32.3210   40.6210 H   0  0  0  0  0  0  0  0  0  0  0  0
   41.3500   32.9280   39.5760 H   0  0  0  0  0  0  0  0  0  0  0  0
   39.7990   32.0920   35.7900 H   0  0  0  0  0  0  0  0  0  0  0  0
   37.5470   27.0940   42.6730 O   0  0  0  0  0  0  0  0  0  0  0  0
   39.6020   28.3500   42.0650 H   0  0  0  0  0  0  0  0  0  0  0  0
   39.6430   28.1320   43.0900 N   0  0  0  0  0  0  0  0  0  0  0  0
   38.7510   27.0680   43.4460 C   0  0  2  0  0  3  0  0  0  0  0  0
   39.4550   25.7580   43.0770 C   0  0  0  0  0  3  0  0  0  0  0  0
   38.6940   24.9830   42.7830 H   0  0  0  0  0  0  0  0  0  0  0  0
   40.2520   25.9500   41.9420 O   0  0  0  0  0  0  0  0  0  0  0  0
   41.4280   26.5540   42.4260 C   0  0  0  0  0  2  0  0  0  0  0  0
   41.0010   27.6810   43.3470 C   0  0  0  0  0  2  0  0  0  0  0  0
  1  7  1  0  0  0  0
  1  6  1  0  0  0  0
  2  1  2  0  0  0  0
  3  2  1  0  0  0  0
  3  4  2  0  0  0  0
  4  5  1  0  0  0  0
  5  6  2  0  0  0  0
  5 23  1  0  0  0  0
  8  3  1  0  0  0  0
  9 11  1  0  0  0  0
  9  2  1  0  0  0  0
 10  9  1  0  0  0  0
 12  9  1  0  0  0  0
 12 13  1  0  0  0  0
 13 20  1  0  0  0  0
 14 13  2  0  0  0  0
 14 21  1  0  0  0  0
 15 14  1  0  0  0  0
 16 15  2  0  0  0  0
 17 18  1  0  0  0  0
 17 15  1  0  0  0  0
 18 12  1  0  0  0  0
 19 18  2  0  0  0  0
 22 17  1  0  0  0  0
 24 25  1  0  0  0  0
 25 31  1  0  0  0  0
 25 26  1  0  0  0  0
 26 23  1  6  0  0  0
 27 26  1  0  0  0  0
 28 27  1  0  0  0  0
 29 30  1  0  0  0  0
 29 27  1  0  0  0  0
 30 31  1  0  0  0  0
M  END
>  <minimizedAffinity>
-5.10159397

$$$$

 OpenBabel03242515293D

 31 33  0  0  1  0  0  0  0  0999 V2000
   35.9640   29.6350   40.7230 C   0  0  0  0  0  0  0  0  0  0  0  0
   36.9560   30.6000   40.9740 C   0  0  0  0  0  0  0  0  0  0  0  0
   37.9310   30.2630   41.8890 C   0  0  0  0  0  0  0  0  0  0  0  0
   37.9010   29.0590   42.4950 N   0  0  0  0  0  0  0  0  0  0  0  0
   36.9110   28.1730   42.2070 C   0  0  0  0  0  0  0  0  0  0  0  0
   35.9210   28.4240   41.3230 N   0  0  0  0  0  0  0  0  0  0  0  0
   35.1780   29.8510   40.0140 H   0  0  0  0  0  0  0  0  0  0  0  0
   38.6950   31.0050   42.0820 H   0  0  0  0  0  0  0  0  0  0  0  0
   36.8500   31.8700   40.2440 C   0  0  0  0  0  0  0  0  0  0  0  0
   35.9120   31.9430   39.7020 H   0  0  0  0  0  0  0  0  0  0  0  0
   36.8130   32.6950   41.0130 H   0  0  0  0  0  0  0  0  0  0  0  0
   38.0260   32.0140   39.4170 N   0  0  0  0  0  0  0  0  0  0  0  0
   38.2800   31.1660   38.4330 C   0  0  0  0  0  0  0  0  0  0  0  0
   39.4250   31.3670   37.6880 C   0  0  0  0  0  0  0  0  0  0  0  0
   40.2900   32.4080   37.9410 C   0  0  0  0  0  0  0  0  0  0  0  0
   41.3060   32.5350   37.2330 O   0  0  0  0  0  0  0  0  0  0  0  0
   40.0010   33.2580   38.9550 N   0  0  0  0  0  0  0  0  0  0  0  0
   38.8820   33.0630   39.6850 C   0  0  0  0  0  0  0  0  0  0  0  0
   38.6770   33.8970   40.6160 O   0  0  0  0  0  0  0  0  0  0  0  0
   37.5820   30.3610   38.2610 H   0  0  0  0  0  0  0  0  0  0  0  0
   39.6550   30.6880   36.8780 H   0  0  0  0  0  0  0  0  0  0  0  0
   40.6540   34.0470   39.1480 H   0  0  0  0  0  0  0  0  0  0  0  0
   36.8670   26.9200   42.8360 O   0  0  0  0  0  0  0  0  0  0  0  0
   37.8400   26.9760   40.5510 H   0  0  0  0  0  0  0  0  0  0  0  0
   38.4800   26.4170   41.1640 N   0  0  0  0  0  0  0  0  0  0  0  0
   37.8200   25.9670   42.3560 C   0  0  2  0  0  3  0  0  0  0  0  0
   37.0090   24.7260   41.9690 C   0  0  0  0  0  3  0  0  0  0  0  0
   36.0840   24.6590   42.6060 H   0  0  0  0  0  0  0  0  0  0  0  0
   36.5490   24.8480   40.6520 O   0  0  0  0  0  0  0  0  0  0  0  0
   37.6520   24.4920   39.8510 C   0  0  0  0  0  2  0  0  0  0  0  0
   38.8530   25.2440   40.3910 C   0  0  0  0  0  2  0  0  0  0  0  0
  1  2  2  0  0  0  0
  1  6  1  0  0  0  0
  2  3  1  0  0  0  0
  3  8  1  0  0  0  0
  3  4  2  0  0  0  0
  5  4  1  0  0  0  0
  5 23  1  0  0  0  0
  6  5  2  0  0  0  0
  7  1  1  0  0  0  0
  9  2  1  0  0  0  0
  9 11  1  0  0  0  0
 10  9  1  0  0  0  0
 12 18  1  0  0  0  0
 12  9  1  0  0  0  0
 13 12  1  0  0  0  0
 14 15  1  0  0  0  0
 14 13  2  0  0  0  0
 15 17  1  0  0  0  0
 16 15  2  0  0  0  0
 17 22  1  0  0  0  0
 17 18  1  0  0  0  0
 18 19  2  0  0  0  0
 20 13  1  0  0  0  0
 21 14  1  0  0  0  0
 24 25  1  0  0  0  0
 25 26  1  0  0  0  0
 26 23  1  6  0  0  0
 27 26  1  0  0  0  0
 27 28  1  0  0  0  0
 29 27  1  0  0  0  0
 30 31  1  0  0  0  0
 30 29  1  0  0  0  0
 31 25  1  0  0  0  0
M  END
>  <minimizedAffinity>
-5.09509611

$$$$

 OpenBabel03242515293D

 31 33  0  0  1  0  0  0  0  0999 V2000
   37.4150   29.0940   42.6770 C   0  0  0  0  0  0  0  0  0  0  0  0
   38.4720   28.1870   42.4780 C   0  0  0  0  0  0  0  0  0  0  0  0
   39.3260   28.4520   41.4290 C   0  0  0  0  0  0  0  0  0  0  0  0
   39.1270   29.5350   40.6520 N   0  0  0  0  0  0  0  0  0  0  0  0
   38.0840   30.3710   40.8990 C   0  0  0  0  0  0  0  0  0  0  0  0
   37.2020   30.1840   41.9060 N   0  0  0  0  0  0  0  0  0  0  0  0
   36.7180   28.9310   43.4860 H   0  0  0  0  0  0  0  0  0  0  0  0
   40.1400   27.7550   41.2760 H   0  0  0  0  0  0  0  0  0  0  0  0
   38.5530   27.0470   43.4000 C   0  0  0  0  0  0  0  0  0  0  0  0
   39.5040   27.0230   43.9230 H   0  0  0  0  0  0  0  0  0  0  0  0
   37.7770   27.2100   44.2030 H   0  0  0  0  0  0  0  0  0  0  0  0
   38.2540   25.8440   42.6560 N   0  0  0  0  0  0  0  0  0  0  0  0
   37.0970   25.6930   42.0330 C   0  0  0  0  0  0  0  0  0  0  0  0
   36.8840   24.5150   41.3450 C   0  0  0  0  0  0  0  0  0  0  0  0
   37.8290   23.5160   41.2930 C   0  0  0  0  0  0  0  0  0  0  0  0
   37.5760   22.4770   40.6550 O   0  0  0  0  0  0  0  0  0  0  0  0
   39.0030   23.7020   41.9410 N   0  0  0  0  0  0  0  0  0  0  0  0
   39.2140   24.8530   42.6150 C   0  0  0  0  0  0  0  0  0  0  0  0
   40.3350   24.9560   43.1960 O   0  0  0  0  0  0  0  0  0  0  0  0
   36.3770   26.4960   42.0940 H   0  0  0  0  0  0  0  0  0  0  0  0
   35.9450   24.3680   40.8270 H   0  0  0  0  0  0  0  0  0  0  0  0
   39.7210   22.9470   41.9030 H   0  0  0  0  0  0  0  0  0  0  0  0
   37.8640   31.4980   40.0940 O   0  0  0  0  0  0  0  0  0  0  0  0
   37.1480   29.2680   39.2660 H   0  0  0  0  0  0  0  0  0  0  0  0
   36.4200   29.9690   38.9880 N   0  0  0  0  0  0  0  0  0  0  0  0
   36.9240   31.3100   39.0320 C   0  0  2  0  0  3  0  0  0  0  0  0
   37.7130   31.5270   37.7350 C   0  0  0  0  0  3  0  0  0  0  0  0
   38.5590   32.2460   37.9170 H   0  0  0  0  0  0  0  0  0  0  0  0
   38.3180   30.3280   37.3400 O   0  0  0  0  0  0  0  0  0  0  0  0
   37.2930   29.6000   36.7040 C   0  0  0  0  0  2  0  0  0  0  0  0
   36.0770   29.6650   37.6090 C   0  0  0  0  0  2  0  0  0  0  0  0
  1  7  1  0  0  0  0
  2  1  1  0  0  0  0
  2  9  1  0  0  0  0
  3  2  2  0  0  0  0
  4  5  2  0  0  0  0
  4  3  1  0  0  0  0
  5  6  1  0  0  0  0
  6  1  2  0  0  0  0
  8  3  1  0  0  0  0
  9 10  1  0  0  0  0
  9 11  1  0  0  0  0
 12  9  1  0  0  0  0
 13 20  1  0  0  0  0
 13 12  1  0  0  0  0
 14 13  2  0  0  0  0
 15 14  1  0  0  0  0
 15 17  1  0  0  0  0
 16 15  2  0  0  0  0
 17 18  1  0  0  0  0
 18 12  1  0  0  0  0
 18 19  2  0  0  0  0
 21 14  1  0  0  0  0
 22 17  1  0  0  0  0
 23  5  1  0  0  0  0
 25 26  1  0  0  0  0
 25 24  1  0  0  0  0
 26 23  1  1  0  0  0
 27 28  1  0  0  0  0
 27 26  1  0  0  0  0
 29 27  1  0  0  0  0
 30 29  1  0  0  0  0
 30 31  1  0  0  0  0
 31 25  1  0  0  0  0
M  END
>  <minimizedAffinity>
-5.04317665

$$$$

 OpenBabel03242515293D

 31 33  0  0  1  0  0  0  0  0999 V2000
   38.4010   29.7250   42.1300 C   0  0  0  0  0  0  0  0  0  0  0  0
   37.0620   29.4470   41.8000 C   0  0  0  0  0  0  0  0  0  0  0  0
   36.5870   28.1980   42.1390 C   0  0  0  0  0  0  0  0  0  0  0  0
   37.3950   27.3120   42.7550 N   0  0  0  0  0  0  0  0  0  0  0  0
   38.6810   27.6450   43.0440 C   0  0  0  0  0  0  0  0  0  0  0  0
   39.2230   28.8470   42.7470 N   0  0  0  0  0  0  0  0  0  0  0  0
   38.8200   30.6890   41.8860 H   0  0  0  0  0  0  0  0  0  0  0  0
   35.5570   27.9840   41.8860 H   0  0  0  0  0  0  0  0  0  0  0  0
   36.3090   30.5090   41.1210 C   0  0  0  0  0  0  0  0  0  0  0  0
   35.2880   30.5700   41.4840 H   0  0  0  0  0  0  0  0  0  0  0  0
   36.7850   31.4910   41.4070 H   0  0  0  0  0  0  0  0  0  0  0  0
   36.4210   30.2990   39.6950 N   0  0  0  0  0  0  0  0  0  0  0  0
   37.4660   30.7430   39.0160 C   0  0  0  0  0  0  0  0  0  0  0  0
   37.5000   30.5060   37.6570 C   0  0  0  0  0  0  0  0  0  0  0  0
   36.4920   29.8310   37.0050 C   0  0  0  0  0  0  0  0  0  0  0  0
   36.5830   29.6480   35.7770 O   0  0  0  0  0  0  0  0  0  0  0  0
   35.4370   29.3890   37.7290 N   0  0  0  0  0  0  0  0  0  0  0  0
   35.4010   29.6200   39.0600 C   0  0  0  0  0  0  0  0  0  0  0  0
   34.3840   29.1770   39.6700 O   0  0  0  0  0  0  0  0  0  0  0  0
   38.2380   31.2690   39.5570 H   0  0  0  0  0  0  0  0  0  0  0  0
   38.3450   30.8590   37.0790 H   0  0  0  0  0  0  0  0  0  0  0  0
   34.6730   28.8770   37.2380 H   0  0  0  0  0  0  0  0  0  0  0  0
   39.5320   26.7300   43.6790 O   0  0  0  0  0  0  0  0  0  0  0  0
   38.9010   26.3870   41.3010 H   0  0  0  0  0  0  0  0  0  0  0  0
   39.8900   26.0630   41.4260 N   0  0  0  0  0  0  0  0  0  0  0  0
   40.2010   25.8160   42.8040 C   0  0  2  0  0  3  0  0  0  0  0  0
   39.6390   24.4300   43.1420 C   0  0  0  0  0  3  0  0  0  0  0  0
   39.3260   24.3960   44.2220 H   0  0  0  0  0  0  0  0  0  0  0  0
   38.4720   24.1970   42.4050 O   0  0  0  0  0  0  0  0  0  0  0  0
   38.9230   23.8060   41.1300 C   0  0  0  0  0  2  0  0  0  0  0  0
   39.9900   24.8000   40.7130 C   0  0  0  0  0  2  0  0  0  0  0  0
  1  6  1  0  0  0  0
  2  1  2  0  0  0  0
  2  3  1  0  0  0  0
  3  4  2  0  0  0  0
  4  5  1  0  0  0  0
  5 23  1  0  0  0  0
  6  5  2  0  0  0  0
  7  1  1  0  0  0  0
  8  3  1  0  0  0  0
  9 11  1  0  0  0  0
  9 10  1  0  0  0  0
  9  2  1  0  0  0  0
 12  9  1  0  0  0  0
 13 20  1  0  0  0  0
 13 12  1  0  0  0  0
 14 13  2  0  0  0  0
 15 14  1  0  0  0  0
 15 17  1  0  0  0  0
 16 15  2  0  0  0  0
 17 18  1  0  0  0  0
 18 19  2  0  0  0  0
 18 12  1  0  0  0  0
 21 14  1  0  0  0  0
 22 17  1  0  0  0  0
 24 25  1  0  0  0  0
 25 26  1  0  0  0  0
 26 27  1  0  0  0  0
 26 23  1  1  0  0  0
 27 28  1  0  0  0  0
 29 27  1  0  0  0  0
 30 29  1  0  0  0  0
 31 30  1  0  0  0  0
 31 25  1  0  0  0  0
M  END
>  <minimizedAffinity>
-4.93715811

$$$$

 OpenBabel03242515293D

 31 33  0  0  1  0  0  0  0  0999 V2000
   36.7200   27.5100   40.5920 C   0  0  0  0  0  0  0  0  0  0  0  0
   36.8590   27.7240   41.9760 C   0  0  0  0  0  0  0  0  0  0  0  0
   36.8840   29.0350   42.4000 C   0  0  0  0  0  0  0  0  0  0  0  0
   36.7810   30.0380   41.5040 N   0  0  0  0  0  0  0  0  0  0  0  0
   36.6520   29.7590   40.1800 C   0  0  0  0  0  0  0  0  0  0  0  0
   36.6170   28.5030   39.6830 N   0  0  0  0  0  0  0  0  0  0  0  0
   36.6950   26.5000   40.2100 H   0  0  0  0  0  0  0  0  0  0  0  0
   36.9890   29.2010   43.4650 H   0  0  0  0  0  0  0  0  0  0  0  0
   36.9700   26.5320   42.8270 C   0  0  0  0  0  0  0  0  0  0  0  0
   36.4610   26.6690   43.7760 H   0  0  0  0  0  0  0  0  0  0  0  0
   36.4120   25.6990   42.3100 H   0  0  0  0  0  0  0  0  0  0  0  0
   38.3690   26.1940   42.9480 N   0  0  0  0  0  0  0  0  0  0  0  0
   39.2090   26.9740   43.6100 C   0  0  0  0  0  0  0  0  0  0  0  0
   40.5320   26.5860   43.6790 C   0  0  0  0  0  0  0  0  0  0  0  0
   40.9880   25.4290   43.0880 C   0  0  0  0  0  0  0  0  0  0  0  0
   42.1930   25.1340   43.1870 O   0  0  0  0  0  0  0  0  0  0  0  0
   40.1030   24.6530   42.4190 N   0  0  0  0  0  0  0  0  0  0  0  0
   38.8080   25.0310   42.3490 C   0  0  0  0  0  0  0  0  0  0  0  0
   38.0400   24.2550   41.7070 O   0  0  0  0  0  0  0  0  0  0  0  0
   38.8190   27.8740   44.0620 H   0  0  0  0  0  0  0  0  0  0  0  0
   41.2380   27.2070   44.2150 H   0  0  0  0  0  0  0  0  0  0  0  0
   40.4460   23.7760   41.9700 H   0  0  0  0  0  0  0  0  0  0  0  0
   36.5490   30.7940   39.2380 O   0  0  0  0  0  0  0  0  0  0  0  0
   38.6540   30.5380   40.5320 H   0  0  0  0  0  0  0  0  0  0  0  0
   38.9050   30.8130   39.5520 N   0  0  0  0  0  0  0  0  0  0  0  0
   37.7920   31.3940   38.8590 C   0  0  2  0  0  3  0  0  0  0  0  0
   37.7040   32.8560   39.3120 C   0  0  0  0  0  3  0  0  0  0  0  0
   36.6310   33.1960   39.3010 H   0  0  0  0  0  0  0  0  0  0  0  0
   38.1180   32.9670   40.6440 O   0  0  0  0  0  0  0  0  0  0  0  0
   39.5260   32.9730   40.5840 C   0  0  0  0  0  2  0  0  0  0  0  0
   39.9350   31.8310   39.6740 C   0  0  0  0  0  2  0  0  0  0  0  0
  1  2  1  0  0  0  0
  2  3  2  0  0  0  0
  2  9  1  0  0  0  0
  3  8  1  0  0  0  0
  4  3  1  0  0  0  0
  5  4  2  0  0  0  0
  6  5  1  0  0  0  0
  6  1  2  0  0  0  0
  7  1  1  0  0  0  0
  9 12  1  0  0  0  0
  9 10  1  0  0  0  0
 11  9  1  0  0  0  0
 12 13  1  0  0  0  0
 13 14  2  0  0  0  0
 13 20  1  0  0  0  0
 14 21  1  0  0  0  0
 15 16  2  0  0  0  0
 15 14  1  0  0  0  0
 17 15  1  0  0  0  0
 18 17  1  0  0  0  0
 18 12  1  0  0  0  0
 19 18  2  0  0  0  0
 22 17  1  0  0  0  0
 23  5  1  0  0  0  0
 25 31  1  0  0  0  0
 25 24  1  0  0  0  0
 26 23  1  1  0  0  0
 26 27  1  0  0  0  0
 26 25  1  0  0  0  0
 27 29  1  0  0  0  0
 28 27  1  0  0  0  0
 30 29  1  0  0  0  0
 31 30  1  0  0  0  0
M  END
>  <minimizedAffinity>
-4.93598604

$$$$

 OpenBabel03242515293D

 31 33  0  0  1  0  0  0  0  0999 V2000
   36.5600   28.0220   41.6300 C   0  0  0  0  0  0  0  0  0  0  0  0
   37.6910   27.9910   42.4670 C   0  0  0  0  0  0  0  0  0  0  0  0
   38.3400   29.1890   42.6760 C   0  0  0  0  0  0  0  0  0  0  0  0
   37.8860   30.3150   42.0900 N   0  0  0  0  0  0  0  0  0  0  0  0
   36.7870   30.2740   41.2910 C   0  0  0  0  0  0  0  0  0  0  0  0
   36.0940   29.1430   41.0360 N   0  0  0  0  0  0  0  0  0  0  0  0
   36.0170   27.1100   41.4360 H   0  0  0  0  0  0  0  0  0  0  0  0
   39.2100   29.1660   43.3200 H   0  0  0  0  0  0  0  0  0  0  0  0
   38.0710   26.6870   43.0260 C   0  0  0  0  0  0  0  0  0  0  0  0
   38.7620   26.7930   43.8550 H   0  0  0  0  0  0  0  0  0  0  0  0
   37.1400   26.2300   43.4710 H   0  0  0  0  0  0  0  0  0  0  0  0
   38.5620   25.8610   41.9460 N   0  0  0  0  0  0  0  0  0  0  0  0
   39.6910   26.1510   41.3190 C   0  0  0  0  0  0  0  0  0  0  0  0
   40.0940   25.3150   40.2970 C   0  0  0  0  0  0  0  0  0  0  0  0
   39.3630   24.2100   39.9230 C   0  0  0  0  0  0  0  0  0  0  0  0
   39.7800   23.4960   38.9920 O   0  0  0  0  0  0  0  0  0  0  0  0
   38.2130   23.9410   40.5840 N   0  0  0  0  0  0  0  0  0  0  0  0
   37.8160   24.7570   41.5850 C   0  0  0  0  0  0  0  0  0  0  0  0
   36.7320   24.4420   42.1580 O   0  0  0  0  0  0  0  0  0  0  0  0
   40.2400   27.0250   41.6370 H   0  0  0  0  0  0  0  0  0  0  0  0
   41.0140   25.5310   39.7690 H   0  0  0  0  0  0  0  0  0  0  0  0
   37.6570   23.1050   40.3030 H   0  0  0  0  0  0  0  0  0  0  0  0
   36.3090   31.4380   40.6710 O   0  0  0  0  0  0  0  0  0  0  0  0
   38.6290   30.7220   40.1450 H   0  0  0  0  0  0  0  0  0  0  0  0
   38.1650   31.0090   39.2500 N   0  0  0  0  0  0  0  0  0  0  0  0
   37.0100   31.8250   39.4850 C   0  0  2  0  0  3  0  0  0  0  0  0
   37.5190   33.2470   39.7480 C   0  0  0  0  0  3  0  0  0  0  0  0
   36.8270   33.7770   40.4600 H   0  0  0  0  0  0  0  0  0  0  0  0
   38.7580   33.1960   40.3980 O   0  0  0  0  0  0  0  0  0  0  0  0
   39.6920   32.9500   39.3730 C   0  0  0  0  0  2  0  0  0  0  0  0
   39.1410   31.8130   38.5340 C   0  0  0  0  0  2  0  0  0  0  0  0
  1  2  1  0  0  0  0
  2  3  2  0  0  0  0
  2  9  1  0  0  0  0
  3  8  1  0  0  0  0
  4  3  1  0  0  0  0
  5  4  2  0  0  0  0
  6  5  1  0  0  0  0
  6  1  2  0  0  0  0
  7  1  1  0  0  0  0
  9 11  1  0  0  0  0
  9 10  1  0  0  0  0
 12  9  1  0  0  0  0
 13 20  1  0  0  0  0
 13 12  1  0  0  0  0
 14 13  2  0  0  0  0
 15 14  1  0  0  0  0
 15 17  1  0  0  0  0
 16 15  2  0  0  0  0
 17 18  1  0  0  0  0
 18 12  1  0  0  0  0
 18 19  2  0  0  0  0
 21 14  1  0  0  0  0
 22 17  1  0  0  0  0
 23  5  1  0  0  0  0
 25 26  1  0  0  0  0
 25 24  1  0  0  0  0
 26 27  1  0  0  0  0
 26 23  1  1  0  0  0
 27 29  1  0  0  0  0
 27 28  1  0  0  0  0
 30 29  1  0  0  0  0
 31 25  1  0  0  0  0
 31 30  1  0  0  0  0
M  END
>  <minimizedAffinity>
-4.82918882

$$$$

 OpenBabel03242515293D

 31 33  0  0  1  0  0  0  0  0999 V2000
   37.8040   29.9040   39.2230 C   0  0  0  0  0  0  0  0  0  0  0  0
   37.3690   31.2040   39.5410 C   0  0  0  0  0  0  0  0  0  0  0  0
   36.5910   31.3380   40.6700 C   0  0  0  0  0  0  0  0  0  0  0  0
   36.2800   30.2540   41.4100 N   0  0  0  0  0  0  0  0  0  0  0  0
   36.7320   29.0250   41.0440 C   0  0  0  0  0  0  0  0  0  0  0  0
   37.5000   28.8080   39.9540 N   0  0  0  0  0  0  0  0  0  0  0  0
   38.4170   29.7460   38.3480 H   0  0  0  0  0  0  0  0  0  0  0  0
   36.2560   32.3380   40.9160 H   0  0  0  0  0  0  0  0  0  0  0  0
   37.7800   32.2840   38.6340 C   0  0  0  0  0  0  0  0  0  0  0  0
   37.7850   31.9570   37.5990 H   0  0  0  0  0  0  0  0  0  0  0  0
   36.9880   33.0860   38.6890 H   0  0  0  0  0  0  0  0  0  0  0  0
   39.0460   32.8030   39.0980 N   0  0  0  0  0  0  0  0  0  0  0  0
   39.1210   33.5660   40.1780 C   0  0  0  0  0  0  0  0  0  0  0  0
   40.3650   34.0260   40.5570 C   0  0  0  0  0  0  0  0  0  0  0  0
   41.5070   33.7150   39.8540 C   0  0  0  0  0  0  0  0  0  0  0  0
   42.6010   34.1610   40.2480 O   0  0  0  0  0  0  0  0  0  0  0  0
   41.3970   32.9320   38.7550 N   0  0  0  0  0  0  0  0  0  0  0  0
   40.1800   32.4810   38.3810 C   0  0  0  0  0  0  0  0  0  0  0  0
   40.1550   31.7550   37.3440 O   0  0  0  0  0  0  0  0  0  0  0  0
   38.2060   33.7910   40.7060 H   0  0  0  0  0  0  0  0  0  0  0  0
   40.4520   34.6510   41.4370 H   0  0  0  0  0  0  0  0  0  0  0  0
   42.2600   32.6950   38.2210 H   0  0  0  0  0  0  0  0  0  0  0  0
   36.4100   27.8900   41.8020 O   0  0  0  0  0  0  0  0  0  0  0  0
   38.7670   28.6770   41.8060 H   0  0  0  0  0  0  0  0  0  0  0  0
   38.5130   28.4010   42.7850 N   0  0  0  0  0  0  0  0  0  0  0  0
   37.3590   27.5510   42.8190 C   0  0  2  0  0  3  0  0  0  0  0  0
   37.8420   26.1360   42.4820 C   0  0  0  0  0  3  0  0  0  0  0  0
   37.0300   25.5710   41.9450 H   0  0  0  0  0  0  0  0  0  0  0  0
   38.9120   26.2010   41.5810 O   0  0  0  0  0  0  0  0  0  0  0  0
   40.0360   26.4960   42.3770 C   0  0  0  0  0  2  0  0  0  0  0  0
   39.6430   27.6400   43.2920 C   0  0  0  0  0  2  0  0  0  0  0  0
  1  2  2  0  0  0  0
  1  6  1  0  0  0  0
  2  3  1  0  0  0  0
  3  8  1  0  0  0  0
  3  4  2  0  0  0  0
  5  4  1  0  0  0  0
  5 23  1  0  0  0  0
  6  5  2  0  0  0  0
  7  1  1  0  0  0  0
  9 11  1  0  0  0  0
  9 12  1  0  0  0  0
  9  2  1  0  0  0  0
 10  9  1  0  0  0  0
 12 13  1  0  0  0  0
 13 14  2  0  0  0  0
 13 20  1  0  0  0  0
 14 21  1  0  0  0  0
 15 16  2  0  0  0  0
 15 14  1  0  0  0  0
 17 15  1  0  0  0  0
 18 17  1  0  0  0  0
 18 12  1  0  0  0  0
 19 18  2  0  0  0  0
 22 17  1  0  0  0  0
 24 25  1  0  0  0  0
 25 26  1  0  0  0  0
 25 31  1  0  0  0  0
 26 23  1  6  0  0  0
 27 26  1  0  0  0  0
 28 27  1  0  0  0  0
 29 30  1  0  0  0  0
 29 27  1  0  0  0  0
 30 31  1  0  0  0  0
M  END
>  <minimizedAffinity>
-4.74724293

$$$$
