
     RDKit          3D

 47 50  0  0  0  0  0  0  0  0999 V2000
   49.3313   33.2144   41.4874 N   0  0  0  0  0  0  0  0  0  0  0  0
   50.6593   33.1269   42.0484 C   0  0  0  0  0  0  0  0  0  0  0  0
   51.3435   31.8114   41.7886 C   0  0  0  0  0  0  0  0  0  0  0  0
   50.6003   30.7237   42.5192 C   0  0  0  0  0  0  0  0  0  0  0  0
   49.1001   30.9951   42.5465 C   0  0  0  0  0  0  0  0  0  0  0  0
   48.7768   31.8956   41.3932 C   0  0  2  0  0  0  0  0  0  0  0  0
   47.1875   34.5449   42.0168 C   0  0  1  0  0  0  0  0  0  0  0  0
   48.3121   35.4640   41.7180 C   0  0  0  0  0  0  0  0  0  0  0  0
   48.5884   34.1280   42.2777 C   0  0  2  0  0  0  0  0  0  0  0  0
   45.5163   36.0293   43.1684 C   0  0  0  0  0  0  0  0  0  0  0  0
   46.2924   34.8621   43.1284 C   0  0  0  0  0  0  0  0  0  0  0  0
   46.1603   33.9784   44.2196 C   0  0  0  0  0  0  0  0  0  0  0  0
   45.3062   34.2996   45.2270 N   0  0  0  0  0  0  0  0  0  0  0  0
   44.5804   35.4242   45.2303 C   0  0  0  0  0  0  0  0  0  0  0  0
   44.6774   36.3103   44.1928 N   0  0  0  0  0  0  0  0  0  0  0  0
   49.0477   31.2492   40.1406 N   0  0  0  0  0  0  0  0  0  0  0  0
   50.5390   33.1864   43.1617 H   0  0  0  0  0  0  0  0  0  0  0  0
   51.2900   34.0012   41.7857 H   0  0  0  0  0  0  0  0  0  0  0  0
   51.6015   31.6115   40.7522 H   0  0  0  0  0  0  0  0  0  0  0  0
   52.3342   31.8955   42.3181 H   0  0  0  0  0  0  0  0  0  0  0  0
   50.9698   30.6368   43.5503 H   0  0  0  0  0  0  0  0  0  0  0  0
   50.7338   29.7817   41.9470 H   0  0  0  0  0  0  0  0  0  0  0  0
   48.8741   31.5776   43.4926 H   0  0  0  0  0  0  0  0  0  0  0  0
   48.4826   30.1182   42.5443 H   0  0  0  0  0  0  0  0  0  0  0  0
   47.6576   32.0446   41.4564 H   0  0  0  0  0  0  0  0  0  0  0  0
   46.6505   34.1384   41.1100 H   0  0  0  0  0  0  0  0  0  0  0  0
   48.5974   35.6645   40.6578 H   0  0  0  0  0  0  0  0  0  0  0  0
   48.4641   36.3604   42.3611 H   0  0  0  0  0  0  0  0  0  0  0  0
   48.8489   34.1191   43.3744 H   0  0  0  0  0  0  0  0  0  0  0  0
   45.6380   36.6920   42.3159 H   0  0  0  0  0  0  0  0  0  0  0  0
   46.7324   33.0486   44.2609 H   0  0  0  0  0  0  0  0  0  0  0  0
   43.9320   35.5793   46.0833 H   0  0  0  0  0  0  0  0  0  0  0  0
   49.6970   30.4052   40.3058 H   0  0  0  0  0  0  0  0  0  0  0  0
   46.3962   31.3017   38.3515 H   0  0  0  0  0  0  0  0  0  0  0  0
   47.4382   31.3834   38.3741 N   0  0  0  0  0  0  0  0  0  0  0  0
   47.8870   30.6383   39.5359 C   0  0  1  0  0  0  0  0  0  0  0  0
   48.0609   29.1871   39.2342 C   0  0  2  0  0  0  0  0  0  0  0  0
   47.8660   28.5519   40.1245 H   0  0  0  0  0  0  0  0  0  0  0  0
   47.0514   28.8872   38.2687 O   0  0  0  0  0  0  0  0  0  0  0  0
   47.5712   29.3256   37.0497 C   0  0  0  0  0  0  0  0  0  0  0  0
   47.8982   30.8050   37.1205 C   0  0  0  0  0  0  0  0  0  0  0  0
   47.0774   30.7034   40.3268 H   0  0  0  0  0  0  0  0  0  0  0  0
   49.0065   28.9464   38.7155 H   0  0  0  0  0  0  0  0  0  0  0  0
   48.5314   28.7891   36.9018 H   0  0  0  0  0  0  0  0  0  0  0  0
   46.8561   29.0878   36.2398 H   0  0  0  0  0  0  0  0  0  0  0  0
   47.3202   31.3013   36.3139 H   0  0  0  0  0  0  0  0  0  0  0  0
   48.9709   31.0223   36.9406 H   0  0  0  0  0  0  0  0  0  0  0  0
  1  2  1  0
  1  9  1  0
  3  2  1  0
  3  4  1  0
  5  4  1  0
  6  1  1  0
  6  5  1  0
  7  9  1  0
  7 11  1  0
  8  7  1  0
  8  9  1  0
 10 15  2  0
 11 10  1  0
 11 12  2  0
 12 13  1  0
 14 13  2  0
 15 14  1  0
 16  6  1  0
  2 17  1  0
  2 18  1  0
  3 19  1  0
  3 20  1  0
  4 21  1  0
  4 22  1  0
  5 23  1  0
  5 24  1  0
  6 25  1  6
  7 26  1  6
  8 27  1  0
  8 28  1  0
  9 29  1  1
 10 30  1  0
 12 31  1  0
 14 32  1  0
 16 33  1  0
 34 35  1  0
 35 36  1  0
 36 37  1  0
 37 38  1  1
 37 39  1  0
 39 40  1  0
 40 41  1  0
 41 35  1  0
 36 42  1  1
 37 43  1  0
 40 44  1  0
 40 45  1  0
 41 46  1  0
 41 47  1  0
 16 36  1  0
M  ISO  8  17  13  18  13  19  13  20  13  21  13  22  13  23  13  24  13
M  ISO  8  25  13  26  13  27  13  28  13  29  13  30  14  31  14  32  14
M  ISO  3  33   5  34   5  38  15
M  END
>  <DihAtoms>  (1) 
5,15,35,34

>  <DihDeg>  (1) 
167.84967083176727

$$$$
