
 OpenBabel03252506453D

 41 44  0  0  1  0  0  0  0  0999 V2000
   49.4640   33.3930   41.4220 N   0  0  1  0  0  0  0  0  0  0  0  0
   50.6950   33.1080   42.1210 C   0  0  0  0  0  0  0  0  0  0  0  0
   51.3080   31.7820   41.7570 C   0  0  0  0  0  0  0  0  0  0  0  0
   50.3960   30.6800   42.2250 C   0  0  0  0  0  0  0  0  0  0  0  0
   48.9300   31.0820   42.1110 C   0  0  0  0  0  0  0  0  0  0  0  0
   48.8310   32.1570   41.0700 C   0  0  2  0  0  0  0  0  0  0  0  0
   50.4330   33.0270   43.2090 H   0  0  0  0  0  0  0  0  0  0  0  0
   51.4190   33.9480   42.0680 H   0  0  0  0  0  0  0  0  0  0  0  0
   51.6870   31.7010   40.7410 H   0  0  0  0  0  0  0  0  0  0  0  0
   52.2230   31.7010   42.4080 H   0  0  0  0  0  0  0  0  0  0  0  0
   50.6180   30.4200   43.2690 H   0  0  0  0  0  0  0  0  0  0  0  0
   50.5340   29.8150   41.5420 H   0  0  0  0  0  0  0  0  0  0  0  0
   48.6240   31.5500   43.0970 H   0  0  0  0  0  0  0  0  0  0  0  0
   48.2550   30.2740   41.9050 H   0  0  0  0  0  0  0  0  0  0  0  0
   47.7270   32.3990   41.0190 H   0  0  0  0  0  0  0  0  0  0  0  0
   47.2950   34.6730   41.9700 C   0  0  1  0  0  0  0  0  0  0  0  0
   48.4150   35.6180   41.7480 C   0  0  0  0  0  0  0  0  0  0  0  0
   48.6930   34.2560   42.2420 C   0  0  2  0  0  0  0  0  0  0  0  0
   46.7840   34.3100   41.0300 H   0  0  0  0  0  0  0  0  0  0  0  0
   48.7230   35.8770   40.7070 H   0  0  0  0  0  0  0  0  0  0  0  0
   48.5420   36.4790   42.4410 H   0  0  0  0  0  0  0  0  0  0  0  0
   48.9280   34.1910   43.3420 H   0  0  0  0  0  0  0  0  0  0  0  0
   45.5490   36.0570   43.1370 C   0  0  0  0  0  0  0  0  0  0  0  0
   46.3690   34.9220   43.0750 C   0  0  0  0  0  0  0  0  0  0  0  0
   46.2530   34.0000   44.1370 C   0  0  0  0  0  0  0  0  0  0  0  0
   45.3710   34.2580   45.1380 N   0  0  0  0  0  0  0  0  0  0  0  0
   44.6030   35.3540   45.1630 C   0  0  0  0  0  0  0  0  0  0  0  0
   44.6830   36.2740   44.1550 N   0  0  0  0  0  0  0  0  0  0  0  0
   45.6600   36.7500   42.3080 H   0  0  0  0  0  0  0  0  0  0  0  0
   46.8590   33.0920   44.1590 H   0  0  0  0  0  0  0  0  0  0  0  0
   43.9360   35.4580   46.0080 H   0  0  0  0  0  0  0  0  0  0  0  0
   49.2170   31.6630   39.7790 N   0  0  0  0  0  0  0  0  0  0  0  0
   49.5980   30.6600   39.8780 H   0  0  0  0  0  0  0  0  0  0  0  0
   47.5070   30.0050   37.6430 H   0  0  0  0  0  0  0  0  0  0  0  0
   47.8260   30.0860   38.6350 N   0  0  0  0  0  0  0  0  0  0  0  0
   48.1110   31.4900   38.8660 C   0  0  1  0  0  3  0  0  0  0  0  0
   46.8860   32.2500   39.2540 C   0  0  0  0  0  3  0  0  0  0  0  0
   46.9300   33.3080   38.9170 H   0  0  0  0  0  0  0  0  0  0  0  0
   45.8200   31.6210   38.5420 O   0  0  0  0  0  0  0  0  0  0  0  0
   45.4990   30.4880   39.2910 C   0  0  0  0  0  2  0  0  0  0  0  0
   46.7170   29.5960   39.4400 C   0  0  0  0  0  2  0  0  0  0  0  0
  1  2  1  1  0  0  0
  1 18  1  0  0  0  0
  2  7  1  0  0  0  0
  3  2  1  0  0  0  0
  3  4  1  0  0  0  0
  3 10  1  0  0  0  0
  4 11  1  0  0  0  0
  5  4  1  0  0  0  0
  5 13  1  0  0  0  0
  6 15  1  6  0  0  0
  6  1  1  0  0  0  0
  6  5  1  0  0  0  0
  8  2  1  0  0  0  0
  9  3  1  0  0  0  0
 12  4  1  0  0  0  0
 14  5  1  0  0  0  0
 16 19  1  6  0  0  0
 16 18  1  0  0  0  0
 16 24  1  0  0  0  0
 17 16  1  0  0  0  0
 17 18  1  0  0  0  0
 17 21  1  0  0  0  0
 18 22  1  1  0  0  0
 20 17  1  0  0  0  0
 23 28  1  0  0  0  0
 24 23  2  0  0  0  0
 24 25  1  0  0  0  0
 25 30  1  0  0  0  0
 25 26  2  0  0  0  0
 26 27  1  0  0  0  0
 27 31  1  0  0  0  0
 28 27  2  0  0  0  0
 29 23  1  0  0  0  0
 32 33  1  0  0  0  0
 32  6  1  0  0  0  0
 34 35  1  0  0  0  0
 35 36  1  0  0  0  0
 35 41  1  0  0  0  0
 36 37  1  0  0  0  0
 36 32  1  1  0  0  0
 38 37  1  0  0  0  0
 39 37  1  0  0  0  0
 39 40  1  0  0  0  0
 40 41  1  0  0  0  0
M  END
>  <minimizedAffinity>
-4.5816412

>  <minimizedRMSD>
0.762184143

$$$$
