
 OpenBabel03242523223D

 42 45  0  0  1  0  0  0  0  0999 V2000
   47.3520   32.8170   44.0640 C   0  0  0  0  0  0  0  0  0  0  0  0
   48.0960   33.2800   43.0630 C   0  0  0  0  0  0  0  0  0  0  0  0
   48.9580   32.3510   42.5180 C   0  0  0  0  0  0  0  0  0  0  0  0
   48.9750   31.0510   43.0490 N   0  0  0  0  0  0  0  0  0  0  0  0
   48.2120   30.6700   44.0390 C   0  0  0  0  0  0  0  0  0  0  0  0
   47.3330   31.5620   44.6160 N   0  0  0  0  0  0  0  0  0  0  0  0
   49.6430   32.5210   41.6980 H   0  0  0  0  0  0  0  0  0  0  0  0
   48.3430   29.6330   44.3360 H   0  0  0  0  0  0  0  0  0  0  0  0
   48.1780   34.6090   42.5920 C   0  0  1  0  0  0  0  0  0  0  0  0
   49.0710   35.1410   41.7140 C   0  0  0  0  0  0  0  0  0  0  0  0
   47.7150   34.9000   41.1160 C   0  0  1  0  0  0  0  0  0  0  0  0
   47.8120   35.3690   43.3340 H   0  0  0  0  0  0  0  0  0  0  0  0
   49.3990   36.2000   41.6110 H   0  0  0  0  0  0  0  0  0  0  0  0
   49.9420   34.5000   41.3730 H   0  0  0  0  0  0  0  0  0  0  0  0
   47.0350   35.7790   41.0350 H   0  0  0  0  0  0  0  0  0  0  0  0
   47.6690   33.8650   40.1680 N   0  0  1  0  0  0  0  0  0  0  0  0
   46.5230   33.0850   40.0000 C   0  0  0  0  0  0  0  0  0  0  0  0
   45.8210   33.1780   40.8260 H   0  0  0  0  0  0  0  0  0  0  0  0
   45.8220   33.2950   38.6610 C   0  0  0  0  0  0  0  0  0  0  0  0
   45.0070   32.5770   38.5530 H   0  0  0  0  0  0  0  0  0  0  0  0
   46.8000   32.9250   37.7090 O   0  0  0  0  0  0  0  0  0  0  0  0
   47.7310   33.9300   37.7020 C   0  0  0  0  0  0  0  0  0  0  0  0
   48.3730   34.2640   38.9910 C   0  0  0  0  0  0  0  0  0  0  0  0
   46.2940   33.5610   44.7830 C   0  0  0  0  0  0  0  0  0  0  0  0
   45.7310   33.9490   45.7640 O   0  0  0  0  0  0  0  0  0  0  0  0
   44.4910   31.7930   43.0070 Cl  0  0  0  0  0  0  0  0  0  0  0  0
   44.5290   33.5510   42.8660 C   0  0  0  0  0  0  0  0  0  0  0  0
   45.4030   34.2080   43.7680 C   0  0  0  0  0  0  0  0  0  0  0  0
   45.3410   35.5680   43.5660 C   0  0  0  0  0  0  0  0  0  0  0  0
   44.6350   36.2910   42.7100 C   0  0  0  0  0  0  0  0  0  0  0  0
   43.8100   35.5760   41.8680 C   0  0  0  0  0  0  0  0  0  0  0  0
   43.7500   34.2190   41.9380 C   0  0  0  0  0  0  0  0  0  0  0  0
   45.9550   36.2180   44.2340 H   0  0  0  0  0  0  0  0  0  0  0  0
   44.6540   37.3760   42.6220 H   0  0  0  0  0  0  0  0  0  0  0  0
   43.2030   36.1410   41.1360 H   0  0  0  0  0  0  0  0  0  0  0  0
   42.8920   33.6230   41.0550 O   0  0  0  0  0  0  0  0  0  0  0  0
   40.6500   32.9720   39.8660 O   0  0  0  0  0  0  0  0  0  0  0  0
   41.2470   33.2480   41.2260 P   0  0  0  0  0  0  0  0  0  0  0  0
   41.0840   31.9090   42.2530 O   0  0  0  0  0  0  0  0  0  0  0  0
   40.3370   31.3220   41.9370 H   0  0  0  0  0  0  0  0  0  0  0  0
   40.4030   34.5040   41.9830 O   0  0  0  0  0  0  0  0  0  0  0  0
   39.7650   34.9090   41.3400 H   0  0  0  0  0  0  0  0  0  0  0  0
  1  6  1  0  0  0  0
  1 24  1  0  0  0  0
  2  1  2  0  0  0  0
  3  4  2  0  0  0  0
  3  2  1  0  0  0  0
  4  5  1  0  0  0  0
  5  8  1  0  0  0  0
  5  6  2  0  0  0  0
  7  3  1  0  0  0  0
  9  2  1  0  0  0  0
  9 12  1  1  0  0  0
 10  9  1  0  0  0  0
 11 15  1  6  0  0  0
 11 10  1  0  0  0  0
 11  9  1  0  0  0  0
 13 10  1  0  0  0  0
 14 10  1  0  0  0  0
 16 23  1  6  0  0  0
 16 11  1  0  0  0  0
 17 16  1  0  0  0  0
 17 18  1  0  0  0  0
 19 17  1  0  0  0  0
 20 19  1  0  0  0  0
 21 19  1  0  0  0  0
 22 21  1  0  0  0  0
 22 23  1  0  0  0  0
 24 25  2  0  0  0  0
 27 26  1  0  0  0  0
 27 28  1  0  0  0  0
 28 24  1  0  0  0  0
 29 28  2  0  0  0  0
 29 33  1  0  0  0  0
 30 29  1  0  0  0  0
 31 32  1  0  0  0  0
 31 30  2  0  0  0  0
 32 27  2  0  0  0  0
 34 30  1  0  0  0  0
 35 31  1  0  0  0  0
 36 38  1  0  0  0  0
 36 32  1  0  0  0  0
 37 38  2  0  0  0  0
 38 41  1  0  0  0  0
 38 39  1  0  0  0  0
 40 39  1  0  0  0  0
 42 41  1  0  0  0  0
M  END
>  <minimizedAffinity>
-6.05548954

>  <minimizedRMSD>
1.0855211

$$$$
