
 OpenBabel03252506453D

 41 44  0  0  1  0  0  0  0  0999 V2000
   49.5590   33.4510   41.5130 N   0  0  1  0  0  0  0  0  0  0  0  0
   50.7560   33.1810   42.2750 C   0  0  0  0  0  0  0  0  0  0  0  0
   51.3950   31.8560   41.9550 C   0  0  0  0  0  0  0  0  0  0  0  0
   50.4670   30.7510   42.3870 C   0  0  0  0  0  0  0  0  0  0  0  0
   49.0060   31.1420   42.1950 C   0  0  0  0  0  0  0  0  0  0  0  0
   48.9530   32.2070   41.1410 C   0  0  2  0  0  0  0  0  0  0  0  0
   50.4390   33.1080   43.3490 H   0  0  0  0  0  0  0  0  0  0  0  0
   51.4750   34.0250   42.2510 H   0  0  0  0  0  0  0  0  0  0  0  0
   51.8250   31.7690   40.9610 H   0  0  0  0  0  0  0  0  0  0  0  0
   52.2760   31.7880   42.6530 H   0  0  0  0  0  0  0  0  0  0  0  0
   50.6380   30.5030   43.4440 H   0  0  0  0  0  0  0  0  0  0  0  0
   50.6460   29.8820   41.7200 H   0  0  0  0  0  0  0  0  0  0  0  0
   48.6480   31.6170   43.1610 H   0  0  0  0  0  0  0  0  0  0  0  0
   48.3480   30.3280   41.9640 H   0  0  0  0  0  0  0  0  0  0  0  0
   47.8520   32.4410   41.0320 H   0  0  0  0  0  0  0  0  0  0  0  0
   47.3210   34.6350   41.9970 C   0  0  1  0  0  0  0  0  0  0  0  0
   48.3850   35.6270   41.7120 C   0  0  0  0  0  0  0  0  0  0  0  0
   48.7420   34.3160   42.2850 C   0  0  2  0  0  0  0  0  0  0  0  0
   46.8290   34.1870   41.0840 H   0  0  0  0  0  0  0  0  0  0  0  0
   48.6740   35.8400   40.6550 H   0  0  0  0  0  0  0  0  0  0  0  0
   48.4640   36.5350   42.3510 H   0  0  0  0  0  0  0  0  0  0  0  0
   48.9830   34.3310   43.3850 H   0  0  0  0  0  0  0  0  0  0  0  0
   45.5650   36.0310   43.1320 C   0  0  0  0  0  0  0  0  0  0  0  0
   46.3860   34.8960   43.0900 C   0  0  0  0  0  0  0  0  0  0  0  0
   46.2610   33.9860   44.1620 C   0  0  0  0  0  0  0  0  0  0  0  0
   45.3700   34.2550   45.1530 N   0  0  0  0  0  0  0  0  0  0  0  0
   44.6020   35.3510   45.1580 C   0  0  0  0  0  0  0  0  0  0  0  0
   44.6910   36.2600   44.1410 N   0  0  0  0  0  0  0  0  0  0  0  0
   45.6830   36.7150   42.2960 H   0  0  0  0  0  0  0  0  0  0  0  0
   46.8670   33.0790   44.2000 H   0  0  0  0  0  0  0  0  0  0  0  0
   43.9270   35.4640   45.9970 H   0  0  0  0  0  0  0  0  0  0  0  0
   49.4070   31.7040   39.8760 N   0  0  0  0  0  0  0  0  0  0  0  0
   49.4950   30.6320   39.9270 H   0  0  0  0  0  0  0  0  0  0  0  0
   46.7390   32.9180   38.5950 H   0  0  0  0  0  0  0  0  0  0  0  0
   47.6950   33.1110   38.9710 N   0  0  0  0  0  0  0  0  0  0  0  0
   48.4610   31.8900   38.8000 C   0  0  1  0  0  3  0  0  0  0  0  0
   49.0710   31.8010   37.4410 C   0  0  0  0  0  3  0  0  0  0  0  0
   49.1720   30.7480   37.1000 H   0  0  0  0  0  0  0  0  0  0  0  0
   48.1350   32.4410   36.5720 O   0  0  0  0  0  0  0  0  0  0  0  0
   48.3750   33.8080   36.7210 C   0  0  0  0  0  2  0  0  0  0  0  0
   48.2070   34.2160   38.1730 C   0  0  0  0  0  2  0  0  0  0  0  0
  1  2  1  1  0  0  0
  1 18  1  0  0  0  0
  2  7  1  0  0  0  0
  3  2  1  0  0  0  0
  3  4  1  0  0  0  0
  3 10  1  0  0  0  0
  4 11  1  0  0  0  0
  5  4  1  0  0  0  0
  5 13  1  0  0  0  0
  6 15  1  6  0  0  0
  6  1  1  0  0  0  0
  6  5  1  0  0  0  0
  8  2  1  0  0  0  0
  9  3  1  0  0  0  0
 12  4  1  0  0  0  0
 14  5  1  0  0  0  0
 16 19  1  6  0  0  0
 16 18  1  0  0  0  0
 16 24  1  0  0  0  0
 17 16  1  0  0  0  0
 17 18  1  0  0  0  0
 17 21  1  0  0  0  0
 18 22  1  1  0  0  0
 20 17  1  0  0  0  0
 23 28  1  0  0  0  0
 24 23  2  0  0  0  0
 24 25  1  0  0  0  0
 25 30  1  0  0  0  0
 25 26  2  0  0  0  0
 26 27  1  0  0  0  0
 27 31  1  0  0  0  0
 28 27  2  0  0  0  0
 29 23  1  0  0  0  0
 32 33  1  0  0  0  0
 32  6  1  0  0  0  0
 34 35  1  0  0  0  0
 36 35  1  0  0  0  0
 36 32  1  1  0  0  0
 37 36  1  0  0  0  0
 38 37  1  0  0  0  0
 39 40  1  0  0  0  0
 39 37  1  0  0  0  0
 40 41  1  0  0  0  0
 41 35  1  0  0  0  0
M  END
>  <minimizedAffinity>
-5.20136976

>  <minimizedRMSD>
1.49923038

$$$$
