
 OpenBabel03242519563D

 27 29  0  0  0  0  0  0  0  0999 V2000
   44.5850   32.9450   41.2440 Br  0  0  0  0  0  0  0  0  0  0  0  0
   46.2340   33.8680   40.9750 C   0  0  0  0  0  0  0  0  0  0  0  0
   46.7890   34.6990   41.9380 C   0  0  0  0  0  0  0  0  0  0  0  0
   47.9840   35.3210   41.6470 C   0  0  0  0  0  0  0  0  0  0  0  0
   48.6440   35.1510   40.4440 C   0  0  0  0  0  0  0  0  0  0  0  0
   48.0990   34.3250   39.4780 C   0  0  0  0  0  0  0  0  0  0  0  0
   46.9060   33.7070   39.7730 C   0  0  0  0  0  0  0  0  0  0  0  0
   48.3260   35.9490   42.4770 H   0  0  0  0  0  0  0  0  0  0  0  0
   49.5610   35.6940   40.3530 H   0  0  0  0  0  0  0  0  0  0  0  0
   48.6160   34.2030   38.5570 H   0  0  0  0  0  0  0  0  0  0  0  0
   44.4940   36.0370   44.6290 C   0  0  0  0  0  0  0  0  0  0  0  0
   45.1870   35.9080   43.4130 C   0  0  0  0  0  0  0  0  0  0  0  0
   46.0650   34.8500   43.1860 C   0  0  0  0  0  0  0  0  0  0  0  0
   46.1860   33.9760   44.2180 N   0  0  0  0  0  0  0  0  0  0  0  0
   45.5250   34.1000   45.3800 C   0  0  0  0  0  0  0  0  0  0  0  0
   44.6870   35.1230   45.5790 N   0  0  0  0  0  0  0  0  0  0  0  0
   43.8210   36.8800   44.7570 H   0  0  0  0  0  0  0  0  0  0  0  0
   45.0550   36.6330   42.6190 H   0  0  0  0  0  0  0  0  0  0  0  0
   45.6750   33.3580   46.1600 H   0  0  0  0  0  0  0  0  0  0  0  0
   46.3960   32.8660   38.7290 N   0  0  0  0  0  0  0  0  0  0  0  0
   45.4330   33.2330   37.7300 C   0  0  0  0  0  0  0  0  0  0  0  0
   45.9300   33.5670   36.7760 H   0  0  0  0  0  0  0  0  0  0  0  0
   44.6210   32.0140   37.4100 C   0  0  0  0  0  0  0  0  0  0  0  0
   44.0510   31.7210   38.3340 H   0  0  0  0  0  0  0  0  0  0  0  0
   45.3290   30.9250   36.9880 O   0  0  0  0  0  0  0  0  0  0  0  0
   46.5990   30.7770   37.4660 C   0  0  0  0  0  0  0  0  0  0  0  0
   46.9310   31.5180   38.7170 C   0  0  0  0  0  0  0  0  0  0  0  0
  2  1  1  0  0  0  0
  2  3  1  0  0  0  0
  3 13  1  0  0  0  0
  4  3  2  0  0  0  0
  4  8  1  0  0  0  0
  5  4  1  0  0  0  0
  6  7  1  0  0  0  0
  6  5  2  0  0  0  0
  7  2  2  0  0  0  0
  9  5  1  0  0  0  0
 10  6  1  0  0  0  0
 11 17  1  0  0  0  0
 11 16  1  0  0  0  0
 12 11  2  0  0  0  0
 13 12  1  0  0  0  0
 13 14  2  0  0  0  0
 14 15  1  0  0  0  0
 15 16  2  0  0  0  0
 15 19  1  0  0  0  0
 18 12  1  0  0  0  0
 20  7  1  0  0  0  0
 21 20  1  0  0  0  0
 22 21  1  0  0  0  0
 23 21  1  0  0  0  0
 23 24  1  0  0  0  0
 25 23  1  0  0  0  0
 25 26  1  0  0  0  0
 26 27  1  0  0  0  0
 27 20  1  0  0  0  0
M  END
>  <minimizedAffinity>
-5.3658576

>  <minimizedRMSD>
0.332042992

$$$$
