
 OpenBabel03252506453D

 41 44  0  0  1  0  0  0  0  0999 V2000
   49.7460   33.5590   41.3790 N   0  0  1  0  0  0  0  0  0  0  0  0
   50.6400   32.8500   42.2650 C   0  0  0  0  0  0  0  0  0  0  0  0
   51.1220   31.5330   41.7160 C   0  0  0  0  0  0  0  0  0  0  0  0
   49.9500   30.5950   41.6020 C   0  0  0  0  0  0  0  0  0  0  0  0
   48.6730   31.3400   41.2290 C   0  0  0  0  0  0  0  0  0  0  0  0
   49.0700   32.6130   40.5430 C   0  0  2  0  0  0  0  0  0  0  0  0
   50.0440   32.5910   43.1790 H   0  0  0  0  0  0  0  0  0  0  0  0
   51.4660   33.4900   42.6390 H   0  0  0  0  0  0  0  0  0  0  0  0
   51.7800   31.5960   40.8520 H   0  0  0  0  0  0  0  0  0  0  0  0
   51.7650   31.1010   42.5330 H   0  0  0  0  0  0  0  0  0  0  0  0
   49.7940   30.0650   42.5520 H   0  0  0  0  0  0  0  0  0  0  0  0
   50.1570   29.8970   40.7650 H   0  0  0  0  0  0  0  0  0  0  0  0
   48.1530   31.6340   42.1930 H   0  0  0  0  0  0  0  0  0  0  0  0
   47.9780   30.7760   40.6370 H   0  0  0  0  0  0  0  0  0  0  0  0
   48.0890   33.1080   40.2770 H   0  0  0  0  0  0  0  0  0  0  0  0
   47.4830   34.6860   41.8820 C   0  0  1  0  0  0  0  0  0  0  0  0
   48.5370   35.7060   41.6680 C   0  0  0  0  0  0  0  0  0  0  0  0
   48.9020   34.3720   42.1800 C   0  0  2  0  0  0  0  0  0  0  0  0
   47.0140   34.2800   40.9370 H   0  0  0  0  0  0  0  0  0  0  0  0
   48.8430   35.9780   40.6300 H   0  0  0  0  0  0  0  0  0  0  0  0
   48.5910   36.5800   42.3550 H   0  0  0  0  0  0  0  0  0  0  0  0
   49.1240   34.3330   43.2840 H   0  0  0  0  0  0  0  0  0  0  0  0
   45.6400   35.9640   43.0190 C   0  0  0  0  0  0  0  0  0  0  0  0
   46.5250   34.8770   42.9690 C   0  0  0  0  0  0  0  0  0  0  0  0
   46.4410   33.9460   44.0260 C   0  0  0  0  0  0  0  0  0  0  0  0
   45.5270   34.1490   45.0110 N   0  0  0  0  0  0  0  0  0  0  0  0
   44.6980   35.1990   45.0250 C   0  0  0  0  0  0  0  0  0  0  0  0
   44.7450   36.1280   44.0220 N   0  0  0  0  0  0  0  0  0  0  0  0
   45.7270   36.6660   42.1940 H   0  0  0  0  0  0  0  0  0  0  0  0
   47.0970   33.0740   44.0570 H   0  0  0  0  0  0  0  0  0  0  0  0
   44.0100   35.2620   45.8580 H   0  0  0  0  0  0  0  0  0  0  0  0
   49.7560   32.3430   39.3120 N   0  0  0  0  0  0  0  0  0  0  0  0
   49.8570   31.2790   39.1830 H   0  0  0  0  0  0  0  0  0  0  0  0
   48.3370   31.7580   36.5050 H   0  0  0  0  0  0  0  0  0  0  0  0
   48.3300   31.6020   37.5380 N   0  0  0  0  0  0  0  0  0  0  0  0
   49.0160   32.7330   38.1340 C   0  0  1  0  0  3  0  0  0  0  0  0
   48.0970   33.8880   38.3570 C   0  0  0  0  0  3  0  0  0  0  0  0
   48.6270   34.8610   38.2810 H   0  0  0  0  0  0  0  0  0  0  0  0
   47.1620   33.8290   37.2780 O   0  0  0  0  0  0  0  0  0  0  0  0
   46.2300   32.8610   37.6570 C   0  0  0  0  0  2  0  0  0  0  0  0
   46.9240   31.5350   37.9090 C   0  0  0  0  0  2  0  0  0  0  0  0
  1 18  1  0  0  0  0
  1  2  1  1  0  0  0
  2  8  1  0  0  0  0
  2  7  1  0  0  0  0
  3  2  1  0  0  0  0
  3 10  1  0  0  0  0
  4  3  1  0  0  0  0
  4 11  1  0  0  0  0
  5  4  1  0  0  0  0
  5 13  1  0  0  0  0
  6 15  1  6  0  0  0
  6  5  1  0  0  0  0
  6  1  1  0  0  0  0
  9  3  1  0  0  0  0
 12  4  1  0  0  0  0
 14  5  1  0  0  0  0
 16 19  1  6  0  0  0
 16 18  1  0  0  0  0
 16 24  1  0  0  0  0
 17 16  1  0  0  0  0
 17 18  1  0  0  0  0
 17 21  1  0  0  0  0
 18 22  1  1  0  0  0
 20 17  1  0  0  0  0
 23 28  1  0  0  0  0
 24 23  2  0  0  0  0
 24 25  1  0  0  0  0
 25 30  1  0  0  0  0
 25 26  2  0  0  0  0
 26 27  1  0  0  0  0
 27 31  1  0  0  0  0
 28 27  2  0  0  0  0
 29 23  1  0  0  0  0
 32  6  1  0  0  0  0
 33 32  1  0  0  0  0
 34 35  1  0  0  0  0
 35 41  1  0  0  0  0
 35 36  1  0  0  0  0
 36 37  1  0  0  0  0
 36 32  1  1  0  0  0
 38 37  1  0  0  0  0
 39 40  1  0  0  0  0
 39 37  1  0  0  0  0
 40 41  1  0  0  0  0
M  END
>  <minimizedAffinity>
-5.20637846

>  <minimizedRMSD>
1.8363837

$$$$
