
 OpenBabel03242523053D

 44 48  0  0  1  0  0  0  0  0999 V2000
   45.1140   36.0180   43.4910 C   0  0  0  0  0  0  0  0  0  0  0  0
   45.9140   34.9020   43.2560 C   0  0  0  0  0  0  0  0  0  0  0  0
   46.0350   33.9770   44.2570 C   0  0  0  0  0  0  0  0  0  0  0  0
   45.3740   34.1880   45.4390 N   0  0  0  0  0  0  0  0  0  0  0  0
   44.6060   35.2770   45.6390 C   0  0  0  0  0  0  0  0  0  0  0  0
   44.4830   36.1780   44.6730 N   0  0  0  0  0  0  0  0  0  0  0  0
   44.9960   36.7700   42.7180 H   0  0  0  0  0  0  0  0  0  0  0  0
   44.0580   35.5090   46.5410 H   0  0  0  0  0  0  0  0  0  0  0  0
   46.5540   34.8030   42.0240 N   0  0  0  0  0  0  0  0  0  0  0  0
   47.8630   35.2820   41.8030 C   0  0  0  0  0  0  0  0  0  0  0  0
   48.4490   34.9410   40.4550 C   0  0  0  0  0  0  0  0  0  0  0  0
   48.1640   33.6610   39.9710 N   0  0  0  0  0  0  0  0  0  0  0  0
   46.8720   33.1910   40.1880 C   0  0  0  0  0  0  0  0  0  0  0  0
   45.9880   34.2280   40.8530 C   0  0  0  0  0  0  0  0  0  0  0  0
   47.8080   36.4030   41.8400 H   0  0  0  0  0  0  0  0  0  0  0  0
   48.6090   35.0160   42.5840 H   0  0  0  0  0  0  0  0  0  0  0  0
   49.5570   35.0870   40.5100 H   0  0  0  0  0  0  0  0  0  0  0  0
   48.0920   35.6970   39.7080 H   0  0  0  0  0  0  0  0  0  0  0  0
   48.9580   33.0090   40.1210 H   0  0  0  0  0  0  0  0  0  0  0  0
   46.3880   33.0130   39.1820 H   0  0  0  0  0  0  0  0  0  0  0  0
   46.7600   32.2070   40.7030 H   0  0  0  0  0  0  0  0  0  0  0  0
   44.9800   33.8370   41.0640 H   0  0  0  0  0  0  0  0  0  0  0  0
   45.8820   35.0410   40.0870 H   0  0  0  0  0  0  0  0  0  0  0  0
   46.3700   31.9780   45.4590 C   0  0  0  0  0  0  0  0  0  0  0  0
   46.7480   32.7670   44.3480 C   0  0  0  0  0  0  0  0  0  0  0  0
   47.7840   32.1660   43.6560 C   0  0  0  0  0  0  0  0  0  0  0  0
   48.3800   30.9840   43.9730 C   0  0  0  0  0  0  0  0  0  0  0  0
   47.9460   30.2850   45.0820 C   0  0  0  0  0  0  0  0  0  0  0  0
   46.9350   30.7750   45.8350 C   0  0  0  0  0  0  0  0  0  0  0  0
   48.7520   29.1550   45.1230 O   0  0  0  0  0  0  0  0  0  0  0  0
   49.7000   29.1860   44.0740 C   0  0  2  0  0  0  0  0  0  0  0  0
   49.4180   30.3510   43.2980 O   0  0  0  0  0  0  0  0  0  0  0  0
   45.5720   32.1550   46.2120 H   0  0  0  0  0  0  0  0  0  0  0  0
   48.0690   32.7440   42.8380 H   0  0  0  0  0  0  0  0  0  0  0  0
   46.6700   30.1590   46.6690 H   0  0  0  0  0  0  0  0  0  0  0  0
   50.7460   29.2940   44.4270 H   0  0  0  0  0  0  0  0  0  0  0  0
   49.5530   27.9810   43.2850 N   0  0  2  0  0  0  0  0  0  0  0  0
   50.3480   26.8970   43.8000 C   0  0  0  0  0  0  0  0  0  0  0  0
   49.8460   26.3620   44.6250 H   0  0  0  0  0  0  0  0  0  0  0  0
   50.6240   25.9220   42.6970 C   0  0  0  0  0  0  0  0  0  0  0  0
   49.6880   25.7500   42.1420 H   0  0  0  0  0  0  0  0  0  0  0  0
   51.5670   26.3890   41.7830 O   0  0  0  0  0  0  0  0  0  0  0  0
   51.4520   27.7770   41.7480 C   0  0  0  0  0  0  0  0  0  0  0  0
   50.0390   28.2540   41.9450 C   0  0  0  0  0  0  0  0  0  0  0  0
  1  6  1  0  0  0  0
  2  1  2  0  0  0  0
  2  3  1  0  0  0  0
  3 25  1  0  0  0  0
  3  4  2  0  0  0  0
  4  5  1  0  0  0  0
  5  8  1  0  0  0  0
  6  5  2  0  0  0  0
  7  1  1  0  0  0  0
  9  2  1  0  0  0  0
 10 15  1  0  0  0  0
 10  9  1  0  0  0  0
 10 16  1  0  0  0  0
 11 17  1  0  0  0  0
 11 10  1  0  0  0  0
 12 19  1  0  0  0  0
 12 13  1  0  0  0  0
 12 11  1  0  0  0  0
 13 21  1  0  0  0  0
 13 14  1  0  0  0  0
 14 22  1  0  0  0  0
 14  9  1  0  0  0  0
 18 11  1  0  0  0  0
 20 13  1  0  0  0  0
 23 14  1  0  0  0  0
 24 29  1  0  0  0  0
 24 33  1  0  0  0  0
 25 24  2  0  0  0  0
 26 27  2  0  0  0  0
 26 25  1  0  0  0  0
 27 28  1  0  0  0  0
 28 30  1  0  0  0  0
 28 29  2  0  0  0  0
 29 35  1  0  0  0  0
 31 36  1  1  0  0  0
 31 30  1  0  0  0  0
 32 27  1  0  0  0  0
 32 31  1  0  0  0  0
 34 26  1  0  0  0  0
 37 44  1  6  0  0  0
 37 38  1  0  0  0  0
 37 31  1  0  0  0  0
 38 39  1  0  0  0  0
 40 38  1  0  0  0  0
 41 40  1  0  0  0  0
 42 40  1  0  0  0  0
 43 42  1  0  0  0  0
 43 44  1  0  0  0  0
M  END
>  <minimizedAffinity>
-4.92743158

>  <minimizedRMSD>
0.192811012

$$$$
