
 OpenBabel03242523093D

 44 48  0  0  1  0  0  0  0  0999 V2000
   42.7950   33.2310   40.6070 C   0  0  0  0  0  0  0  0  0  0  0  0
   41.9130   32.1540   40.6410 C   0  0  0  0  0  0  0  0  0  0  0  0
   41.8400   31.4190   41.7940 C   0  0  0  0  0  0  0  0  0  0  0  0
   42.6330   31.7700   42.8550 N   0  0  0  0  0  0  0  0  0  0  0  0
   43.4790   32.8170   42.7940 C   0  0  0  0  0  0  0  0  0  0  0  0
   43.5550   33.5350   41.6800 N   0  0  0  0  0  0  0  0  0  0  0  0
   42.8770   33.8340   39.7090 H   0  0  0  0  0  0  0  0  0  0  0  0
   44.1320   33.1510   43.5880 H   0  0  0  0  0  0  0  0  0  0  0  0
   41.1710   31.8790   39.4960 N   0  0  0  0  0  0  0  0  0  0  0  0
   39.8340   32.3000   39.3320 C   0  0  0  0  0  0  0  0  0  0  0  0
   39.2490   32.0510   37.9640 C   0  0  0  0  0  0  0  0  0  0  0  0
   40.1070   32.2700   36.8830 N   0  0  0  0  0  0  0  0  0  0  0  0
   41.4250   31.8520   37.0450 C   0  0  0  0  0  0  0  0  0  0  0  0
   41.6450   31.1490   38.3700 C   0  0  0  0  0  0  0  0  0  0  0  0
   39.2140   31.6940   40.0470 H   0  0  0  0  0  0  0  0  0  0  0  0
   39.6260   33.3550   39.6130 H   0  0  0  0  0  0  0  0  0  0  0  0
   38.3340   32.6870   37.8560 H   0  0  0  0  0  0  0  0  0  0  0  0
   38.8760   30.9940   37.9210 H   0  0  0  0  0  0  0  0  0  0  0  0
   39.9330   33.1900   36.4350 H   0  0  0  0  0  0  0  0  0  0  0  0
   41.6420   31.0600   36.2680 H   0  0  0  0  0  0  0  0  0  0  0  0
   42.2310   32.6060   36.8740 H   0  0  0  0  0  0  0  0  0  0  0  0
   42.6990   30.8600   38.5150 H   0  0  0  0  0  0  0  0  0  0  0  0
   41.0430   30.2060   38.2930 H   0  0  0  0  0  0  0  0  0  0  0  0
   39.7560   30.6220   42.5510 C   0  0  0  0  0  0  0  0  0  0  0  0
   41.0740   30.2960   42.1540 C   0  0  0  0  0  0  0  0  0  0  0  0
   41.2960   28.9360   42.2820 C   0  0  0  0  0  0  0  0  0  0  0  0
   40.3970   28.0150   42.7260 C   0  0  0  0  0  0  0  0  0  0  0  0
   39.1330   28.4300   43.0980 C   0  0  0  0  0  0  0  0  0  0  0  0
   38.8000   29.7380   43.0110 C   0  0  0  0  0  0  0  0  0  0  0  0
   38.4870   27.2690   43.5000 O   0  0  0  0  0  0  0  0  0  0  0  0
   39.3630   26.1610   43.4180 C   0  0  2  0  0  0  0  0  0  0  0  0
   40.5860   26.6450   42.8620 O   0  0  0  0  0  0  0  0  0  0  0  0
   39.2460   31.6090   42.5610 H   0  0  0  0  0  0  0  0  0  0  0  0
   42.2660   28.6900   41.9940 H   0  0  0  0  0  0  0  0  0  0  0  0
   37.7990   29.9570   43.3180 H   0  0  0  0  0  0  0  0  0  0  0  0
   39.6190   25.7270   44.4050 H   0  0  0  0  0  0  0  0  0  0  0  0
   38.7590   25.1600   42.5640 N   0  0  2  0  0  0  0  0  0  0  0  0
   39.6720   24.6900   41.5540 C   0  0  0  0  0  3  0  0  0  0  0  0
   40.3420   23.8970   41.9300 H   0  0  0  0  0  0  0  0  0  0  0  0
   38.8880   24.1450   40.3990 C   0  0  0  0  0  3  0  0  0  0  0  0
   38.0760   23.5140   40.7960 H   0  0  0  0  0  0  0  0  0  0  0  0
   38.2970   25.1410   39.6250 O   0  0  0  0  0  0  0  0  0  0  0  0
   38.0200   26.2100   40.4750 C   0  0  0  0  0  2  0  0  0  0  0  0
   37.6440   25.7730   41.8640 C   0  0  0  0  0  2  0  0  0  0  0  0
  1  2  2  0  0  0  0
  1  6  1  0  0  0  0
  2  3  1  0  0  0  0
  3 25  1  0  0  0  0
  3  4  2  0  0  0  0
  5  4  1  0  0  0  0
  5  8  1  0  0  0  0
  6  5  2  0  0  0  0
  7  1  1  0  0  0  0
  9  2  1  0  0  0  0
 10  9  1  0  0  0  0
 10 16  1  0  0  0  0
 10 15  1  0  0  0  0
 11 10  1  0  0  0  0
 12 13  1  0  0  0  0
 12 11  1  0  0  0  0
 13 14  1  0  0  0  0
 14 22  1  0  0  0  0
 14  9  1  0  0  0  0
 17 11  1  0  0  0  0
 18 11  1  0  0  0  0
 19 12  1  0  0  0  0
 20 13  1  0  0  0  0
 21 13  1  0  0  0  0
 23 14  1  0  0  0  0
 24 33  1  0  0  0  0
 24 29  1  0  0  0  0
 25 26  1  0  0  0  0
 25 24  2  0  0  0  0
 26 27  2  0  0  0  0
 27 32  1  0  0  0  0
 27 28  1  0  0  0  0
 28 30  1  0  0  0  0
 29 28  2  0  0  0  0
 29 35  1  0  0  0  0
 31 30  1  0  0  0  0
 31 36  1  1  0  0  0
 32 31  1  0  0  0  0
 34 26  1  0  0  0  0
 37 44  1  6  0  0  0
 37 31  1  0  0  0  0
 38 39  1  0  0  0  0
 38 37  1  0  0  0  0
 40 41  1  0  0  0  0
 40 38  1  0  0  0  0
 42 40  1  0  0  0  0
 42 43  1  0  0  0  0
 43 44  1  0  0  0  0
M  END
>  <minimizedAffinity>
-5.90282583

$$$$

 OpenBabel03242523093D

 44 48  0  0  1  0  0  0  0  0999 V2000
   36.5480   24.3040   40.2410 C   0  0  0  0  0  0  0  0  0  0  0  0
   36.9020   25.6230   40.5210 C   0  0  0  0  0  0  0  0  0  0  0  0
   36.5670   26.5850   39.6070 C   0  0  0  0  0  0  0  0  0  0  0  0
   35.9050   26.2140   38.4660 N   0  0  0  0  0  0  0  0  0  0  0  0
   35.5750   24.9310   38.2210 C   0  0  0  0  0  0  0  0  0  0  0  0
   35.8960   23.9920   39.1020 N   0  0  0  0  0  0  0  0  0  0  0  0
   36.7990   23.5180   40.9450 H   0  0  0  0  0  0  0  0  0  0  0  0
   35.0560   24.5660   37.3470 H   0  0  0  0  0  0  0  0  0  0  0  0
   37.5910   25.8800   41.7030 N   0  0  0  0  0  0  0  0  0  0  0  0
   38.9600   25.5810   41.8700 C   0  0  0  0  0  0  0  0  0  0  0  0
   39.5690   26.0770   43.1570 C   0  0  0  0  0  0  0  0  0  0  0  0
   39.1520   27.3410   43.5840 N   0  0  0  0  0  0  0  0  0  0  0  0
   37.8010   27.6330   43.4210 C   0  0  0  0  0  0  0  0  0  0  0  0
   37.0200   26.4550   42.8720 C   0  0  0  0  0  0  0  0  0  0  0  0
   39.0450   24.4610   41.9010 H   0  0  0  0  0  0  0  0  0  0  0  0
   39.6230   25.8850   41.0310 H   0  0  0  0  0  0  0  0  0  0  0  0
   40.6830   26.0660   43.0430 H   0  0  0  0  0  0  0  0  0  0  0  0
   39.3520   25.3330   43.9680 H   0  0  0  0  0  0  0  0  0  0  0  0
   39.8470   28.0750   43.3480 H   0  0  0  0  0  0  0  0  0  0  0  0
   37.3530   27.8160   44.4420 H   0  0  0  0  0  0  0  0  0  0  0  0
   37.5370   28.5610   42.8570 H   0  0  0  0  0  0  0  0  0  0  0  0
   35.9610   26.7040   42.7020 H   0  0  0  0  0  0  0  0  0  0  0  0
   37.0600   25.6860   43.6880 H   0  0  0  0  0  0  0  0  0  0  0  0
   35.8040   28.6990   40.3180 C   0  0  0  0  0  0  0  0  0  0  0  0
   36.7710   27.9770   39.5790 C   0  0  0  0  0  0  0  0  0  0  0  0
   37.6510   28.8430   38.9560 C   0  0  0  0  0  0  0  0  0  0  0  0
   37.6180   30.2030   39.0210 C   0  0  0  0  0  0  0  0  0  0  0  0
   36.6310   30.8200   39.7650 C   0  0  0  0  0  0  0  0  0  0  0  0
   35.7160   30.0730   40.4230 C   0  0  0  0  0  0  0  0  0  0  0  0
   36.8770   32.1780   39.6160 O   0  0  0  0  0  0  0  0  0  0  0  0
   37.9760   32.3900   38.7520 C   0  0  2  0  0  0  0  0  0  0  0  0
   38.4870   31.1010   38.4130 O   0  0  0  0  0  0  0  0  0  0  0  0
   34.9670   28.3200   40.9430 H   0  0  0  0  0  0  0  0  0  0  0  0
   38.3640   28.3180   38.4070 H   0  0  0  0  0  0  0  0  0  0  0  0
   34.9960   30.6420   40.9720 H   0  0  0  0  0  0  0  0  0  0  0  0
   37.6990   32.8770   37.7950 H   0  0  0  0  0  0  0  0  0  0  0  0
   38.9670   33.1790   39.4540 N   0  0  2  0  0  0  0  0  0  0  0  0
   40.3100   32.7710   39.1310 C   0  0  0  0  0  3  0  0  0  0  0  0
   40.6750   33.2300   38.1960 H   0  0  0  0  0  0  0  0  0  0  0  0
   41.2260   33.1680   40.2480 C   0  0  0  0  0  3  0  0  0  0  0  0
   40.9830   34.2000   40.5480 H   0  0  0  0  0  0  0  0  0  0  0  0
   41.0850   32.3640   41.3780 O   0  0  0  0  0  0  0  0  0  0  0  0
   39.7600   31.9340   41.4120 C   0  0  0  0  0  2  0  0  0  0  0  0
   38.7960   32.9580   40.8780 C   0  0  0  0  0  2  0  0  0  0  0  0
  1  2  1  0  0  0  0
  1  7  1  0  0  0  0
  2  9  1  0  0  0  0
  3  2  2  0  0  0  0
  4  3  1  0  0  0  0
  5  4  2  0  0  0  0
  5  6  1  0  0  0  0
  6  1  2  0  0  0  0
  8  5  1  0  0  0  0
  9 10  1  0  0  0  0
  9 14  1  0  0  0  0
 10 15  1  0  0  0  0
 10 11  1  0  0  0  0
 11 12  1  0  0  0  0
 11 18  1  0  0  0  0
 13 12  1  0  0  0  0
 13 20  1  0  0  0  0
 14 13  1  0  0  0  0
 14 23  1  0  0  0  0
 16 10  1  0  0  0  0
 17 11  1  0  0  0  0
 19 12  1  0  0  0  0
 21 13  1  0  0  0  0
 22 14  1  0  0  0  0
 24 29  1  0  0  0  0
 24 33  1  0  0  0  0
 25  3  1  0  0  0  0
 25 24  2  0  0  0  0
 26 27  2  0  0  0  0
 26 25  1  0  0  0  0
 27 28  1  0  0  0  0
 28 29  2  0  0  0  0
 29 35  1  0  0  0  0
 30 28  1  0  0  0  0
 31 36  1  6  0  0  0
 31 37  1  0  0  0  0
 31 30  1  0  0  0  0
 32 31  1  0  0  0  0
 32 27  1  0  0  0  0
 34 26  1  0  0  0  0
 37 44  1  1  0  0  0
 38 37  1  0  0  0  0
 38 40  1  0  0  0  0
 39 38  1  0  0  0  0
 40 41  1  0  0  0  0
 40 42  1  0  0  0  0
 42 43  1  0  0  0  0
 44 43  1  0  0  0  0
M  END
>  <minimizedAffinity>
-5.88214731

$$$$

 OpenBabel03242523093D

 44 48  0  0  1  0  0  0  0  0999 V2000
   37.3150   32.7680   39.2940 C   0  0  0  0  0  0  0  0  0  0  0  0
   37.3730   31.4050   39.5780 C   0  0  0  0  0  0  0  0  0  0  0  0
   38.2240   30.9910   40.5660 C   0  0  0  0  0  0  0  0  0  0  0  0
   38.9790   31.9250   41.2260 N   0  0  0  0  0  0  0  0  0  0  0  0
   38.9030   33.2380   40.9300 C   0  0  0  0  0  0  0  0  0  0  0  0
   38.0800   33.6480   39.9740 N   0  0  0  0  0  0  0  0  0  0  0  0
   36.6500   33.1300   38.5170 H   0  0  0  0  0  0  0  0  0  0  0  0
   39.4660   34.0280   41.4060 H   0  0  0  0  0  0  0  0  0  0  0  0
   36.5740   30.5460   38.8290 N   0  0  0  0  0  0  0  0  0  0  0  0
   36.7990   30.2920   37.4590 C   0  0  0  0  0  0  0  0  0  0  0  0
   35.9340   29.2130   36.8590 C   0  0  0  0  0  0  0  0  0  0  0  0
   35.6980   28.0970   37.6680 N   0  0  0  0  0  0  0  0  0  0  0  0
   35.4740   28.3490   39.0180 C   0  0  0  0  0  0  0  0  0  0  0  0
   35.4490   29.8330   39.3290 C   0  0  0  0  0  0  0  0  0  0  0  0
   36.5390   31.2370   36.9090 H   0  0  0  0  0  0  0  0  0  0  0  0
   37.8550   30.0900   37.1770 H   0  0  0  0  0  0  0  0  0  0  0  0
   36.4010   28.8890   35.8940 H   0  0  0  0  0  0  0  0  0  0  0  0
   34.9480   29.6630   36.5690 H   0  0  0  0  0  0  0  0  0  0  0  0
   36.3110   27.3000   37.4090 H   0  0  0  0  0  0  0  0  0  0  0  0
   34.4330   27.9910   39.2760 H   0  0  0  0  0  0  0  0  0  0  0  0
   36.1180   27.8150   39.7570 H   0  0  0  0  0  0  0  0  0  0  0  0
   35.3160   30.0270   40.4050 H   0  0  0  0  0  0  0  0  0  0  0  0
   34.5360   30.2160   38.8010 H   0  0  0  0  0  0  0  0  0  0  0  0
   38.1870   29.5870   42.4590 C   0  0  0  0  0  0  0  0  0  0  0  0
   38.5190   29.7190   41.0900 C   0  0  0  0  0  0  0  0  0  0  0  0
   39.1170   28.5620   40.6240 C   0  0  0  0  0  0  0  0  0  0  0  0
   39.3680   27.4390   41.3510 C   0  0  0  0  0  0  0  0  0  0  0  0
   39.0110   27.4060   42.6850 C   0  0  0  0  0  0  0  0  0  0  0  0
   38.4150   28.4800   43.2520 C   0  0  0  0  0  0  0  0  0  0  0  0
   39.4060   26.1490   43.1220 O   0  0  0  0  0  0  0  0  0  0  0  0
   40.0380   25.4370   42.0770 C   0  0  2  0  0  0  0  0  0  0  0  0
   39.9610   26.2610   40.9130 O   0  0  0  0  0  0  0  0  0  0  0  0
   37.6880   30.3140   43.1370 H   0  0  0  0  0  0  0  0  0  0  0  0
   39.3670   28.6540   39.6160 H   0  0  0  0  0  0  0  0  0  0  0  0
   38.1760   28.3550   44.2860 H   0  0  0  0  0  0  0  0  0  0  0  0
   41.1160   25.2530   42.2570 H   0  0  0  0  0  0  0  0  0  0  0  0
   39.3350   24.1860   41.8810 N   0  0  2  0  0  0  0  0  0  0  0  0
   39.0670   23.9300   40.4890 C   0  0  0  0  0  3  0  0  0  0  0  0
   39.9280   23.4720   39.9730 H   0  0  0  0  0  0  0  0  0  0  0  0
   37.8950   23.0030   40.3770 C   0  0  0  0  0  3  0  0  0  0  0  0
   38.0230   22.1890   41.1100 H   0  0  0  0  0  0  0  0  0  0  0  0
   36.6810   23.6260   40.6600 O   0  0  0  0  0  0  0  0  0  0  0  0
   36.9430   24.6350   41.5830 C   0  0  0  0  0  2  0  0  0  0  0  0
   38.0460   24.2820   42.5420 C   0  0  0  0  0  2  0  0  0  0  0  0
  1  2  2  0  0  0  0
  1  6  1  0  0  0  0
  2  3  1  0  0  0  0
  3 25  1  0  0  0  0
  3  4  2  0  0  0  0
  5  4  1  0  0  0  0
  5  8  1  0  0  0  0
  6  5  2  0  0  0  0
  7  1  1  0  0  0  0
  9 14  1  0  0  0  0
  9  2  1  0  0  0  0
 10  9  1  0  0  0  0
 11 10  1  0  0  0  0
 11 12  1  0  0  0  0
 12 13  1  0  0  0  0
 13 20  1  0  0  0  0
 13 14  1  0  0  0  0
 13 21  1  0  0  0  0
 14 22  1  0  0  0  0
 15 10  1  0  0  0  0
 16 10  1  0  0  0  0
 17 11  1  0  0  0  0
 18 11  1  0  0  0  0
 19 12  1  0  0  0  0
 23 14  1  0  0  0  0
 24 33  1  0  0  0  0
 24 29  1  0  0  0  0
 25 24  2  0  0  0  0
 26 25  1  0  0  0  0
 26 27  2  0  0  0  0
 27 28  1  0  0  0  0
 28 30  1  0  0  0  0
 28 29  2  0  0  0  0
 29 35  1  0  0  0  0
 31 36  1  1  0  0  0
 31 30  1  0  0  0  0
 32 27  1  0  0  0  0
 32 31  1  0  0  0  0
 34 26  1  0  0  0  0
 37 31  1  0  0  0  0
 37 44  1  1  0  0  0
 38 37  1  0  0  0  0
 39 38  1  0  0  0  0
 40 38  1  0  0  0  0
 40 42  1  0  0  0  0
 40 41  1  0  0  0  0
 42 43  1  0  0  0  0
 43 44  1  0  0  0  0
M  END
>  <minimizedAffinity>
-5.77584791

$$$$

 OpenBabel03242523093D

 44 48  0  0  1  0  0  0  0  0999 V2000
   36.5810   27.9530   41.5170 C   0  0  0  0  0  0  0  0  0  0  0  0
   37.4880   28.8790   41.0070 C   0  0  0  0  0  0  0  0  0  0  0  0
   38.3450   29.4880   41.8830 C   0  0  0  0  0  0  0  0  0  0  0  0
   38.2730   29.1660   43.2130 N   0  0  0  0  0  0  0  0  0  0  0  0
   37.3850   28.2660   43.6790 C   0  0  0  0  0  0  0  0  0  0  0  0
   36.5510   27.6710   42.8360 N   0  0  0  0  0  0  0  0  0  0  0  0
   35.8890   27.4520   40.8490 H   0  0  0  0  0  0  0  0  0  0  0  0
   37.2710   27.9640   44.7100 H   0  0  0  0  0  0  0  0  0  0  0  0
   37.4580   29.1420   39.6400 N   0  0  0  0  0  0  0  0  0  0  0  0
   36.6640   30.1640   39.0760 C   0  0  0  0  0  0  0  0  0  0  0  0
   36.8850   30.4050   37.6040 C   0  0  0  0  0  0  0  0  0  0  0  0
   38.2090   30.3310   37.1640 N   0  0  0  0  0  0  0  0  0  0  0  0
   38.9900   29.3210   37.7190 C   0  0  0  0  0  0  0  0  0  0  0  0
   38.1960   28.4300   38.6540 C   0  0  0  0  0  0  0  0  0  0  0  0
   35.5940   29.8370   39.1780 H   0  0  0  0  0  0  0  0  0  0  0  0
   36.7040   31.1450   39.5990 H   0  0  0  0  0  0  0  0  0  0  0  0
   36.4560   31.4070   37.3470 H   0  0  0  0  0  0  0  0  0  0  0  0
   36.2700   29.6670   37.0240 H   0  0  0  0  0  0  0  0  0  0  0  0
   38.6300   31.2740   37.0510 H   0  0  0  0  0  0  0  0  0  0  0  0
   39.3180   28.6310   36.8860 H   0  0  0  0  0  0  0  0  0  0  0  0
   39.9530   29.6170   38.2000 H   0  0  0  0  0  0  0  0  0  0  0  0
   38.8260   27.6600   39.1260 H   0  0  0  0  0  0  0  0  0  0  0  0
   37.4620   27.9050   37.9880 H   0  0  0  0  0  0  0  0  0  0  0  0
   40.5280   30.1710   42.4500 C   0  0  0  0  0  0  0  0  0  0  0  0
   39.3580   30.4480   41.7050 C   0  0  0  0  0  0  0  0  0  0  0  0
   39.4880   31.6460   41.0260 C   0  0  0  0  0  0  0  0  0  0  0  0
   40.5730   32.4690   41.0520 C   0  0  0  0  0  0  0  0  0  0  0  0
   41.6690   32.1170   41.8140 C   0  0  0  0  0  0  0  0  0  0  0  0
   41.6580   30.9630   42.5190 C   0  0  0  0  0  0  0  0  0  0  0  0
   42.5740   33.1530   41.6280 O   0  0  0  0  0  0  0  0  0  0  0  0
   42.0180   34.1510   40.7950 C   0  0  2  0  0  0  0  0  0  0  0  0
   40.7370   33.6750   40.3800 O   0  0  0  0  0  0  0  0  0  0  0  0
   40.7650   29.2950   43.0910 H   0  0  0  0  0  0  0  0  0  0  0  0
   38.6280   31.8580   40.4780 H   0  0  0  0  0  0  0  0  0  0  0  0
   42.5530   30.7780   43.0740 H   0  0  0  0  0  0  0  0  0  0  0  0
   41.8380   35.1120   41.3170 H   0  0  0  0  0  0  0  0  0  0  0  0
   42.8970   34.3470   39.6610 N   0  0  2  0  0  0  0  0  0  0  0  0
   42.1780   34.3490   38.4130 C   0  0  0  0  0  3  0  0  0  0  0  0
   41.7380   35.3350   38.1830 H   0  0  0  0  0  0  0  0  0  0  0  0
   43.1140   33.9720   37.3060 C   0  0  0  0  0  3  0  0  0  0  0  0
   44.0550   34.5290   37.4410 H   0  0  0  0  0  0  0  0  0  0  0  0
   43.4320   32.6150   37.3020 O   0  0  0  0  0  0  0  0  0  0  0  0
   43.3820   32.1790   38.6240 C   0  0  0  0  0  2  0  0  0  0  0  0
   43.8220   33.2290   39.6060 C   0  0  0  0  0  2  0  0  0  0  0  0
  1  6  1  0  0  0  0
  2  1  2  0  0  0  0
  2  3  1  0  0  0  0
  3  4  2  0  0  0  0
  4  5  1  0  0  0  0
  5  8  1  0  0  0  0
  6  5  2  0  0  0  0
  7  1  1  0  0  0  0
  9  2  1  0  0  0  0
 10 15  1  0  0  0  0
 10 16  1  0  0  0  0
 10  9  1  0  0  0  0
 11 10  1  0  0  0  0
 12 11  1  0  0  0  0
 12 13  1  0  0  0  0
 13 21  1  0  0  0  0
 13 14  1  0  0  0  0
 14 22  1  0  0  0  0
 14  9  1  0  0  0  0
 17 11  1  0  0  0  0
 18 11  1  0  0  0  0
 19 12  1  0  0  0  0
 20 13  1  0  0  0  0
 23 14  1  0  0  0  0
 24 29  1  0  0  0  0
 24 33  1  0  0  0  0
 25  3  1  0  0  0  0
 25 24  2  0  0  0  0
 26 27  2  0  0  0  0
 26 25  1  0  0  0  0
 27 28  1  0  0  0  0
 28 29  2  0  0  0  0
 29 35  1  0  0  0  0
 30 28  1  0  0  0  0
 31 36  1  1  0  0  0
 31 30  1  0  0  0  0
 32 31  1  0  0  0  0
 32 27  1  0  0  0  0
 34 26  1  0  0  0  0
 37 44  1  6  0  0  0
 37 31  1  0  0  0  0
 38 37  1  0  0  0  0
 39 38  1  0  0  0  0
 40 41  1  0  0  0  0
 40 38  1  0  0  0  0
 42 40  1  0  0  0  0
 42 43  1  0  0  0  0
 43 44  1  0  0  0  0
M  END
>  <minimizedAffinity>
-5.7552762

$$$$

 OpenBabel03242523093D

 44 48  0  0  1  0  0  0  0  0999 V2000
   40.5830   33.4500   39.4500 C   0  0  0  0  0  0  0  0  0  0  0  0
   39.9200   32.2750   39.8000 C   0  0  0  0  0  0  0  0  0  0  0  0
   40.4440   31.5200   40.8150 C   0  0  0  0  0  0  0  0  0  0  0  0
   41.5890   31.9460   41.4350 N   0  0  0  0  0  0  0  0  0  0  0  0
   42.2100   33.0870   41.0750 C   0  0  0  0  0  0  0  0  0  0  0  0
   41.7080   33.8250   40.0930 N   0  0  0  0  0  0  0  0  0  0  0  0
   40.1930   34.0710   38.6510 H   0  0  0  0  0  0  0  0  0  0  0  0
   43.1130   33.4840   41.5170 H   0  0  0  0  0  0  0  0  0  0  0  0
   38.7750   31.9310   39.0870 N   0  0  0  0  0  0  0  0  0  0  0  0
   38.8210   31.2790   37.8360 C   0  0  0  0  0  0  0  0  0  0  0  0
   37.4830   30.8440   37.2930 C   0  0  0  0  0  0  0  0  0  0  0  0
   36.5810   30.3310   38.2300 N   0  0  0  0  0  0  0  0  0  0  0  0
   36.5350   30.9760   39.4620 C   0  0  0  0  0  0  0  0  0  0  0  0
   37.4410   32.1900   39.5080 C   0  0  0  0  0  0  0  0  0  0  0  0
   39.2250   32.0240   37.0980 H   0  0  0  0  0  0  0  0  0  0  0  0
   39.5210   30.4180   37.7700 H   0  0  0  0  0  0  0  0  0  0  0  0
   37.6640   30.0880   36.4880 H   0  0  0  0  0  0  0  0  0  0  0  0
   37.0060   31.7160   36.7740 H   0  0  0  0  0  0  0  0  0  0  0  0
   36.5620   29.2930   38.2150 H   0  0  0  0  0  0  0  0  0  0  0  0
   35.4950   31.3960   39.6020 H   0  0  0  0  0  0  0  0  0  0  0  0
   36.6840   30.3530   40.3770 H   0  0  0  0  0  0  0  0  0  0  0  0
   37.4370   32.6720   40.4990 H   0  0  0  0  0  0  0  0  0  0  0  0
   36.9850   32.9110   38.7800 H   0  0  0  0  0  0  0  0  0  0  0  0
   39.0060   30.4710   42.3590 C   0  0  0  0  0  0  0  0  0  0  0  0
   40.0360   30.3090   41.4020 C   0  0  0  0  0  0  0  0  0  0  0  0
   40.4280   28.9840   41.3320 C   0  0  0  0  0  0  0  0  0  0  0  0
   39.9190   27.9570   42.0660 C   0  0  0  0  0  0  0  0  0  0  0  0
   38.9170   28.2140   42.9810 C   0  0  0  0  0  0  0  0  0  0  0  0
   38.4500   29.4740   43.1350 C   0  0  0  0  0  0  0  0  0  0  0  0
   38.6380   26.9790   43.5510 O   0  0  0  0  0  0  0  0  0  0  0  0
   39.4930   25.9850   43.0210 C   0  0  2  0  0  0  0  0  0  0  0  0
   40.2860   26.6170   42.0170 O   0  0  0  0  0  0  0  0  0  0  0  0
   38.4580   31.3900   42.6560 H   0  0  0  0  0  0  0  0  0  0  0  0
   41.1890   28.8580   40.6310 H   0  0  0  0  0  0  0  0  0  0  0  0
   37.6730   29.5680   43.8640 H   0  0  0  0  0  0  0  0  0  0  0  0
   40.2030   25.5710   43.7650 H   0  0  0  0  0  0  0  0  0  0  0  0
   38.6770   24.9290   42.4580 N   0  0  2  0  0  0  0  0  0  0  0  0
   39.2000   24.4530   41.2030 C   0  0  0  0  0  3  0  0  0  0  0  0
   39.9970   23.7010   41.3390 H   0  0  0  0  0  0  0  0  0  0  0  0
   38.0900   23.8360   40.4100 C   0  0  0  0  0  3  0  0  0  0  0  0
   37.4980   23.1910   41.0820 H   0  0  0  0  0  0  0  0  0  0  0  0
   37.2180   24.7790   39.8690 O   0  0  0  0  0  0  0  0  0  0  0  0
   37.2050   25.8690   40.7370 C   0  0  0  0  0  2  0  0  0  0  0  0
   37.3600   25.4730   42.1800 C   0  0  0  0  0  2  0  0  0  0  0  0
  1  2  2  0  0  0  0
  1  6  1  0  0  0  0
  2  3  1  0  0  0  0
  3 25  1  0  0  0  0
  3  4  2  0  0  0  0
  5  4  1  0  0  0  0
  5  8  1  0  0  0  0
  6  5  2  0  0  0  0
  7  1  1  0  0  0  0
  9 14  1  0  0  0  0
  9  2  1  0  0  0  0
 10  9  1  0  0  0  0
 11 10  1  0  0  0  0
 11 12  1  0  0  0  0
 12 13  1  0  0  0  0
 13 14  1  0  0  0  0
 13 20  1  0  0  0  0
 13 21  1  0  0  0  0
 14 22  1  0  0  0  0
 15 10  1  0  0  0  0
 16 10  1  0  0  0  0
 17 11  1  0  0  0  0
 18 11  1  0  0  0  0
 19 12  1  0  0  0  0
 23 14  1  0  0  0  0
 24 33  1  0  0  0  0
 24 29  1  0  0  0  0
 25 24  2  0  0  0  0
 26 25  1  0  0  0  0
 26 27  2  0  0  0  0
 27 28  1  0  0  0  0
 28 29  2  0  0  0  0
 28 30  1  0  0  0  0
 29 35  1  0  0  0  0
 31 30  1  0  0  0  0
 31 36  1  1  0  0  0
 32 27  1  0  0  0  0
 32 31  1  0  0  0  0
 34 26  1  0  0  0  0
 37 44  1  6  0  0  0
 37 31  1  0  0  0  0
 38 39  1  0  0  0  0
 38 37  1  0  0  0  0
 40 41  1  0  0  0  0
 40 38  1  0  0  0  0
 42 40  1  0  0  0  0
 42 43  1  0  0  0  0
 43 44  1  0  0  0  0
M  END
>  <minimizedAffinity>
-5.69890356

$$$$

 OpenBabel03242523093D

 44 48  0  0  1  0  0  0  0  0999 V2000
   39.2980   31.9730   41.5000 C   0  0  0  0  0  0  0  0  0  0  0  0
   38.4940   30.9560   40.9880 C   0  0  0  0  0  0  0  0  0  0  0  0
   37.5640   31.2880   40.0400 C   0  0  0  0  0  0  0  0  0  0  0  0
   37.4630   32.5950   39.6400 N   0  0  0  0  0  0  0  0  0  0  0  0
   38.2540   33.5590   40.1530 C   0  0  0  0  0  0  0  0  0  0  0  0
   39.1580   33.2440   41.0720 N   0  0  0  0  0  0  0  0  0  0  0  0
   40.0450   31.7430   42.2520 H   0  0  0  0  0  0  0  0  0  0  0  0
   38.2300   34.6050   39.8860 H   0  0  0  0  0  0  0  0  0  0  0  0
   38.6730   29.6680   41.4840 N   0  0  0  0  0  0  0  0  0  0  0  0
   38.3070   29.2960   42.7960 C   0  0  0  0  0  0  0  0  0  0  0  0
   38.4260   27.8230   43.0990 C   0  0  0  0  0  0  0  0  0  0  0  0
   38.0360   26.9550   42.0740 N   0  0  0  0  0  0  0  0  0  0  0  0
   38.3990   27.3220   40.7820 C   0  0  0  0  0  0  0  0  0  0  0  0
   39.2390   28.5840   40.7570 C   0  0  0  0  0  0  0  0  0  0  0  0
   39.0250   29.8120   43.4900 H   0  0  0  0  0  0  0  0  0  0  0  0
   37.3050   29.6410   43.1290 H   0  0  0  0  0  0  0  0  0  0  0  0
   37.8310   27.6090   44.0230 H   0  0  0  0  0  0  0  0  0  0  0  0
   39.4890   27.5990   43.3770 H   0  0  0  0  0  0  0  0  0  0  0  0
   37.0800   26.5810   42.2310 H   0  0  0  0  0  0  0  0  0  0  0  0
   39.0820   26.5220   40.3670 H   0  0  0  0  0  0  0  0  0  0  0  0
   37.5890   27.3880   40.0170 H   0  0  0  0  0  0  0  0  0  0  0  0
   39.4860   28.8960   39.7300 H   0  0  0  0  0  0  0  0  0  0  0  0
   40.1980   28.2940   41.2630 H   0  0  0  0  0  0  0  0  0  0  0  0
   35.6430   29.9310   40.1740 C   0  0  0  0  0  0  0  0  0  0  0  0
   36.6160   30.5250   39.3360 C   0  0  0  0  0  0  0  0  0  0  0  0
   36.4190   30.1460   38.0200 C   0  0  0  0  0  0  0  0  0  0  0  0
   35.4400   29.3180   37.5620 C   0  0  0  0  0  0  0  0  0  0  0  0
   34.5360   28.7810   38.4580 C   0  0  0  0  0  0  0  0  0  0  0  0
   34.6280   29.0840   39.7730 C   0  0  0  0  0  0  0  0  0  0  0  0
   33.6960   27.9950   37.6810 O   0  0  0  0  0  0  0  0  0  0  0  0
   34.1100   28.0160   36.3280 C   0  0  2  0  0  0  0  0  0  0  0  0
   35.2110   28.9220   36.2500 O   0  0  0  0  0  0  0  0  0  0  0  0
   35.5010   30.0310   41.2710 H   0  0  0  0  0  0  0  0  0  0  0  0
   37.1340   30.5770   37.3980 H   0  0  0  0  0  0  0  0  0  0  0  0
   33.8820   28.6210   40.3840 H   0  0  0  0  0  0  0  0  0  0  0  0
   34.4850   27.0380   35.9660 H   0  0  0  0  0  0  0  0  0  0  0  0
   33.0000   28.4680   35.5150 N   0  0  2  0  0  0  0  0  0  0  0  0
   31.8570   28.8270   36.3140 C   0  0  0  0  0  3  0  0  0  0  0  0
   31.9260   29.8560   36.7070 H   0  0  0  0  0  0  0  0  0  0  0  0
   30.6190   28.7180   35.4760 C   0  0  0  0  0  3  0  0  0  0  0  0
   30.8200   29.1810   34.4960 H   0  0  0  0  0  0  0  0  0  0  0  0
   30.2380   27.3990   35.2400 O   0  0  0  0  0  0  0  0  0  0  0  0
   31.4010   26.6320   35.2290 C   0  0  0  0  0  2  0  0  0  0  0  0
   32.5840   27.3680   34.6640 C   0  0  0  0  0  2  0  0  0  0  0  0
  1  7  1  0  0  0  0
  2  9  1  0  0  0  0
  2  1  2  0  0  0  0
  3  2  1  0  0  0  0
  4  3  2  0  0  0  0
  4  5  1  0  0  0  0
  5  6  2  0  0  0  0
  6  1  1  0  0  0  0
  8  5  1  0  0  0  0
  9 10  1  0  0  0  0
 10 11  1  0  0  0  0
 10 16  1  0  0  0  0
 10 15  1  0  0  0  0
 11 18  1  0  0  0  0
 11 17  1  0  0  0  0
 12 19  1  0  0  0  0
 12 11  1  0  0  0  0
 13 12  1  0  0  0  0
 14 13  1  0  0  0  0
 14 23  1  0  0  0  0
 14  9  1  0  0  0  0
 20 13  1  0  0  0  0
 21 13  1  0  0  0  0
 22 14  1  0  0  0  0
 24 33  1  0  0  0  0
 25  3  1  0  0  0  0
 25 24  2  0  0  0  0
 26 25  1  0  0  0  0
 27 26  2  0  0  0  0
 27 28  1  0  0  0  0
 28 29  2  0  0  0  0
 29 24  1  0  0  0  0
 29 35  1  0  0  0  0
 30 28  1  0  0  0  0
 31 36  1  6  0  0  0
 31 30  1  0  0  0  0
 32 31  1  0  0  0  0
 32 27  1  0  0  0  0
 34 26  1  0  0  0  0
 37 44  1  6  0  0  0
 37 38  1  0  0  0  0
 37 31  1  0  0  0  0
 38 39  1  0  0  0  0
 40 38  1  0  0  0  0
 41 40  1  0  0  0  0
 42 40  1  0  0  0  0
 43 42  1  0  0  0  0
 44 43  1  0  0  0  0
M  END
>  <minimizedAffinity>
-5.55720711

$$$$

 OpenBabel03242523093D

 44 48  0  0  1  0  0  0  0  0999 V2000
   35.8110   27.6920   39.0180 C   0  0  0  0  0  0  0  0  0  0  0  0
   36.7590   28.5890   39.5070 C   0  0  0  0  0  0  0  0  0  0  0  0
   36.9740   29.7430   38.8040 C   0  0  0  0  0  0  0  0  0  0  0  0
   36.2570   29.9640   37.6570 N   0  0  0  0  0  0  0  0  0  0  0  0
   35.3460   29.0780   37.2070 C   0  0  0  0  0  0  0  0  0  0  0  0
   35.1310   27.9580   37.8840 N   0  0  0  0  0  0  0  0  0  0  0  0
   35.6170   26.7690   39.5520 H   0  0  0  0  0  0  0  0  0  0  0  0
   34.7470   29.1860   36.3140 H   0  0  0  0  0  0  0  0  0  0  0  0
   37.4420   28.2500   40.6720 N   0  0  0  0  0  0  0  0  0  0  0  0
   38.7270   27.6670   40.6620 C   0  0  0  0  0  0  0  0  0  0  0  0
   39.3720   27.5200   42.0180 C   0  0  0  0  0  0  0  0  0  0  0  0
   39.1770   28.5820   42.9060 N   0  0  0  0  0  0  0  0  0  0  0  0
   37.9090   29.1550   42.9160 C   0  0  0  0  0  0  0  0  0  0  0  0
   36.9460   28.4340   41.9930 C   0  0  0  0  0  0  0  0  0  0  0  0
   38.6050   26.6230   40.2650 H   0  0  0  0  0  0  0  0  0  0  0  0
   39.4620   28.1400   39.9750 H   0  0  0  0  0  0  0  0  0  0  0  0
   40.4680   27.3510   41.8650 H   0  0  0  0  0  0  0  0  0  0  0  0
   38.9950   26.5780   42.4940 H   0  0  0  0  0  0  0  0  0  0  0  0
   40.0030   29.2110   42.9380 H   0  0  0  0  0  0  0  0  0  0  0  0
   37.4670   29.0150   43.9470 H   0  0  0  0  0  0  0  0  0  0  0  0
   37.8390   30.2570   42.7550 H   0  0  0  0  0  0  0  0  0  0  0  0
   35.9560   28.9170   41.9690 H   0  0  0  0  0  0  0  0  0  0  0  0
   36.8170   27.4200   42.4560 H   0  0  0  0  0  0  0  0  0  0  0  0
   37.3380   31.7720   39.9450 C   0  0  0  0  0  0  0  0  0  0  0  0
   37.8390   30.8330   39.0140 C   0  0  0  0  0  0  0  0  0  0  0  0
   39.0450   31.2640   38.4910 C   0  0  0  0  0  0  0  0  0  0  0  0
   39.6850   32.4240   38.8050 C   0  0  0  0  0  0  0  0  0  0  0  0
   39.1150   33.2830   39.7240 C   0  0  0  0  0  0  0  0  0  0  0  0
   37.9360   32.9640   40.3050 C   0  0  0  0  0  0  0  0  0  0  0  0
   40.0010   34.3480   39.8050 O   0  0  0  0  0  0  0  0  0  0  0  0
   41.0810   34.1640   38.9110 C   0  0  2  0  0  0  0  0  0  0  0  0
   40.8970   32.8850   38.3030 O   0  0  0  0  0  0  0  0  0  0  0  0
   36.4090   31.7350   40.5540 H   0  0  0  0  0  0  0  0  0  0  0  0
   39.4180   30.5780   37.8020 H   0  0  0  0  0  0  0  0  0  0  0  0
   37.5790   33.6910   41.0030 H   0  0  0  0  0  0  0  0  0  0  0  0
   41.1000   34.9010   38.0830 H   0  0  0  0  0  0  0  0  0  0  0  0
   42.3160   34.2140   39.6640 N   0  0  2  0  0  0  0  0  0  0  0  0
   43.2380   33.1830   39.2600 C   0  0  0  0  0  3  0  0  0  0  0  0
   43.8240   33.4700   38.3690 H   0  0  0  0  0  0  0  0  0  0  0  0
   44.1850   32.9020   40.3860 C   0  0  0  0  0  3  0  0  0  0  0  0
   44.5260   33.8640   40.8030 H   0  0  0  0  0  0  0  0  0  0  0  0
   43.5950   32.1870   41.4260 O   0  0  0  0  0  0  0  0  0  0  0  0
   42.2470   32.5370   41.4520 C   0  0  0  0  0  2  0  0  0  0  0  0
   42.0060   33.9690   41.0610 C   0  0  0  0  0  2  0  0  0  0  0  0
  1  2  1  0  0  0  0
  1  7  1  0  0  0  0
  2  9  1  0  0  0  0
  3 25  1  0  0  0  0
  3  2  2  0  0  0  0
  4  3  1  0  0  0  0
  5  4  2  0  0  0  0
  5  6  1  0  0  0  0
  6  1  2  0  0  0  0
  8  5  1  0  0  0  0
  9 14  1  0  0  0  0
 10  9  1  0  0  0  0
 10 11  1  0  0  0  0
 11 18  1  0  0  0  0
 11 12  1  0  0  0  0
 12 13  1  0  0  0  0
 12 19  1  0  0  0  0
 13 20  1  0  0  0  0
 14 23  1  0  0  0  0
 14 13  1  0  0  0  0
 15 10  1  0  0  0  0
 16 10  1  0  0  0  0
 17 11  1  0  0  0  0
 21 13  1  0  0  0  0
 22 14  1  0  0  0  0
 24 29  1  0  0  0  0
 24 33  1  0  0  0  0
 25 24  2  0  0  0  0
 26 27  2  0  0  0  0
 26 25  1  0  0  0  0
 27 28  1  0  0  0  0
 28 30  1  0  0  0  0
 28 29  2  0  0  0  0
 29 35  1  0  0  0  0
 31 36  1  6  0  0  0
 31 37  1  0  0  0  0
 31 30  1  0  0  0  0
 32 27  1  0  0  0  0
 32 31  1  0  0  0  0
 34 26  1  0  0  0  0
 37 44  1  1  0  0  0
 38 37  1  0  0  0  0
 38 40  1  0  0  0  0
 39 38  1  0  0  0  0
 40 41  1  0  0  0  0
 40 42  1  0  0  0  0
 42 43  1  0  0  0  0
 44 43  1  0  0  0  0
M  END
>  <minimizedAffinity>
-5.54455519

$$$$

 OpenBabel03242523093D

 44 48  0  0  1  0  0  0  0  0999 V2000
   38.3910   29.4760   42.8110 C   0  0  0  0  0  0  0  0  0  0  0  0
   37.7830   29.5430   41.5590 C   0  0  0  0  0  0  0  0  0  0  0  0
   36.8660   28.5780   41.2380 C   0  0  0  0  0  0  0  0  0  0  0  0
   36.5900   27.5950   42.1520 N   0  0  0  0  0  0  0  0  0  0  0  0
   37.1940   27.5540   43.3560 C   0  0  0  0  0  0  0  0  0  0  0  0
   38.0830   28.4860   43.6760 N   0  0  0  0  0  0  0  0  0  0  0  0
   39.1210   30.2250   43.0970 H   0  0  0  0  0  0  0  0  0  0  0  0
   37.0270   26.8120   44.1240 H   0  0  0  0  0  0  0  0  0  0  0  0
   38.1560   30.5760   40.7050 N   0  0  0  0  0  0  0  0  0  0  0  0
   39.2200   30.4590   39.7840 C   0  0  0  0  0  0  0  0  0  0  0  0
   39.3710   31.6200   38.8330 C   0  0  0  0  0  0  0  0  0  0  0  0
   38.1820   32.1700   38.3440 N   0  0  0  0  0  0  0  0  0  0  0  0
   37.1350   32.2860   39.2540 C   0  0  0  0  0  0  0  0  0  0  0  0
   37.5380   31.8560   40.6510 C   0  0  0  0  0  0  0  0  0  0  0  0
   40.1670   30.4300   40.3870 H   0  0  0  0  0  0  0  0  0  0  0  0
   39.2390   29.5190   39.1920 H   0  0  0  0  0  0  0  0  0  0  0  0
   40.0140   31.2890   37.9780 H   0  0  0  0  0  0  0  0  0  0  0  0
   39.9580   32.4280   39.3440 H   0  0  0  0  0  0  0  0  0  0  0  0
   37.9680   31.8310   37.3870 H   0  0  0  0  0  0  0  0  0  0  0  0
   36.8800   33.3820   39.3610 H   0  0  0  0  0  0  0  0  0  0  0  0
   36.1580   31.8220   38.9790 H   0  0  0  0  0  0  0  0  0  0  0  0
   36.6950   31.9070   41.3580 H   0  0  0  0  0  0  0  0  0  0  0  0
   38.2960   32.6180   40.9740 H   0  0  0  0  0  0  0  0  0  0  0  0
   36.3720   27.1250   39.4500 C   0  0  0  0  0  0  0  0  0  0  0  0
   36.0900   28.3570   40.0870 C   0  0  0  0  0  0  0  0  0  0  0  0
   35.1480   29.0690   39.3660 C   0  0  0  0  0  0  0  0  0  0  0  0
   34.5580   28.6730   38.2050 C   0  0  0  0  0  0  0  0  0  0  0  0
   34.9030   27.4530   37.6550 C   0  0  0  0  0  0  0  0  0  0  0  0
   35.8120   26.6670   38.2740 C   0  0  0  0  0  0  0  0  0  0  0  0
   34.1420   27.3630   36.4970 O   0  0  0  0  0  0  0  0  0  0  0  0
   33.3730   28.5370   36.3180 C   0  0  2  0  0  0  0  0  0  0  0  0
   33.6080   29.3610   37.4600 O   0  0  0  0  0  0  0  0  0  0  0  0
   37.0630   26.3120   39.7620 H   0  0  0  0  0  0  0  0  0  0  0  0
   34.9370   29.9790   39.8280 H   0  0  0  0  0  0  0  0  0  0  0  0
   36.0080   25.7430   37.7720 H   0  0  0  0  0  0  0  0  0  0  0  0
   33.6780   29.1340   35.4350 H   0  0  0  0  0  0  0  0  0  0  0  0
   31.9780   28.1620   36.2190 N   0  0  2  0  0  0  0  0  0  0  0  0
   31.5620   27.9850   34.8510 C   0  0  0  0  0  3  0  0  0  0  0  0
   31.8100   26.9820   34.4630 H   0  0  0  0  0  0  0  0  0  0  0  0
   30.0790   28.1790   34.7600 C   0  0  0  0  0  3  0  0  0  0  0  0
   29.6050   27.6340   35.5930 H   0  0  0  0  0  0  0  0  0  0  0  0
   29.6980   29.5150   34.8690 O   0  0  0  0  0  0  0  0  0  0  0  0
   30.6390   30.1440   35.6820 C   0  0  0  0  0  2  0  0  0  0  0  0
   31.1780   29.2450   36.7600 C   0  0  0  0  0  2  0  0  0  0  0  0
  1  7  1  0  0  0  0
  1  6  1  0  0  0  0
  2  1  2  0  0  0  0
  3  2  1  0  0  0  0
  3  4  2  0  0  0  0
  4  5  1  0  0  0  0
  5  6  2  0  0  0  0
  5  8  1  0  0  0  0
  9  2  1  0  0  0  0
 10 15  1  0  0  0  0
 10  9  1  0  0  0  0
 11 18  1  0  0  0  0
 11 10  1  0  0  0  0
 12 11  1  0  0  0  0
 12 13  1  0  0  0  0
 13 20  1  0  0  0  0
 13 14  1  0  0  0  0
 14  9  1  0  0  0  0
 14 23  1  0  0  0  0
 14 22  1  0  0  0  0
 16 10  1  0  0  0  0
 17 11  1  0  0  0  0
 19 12  1  0  0  0  0
 21 13  1  0  0  0  0
 24 33  1  0  0  0  0
 24 25  1  0  0  0  0
 25  3  1  0  0  0  0
 26 34  1  0  0  0  0
 26 25  2  0  0  0  0
 27 26  1  0  0  0  0
 28 27  2  0  0  0  0
 28 29  1  0  0  0  0
 29 24  2  0  0  0  0
 30 28  1  0  0  0  0
 31 36  1  6  0  0  0
 31 30  1  0  0  0  0
 31 32  1  0  0  0  0
 32 27  1  0  0  0  0
 35 29  1  0  0  0  0
 37 31  1  0  0  0  0
 37 44  1  6  0  0  0
 38 37  1  0  0  0  0
 39 38  1  0  0  0  0
 40 38  1  0  0  0  0
 40 42  1  0  0  0  0
 40 41  1  0  0  0  0
 42 43  1  0  0  0  0
 43 44  1  0  0  0  0
M  END
>  <minimizedAffinity>
-5.4957695

$$$$

 OpenBabel03242523093D

 44 48  0  0  1  0  0  0  0  0999 V2000
   36.0370   24.6050   38.7530 C   0  0  0  0  0  0  0  0  0  0  0  0
   36.5650   25.7910   39.2600 C   0  0  0  0  0  0  0  0  0  0  0  0
   36.0680   26.9720   38.7800 C   0  0  0  0  0  0  0  0  0  0  0  0
   35.0840   26.9400   37.8280 N   0  0  0  0  0  0  0  0  0  0  0  0
   34.5910   25.7780   37.3540 C   0  0  0  0  0  0  0  0  0  0  0  0
   35.0670   24.6280   37.8150 N   0  0  0  0  0  0  0  0  0  0  0  0
   36.4080   23.6520   39.1120 H   0  0  0  0  0  0  0  0  0  0  0  0
   33.8180   25.6760   36.6060 H   0  0  0  0  0  0  0  0  0  0  0  0
   37.5770   25.7020   40.2110 N   0  0  0  0  0  0  0  0  0  0  0  0
   37.3190   25.5630   41.5920 C   0  0  0  0  0  0  0  0  0  0  0  0
   38.5360   25.3210   42.4480 C   0  0  0  0  0  0  0  0  0  0  0  0
   39.5050   24.4700   41.9080 N   0  0  0  0  0  0  0  0  0  0  0  0
   39.7600   24.6100   40.5470 C   0  0  0  0  0  0  0  0  0  0  0  0
   38.9710   25.7470   39.9280 C   0  0  0  0  0  0  0  0  0  0  0  0
   36.8870   26.5400   41.9400 H   0  0  0  0  0  0  0  0  0  0  0  0
   36.5470   24.8090   41.8610 H   0  0  0  0  0  0  0  0  0  0  0  0
   38.1930   24.9230   43.4370 H   0  0  0  0  0  0  0  0  0  0  0  0
   39.0130   26.3080   42.6810 H   0  0  0  0  0  0  0  0  0  0  0  0
   39.4360   23.5110   42.3000 H   0  0  0  0  0  0  0  0  0  0  0  0
   40.8410   24.9180   40.4200 H   0  0  0  0  0  0  0  0  0  0  0  0
   39.6780   23.6970   39.9090 H   0  0  0  0  0  0  0  0  0  0  0  0
   39.1410   25.8260   38.8430 H   0  0  0  0  0  0  0  0  0  0  0  0
   39.3890   26.6730   40.4040 H   0  0  0  0  0  0  0  0  0  0  0  0
   35.7490   28.7880   40.2470 C   0  0  0  0  0  0  0  0  0  0  0  0
   36.3730   28.3150   39.0700 C   0  0  0  0  0  0  0  0  0  0  0  0
   37.0880   29.3290   38.4590 C   0  0  0  0  0  0  0  0  0  0  0  0
   37.1940   30.6130   38.9000 C   0  0  0  0  0  0  0  0  0  0  0  0
   36.5430   30.9850   40.0600 C   0  0  0  0  0  0  0  0  0  0  0  0
   35.8150   30.0740   40.7460 C   0  0  0  0  0  0  0  0  0  0  0  0
   36.8460   32.3300   40.2170 O   0  0  0  0  0  0  0  0  0  0  0  0
   37.6380   32.7880   39.1380 C   0  0  2  0  0  0  0  0  0  0  0  0
   37.9060   31.6540   38.3140 O   0  0  0  0  0  0  0  0  0  0  0  0
   35.1160   28.2410   40.9790 H   0  0  0  0  0  0  0  0  0  0  0  0
   37.5480   28.9880   37.5880 H   0  0  0  0  0  0  0  0  0  0  0  0
   35.3530   30.4580   41.6310 H   0  0  0  0  0  0  0  0  0  0  0  0
   37.1210   33.5270   38.4930 H   0  0  0  0  0  0  0  0  0  0  0  0
   38.8610   33.3490   39.6720 N   0  0  2  0  0  0  0  0  0  0  0  0
   40.0290   32.8240   39.0120 C   0  0  0  0  0  3  0  0  0  0  0  0
   40.2530   33.3530   38.0700 H   0  0  0  0  0  0  0  0  0  0  0  0
   41.2100   32.9540   39.9250 C   0  0  0  0  0  3  0  0  0  0  0  0
   41.1930   33.9610   40.3750 H   0  0  0  0  0  0  0  0  0  0  0  0
   41.1920   32.0340   40.9710 O   0  0  0  0  0  0  0  0  0  0  0  0
   39.8550   31.7700   41.2620 C   0  0  0  0  0  2  0  0  0  0  0  0
   38.9650   32.9660   41.0680 C   0  0  0  0  0  2  0  0  0  0  0  0
  1  7  1  0  0  0  0
  1  2  1  0  0  0  0
  2  9  1  0  0  0  0
  3 25  1  0  0  0  0
  3  2  2  0  0  0  0
  4  3  1  0  0  0  0
  5  6  1  0  0  0  0
  5  4  2  0  0  0  0
  6  1  2  0  0  0  0
  8  5  1  0  0  0  0
  9 10  1  0  0  0  0
 10 16  1  0  0  0  0
 10 15  1  0  0  0  0
 10 11  1  0  0  0  0
 11 18  1  0  0  0  0
 11 17  1  0  0  0  0
 12 19  1  0  0  0  0
 12 11  1  0  0  0  0
 13 12  1  0  0  0  0
 14  9  1  0  0  0  0
 14 23  1  0  0  0  0
 14 13  1  0  0  0  0
 20 13  1  0  0  0  0
 21 13  1  0  0  0  0
 22 14  1  0  0  0  0
 24 29  1  0  0  0  0
 24 33  1  0  0  0  0
 25 24  2  0  0  0  0
 26 27  2  0  0  0  0
 26 25  1  0  0  0  0
 27 28  1  0  0  0  0
 28 30  1  0  0  0  0
 28 29  2  0  0  0  0
 29 35  1  0  0  0  0
 31 36  1  6  0  0  0
 31 37  1  0  0  0  0
 31 30  1  0  0  0  0
 32 27  1  0  0  0  0
 32 31  1  0  0  0  0
 34 26  1  0  0  0  0
 37 44  1  1  0  0  0
 38 37  1  0  0  0  0
 38 40  1  0  0  0  0
 39 38  1  0  0  0  0
 40 41  1  0  0  0  0
 40 42  1  0  0  0  0
 42 43  1  0  0  0  0
 44 43  1  0  0  0  0
M  END
>  <minimizedAffinity>
-5.47872829

$$$$
