
 OpenBabel03252500463D

 25 27  0  0  0  0  0  0  0  0999 V2000
   45.5140   34.0150   44.8950 C   0  0  0  0  0  0  0  0  0  0  0  0
   45.1010   33.2480   43.7770 C   0  0  0  0  0  0  0  0  0  0  0  0
   45.4340   31.8960   43.7490 C   0  0  0  0  0  0  0  0  0  0  0  0
   46.1390   31.3890   44.8020 N   0  0  0  0  0  0  0  0  0  0  0  0
   46.5120   32.1470   45.8440 C   0  0  0  0  0  0  0  0  0  0  0  0
   46.2070   33.4510   45.8960 N   0  0  0  0  0  0  0  0  0  0  0  0
   45.2620   35.0520   44.9220 H   0  0  0  0  0  0  0  0  0  0  0  0
   45.1590   31.2380   42.9360 H   0  0  0  0  0  0  0  0  0  0  0  0
   47.2660   31.5500   46.9440 C   0  0  0  0  0  0  0  0  0  0  0  0
   47.5790   30.2170   46.9640 C   0  0  0  0  0  0  0  0  0  0  0  0
   48.2900   29.6330   47.9910 C   0  0  0  0  0  0  0  0  0  0  0  0
   48.6780   30.4570   49.0130 N   0  0  0  0  0  0  0  0  0  0  0  0
   48.3670   31.7520   48.9810 C   0  0  0  0  0  0  0  0  0  0  0  0
   47.6680   32.3500   47.9790 N   0  0  0  0  0  0  0  0  0  0  0  0
   47.2280   29.6520   46.1120 H   0  0  0  0  0  0  0  0  0  0  0  0
   48.4710   28.5700   47.8850 H   0  0  0  0  0  0  0  0  0  0  0  0
   48.7090   32.3370   49.8240 H   0  0  0  0  0  0  0  0  0  0  0  0
   44.3620   33.8150   42.6890 N   0  0  0  0  0  0  0  0  0  0  0  0
   43.5890   32.9270   41.8230 C   0  0  0  0  0  0  0  0  0  0  0  0
   44.3040   32.2690   41.3270 H   0  0  0  0  0  0  0  0  0  0  0  0
   42.6830   33.6980   40.9240 C   0  0  0  0  0  0  0  0  0  0  0  0
   41.6930   33.1760   40.9350 H   0  0  0  0  0  0  0  0  0  0  0  0
   42.4490   35.0000   41.2730 O   0  0  0  0  0  0  0  0  0  0  0  0
   43.6120   35.7520   41.4160 C   0  0  0  0  0  0  0  0  0  0  0  0
   44.4610   35.2720   42.5550 C   0  0  0  0  0  0  0  0  0  0  0  0
  1  7  1  0  0  0  0
  1  6  1  0  0  0  0
  2  1  2  0  0  0  0
  3  2  1  0  0  0  0
  3  4  2  0  0  0  0
  4  5  1  0  0  0  0
  5  6  2  0  0  0  0
  5  9  1  0  0  0  0
  8  3  1  0  0  0  0
  9 10  2  0  0  0  0
  9 14  1  0  0  0  0
 10 11  1  0  0  0  0
 11 12  2  0  0  0  0
 13 12  1  0  0  0  0
 13 17  1  0  0  0  0
 14 13  2  0  0  0  0
 15 10  1  0  0  0  0
 16 11  1  0  0  0  0
 18  2  1  0  0  0  0
 19 18  1  0  0  0  0
 20 19  1  0  0  0  0
 21 22  1  0  0  0  0
 21 23  1  0  0  0  0
 21 19  1  0  0  0  0
 23 24  1  0  0  0  0
 24 25  1  0  0  0  0
 25 18  1  0  0  0  0
M  END
>  <minimizedAffinity>
-4.35439587

>  <minimizedRMSD>
2.74505615

$$$$
