
 OpenBabel03252506453D

 41 44  0  0  1  0  0  0  0  0999 V2000
   49.5590   33.4510   41.5120 N   0  0  1  0  0  0  0  0  0  0  0  0
   50.7550   33.1820   42.2750 C   0  0  0  0  0  0  0  0  0  0  0  0
   51.3940   31.8570   41.9550 C   0  0  0  0  0  0  0  0  0  0  0  0
   50.4670   30.7520   42.3870 C   0  0  0  0  0  0  0  0  0  0  0  0
   49.0060   31.1430   42.1940 C   0  0  0  0  0  0  0  0  0  0  0  0
   48.9530   32.2080   41.1400 C   0  0  2  0  0  0  0  0  0  0  0  0
   50.4390   33.1080   43.3490 H   0  0  0  0  0  0  0  0  0  0  0  0
   51.4750   34.0260   42.2510 H   0  0  0  0  0  0  0  0  0  0  0  0
   51.8250   31.7690   40.9600 H   0  0  0  0  0  0  0  0  0  0  0  0
   52.2760   31.7880   42.6530 H   0  0  0  0  0  0  0  0  0  0  0  0
   50.6370   30.5030   43.4430 H   0  0  0  0  0  0  0  0  0  0  0  0
   50.6450   29.8830   41.7200 H   0  0  0  0  0  0  0  0  0  0  0  0
   48.6470   31.6170   43.1600 H   0  0  0  0  0  0  0  0  0  0  0  0
   48.3480   30.3290   41.9620 H   0  0  0  0  0  0  0  0  0  0  0  0
   47.8520   32.4410   41.0300 H   0  0  0  0  0  0  0  0  0  0  0  0
   47.3210   34.6350   41.9970 C   0  0  1  0  0  0  0  0  0  0  0  0
   48.3840   35.6270   41.7110 C   0  0  0  0  0  0  0  0  0  0  0  0
   48.7410   34.3170   42.2840 C   0  0  2  0  0  0  0  0  0  0  0  0
   46.8290   34.1870   41.0840 H   0  0  0  0  0  0  0  0  0  0  0  0
   48.6730   35.8410   40.6550 H   0  0  0  0  0  0  0  0  0  0  0  0
   48.4630   36.5350   42.3500 H   0  0  0  0  0  0  0  0  0  0  0  0
   48.9830   34.3320   43.3850 H   0  0  0  0  0  0  0  0  0  0  0  0
   45.5650   36.0310   43.1320 C   0  0  0  0  0  0  0  0  0  0  0  0
   46.3860   34.8960   43.0900 C   0  0  0  0  0  0  0  0  0  0  0  0
   46.2610   33.9860   44.1620 C   0  0  0  0  0  0  0  0  0  0  0  0
   45.3700   34.2550   45.1520 N   0  0  0  0  0  0  0  0  0  0  0  0
   44.6020   35.3510   45.1580 C   0  0  0  0  0  0  0  0  0  0  0  0
   44.6910   36.2600   44.1410 N   0  0  0  0  0  0  0  0  0  0  0  0
   45.6830   36.7150   42.2960 H   0  0  0  0  0  0  0  0  0  0  0  0
   46.8670   33.0780   44.2000 H   0  0  0  0  0  0  0  0  0  0  0  0
   43.9270   35.4640   45.9970 H   0  0  0  0  0  0  0  0  0  0  0  0
   49.4070   31.7050   39.8750 N   0  0  0  0  0  0  0  0  0  0  0  0
   49.4960   30.6330   39.9260 H   0  0  0  0  0  0  0  0  0  0  0  0
   46.7380   32.9180   38.5940 H   0  0  0  0  0  0  0  0  0  0  0  0
   47.6940   33.1120   38.9700 N   0  0  0  0  0  0  0  0  0  0  0  0
   48.4610   31.8910   38.7990 C   0  0  1  0  0  3  0  0  0  0  0  0
   49.0710   31.8010   37.4400 C   0  0  0  0  0  3  0  0  0  0  0  0
   49.1730   30.7480   37.1000 H   0  0  0  0  0  0  0  0  0  0  0  0
   48.1350   32.4420   36.5720 O   0  0  0  0  0  0  0  0  0  0  0  0
   48.3760   33.8080   36.7210 C   0  0  0  0  0  2  0  0  0  0  0  0
   48.2070   34.2160   38.1720 C   0  0  0  0  0  2  0  0  0  0  0  0
  1  2  1  1  0  0  0
  1 18  1  0  0  0  0
  2  7  1  0  0  0  0
  3  2  1  0  0  0  0
  3  4  1  0  0  0  0
  3 10  1  0  0  0  0
  4 11  1  0  0  0  0
  5  4  1  0  0  0  0
  5 13  1  0  0  0  0
  6 15  1  6  0  0  0
  6  1  1  0  0  0  0
  6  5  1  0  0  0  0
  8  2  1  0  0  0  0
  9  3  1  0  0  0  0
 12  4  1  0  0  0  0
 14  5  1  0  0  0  0
 16 19  1  6  0  0  0
 16 18  1  0  0  0  0
 16 24  1  0  0  0  0
 17 16  1  0  0  0  0
 17 18  1  0  0  0  0
 17 21  1  0  0  0  0
 18 22  1  1  0  0  0
 20 17  1  0  0  0  0
 23 28  1  0  0  0  0
 24 23  2  0  0  0  0
 24 25  1  0  0  0  0
 25 30  1  0  0  0  0
 25 26  2  0  0  0  0
 26 27  1  0  0  0  0
 27 31  1  0  0  0  0
 28 27  2  0  0  0  0
 29 23  1  0  0  0  0
 32 33  1  0  0  0  0
 32  6  1  0  0  0  0
 34 35  1  0  0  0  0
 36 35  1  0  0  0  0
 36 32  1  1  0  0  0
 37 36  1  0  0  0  0
 38 37  1  0  0  0  0
 39 40  1  0  0  0  0
 39 37  1  0  0  0  0
 40 41  1  0  0  0  0
 41 35  1  0  0  0  0
M  END
>  <minimizedAffinity>
-5.20121527

>  <minimizedRMSD>
1.31559515

$$$$
