
 OpenBabel03242519183D

 41 44  0  0  1  0  0  0  0  0999 V2000
   37.2180   29.0270   42.3580 C   0  0  0  0  0  0  0  0  0  0  0  0
   36.1890   28.3000   41.8060 C   0  0  0  0  0  0  0  0  0  0  0  0
   35.4670   28.7240   40.6870 C   0  0  0  0  0  0  0  0  0  0  0  0
   35.8500   29.9180   40.1670 N   0  0  0  0  0  0  0  0  0  0  0  0
   36.8520   30.6280   40.7040 C   0  0  0  0  0  0  0  0  0  0  0  0
   37.5160   30.1830   41.7770 N   0  0  0  0  0  0  0  0  0  0  0  0
   35.8900   27.3320   42.2380 H   0  0  0  0  0  0  0  0  0  0  0  0
   34.6670   28.1200   40.2900 H   0  0  0  0  0  0  0  0  0  0  0  0
   37.2990   31.9340   40.1200 C   0  0  2  0  0  0  0  0  0  0  0  0
   37.2950   32.0840   38.6320 C   0  0  0  0  0  0  0  0  0  0  0  0
   38.6110   31.9190   39.4110 C   0  0  1  0  0  0  0  0  0  0  0  0
   37.0350   32.8370   40.7220 H   0  0  0  0  0  0  0  0  0  0  0  0
   37.0850   33.0410   38.1360 H   0  0  0  0  0  0  0  0  0  0  0  0
   37.0540   31.2130   37.9900 H   0  0  0  0  0  0  0  0  0  0  0  0
   39.1440   30.9660   39.3680 H   0  0  0  0  0  0  0  0  0  0  0  0
   39.4260   33.0870   39.3930 N   0  0  1  0  0  0  0  0  0  0  0  0
   39.4960   33.8270   40.6140 C   0  0  0  0  0  3  0  0  0  0  0  0
   39.9100   33.2820   41.4660 H   0  0  0  0  0  0  0  0  0  0  0  0
   40.2880   35.0980   40.2970 C   0  0  0  0  0  3  0  0  0  0  0  0
   40.2400   35.7970   41.1390 H   0  0  0  0  0  0  0  0  0  0  0  0
   41.5820   34.8360   39.9430 O   0  0  0  0  0  0  0  0  0  0  0  0
   41.8070   33.7440   39.1720 C   0  0  0  0  0  2  0  0  0  0  0  0
   40.6410   32.9840   38.6650 C   0  0  0  0  0  2  0  0  0  0  0  0
   37.9540   28.5620   43.5070 C   0  0  0  0  0  0  0  0  0  0  0  0
   37.2450   28.4840   44.3790 H   0  0  0  0  0  0  0  0  0  0  0  0
   38.7520   29.2570   43.8240 H   0  0  0  0  0  0  0  0  0  0  0  0
   38.4970   27.1920   43.2500 C   0  0  0  0  0  0  0  0  0  0  0  0
   38.1830   26.8250   42.2450 H   0  0  0  0  0  0  0  0  0  0  0  0
   38.1400   26.4280   43.9650 H   0  0  0  0  0  0  0  0  0  0  0  0
   39.7410   24.4800   43.3320 Cl  0  0  0  0  0  0  0  0  0  0  0  0
   40.6850   25.9510   43.3100 C   0  0  0  0  0  0  0  0  0  0  0  0
   39.9900   27.1450   43.2700 C   0  0  0  0  0  0  0  0  0  0  0  0
   40.7240   28.3110   43.2510 C   0  0  0  0  0  0  0  0  0  0  0  0
   42.1100   28.2910   43.2700 C   0  0  0  0  0  0  0  0  0  0  0  0
   42.7850   27.0550   43.3110 C   0  0  0  0  0  0  0  0  0  0  0  0
   42.0470   25.9010   43.3300 C   0  0  0  0  0  0  0  0  0  0  0  0
   40.2460   29.2850   43.2210 H   0  0  0  0  0  0  0  0  0  0  0  0
   42.6740   29.2110   43.2550 H   0  0  0  0  0  0  0  0  0  0  0  0
   43.8640   27.0370   43.3260 H   0  0  0  0  0  0  0  0  0  0  0  0
   42.6460   24.6430   43.3700 O   0  0  0  0  0  0  0  0  0  0  0  0
   43.0300   24.2890   44.2360 H   0  0  0  0  0  0  0  0  0  0  0  0
  1 24  1  0  0  0  0
  2  7  1  0  0  0  0
  2  1  1  0  0  0  0
  3  2  2  0  0  0  0
  4  3  1  0  0  0  0
  4  5  2  0  0  0  0
  5  6  1  0  0  0  0
  6  1  2  0  0  0  0
  8  3  1  0  0  0  0
  9  5  1  0  0  0  0
  9 12  1  1  0  0  0
 10 11  1  0  0  0  0
 10  9  1  0  0  0  0
 11 15  1  6  0  0  0
 11  9  1  0  0  0  0
 13 10  1  0  0  0  0
 14 10  1  0  0  0  0
 16 23  1  1  0  0  0
 16 11  1  0  0  0  0
 16 17  1  0  0  0  0
 17 18  1  0  0  0  0
 19 17  1  0  0  0  0
 19 20  1  0  0  0  0
 21 19  1  0  0  0  0
 22 21  1  0  0  0  0
 23 22  1  0  0  0  0
 24 26  1  0  0  0  0
 24 25  1  0  0  0  0
 27 32  1  0  0  0  0
 27 24  1  0  0  0  0
 27 29  1  0  0  0  0
 28 27  1  0  0  0  0
 31 36  1  0  0  0  0
 31 30  1  0  0  0  0
 32 31  2  0  0  0  0
 33 32  1  0  0  0  0
 33 34  2  0  0  0  0
 34 35  1  0  0  0  0
 35 39  1  0  0  0  0
 35 36  2  0  0  0  0
 36 40  1  0  0  0  0
 37 33  1  0  0  0  0
 38 34  1  0  0  0  0
 40 41  1  0  0  0  0
M  END
>  <minimizedAffinity>
-6.53289127

$$$$

 OpenBabel03242519183D

 41 44  0  0  1  0  0  0  0  0999 V2000
   37.3280   30.0510   41.3700 C   0  0  0  0  0  0  0  0  0  0  0  0
   36.5740   30.0320   40.2200 C   0  0  0  0  0  0  0  0  0  0  0  0
   36.7140   30.9760   39.1980 C   0  0  0  0  0  0  0  0  0  0  0  0
   37.6570   31.9280   39.4130 N   0  0  0  0  0  0  0  0  0  0  0  0
   38.3930   31.9480   40.5330 C   0  0  0  0  0  0  0  0  0  0  0  0
   38.2240   31.0240   41.4870 N   0  0  0  0  0  0  0  0  0  0  0  0
   35.8130   29.2530   40.0590 H   0  0  0  0  0  0  0  0  0  0  0  0
   36.1000   30.9220   38.3140 H   0  0  0  0  0  0  0  0  0  0  0  0
   39.4540   32.9800   40.7660 C   0  0  2  0  0  0  0  0  0  0  0  0
   39.1390   34.4060   40.4440 C   0  0  0  0  0  0  0  0  0  0  0  0
   40.0680   33.5740   39.5430 C   0  0  1  0  0  0  0  0  0  0  0  0
   40.1130   32.7920   41.6480 H   0  0  0  0  0  0  0  0  0  0  0  0
   39.5600   35.2470   41.0140 H   0  0  0  0  0  0  0  0  0  0  0  0
   38.1760   34.6630   39.9620 H   0  0  0  0  0  0  0  0  0  0  0  0
   39.7010   33.2190   38.5770 H   0  0  0  0  0  0  0  0  0  0  0  0
   41.4220   34.0180   39.5670 N   0  0  1  0  0  0  0  0  0  0  0  0
   42.3130   33.2800   40.4050 C   0  0  0  0  0  3  0  0  0  0  0  0
   42.4310   32.2250   40.1450 H   0  0  0  0  0  0  0  0  0  0  0  0
   43.6440   34.0360   40.3820 C   0  0  0  0  0  3  0  0  0  0  0  0
   44.3280   33.6270   41.1330 H   0  0  0  0  0  0  0  0  0  0  0  0
   44.2190   34.0490   39.1420 O   0  0  0  0  0  0  0  0  0  0  0  0
   43.3950   34.1910   38.0760 C   0  0  0  0  0  2  0  0  0  0  0  0
   41.9560   34.4440   38.3220 C   0  0  0  0  0  2  0  0  0  0  0  0
   37.1700   29.0590   42.4050 C   0  0  0  0  0  0  0  0  0  0  0  0
   36.3530   28.3480   42.0980 H   0  0  0  0  0  0  0  0  0  0  0  0
   36.8550   29.4870   43.3730 H   0  0  0  0  0  0  0  0  0  0  0  0
   38.4270   28.2600   42.5470 C   0  0  0  0  0  0  0  0  0  0  0  0
   38.8320   28.3430   43.5830 H   0  0  0  0  0  0  0  0  0  0  0  0
   39.2460   28.5920   41.8840 H   0  0  0  0  0  0  0  0  0  0  0  0
   40.3150   26.3900   43.9060 Cl  0  0  0  0  0  0  0  0  0  0  0  0
   39.0290   25.8360   42.8590 C   0  0  0  0  0  0  0  0  0  0  0  0
   38.2200   26.8020   42.2900 C   0  0  0  0  0  0  0  0  0  0  0  0
   37.2020   26.3780   41.4640 C   0  0  0  0  0  0  0  0  0  0  0  0
   36.9940   25.0310   41.2110 C   0  0  0  0  0  0  0  0  0  0  0  0
   37.8380   24.0740   41.8080 C   0  0  0  0  0  0  0  0  0  0  0  0
   38.8470   24.5050   42.6280 C   0  0  0  0  0  0  0  0  0  0  0  0
   36.5290   27.0800   40.9830 H   0  0  0  0  0  0  0  0  0  0  0  0
   36.1930   24.7110   40.5630 H   0  0  0  0  0  0  0  0  0  0  0  0
   37.6770   23.0250   41.6130 H   0  0  0  0  0  0  0  0  0  0  0  0
   39.7210   23.6170   43.2530 O   0  0  0  0  0  0  0  0  0  0  0  0
   40.4710   23.1870   42.7280 H   0  0  0  0  0  0  0  0  0  0  0  0
  1  6  1  0  0  0  0
  1 24  1  0  0  0  0
  2  1  2  0  0  0  0
  3  4  2  0  0  0  0
  3  2  1  0  0  0  0
  4  5  1  0  0  0  0
  5  9  1  0  0  0  0
  5  6  2  0  0  0  0
  7  2  1  0  0  0  0
  8  3  1  0  0  0  0
  9 12  1  1  0  0  0
 10  9  1  0  0  0  0
 10 13  1  0  0  0  0
 11 15  1  6  0  0  0
 11 16  1  0  0  0  0
 11 10  1  0  0  0  0
 11  9  1  0  0  0  0
 14 10  1  0  0  0  0
 16 23  1  6  0  0  0
 16 17  1  0  0  0  0
 18 17  1  0  0  0  0
 19 17  1  0  0  0  0
 19 20  1  0  0  0  0
 21 19  1  0  0  0  0
 22 23  1  0  0  0  0
 22 21  1  0  0  0  0
 24 27  1  0  0  0  0
 24 26  1  0  0  0  0
 25 24  1  0  0  0  0
 27 28  1  0  0  0  0
 29 27  1  0  0  0  0
 31 30  1  0  0  0  0
 32 27  1  0  0  0  0
 32 31  2  0  0  0  0
 33 32  1  0  0  0  0
 34 33  2  0  0  0  0
 34 35  1  0  0  0  0
 35 36  2  0  0  0  0
 36 31  1  0  0  0  0
 36 40  1  0  0  0  0
 37 33  1  0  0  0  0
 38 34  1  0  0  0  0
 39 35  1  0  0  0  0
 41 40  1  0  0  0  0
M  END
>  <minimizedAffinity>
-6.24866104

$$$$

 OpenBabel03242519183D

 41 44  0  0  1  0  0  0  0  0999 V2000
   38.1970   30.5600   39.5350 C   0  0  0  0  0  0  0  0  0  0  0  0
   37.1750   31.4550   39.7510 C   0  0  0  0  0  0  0  0  0  0  0  0
   36.2150   31.2920   40.7540 C   0  0  0  0  0  0  0  0  0  0  0  0
   36.3560   30.1780   41.5170 N   0  0  0  0  0  0  0  0  0  0  0  0
   37.3510   29.3050   41.3080 C   0  0  0  0  0  0  0  0  0  0  0  0
   38.2480   29.5000   40.3340 N   0  0  0  0  0  0  0  0  0  0  0  0
   37.0730   32.3540   39.1240 H   0  0  0  0  0  0  0  0  0  0  0  0
   35.4310   32.0200   40.8860 H   0  0  0  0  0  0  0  0  0  0  0  0
   37.5290   28.0870   42.1620 C   0  0  2  0  0  0  0  0  0  0  0  0
   37.3670   28.2290   43.6420 C   0  0  0  0  0  0  0  0  0  0  0  0
   38.7570   28.0550   43.0080 C   0  0  1  0  0  0  0  0  0  0  0  0
   37.1800   27.1310   41.7020 H   0  0  0  0  0  0  0  0  0  0  0  0
   36.9630   27.4240   44.2720 H   0  0  0  0  0  0  0  0  0  0  0  0
   37.2100   29.2320   44.0860 H   0  0  0  0  0  0  0  0  0  0  0  0
   39.4290   28.9140   42.9440 H   0  0  0  0  0  0  0  0  0  0  0  0
   39.3710   26.8100   43.3290 N   0  0  1  0  0  0  0  0  0  0  0  0
   39.0740   25.7170   42.4580 C   0  0  0  0  0  3  0  0  0  0  0  0
   39.3820   25.8530   41.4180 H   0  0  0  0  0  0  0  0  0  0  0  0
   39.7120   24.4800   43.0950 C   0  0  0  0  0  3  0  0  0  0  0  0
   39.3860   23.5720   42.5750 H   0  0  0  0  0  0  0  0  0  0  0  0
   41.0750   24.5590   43.1460 O   0  0  0  0  0  0  0  0  0  0  0  0
   41.6180   25.7660   43.4360 C   0  0  0  0  0  2  0  0  0  0  0  0
   40.7110   26.8820   43.7950 C   0  0  0  0  0  2  0  0  0  0  0  0
   39.1800   30.7560   38.4980 C   0  0  0  0  0  0  0  0  0  0  0  0
   38.8920   31.6650   37.8990 H   0  0  0  0  0  0  0  0  0  0  0  0
   39.2260   29.9190   37.7790 H   0  0  0  0  0  0  0  0  0  0  0  0
   40.5200   31.0270   39.1050 C   0  0  0  0  0  0  0  0  0  0  0  0
   41.3040   30.3950   38.6280 H   0  0  0  0  0  0  0  0  0  0  0  0
   40.5760   30.8000   40.1850 H   0  0  0  0  0  0  0  0  0  0  0  0
   42.1340   31.6350   36.6690 Cl  0  0  0  0  0  0  0  0  0  0  0  0
   41.7120   32.8530   37.8500 C   0  0  0  0  0  0  0  0  0  0  0  0
   40.9590   32.4450   38.9350 C   0  0  0  0  0  0  0  0  0  0  0  0
   40.6190   33.3980   39.8710 C   0  0  0  0  0  0  0  0  0  0  0  0
   41.0160   34.7180   39.7320 C   0  0  0  0  0  0  0  0  0  0  0  0
   41.7840   35.0990   38.6140 C   0  0  0  0  0  0  0  0  0  0  0  0
   42.1170   34.1450   37.6880 C   0  0  0  0  0  0  0  0  0  0  0  0
   40.0300   33.1490   40.7480 H   0  0  0  0  0  0  0  0  0  0  0  0
   40.7440   35.4550   40.4720 H   0  0  0  0  0  0  0  0  0  0  0  0
   42.0940   36.1260   38.5040 H   0  0  0  0  0  0  0  0  0  0  0  0
   42.8740   34.4470   36.5570 O   0  0  0  0  0  0  0  0  0  0  0  0
   43.8740   34.5750   36.6330 H   0  0  0  0  0  0  0  0  0  0  0  0
  1  2  2  0  0  0  0
  1  6  1  0  0  0  0
  2  3  1  0  0  0  0
  3  8  1  0  0  0  0
  3  4  2  0  0  0  0
  5  4  1  0  0  0  0
  5  9  1  0  0  0  0
  6  5  2  0  0  0  0
  7  2  1  0  0  0  0
  9 12  1  6  0  0  0
  9 11  1  0  0  0  0
  9 10  1  0  0  0  0
 10 14  1  0  0  0  0
 10 13  1  0  0  0  0
 11 15  1  6  0  0  0
 11 16  1  0  0  0  0
 11 10  1  0  0  0  0
 16 23  1  6  0  0  0
 17 19  1  0  0  0  0
 17 16  1  0  0  0  0
 18 17  1  0  0  0  0
 19 21  1  0  0  0  0
 20 19  1  0  0  0  0
 21 22  1  0  0  0  0
 22 23  1  0  0  0  0
 24 27  1  0  0  0  0
 24  1  1  0  0  0  0
 25 24  1  0  0  0  0
 26 24  1  0  0  0  0
 27 29  1  0  0  0  0
 28 27  1  0  0  0  0
 30 31  1  0  0  0  0
 31 32  1  0  0  0  0
 32 27  1  0  0  0  0
 32 33  2  0  0  0  0
 33 37  1  0  0  0  0
 34 33  1  0  0  0  0
 34 38  1  0  0  0  0
 35 34  2  0  0  0  0
 36 31  2  0  0  0  0
 36 35  1  0  0  0  0
 39 35  1  0  0  0  0
 40 41  1  0  0  0  0
 40 36  1  0  0  0  0
M  END
>  <minimizedAffinity>
-6.16199493

$$$$

 OpenBabel03242519183D

 41 44  0  0  1  0  0  0  0  0999 V2000
   36.6320   28.1080   41.0970 C   0  0  0  0  0  0  0  0  0  0  0  0
   36.5130   27.1540   40.1140 C   0  0  0  0  0  0  0  0  0  0  0  0
   36.5810   27.4490   38.7490 C   0  0  0  0  0  0  0  0  0  0  0  0
   36.7760   28.7580   38.4480 N   0  0  0  0  0  0  0  0  0  0  0  0
   36.8920   29.6900   39.4050 C   0  0  0  0  0  0  0  0  0  0  0  0
   36.8200   29.3610   40.7000 N   0  0  0  0  0  0  0  0  0  0  0  0
   36.3550   26.0960   40.3740 H   0  0  0  0  0  0  0  0  0  0  0  0
   36.4810   26.6670   38.0140 H   0  0  0  0  0  0  0  0  0  0  0  0
   37.1350   31.1320   39.0800 C   0  0  2  0  0  0  0  0  0  0  0  0
   37.6010   31.4810   37.7030 C   0  0  0  0  0  0  0  0  0  0  0  0
   38.5610   31.5320   38.9040 C   0  0  1  0  0  0  0  0  0  0  0  0
   36.4430   31.8530   39.5800 H   0  0  0  0  0  0  0  0  0  0  0  0
   37.3190   32.4190   37.2040 H   0  0  0  0  0  0  0  0  0  0  0  0
   37.8440   30.6750   36.9820 H   0  0  0  0  0  0  0  0  0  0  0  0
   39.3160   30.7510   39.0200 H   0  0  0  0  0  0  0  0  0  0  0  0
   38.9780   32.8530   39.2350 N   0  0  1  0  0  0  0  0  0  0  0  0
   38.3250   33.4600   40.3510 C   0  0  0  0  0  3  0  0  0  0  0  0
   38.4550   32.9420   41.3050 H   0  0  0  0  0  0  0  0  0  0  0  0
   38.8250   34.9060   40.4030 C   0  0  0  0  0  3  0  0  0  0  0  0
   38.2440   35.4850   41.1290 H   0  0  0  0  0  0  0  0  0  0  0  0
   40.1650   34.9900   40.6620 O   0  0  0  0  0  0  0  0  0  0  0  0
   40.9690   34.0650   40.0820 C   0  0  0  0  0  2  0  0  0  0  0  0
   40.3700   33.1110   39.1200 C   0  0  0  0  0  2  0  0  0  0  0  0
   36.5680   27.7760   42.4990 C   0  0  0  0  0  0  0  0  0  0  0  0
   36.9150   26.7120   42.6310 H   0  0  0  0  0  0  0  0  0  0  0  0
   35.5430   27.8150   42.9090 H   0  0  0  0  0  0  0  0  0  0  0  0
   37.5000   28.6490   43.2780 C   0  0  0  0  0  0  0  0  0  0  0  0
   37.1650   28.7370   44.3380 H   0  0  0  0  0  0  0  0  0  0  0  0
   37.5600   29.6860   42.9020 H   0  0  0  0  0  0  0  0  0  0  0  0
   39.6430   30.4660   42.2720 Cl  0  0  0  0  0  0  0  0  0  0  0  0
   39.9760   28.8610   42.8800 C   0  0  0  0  0  0  0  0  0  0  0  0
   38.8960   28.1180   43.3190 C   0  0  0  0  0  0  0  0  0  0  0  0
   39.1470   26.8520   43.8020 C   0  0  0  0  0  0  0  0  0  0  0  0
   40.4340   26.3390   43.8480 C   0  0  0  0  0  0  0  0  0  0  0  0
   41.5100   27.1250   43.3910 C   0  0  0  0  0  0  0  0  0  0  0  0
   41.2520   28.3830   42.9130 C   0  0  0  0  0  0  0  0  0  0  0  0
   38.3480   26.2120   44.1620 H   0  0  0  0  0  0  0  0  0  0  0  0
   40.6170   25.3460   44.2280 H   0  0  0  0  0  0  0  0  0  0  0  0
   42.5130   26.7290   43.4260 H   0  0  0  0  0  0  0  0  0  0  0  0
   42.2660   29.2170   42.4450 O   0  0  0  0  0  0  0  0  0  0  0  0
   42.6690   29.0640   41.5300 H   0  0  0  0  0  0  0  0  0  0  0  0
  1 24  1  0  0  0  0
  2  7  1  0  0  0  0
  2  1  2  0  0  0  0
  3  2  1  0  0  0  0
  4  3  2  0  0  0  0
  4  5  1  0  0  0  0
  5  6  2  0  0  0  0
  6  1  1  0  0  0  0
  8  3  1  0  0  0  0
  9  5  1  0  0  0  0
  9 12  1  1  0  0  0
 10 11  1  0  0  0  0
 10  9  1  0  0  0  0
 11 15  1  1  0  0  0
 11  9  1  0  0  0  0
 11 16  1  0  0  0  0
 13 10  1  0  0  0  0
 14 10  1  0  0  0  0
 16 23  1  1  0  0  0
 16 17  1  0  0  0  0
 17 19  1  0  0  0  0
 17 18  1  0  0  0  0
 19 21  1  0  0  0  0
 19 20  1  0  0  0  0
 22 21  1  0  0  0  0
 23 22  1  0  0  0  0
 24 25  1  0  0  0  0
 24 26  1  0  0  0  0
 24 27  1  0  0  0  0
 27 32  1  0  0  0  0
 27 28  1  0  0  0  0
 29 27  1  0  0  0  0
 30 31  1  0  0  0  0
 31 36  2  0  0  0  0
 31 32  1  0  0  0  0
 32 33  2  0  0  0  0
 33 34  1  0  0  0  0
 33 37  1  0  0  0  0
 34 38  1  0  0  0  0
 35 39  1  0  0  0  0
 35 34  2  0  0  0  0
 36 35  1  0  0  0  0
 40 36  1  0  0  0  0
 41 40  1  0  0  0  0
M  END
>  <minimizedAffinity>
-6.02056551

$$$$

 OpenBabel03242519183D

 41 44  0  0  1  0  0  0  0  0999 V2000
   35.7520   28.3190   39.5040 C   0  0  0  0  0  0  0  0  0  0  0  0
   35.2890   27.7910   38.3210 C   0  0  0  0  0  0  0  0  0  0  0  0
   35.5740   26.4870   37.9030 C   0  0  0  0  0  0  0  0  0  0  0  0
   36.3460   25.7610   38.7510 N   0  0  0  0  0  0  0  0  0  0  0  0
   36.7980   26.2750   39.9040 C   0  0  0  0  0  0  0  0  0  0  0  0
   36.5020   27.5300   40.2640 N   0  0  0  0  0  0  0  0  0  0  0  0
   34.6630   28.3910   37.6440 H   0  0  0  0  0  0  0  0  0  0  0  0
   35.1890   26.1160   36.9670 H   0  0  0  0  0  0  0  0  0  0  0  0
   37.6300   25.4720   40.8570 C   0  0  2  0  0  0  0  0  0  0  0  0
   37.0080   25.0330   42.1440 C   0  0  0  0  0  0  0  0  0  0  0  0
   38.0450   26.1680   42.1090 C   0  0  1  0  0  0  0  0  0  0  0  0
   38.3550   24.7700   40.3780 H   0  0  0  0  0  0  0  0  0  0  0  0
   37.2700   24.0850   42.6340 H   0  0  0  0  0  0  0  0  0  0  0  0
   35.9900   25.3790   42.4110 H   0  0  0  0  0  0  0  0  0  0  0  0
   37.7150   27.2010   42.2390 H   0  0  0  0  0  0  0  0  0  0  0  0
   39.2760   25.8260   42.7410 N   0  0  1  0  0  0  0  0  0  0  0  0
   40.3670   25.5180   41.8720 C   0  0  0  0  0  3  0  0  0  0  0  0
   40.6780   26.3290   41.2090 H   0  0  0  0  0  0  0  0  0  0  0  0
   41.5060   25.0360   42.7740 C   0  0  0  0  0  3  0  0  0  0  0  0
   42.3210   24.6210   42.1710 H   0  0  0  0  0  0  0  0  0  0  0  0
   41.9600   26.0150   43.6140 O   0  0  0  0  0  0  0  0  0  0  0  0
   41.0380   26.8480   44.1550 C   0  0  0  0  0  2  0  0  0  0  0  0
   39.6040   26.5740   43.9030 C   0  0  0  0  0  2  0  0  0  0  0  0
   35.4350   29.6640   39.9170 C   0  0  0  0  0  0  0  0  0  0  0  0
   34.3550   29.6980   40.2320 H   0  0  0  0  0  0  0  0  0  0  0  0
   35.5390   30.4040   39.1040 H   0  0  0  0  0  0  0  0  0  0  0  0
   36.2590   30.0440   41.1070 C   0  0  0  0  0  0  0  0  0  0  0  0
   36.8640   29.1770   41.4600 H   0  0  0  0  0  0  0  0  0  0  0  0
   35.6620   30.3610   41.9810 H   0  0  0  0  0  0  0  0  0  0  0  0
   38.8760   29.9250   42.5370 Cl  0  0  0  0  0  0  0  0  0  0  0  0
   38.4700   31.2040   41.4160 C   0  0  0  0  0  0  0  0  0  0  0  0
   37.2260   31.1450   40.8170 C   0  0  0  0  0  0  0  0  0  0  0  0
   36.8960   32.1470   39.9300 C   0  0  0  0  0  0  0  0  0  0  0  0
   37.7780   33.1790   39.6470 C   0  0  0  0  0  0  0  0  0  0  0  0
   39.0380   33.2070   40.2770 C   0  0  0  0  0  0  0  0  0  0  0  0
   39.3570   32.2060   41.1570 C   0  0  0  0  0  0  0  0  0  0  0  0
   35.9370   32.1660   39.4230 H   0  0  0  0  0  0  0  0  0  0  0  0
   37.5080   33.9580   38.9510 H   0  0  0  0  0  0  0  0  0  0  0  0
   39.7260   34.0080   40.0590 H   0  0  0  0  0  0  0  0  0  0  0  0
   40.5840   32.1680   41.8180 O   0  0  0  0  0  0  0  0  0  0  0  0
   40.7560   32.7770   42.6070 H   0  0  0  0  0  0  0  0  0  0  0  0
  1 24  1  0  0  0  0
  1  6  1  0  0  0  0
  2  1  2  0  0  0  0
  3  2  1  0  0  0  0
  3  4  2  0  0  0  0
  4  5  1  0  0  0  0
  5  6  2  0  0  0  0
  5  9  1  0  0  0  0
  7  2  1  0  0  0  0
  8  3  1  0  0  0  0
  9 12  1  6  0  0  0
  9 11  1  0  0  0  0
  9 10  1  0  0  0  0
 10 14  1  0  0  0  0
 10 13  1  0  0  0  0
 11 10  1  0  0  0  0
 11 15  1  1  0  0  0
 11 16  1  0  0  0  0
 16 23  1  6  0  0  0
 17 16  1  0  0  0  0
 17 19  1  0  0  0  0
 18 17  1  0  0  0  0
 19 21  1  0  0  0  0
 20 19  1  0  0  0  0
 21 22  1  0  0  0  0
 23 22  1  0  0  0  0
 24 25  1  0  0  0  0
 24 27  1  0  0  0  0
 26 24  1  0  0  0  0
 27 28  1  0  0  0  0
 27 29  1  0  0  0  0
 31 30  1  0  0  0  0
 32 27  1  0  0  0  0
 32 31  2  0  0  0  0
 33 32  1  0  0  0  0
 34 33  2  0  0  0  0
 34 35  1  0  0  0  0
 35 36  2  0  0  0  0
 36 31  1  0  0  0  0
 36 40  1  0  0  0  0
 37 33  1  0  0  0  0
 38 34  1  0  0  0  0
 39 35  1  0  0  0  0
 40 41  1  0  0  0  0
M  END
>  <minimizedAffinity>
-5.86603785

$$$$

 OpenBabel03242519183D

 41 44  0  0  1  0  0  0  0  0999 V2000
   37.4980   29.2700   41.9420 C   0  0  0  0  0  0  0  0  0  0  0  0
   37.5770   28.1760   42.7730 C   0  0  0  0  0  0  0  0  0  0  0  0
   38.7800   27.7090   43.3090 C   0  0  0  0  0  0  0  0  0  0  0  0
   39.8860   28.4110   42.9540 N   0  0  0  0  0  0  0  0  0  0  0  0
   39.8110   29.4770   42.1440 C   0  0  0  0  0  0  0  0  0  0  0  0
   38.6360   29.8890   41.6520 N   0  0  0  0  0  0  0  0  0  0  0  0
   36.6710   27.6160   43.0530 H   0  0  0  0  0  0  0  0  0  0  0  0
   38.7930   26.8470   43.9560 H   0  0  0  0  0  0  0  0  0  0  0  0
   41.0230   30.2740   41.7690 C   0  0  2  0  0  0  0  0  0  0  0  0
   41.5950   31.2130   42.7820 C   0  0  0  0  0  0  0  0  0  0  0  0
   40.8080   31.7360   41.5680 C   0  0  1  0  0  0  0  0  0  0  0  0
   41.7450   29.7500   41.0970 H   0  0  0  0  0  0  0  0  0  0  0  0
   42.6720   31.4230   42.8500 H   0  0  0  0  0  0  0  0  0  0  0  0
   41.0720   31.3720   43.7450 H   0  0  0  0  0  0  0  0  0  0  0  0
   39.7930   32.1150   41.7100 H   0  0  0  0  0  0  0  0  0  0  0  0
   41.6150   32.4560   40.6410 N   0  0  1  0  0  0  0  0  0  0  0  0
   41.7640   31.8700   39.3470 C   0  0  0  0  0  3  0  0  0  0  0  0
   40.8370   31.7460   38.7820 H   0  0  0  0  0  0  0  0  0  0  0  0
   42.7850   32.7350   38.6030 C   0  0  0  0  0  3  0  0  0  0  0  0
   43.0800   32.2540   37.6640 H   0  0  0  0  0  0  0  0  0  0  0  0
   42.3380   34.0090   38.3890 O   0  0  0  0  0  0  0  0  0  0  0  0
   41.6230   34.5920   39.3810 C   0  0  0  0  0  2  0  0  0  0  0  0
   41.4770   33.8690   40.6660 C   0  0  0  0  0  2  0  0  0  0  0  0
   36.2420   29.7370   41.4100 C   0  0  0  0  0  0  0  0  0  0  0  0
   35.5510   29.9650   42.2690 H   0  0  0  0  0  0  0  0  0  0  0  0
   35.7230   28.9820   40.7930 H   0  0  0  0  0  0  0  0  0  0  0  0
   36.4470   31.0110   40.6520 C   0  0  0  0  0  0  0  0  0  0  0  0
   37.3440   31.5550   41.0310 H   0  0  0  0  0  0  0  0  0  0  0  0
   35.6100   31.7260   40.7460 H   0  0  0  0  0  0  0  0  0  0  0  0
   38.2760   32.9310   39.2830 Cl  0  0  0  0  0  0  0  0  0  0  0  0
   37.4940   31.6110   38.4440 C   0  0  0  0  0  0  0  0  0  0  0  0
   36.6710   30.7900   39.1920 C   0  0  0  0  0  0  0  0  0  0  0  0
   36.0510   29.7440   38.5420 C   0  0  0  0  0  0  0  0  0  0  0  0
   36.2450   29.5210   37.1880 C   0  0  0  0  0  0  0  0  0  0  0  0
   37.0910   30.3780   36.4570 C   0  0  0  0  0  0  0  0  0  0  0  0
   37.7030   31.4150   37.1120 C   0  0  0  0  0  0  0  0  0  0  0  0
   35.3910   29.0600   39.0650 H   0  0  0  0  0  0  0  0  0  0  0  0
   35.7540   28.6990   36.6910 H   0  0  0  0  0  0  0  0  0  0  0  0
   37.2430   30.2070   35.4040 H   0  0  0  0  0  0  0  0  0  0  0  0
   38.5530   32.3040   36.4550 O   0  0  0  0  0  0  0  0  0  0  0  0
   38.1710   33.0340   35.8690 H   0  0  0  0  0  0  0  0  0  0  0  0
  1  2  1  0  0  0  0
  2  7  1  0  0  0  0
  2  3  2  0  0  0  0
  3  8  1  0  0  0  0
  4  3  1  0  0  0  0
  5  4  2  0  0  0  0
  6  1  2  0  0  0  0
  6  5  1  0  0  0  0
  9 12  1  6  0  0  0
  9  5  1  0  0  0  0
  9 10  1  0  0  0  0
 10 13  1  0  0  0  0
 10 14  1  0  0  0  0
 11 15  1  1  0  0  0
 11  9  1  0  0  0  0
 11 10  1  0  0  0  0
 16 23  1  6  0  0  0
 16 11  1  0  0  0  0
 17 16  1  0  0  0  0
 18 17  1  0  0  0  0
 19 17  1  0  0  0  0
 20 19  1  0  0  0  0
 21 19  1  0  0  0  0
 21 22  1  0  0  0  0
 22 23  1  0  0  0  0
 24  1  1  0  0  0  0
 24 25  1  0  0  0  0
 26 24  1  0  0  0  0
 27 29  1  0  0  0  0
 27 28  1  0  0  0  0
 27 24  1  0  0  0  0
 31 32  1  0  0  0  0
 31 30  1  0  0  0  0
 32 27  1  0  0  0  0
 33 37  1  0  0  0  0
 33 32  2  0  0  0  0
 34 33  1  0  0  0  0
 35 36  1  0  0  0  0
 35 34  2  0  0  0  0
 36 31  2  0  0  0  0
 38 34  1  0  0  0  0
 39 35  1  0  0  0  0
 40 36  1  0  0  0  0
 41 40  1  0  0  0  0
M  END
>  <minimizedAffinity>
-5.77839947

$$$$

 OpenBabel03242519183D

 41 44  0  0  1  0  0  0  0  0999 V2000
   36.6900   29.3370   40.7090 C   0  0  0  0  0  0  0  0  0  0  0  0
   37.5860   30.0400   39.9370 C   0  0  0  0  0  0  0  0  0  0  0  0
   37.3730   30.3230   38.5850 C   0  0  0  0  0  0  0  0  0  0  0  0
   36.2080   29.8540   38.0700 N   0  0  0  0  0  0  0  0  0  0  0  0
   35.3340   29.1690   38.8210 C   0  0  0  0  0  0  0  0  0  0  0  0
   35.5790   28.9200   40.1130 N   0  0  0  0  0  0  0  0  0  0  0  0
   38.5270   30.4150   40.3680 H   0  0  0  0  0  0  0  0  0  0  0  0
   38.1040   30.8780   38.0190 H   0  0  0  0  0  0  0  0  0  0  0  0
   34.0330   28.6710   38.2670 C   0  0  2  0  0  0  0  0  0  0  0  0
   34.0690   27.5710   37.2550 C   0  0  0  0  0  0  0  0  0  0  0  0
   33.7530   29.0190   36.8440 C   0  0  1  0  0  0  0  0  0  0  0  0
   33.1800   28.6710   38.9880 H   0  0  0  0  0  0  0  0  0  0  0  0
   33.2780   26.8110   37.1810 H   0  0  0  0  0  0  0  0  0  0  0  0
   35.0410   27.2080   36.8680 H   0  0  0  0  0  0  0  0  0  0  0  0
   34.5090   29.6040   36.3140 H   0  0  0  0  0  0  0  0  0  0  0  0
   32.4100   29.2000   36.4040 N   0  0  1  0  0  0  0  0  0  0  0  0
   31.5020   29.7490   37.3610 C   0  0  0  0  0  3  0  0  0  0  0  0
   31.7520   30.7500   37.7210 H   0  0  0  0  0  0  0  0  0  0  0  0
   30.1160   29.6950   36.7120 C   0  0  0  0  0  3  0  0  0  0  0  0
   29.3410   29.9420   37.4460 H   0  0  0  0  0  0  0  0  0  0  0  0
   30.0230   30.4930   35.6060 O   0  0  0  0  0  0  0  0  0  0  0  0
   31.1010   30.5480   34.7860 C   0  0  0  0  0  2  0  0  0  0  0  0
   32.2510   29.6580   35.0690 C   0  0  0  0  0  2  0  0  0  0  0  0
   36.9290   29.0680   42.1050 C   0  0  0  0  0  0  0  0  0  0  0  0
   36.2630   29.7360   42.7190 H   0  0  0  0  0  0  0  0  0  0  0  0
   37.9630   29.2950   42.4210 H   0  0  0  0  0  0  0  0  0  0  0  0
   36.5600   27.6540   42.4260 C   0  0  0  0  0  0  0  0  0  0  0  0
   36.0630   27.1680   41.5540 H   0  0  0  0  0  0  0  0  0  0  0  0
   35.8450   27.5570   43.2630 H   0  0  0  0  0  0  0  0  0  0  0  0
   36.6690   24.9560   41.1550 Cl  0  0  0  0  0  0  0  0  0  0  0  0
   37.9090   25.5370   42.2410 C   0  0  0  0  0  0  0  0  0  0  0  0
   37.7440   26.8070   42.7640 C   0  0  0  0  0  0  0  0  0  0  0  0
   38.7160   27.2770   43.6200 C   0  0  0  0  0  0  0  0  0  0  0  0
   39.8220   26.5070   43.9470 C   0  0  0  0  0  0  0  0  0  0  0  0
   39.9570   25.2180   43.3960 C   0  0  0  0  0  0  0  0  0  0  0  0
   38.9860   24.7590   42.5450 C   0  0  0  0  0  0  0  0  0  0  0  0
   38.6510   28.2630   44.0680 H   0  0  0  0  0  0  0  0  0  0  0  0
   40.5770   26.8870   44.6180 H   0  0  0  0  0  0  0  0  0  0  0  0
   40.8170   24.6170   43.6490 H   0  0  0  0  0  0  0  0  0  0  0  0
   39.0530   23.4940   41.9630 O   0  0  0  0  0  0  0  0  0  0  0  0
   38.8230   22.6720   42.5040 H   0  0  0  0  0  0  0  0  0  0  0  0
  1 24  1  0  0  0  0
  2  7  1  0  0  0  0
  2  1  2  0  0  0  0
  3  2  1  0  0  0  0
  4  3  2  0  0  0  0
  4  5  1  0  0  0  0
  5  6  2  0  0  0  0
  6  1  1  0  0  0  0
  8  3  1  0  0  0  0
  9  5  1  0  0  0  0
  9 12  1  1  0  0  0
 10  9  1  0  0  0  0
 11 15  1  6  0  0  0
 11 10  1  0  0  0  0
 11  9  1  0  0  0  0
 13 10  1  0  0  0  0
 14 10  1  0  0  0  0
 16 23  1  6  0  0  0
 16 11  1  0  0  0  0
 16 17  1  0  0  0  0
 17 18  1  0  0  0  0
 19 17  1  0  0  0  0
 19 20  1  0  0  0  0
 21 19  1  0  0  0  0
 22 23  1  0  0  0  0
 22 21  1  0  0  0  0
 24 26  1  0  0  0  0
 24 27  1  0  0  0  0
 24 25  1  0  0  0  0
 27 32  1  0  0  0  0
 27 29  1  0  0  0  0
 28 27  1  0  0  0  0
 30 31  1  0  0  0  0
 31 36  2  0  0  0  0
 31 32  1  0  0  0  0
 32 33  2  0  0  0  0
 33 34  1  0  0  0  0
 33 37  1  0  0  0  0
 34 38  1  0  0  0  0
 35 39  1  0  0  0  0
 35 34  2  0  0  0  0
 36 35  1  0  0  0  0
 40 41  1  0  0  0  0
 40 36  1  0  0  0  0
M  END
>  <minimizedAffinity>
-5.7149229

$$$$

 OpenBabel03242519183D

 41 44  0  0  1  0  0  0  0  0999 V2000
   37.1350   27.1040   41.3300 C   0  0  0  0  0  0  0  0  0  0  0  0
   37.2170   26.9930   42.6980 C   0  0  0  0  0  0  0  0  0  0  0  0
   37.2940   28.0980   43.5520 C   0  0  0  0  0  0  0  0  0  0  0  0
   37.2830   29.3080   42.9380 N   0  0  0  0  0  0  0  0  0  0  0  0
   37.2040   29.4180   41.6040 C   0  0  0  0  0  0  0  0  0  0  0  0
   37.1320   28.3320   40.8250 N   0  0  0  0  0  0  0  0  0  0  0  0
   37.2240   26.0040   43.1830 H   0  0  0  0  0  0  0  0  0  0  0  0
   37.3570   27.9610   44.6190 H   0  0  0  0  0  0  0  0  0  0  0  0
   37.1640   30.7510   40.9210 C   0  0  2  0  0  0  0  0  0  0  0  0
   36.7990   30.7940   39.4710 C   0  0  0  0  0  0  0  0  0  0  0  0
   38.2500   31.0110   39.9320 C   0  0  1  0  0  0  0  0  0  0  0  0
   36.8160   31.6000   41.5580 H   0  0  0  0  0  0  0  0  0  0  0  0
   36.2480   31.6340   39.0260 H   0  0  0  0  0  0  0  0  0  0  0  0
   36.6540   29.8490   38.9110 H   0  0  0  0  0  0  0  0  0  0  0  0
   38.9860   30.2180   39.7790 H   0  0  0  0  0  0  0  0  0  0  0  0
   38.7160   32.3400   39.7170 N   0  0  1  0  0  0  0  0  0  0  0  0
   38.7600   33.1870   40.8670 C   0  0  0  0  0  3  0  0  0  0  0  0
   39.4200   32.8500   41.6700 H   0  0  0  0  0  0  0  0  0  0  0  0
   39.1340   34.5810   40.3550 C   0  0  0  0  0  3  0  0  0  0  0  0
   39.0230   35.3230   41.1530 H   0  0  0  0  0  0  0  0  0  0  0  0
   40.3880   34.6220   39.8110 O   0  0  0  0  0  0  0  0  0  0  0  0
   40.7810   33.5530   39.0760 C   0  0  0  0  0  2  0  0  0  0  0  0
   39.7980   32.4780   38.8080 C   0  0  0  0  0  2  0  0  0  0  0  0
   37.0470   25.9490   40.4720 C   0  0  0  0  0  0  0  0  0  0  0  0
   37.4740   26.2160   39.4650 H   0  0  0  0  0  0  0  0  0  0  0  0
   36.0080   25.6240   40.2850 H   0  0  0  0  0  0  0  0  0  0  0  0
   37.8750   24.8330   41.0260 C   0  0  0  0  0  0  0  0  0  0  0  0
   37.6380   23.8730   40.5090 H   0  0  0  0  0  0  0  0  0  0  0  0
   37.7030   24.6390   42.1000 H   0  0  0  0  0  0  0  0  0  0  0  0
   39.5900   24.3180   43.4140 Cl  0  0  0  0  0  0  0  0  0  0  0  0
   40.2410   24.8550   41.8820 C   0  0  0  0  0  0  0  0  0  0  0  0
   39.3420   25.0560   40.8510 C   0  0  0  0  0  0  0  0  0  0  0  0
   39.8440   25.4780   39.6390 C   0  0  0  0  0  0  0  0  0  0  0  0
   41.2010   25.6920   39.4570 C   0  0  0  0  0  0  0  0  0  0  0  0
   42.0880   25.4770   40.5290 C   0  0  0  0  0  0  0  0  0  0  0  0
   41.5800   25.0580   41.7310 C   0  0  0  0  0  0  0  0  0  0  0  0
   39.1970   25.6560   38.7870 H   0  0  0  0  0  0  0  0  0  0  0  0
   41.5820   26.0210   38.5020 H   0  0  0  0  0  0  0  0  0  0  0  0
   43.1450   25.6430   40.3900 H   0  0  0  0  0  0  0  0  0  0  0  0
   42.3960   24.8250   42.8370 O   0  0  0  0  0  0  0  0  0  0  0  0
   42.7560   25.6010   43.3760 H   0  0  0  0  0  0  0  0  0  0  0  0
  1  2  1  0  0  0  0
  2  7  1  0  0  0  0
  2  3  2  0  0  0  0
  3  8  1  0  0  0  0
  4  3  1  0  0  0  0
  5  4  2  0  0  0  0
  6  1  2  0  0  0  0
  6  5  1  0  0  0  0
  9 12  1  1  0  0  0
  9  5  1  0  0  0  0
 10 11  1  0  0  0  0
 10  9  1  0  0  0  0
 11 15  1  6  0  0  0
 11  9  1  0  0  0  0
 13 10  1  0  0  0  0
 14 10  1  0  0  0  0
 16 23  1  1  0  0  0
 16 11  1  0  0  0  0
 16 17  1  0  0  0  0
 17 18  1  0  0  0  0
 19 17  1  0  0  0  0
 19 20  1  0  0  0  0
 21 19  1  0  0  0  0
 22 21  1  0  0  0  0
 23 22  1  0  0  0  0
 24 27  1  0  0  0  0
 24  1  1  0  0  0  0
 25 24  1  0  0  0  0
 26 24  1  0  0  0  0
 27 29  1  0  0  0  0
 28 27  1  0  0  0  0
 31 30  1  0  0  0  0
 32 27  1  0  0  0  0
 32 31  2  0  0  0  0
 33 32  1  0  0  0  0
 34 33  2  0  0  0  0
 34 35  1  0  0  0  0
 35 36  2  0  0  0  0
 36 31  1  0  0  0  0
 36 40  1  0  0  0  0
 37 33  1  0  0  0  0
 38 34  1  0  0  0  0
 39 35  1  0  0  0  0
 40 41  1  0  0  0  0
M  END
>  <minimizedAffinity>
-5.71161366

$$$$

 OpenBabel03242519183D

 41 44  0  0  1  0  0  0  0  0999 V2000
   37.2470   27.3510   36.7310 C   0  0  0  0  0  0  0  0  0  0  0  0
   36.6730   26.5370   35.7820 C   0  0  0  0  0  0  0  0  0  0  0  0
   36.3680   25.1920   36.0110 C   0  0  0  0  0  0  0  0  0  0  0  0
   36.6760   24.7300   37.2490 N   0  0  0  0  0  0  0  0  0  0  0  0
   37.2360   25.5210   38.1750 C   0  0  0  0  0  0  0  0  0  0  0  0
   37.5120   26.8040   37.9110 N   0  0  0  0  0  0  0  0  0  0  0  0
   36.4280   26.9260   34.7810 H   0  0  0  0  0  0  0  0  0  0  0  0
   35.9180   24.5920   35.2360 H   0  0  0  0  0  0  0  0  0  0  0  0
   37.5550   25.0260   39.5530 C   0  0  2  0  0  0  0  0  0  0  0  0
   36.4470   24.4450   40.3720 C   0  0  0  0  0  0  0  0  0  0  0  0
   37.0170   25.8400   40.6810 C   0  0  1  0  0  0  0  0  0  0  0  0
   38.5670   24.5670   39.6690 H   0  0  0  0  0  0  0  0  0  0  0  0
   36.6090   23.6300   41.0910 H   0  0  0  0  0  0  0  0  0  0  0  0
   35.4070   24.4710   39.9910 H   0  0  0  0  0  0  0  0  0  0  0  0
   36.4340   26.7270   40.4230 H   0  0  0  0  0  0  0  0  0  0  0  0
   37.7210   25.8980   41.9190 N   0  0  1  0  0  0  0  0  0  0  0  0
   39.1350   25.7080   41.8490 C   0  0  0  0  0  3  0  0  0  0  0  0
   39.6760   26.4470   41.2530 H   0  0  0  0  0  0  0  0  0  0  0  0
   39.6290   25.6570   43.2970 C   0  0  0  0  0  3  0  0  0  0  0  0
   40.6790   25.3460   43.3310 H   0  0  0  0  0  0  0  0  0  0  0  0
   39.4420   26.8390   43.9580 O   0  0  0  0  0  0  0  0  0  0  0  0
   38.2950   27.5160   43.7080 C   0  0  0  0  0  2  0  0  0  0  0  0
   37.2750   26.8840   42.8390 C   0  0  0  0  0  2  0  0  0  0  0  0
   37.5440   28.7380   36.4710 C   0  0  0  0  0  0  0  0  0  0  0  0
   37.7070   28.8680   35.3650 H   0  0  0  0  0  0  0  0  0  0  0  0
   38.4730   29.0820   36.9590 H   0  0  0  0  0  0  0  0  0  0  0  0
   36.3780   29.5930   36.8550 C   0  0  0  0  0  0  0  0  0  0  0  0
   35.5080   28.9630   37.1540 H   0  0  0  0  0  0  0  0  0  0  0  0
   36.0070   30.2360   36.0360 H   0  0  0  0  0  0  0  0  0  0  0  0
   34.9960   28.9390   39.4180 Cl  0  0  0  0  0  0  0  0  0  0  0  0
   36.0910   30.2920   39.2550 C   0  0  0  0  0  0  0  0  0  0  0  0
   36.6700   30.4880   38.0150 C   0  0  0  0  0  0  0  0  0  0  0  0
   37.5370   31.5500   37.8750 C   0  0  0  0  0  0  0  0  0  0  0  0
   37.8210   32.3920   38.9390 C   0  0  0  0  0  0  0  0  0  0  0  0
   37.2130   32.1620   40.1880 C   0  0  0  0  0  0  0  0  0  0  0  0
   36.3530   31.1040   40.3180 C   0  0  0  0  0  0  0  0  0  0  0  0
   38.0270   31.7640   36.9310 H   0  0  0  0  0  0  0  0  0  0  0  0
   38.5030   33.2210   38.8170 H   0  0  0  0  0  0  0  0  0  0  0  0
   37.4330   32.8170   41.0170 H   0  0  0  0  0  0  0  0  0  0  0  0
   35.7140   30.8150   41.5230 O   0  0  0  0  0  0  0  0  0  0  0  0
   34.9200   31.3650   41.8230 H   0  0  0  0  0  0  0  0  0  0  0  0
  1  6  1  0  0  0  0
  2  3  1  0  0  0  0
  2  1  2  0  0  0  0
  3  4  2  0  0  0  0
  4  5  1  0  0  0  0
  5  9  1  0  0  0  0
  6  5  2  0  0  0  0
  7  2  1  0  0  0  0
  8  3  1  0  0  0  0
  9 12  1  1  0  0  0
  9 10  1  0  0  0  0
  9 11  1  0  0  0  0
 10 11  1  0  0  0  0
 10 13  1  0  0  0  0
 11 15  1  6  0  0  0
 11 16  1  0  0  0  0
 14 10  1  0  0  0  0
 16 23  1  6  0  0  0
 17 16  1  0  0  0  0
 17 19  1  0  0  0  0
 18 17  1  0  0  0  0
 19 20  1  0  0  0  0
 19 21  1  0  0  0  0
 22 21  1  0  0  0  0
 23 22  1  0  0  0  0
 24  1  1  0  0  0  0
 24 27  1  0  0  0  0
 24 26  1  0  0  0  0
 25 24  1  0  0  0  0
 27 28  1  0  0  0  0
 27 32  1  0  0  0  0
 29 27  1  0  0  0  0
 31 30  1  0  0  0  0
 31 36  1  0  0  0  0
 32 31  2  0  0  0  0
 33 32  1  0  0  0  0
 33 34  2  0  0  0  0
 34 35  1  0  0  0  0
 35 36  2  0  0  0  0
 35 39  1  0  0  0  0
 36 40  1  0  0  0  0
 37 33  1  0  0  0  0
 38 34  1  0  0  0  0
 40 41  1  0  0  0  0
M  END
>  <minimizedAffinity>
-5.62139177

$$$$
