
 OpenBabel03252503453D

 43 46  0  0  1  0  0  0  0  0999 V2000
   45.0130   34.8930   44.9430 C   0  0  0  0  0  0  0  0  0  0  0  0
   45.9130   34.6950   43.8950 C   0  0  0  0  0  0  0  0  0  0  0  0
   46.7850   33.6130   44.0160 C   0  0  0  0  0  0  0  0  0  0  0  0
   46.7590   32.7970   45.0960 N   0  0  0  0  0  0  0  0  0  0  0  0
   45.8690   33.0280   46.0910 C   0  0  0  0  0  0  0  0  0  0  0  0
   44.9930   34.0720   46.0220 N   0  0  0  0  0  0  0  0  0  0  0  0
   44.3000   35.6940   44.9510 H   0  0  0  0  0  0  0  0  0  0  0  0
   47.5270   33.3540   43.3050 H   0  0  0  0  0  0  0  0  0  0  0  0
   47.3270   31.8000   47.6870 C   0  0  2  0  0  0  0  0  0  0  0  0
   45.8720   32.1180   47.2330 C   0  0  1  0  0  0  0  0  0  0  0  0
   45.3920   32.6200   48.3950 O   0  0  0  0  0  0  0  0  0  0  0  0
   45.7780   31.7810   49.4020 C   0  0  0  0  0  0  0  0  0  0  0  0
   46.9580   30.9680   48.9250 C   0  0  2  0  0  0  0  0  0  0  0  0
   47.8360   31.2010   46.9330 H   0  0  0  0  0  0  0  0  0  0  0  0
   45.3670   31.1410   47.0110 H   0  0  0  0  0  0  0  0  0  0  0  0
   44.9120   31.1190   49.6940 H   0  0  0  0  0  0  0  0  0  0  0  0
   46.0780   32.3050   50.3410 H   0  0  0  0  0  0  0  0  0  0  0  0
   46.6160   29.9600   48.6700 H   0  0  0  0  0  0  0  0  0  0  0  0
   47.9400   32.9180   48.1120 O   0  0  0  0  0  0  0  0  0  0  0  0
   47.3110   33.5980   48.4460 H   0  0  0  0  0  0  0  0  0  0  0  0
   47.9840   30.8910   49.8360 O   0  0  0  0  0  0  0  0  0  0  0  0
   47.9430   31.6640   50.4800 H   0  0  0  0  0  0  0  0  0  0  0  0
   45.9250   35.5730   42.7460 C   0  0  0  0  0  0  0  0  0  0  0  0
   46.9360   35.4830   42.2630 H   0  0  0  0  0  0  0  0  0  0  0  0
   45.8210   36.6180   43.1010 H   0  0  0  0  0  0  0  0  0  0  0  0
   44.8750   35.1900   41.7930 C   0  0  0  0  0  0  0  0  0  0  0  0
   43.5760   35.6180   41.8090 C   0  0  0  0  0  0  0  0  0  0  0  0
   42.6440   35.2120   40.8850 C   0  0  0  0  0  0  0  0  0  0  0  0
   43.0320   34.3360   39.9010 C   0  0  0  0  0  0  0  0  0  0  0  0
   44.3510   33.8790   39.8550 C   0  0  0  0  0  0  0  0  0  0  0  0
   45.2790   34.3110   40.8100 C   0  0  0  0  0  0  0  0  0  0  0  0
   43.3590   36.3070   42.6210 H   0  0  0  0  0  0  0  0  0  0  0  0
   41.6740   35.6340   41.0310 H   0  0  0  0  0  0  0  0  0  0  0  0
   42.2490   34.0580   39.2100 H   0  0  0  0  0  0  0  0  0  0  0  0
   44.4810   33.2010   39.0220 H   0  0  0  0  0  0  0  0  0  0  0  0
   46.5260   33.7060   40.4990 N   0  0  0  0  0  0  0  0  0  0  0  0
   47.7260   34.3990   40.0630 C   0  0  0  0  0  3  0  0  0  0  0  0
   47.4840   35.4480   39.7630 H   0  0  0  0  0  0  0  0  0  0  0  0
   48.1540   33.6830   38.7860 C   0  0  0  0  0  3  0  0  0  0  0  0
   47.2240   33.6260   38.1510 H   0  0  0  0  0  0  0  0  0  0  0  0
   48.5380   32.3960   39.0610 O   0  0  0  0  0  0  0  0  0  0  0  0
   48.1210   31.9450   40.2890 C   0  0  0  0  0  2  0  0  0  0  0  0
   46.6710   32.2450   40.6050 C   0  0  0  0  0  2  0  0  0  0  0  0
  1  7  1  0  0  0  0
  1  6  1  0  0  0  0
  2  3  1  0  0  0  0
  2  1  2  0  0  0  0
  3  4  2  0  0  0  0
  4  5  1  0  0  0  0
  5 10  1  0  0  0  0
  6  5  2  0  0  0  0
  8  3  1  0  0  0  0
  9 14  1  6  0  0  0
  9 19  1  0  0  0  0
  9 13  1  0  0  0  0
 10 15  1  6  0  0  0
 10  9  1  0  0  0  0
 10 11  1  0  0  0  0
 11 12  1  0  0  0  0
 12 16  1  0  0  0  0
 12 17  1  0  0  0  0
 13 18  1  6  0  0  0
 13 12  1  0  0  0  0
 13 21  1  0  0  0  0
 19 20  1  0  0  0  0
 21 22  1  0  0  0  0
 23 25  1  0  0  0  0
 23  2  1  0  0  0  0
 24 23  1  0  0  0  0
 26 27  1  0  0  0  0
 26 23  1  0  0  0  0
 27 32  1  0  0  0  0
 28 33  1  0  0  0  0
 28 27  2  0  0  0  0
 29 28  1  0  0  0  0
 30 29  2  0  0  0  0
 30 31  1  0  0  0  0
 31 26  2  0  0  0  0
 34 29  1  0  0  0  0
 35 30  1  0  0  0  0
 36 43  1  0  0  0  0
 36 31  1  0  0  0  0
 37 36  1  0  0  0  0
 38 37  1  0  0  0  0
 39 41  1  0  0  0  0
 39 37  1  0  0  0  0
 40 39  1  0  0  0  0
 41 42  1  0  0  0  0
 42 43  1  0  0  0  0
M  END
>  <minimizedAffinity>
-6.95753574

>  <minimizedRMSD>
0.462663472

$$$$
