
 OpenBabel03252500243D

 36 38  0  0  1  0  0  0  0  0999 V2000
   47.0130   29.9020   47.9330 C   0  0  2  0  0  0  0  0  0  0  0  0
   45.5860   30.2140   48.1540 C   0  0  2  0  0  0  0  0  0  0  0  0
   44.8930   29.4600   47.0780 C   0  0  0  0  0  0  0  0  0  0  0  0
   45.6540   28.3430   46.7910 O   0  0  0  0  0  0  0  0  0  0  0  0
   46.8480   28.4480   47.4290 C   0  0  0  0  0  0  0  0  0  0  0  0
   47.6380   30.3110   47.1990 H   0  0  0  0  0  0  0  0  0  0  0  0
   45.3360   29.8580   49.1730 H   0  0  0  0  0  0  0  0  0  0  0  0
   44.4930   30.0040   46.2340 H   0  0  0  0  0  0  0  0  0  0  0  0
   43.9650   29.0250   47.5630 H   0  0  0  0  0  0  0  0  0  0  0  0
   47.6980   28.1100   46.8250 H   0  0  0  0  0  0  0  0  0  0  0  0
   46.8220   27.7740   48.3140 H   0  0  0  0  0  0  0  0  0  0  0  0
   45.3010   31.5610   48.1370 O   0  0  0  0  0  0  0  0  0  0  0  0
   47.4310   32.8670   47.5450 O   0  0  0  0  0  0  0  0  0  0  0  0
   46.1740   32.3120   46.9360 P   0  0  1  0  0  0  0  0  0  0  0  0
   46.6030   31.1780   45.7530 O   0  0  0  0  0  0  0  0  0  0  0  0
   47.3990   31.4170   45.2480 H   0  0  0  0  0  0  0  0  0  0  0  0
   45.3350   33.6250   46.2400 O   0  0  0  0  0  0  0  0  0  0  0  0
   45.1890   35.7530   43.3830 C   0  0  0  0  0  0  0  0  0  0  0  0
   46.2790   35.3160   42.5660 C   0  0  0  0  0  0  0  0  0  0  0  0
   47.0490   34.2530   43.0690 C   0  0  0  0  0  0  0  0  0  0  0  0
   46.7200   33.7220   44.2650 N   0  0  0  0  0  0  0  0  0  0  0  0
   45.6760   34.1710   45.0060 C   0  0  0  0  0  0  0  0  0  0  0  0
   44.9230   35.1840   44.5520 N   0  0  0  0  0  0  0  0  0  0  0  0
   46.4870   35.7910   41.6110 H   0  0  0  0  0  0  0  0  0  0  0  0
   47.8870   33.8870   42.4850 H   0  0  0  0  0  0  0  0  0  0  0  0
   44.4390   36.7920   42.8890 O   0  0  0  0  0  0  0  0  0  0  0  0
   43.5020   36.9220   43.2590 H   0  0  0  0  0  0  0  0  0  0  0  0
   47.7900   29.9590   49.0640 O   0  0  0  0  0  0  0  0  0  0  0  0
   48.6610   31.6800   50.5070 H   0  0  0  0  0  0  0  0  0  0  0  0
   49.1280   31.7270   49.5720 N   0  0  0  0  0  0  0  0  0  0  0  0
   49.0540   30.3820   49.0240 C   0  0  1  0  0  0  0  0  0  0  0  0
   49.8670   29.5370   50.0100 C   0  0  0  0  0  0  0  0  0  0  0  0
   49.5320   29.8370   51.0340 H   0  0  0  0  0  0  0  0  0  0  0  0
   51.2210   29.7220   49.8800 O   0  0  0  0  0  0  0  0  0  0  0  0
   51.4510   30.9600   49.2890 C   0  0  0  0  0  0  0  0  0  0  0  0
   50.5210   32.0260   49.7990 C   0  0  0  0  0  0  0  0  0  0  0  0
  1  6  1  6  0  0  0
  1  2  1  0  0  0  0
  1 28  1  0  0  0  0
  2  7  1  1  0  0  0
  3  9  1  0  0  0  0
  3  2  1  0  0  0  0
  4  3  1  0  0  0  0
  4  5  1  0  0  0  0
  5  1  1  0  0  0  0
  5 11  1  0  0  0  0
  8  3  1  0  0  0  0
 10  5  1  0  0  0  0
 12  2  1  0  0  0  0
 14 13  2  1  0  0  0
 14 12  1  0  0  0  0
 15 14  1  0  0  0  0
 16 15  1  0  0  0  0
 17 14  1  0  0  0  0
 18 23  1  0  0  0  0
 19 20  1  0  0  0  0
 19 18  2  0  0  0  0
 20 21  2  0  0  0  0
 21 22  1  0  0  0  0
 22 17  1  0  0  0  0
 23 22  2  0  0  0  0
 24 19  1  0  0  0  0
 25 20  1  0  0  0  0
 26 27  1  0  0  0  0
 26 18  1  0  0  0  0
 30 36  1  0  0  0  0
 30 29  1  0  0  0  0
 31 28  1  1  0  0  0
 31 30  1  0  0  0  0
 31 32  1  0  0  0  0
 32 33  1  0  0  0  0
 34 32  1  0  0  0  0
 35 36  1  0  0  0  0
 35 34  1  0  0  0  0
M  END
>  <minimizedAffinity>
-5.22075319

>  <minimizedRMSD>
0.444723964

$$$$
