
 OpenBabel03252507223D

 46 49  0  0  1  0  0  0  0  0999 V2000
   47.2980   33.6780   42.7650 C   0  0  0  0  0  0  0  0  0  0  0  0
   48.4270   33.4970   43.3070 O   0  0  0  0  0  0  0  0  0  0  0  0
   46.9560   33.1550   41.4920 N   0  0  0  0  0  0  0  0  0  0  0  0
   45.7270   32.4790   41.0390 C   0  0  0  0  0  0  0  0  0  0  0  0
   45.2140   33.1490   39.7780 C   0  0  0  0  0  0  0  0  0  0  0  0
   46.2080   32.9870   38.6590 C   0  0  0  0  0  0  0  0  0  0  0  0
   47.5240   32.4950   39.2220 C   0  0  0  0  0  0  0  0  0  0  0  0
   47.9280   33.2560   40.4360 C   0  0  2  0  0  0  0  0  0  0  0  0
   45.8870   31.4000   40.9320 H   0  0  0  0  0  0  0  0  0  0  0  0
   44.9560   32.7150   41.8270 H   0  0  0  0  0  0  0  0  0  0  0  0
   44.2000   32.7800   39.5390 H   0  0  0  0  0  0  0  0  0  0  0  0
   45.1780   34.2460   40.0000 H   0  0  0  0  0  0  0  0  0  0  0  0
   46.3110   33.9140   38.0580 H   0  0  0  0  0  0  0  0  0  0  0  0
   45.8010   32.1780   37.9900 H   0  0  0  0  0  0  0  0  0  0  0  0
   47.3570   31.4260   39.5150 H   0  0  0  0  0  0  0  0  0  0  0  0
   48.3090   32.4920   38.4560 H   0  0  0  0  0  0  0  0  0  0  0  0
   47.9410   34.3540   40.1370 H   0  0  0  0  0  0  0  0  0  0  0  0
   45.9310   35.7080   42.9310 C   0  0  0  0  0  0  0  0  0  0  0  0
   46.3130   34.4580   43.4820 C   0  0  0  0  0  0  0  0  0  0  0  0
   45.7460   34.0300   44.6590 C   0  0  0  0  0  0  0  0  0  0  0  0
   44.8390   34.8210   45.2550 N   0  0  0  0  0  0  0  0  0  0  0  0
   44.4550   36.0250   44.7470 C   0  0  0  0  0  0  0  0  0  0  0  0
   45.0160   36.4430   43.5850 N   0  0  0  0  0  0  0  0  0  0  0  0
   46.3480   36.0790   42.0160 H   0  0  0  0  0  0  0  0  0  0  0  0
   43.7180   36.5340   45.3480 H   0  0  0  0  0  0  0  0  0  0  0  0
   46.1620   32.7430   45.2040 C   0  0  0  0  0  0  0  0  0  0  0  0
   45.7540   31.5950   44.6170 C   0  0  0  0  0  0  0  0  0  0  0  0
   46.1630   30.3820   45.1470 C   0  0  0  0  0  0  0  0  0  0  0  0
   46.9800   30.2920   46.2640 C   0  0  0  0  0  0  0  0  0  0  0  0
   47.3640   31.4980   46.8210 C   0  0  0  0  0  0  0  0  0  0  0  0
   46.9580   32.6680   46.2930 N   0  0  0  0  0  0  0  0  0  0  0  0
   45.1210   31.5310   43.7460 H   0  0  0  0  0  0  0  0  0  0  0  0
   45.8770   29.4220   44.7250 H   0  0  0  0  0  0  0  0  0  0  0  0
   47.3250   29.3770   46.7160 H   0  0  0  0  0  0  0  0  0  0  0  0
   48.0120   31.5550   47.7030 H   0  0  0  0  0  0  0  0  0  0  0  0
   49.3080   32.8790   40.8440 C   0  0  0  0  0  0  0  0  0  0  0  0
   49.5000   32.9990   41.9090 H   0  0  0  0  0  0  0  0  0  0  0  0
   49.9990   33.5830   40.2860 H   0  0  0  0  0  0  0  0  0  0  0  0
   49.7180   31.5540   40.4360 N   0  0  0  0  0  0  0  0  0  0  0  0
   50.9630   31.5670   39.7640 C   0  0  0  0  0  3  0  0  0  0  0  0
   51.1020   32.4570   39.1420 H   0  0  0  0  0  0  0  0  0  0  0  0
   52.1660   31.3080   40.6590 C   0  0  0  0  0  3  0  0  0  0  0  0
   53.0460   31.2810   39.9700 H   0  0  0  0  0  0  0  0  0  0  0  0
   52.0630   30.0650   41.2290 O   0  0  0  0  0  0  0  0  0  0  0  0
   50.7950   29.6360   41.5290 C   0  0  0  0  0  2  0  0  0  0  0  0
   49.7910   30.7480   41.6210 C   0  0  0  0  0  2  0  0  0  0  0  0
  1  2  2  0  0  0  0
  1 19  1  0  0  0  0
  3  1  1  0  0  0  0
  4  3  1  0  0  0  0
  4 10  1  0  0  0  0
  5 12  1  0  0  0  0
  5  4  1  0  0  0  0
  6  7  1  0  0  0  0
  6  5  1  0  0  0  0
  7 15  1  0  0  0  0
  7  8  1  0  0  0  0
  8 17  1  6  0  0  0
  8 36  1  0  0  0  0
  8  3  1  0  0  0  0
  9  4  1  0  0  0  0
 11  5  1  0  0  0  0
 13  6  1  0  0  0  0
 14  6  1  0  0  0  0
 16  7  1  0  0  0  0
 18 19  2  0  0  0  0
 18 23  1  0  0  0  0
 19 20  1  0  0  0  0
 20 26  1  0  0  0  0
 20 21  2  0  0  0  0
 22 21  1  0  0  0  0
 22 25  1  0  0  0  0
 23 22  2  0  0  0  0
 24 18  1  0  0  0  0
 26 31  1  0  0  0  0
 27 28  1  0  0  0  0
 27 26  2  0  0  0  0
 28 29  2  0  0  0  0
 29 34  1  0  0  0  0
 29 30  1  0  0  0  0
 30 35  1  0  0  0  0
 31 30  2  0  0  0  0
 32 27  1  0  0  0  0
 33 28  1  0  0  0  0
 36 37  1  0  0  0  0
 38 36  1  0  0  0  0
 39 36  1  0  0  0  0
 39 46  1  0  0  0  0
 40 39  1  0  0  0  0
 40 42  1  0  0  0  0
 41 40  1  0  0  0  0
 42 44  1  0  0  0  0
 43 42  1  0  0  0  0
 44 45  1  0  0  0  0
 45 46  1  0  0  0  0
M  END
>  <minimizedAffinity>
-5.11791229

>  <minimizedRMSD>
1.00879276

$$$$
