
     RDKit          3D

 49 52  0  0  0  0  0  0  0  0999 V2000
   45.0116   34.9085   44.9014 C   0  0  0  0  0  0  0  0  0  0  0  0
   45.9156   34.7199   43.8552 C   0  0  0  0  0  0  0  0  0  0  0  0
   46.7931   33.6418   43.9721 C   0  0  0  0  0  0  0  0  0  0  0  0
   46.7675   32.8187   45.0472 N   0  0  0  0  0  0  0  0  0  0  0  0
   45.8719   33.0397   46.0406 C   0  0  0  0  0  0  0  0  0  0  0  0
   44.9917   34.0814   45.9755 N   0  0  0  0  0  0  0  0  0  0  0  0
   47.3277   31.8407   47.6605 C   0  0  2  0  0  0  0  0  0  0  0  0
   45.8751   32.1235   47.1769 C   0  0  1  0  0  0  0  0  0  0  0  0
   45.3584   32.6049   48.3313 O   0  0  0  0  0  0  0  0  0  0  0  0
   45.7448   31.7701   49.3419 C   0  0  0  0  0  0  0  0  0  0  0  0
   46.9564   30.9925   48.8854 C   0  0  2  0  0  0  0  0  0  0  0  0
   47.9016   32.9724   48.1041 O   0  0  0  0  0  0  0  0  0  0  0  0
   47.9635   30.9356   49.8173 O   0  0  0  0  0  0  0  0  0  0  0  0
   45.9280   35.6055   42.7108 C   0  0  0  0  0  0  0  0  0  0  0  0
   44.9311   35.1806   41.7201 C   0  0  0  0  0  0  0  0  0  0  0  0
   43.6648   35.6790   41.5851 C   0  0  0  0  0  0  0  0  0  0  0  0
   42.7809   35.2277   40.6344 C   0  0  0  0  0  0  0  0  0  0  0  0
   43.1857   34.2307   39.7810 C   0  0  0  0  0  0  0  0  0  0  0  0
   44.4725   33.6989   39.8910 C   0  0  0  0  0  0  0  0  0  0  0  0
   45.3513   34.1799   40.8691 C   0  0  0  0  0  0  0  0  0  0  0  0
   44.2948   35.7064   44.9112 H   0  0  0  0  0  0  0  0  0  0  0  0
   47.5378   33.3904   43.2616 H   0  0  0  0  0  0  0  0  0  0  0  0
   47.8690   31.2613   46.9140 H   0  0  0  0  0  0  0  0  0  0  0  0
   45.4009   31.1346   46.9389 H   0  0  0  0  0  0  0  0  0  0  0  0
   44.8909   31.0845   49.6110 H   0  0  0  0  0  0  0  0  0  0  0  0
   46.0106   32.2961   50.2900 H   0  0  0  0  0  0  0  0  0  0  0  0
   46.6463   29.9771   48.6171 H   0  0  0  0  0  0  0  0  0  0  0  0
   47.2492   33.6325   48.4291 H   0  0  0  0  0  0  0  0  0  0  0  0
   47.8890   31.7039   50.4652 H   0  0  0  0  0  0  0  0  0  0  0  0
   46.9579   35.5650   42.2641 H   0  0  0  0  0  0  0  0  0  0  0  0
   45.7639   36.6420   43.0669 H   0  0  0  0  0  0  0  0  0  0  0  0
   43.4307   36.4627   42.3011 H   0  0  0  0  0  0  0  0  0  0  0  0
   41.8322   35.7167   40.6562 H   0  0  0  0  0  0  0  0  0  0  0  0
   42.4415   33.9240   39.0599 H   0  0  0  0  0  0  0  0  0  0  0  0
   44.6219   32.9287   39.1460 H   0  0  0  0  0  0  0  0  0  0  0  0
   46.5772   33.4763   40.7258 N   0  0  0  0  0  0  0  0  0  0  0  0
   47.9032   34.0679   40.7109 C   0  0  1  0  0  0  0  0  0  0  0  0
   47.8362   35.1756   40.5789 H   0  0  0  0  0  0  0  0  0  0  0  0
   48.5600   33.5324   39.4421 C   0  0  1  0  0  0  0  0  0  0  0  0
   47.8097   33.7090   38.6215 H   0  0  0  0  0  0  0  0  0  0  0  0
   48.7508   32.1765   39.5348 O   0  0  0  0  0  0  0  0  0  0  0  0
   48.0117   31.5812   40.5266 C   0  0  0  0  0  0  0  0  0  0  0  0
   46.5606   32.0126   40.5697 C   0  0  0  0  0  0  0  0  0  0  0  0
   48.4978   33.8904   41.6032 H   0  0  0  0  0  0  0  0  0  0  0  0
   49.4789   34.0920   39.1762 H   0  0  0  0  0  0  0  0  0  0  0  0
   48.1020   30.4714   40.4815 H   0  0  0  0  0  0  0  0  0  0  0  0
   48.5016   31.8550   41.4966 H   0  0  0  0  0  0  0  0  0  0  0  0
   46.1079   31.7393   39.5769 H   0  0  0  0  0  0  0  0  0  0  0  0
   46.0802   31.4982   41.4046 H   0  0  0  0  0  0  0  0  0  0  0  0
  1  6  2  0
  2  3  2  0
  2  1  1  0
  3  4  1  0
  4  5  2  0
  5  8  1  0
  6  5  1  0
  7 12  1  0
  7 11  1  0
  8  7  1  0
  8  9  1  0
  9 10  1  0
 11 10  1  0
 11 13  1  0
 14  2  1  0
 15 14  1  0
 16 15  2  0
 17 16  1  0
 18 19  1  0
 18 17  2  0
 19 20  2  0
 20 15  1  0
  1 21  1  0
  3 22  1  0
  7 23  1  6
  8 24  1  6
 10 25  1  0
 10 26  1  0
 11 27  1  6
 12 28  1  0
 13 29  1  0
 14 30  1  0
 14 31  1  0
 16 32  1  0
 17 33  1  0
 18 34  1  0
 19 35  1  0
 36 37  1  0
 37 38  1  6
 37 39  1  0
 39 40  1  6
 39 41  1  0
 41 42  1  0
 42 43  1  0
 43 36  1  0
 37 44  1  0
 39 45  1  0
 42 46  1  0
 42 47  1  0
 43 48  1  0
 43 49  1  0
 20 36  1  0
M  ISO  8  21  14  22  14  23  13  24  13  25  13  26  13  27  13  28   3
M  ISO  8  29   3  30   8  31   8  32  14  33  14  34  14  35  14  38   8
M  ISO  1  40  15
M  END
>  <DihAtoms>  (1) 
18,19,35,36

>  <DihDeg>  (1) 
118.28491195027259

$$$$
