REMARK  Name = 
REMARK  6 active torsions:
REMARK  status: ('A' for Active; 'I' for Inactive)
REMARK    1  A    between atoms: C_2  and  C_14
REMARK    2  A    between atoms: C_5  and  C_8
REMARK    3  A    between atoms: C_7  and  O_12
REMARK    4  A    between atoms: C_11  and  O_13
REMARK    5  A    between atoms: C_14  and  C_15
REMARK    6  A    between atoms: C_20  and  N_36
REMARK                            x       y       z     vdW  Elec       q    Type
REMARK                         _______ _______ _______ _____ _____    ______ ____
ROOT
ATOM      1  C   UNL     1      45.012  34.908  44.901  0.00  0.00    +0.000 A 
ATOM      2  C   UNL     1      45.916  34.720  43.855  0.00  0.00    +0.000 A 
ATOM      3  C   UNL     1      46.793  33.642  43.972  0.00  0.00    +0.000 A 
ATOM      4  N   UNL     1      46.767  32.819  45.047  0.00  0.00    +0.000 NA
ATOM      5  C   UNL     1      45.872  33.040  46.041  0.00  0.00    +0.000 A 
ATOM      6  N   UNL     1      44.992  34.081  45.975  0.00  0.00    +0.000 NA
ATOM      7  H   UNL     1      44.295  35.706  44.911  0.00  0.00    +0.000 HD
ATOM      8  H   UNL     1      47.538  33.390  43.262  0.00  0.00    +0.000 HD
ENDROOT
BRANCH   5  10
ATOM      9  C   UNL     1      47.328  31.841  47.660  0.00  0.00    +0.000 C 
ATOM     10  C   UNL     1      45.875  32.123  47.177  0.00  0.00    +0.000 C 
ATOM     11  O   UNL     1      45.358  32.605  48.331  0.00  0.00    +0.000 OA
ATOM     12  C   UNL     1      45.745  31.770  49.342  0.00  0.00    +0.000 C 
ATOM     13  C   UNL     1      46.956  30.992  48.885  0.00  0.00    +0.000 C 
ATOM     14  H   UNL     1      47.869  31.261  46.914  0.00  0.00    +0.000 HD
ATOM     15  H   UNL     1      45.401  31.135  46.939  0.00  0.00    +0.000 HD
ATOM     16  H   UNL     1      44.891  31.084  49.611  0.00  0.00    +0.000 HD
ATOM     17  H   UNL     1      46.011  32.296  50.290  0.00  0.00    +0.000 HD
ATOM     18  H   UNL     1      46.646  29.977  48.617  0.00  0.00    +0.000 HD
BRANCH   9  19
ATOM     19  O   UNL     1      47.902  32.972  48.104  0.00  0.00    +0.000 OA
ATOM     20  H   UNL     1      47.249  33.633  48.429  0.00  0.00    +0.000 HD
ENDBRANCH   9  19
BRANCH  13  21
ATOM     21  O   UNL     1      47.964  30.936  49.817  0.00  0.00    +0.000 OA
ATOM     22  H   UNL     1      47.889  31.704  50.465  0.00  0.00    +0.000 HD
ENDBRANCH  13  21
ENDBRANCH   5  10
BRANCH   2  23
ATOM     23  C   UNL     1      45.928  35.605  42.711  0.00  0.00    +0.000 C 
ATOM     24  H   UNL     1      46.958  35.565  42.264  0.00  0.00    +0.000 HD
ATOM     25  H   UNL     1      45.764  36.642  43.067  0.00  0.00    +0.000 HD
BRANCH  23  26
ATOM     26  C   UNL     1      44.931  35.181  41.720  0.00  0.00    +0.000 A 
ATOM     27  C   UNL     1      43.665  35.679  41.585  0.00  0.00    +0.000 A 
ATOM     28  C   UNL     1      42.781  35.228  40.634  0.00  0.00    +0.000 A 
ATOM     29  C   UNL     1      43.186  34.231  39.781  0.00  0.00    +0.000 A 
ATOM     30  C   UNL     1      44.472  33.699  39.891  0.00  0.00    +0.000 A 
ATOM     31  C   UNL     1      45.351  34.180  40.869  0.00  0.00    +0.000 A 
ATOM     32  H   UNL     1      43.431  36.463  42.301  0.00  0.00    +0.000 HD
ATOM     33  H   UNL     1      41.832  35.717  40.656  0.00  0.00    +0.000 HD
ATOM     34  H   UNL     1      42.441  33.924  39.060  0.00  0.00    +0.000 HD
ATOM     35  H   UNL     1      44.622  32.929  39.146  0.00  0.00    +0.000 HD
BRANCH  31  36
ATOM     36  N   UNL     1      46.577  33.476  40.726  0.00  0.00    +0.000 N 
ATOM     37  C   UNL     1      47.550  33.666  39.665  0.00  0.00    +0.000 C 
ATOM     38  H   UNL     1      47.107  34.262  38.829  0.00  0.00    +0.000 HD
ATOM     39  C   UNL     1      47.795  32.270  39.100  0.00  0.00    +0.000 C 
ATOM     40  H   UNL     1      46.771  31.840  38.913  0.00  0.00    +0.000 HD
ATOM     41  O   UNL     1      48.406  31.473  40.036  0.00  0.00    +0.000 OA
ATOM     42  C   UNL     1      48.322  31.961  41.316  0.00  0.00    +0.000 C 
ATOM     43  C   UNL     1      46.943  32.447  41.712  0.00  0.00    +0.000 C 
ENDBRANCH  31  36
ENDBRANCH  23  26
ENDBRANCH   2  23
TORSDOF 6
