
 OpenBabel03242519203D

 33 35  0  0  0  0  0  0  0  0999 V2000
   45.7050   33.9650   43.0600 C   0  0  0  0  0  0  0  0  0  0  0  0
   45.0770   35.1620   42.4630 C   0  0  0  0  0  0  0  0  0  0  0  0
   45.1500   36.3760   43.3430 C   0  0  0  0  0  0  0  0  0  0  0  0
   44.5440   36.1140   44.7110 C   0  0  0  0  0  0  0  0  0  0  0  0
   44.9160   34.7730   45.2890 C   0  0  0  0  0  0  0  0  0  0  0  0
   46.0620   34.1370   44.5300 C   0  0  0  0  0  0  0  0  0  0  0  0
   45.0250   33.0600   43.0410 H   0  0  0  0  0  0  0  0  0  0  0  0
   45.4100   35.4250   41.4550 H   0  0  0  0  0  0  0  0  0  0  0  0
   43.9750   34.9440   42.3490 H   0  0  0  0  0  0  0  0  0  0  0  0
   46.1250   36.8390   43.4550 H   0  0  0  0  0  0  0  0  0  0  0  0
   44.4800   37.1460   42.8580 H   0  0  0  0  0  0  0  0  0  0  0  0
   43.4330   36.1440   44.5810 H   0  0  0  0  0  0  0  0  0  0  0  0
   44.8590   36.9010   45.4060 H   0  0  0  0  0  0  0  0  0  0  0  0
   45.2140   34.8580   46.3420 H   0  0  0  0  0  0  0  0  0  0  0  0
   44.0580   34.0530   45.2370 H   0  0  0  0  0  0  0  0  0  0  0  0
   46.2570   33.1560   44.9820 H   0  0  0  0  0  0  0  0  0  0  0  0
   46.9530   34.7800   44.6790 H   0  0  0  0  0  0  0  0  0  0  0  0
   46.9390   33.5570   42.3620 C   0  0  0  0  0  0  0  0  0  0  0  0
   48.0550   33.3070   43.1850 C   0  0  0  0  0  0  0  0  0  0  0  0
   49.2660   32.9150   42.6070 C   0  0  0  0  0  0  0  0  0  0  0  0
   49.2850   32.7970   41.2400 N   0  0  0  0  0  0  0  0  0  0  0  0
   48.1920   33.0460   40.4700 C   0  0  0  0  0  0  0  0  0  0  0  0
   47.0390   33.4200   41.0300 N   0  0  0  0  0  0  0  0  0  0  0  0
   48.1250   33.3740   44.2400 H   0  0  0  0  0  0  0  0  0  0  0  0
   50.1650   32.7050   43.1670 H   0  0  0  0  0  0  0  0  0  0  0  0
   48.2530   32.9120   39.0560 N   0  0  0  0  0  0  0  0  0  0  0  0
   49.3510   32.2120   38.4130 C   0  0  0  0  0  0  0  0  0  0  0  0
   50.3310   32.4860   38.9000 H   0  0  0  0  0  0  0  0  0  0  0  0
   49.3880   32.3810   36.9420 C   0  0  0  0  0  0  0  0  0  0  0  0
   50.4800   32.3990   36.6530 H   0  0  0  0  0  0  0  0  0  0  0  0
   48.8320   33.4900   36.3990 O   0  0  0  0  0  0  0  0  0  0  0  0
   48.0730   34.2990   37.1850 C   0  0  0  0  0  0  0  0  0  0  0  0
   47.2470   33.4520   38.1580 C   0  0  0  0  0  0  0  0  0  0  0  0
  1  6  1  0  0  0  0
  2  1  1  0  0  0  0
  2  3  1  0  0  0  0
  3 10  1  0  0  0  0
  3  4  1  0  0  0  0
  4  5  1  0  0  0  0
  4 13  1  0  0  0  0
  5 14  1  0  0  0  0
  6 17  1  0  0  0  0
  6 16  1  0  0  0  0
  6  5  1  0  0  0  0
  7  1  1  0  0  0  0
  8  2  1  0  0  0  0
  9  2  1  0  0  0  0
 11  3  1  0  0  0  0
 12  4  1  0  0  0  0
 15  5  1  0  0  0  0
 18  1  1  0  0  0  0
 18 19  1  0  0  0  0
 19 24  1  0  0  0  0
 20 25  1  0  0  0  0
 20 19  2  0  0  0  0
 21 20  1  0  0  0  0
 22 23  1  0  0  0  0
 22 21  2  0  0  0  0
 23 18  2  0  0  0  0
 26 22  1  0  0  0  0
 27 28  1  0  0  0  0
 27 26  1  0  0  0  0
 29 27  1  0  0  0  0
 30 29  1  0  0  0  0
 31 29  1  0  0  0  0
 31 32  1  0  0  0  0
 32 33  1  0  0  0  0
 33 26  1  0  0  0  0
M  END
>  <minimizedAffinity>
-5.04819775

>  <minimizedRMSD>
5.32411385

$$$$
