
 OpenBabel03252503453D

 43 46  0  0  1  0  0  0  0  0999 V2000
   45.1320   34.7820   44.7860 C   0  0  0  0  0  0  0  0  0  0  0  0
   46.0550   34.5420   43.7670 C   0  0  0  0  0  0  0  0  0  0  0  0
   46.9140   33.4570   43.9430 C   0  0  0  0  0  0  0  0  0  0  0  0
   46.8540   32.6760   45.0470 N   0  0  0  0  0  0  0  0  0  0  0  0
   45.9410   32.9460   46.0130 C   0  0  0  0  0  0  0  0  0  0  0  0
   45.0780   33.9960   45.8890 N   0  0  0  0  0  0  0  0  0  0  0  0
   44.4270   35.5890   44.7510 H   0  0  0  0  0  0  0  0  0  0  0  0
   47.6700   33.1690   43.2590 H   0  0  0  0  0  0  0  0  0  0  0  0
   47.3460   31.7700   47.6920 C   0  0  2  0  0  0  0  0  0  0  0  0
   45.9070   32.0720   47.1820 C   0  0  1  0  0  0  0  0  0  0  0  0
   45.3910   32.6100   48.3110 O   0  0  0  0  0  0  0  0  0  0  0  0
   45.7440   31.8040   49.3570 C   0  0  0  0  0  0  0  0  0  0  0  0
   46.9380   30.9770   48.9430 C   0  0  2  0  0  0  0  0  0  0  0  0
   47.8800   31.1480   46.9740 H   0  0  0  0  0  0  0  0  0  0  0  0
   45.4090   31.0890   46.9750 H   0  0  0  0  0  0  0  0  0  0  0  0
   44.8690   31.1510   49.6410 H   0  0  0  0  0  0  0  0  0  0  0  0
   46.0140   32.3570   50.2880 H   0  0  0  0  0  0  0  0  0  0  0  0
   46.6040   29.9610   48.7090 H   0  0  0  0  0  0  0  0  0  0  0  0
   47.9460   32.9010   48.1010 O   0  0  0  0  0  0  0  0  0  0  0  0
   47.3080   33.5910   48.3930 H   0  0  0  0  0  0  0  0  0  0  0  0
   47.9340   30.9290   49.8880 O   0  0  0  0  0  0  0  0  0  0  0  0
   47.8730   31.7220   50.5070 H   0  0  0  0  0  0  0  0  0  0  0  0
   46.1040   35.3840   42.5920 C   0  0  0  0  0  0  0  0  0  0  0  0
   47.0710   35.1680   42.0620 H   0  0  0  0  0  0  0  0  0  0  0  0
   46.1370   36.4430   42.9180 H   0  0  0  0  0  0  0  0  0  0  0  0
   44.9690   35.0980   41.7050 C   0  0  0  0  0  0  0  0  0  0  0  0
   43.7210   35.6510   41.7890 C   0  0  0  0  0  0  0  0  0  0  0  0
   42.7020   35.3310   40.9240 C   0  0  0  0  0  0  0  0  0  0  0  0
   42.9460   34.4140   39.9320 C   0  0  0  0  0  0  0  0  0  0  0  0
   44.2080   33.8290   39.8180 C   0  0  0  0  0  0  0  0  0  0  0  0
   45.2280   34.1760   40.7130 C   0  0  0  0  0  0  0  0  0  0  0  0
   43.6190   36.3650   42.6030 H   0  0  0  0  0  0  0  0  0  0  0  0
   41.7880   35.8480   41.1200 H   0  0  0  0  0  0  0  0  0  0  0  0
   42.1000   34.2080   39.2900 H   0  0  0  0  0  0  0  0  0  0  0  0
   44.2240   33.1350   38.9880 H   0  0  0  0  0  0  0  0  0  0  0  0
   46.3900   33.4490   40.3400 N   0  0  0  0  0  0  0  0  0  0  0  0
   46.5440   32.0050   40.3870 C   0  0  0  0  0  3  0  0  0  0  0  0
   45.7220   31.5440   40.9870 H   0  0  0  0  0  0  0  0  0  0  0  0
   47.8260   31.7720   41.1810 C   0  0  0  0  0  3  0  0  0  0  0  0
   47.7200   32.4000   42.1100 H   0  0  0  0  0  0  0  0  0  0  0  0
   48.9130   32.2470   40.4910 O   0  0  0  0  0  0  0  0  0  0  0  0
   48.5870   33.1120   39.4760 C   0  0  0  0  0  2  0  0  0  0  0  0
   47.5780   34.1730   39.8590 C   0  0  0  0  0  2  0  0  0  0  0  0
  1  6  1  0  0  0  0
  2  3  1  0  0  0  0
  2  1  2  0  0  0  0
  3  4  2  0  0  0  0
  4  5  1  0  0  0  0
  5 10  1  0  0  0  0
  6  5  2  0  0  0  0
  7  1  1  0  0  0  0
  8  3  1  0  0  0  0
  9 14  1  6  0  0  0
  9 19  1  0  0  0  0
  9 13  1  0  0  0  0
 10 15  1  6  0  0  0
 10  9  1  0  0  0  0
 10 11  1  0  0  0  0
 11 12  1  0  0  0  0
 12 16  1  0  0  0  0
 12 17  1  0  0  0  0
 13 18  1  6  0  0  0
 13 12  1  0  0  0  0
 13 21  1  0  0  0  0
 19 20  1  0  0  0  0
 21 22  1  0  0  0  0
 23 25  1  0  0  0  0
 23  2  1  0  0  0  0
 24 23  1  0  0  0  0
 26 27  1  0  0  0  0
 26 23  1  0  0  0  0
 27 32  1  0  0  0  0
 28 33  1  0  0  0  0
 28 27  2  0  0  0  0
 29 28  1  0  0  0  0
 30 29  2  0  0  0  0
 30 31  1  0  0  0  0
 31 26  2  0  0  0  0
 34 29  1  0  0  0  0
 35 30  1  0  0  0  0
 36 37  1  0  0  0  0
 36 31  1  0  0  0  0
 37 38  1  0  0  0  0
 37 39  1  0  0  0  0
 39 40  1  0  0  0  0
 41 39  1  0  0  0  0
 42 43  1  0  0  0  0
 42 41  1  0  0  0  0
 43 36  1  0  0  0  0
M  END
>  <minimizedAffinity>
-6.87034512

>  <minimizedRMSD>
0.682515264

$$$$
