
 OpenBabel03252500353D

 45 48  0  0  1  0  0  0  0  0999 V2000
   45.7390   35.3760   43.5130 C   0  0  1  0  0  0  0  0  0  0  0  0
   44.6410   34.9310   44.2490 C   0  0  0  0  0  0  0  0  0  0  0  0
   45.9380   34.4190   44.7250 C   0  0  1  0  0  0  0  0  0  0  0  0
   46.1460   36.4150   43.6640 H   0  0  0  0  0  0  0  0  0  0  0  0
   43.9510   34.1400   43.8340 H   0  0  0  0  0  0  0  0  0  0  0  0
   44.0570   35.6460   44.8810 H   0  0  0  0  0  0  0  0  0  0  0  0
   46.5450   34.9110   45.4960 H   0  0  0  0  0  0  0  0  0  0  0  0
   45.2230   34.2190   41.3590 C   0  0  0  0  0  0  0  0  0  0  0  0
   46.1980   34.8650   42.1860 C   0  0  0  0  0  0  0  0  0  0  0  0
   47.4780   34.9880   41.7530 C   0  0  0  0  0  0  0  0  0  0  0  0
   47.7730   34.4720   40.5120 N   0  0  0  0  0  0  0  0  0  0  0  0
   46.8450   33.8660   39.7420 C   0  0  0  0  0  0  0  0  0  0  0  0
   45.5360   33.7200   40.1430 N   0  0  0  0  0  0  0  0  0  0  0  0
   44.1830   34.0920   41.6550 H   0  0  0  0  0  0  0  0  0  0  0  0
   48.2100   35.4670   42.3650 H   0  0  0  0  0  0  0  0  0  0  0  0
   47.2470   33.3650   38.4760 N   0  0  0  0  0  0  0  0  0  0  0  0
   48.3210   34.0340   37.7870 C   0  0  0  0  0  0  0  0  0  0  0  0
   47.9550   34.6590   36.9450 H   0  0  0  0  0  0  0  0  0  0  0  0
   49.2610   33.0100   37.1700 C   0  0  0  0  0  0  0  0  0  0  0  0
   49.8970   33.4830   36.4150 H   0  0  0  0  0  0  0  0  0  0  0  0
   48.5470   32.0020   36.5280 O   0  0  0  0  0  0  0  0  0  0  0  0
   47.7560   31.3030   37.4320 C   0  0  0  0  0  0  0  0  0  0  0  0
   46.6060   32.2120   37.8760 C   0  0  0  0  0  0  0  0  0  0  0  0
   46.3230   33.0080   44.4780 C   0  0  0  0  0  0  0  0  0  0  0  0
   45.8810   32.6980   43.5080 H   0  0  0  0  0  0  0  0  0  0  0  0
   47.4220   32.9420   44.4410 H   0  0  0  0  0  0  0  0  0  0  0  0
   45.8350   32.2420   45.5710 N   0  0  0  0  0  0  0  0  0  0  0  0
   45.9220   32.8010   46.8530 C   0  0  0  0  0  0  0  0  0  0  0  0
   47.2470   32.4380   47.5500 C   0  0  0  0  0  0  0  0  0  0  0  0
   47.1920   30.9500   47.8070 C   0  0  0  0  0  0  0  0  0  0  0  0
   47.0860   30.2910   46.4570 C   0  0  0  0  0  0  0  0  0  0  0  0
   46.0130   30.8510   45.5650 C   0  0  2  0  0  0  0  0  0  0  0  0
   45.6270   33.8370   47.0080 H   0  0  0  0  0  0  0  0  0  0  0  0
   45.1660   32.2320   47.4790 H   0  0  0  0  0  0  0  0  0  0  0  0
   48.0310   32.6450   46.8000 H   0  0  0  0  0  0  0  0  0  0  0  0
   47.3540   32.9560   48.5010 H   0  0  0  0  0  0  0  0  0  0  0  0
   48.1670   30.5950   48.2330 H   0  0  0  0  0  0  0  0  0  0  0  0
   46.3210   30.6690   48.4060 H   0  0  0  0  0  0  0  0  0  0  0  0
   48.0340   30.3500   45.8880 H   0  0  0  0  0  0  0  0  0  0  0  0
   46.8700   29.1960   46.5730 H   0  0  0  0  0  0  0  0  0  0  0  0
   45.0540   30.3750   45.8840 H   0  0  0  0  0  0  0  0  0  0  0  0
   46.2910   30.3170   44.1670 C   0  0  0  0  0  0  0  0  0  0  0  0
   46.3380   29.2150   44.2540 H   0  0  0  0  0  0  0  0  0  0  0  0
   45.5070   30.6550   43.4560 H   0  0  0  0  0  0  0  0  0  0  0  0
   47.2670   30.7110   43.8380 H   0  0  0  0  0  0  0  0  0  0  0  0
  1  4  1  1  0  0  0
  1  2  1  0  0  0  0
  1  3  1  0  0  0  0
  2  3  1  0  0  0  0
  2  6  1  0  0  0  0
  3  7  1  1  0  0  0
  5  2  1  0  0  0  0
  8 14  1  0  0  0  0
  8  9  1  0  0  0  0
  9  1  1  0  0  0  0
 10  9  2  0  0  0  0
 10 15  1  0  0  0  0
 11 10  1  0  0  0  0
 12 13  1  0  0  0  0
 12 11  2  0  0  0  0
 13  8  2  0  0  0  0
 16 12  1  0  0  0  0
 17 16  1  0  0  0  0
 18 17  1  0  0  0  0
 19 17  1  0  0  0  0
 20 19  1  0  0  0  0
 21 19  1  0  0  0  0
 21 22  1  0  0  0  0
 22 23  1  0  0  0  0
 23 16  1  0  0  0  0
 24  3  1  0  0  0  0
 24 27  1  0  0  0  0
 25 24  1  0  0  0  0
 26 24  1  0  0  0  0
 27 28  1  0  0  0  0
 28 33  1  0  0  0  0
 28 34  1  0  0  0  0
 28 29  1  0  0  0  0
 29 30  1  0  0  0  0
 29 36  1  0  0  0  0
 30 37  1  0  0  0  0
 30 38  1  0  0  0  0
 31 40  1  0  0  0  0
 31 30  1  0  0  0  0
 32 27  1  0  0  0  0
 32 41  1  1  0  0  0
 32 31  1  0  0  0  0
 35 29  1  0  0  0  0
 39 31  1  0  0  0  0
 42 43  1  0  0  0  0
 42 32  1  0  0  0  0
 44 42  1  0  0  0  0
 45 42  1  0  0  0  0
M  END
>  <minimizedAffinity>
-4.95634842

>  <minimizedRMSD>
2.41365647

$$$$
