
 OpenBabel03242519153D

 41 44  0  0  1  0  0  0  0  0999 V2000
   48.3110   34.0770   40.9490 C   0  0  0  0  0  0  0  0  0  0  0  0
   47.5950   34.1730   39.7780 C   0  0  0  0  0  0  0  0  0  0  0  0
   47.8130   33.3380   38.6780 C   0  0  0  0  0  0  0  0  0  0  0  0
   48.7900   32.4100   38.8390 N   0  0  0  0  0  0  0  0  0  0  0  0
   49.4890   32.3160   39.9790 C   0  0  0  0  0  0  0  0  0  0  0  0
   49.2470   33.1380   41.0070 N   0  0  0  0  0  0  0  0  0  0  0  0
   46.8040   34.9300   39.6630 H   0  0  0  0  0  0  0  0  0  0  0  0
   47.2270   33.4500   37.7810 H   0  0  0  0  0  0  0  0  0  0  0  0
   50.5510   31.2770   40.1740 C   0  0  2  0  0  0  0  0  0  0  0  0
   50.8990   30.8710   41.5700 C   0  0  0  0  0  0  0  0  0  0  0  0
   51.8420   31.7610   40.7420 C   0  0  1  0  0  0  0  0  0  0  0  0
   50.5850   30.4820   39.3900 H   0  0  0  0  0  0  0  0  0  0  0  0
   51.2160   29.8510   41.8270 H   0  0  0  0  0  0  0  0  0  0  0  0
   50.4400   31.4000   42.4290 H   0  0  0  0  0  0  0  0  0  0  0  0
   51.9170   32.8260   40.9750 H   0  0  0  0  0  0  0  0  0  0  0  0
   53.0630   31.1150   40.3930 N   0  0  1  0  0  0  0  0  0  0  0  0
   53.3040   29.8470   41.0060 C   0  0  0  0  0  0  0  0  0  0  0  0
   52.5700   29.0710   40.7760 H   0  0  0  0  0  0  0  0  0  0  0  0
   54.7240   29.4410   40.6020 C   0  0  0  0  0  0  0  0  0  0  0  0
   55.0450   28.5610   41.1700 H   0  0  0  0  0  0  0  0  0  0  0  0
   54.8490   29.2370   39.2570 O   0  0  0  0  0  0  0  0  0  0  0  0
   54.1760   30.0780   38.4340 C   0  0  0  0  0  0  0  0  0  0  0  0
   53.4560   31.2270   39.0330 C   0  0  0  0  0  0  0  0  0  0  0  0
   48.0590   34.9450   42.0730 C   0  0  0  0  0  0  0  0  0  0  0  0
   48.3160   36.0010   41.7750 H   0  0  0  0  0  0  0  0  0  0  0  0
   48.6890   34.7150   42.9500 H   0  0  0  0  0  0  0  0  0  0  0  0
   46.6050   34.9220   42.4250 C   0  0  0  0  0  0  0  0  0  0  0  0
   46.0320   34.3080   41.6920 H   0  0  0  0  0  0  0  0  0  0  0  0
   46.1260   35.9180   42.4130 H   0  0  0  0  0  0  0  0  0  0  0  0
   44.6160   36.3410   44.1390 Cl  0  0  0  0  0  0  0  0  0  0  0  0
   45.4460   34.8920   44.6580 C   0  0  0  0  0  0  0  0  0  0  0  0
   46.3430   34.3280   43.7710 C   0  0  0  0  0  0  0  0  0  0  0  0
   47.0020   33.1850   44.1690 C   0  0  0  0  0  0  0  0  0  0  0  0
   46.7740   32.6180   45.4130 C   0  0  0  0  0  0  0  0  0  0  0  0
   45.8530   33.2200   46.2920 C   0  0  0  0  0  0  0  0  0  0  0  0
   45.2020   34.3560   45.8880 C   0  0  0  0  0  0  0  0  0  0  0  0
   47.7210   32.6890   43.5240 H   0  0  0  0  0  0  0  0  0  0  0  0
   47.2960   31.7220   45.7120 H   0  0  0  0  0  0  0  0  0  0  0  0
   45.6740   32.7810   47.2600 H   0  0  0  0  0  0  0  0  0  0  0  0
   44.2780   35.0070   46.7030 O   0  0  0  0  0  0  0  0  0  0  0  0
   44.5940   35.5840   47.4710 H   0  0  0  0  0  0  0  0  0  0  0  0
  1  6  1  0  0  0  0
  1 24  1  0  0  0  0
  2  1  2  0  0  0  0
  3  4  2  0  0  0  0
  3  2  1  0  0  0  0
  4  5  1  0  0  0  0
  5  9  1  0  0  0  0
  5  6  2  0  0  0  0
  7  2  1  0  0  0  0
  8  3  1  0  0  0  0
  9 12  1  6  0  0  0
  9 11  1  0  0  0  0
  9 10  1  0  0  0  0
 10 13  1  0  0  0  0
 10 14  1  0  0  0  0
 11 15  1  1  0  0  0
 11 10  1  0  0  0  0
 16 23  1  6  0  0  0
 16 11  1  0  0  0  0
 16 17  1  0  0  0  0
 18 17  1  0  0  0  0
 19 17  1  0  0  0  0
 19 20  1  0  0  0  0
 21 19  1  0  0  0  0
 22 23  1  0  0  0  0
 22 21  1  0  0  0  0
 24 27  1  0  0  0  0
 24 26  1  0  0  0  0
 25 24  1  0  0  0  0
 27 32  1  0  0  0  0
 28 27  1  0  0  0  0
 29 27  1  0  0  0  0
 30 31  1  0  0  0  0
 31 36  1  0  0  0  0
 32 33  1  0  0  0  0
 32 31  2  0  0  0  0
 33 34  2  0  0  0  0
 34 38  1  0  0  0  0
 34 35  1  0  0  0  0
 35 39  1  0  0  0  0
 36 35  2  0  0  0  0
 36 40  1  0  0  0  0
 37 33  1  0  0  0  0
 40 41  1  0  0  0  0
M  END
>  <minimizedAffinity>
-5.85760355

>  <minimizedRMSD>
0.538729906

$$$$
